MODEL 1
USER: ADFR SOLUTION from run 81
USER: SCORE 16.640732 LL:  -5.076 LR: -12.966 RR:   0.000 FEB:  -7.597
USER: RMSD 7.971305
USER: SEED 80
USER: STATUS no improvement in best in 2 clusters for 5 generations
USER: GENES 20
USER: genes 0 Translation |==|  0.43863 0.34753 0.82755
USER: genes 1 Rotation |==|  0.16040 0.85720 0.41944 0.52432
USER: genes 2 Torsion [N]-C--CA-[N] |==|  0.67277
USER: genes 3 Torsion [C]-CA--CB-[CG] |==|  0.47272
USER: genes 4 Torsion [CA]-CB--CG-[CD1] |==|  0.32660
USER: genes 5 Torsion [C]-CA--N-[C] |==|  0.63194
USER: genes 6 Torsion [N]-C--CA-[CB] |==|  0.08832
USER: genes 7 Torsion [N]-C--CA-[N] |==|  0.32220
USER: genes 8 Torsion [C]-CA--CB-[CG] |==|  0.72231
USER: genes 9 Torsion [CA]-CB--CG-[CD1] |==|  0.20012
USER: genes 10 Torsion [C]-N--CA-[CB] |==|  0.50585
USER: genes 11 Torsion [N]-CA--CB-[CG] |==|  0.56774
USER: genes 12 Torsion [CA]-CB--CG-[OD1] |==|  0.49368
USER: genes 13 Torsion [N]-CA--C-[N] |==|  0.40585
USER: genes 14 Torsion [C]-N--CA-[C] |==|  0.15000
USER: genes 15 Torsion [N]-CA--CB-[CG] |==|  0.76633
USER: genes 16 Torsion [CA]-CB--CG-[CD1] |==|  0.01322
USER: genes 17 Torsion [N]-CA--C-[N] |==|  0.10600
USER: genes 18 Torsion [C]-N--CA-[CB] |==|  0.20243
USER: genes 19 Torsion [N]-CA--C-[OXT] |==|  0.90655
ROOT
ATOM      1  C   LEU B 341      27.593   0.909 -37.573  1.00 14.43 LIG 0.24  C 
ATOM      2 O    LEU B 341      28.425   1.800 -37.737  1.00 17.21 LIG-0.27  OA
ATOM      3  N   ASP B 342      27.894  -0.271 -37.051  1.00 15.70 LIG-0.35  N 
ATOM      4 H    ASP B 342      27.315  -0.869 -36.836  1.00 15.70 LIG 0.16  HD
ENDROOT
BRANCH 1 5
ATOM      5  CA  LEU B 341      26.129   1.083 -37.972  1.00 14.64 LIG 0.18  C 
BRANCH 5 6
ATOM      6  CB  LEU B 341      25.365  -0.195 -37.619  1.00 15.72 LIG 0.04  C 
BRANCH 6 7
ATOM      7  CG  LEU B 341      23.859  -0.064 -37.748  1.00 16.60 LIG-0.02  C 
ATOM      8  CD1 LEU B 341      23.365  -1.025 -38.805  1.00 17.44 LIG 0.01  C 
ATOM      9  CD2 LEU B 341      23.154  -0.275 -36.409  1.00 18.85 LIG 0.01  C 
ENDBRANCH 6 7
ENDBRANCH 5 6
BRANCH 5 10
ATOM     10  N   LEU B 341      25.956   1.313 -39.404  1.00 16.77 LIG-0.35  N 
ATOM     11  C   PRO B 340      25.177   2.293 -39.846  1.00 19.25 LIG 0.24  C 
ATOM     12 O    PRO B 340      24.627   3.127 -39.118  1.00 21.28 LIG-0.27  OA
ATOM     13 H    LEU B 341      26.391   0.772 -39.911  1.00 16.77 LIG 0.16  HD
BRANCH 11 14
ATOM     14  CA  PRO B 340      25.052   2.370 -41.351  1.00 21.04 LIG 0.18  C 
ATOM     15  N   PRO B 340      26.172   3.076 -42.019  1.00 20.95 LIG-0.34  N 
ATOM     16  CD  PRO B 340      26.791   2.254 -43.072  1.00 22.76 LIG 0.13  C 
ATOM     17  C   PHE B 339      26.384   4.364 -41.755  1.00 19.72 LIG 0.26  C 
ATOM     18  CG  PRO B 340      25.767   1.150 -43.229  1.00 24.91 LIG 0.02  C 
ATOM     19  CB  PRO B 340      25.158   0.962 -41.903  1.00 23.27 LIG 0.04  C 
ATOM     20 O    PHE B 339      25.730   4.955 -40.883  1.00 19.38 LIG-0.27  OA
BRANCH 17 21
ATOM     21  CA  PHE B 339      27.453   5.086 -42.574  1.00 21.94 LIG 0.40  C 
ATOM     22  N   PHE B 339      26.877   6.146 -43.387  1.00 23.90 LIG 0.61  N 
BRANCH 21 23
ATOM     23  CB  PHE B 339      28.512   5.675 -41.651  1.00 24.29 LIG 0.09  C 
BRANCH 23 24
ATOM     24  CG  PHE B 339      28.344   7.143 -41.385  1.00 28.97 LIG-0.06  A 
ATOM     25  CD1 PHE B 339      27.311   7.605 -40.572  1.00 31.92 LIG 0.01  A 
ATOM     26  CE1 PHE B 339      27.153   8.963 -40.322  1.00 33.96 LIG 0.00  A 
ATOM     27  CZ  PHE B 339      28.049   9.873 -40.875  1.00 35.90 LIG 0.00  A 
ATOM     28  CE2 PHE B 339      29.093   9.422 -41.684  1.00 35.56 LIG 0.00  A 
ATOM     29  CD2 PHE B 339      29.233   8.059 -41.932  1.00 33.37 LIG 0.01  A 
ENDBRANCH 23 24
ENDBRANCH 21 23
ENDBRANCH 17 21
ENDBRANCH 11 14
ENDBRANCH 5 10
ENDBRANCH 1 5
BRANCH 3 30
ATOM     30  CA  ASP B 342      29.283  -0.644 -36.799  1.00 16.21 LIG 0.19  C 
BRANCH 30 31
ATOM     31  CB  ASP B 342      29.337  -2.057 -36.251  1.00 18.68 LIG 0.15  C 
BRANCH 31 32
ATOM     32  CG  ASP B 342      30.550  -2.344 -35.444  1.00 22.92 LIG 0.17  C 
ATOM     33 OD1  ASP B 342      30.703  -3.466 -34.893  1.00 25.81 LIG-0.65  OA
ATOM     34 OD2  ASP B 342      31.360  -1.400 -35.374  1.00 25.94 LIG-0.65  OA
ENDBRANCH 31 32
ENDBRANCH 30 31
BRANCH 30 35
ATOM     35  C   ASP B 342      30.107  -0.660 -38.093  1.00 16.03 LIG 0.24  C 
ATOM     36  N   LEU B 343      31.388  -0.289 -37.968  1.00 16.72 LIG-0.35  N 
ATOM     37 H    LEU B 343      31.690   0.141 -37.288  1.00 16.72 LIG 0.16  HD
ATOM     38 O    ASP B 342      29.624  -1.091 -39.136  1.00 14.87 LIG-0.27  OA
BRANCH 36 39
ATOM     39  CA  LEU B 343      32.405  -0.582 -38.986  1.00 16.14 LIG 0.18  C 
BRANCH 39 40
ATOM     40  CB  LEU B 343      32.684  -2.076 -39.093  1.00 19.18 LIG 0.04  C 
BRANCH 40 41
ATOM     41  CG  LEU B 343      33.704  -2.609 -38.068  1.00 20.67 LIG-0.02  C 
ATOM     42  CD1 LEU B 343      34.090  -1.469 -37.107  1.00 23.87 LIG 0.01  C 
ATOM     43  CD2 LEU B 343      33.129  -3.787 -37.300  1.00 22.92 LIG 0.01  C 
ENDBRANCH 40 41
ENDBRANCH 39 40
BRANCH 39 44
ATOM     44  C   LEU B 343      31.942  -0.065 -40.353  1.00 14.33 LIG 0.24  C 
ATOM     45 O    LEU B 343      32.176  -0.698 -41.398  1.00 16.10 LIG-0.27  OA
ATOM     46  N   ALA B 344      31.301   1.082 -40.350  1.00 14.89 LIG-0.34  N 
ATOM     47 H    ALA B 344      31.067   1.508 -39.641  1.00 14.89 LIG 0.16  HD
BRANCH 46 48
ATOM     48  CA  ALA B 344      30.929   1.734 -41.618  1.00 15.57 LIG 0.18  C 
ATOM     49  CB  ALA B 344      29.798   1.002 -42.276  1.00 18.12 LIG 0.04  C 
BRANCH 48 50
ATOM     50  C   ALA B 344      30.499   3.172 -41.349  1.00 15.03 LIG 0.20  C 
ATOM     51 OXT  ALA B 344      29.911   3.475 -40.300  1.00 16.10 LIG-0.65  OA
ATOM     52 O    ALA B 344      30.838   4.033 -42.203  1.00 15.80 LIG-0.65  OA
ENDBRANCH 48 50
ENDBRANCH 46 48
ENDBRANCH 39 44
ENDBRANCH 36 39
ENDBRANCH 30 35
ENDBRANCH 3 30
TORSDOF 18
ENDMDL
MODEL 2
USER: ADFR SOLUTION from run 36
USER: SCORE 15.328166 LL:  -3.923 LR: -12.917 RR:   0.000 FEB:  -7.548
USER: RMSD 7.560566
USER: SEED 35
USER: STATUS no improvement in best in 4 clusters for 5 generations
USER: GENES 20
USER: genes 0 Translation |==|  0.35124 0.34984 0.82249
USER: genes 1 Rotation |==|  0.17774 0.74812 0.62293 0.76358
USER: genes 2 Torsion [N]-C--CA-[N] |==|  0.86748
USER: genes 3 Torsion [C]-CA--CB-[CG] |==|  0.17892
USER: genes 4 Torsion [CA]-CB--CG-[CD1] |==|  0.24032
USER: genes 5 Torsion [C]-CA--N-[C] |==|  0.84830
USER: genes 6 Torsion [N]-C--CA-[CB] |==|  0.91243
USER: genes 7 Torsion [N]-C--CA-[N] |==|  0.30734
USER: genes 8 Torsion [C]-CA--CB-[CG] |==|  0.72516
USER: genes 9 Torsion [CA]-CB--CG-[CD1] |==|  0.71243
USER: genes 10 Torsion [C]-N--CA-[CB] |==|  0.24472
USER: genes 11 Torsion [N]-CA--CB-[CG] |==|  0.11343
USER: genes 12 Torsion [CA]-CB--CG-[OD1] |==|  0.67030
USER: genes 13 Torsion [N]-CA--C-[N] |==|  0.45934
USER: genes 14 Torsion [C]-N--CA-[C] |==|  0.64444
USER: genes 15 Torsion [N]-CA--CB-[CG] |==|  0.85483
USER: genes 16 Torsion [CA]-CB--CG-[CD1] |==|  0.23814
USER: genes 17 Torsion [N]-CA--C-[N] |==|  0.95102
USER: genes 18 Torsion [C]-N--CA-[CB] |==|  0.26987
USER: genes 19 Torsion [N]-CA--C-[OXT] |==|  0.53646
ROOT
ATOM      1  C   LEU B 341      25.889   0.959 -37.683  1.00 14.43 LIG 0.24  C 
ATOM      2 O    LEU B 341      26.218   1.521 -36.639  1.00 17.21 LIG-0.27  OA
ATOM      3  N   ASP B 342      26.741   0.277 -38.433  1.00 15.70 LIG-0.35  N 
ATOM      4 H    ASP B 342      26.516  -0.204 -39.109  1.00 15.70 LIG 0.16  HD
ENDROOT
BRANCH 1 5
ATOM      5  CA  LEU B 341      24.458   1.012 -38.216  1.00 14.64 LIG 0.18  C 
BRANCH 5 6
ATOM      6  CB  LEU B 341      23.820  -0.370 -38.056  1.00 15.72 LIG 0.04  C 
BRANCH 6 7
ATOM      7  CG  LEU B 341      23.661  -0.807 -36.611  1.00 16.60 LIG-0.02  C 
ATOM      8  CD1 LEU B 341      22.353  -0.275 -36.072  1.00 17.44 LIG 0.01  C 
ATOM      9  CD2 LEU B 341      23.765  -2.324 -36.463  1.00 18.85 LIG 0.01  C 
ENDBRANCH 6 7
ENDBRANCH 5 6
BRANCH 5 10
ATOM     10  N   LEU B 341      24.395   1.360 -39.633  1.00 16.77 LIG-0.35  N 
ATOM     11  C   PRO B 340      24.974   2.465 -40.088  1.00 19.25 LIG 0.24  C 
ATOM     12 O    PRO B 340      25.673   3.218 -39.401  1.00 21.28 LIG-0.27  OA
ATOM     13 H    LEU B 341      23.963   0.801 -40.123  1.00 16.77 LIG 0.16  HD
BRANCH 11 14
ATOM     14  CA  PRO B 340      24.773   2.720 -41.565  1.00 21.04 LIG 0.18  C 
ATOM     15  N   PRO B 340      25.931   3.360 -42.235  1.00 20.95 LIG-0.34  N 
ATOM     16  CD  PRO B 340      26.382   2.591 -43.407  1.00 22.76 LIG 0.13  C 
ATOM     17  C   PHE B 339      26.315   4.577 -41.858  1.00 19.72 LIG 0.26  C 
ATOM     18  CG  PRO B 340      25.222   1.637 -43.603  1.00 24.91 LIG 0.02  C 
ATOM     19  CB  PRO B 340      24.673   1.378 -42.263  1.00 23.27 LIG 0.04  C 
ATOM     20 O    PHE B 339      25.790   5.141 -40.887  1.00 19.38 LIG-0.27  OA
BRANCH 17 21
ATOM     21  CA  PHE B 339      27.416   5.255 -42.672  1.00 21.94 LIG 0.40  C 
ATOM     22  N   PHE B 339      26.900   6.385 -43.430  1.00 23.90 LIG 0.61  N 
BRANCH 21 23
ATOM     23  CB  PHE B 339      28.533   5.730 -41.752  1.00 24.29 LIG 0.09  C 
BRANCH 23 24
ATOM     24  CG  PHE B 339      28.461   7.189 -41.406  1.00 28.97 LIG-0.06  A 
ATOM     25  CD1 PHE B 339      29.315   8.108 -42.012  1.00 31.92 LIG 0.01  A 
ATOM     26  CE1 PHE B 339      29.251   9.459 -41.696  1.00 33.96 LIG 0.00  A 
ATOM     27  CZ  PHE B 339      28.309   9.905 -40.773  1.00 35.90 LIG 0.00  A 
ATOM     28  CE2 PHE B 339      27.442   8.996 -40.164  1.00 35.56 LIG 0.00  A 
ATOM     29  CD2 PHE B 339      27.524   7.644 -40.486  1.00 33.37 LIG 0.01  A 
ENDBRANCH 23 24
ENDBRANCH 21 23
ENDBRANCH 17 21
ENDBRANCH 11 14
ENDBRANCH 5 10
ENDBRANCH 1 5
BRANCH 3 30
ATOM     30  CA  ASP B 342      28.173   0.299 -38.147  1.00 16.21 LIG 0.19  C 
BRANCH 30 31
ATOM     31  CB  ASP B 342      28.510  -0.796 -37.155  1.00 18.68 LIG 0.15  C 
BRANCH 31 32
ATOM     32  CG  ASP B 342      27.799  -2.076 -37.405  1.00 22.92 LIG 0.17  C 
ATOM     33 OD1  ASP B 342      27.016  -2.554 -36.542  1.00 25.81 LIG-0.65  OA
ATOM     34 OD2  ASP B 342      28.050  -2.600 -38.507  1.00 25.94 LIG-0.65  OA
ENDBRANCH 31 32
ENDBRANCH 30 31
BRANCH 30 35
ATOM     35  C   ASP B 342      29.003   0.003 -39.403  1.00 16.03 LIG 0.24  C 
ATOM     36  N   LEU B 343      30.307   0.298 -39.318  1.00 16.72 LIG-0.35  N 
ATOM     37 H    LEU B 343      30.634   0.816 -38.715  1.00 16.72 LIG 0.16  HD
ATOM     38 O    ASP B 342      28.498  -0.566 -40.366  1.00 14.87 LIG-0.27  OA
BRANCH 36 39
ATOM     39  CA  LEU B 343      31.308  -0.236 -40.249  1.00 16.14 LIG 0.18  C 
BRANCH 39 40
ATOM     40  CB  LEU B 343      31.873   0.850 -41.156  1.00 19.18 LIG 0.04  C 
BRANCH 40 41
ATOM     41  CG  LEU B 343      30.808   1.682 -41.895  1.00 20.67 LIG-0.02  C 
ATOM     42  CD1 LEU B 343      30.351   2.835 -40.982  1.00 23.87 LIG 0.01  C 
ATOM     43  CD2 LEU B 343      31.361   2.221 -43.205  1.00 22.92 LIG 0.01  C 
ENDBRANCH 40 41
ENDBRANCH 39 40
BRANCH 39 44
ATOM     44  C   LEU B 343      32.459  -0.879 -39.467  1.00 14.33 LIG 0.24  C 
ATOM     45 O    LEU B 343      33.242  -1.680 -40.010  1.00 16.10 LIG-0.27  OA
ATOM     46  N   ALA B 344      32.557  -0.544 -38.201  1.00 14.89 LIG-0.34  N 
ATOM     47 H    ALA B 344      32.073   0.055 -37.817  1.00 14.89 LIG 0.16  HD
BRANCH 46 48
ATOM     48  CA  ALA B 344      33.542  -1.202 -37.326  1.00 15.57 LIG 0.18  C 
ATOM     49  CB  ALA B 344      34.783  -0.369 -37.208  1.00 18.12 LIG 0.04  C 
BRANCH 48 50
ATOM     50  C   ALA B 344      32.944  -1.401 -35.938  1.00 15.03 LIG 0.20  C 
ATOM     51 OXT  ALA B 344      33.660  -1.711 -34.974  1.00 16.10 LIG-0.65  OA
ATOM     52 O    ALA B 344      31.714  -1.161 -35.812  1.00 15.80 LIG-0.65  OA
ENDBRANCH 48 50
ENDBRANCH 46 48
ENDBRANCH 39 44
ENDBRANCH 36 39
ENDBRANCH 30 35
ENDBRANCH 3 30
TORSDOF 18
ENDMDL
MODEL 3
USER: ADFR SOLUTION from run 104
USER: SCORE 15.499782 LL:  -4.971 LR: -12.535 RR:   0.000 FEB:  -7.165
USER: RMSD 7.288130
USER: SEED 103
USER: STATUS no improvement in best in 8 clusters for 5 generations
USER: GENES 20
USER: genes 0 Translation |==|  0.39610 0.38100 0.84304
USER: genes 1 Rotation |==|  0.20465 0.85014 0.58466 0.68166
USER: genes 2 Torsion [N]-C--CA-[N] |==|  0.88578
USER: genes 3 Torsion [C]-CA--CB-[CG] |==|  0.71704
USER: genes 4 Torsion [CA]-CB--CG-[CD1] |==|  0.23310
USER: genes 5 Torsion [C]-CA--N-[C] |==|  0.85078
USER: genes 6 Torsion [N]-C--CA-[CB] |==|  0.82660
USER: genes 7 Torsion [N]-C--CA-[N] |==|  0.17307
USER: genes 8 Torsion [C]-CA--CB-[CG] |==|  0.21151
USER: genes 9 Torsion [CA]-CB--CG-[CD1] |==|  0.16873
USER: genes 10 Torsion [C]-N--CA-[CB] |==|  0.36319
USER: genes 11 Torsion [N]-CA--CB-[CG] |==|  0.69382
USER: genes 12 Torsion [CA]-CB--CG-[OD1] |==|  0.34623
USER: genes 13 Torsion [N]-CA--C-[N] |==|  0.35094
USER: genes 14 Torsion [C]-N--CA-[C] |==|  0.66667
USER: genes 15 Torsion [N]-CA--CB-[CG] |==|  0.82859
USER: genes 16 Torsion [CA]-CB--CG-[CD1] |==|  0.88991
USER: genes 17 Torsion [N]-CA--C-[N] |==|  0.98670
USER: genes 18 Torsion [C]-N--CA-[CB] |==|  0.85696
USER: genes 19 Torsion [N]-CA--C-[OXT] |==|  0.63467
ROOT
ATOM      1  C   LEU B 341      26.764   1.637 -37.236  1.00 14.43 LIG 0.24  C 
ATOM      2 O    LEU B 341      27.565   2.305 -36.583  1.00 17.21 LIG-0.27  OA
ATOM      3  N   ASP B 342      27.101   0.521 -37.866  1.00 15.70 LIG-0.35  N 
ATOM      4 H    ASP B 342      26.541  -0.011 -38.243  1.00 15.70 LIG 0.16  HD
ENDROOT
BRANCH 1 5
ATOM      5  CA  LEU B 341      25.300   2.048 -37.389  1.00 14.64 LIG 0.18  C 
BRANCH 5 6
ATOM      6  CB  LEU B 341      24.445   1.186 -36.458  1.00 15.72 LIG 0.04  C 
BRANCH 6 7
ATOM      7  CG  LEU B 341      23.715   0.060 -37.164  1.00 16.60 LIG-0.02  C 
ATOM      8  CD1 LEU B 341      24.643  -1.125 -37.305  1.00 17.44 LIG 0.01  C 
ATOM      9  CD2 LEU B 341      22.417  -0.313 -36.447  1.00 18.85 LIG 0.01  C 
ENDBRANCH 6 7
ENDBRANCH 5 6
BRANCH 5 10
ATOM     10  N   LEU B 341      24.797   1.855 -38.746  1.00 16.77 LIG-0.35  N 
ATOM     11  C   PRO B 340      25.430   2.384 -39.788  1.00 19.25 LIG 0.24  C 
ATOM     12 O    PRO B 340      26.509   2.981 -39.716  1.00 21.28 LIG-0.27  OA
ATOM     13 H    LEU B 341      24.081   1.384 -38.802  1.00 16.77 LIG 0.16  HD
BRANCH 11 14
ATOM     14  CA  PRO B 340      24.757   2.146 -41.121  1.00 21.04 LIG 0.18  C 
ATOM     15  N   PRO B 340      25.512   2.668 -42.285  1.00 20.95 LIG-0.34  N 
ATOM     16  CD  PRO B 340      25.745   1.628 -43.301  1.00 22.76 LIG 0.13  C 
ATOM     17  C   PHE B 339      25.735   3.977 -42.388  1.00 19.72 LIG 0.26  C 
ATOM     18  CG  PRO B 340      24.798   0.541 -42.838  1.00 24.91 LIG 0.02  C 
ATOM     19  CB  PRO B 340      24.730   0.651 -41.373  1.00 23.27 LIG 0.04  C 
ATOM     20 O    PHE B 339      25.415   4.753 -41.476  1.00 19.38 LIG-0.27  OA
BRANCH 17 21
ATOM     21  CA  PHE B 339      26.387   4.484 -43.674  1.00 21.94 LIG 0.40  C 
ATOM     22  N   PHE B 339      25.553   4.218 -44.835  1.00 23.90 LIG 0.61  N 
BRANCH 21 23
ATOM     23  CB  PHE B 339      26.653   5.980 -43.572  1.00 24.29 LIG 0.09  C 
BRANCH 23 24
ATOM     24  CG  PHE B 339      27.835   6.335 -42.717  1.00 28.97 LIG-0.06  A 
ATOM     25  CD1 PHE B 339      29.111   5.882 -43.042  1.00 31.92 LIG 0.01  A 
ATOM     26  CE1 PHE B 339      30.207   6.209 -42.254  1.00 33.96 LIG 0.00  A 
ATOM     27  CZ  PHE B 339      30.032   7.016 -41.133  1.00 35.90 LIG 0.00  A 
ATOM     28  CE2 PHE B 339      28.760   7.484 -40.801  1.00 35.56 LIG 0.00  A 
ATOM     29  CD2 PHE B 339      27.670   7.140 -41.596  1.00 33.37 LIG 0.01  A 
ENDBRANCH 23 24
ENDBRANCH 21 23
ENDBRANCH 17 21
ENDBRANCH 11 14
ENDBRANCH 5 10
ENDBRANCH 1 5
BRANCH 3 30
ATOM     30  CA  ASP B 342      28.498   0.111 -37.963  1.00 16.21 LIG 0.19  C 
BRANCH 30 31
ATOM     31  CB  ASP B 342      28.630  -1.342 -37.550  1.00 18.68 LIG 0.15  C 
BRANCH 31 32
ATOM     32  CG  ASP B 342      29.335  -1.540 -36.258  1.00 22.92 LIG 0.17  C 
ATOM     33 OD1  ASP B 342      28.790  -2.183 -35.322  1.00 25.81 LIG-0.65  OA
ATOM     34 OD2  ASP B 342      30.468  -1.025 -36.203  1.00 25.94 LIG-0.65  OA
ENDBRANCH 31 32
ENDBRANCH 30 31
BRANCH 30 35
ATOM     35  C   ASP B 342      29.010   0.189 -39.407  1.00 16.03 LIG 0.24  C 
ATOM     36  N   LEU B 343      30.126   0.907 -39.588  1.00 16.72 LIG-0.35  N 
ATOM     37 H    LEU B 343      30.423   1.470 -39.011  1.00 16.72 LIG 0.16  HD
ATOM     38 O    ASP B 342      28.471  -0.463 -40.297  1.00 14.87 LIG-0.27  OA
BRANCH 36 39
ATOM     39  CA  LEU B 343      30.955   0.801 -40.795  1.00 16.14 LIG 0.18  C 
BRANCH 39 40
ATOM     40  CB  LEU B 343      31.040   2.127 -41.541  1.00 19.18 LIG 0.04  C 
BRANCH 40 41
ATOM     41  CG  LEU B 343      29.688   2.657 -42.054  1.00 20.67 LIG-0.02  C 
ATOM     42  CD1 LEU B 343      28.856   1.476 -42.586  1.00 23.87 LIG 0.01  C 
ATOM     43  CD2 LEU B 343      28.942   3.384 -40.947  1.00 22.92 LIG 0.01  C 
ENDBRANCH 40 41
ENDBRANCH 39 40
BRANCH 39 44
ATOM     44  C   LEU B 343      32.372   0.352 -40.419  1.00 14.33 LIG 0.24  C 
ATOM     45 O    LEU B 343      33.223   0.098 -41.290  1.00 16.10 LIG-0.27  OA
ATOM     46  N   ALA B 344      32.621   0.242 -39.134  1.00 14.89 LIG-0.34  N 
ATOM     47 H    ALA B 344      32.076   0.473 -38.510  1.00 14.89 LIG 0.16  HD
BRANCH 46 48
ATOM     48  CA  ALA B 344      33.905  -0.308 -38.665  1.00 15.57 LIG 0.18  C 
ATOM     49  CB  ALA B 344      34.189  -1.622 -39.328  1.00 18.12 LIG 0.04  C 
BRANCH 48 50
ATOM     50  C   ALA B 344      35.031   0.666 -38.993  1.00 15.03 LIG 0.20  C 
ATOM     51 OXT  ALA B 344      36.072   0.276 -39.542  1.00 16.10 LIG-0.65  OA
ATOM     52 O    ALA B 344      34.815   1.883 -38.748  1.00 15.80 LIG-0.65  OA
ENDBRANCH 48 50
ENDBRANCH 46 48
ENDBRANCH 39 44
ENDBRANCH 36 39
ENDBRANCH 30 35
ENDBRANCH 3 30
TORSDOF 18
ENDMDL
MODEL 4
USER: ADFR SOLUTION from run 103
USER: SCORE 15.070846 LL:  -3.803 LR: -12.321 RR:   0.000 FEB:  -6.952
USER: RMSD 6.637402
USER: SEED 102
USER: STATUS no improvement in best in 10 clusters for 5 generations
USER: GENES 20
USER: genes 0 Translation |==|  0.39623 0.52939 0.64175
USER: genes 1 Rotation |==|  0.51128 0.56291 0.23497 0.91913
USER: genes 2 Torsion [N]-C--CA-[N] |==|  0.09969
USER: genes 3 Torsion [C]-CA--CB-[CG] |==|  0.34405
USER: genes 4 Torsion [CA]-CB--CG-[CD1] |==|  0.31614
USER: genes 5 Torsion [C]-CA--N-[C] |==|  0.65556
USER: genes 6 Torsion [N]-C--CA-[CB] |==|  0.60670
USER: genes 7 Torsion [N]-C--CA-[N] |==|  0.48121
USER: genes 8 Torsion [C]-CA--CB-[CG] |==|  0.70315
USER: genes 9 Torsion [CA]-CB--CG-[CD1] |==|  0.18318
USER: genes 10 Torsion [C]-N--CA-[CB] |==|  0.52882
USER: genes 11 Torsion [N]-CA--CB-[CG] |==|  0.05733
USER: genes 12 Torsion [CA]-CB--CG-[OD1] |==|  0.79975
USER: genes 13 Torsion [N]-CA--C-[N] |==|  0.55524
USER: genes 14 Torsion [C]-N--CA-[C] |==|  0.85225
USER: genes 15 Torsion [N]-CA--CB-[CG] |==|  0.48504
USER: genes 16 Torsion [CA]-CB--CG-[CD1] |==|  0.25467
USER: genes 17 Torsion [N]-CA--C-[N] |==|  0.88916
USER: genes 18 Torsion [C]-N--CA-[CB] |==|  0.87409
USER: genes 19 Torsion [N]-CA--C-[OXT] |==|  0.55043
ROOT
ATOM      1  C   LEU B 341      26.766   4.864 -41.614  1.00 14.43 LIG 0.24  C 
ATOM      2 O    LEU B 341      25.775   5.357 -41.078  1.00 17.21 LIG-0.27  OA
ATOM      3  N   ASP B 342      26.800   3.618 -42.060  1.00 15.70 LIG-0.35  N 
ATOM      4 H    ASP B 342      27.443   3.285 -42.525  1.00 15.70 LIG 0.16  HD
ENDROOT
BRANCH 1 5
ATOM      5  CA  LEU B 341      28.062   5.652 -41.801  1.00 14.64 LIG 0.18  C 
BRANCH 5 6
ATOM      6  CB  LEU B 341      27.730   7.145 -41.848  1.00 15.72 LIG 0.04  C 
BRANCH 6 7
ATOM      7  CG  LEU B 341      28.474   7.970 -40.814  1.00 16.60 LIG-0.02  C 
ATOM      8  CD1 LEU B 341      29.429   8.907 -41.518  1.00 17.44 LIG 0.01  C 
ATOM      9  CD2 LEU B 341      27.516   8.720 -39.889  1.00 18.85 LIG 0.01  C 
ENDBRANCH 6 7
ENDBRANCH 5 6
BRANCH 5 10
ATOM     10  N   LEU B 341      28.752   5.320 -43.045  1.00 16.77 LIG-0.35  N 
ATOM     11  C   PRO B 340      30.013   4.901 -43.032  1.00 19.25 LIG 0.24  C 
ATOM     12 O    PRO B 340      30.659   4.671 -42.004  1.00 21.28 LIG-0.27  OA
ATOM     13 H    LEU B 341      28.280   5.418 -43.757  1.00 16.77 LIG 0.16  HD
BRANCH 11 14
ATOM     14  CA  PRO B 340      30.607   4.652 -44.400  1.00 21.04 LIG 0.18  C 
ATOM     15  N   PRO B 340      31.550   5.702 -44.854  1.00 20.95 LIG-0.34  N 
ATOM     16  CD  PRO B 340      32.855   5.140 -45.241  1.00 22.76 LIG 0.13  C 
ATOM     17  C   PHE B 339      31.108   6.945 -45.036  1.00 19.72 LIG 0.26  C 
ATOM     18  CG  PRO B 340      32.534   3.662 -45.315  1.00 24.91 LIG 0.02  C 
ATOM     19  CB  PRO B 340      31.486   3.419 -44.312  1.00 23.27 LIG 0.04  C 
ATOM     20 O    PHE B 339      29.949   7.262 -44.731  1.00 19.38 LIG-0.27  OA
BRANCH 17 21
ATOM     21  CA  PHE B 339      32.077   7.958 -45.644  1.00 21.94 LIG 0.40  C 
ATOM     22  N   PHE B 339      31.416   9.222 -45.930  1.00 23.90 LIG 0.61  N 
BRANCH 21 23
ATOM     23  CB  PHE B 339      33.245   8.200 -44.697  1.00 24.29 LIG 0.09  C 
BRANCH 23 24
ATOM     24  CG  PHE B 339      33.206   9.533 -44.006  1.00 28.97 LIG-0.06  A 
ATOM     25  CD1 PHE B 339      32.199   9.831 -43.090  1.00 31.92 LIG 0.01  A 
ATOM     26  CE1 PHE B 339      32.161  11.062 -42.448  1.00 33.96 LIG 0.00  A 
ATOM     27  CZ  PHE B 339      33.151  12.005 -42.708  1.00 35.90 LIG 0.00  A 
ATOM     28  CE2 PHE B 339      34.171  11.715 -43.616  1.00 35.56 LIG 0.00  A 
ATOM     29  CD2 PHE B 339      34.190  10.480 -44.258  1.00 33.37 LIG 0.01  A 
ENDBRANCH 23 24
ENDBRANCH 21 23
ENDBRANCH 17 21
ENDBRANCH 11 14
ENDBRANCH 5 10
ENDBRANCH 1 5
BRANCH 3 30
ATOM     30  CA  ASP B 342      25.705   2.694 -41.780  1.00 16.21 LIG 0.19  C 
BRANCH 30 31
ATOM     31  CB  ASP B 342      26.112   1.289 -42.178  1.00 18.68 LIG 0.15  C 
BRANCH 31 32
ATOM     32  CG  ASP B 342      27.580   1.091 -42.275  1.00 22.92 LIG 0.17  C 
ATOM     33 OD1  ASP B 342      28.236   1.597 -43.224  1.00 25.81 LIG-0.65  OA
ATOM     34 OD2  ASP B 342      28.070   0.402 -41.358  1.00 25.94 LIG-0.65  OA
ENDBRANCH 31 32
ENDBRANCH 30 31
BRANCH 30 35
ATOM     35  C   ASP B 342      25.387   2.634 -40.281  1.00 16.03 LIG 0.24  C 
ATOM     36  N   LEU B 343      24.714   1.549 -39.875  1.00 16.72 LIG-0.35  N 
ATOM     37 H    LEU B 343      24.287   1.031 -40.412  1.00 16.72 LIG 0.16  HD
ATOM     38 O    ASP B 342      25.827   3.485 -39.514  1.00 14.87 LIG-0.27  OA
BRANCH 36 39
ATOM     39  CA  LEU B 343      24.639   1.138 -38.468  1.00 16.14 LIG 0.18  C 
BRANCH 39 40
ATOM     40  CB  LEU B 343      23.930  -0.202 -38.306  1.00 19.18 LIG 0.04  C 
BRANCH 40 41
ATOM     41  CG  LEU B 343      23.933  -0.755 -36.868  1.00 20.67 LIG-0.02  C 
ATOM     42  CD1 LEU B 343      22.660  -0.275 -36.146  1.00 23.87 LIG 0.01  C 
ATOM     43  CD2 LEU B 343      24.005  -2.273 -36.877  1.00 22.92 LIG 0.01  C 
ENDBRANCH 40 41
ENDBRANCH 39 40
BRANCH 39 44
ATOM     44  C   LEU B 343      26.050   1.027 -37.879  1.00 14.33 LIG 0.24  C 
ATOM     45 O    LEU B 343      26.304   1.423 -36.727  1.00 16.10 LIG-0.27  OA
ATOM     46  N   ALA B 344      26.964   0.505 -38.664  1.00 14.89 LIG-0.34  N 
ATOM     47 H    ALA B 344      26.805   0.163 -39.437  1.00 14.89 LIG 0.16  HD
BRANCH 46 48
ATOM     48  CA  ALA B 344      28.378   0.473 -38.249  1.00 15.57 LIG 0.18  C 
ATOM     49  CB  ALA B 344      28.789   1.796 -37.677  1.00 18.12 LIG 0.04  C 
BRANCH 48 50
ATOM     50  C   ALA B 344      28.578  -0.609 -37.194  1.00 15.03 LIG 0.20  C 
ATOM     51 OXT  ALA B 344      29.579  -0.607 -36.461  1.00 16.10 LIG-0.65  OA
ATOM     52 O    ALA B 344      27.647  -1.446 -37.058  1.00 15.80 LIG-0.65  OA
ENDBRANCH 48 50
ENDBRANCH 46 48
ENDBRANCH 39 44
ENDBRANCH 36 39
ENDBRANCH 30 35
ENDBRANCH 3 30
TORSDOF 18
ENDMDL
MODEL 5
USER: ADFR SOLUTION from run 190
USER: SCORE 15.259247 LL:  -4.310 LR: -12.177 RR:   0.000 FEB:  -6.807
USER: RMSD 6.832391
USER: SEED 189
USER: STATUS no improvement in best in 4 clusters for 5 generations
USER: GENES 20
USER: genes 0 Translation |==|  0.38234 0.39744 0.79241
USER: genes 1 Rotation |==|  0.20066 0.79968 0.62921 0.73214
USER: genes 2 Torsion [N]-C--CA-[N] |==|  0.82826
USER: genes 3 Torsion [C]-CA--CB-[CG] |==|  0.15766
USER: genes 4 Torsion [CA]-CB--CG-[CD1] |==|  0.30992
USER: genes 5 Torsion [C]-CA--N-[C] |==|  0.18565
USER: genes 6 Torsion [N]-C--CA-[CB] |==|  0.57025
USER: genes 7 Torsion [N]-C--CA-[N] |==|  0.25194
USER: genes 8 Torsion [C]-CA--CB-[CG] |==|  0.71236
USER: genes 9 Torsion [CA]-CB--CG-[CD1] |==|  0.21012
USER: genes 10 Torsion [C]-N--CA-[CB] |==|  0.85000
USER: genes 11 Torsion [N]-CA--CB-[CG] |==|  0.75759
USER: genes 12 Torsion [CA]-CB--CG-[OD1] |==|  0.57468
USER: genes 13 Torsion [N]-CA--C-[N] |==|  0.34576
USER: genes 14 Torsion [C]-N--CA-[C] |==|  0.64597
USER: genes 15 Torsion [N]-CA--CB-[CG] |==|  0.05791
USER: genes 16 Torsion [CA]-CB--CG-[CD1] |==|  0.39800
USER: genes 17 Torsion [N]-CA--C-[N] |==|  0.20791
USER: genes 18 Torsion [C]-N--CA-[CB] |==|  0.43304
USER: genes 19 Torsion [N]-CA--C-[OXT] |==|  0.59205
ROOT
ATOM      1  C   LEU B 341      26.496   1.994 -38.337  1.00 14.43 LIG 0.24  C 
ATOM      2 O    LEU B 341      27.107   2.562 -37.433  1.00 17.21 LIG-0.27  OA
ATOM      3  N   ASP B 342      27.076   1.158 -39.184  1.00 15.70 LIG-0.35  N 
ATOM      4 H    ASP B 342      26.653   0.676 -39.757  1.00 15.70 LIG 0.16  HD
ENDROOT
BRANCH 1 5
ATOM      5  CA  LEU B 341      25.002   2.218 -38.571  1.00 14.64 LIG 0.18  C 
BRANCH 5 6
ATOM      6  CB  LEU B 341      24.286   0.867 -38.512  1.00 15.72 LIG 0.04  C 
BRANCH 6 7
ATOM      7  CG  LEU B 341      24.505   0.114 -37.212  1.00 16.60 LIG-0.02  C 
ATOM      8  CD1 LEU B 341      23.206   0.065 -36.440  1.00 17.44 LIG 0.01  C 
ATOM      9  CD2 LEU B 341      25.078  -1.282 -37.455  1.00 18.85 LIG 0.01  C 
ENDBRANCH 6 7
ENDBRANCH 5 6
BRANCH 5 10
ATOM     10  N   LEU B 341      24.715   2.807 -39.876  1.00 16.77 LIG-0.35  N 
ATOM     11  C   PRO B 340      24.943   2.127 -40.994  1.00 19.25 LIG 0.24  C 
ATOM     12 O    PRO B 340      25.310   0.947 -41.028  1.00 21.28 LIG-0.27  OA
ATOM     13 H    LEU B 341      24.398   3.605 -39.849  1.00 16.77 LIG 0.16  HD
BRANCH 11 14
ATOM     14  CA  PRO B 340      24.650   2.890 -42.266  1.00 21.04 LIG 0.18  C 
ATOM     15  N   PRO B 340      25.813   3.628 -42.813  1.00 20.95 LIG-0.34  N 
ATOM     16  CD  PRO B 340      26.075   3.278 -44.220  1.00 22.76 LIG 0.13  C 
ATOM     17  C   PHE B 339      26.364   4.607 -42.098  1.00 19.72 LIG 0.26  C 
ATOM     18  CG  PRO B 340      24.803   2.544 -44.587  1.00 24.91 LIG 0.02  C 
ATOM     19  CB  PRO B 340      24.340   1.883 -43.357  1.00 23.27 LIG 0.04  C 
ATOM     20 O    PHE B 339      25.988   4.841 -40.940  1.00 19.38 LIG-0.27  OA
BRANCH 17 21
ATOM     21  CA  PHE B 339      27.463   5.436 -42.761  1.00 21.94 LIG 0.40  C 
ATOM     22  N   PHE B 339      26.916   6.598 -43.444  1.00 23.90 LIG 0.61  N 
BRANCH 21 23
ATOM     23  CB  PHE B 339      28.477   5.891 -41.720  1.00 24.29 LIG 0.09  C 
BRANCH 23 24
ATOM     24  CG  PHE B 339      28.342   7.333 -41.324  1.00 28.97 LIG-0.06  A 
ATOM     25  CD1 PHE B 339      27.315   7.745 -40.477  1.00 31.92 LIG 0.01  A 
ATOM     26  CE1 PHE B 339      27.187   9.078 -40.106  1.00 33.96 LIG 0.00  A 
ATOM     27  CZ  PHE B 339      28.107  10.013 -40.573  1.00 35.90 LIG 0.00  A 
ATOM     28  CE2 PHE B 339      29.145   9.611 -41.415  1.00 35.56 LIG 0.00  A 
ATOM     29  CD2 PHE B 339      29.254   8.273 -41.784  1.00 33.37 LIG 0.01  A 
ENDBRANCH 23 24
ENDBRANCH 21 23
ENDBRANCH 17 21
ENDBRANCH 11 14
ENDBRANCH 5 10
ENDBRANCH 1 5
BRANCH 3 30
ATOM     30  CA  ASP B 342      28.526   0.995 -39.199  1.00 16.21 LIG 0.19  C 
BRANCH 30 31
ATOM     31  CB  ASP B 342      29.187   2.350 -39.362  1.00 18.68 LIG 0.15  C 
BRANCH 31 32
ATOM     32  CG  ASP B 342      29.362   2.769 -40.776  1.00 22.92 LIG 0.17  C 
ATOM     33 OD1  ASP B 342      30.288   3.558 -41.102  1.00 25.81 LIG-0.65  OA
ATOM     34 OD2  ASP B 342      28.533   2.279 -41.567  1.00 25.94 LIG-0.65  OA
ENDBRANCH 31 32
ENDBRANCH 30 31
BRANCH 30 35
ATOM     35  C   ASP B 342      29.044   0.429 -37.870  1.00 16.03 LIG 0.24  C 
ATOM     36  N   LEU B 343      29.772  -0.691 -37.963  1.00 16.72 LIG-0.35  N 
ATOM     37 H    LEU B 343      29.774  -1.196 -38.659  1.00 16.72 LIG 0.16  HD
ATOM     38 O    ASP B 342      28.877   1.045 -36.822  1.00 14.87 LIG-0.27  OA
BRANCH 36 39
ATOM     39  CA  LEU B 343      30.640  -1.170 -36.880  1.00 16.14 LIG 0.18  C 
BRANCH 39 40
ATOM     40  CB  LEU B 343      30.109  -2.454 -36.254  1.00 19.18 LIG 0.04  C 
BRANCH 40 41
ATOM     41  CG  LEU B 343      29.131  -3.241 -37.147  1.00 20.67 LIG-0.02  C 
ATOM     42  CD1 LEU B 343      29.371  -4.749 -36.945  1.00 23.87 LIG 0.01  C 
ATOM     43  CD2 LEU B 343      27.692  -2.878 -36.819  1.00 22.92 LIG 0.01  C 
ENDBRANCH 40 41
ENDBRANCH 39 40
BRANCH 39 44
ATOM     44  C   LEU B 343      32.053  -1.428 -37.417  1.00 14.33 LIG 0.24  C 
ATOM     45 O    LEU B 343      32.475  -2.584 -37.599  1.00 16.10 LIG-0.27  OA
ATOM     46  N   ALA B 344      32.783  -0.363 -37.657  1.00 14.89 LIG-0.34  N 
ATOM     47 H    ALA B 344      32.497   0.446 -37.605  1.00 14.89 LIG 0.16  HD
BRANCH 46 48
ATOM     48  CA  ALA B 344      34.197  -0.498 -38.048  1.00 15.57 LIG 0.18  C 
ATOM     49  CB  ALA B 344      34.651   0.710 -38.812  1.00 18.12 LIG 0.04  C 
BRANCH 48 50
ATOM     50  C   ALA B 344      35.061  -0.650 -36.801  1.00 15.03 LIG 0.20  C 
ATOM     51 OXT  ALA B 344      36.213  -0.191 -36.764  1.00 16.10 LIG-0.65  OA
ATOM     52 O    ALA B 344      34.521  -1.193 -35.801  1.00 15.80 LIG-0.65  OA
ENDBRANCH 48 50
ENDBRANCH 46 48
ENDBRANCH 39 44
ENDBRANCH 36 39
ENDBRANCH 30 35
ENDBRANCH 3 30
TORSDOF 18
ENDMDL
MODEL 6
USER: ADFR SOLUTION from run 151
USER: SCORE 15.086805 LL:  -3.590 LR: -12.123 RR:   0.000 FEB:  -6.754
USER: RMSD 4.251031
USER: SEED 150
USER: STATUS no improvement in best in 4 clusters for 5 generations
USER: GENES 20
USER: genes 0 Translation |==|  0.52219 0.55596 0.62031
USER: genes 1 Rotation |==|  0.42457 0.97044 0.42383 0.63111
USER: genes 2 Torsion [N]-C--CA-[N] |==|  0.01150
USER: genes 3 Torsion [C]-CA--CB-[CG] |==|  0.64055
USER: genes 4 Torsion [CA]-CB--CG-[CD1] |==|  0.29912
USER: genes 5 Torsion [C]-CA--N-[C] |==|  0.65227
USER: genes 6 Torsion [N]-C--CA-[CB] |==|  0.73297
USER: genes 7 Torsion [N]-C--CA-[N] |==|  0.36736
USER: genes 8 Torsion [C]-CA--CB-[CG] |==|  0.78161
USER: genes 9 Torsion [CA]-CB--CG-[CD1] |==|  0.75925
USER: genes 10 Torsion [C]-N--CA-[CB] |==|  0.82681
USER: genes 11 Torsion [N]-CA--CB-[CG] |==|  0.67524
USER: genes 12 Torsion [CA]-CB--CG-[OD1] |==|  0.01956
USER: genes 13 Torsion [N]-CA--C-[N] |==|  0.30001
USER: genes 14 Torsion [C]-N--CA-[C] |==|  0.81753
USER: genes 15 Torsion [N]-CA--CB-[CG] |==|  0.88254
USER: genes 16 Torsion [CA]-CB--CG-[CD1] |==|  0.36745
USER: genes 17 Torsion [N]-CA--C-[N] |==|  0.37869
USER: genes 18 Torsion [C]-N--CA-[CB] |==|  0.24180
USER: genes 19 Torsion [N]-CA--C-[OXT] |==|  0.61132
ROOT
ATOM      1  C   LEU B 341      29.223   5.442 -42.080  1.00 14.43 LIG 0.24  C 
ATOM      2 O    LEU B 341      30.292   5.085 -41.588  1.00 17.21 LIG-0.27  OA
ATOM      3  N   ASP B 342      28.209   4.614 -42.280  1.00 15.70 LIG-0.35  N 
ATOM      4 H    ASP B 342      27.423   4.859 -42.529  1.00 15.70 LIG 0.16  HD
ENDROOT
BRANCH 1 5
ATOM      5  CA  LEU B 341      28.975   6.884 -42.520  1.00 14.64 LIG 0.18  C 
BRANCH 5 6
ATOM      6  CB  LEU B 341      29.194   7.811 -41.322  1.00 15.72 LIG 0.04  C 
BRANCH 6 7
ATOM      7  CG  LEU B 341      28.052   8.781 -41.082  1.00 16.60 LIG-0.02  C 
ATOM      8  CD1 LEU B 341      27.288   8.355 -39.849  1.00 17.44 LIG 0.01  C 
ATOM      9  CD2 LEU B 341      28.546  10.224 -40.978  1.00 18.85 LIG 0.01  C 
ENDBRANCH 6 7
ENDBRANCH 5 6
BRANCH 5 10
ATOM     10  N   LEU B 341      27.613   7.104 -42.999  1.00 16.77 LIG-0.35  N 
ATOM     11  C   PRO B 340      27.390   7.620 -44.202  1.00 19.25 LIG 0.24  C 
ATOM     12 O    PRO B 340      28.274   7.860 -45.031  1.00 21.28 LIG-0.27  OA
ATOM     13 H    LEU B 341      26.995   6.875 -42.446  1.00 16.77 LIG 0.16  HD
BRANCH 11 14
ATOM     14  CA  PRO B 340      25.930   7.840 -44.533  1.00 21.04 LIG 0.18  C 
ATOM     15  N   PRO B 340      25.680   8.976 -45.452  1.00 20.95 LIG-0.34  N 
ATOM     16  CD  PRO B 340      24.894   8.568 -46.629  1.00 22.76 LIG 0.13  C 
ATOM     17  C   PHE B 339      26.003  10.211 -45.073  1.00 19.72 LIG 0.26  C 
ATOM     18  CG  PRO B 340      24.399   7.203 -46.199  1.00 24.91 LIG 0.02  C 
ATOM     19  CB  PRO B 340      25.442   6.644 -45.325  1.00 23.27 LIG 0.04  C 
ATOM     20 O    PHE B 339      26.606  10.415 -44.009  1.00 19.38 LIG-0.27  OA
BRANCH 17 21
ATOM     21  CA  PHE B 339      25.594  11.362 -45.989  1.00 21.94 LIG 0.40  C 
ATOM     22  N   PHE B 339      24.956  12.436 -45.244  1.00 23.90 LIG 0.61  N 
BRANCH 21 23
ATOM     23  CB  PHE B 339      26.813  11.909 -46.721  1.00 24.29 LIG 0.09  C 
BRANCH 23 24
ATOM     24  CG  PHE B 339      27.669  12.818 -45.889  1.00 28.97 LIG-0.06  A 
ATOM     25  CD1 PHE B 339      27.391  14.181 -45.807  1.00 31.92 LIG 0.01  A 
ATOM     26  CE1 PHE B 339      28.180  15.026 -45.036  1.00 33.96 LIG 0.00  A 
ATOM     27  CZ  PHE B 339      29.254  14.502 -44.322  1.00 35.90 LIG 0.00  A 
ATOM     28  CE2 PHE B 339      29.538  13.137 -44.388  1.00 35.56 LIG 0.00  A 
ATOM     29  CD2 PHE B 339      28.743  12.305 -45.172  1.00 33.37 LIG 0.01  A 
ENDBRANCH 23 24
ENDBRANCH 21 23
ENDBRANCH 17 21
ENDBRANCH 11 14
ENDBRANCH 5 10
ENDBRANCH 1 5
BRANCH 3 30
ATOM     30  CA  ASP B 342      28.368   3.176 -42.084  1.00 16.21 LIG 0.19  C 
BRANCH 30 31
ATOM     31  CB  ASP B 342      29.400   2.642 -43.057  1.00 18.68 LIG 0.15  C 
BRANCH 31 32
ATOM     32  CG  ASP B 342      28.861   1.657 -44.028  1.00 22.92 LIG 0.17  C 
ATOM     33 OD1  ASP B 342      27.624   1.427 -44.089  1.00 25.81 LIG-0.65  OA
ATOM     34 OD2  ASP B 342      29.723   1.108 -44.741  1.00 25.94 LIG-0.65  OA
ENDBRANCH 31 32
ENDBRANCH 30 31
BRANCH 30 35
ATOM     35  C   ASP B 342      28.901   2.854 -40.681  1.00 16.03 LIG 0.24  C 
ATOM     36  N   LEU B 343      28.019   2.303 -39.839  1.00 16.72 LIG-0.35  N 
ATOM     37 H    LEU B 343      27.169   2.325 -39.966  1.00 16.72 LIG 0.16  HD
ATOM     38 O    ASP B 342      30.090   3.003 -40.416  1.00 14.87 LIG-0.27  OA
BRANCH 36 39
ATOM     39  CA  LEU B 343      28.418   1.603 -38.612  1.00 16.14 LIG 0.18  C 
BRANCH 39 40
ATOM     40  CB  LEU B 343      27.213   1.220 -37.761  1.00 19.18 LIG 0.04  C 
BRANCH 40 41
ATOM     41  CG  LEU B 343      26.134   2.315 -37.655  1.00 20.67 LIG-0.02  C 
ATOM     42  CD1 LEU B 343      24.754   1.685 -37.924  1.00 23.87 LIG 0.01  C 
ATOM     43  CD2 LEU B 343      26.167   2.971 -36.285  1.00 22.92 LIG 0.01  C 
ENDBRANCH 40 41
ENDBRANCH 39 40
BRANCH 39 44
ATOM     44  C   LEU B 343      29.200   0.332 -38.965  1.00 14.33 LIG 0.24  C 
ATOM     45 O    LEU B 343      28.816  -0.434 -39.867  1.00 16.10 LIG-0.27  OA
ATOM     46  N   ALA B 344      30.279   0.100 -38.252  1.00 14.89 LIG-0.34  N 
ATOM     47 H    ALA B 344      30.603   0.643 -37.670  1.00 14.89 LIG 0.16  HD
BRANCH 46 48
ATOM     48  CA  ALA B 344      31.029  -1.157 -38.418  1.00 15.57 LIG 0.18  C 
ATOM     49  CB  ALA B 344      32.035  -1.030 -39.522  1.00 18.12 LIG 0.04  C 
BRANCH 48 50
ATOM     50  C   ALA B 344      31.755  -1.495 -37.120  1.00 15.03 LIG 0.20  C 
ATOM     51 OXT  ALA B 344      32.907  -1.956 -37.136  1.00 16.10 LIG-0.65  OA
ATOM     52 O    ALA B 344      31.159  -1.212 -36.047  1.00 15.80 LIG-0.65  OA
ENDBRANCH 48 50
ENDBRANCH 46 48
ENDBRANCH 39 44
ENDBRANCH 36 39
ENDBRANCH 30 35
ENDBRANCH 3 30
TORSDOF 18
ENDMDL
MODEL 7
USER: ADFR SOLUTION from run 149
USER: SCORE 14.636758 LL:  -4.651 LR: -12.038 RR:   0.000 FEB:  -6.669
USER: RMSD 4.827977
USER: SEED 148
USER: STATUS no improvement in best in 7 clusters for 5 generations
USER: GENES 20
USER: genes 0 Translation |==|  0.43353 0.56203 0.61514
USER: genes 1 Rotation |==|  0.55193 0.96527 0.38826 0.63543
USER: genes 2 Torsion [N]-C--CA-[N] |==|  0.00882
USER: genes 3 Torsion [C]-CA--CB-[CG] |==|  0.67990
USER: genes 4 Torsion [CA]-CB--CG-[CD1] |==|  0.30598
USER: genes 5 Torsion [C]-CA--N-[C] |==|  0.73047
USER: genes 6 Torsion [N]-C--CA-[CB] |==|  0.61935
USER: genes 7 Torsion [N]-C--CA-[N] |==|  0.36431
USER: genes 8 Torsion [C]-CA--CB-[CG] |==|  0.94485
USER: genes 9 Torsion [CA]-CB--CG-[CD1] |==|  0.25590
USER: genes 10 Torsion [C]-N--CA-[CB] |==|  0.85325
USER: genes 11 Torsion [N]-CA--CB-[CG] |==|  0.74894
USER: genes 12 Torsion [CA]-CB--CG-[OD1] |==|  0.29406
USER: genes 13 Torsion [N]-CA--C-[N] |==|  0.60265
USER: genes 14 Torsion [C]-N--CA-[C] |==|  0.59775
USER: genes 15 Torsion [N]-CA--CB-[CG] |==|  0.52522
USER: genes 16 Torsion [CA]-CB--CG-[CD1] |==|  0.19128
USER: genes 17 Torsion [N]-CA--C-[N] |==|  0.34025
USER: genes 18 Torsion [C]-N--CA-[CB] |==|  0.33098
USER: genes 19 Torsion [N]-CA--C-[OXT] |==|  0.15515
ROOT
ATOM      1  C   LEU B 341      27.494   5.574 -42.193  1.00 14.43 LIG 0.24  C 
ATOM      2 O    LEU B 341      28.182   4.752 -41.590  1.00 17.21 LIG-0.27  OA
ATOM      3  N   ASP B 342      26.235   5.348 -42.534  1.00 15.70 LIG-0.35  N 
ATOM      4 H    ASP B 342      25.707   5.940 -42.865  1.00 15.70 LIG 0.16  HD
ENDROOT
BRANCH 1 5
ATOM      5  CA  LEU B 341      28.042   6.936 -42.615  1.00 14.64 LIG 0.18  C 
BRANCH 5 6
ATOM      6  CB  LEU B 341      28.526   7.682 -41.370  1.00 15.72 LIG 0.04  C 
BRANCH 6 7
ATOM      7  CG  LEU B 341      27.739   8.943 -41.066  1.00 16.60 LIG-0.02  C 
ATOM      8  CD1 LEU B 341      26.915   8.727 -39.817  1.00 17.44 LIG 0.01  C 
ATOM      9  CD2 LEU B 341      28.649  10.165 -40.946  1.00 18.85 LIG 0.01  C 
ENDBRANCH 6 7
ENDBRANCH 5 6
BRANCH 5 10
ATOM     10  N   LEU B 341      27.037   7.775 -43.263  1.00 16.77 LIG-0.35  N 
ATOM     11  C   PRO B 340      26.955   7.838 -44.587  1.00 19.25 LIG 0.24  C 
ATOM     12 O    PRO B 340      27.628   7.147 -45.360  1.00 21.28 LIG-0.27  OA
ATOM     13 H    LEU B 341      26.525   8.206 -42.724  1.00 16.77 LIG 0.16  HD
BRANCH 11 14
ATOM     14  CA  PRO B 340      25.904   8.792 -45.109  1.00 21.04 LIG 0.18  C 
ATOM     15  N   PRO B 340      26.453  10.016 -45.740  1.00 20.95 LIG-0.34  N 
ATOM     16  CD  PRO B 340      25.932  10.212 -47.103  1.00 22.76 LIG 0.13  C 
ATOM     17  C   PHE B 339      27.169  10.866 -45.007  1.00 19.72 LIG 0.26  C 
ATOM     18  CG  PRO B 340      24.785   9.225 -47.130  1.00 24.91 LIG 0.02  C 
ATOM     19  CB  PRO B 340      25.179   8.112 -46.254  1.00 23.27 LIG 0.04  C 
ATOM     20 O    PHE B 339      27.474  10.600 -43.835  1.00 19.38 LIG-0.27  OA
BRANCH 17 21
ATOM     21  CA  PHE B 339      27.589  12.182 -45.660  1.00 21.94 LIG 0.40  C 
ATOM     22  N   PHE B 339      27.290  13.320 -44.805  1.00 23.90 LIG 0.61  N 
BRANCH 21 23
ATOM     23  CB  PHE B 339      29.080  12.161 -45.972  1.00 24.29 LIG 0.09  C 
BRANCH 23 24
ATOM     24  CG  PHE B 339      29.854  11.142 -45.187  1.00 28.97 LIG-0.06  A 
ATOM     25  CD1 PHE B 339      30.067   9.862 -45.696  1.00 31.92 LIG 0.01  A 
ATOM     26  CE1 PHE B 339      30.785   8.917 -44.974  1.00 33.96 LIG 0.00  A 
ATOM     27  CZ  PHE B 339      31.314   9.257 -43.732  1.00 35.90 LIG 0.00  A 
ATOM     28  CE2 PHE B 339      31.115  10.538 -43.214  1.00 35.56 LIG 0.00  A 
ATOM     29  CD2 PHE B 339      30.387  11.471 -43.947  1.00 33.37 LIG 0.01  A 
ENDBRANCH 23 24
ENDBRANCH 21 23
ENDBRANCH 17 21
ENDBRANCH 11 14
ENDBRANCH 5 10
ENDBRANCH 1 5
BRANCH 3 30
ATOM     30  CA  ASP B 342      25.640   4.025 -42.364  1.00 16.21 LIG 0.19  C 
BRANCH 30 31
ATOM     31  CB  ASP B 342      26.516   2.985 -43.035  1.00 18.68 LIG 0.15  C 
BRANCH 31 32
ATOM     32  CG  ASP B 342      26.166   2.727 -44.455  1.00 22.92 LIG 0.17  C 
ATOM     33 OD1  ASP B 342      26.893   3.165 -45.385  1.00 25.81 LIG-0.65  OA
ATOM     34 OD2  ASP B 342      25.124   2.063 -44.618  1.00 25.94 LIG-0.65  OA
ENDBRANCH 31 32
ENDBRANCH 30 31
BRANCH 30 35
ATOM     35  C   ASP B 342      25.566   3.626 -40.884  1.00 16.03 LIG 0.24  C 
ATOM     36  N   LEU B 343      25.793   2.333 -40.622  1.00 16.72 LIG-0.35  N 
ATOM     37 H    LEU B 343      25.759   1.717 -41.221  1.00 16.72 LIG 0.16  HD
ATOM     38 O    ASP B 342      25.415   4.478 -40.014  1.00 14.87 LIG-0.27  OA
BRANCH 36 39
ATOM     39  CA  LEU B 343      26.122   1.838 -39.279  1.00 16.14 LIG 0.18  C 
BRANCH 39 40
ATOM     40  CB  LEU B 343      24.882   1.366 -38.530  1.00 19.18 LIG 0.04  C 
BRANCH 40 41
ATOM     41  CG  LEU B 343      25.121   1.041 -37.043  1.00 20.67 LIG-0.02  C 
ATOM     42  CD1 LEU B 343      25.415   2.349 -36.286  1.00 23.87 LIG 0.01  C 
ATOM     43  CD2 LEU B 343      23.915   0.334 -36.447  1.00 22.92 LIG 0.01  C 
ENDBRANCH 40 41
ENDBRANCH 39 40
BRANCH 39 44
ATOM     44  C   LEU B 343      27.114   0.672 -39.380  1.00 14.33 LIG 0.24  C 
ATOM     45 O    LEU B 343      26.841  -0.355 -40.028  1.00 16.10 LIG-0.27  OA
ATOM     46  N   ALA B 344      28.249   0.822 -38.737  1.00 14.89 LIG-0.34  N 
ATOM     47 H    ALA B 344      28.492   1.544 -38.338  1.00 14.89 LIG 0.16  HD
BRANCH 46 48
ATOM     48  CA  ALA B 344      29.216  -0.287 -38.657  1.00 15.57 LIG 0.18  C 
ATOM     49  CB  ALA B 344      30.517   0.100 -39.293  1.00 18.12 LIG 0.04  C 
BRANCH 48 50
ATOM     50  C   ALA B 344      29.465  -0.646 -37.196  1.00 15.03 LIG 0.20  C 
ATOM     51 OXT  ALA B 344      28.526  -0.948 -36.445  1.00 16.10 LIG-0.65  OA
ATOM     52 O    ALA B 344      30.667  -0.692 -36.822  1.00 15.80 LIG-0.65  OA
ENDBRANCH 48 50
ENDBRANCH 46 48
ENDBRANCH 39 44
ENDBRANCH 36 39
ENDBRANCH 30 35
ENDBRANCH 3 30
TORSDOF 18
ENDMDL
MODEL 8
USER: ADFR SOLUTION from run 106
USER: SCORE 15.307791 LL:  -6.438 LR: -11.977 RR:   0.000 FEB:  -6.608
USER: RMSD 7.820591
USER: SEED 105
USER: STATUS no improvement in best in 6 clusters for 5 generations
USER: GENES 20
USER: genes 0 Translation |==|  0.45895 0.36990 0.80607
USER: genes 1 Rotation |==|  0.16499 0.82588 0.56311 0.66609
USER: genes 2 Torsion [N]-C--CA-[N] |==|  0.79274
USER: genes 3 Torsion [C]-CA--CB-[CG] |==|  0.33158
USER: genes 4 Torsion [CA]-CB--CG-[CD1] |==|  0.99676
USER: genes 5 Torsion [C]-CA--N-[C] |==|  0.56753
USER: genes 6 Torsion [N]-C--CA-[CB] |==|  0.16444
USER: genes 7 Torsion [N]-C--CA-[N] |==|  0.30949
USER: genes 8 Torsion [C]-CA--CB-[CG] |==|  0.72557
USER: genes 9 Torsion [CA]-CB--CG-[CD1] |==|  0.70676
USER: genes 10 Torsion [C]-N--CA-[CB] |==|  0.37107
USER: genes 11 Torsion [N]-CA--CB-[CG] |==|  0.80453
USER: genes 12 Torsion [CA]-CB--CG-[OD1] |==|  0.21649
USER: genes 13 Torsion [N]-CA--C-[N] |==|  0.13777
USER: genes 14 Torsion [C]-N--CA-[C] |==|  0.56210
USER: genes 15 Torsion [N]-CA--CB-[CG] |==|  0.15613
USER: genes 16 Torsion [CA]-CB--CG-[CD1] |==|  0.41869
USER: genes 17 Torsion [N]-CA--C-[N] |==|  0.55556
USER: genes 18 Torsion [C]-N--CA-[CB] |==|  0.35113
USER: genes 19 Torsion [N]-CA--C-[OXT] |==|  0.96328
ROOT
ATOM      1  C   LEU B 341      27.990   1.395 -38.040  1.00 14.43 LIG 0.24  C 
ATOM      2 O    LEU B 341      28.633   2.257 -37.443  1.00 17.21 LIG-0.27  OA
ATOM      3  N   ASP B 342      28.530   0.270 -38.483  1.00 15.70 LIG-0.35  N 
ATOM      4 H    ASP B 342      28.083  -0.386 -38.813  1.00 15.70 LIG 0.16  HD
ENDROOT
BRANCH 1 5
ATOM      5  CA  LEU B 341      26.499   1.556 -38.336  1.00 14.64 LIG 0.18  C 
BRANCH 5 6
ATOM      6  CB  LEU B 341      25.790   0.236 -38.027  1.00 15.72 LIG 0.04  C 
BRANCH 6 7
ATOM      7  CG  LEU B 341      24.725   0.350 -36.952  1.00 16.60 LIG-0.02  C 
ATOM      8  CD1 LEU B 341      24.677   1.774 -36.448  1.00 17.44 LIG 0.01  C 
ATOM      9  CD2 LEU B 341      23.361  -0.126 -37.452  1.00 18.85 LIG 0.01  C 
ENDBRANCH 6 7
ENDBRANCH 5 6
BRANCH 5 10
ATOM     10  N   LEU B 341      26.232   1.879 -39.735  1.00 16.77 LIG-0.35  N 
ATOM     11  C   PRO B 340      25.116   2.509 -40.086  1.00 19.25 LIG 0.24  C 
ATOM     12 O    PRO B 340      24.283   2.948 -39.285  1.00 21.28 LIG-0.27  OA
ATOM     13 H    LEU B 341      26.843   1.631 -40.286  1.00 16.77 LIG 0.16  HD
BRANCH 11 14
ATOM     14  CA  PRO B 340      24.954   2.722 -41.574  1.00 21.04 LIG 0.18  C 
ATOM     15  N   PRO B 340      26.093   3.422 -42.216  1.00 20.95 LIG-0.34  N 
ATOM     16  CD  PRO B 340      26.634   2.661 -43.355  1.00 22.76 LIG 0.13  C 
ATOM     17  C   PHE B 339      26.386   4.668 -41.851  1.00 19.72 LIG 0.26  C 
ATOM     18  CG  PRO B 340      25.545   1.631 -43.571  1.00 24.91 LIG 0.02  C 
ATOM     19  CB  PRO B 340      24.964   1.363 -42.247  1.00 23.27 LIG 0.04  C 
ATOM     20 O    PHE B 339      25.791   5.216 -40.912  1.00 19.38 LIG-0.27  OA
BRANCH 17 21
ATOM     21  CA  PHE B 339      27.471   5.399 -42.640  1.00 21.94 LIG 0.40  C 
ATOM     22  N   PHE B 339      26.915   6.491 -43.425  1.00 23.90 LIG 0.61  N 
BRANCH 21 23
ATOM     23  CB  PHE B 339      28.530   5.946 -41.693  1.00 24.29 LIG 0.09  C 
BRANCH 23 24
ATOM     24  CG  PHE B 339      28.364   7.401 -41.362  1.00 28.97 LIG-0.06  A 
ATOM     25  CD1 PHE B 339      29.208   8.359 -41.920  1.00 31.92 LIG 0.01  A 
ATOM     26  CE1 PHE B 339      29.056   9.706 -41.618  1.00 33.96 LIG 0.00  A 
ATOM     27  CZ  PHE B 339      28.037  10.108 -40.760  1.00 35.90 LIG 0.00  A 
ATOM     28  CE2 PHE B 339      27.179   9.160 -40.201  1.00 35.56 LIG 0.00  A 
ATOM     29  CD2 PHE B 339      27.349   7.812 -40.507  1.00 33.37 LIG 0.01  A 
ENDBRANCH 23 24
ENDBRANCH 21 23
ENDBRANCH 17 21
ENDBRANCH 11 14
ENDBRANCH 5 10
ENDBRANCH 1 5
BRANCH 3 30
ATOM     30  CA  ASP B 342      29.975   0.067 -38.438  1.00 16.21 LIG 0.19  C 
BRANCH 30 31
ATOM     31  CB  ASP B 342      30.277  -1.310 -37.880  1.00 18.68 LIG 0.15  C 
BRANCH 31 32
ATOM     32  CG  ASP B 342      29.982  -1.451 -36.431  1.00 22.92 LIG 0.17  C 
ATOM     33 OD1  ASP B 342      28.799  -1.606 -36.029  1.00 25.81 LIG-0.65  OA
ATOM     34 OD2  ASP B 342      30.985  -1.401 -35.693  1.00 25.94 LIG-0.65  OA
ENDBRANCH 31 32
ENDBRANCH 30 31
BRANCH 30 35
ATOM     35  C   ASP B 342      30.593   0.100 -39.842  1.00 16.03 LIG 0.24  C 
ATOM     36  N   LEU B 343      30.243   1.143 -40.605  1.00 16.72 LIG-0.35  N 
ATOM     37 H    LEU B 343      29.563   1.642 -40.438  1.00 16.72 LIG 0.16  HD
ATOM     38 O    ASP B 342      31.432  -0.732 -40.175  1.00 14.87 LIG-0.27  OA
BRANCH 36 39
ATOM     39  CA  LEU B 343      30.991   1.540 -41.805  1.00 16.14 LIG 0.18  C 
BRANCH 39 40
ATOM     40  CB  LEU B 343      30.611   0.693 -43.014  1.00 19.18 LIG 0.04  C 
BRANCH 40 41
ATOM     41  CG  LEU B 343      29.107   0.702 -43.350  1.00 20.67 LIG-0.02  C 
ATOM     42  CD1 LEU B 343      28.932   0.489 -44.865  1.00 23.87 LIG 0.01  C 
ATOM     43  CD2 LEU B 343      28.376  -0.377 -42.569  1.00 22.92 LIG 0.01  C 
ENDBRANCH 40 41
ENDBRANCH 39 40
BRANCH 39 44
ATOM     44  C   LEU B 343      30.719   3.014 -42.127  1.00 14.33 LIG 0.24  C 
ATOM     45 O    LEU B 343      30.271   3.793 -41.266  1.00 16.10 LIG-0.27  OA
ATOM     46  N   ALA B 344      30.975   3.394 -43.358  1.00 14.89 LIG-0.34  N 
ATOM     47 H    ALA B 344      31.346   2.897 -43.954  1.00 14.89 LIG 0.16  HD
BRANCH 46 48
ATOM     48  CA  ALA B 344      30.626   4.752 -43.810  1.00 15.57 LIG 0.18  C 
ATOM     49  CB  ALA B 344      31.823   5.434 -44.402  1.00 18.12 LIG 0.04  C 
BRANCH 48 50
ATOM     50  C   ALA B 344      29.527   4.675 -44.864  1.00 15.03 LIG 0.20  C 
ATOM     51 OXT  ALA B 344      29.230   3.595 -45.397  1.00 16.10 LIG-0.65  OA
ATOM     52 O    ALA B 344      28.896   5.739 -45.102  1.00 15.80 LIG-0.65  OA
ENDBRANCH 48 50
ENDBRANCH 46 48
ENDBRANCH 39 44
ENDBRANCH 36 39
ENDBRANCH 30 35
ENDBRANCH 3 30
TORSDOF 18
ENDMDL
MODEL 9
USER: ADFR SOLUTION from run 66
USER: SCORE 15.603370 LL:  -5.459 LR: -11.947 RR:   0.000 FEB:  -6.578
USER: RMSD 7.949805
USER: SEED 65
USER: STATUS no improvement in best in 5 clusters for 5 generations
USER: GENES 20
USER: genes 0 Translation |==|  0.34664 0.36612 0.85023
USER: genes 1 Rotation |==|  0.17443 0.76800 0.59266 0.75218
USER: genes 2 Torsion [N]-C--CA-[N] |==|  0.87307
USER: genes 3 Torsion [C]-CA--CB-[CG] |==|  0.79407
USER: genes 4 Torsion [CA]-CB--CG-[CD1] |==|  0.33358
USER: genes 5 Torsion [C]-CA--N-[C] |==|  0.84049
USER: genes 6 Torsion [N]-C--CA-[CB] |==|  0.89735
USER: genes 7 Torsion [N]-C--CA-[N] |==|  0.31635
USER: genes 8 Torsion [C]-CA--CB-[CG] |==|  0.73589
USER: genes 9 Torsion [CA]-CB--CG-[CD1] |==|  0.69831
USER: genes 10 Torsion [C]-N--CA-[CB] |==|  0.38674
USER: genes 11 Torsion [N]-CA--CB-[CG] |==|  0.62974
USER: genes 12 Torsion [CA]-CB--CG-[OD1] |==|  0.29295
USER: genes 13 Torsion [N]-CA--C-[N] |==|  0.61023
USER: genes 14 Torsion [C]-N--CA-[C] |==|  0.83333
USER: genes 15 Torsion [N]-CA--CB-[CG] |==|  0.84536
USER: genes 16 Torsion [CA]-CB--CG-[CD1] |==|  0.31946
USER: genes 17 Torsion [N]-CA--C-[N] |==|  0.91248
USER: genes 18 Torsion [C]-N--CA-[CB] |==|  0.23825
USER: genes 19 Torsion [N]-CA--C-[OXT] |==|  0.54311
ROOT
ATOM      1  C   LEU B 341      25.799   1.313 -37.080  1.00 14.43 LIG 0.24  C 
ATOM      2 O    LEU B 341      26.170   1.959 -36.100  1.00 17.21 LIG-0.27  OA
ATOM      3  N   ASP B 342      26.588   0.469 -37.727  1.00 15.70 LIG-0.35  N 
ATOM      4 H    ASP B 342      26.324  -0.063 -38.349  1.00 15.70 LIG 0.16  HD
ENDROOT
BRANCH 1 5
ATOM      5  CA  LEU B 341      24.387   1.440 -37.647  1.00 14.64 LIG 0.18  C 
BRANCH 5 6
ATOM      6  CB  LEU B 341      23.599   0.175 -37.300  1.00 15.72 LIG 0.04  C 
BRANCH 6 7
ATOM      7  CG  LEU B 341      23.995  -1.037 -38.122  1.00 16.60 LIG-0.02  C 
ATOM      8  CD1 LEU B 341      24.489  -2.126 -37.197  1.00 17.44 LIG 0.01  C 
ATOM      9  CD2 LEU B 341      22.848  -1.519 -39.011  1.00 18.85 LIG 0.01  C 
ENDBRANCH 6 7
ENDBRANCH 5 6
BRANCH 5 10
ATOM     10  N   LEU B 341      24.371   1.579 -39.101  1.00 16.77 LIG-0.35  N 
ATOM     11  C   PRO B 340      25.027   2.569 -39.697  1.00 19.25 LIG 0.24  C 
ATOM     12 O    PRO B 340      25.760   3.371 -39.108  1.00 21.28 LIG-0.27  OA
ATOM     13 H    LEU B 341      23.914   0.981 -39.516  1.00 16.77 LIG 0.16  HD
BRANCH 11 14
ATOM     14  CA  PRO B 340      24.870   2.614 -41.200  1.00 21.04 LIG 0.18  C 
ATOM     15  N   PRO B 340      26.030   3.196 -41.916  1.00 20.95 LIG-0.34  N 
ATOM     16  CD  PRO B 340      26.544   2.292 -42.959  1.00 22.76 LIG 0.13  C 
ATOM     17  C   PHE B 339      26.365   4.466 -41.697  1.00 19.72 LIG 0.26  C 
ATOM     18  CG  PRO B 340      25.421   1.281 -43.057  1.00 24.91 LIG 0.02  C 
ATOM     19  CB  PRO B 340      24.833   1.187 -41.712  1.00 23.27 LIG 0.04  C 
ATOM     20 O    PHE B 339      25.790   5.138 -40.828  1.00 19.38 LIG-0.27  OA
BRANCH 17 21
ATOM     21  CA  PHE B 339      27.472   5.065 -42.563  1.00 21.94 LIG 0.40  C 
ATOM     22  N   PHE B 339      26.962   6.116 -43.429  1.00 23.90 LIG 0.61  N 
BRANCH 21 23
ATOM     23  CB  PHE B 339      28.581   5.627 -41.683  1.00 24.29 LIG 0.09  C 
BRANCH 23 24
ATOM     24  CG  PHE B 339      28.453   7.096 -41.402  1.00 28.97 LIG-0.06  A 
ATOM     25  CD1 PHE B 339      29.329   8.011 -41.984  1.00 31.92 LIG 0.01  A 
ATOM     26  CE1 PHE B 339      29.214   9.371 -41.728  1.00 33.96 LIG 0.00  A 
ATOM     27  CZ  PHE B 339      28.199   9.831 -40.894  1.00 35.90 LIG 0.00  A 
ATOM     28  CE2 PHE B 339      27.309   8.926 -40.313  1.00 35.56 LIG 0.00  A 
ATOM     29  CD2 PHE B 339      27.443   7.565 -40.572  1.00 33.37 LIG 0.01  A 
ENDBRANCH 23 24
ENDBRANCH 21 23
ENDBRANCH 17 21
ENDBRANCH 11 14
ENDBRANCH 5 10
ENDBRANCH 1 5
BRANCH 3 30
ATOM     30  CA  ASP B 342      28.012   0.388 -37.414  1.00 16.21 LIG 0.19  C 
BRANCH 30 31
ATOM     31  CB  ASP B 342      28.451  -1.063 -37.421  1.00 18.68 LIG 0.15  C 
BRANCH 31 32
ATOM     32  CG  ASP B 342      29.277  -1.449 -36.249  1.00 22.92 LIG 0.17  C 
ATOM     33 OD1  ASP B 342      28.790  -2.149 -35.322  1.00 25.81 LIG-0.65  OA
ATOM     34 OD2  ASP B 342      30.449  -1.025 -36.281  1.00 25.94 LIG-0.65  OA
ENDBRANCH 31 32
ENDBRANCH 30 31
BRANCH 30 35
ATOM     35  C   ASP B 342      28.865   1.092 -38.477  1.00 16.03 LIG 0.24  C 
ATOM     36  N   LEU B 343      30.006   0.475 -38.807  1.00 16.72 LIG-0.35  N 
ATOM     37 H    LEU B 343      30.367  -0.139 -38.324  1.00 16.72 LIG 0.16  HD
ATOM     38 O    ASP B 342      28.449   2.097 -39.046  1.00 14.87 LIG-0.27  OA
BRANCH 36 39
ATOM     39  CA  LEU B 343      30.757   0.786 -40.029  1.00 16.14 LIG 0.18  C 
BRANCH 39 40
ATOM     40  CB  LEU B 343      32.028  -0.048 -40.141  1.00 19.18 LIG 0.04  C 
BRANCH 40 41
ATOM     41  CG  LEU B 343      32.975   0.070 -38.932  1.00 20.67 LIG-0.02  C 
ATOM     42  CD1 LEU B 343      33.061  -1.296 -38.228  1.00 23.87 LIG 0.01  C 
ATOM     43  CD2 LEU B 343      34.354   0.534 -39.373  1.00 22.92 LIG 0.01  C 
ENDBRANCH 40 41
ENDBRANCH 39 40
BRANCH 39 44
ATOM     44  C   LEU B 343      29.883   0.523 -41.262  1.00 14.33 LIG 0.24  C 
ATOM     45 O    LEU B 343      30.001   1.204 -42.296  1.00 16.10 LIG-0.27  OA
ATOM     46  N   ALA B 344      29.003  -0.446 -41.150  1.00 14.89 LIG-0.34  N 
ATOM     47 H    ALA B 344      28.943  -0.974 -40.475  1.00 14.89 LIG 0.16  HD
BRANCH 46 48
ATOM     48  CA  ALA B 344      28.024  -0.695 -42.223  1.00 15.57 LIG 0.18  C 
ATOM     49  CB  ALA B 344      28.609  -1.589 -43.274  1.00 18.12 LIG 0.04  C 
BRANCH 48 50
ATOM     50  C   ALA B 344      26.783  -1.361 -41.640  1.00 15.03 LIG 0.20  C 
ATOM     51 OXT  ALA B 344      25.954  -1.919 -42.375  1.00 16.10 LIG-0.65  OA
ATOM     52 O    ALA B 344      26.687  -1.378 -40.384  1.00 15.80 LIG-0.65  OA
ENDBRANCH 48 50
ENDBRANCH 46 48
ENDBRANCH 39 44
ENDBRANCH 36 39
ENDBRANCH 30 35
ENDBRANCH 3 30
TORSDOF 18
ENDMDL
MODEL 10
USER: ADFR SOLUTION from run 175
USER: SCORE 16.133660 LL:  -5.075 LR: -11.795 RR:   0.000 FEB:  -6.425
USER: RMSD 7.782799
USER: SEED 174
USER: STATUS no improvement in best in 1 clusters for 5 generations
USER: GENES 20
USER: genes 0 Translation |==|  0.37154 0.29837 0.78051
USER: genes 1 Rotation |==|  0.57001 0.38150 0.74930 0.91098
USER: genes 2 Torsion [N]-C--CA-[N] |==|  0.26007
USER: genes 3 Torsion [C]-CA--CB-[CG] |==|  0.27988
USER: genes 4 Torsion [CA]-CB--CG-[CD1] |==|  0.62496
USER: genes 5 Torsion [C]-CA--N-[C] |==|  0.75592
USER: genes 6 Torsion [N]-C--CA-[CB] |==|  0.94133
USER: genes 7 Torsion [N]-C--CA-[N] |==|  0.28435
USER: genes 8 Torsion [C]-CA--CB-[CG] |==|  0.73131
USER: genes 9 Torsion [CA]-CB--CG-[CD1] |==|  0.72118
USER: genes 10 Torsion [C]-N--CA-[CB] |==|  0.89444
USER: genes 11 Torsion [N]-CA--CB-[CG] |==|  0.59205
USER: genes 12 Torsion [CA]-CB--CG-[OD1] |==|  0.91919
USER: genes 13 Torsion [N]-CA--C-[N] |==|  0.87751
USER: genes 14 Torsion [C]-N--CA-[C] |==|  0.81637
USER: genes 15 Torsion [N]-CA--CB-[CG] |==|  0.18707
USER: genes 16 Torsion [CA]-CB--CG-[CD1] |==|  0.37422
USER: genes 17 Torsion [N]-CA--C-[N] |==|  0.36484
USER: genes 18 Torsion [C]-N--CA-[CB] |==|  0.87779
USER: genes 19 Torsion [N]-CA--C-[OXT] |==|  0.95499
ROOT
ATOM      1  C   LEU B 341      26.285  -0.160 -38.596  1.00 14.43 LIG 0.24  C 
ATOM      2 O    LEU B 341      26.487  -1.338 -38.890  1.00 17.21 LIG-0.27  OA
ATOM      3  N   ASP B 342      27.232   0.638 -38.128  1.00 15.70 LIG-0.35  N 
ATOM      4 H    ASP B 342      27.139   1.485 -38.010  1.00 15.70 LIG 0.16  HD
ENDROOT
BRANCH 1 5
ATOM      5  CA  LEU B 341      24.907   0.485 -38.734  1.00 14.64 LIG 0.18  C 
BRANCH 5 6
ATOM      6  CB  LEU B 341      23.836  -0.576 -38.473  1.00 15.72 LIG 0.04  C 
BRANCH 6 7
ATOM      7  CG  LEU B 341      23.236  -0.510 -37.080  1.00 16.60 LIG-0.02  C 
ATOM      8  CD1 LEU B 341      23.153  -1.906 -36.508  1.00 17.44 LIG 0.01  C 
ATOM      9  CD2 LEU B 341      24.019   0.436 -36.170  1.00 18.85 LIG 0.01  C 
ENDBRANCH 6 7
ENDBRANCH 5 6
BRANCH 5 10
ATOM     10  N   LEU B 341      24.667   1.027 -40.069  1.00 16.77 LIG-0.35  N 
ATOM     11  C   PRO B 340      25.030   2.268 -40.373  1.00 19.25 LIG 0.24  C 
ATOM     12 O    PRO B 340      25.665   3.013 -39.619  1.00 21.28 LIG-0.27  OA
ATOM     13 H    LEU B 341      24.284   0.486 -40.615  1.00 16.77 LIG 0.16  HD
BRANCH 11 14
ATOM     14  CA  PRO B 340      24.664   2.706 -41.774  1.00 21.04 LIG 0.18  C 
ATOM     15  N   PRO B 340      25.750   3.416 -42.493  1.00 20.95 LIG-0.34  N 
ATOM     16  CD  PRO B 340      26.044   2.796 -43.796  1.00 22.76 LIG 0.13  C 
ATOM     17  C   PHE B 339      26.202   4.574 -42.017  1.00 19.72 LIG 0.26  C 
ATOM     18  CG  PRO B 340      24.849   1.881 -43.968  1.00 24.91 LIG 0.02  C 
ATOM     19  CB  PRO B 340      24.454   1.462 -42.615  1.00 23.27 LIG 0.04  C 
ATOM     20 O    PHE B 339      25.806   5.017 -40.929  1.00 19.38 LIG-0.27  OA
BRANCH 17 21
ATOM     21  CA  PHE B 339      27.215   5.340 -42.867  1.00 21.94 LIG 0.40  C 
ATOM     22  N   PHE B 339      26.590   6.451 -43.569  1.00 23.90 LIG 0.61  N 
BRANCH 21 23
ATOM     23  CB  PHE B 339      28.344   5.865 -41.991  1.00 24.29 LIG 0.09  C 
BRANCH 23 24
ATOM     24  CG  PHE B 339      28.171   7.294 -41.561  1.00 28.97 LIG-0.06  A 
ATOM     25  CD1 PHE B 339      28.853   8.320 -42.209  1.00 31.92 LIG 0.01  A 
ATOM     26  CE1 PHE B 339      28.694   9.643 -41.816  1.00 33.96 LIG 0.00  A 
ATOM     27  CZ  PHE B 339      27.828   9.950 -40.770  1.00 35.90 LIG 0.00  A 
ATOM     28  CE2 PHE B 339      27.132   8.932 -40.117  1.00 35.56 LIG 0.00  A 
ATOM     29  CD2 PHE B 339      27.308   7.610 -40.519  1.00 33.37 LIG 0.01  A 
ENDBRANCH 23 24
ENDBRANCH 21 23
ENDBRANCH 17 21
ENDBRANCH 11 14
ENDBRANCH 5 10
ENDBRANCH 1 5
BRANCH 3 30
ATOM     30  CA  ASP B 342      28.545   0.109 -37.768  1.00 16.21 LIG 0.19  C 
BRANCH 30 31
ATOM     31  CB  ASP B 342      28.383  -1.252 -37.120  1.00 18.68 LIG 0.15  C 
BRANCH 31 32
ATOM     32  CG  ASP B 342      29.394  -1.544 -36.072  1.00 22.92 LIG 0.17  C 
ATOM     33 OD1  ASP B 342      30.544  -1.034 -36.128  1.00 25.81 LIG-0.65  OA
ATOM     34 OD2  ASP B 342      28.999  -2.313 -35.174  1.00 25.94 LIG-0.65  OA
ENDBRANCH 31 32
ENDBRANCH 30 31
BRANCH 30 35
ATOM     35  C   ASP B 342      29.423  -0.112 -39.006  1.00 16.03 LIG 0.24  C 
ATOM     36  N   LEU B 343      28.816  -0.691 -40.050  1.00 16.72 LIG-0.35  N 
ATOM     37 H    LEU B 343      28.072  -1.117 -39.986  1.00 16.72 LIG 0.16  HD
ATOM     38 O    ASP B 342      30.571   0.321 -39.043  1.00 14.87 LIG-0.27  OA
BRANCH 36 39
ATOM     39  CA  LEU B 343      29.365  -0.654 -41.411  1.00 16.14 LIG 0.18  C 
BRANCH 39 40
ATOM     40  CB  LEU B 343      28.568  -1.534 -42.367  1.00 19.18 LIG 0.04  C 
BRANCH 40 41
ATOM     41  CG  LEU B 343      27.135  -1.039 -42.644  1.00 20.67 LIG-0.02  C 
ATOM     42  CD1 LEU B 343      26.861  -1.123 -44.157  1.00 23.87 LIG 0.01  C 
ATOM     43  CD2 LEU B 343      26.122  -1.865 -41.869  1.00 22.92 LIG 0.01  C 
ENDBRANCH 40 41
ENDBRANCH 39 40
BRANCH 39 44
ATOM     44  C   LEU B 343      29.356   0.786 -41.940  1.00 14.33 LIG 0.24  C 
ATOM     45 O    LEU B 343      28.337   1.496 -41.866  1.00 16.10 LIG-0.27  OA
ATOM     46  N   ALA B 344      30.476   1.210 -42.480  1.00 14.89 LIG-0.34  N 
ATOM     47 H    ALA B 344      31.213   0.767 -42.485  1.00 14.89 LIG 0.16  HD
BRANCH 46 48
ATOM     48  CA  ALA B 344      30.538   2.527 -43.137  1.00 15.57 LIG 0.18  C 
ATOM     49  CB  ALA B 344      29.333   2.741 -44.003  1.00 18.12 LIG 0.04  C 
BRANCH 48 50
ATOM     50  C   ALA B 344      30.591   3.625 -42.081  1.00 15.03 LIG 0.20  C 
ATOM     51 OXT  ALA B 344      30.284   3.392 -40.903  1.00 16.10 LIG-0.65  OA
ATOM     52 O    ALA B 344      31.031   4.746 -42.452  1.00 15.80 LIG-0.65  OA
ENDBRANCH 48 50
ENDBRANCH 46 48
ENDBRANCH 39 44
ENDBRANCH 36 39
ENDBRANCH 30 35
ENDBRANCH 3 30
TORSDOF 18
ENDMDL
MODEL 11
USER: ADFR SOLUTION from run 86
USER: SCORE 14.798327 LL:  -3.586 LR: -11.751 RR:   0.000 FEB:  -6.381
USER: RMSD 7.563980
USER: SEED 85
USER: STATUS searching
USER: GENES 20
USER: genes 0 Translation |==|  0.41855 0.30743 0.77246
USER: genes 1 Rotation |==|  0.59511 0.33988 0.71206 0.91273
USER: genes 2 Torsion [N]-C--CA-[N] |==|  0.30658
USER: genes 3 Torsion [C]-CA--CB-[CG] |==|  0.25801
USER: genes 4 Torsion [CA]-CB--CG-[CD1] |==|  0.08474
USER: genes 5 Torsion [C]-CA--N-[C] |==|  0.56408
USER: genes 6 Torsion [N]-C--CA-[CB] |==|  0.10672
USER: genes 7 Torsion [N]-C--CA-[N] |==|  0.29366
USER: genes 8 Torsion [C]-CA--CB-[CG] |==|  0.73467
USER: genes 9 Torsion [CA]-CB--CG-[CD1] |==|  0.20301
USER: genes 10 Torsion [C]-N--CA-[CB] |==|  0.86109
USER: genes 11 Torsion [N]-CA--CB-[CG] |==|  0.63985
USER: genes 12 Torsion [CA]-CB--CG-[OD1] |==|  0.39865
USER: genes 13 Torsion [N]-CA--C-[N] |==|  0.35019
USER: genes 14 Torsion [C]-N--CA-[C] |==|  0.80610
USER: genes 15 Torsion [N]-CA--CB-[CG] |==|  0.09121
USER: genes 16 Torsion [CA]-CB--CG-[CD1] |==|  0.22450
USER: genes 17 Torsion [N]-CA--C-[N] |==|  0.95469
USER: genes 18 Torsion [C]-N--CA-[CB] |==|  0.45556
USER: genes 19 Torsion [N]-CA--C-[OXT] |==|  0.43521
ROOT
ATOM      1  C   LEU B 341      27.202   0.037 -38.771  1.00 14.43 LIG 0.24  C 
ATOM      2 O    LEU B 341      27.285  -1.077 -39.287  1.00 17.21 LIG-0.27  OA
ATOM      3  N   ASP B 342      28.198   0.598 -38.103  1.00 15.70 LIG-0.35  N 
ATOM      4 H    ASP B 342      28.197   1.410 -37.821  1.00 15.70 LIG 0.16  HD
ENDROOT
BRANCH 1 5
ATOM      5  CA  LEU B 341      25.924   0.871 -38.846  1.00 14.64 LIG 0.18  C 
BRANCH 5 6
ATOM      6  CB  LEU B 341      24.737  -0.006 -38.444  1.00 15.72 LIG 0.04  C 
BRANCH 6 7
ATOM      7  CG  LEU B 341      24.388   0.076 -36.969  1.00 16.60 LIG-0.02  C 
ATOM      8  CD1 LEU B 341      24.739   1.451 -36.449  1.00 17.44 LIG 0.01  C 
ATOM      9  CD2 LEU B 341      22.922  -0.275 -36.713  1.00 18.85 LIG 0.01  C 
ENDBRANCH 6 7
ENDBRANCH 5 6
BRANCH 5 10
ATOM     10  N   LEU B 341      25.657   1.378 -40.189  1.00 16.77 LIG-0.35  N 
ATOM     11  C   PRO B 340      24.897   2.452 -40.372  1.00 19.25 LIG 0.24  C 
ATOM     12 O    PRO B 340      24.445   3.149 -39.457  1.00 21.28 LIG-0.27  OA
ATOM     13 H    LEU B 341      26.026   0.931 -40.824  1.00 16.77 LIG 0.16  HD
BRANCH 11 14
ATOM     14  CA  PRO B 340      24.665   2.820 -41.821  1.00 21.04 LIG 0.18  C 
ATOM     15  N   PRO B 340      25.827   3.466 -42.477  1.00 20.95 LIG-0.34  N 
ATOM     16  CD  PRO B 340      26.216   2.770 -43.715  1.00 22.76 LIG 0.13  C 
ATOM     17  C   PHE B 339      26.267   4.639 -42.025  1.00 19.72 LIG 0.26  C 
ATOM     18  CG  PRO B 340      25.017   1.874 -43.944  1.00 24.91 LIG 0.02  C 
ATOM     19  CB  PRO B 340      24.495   1.538 -42.611  1.00 23.27 LIG 0.04  C 
ATOM     20 O    PHE B 339      25.790   5.148 -41.001  1.00 19.38 LIG-0.27  OA
BRANCH 17 21
ATOM     21  CA  PHE B 339      27.369   5.335 -42.822  1.00 21.94 LIG 0.40  C 
ATOM     22  N   PHE B 339      26.850   6.468 -43.572  1.00 23.90 LIG 0.61  N 
BRANCH 21 23
ATOM     23  CB  PHE B 339      28.472   5.810 -41.886  1.00 24.29 LIG 0.09  C 
BRANCH 23 24
ATOM     24  CG  PHE B 339      28.338   7.244 -41.460  1.00 28.97 LIG-0.06  A 
ATOM     25  CD1 PHE B 339      27.359   7.626 -40.546  1.00 31.92 LIG 0.01  A 
ATOM     26  CE1 PHE B 339      27.232   8.951 -40.148  1.00 33.96 LIG 0.00  A 
ATOM     27  CZ  PHE B 339      28.107   9.908 -40.655  1.00 35.90 LIG 0.00  A 
ATOM     28  CE2 PHE B 339      29.098   9.537 -41.565  1.00 35.56 LIG 0.00  A 
ATOM     29  CD2 PHE B 339      29.206   8.206 -41.960  1.00 33.37 LIG 0.01  A 
ENDBRANCH 23 24
ENDBRANCH 21 23
ENDBRANCH 17 21
ENDBRANCH 11 14
ENDBRANCH 5 10
ENDBRANCH 1 5
BRANCH 3 30
ATOM     30  CA  ASP B 342      29.408  -0.158 -37.790  1.00 16.21 LIG 0.19  C 
BRANCH 30 31
ATOM     31  CB  ASP B 342      29.029  -1.484 -37.161  1.00 18.68 LIG 0.15  C 
BRANCH 31 32
ATOM     32  CG  ASP B 342      29.748  -1.777 -35.894  1.00 22.92 LIG 0.17  C 
ATOM     33 OD1  ASP B 342      29.165  -2.369 -34.948  1.00 25.81 LIG-0.65  OA
ATOM     34 OD2  ASP B 342      30.932  -1.391 -35.871  1.00 25.94 LIG-0.65  OA
ENDBRANCH 31 32
ENDBRANCH 30 31
BRANCH 30 35
ATOM     35  C   ASP B 342      30.201  -0.502 -39.058  1.00 16.03 LIG 0.24  C 
ATOM     36  N   LEU B 343      31.487  -0.130 -39.054  1.00 16.72 LIG-0.35  N 
ATOM     37 H    LEU B 343      31.809   0.449 -38.506  1.00 16.72 LIG 0.16  HD
ATOM     38 O    ASP B 342      29.691  -1.170 -39.952  1.00 14.87 LIG-0.27  OA
BRANCH 36 39
ATOM     39  CA  LEU B 343      32.478  -0.678 -39.989  1.00 16.14 LIG 0.18  C 
BRANCH 39 40
ATOM     40  CB  LEU B 343      33.788   0.100 -39.946  1.00 19.18 LIG 0.04  C 
BRANCH 40 41
ATOM     41  CG  LEU B 343      34.142   0.676 -38.561  1.00 20.67 LIG-0.02  C 
ATOM     42  CD1 LEU B 343      34.769  -0.436 -37.702  1.00 23.87 LIG 0.01  C 
ATOM     43  CD2 LEU B 343      35.095   1.852 -38.697  1.00 22.92 LIG 0.01  C 
ENDBRANCH 40 41
ENDBRANCH 39 40
BRANCH 39 44
ATOM     44  C   LEU B 343      32.763  -2.146 -39.649  1.00 14.33 LIG 0.24  C 
ATOM     45 O    LEU B 343      33.316  -2.904 -40.466  1.00 16.10 LIG-0.27  OA
ATOM     46  N   ALA B 344      32.377  -2.549 -38.460  1.00 14.89 LIG-0.34  N 
ATOM     47 H    ALA B 344      32.054  -2.034 -37.852  1.00 14.89 LIG 0.16  HD
BRANCH 46 48
ATOM     48  CA  ALA B 344      32.481  -3.969 -38.081  1.00 15.57 LIG 0.18  C 
ATOM     49  CB  ALA B 344      32.359  -4.129 -36.595  1.00 18.12 LIG 0.04  C 
BRANCH 48 50
ATOM     50  C   ALA B 344      31.369  -4.763 -38.758  1.00 15.03 LIG 0.20  C 
ATOM     51 OXT  ALA B 344      31.482  -5.983 -38.951  1.00 16.10 LIG-0.65  OA
ATOM     52 O    ALA B 344      30.314  -4.134 -39.037  1.00 15.80 LIG-0.65  OA
ENDBRANCH 48 50
ENDBRANCH 46 48
ENDBRANCH 39 44
ENDBRANCH 36 39
ENDBRANCH 30 35
ENDBRANCH 3 30
TORSDOF 18
ENDMDL
MODEL 12
USER: ADFR SOLUTION from run 57
USER: SCORE 15.265934 LL:  -4.557 LR: -11.752 RR:   0.000 FEB:  -6.382
USER: RMSD 10.150037
USER: SEED 56
USER: STATUS no improvement in best in 6 clusters for 5 generations
USER: GENES 20
USER: genes 0 Translation |==|  0.55365 0.46067 0.62660
USER: genes 1 Rotation |==|  0.15100 0.57383 0.83076 0.61553
USER: genes 2 Torsion [N]-C--CA-[N] |==|  0.43040
USER: genes 3 Torsion [C]-CA--CB-[CG] |==|  0.74497
USER: genes 4 Torsion [CA]-CB--CG-[CD1] |==|  0.30375
USER: genes 5 Torsion [C]-CA--N-[C] |==|  0.81226
USER: genes 6 Torsion [N]-C--CA-[CB] |==|  0.26556
USER: genes 7 Torsion [N]-C--CA-[N] |==|  0.44172
USER: genes 8 Torsion [C]-CA--CB-[CG] |==|  0.33014
USER: genes 9 Torsion [CA]-CB--CG-[CD1] |==|  0.16054
USER: genes 10 Torsion [C]-N--CA-[CB] |==|  0.50556
USER: genes 11 Torsion [N]-CA--CB-[CG] |==|  0.90643
USER: genes 12 Torsion [CA]-CB--CG-[OD1] |==|  0.90568
USER: genes 13 Torsion [N]-CA--C-[N] |==|  0.41437
USER: genes 14 Torsion [C]-N--CA-[C] |==|  0.61881
USER: genes 15 Torsion [N]-CA--CB-[CG] |==|  0.72600
USER: genes 16 Torsion [CA]-CB--CG-[CD1] |==|  0.20386
USER: genes 17 Torsion [N]-CA--C-[N] |==|  0.99528
USER: genes 18 Torsion [C]-N--CA-[CB] |==|  0.20727
USER: genes 19 Torsion [N]-CA--C-[OXT] |==|  0.58349
ROOT
ATOM      1  C   LEU B 341      29.836   3.370 -41.943  1.00 14.43 LIG 0.24  C 
ATOM      2 O    LEU B 341      29.915   4.017 -40.900  1.00 17.21 LIG-0.27  OA
ATOM      3  N   ASP B 342      30.358   3.782 -43.088  1.00 15.70 LIG-0.35  N 
ATOM      4 H    ASP B 342      30.402   3.305 -43.802  1.00 15.70 LIG 0.16  HD
ENDROOT
BRANCH 1 5
ATOM      5  CA  LEU B 341      29.111   2.027 -42.012  1.00 14.64 LIG 0.18  C 
BRANCH 5 6
ATOM      6  CB  LEU B 341      27.665   2.268 -42.449  1.00 15.72 LIG 0.04  C 
BRANCH 6 7
ATOM      7  CG  LEU B 341      26.699   2.459 -41.294  1.00 16.60 LIG-0.02  C 
ATOM      8  CD1 LEU B 341      26.256   3.903 -41.248  1.00 17.44 LIG 0.01  C 
ATOM      9  CD2 LEU B 341      25.512   1.499 -41.382  1.00 18.85 LIG 0.01  C 
ENDBRANCH 6 7
ENDBRANCH 5 6
BRANCH 5 10
ATOM     10  N   LEU B 341      29.068   1.340 -40.724  1.00 16.77 LIG-0.35  N 
ATOM     11  C   PRO B 340      30.179   0.868 -40.167  1.00 19.25 LIG 0.24  C 
ATOM     12 O    PRO B 340      31.314   1.045 -40.622  1.00 21.28 LIG-0.27  OA
ATOM     13 H    LEU B 341      28.285   1.274 -40.375  1.00 16.77 LIG 0.16  HD
BRANCH 11 14
ATOM     14  CA  PRO B 340      29.967   0.133 -38.863  1.00 21.04 LIG 0.18  C 
ATOM     15  N   PRO B 340      28.668   0.418 -38.208  1.00 20.95 LIG-0.34  N 
ATOM     16  CD  PRO B 340      27.917  -0.815 -37.917  1.00 22.76 LIG 0.13  C 
ATOM     17  C   PHE B 339      28.397   1.657 -37.802  1.00 19.72 LIG 0.26  C 
ATOM     18  CG  PRO B 340      28.982  -1.870 -38.125  1.00 24.91 LIG 0.02  C 
ATOM     19  CB  PRO B 340      29.878  -1.349 -39.169  1.00 23.27 LIG 0.04  C 
ATOM     20 O    PHE B 339      29.165   2.595 -38.057  1.00 19.38 LIG-0.27  OA
BRANCH 17 21
ATOM     21  CA  PHE B 339      27.112   1.873 -37.003  1.00 21.94 LIG 0.40  C 
ATOM     22  N   PHE B 339      27.171   3.100 -36.223  1.00 23.90 LIG 0.61  N 
BRANCH 21 23
ATOM     23  CB  PHE B 339      25.914   1.926 -37.941  1.00 24.29 LIG 0.09  C 
BRANCH 23 24
ATOM     24  CG  PHE B 339      24.896   0.850 -37.694  1.00 28.97 LIG-0.06  A 
ATOM     25  CD1 PHE B 339      24.287   0.718 -36.447  1.00 31.92 LIG 0.01  A 
ATOM     26  CE1 PHE B 339      23.344  -0.275 -36.215  1.00 33.96 LIG 0.00  A 
ATOM     27  CZ  PHE B 339      22.988  -1.140 -37.245  1.00 35.90 LIG 0.00  A 
ATOM     28  CE2 PHE B 339      23.584  -1.014 -38.501  1.00 35.56 LIG 0.00  A 
ATOM     29  CD2 PHE B 339      24.534  -0.018 -38.716  1.00 33.37 LIG 0.01  A 
ENDBRANCH 23 24
ENDBRANCH 21 23
ENDBRANCH 17 21
ENDBRANCH 11 14
ENDBRANCH 5 10
ENDBRANCH 1 5
BRANCH 3 30
ATOM     30  CA  ASP B 342      30.913   5.127 -43.216  1.00 16.21 LIG 0.19  C 
BRANCH 30 31
ATOM     31  CB  ASP B 342      31.393   5.345 -44.637  1.00 18.68 LIG 0.15  C 
BRANCH 31 32
ATOM     32  CG  ASP B 342      31.935   4.124 -45.285  1.00 22.92 LIG 0.17  C 
ATOM     33 OD1  ASP B 342      32.556   3.261 -44.610  1.00 25.81 LIG-0.65  OA
ATOM     34 OD2  ASP B 342      31.719   4.050 -46.510  1.00 25.94 LIG-0.65  OA
ENDBRANCH 31 32
ENDBRANCH 30 31
BRANCH 30 35
ATOM     35  C   ASP B 342      29.850   6.203 -42.957  1.00 16.03 LIG 0.24  C 
ATOM     36  N   LEU B 343      30.301   7.345 -42.424  1.00 16.72 LIG-0.35  N 
ATOM     37 H    LEU B 343      31.067   7.416 -42.040  1.00 16.72 LIG 0.16  HD
ATOM     38 O    ASP B 342      28.691   6.037 -43.325  1.00 14.87 LIG-0.27  OA
BRANCH 36 39
ATOM     39  CA  LEU B 343      29.528   8.593 -42.444  1.00 16.14 LIG 0.18  C 
BRANCH 39 40
ATOM     40  CB  LEU B 343      28.866   8.870 -41.099  1.00 19.18 LIG 0.04  C 
BRANCH 40 41
ATOM     41  CG  LEU B 343      27.383   8.461 -41.023  1.00 20.67 LIG-0.02  C 
ATOM     42  CD1 LEU B 343      27.290   6.926 -40.947  1.00 23.87 LIG 0.01  C 
ATOM     43  CD2 LEU B 343      26.711   9.100 -39.818  1.00 22.92 LIG 0.01  C 
ENDBRANCH 40 41
ENDBRANCH 39 40
BRANCH 39 44
ATOM     44  C   LEU B 343      30.444   9.771 -42.797  1.00 14.33 LIG 0.24  C 
ATOM     45 O    LEU B 343      29.997  10.926 -42.914  1.00 16.10 LIG-0.27  OA
ATOM     46  N   ALA B 344      31.713   9.482 -42.978  1.00 14.89 LIG-0.34  N 
ATOM     47 H    ALA B 344      32.061   8.708 -42.840  1.00 14.89 LIG 0.16  HD
BRANCH 46 48
ATOM     48  CA  ALA B 344      32.655  10.512 -43.450  1.00 15.57 LIG 0.18  C 
ATOM     49  CB  ALA B 344      32.977  11.476 -42.349  1.00 18.12 LIG 0.04  C 
BRANCH 48 50
ATOM     50  C   ALA B 344      33.944   9.850 -43.923  1.00 15.03 LIG 0.20  C 
ATOM     51 OXT  ALA B 344      35.031  10.440 -43.840  1.00 16.10 LIG-0.65  OA
ATOM     52 O    ALA B 344      33.855   8.659 -44.325  1.00 15.80 LIG-0.65  OA
ENDBRANCH 48 50
ENDBRANCH 46 48
ENDBRANCH 39 44
ENDBRANCH 36 39
ENDBRANCH 30 35
ENDBRANCH 3 30
TORSDOF 18
ENDMDL
MODEL 13
USER: ADFR SOLUTION from run 187
USER: SCORE 14.679025 LL:  -5.069 LR: -11.732 RR:   0.000 FEB:  -6.362
USER: RMSD 7.424307
USER: SEED 186
USER: STATUS no improvement in best in 9 clusters for 5 generations
USER: GENES 20
USER: genes 0 Translation |==|  0.40677 0.38086 0.84105
USER: genes 1 Rotation |==|  0.20604 0.85796 0.57749 0.67161
USER: genes 2 Torsion [N]-C--CA-[N] |==|  0.87780
USER: genes 3 Torsion [C]-CA--CB-[CG] |==|  0.72180
USER: genes 4 Torsion [CA]-CB--CG-[CD1] |==|  0.23063
USER: genes 5 Torsion [C]-CA--N-[C] |==|  0.85731
USER: genes 6 Torsion [N]-C--CA-[CB] |==|  0.80232
USER: genes 7 Torsion [N]-C--CA-[N] |==|  0.35041
USER: genes 8 Torsion [C]-CA--CB-[CG] |==|  0.78344
USER: genes 9 Torsion [CA]-CB--CG-[CD1] |==|  0.76218
USER: genes 10 Torsion [C]-N--CA-[CB] |==|  0.36308
USER: genes 11 Torsion [N]-CA--CB-[CG] |==|  0.69891
USER: genes 12 Torsion [CA]-CB--CG-[OD1] |==|  0.84711
USER: genes 13 Torsion [N]-CA--C-[N] |==|  0.13671
USER: genes 14 Torsion [C]-N--CA-[C] |==|  0.88258
USER: genes 15 Torsion [N]-CA--CB-[CG] |==|  0.42213
USER: genes 16 Torsion [CA]-CB--CG-[CD1] |==|  0.21988
USER: genes 17 Torsion [N]-CA--C-[N] |==|  0.35714
USER: genes 18 Torsion [C]-N--CA-[CB] |==|  0.27390
USER: genes 19 Torsion [N]-CA--C-[OXT] |==|  0.50599
ROOT
ATOM      1  C   LEU B 341      26.972   1.634 -37.279  1.00 14.43 LIG 0.24  C 
ATOM      2 O    LEU B 341      27.805   2.310 -36.677  1.00 17.21 LIG-0.27  OA
ATOM      3  N   ASP B 342      27.265   0.482 -37.863  1.00 15.70 LIG-0.35  N 
ATOM      4 H    ASP B 342      26.683  -0.053 -38.201  1.00 15.70 LIG 0.16  HD
ENDROOT
BRANCH 1 5
ATOM      5  CA  LEU B 341      25.516   2.076 -37.418  1.00 14.64 LIG 0.18  C 
BRANCH 5 6
ATOM      6  CB  LEU B 341      24.652   1.232 -36.479  1.00 15.72 LIG 0.04  C 
BRANCH 6 7
ATOM      7  CG  LEU B 341      23.923   0.096 -37.173  1.00 16.60 LIG-0.02  C 
ATOM      8  CD1 LEU B 341      24.856  -1.086 -37.307  1.00 17.44 LIG 0.01  C 
ATOM      9  CD2 LEU B 341      22.630  -0.276 -36.447  1.00 18.85 LIG 0.01  C 
ENDBRANCH 6 7
ENDBRANCH 5 6
BRANCH 5 10
ATOM     10  N   LEU B 341      24.996   1.895 -38.771  1.00 16.77 LIG-0.35  N 
ATOM     11  C   PRO B 340      25.654   2.372 -39.822  1.00 19.25 LIG 0.24  C 
ATOM     12 O    PRO B 340      26.767   2.904 -39.762  1.00 21.28 LIG-0.27  OA
ATOM     13 H    LEU B 341      24.253   1.466 -38.817  1.00 16.77 LIG 0.16  HD
BRANCH 11 14
ATOM     14  CA  PRO B 340      24.962   2.156 -41.149  1.00 21.04 LIG 0.18  C 
ATOM     15  N   PRO B 340      25.642   2.796 -42.300  1.00 20.95 LIG-0.34  N 
ATOM     16  CD  PRO B 340      25.922   1.832 -43.379  1.00 22.76 LIG 0.13  C 
ATOM     17  C   PHE B 339      25.765   4.121 -42.335  1.00 19.72 LIG 0.26  C 
ATOM     18  CG  PRO B 340      25.072   0.654 -42.954  1.00 24.91 LIG 0.02  C 
ATOM     19  CB  PRO B 340      25.039   0.679 -41.484  1.00 23.27 LIG 0.04  C 
ATOM     20 O    PHE B 339      25.415   4.821 -41.374  1.00 19.38 LIG-0.27  OA
BRANCH 17 21
ATOM     21  CA  PHE B 339      26.340   4.745 -43.606  1.00 21.94 LIG 0.40  C 
ATOM     22  N   PHE B 339      25.459   5.771 -44.142  1.00 23.90 LIG 0.61  N 
BRANCH 21 23
ATOM     23  CB  PHE B 339      27.708   5.350 -43.321  1.00 24.29 LIG 0.09  C 
BRANCH 23 24
ATOM     24  CG  PHE B 339      27.655   6.679 -42.623  1.00 28.97 LIG-0.06  A 
ATOM     25  CD1 PHE B 339      27.514   7.859 -43.349  1.00 31.92 LIG 0.01  A 
ATOM     26  CE1 PHE B 339      27.463   9.091 -42.708  1.00 33.96 LIG 0.00  A 
ATOM     27  CZ  PHE B 339      27.537   9.146 -41.319  1.00 35.90 LIG 0.00  A 
ATOM     28  CE2 PHE B 339      27.670   7.970 -40.579  1.00 35.56 LIG 0.00  A 
ATOM     29  CD2 PHE B 339      27.727   6.744 -41.237  1.00 33.37 LIG 0.01  A 
ENDBRANCH 23 24
ENDBRANCH 21 23
ENDBRANCH 17 21
ENDBRANCH 11 14
ENDBRANCH 5 10
ENDBRANCH 1 5
BRANCH 3 30
ATOM     30  CA  ASP B 342      28.649   0.030 -37.972  1.00 16.21 LIG 0.19  C 
BRANCH 30 31
ATOM     31  CB  ASP B 342      28.754  -1.405 -37.493  1.00 18.68 LIG 0.15  C 
BRANCH 31 32
ATOM     32  CG  ASP B 342      29.447  -1.556 -36.189  1.00 22.92 LIG 0.17  C 
ATOM     33 OD1  ASP B 342      30.605  -1.090 -36.019  1.00 25.81 LIG-0.65  OA
ATOM     34 OD2  ASP B 342      28.790  -2.164 -35.322  1.00 25.94 LIG-0.65  OA
ENDBRANCH 31 32
ENDBRANCH 30 31
BRANCH 30 35
ATOM     35  C   ASP B 342      29.127   0.026 -39.430  1.00 16.03 LIG 0.24  C 
ATOM     36  N   LEU B 343      28.890   1.148 -40.121  1.00 16.72 LIG-0.35  N 
ATOM     37 H    LEU B 343      28.324   1.745 -39.870  1.00 16.72 LIG 0.16  HD
ATOM     38 O    ASP B 342      29.777  -0.918 -39.872  1.00 14.87 LIG-0.27  OA
BRANCH 36 39
ATOM     39  CA  LEU B 343      29.576   1.471 -41.378  1.00 16.14 LIG 0.18  C 
BRANCH 39 40
ATOM     40  CB  LEU B 343      29.437   2.946 -41.735  1.00 19.18 LIG 0.04  C 
BRANCH 40 41
ATOM     41  CG  LEU B 343      30.600   3.510 -42.575  1.00 20.67 LIG-0.02  C 
ATOM     42  CD1 LEU B 343      30.405   3.092 -44.044  1.00 23.87 LIG 0.01  C 
ATOM     43  CD2 LEU B 343      30.665   5.024 -42.452  1.00 22.92 LIG 0.01  C 
ENDBRANCH 40 41
ENDBRANCH 39 40
BRANCH 39 44
ATOM     44  C   LEU B 343      31.066   1.127 -41.263  1.00 14.33 LIG 0.24  C 
ATOM     45 O    LEU B 343      31.757   1.548 -40.318  1.00 16.10 LIG-0.27  OA
ATOM     46  N   ALA B 344      31.562   0.379 -42.223  1.00 14.89 LIG-0.34  N 
ATOM     47 H    ALA B 344      31.096   0.020 -42.850  1.00 14.89 LIG 0.16  HD
BRANCH 46 48
ATOM     48  CA  ALA B 344      33.007   0.100 -42.283  1.00 15.57 LIG 0.18  C 
ATOM     49  CB  ALA B 344      33.310  -1.245 -41.693  1.00 18.12 LIG 0.04  C 
BRANCH 48 50
ATOM     50  C   ALA B 344      33.474   0.121 -43.734  1.00 15.03 LIG 0.20  C 
ATOM     51 OXT  ALA B 344      34.652  -0.128 -44.028  1.00 16.10 LIG-0.65  OA
ATOM     52 O    ALA B 344      32.592   0.328 -44.609  1.00 15.80 LIG-0.65  OA
ENDBRANCH 48 50
ENDBRANCH 46 48
ENDBRANCH 39 44
ENDBRANCH 36 39
ENDBRANCH 30 35
ENDBRANCH 3 30
TORSDOF 18
ENDMDL
MODEL 14
USER: ADFR SOLUTION from run 121
USER: SCORE 14.736471 LL:  -5.140 LR: -11.733 RR:   0.000 FEB:  -6.364
USER: RMSD 5.164177
USER: SEED 120
USER: STATUS no improvement in best in 8 clusters for 5 generations
USER: GENES 20
USER: genes 0 Translation |==|  0.40690 0.53596 0.63357
USER: genes 1 Rotation |==|  0.56222 0.97391 0.40026 0.60764
USER: genes 2 Torsion [N]-C--CA-[N] |==|  0.90054
USER: genes 3 Torsion [C]-CA--CB-[CG] |==|  0.36117
USER: genes 4 Torsion [CA]-CB--CG-[CD1] |==|  0.96584
USER: genes 5 Torsion [C]-CA--N-[C] |==|  0.62845
USER: genes 6 Torsion [N]-C--CA-[CB] |==|  0.68721
USER: genes 7 Torsion [N]-C--CA-[N] |==|  0.35033
USER: genes 8 Torsion [C]-CA--CB-[CG] |==|  0.08741
USER: genes 9 Torsion [CA]-CB--CG-[CD1] |==|  0.18075
USER: genes 10 Torsion [C]-N--CA-[CB] |==|  0.84443
USER: genes 11 Torsion [N]-CA--CB-[CG] |==|  0.54468
USER: genes 12 Torsion [CA]-CB--CG-[OD1] |==|  0.18671
USER: genes 13 Torsion [N]-CA--C-[N] |==|  0.72314
USER: genes 14 Torsion [C]-N--CA-[C] |==|  0.62810
USER: genes 15 Torsion [N]-CA--CB-[CG] |==|  0.69040
USER: genes 16 Torsion [CA]-CB--CG-[CD1] |==|  0.98032
USER: genes 17 Torsion [N]-CA--C-[N] |==|  0.99284
USER: genes 18 Torsion [C]-N--CA-[CB] |==|  0.23631
USER: genes 19 Torsion [N]-CA--C-[OXT] |==|  0.70639
ROOT
ATOM      1  C   LEU B 341      26.975   5.007 -41.792  1.00 14.43 LIG 0.24  C 
ATOM      2 O    LEU B 341      27.676   4.112 -41.322  1.00 17.21 LIG-0.27  OA
ATOM      3  N   ASP B 342      25.678   4.862 -42.021  1.00 15.70 LIG-0.35  N 
ATOM      4 H    ASP B 342      25.152   5.500 -42.254  1.00 15.70 LIG 0.16  HD
ENDROOT
BRANCH 1 5
ATOM      5  CA  LEU B 341      27.547   6.373 -42.167  1.00 14.64 LIG 0.18  C 
BRANCH 5 6
ATOM      6  CB  LEU B 341      27.290   7.349 -41.017  1.00 15.72 LIG 0.04  C 
BRANCH 6 7
ATOM      7  CG  LEU B 341      28.523   8.119 -40.580  1.00 16.60 LIG-0.02  C 
ATOM      8  CD1 LEU B 341      29.748   7.493 -41.205  1.00 17.44 LIG 0.01  C 
ATOM      9  CD2 LEU B 341      28.409   9.607 -40.911  1.00 18.85 LIG 0.01  C 
ENDBRANCH 6 7
ENDBRANCH 5 6
BRANCH 5 10
ATOM     10  N   LEU B 341      26.929   6.937 -43.364  1.00 16.77 LIG-0.35  N 
ATOM     11  C   PRO B 340      27.673   7.469 -44.327  1.00 19.25 LIG 0.24  C 
ATOM     12 O    PRO B 340      28.909   7.449 -44.343  1.00 21.28 LIG-0.27  OA
ATOM     13 H    LEU B 341      26.071   6.892 -43.382  1.00 16.77 LIG 0.16  HD
BRANCH 11 14
ATOM     14  CA  PRO B 340      26.888   8.062 -45.475  1.00 21.04 LIG 0.18  C 
ATOM     15  N   PRO B 340      27.344   9.410 -45.892  1.00 20.95 LIG-0.34  N 
ATOM     16  CD  PRO B 340      27.650   9.466 -47.331  1.00 22.76 LIG 0.13  C 
ATOM     17  C   PHE B 339      27.266  10.424 -45.032  1.00 19.72 LIG 0.26  C 
ATOM     18  CG  PRO B 340      27.031   8.173 -47.819  1.00 24.91 LIG 0.02  C 
ATOM     19  CB  PRO B 340      27.146   7.218 -46.707  1.00 23.27 LIG 0.04  C 
ATOM     20 O    PHE B 339      26.918  10.239 -43.856  1.00 19.38 LIG-0.27  OA
BRANCH 17 21
ATOM     21  CA  PHE B 339      27.609  11.819 -45.551  1.00 21.94 LIG 0.40  C 
ATOM     22  N   PHE B 339      26.535  12.765 -45.286  1.00 23.90 LIG 0.61  N 
BRANCH 21 23
ATOM     23  CB  PHE B 339      28.894  12.318 -44.904  1.00 24.29 LIG 0.09  C 
BRANCH 23 24
ATOM     24  CG  PHE B 339      29.874  11.230 -44.571  1.00 28.97 LIG-0.06  A 
ATOM     25  CD1 PHE B 339      30.471  10.476 -45.579  1.00 31.92 LIG 0.01  A 
ATOM     26  CE1 PHE B 339      31.378   9.469 -45.276  1.00 33.96 LIG 0.00  A 
ATOM     27  CZ  PHE B 339      31.710   9.221 -43.947  1.00 35.90 LIG 0.00  A 
ATOM     28  CE2 PHE B 339      31.126   9.974 -42.928  1.00 35.56 LIG 0.00  A 
ATOM     29  CD2 PHE B 339      30.212  10.974 -43.248  1.00 33.37 LIG 0.01  A 
ENDBRANCH 23 24
ENDBRANCH 21 23
ENDBRANCH 17 21
ENDBRANCH 11 14
ENDBRANCH 5 10
ENDBRANCH 1 5
BRANCH 3 30
ATOM     30  CA  ASP B 342      25.038   3.557 -41.888  1.00 16.21 LIG 0.19  C 
BRANCH 30 31
ATOM     31  CB  ASP B 342      25.743   2.552 -42.778  1.00 18.68 LIG 0.15  C 
BRANCH 31 32
ATOM     32  CG  ASP B 342      24.968   1.308 -43.016  1.00 22.92 LIG 0.17  C 
ATOM     33 OD1  ASP B 342      23.900   1.336 -43.684  1.00 25.81 LIG-0.65  OA
ATOM     34 OD2  ASP B 342      25.464   0.285 -42.508  1.00 25.94 LIG-0.65  OA
ENDBRANCH 31 32
ENDBRANCH 30 31
BRANCH 30 35
ATOM     35  C   ASP B 342      25.156   3.013 -40.459  1.00 16.03 LIG 0.24  C 
ATOM     36  N   LEU B 343      26.124   2.108 -40.262  1.00 16.72 LIG-0.35  N 
ATOM     37 H    LEU B 343      26.509   1.683 -40.902  1.00 16.72 LIG 0.16  HD
ATOM     38 O    ASP B 342      24.466   3.475 -39.555  1.00 14.87 LIG-0.27  OA
BRANCH 36 39
ATOM     39  CA  LEU B 343      26.624   1.754 -38.928  1.00 16.14 LIG 0.18  C 
BRANCH 39 40
ATOM     40  CB  LEU B 343      26.112   0.392 -38.475  1.00 19.18 LIG 0.04  C 
BRANCH 40 41
ATOM     41  CG  LEU B 343      25.114   0.444 -37.302  1.00 20.67 LIG-0.02  C 
ATOM     42  CD1 LEU B 343      25.034   1.889 -36.777  1.00 23.87 LIG 0.01  C 
ATOM     43  CD2 LEU B 343      23.743  -0.044 -37.742  1.00 22.92 LIG 0.01  C 
ENDBRANCH 40 41
ENDBRANCH 39 40
BRANCH 39 44
ATOM     44  C   LEU B 343      28.157   1.730 -38.933  1.00 14.33 LIG 0.24  C 
ATOM     45 O    LEU B 343      28.804   1.511 -37.893  1.00 16.10 LIG-0.27  OA
ATOM     46  N   ALA B 344      28.735   1.966 -40.088  1.00 14.89 LIG-0.34  N 
ATOM     47 H    ALA B 344      28.316   2.055 -40.834  1.00 14.89 LIG 0.16  HD
BRANCH 46 48
ATOM     48  CA  ALA B 344      30.200   2.099 -40.179  1.00 15.57 LIG 0.18  C 
ATOM     49  CB  ALA B 344      30.844   0.753 -40.319  1.00 18.12 LIG 0.04  C 
BRANCH 48 50
ATOM     50  C   ALA B 344      30.563   2.951 -41.391  1.00 15.03 LIG 0.20  C 
ATOM     51 OXT  ALA B 344      31.035   2.434 -42.415  1.00 16.10 LIG-0.65  OA
ATOM     52 O    ALA B 344      30.290   4.178 -41.322  1.00 15.80 LIG-0.65  OA
ENDBRANCH 48 50
ENDBRANCH 46 48
ENDBRANCH 39 44
ENDBRANCH 36 39
ENDBRANCH 30 35
ENDBRANCH 3 30
TORSDOF 18
ENDMDL
MODEL 15
USER: ADFR SOLUTION from run 120
USER: SCORE 13.569784 LL:  -3.680 LR: -11.693 RR:   0.000 FEB:  -6.323
USER: RMSD 7.759206
USER: SEED 119
USER: STATUS no improvement in best in 15 clusters for 5 generations
USER: GENES 20
USER: genes 0 Translation |==|  0.35395 0.46312 0.63601
USER: genes 1 Rotation |==|  0.46855 0.66131 0.23631 0.89174
USER: genes 2 Torsion [N]-C--CA-[N] |==|  0.55000
USER: genes 3 Torsion [C]-CA--CB-[CG] |==|  0.69730
USER: genes 4 Torsion [CA]-CB--CG-[CD1] |==|  0.33859
USER: genes 5 Torsion [C]-CA--N-[C] |==|  0.59082
USER: genes 6 Torsion [N]-C--CA-[CB] |==|  0.79818
USER: genes 7 Torsion [N]-C--CA-[N] |==|  0.23526
USER: genes 8 Torsion [C]-CA--CB-[CG] |==|  0.66271
USER: genes 9 Torsion [CA]-CB--CG-[CD1] |==|  0.31525
USER: genes 10 Torsion [C]-N--CA-[CB] |==|  0.49048
USER: genes 11 Torsion [N]-CA--CB-[CG] |==|  0.05490
USER: genes 12 Torsion [CA]-CB--CG-[OD1] |==|  0.79260
USER: genes 13 Torsion [N]-CA--C-[N] |==|  0.39895
USER: genes 14 Torsion [C]-N--CA-[C] |==|  0.61559
USER: genes 15 Torsion [N]-CA--CB-[CG] |==|  0.87173
USER: genes 16 Torsion [CA]-CB--CG-[CD1] |==|  0.45231
USER: genes 17 Torsion [N]-CA--C-[N] |==|  0.23959
USER: genes 18 Torsion [C]-N--CA-[CB] |==|  0.47816
USER: genes 19 Torsion [N]-CA--C-[OXT] |==|  0.38632
ROOT
ATOM      1  C   LEU B 341      25.942   3.423 -41.739  1.00 14.43 LIG 0.24  C 
ATOM      2 O    LEU B 341      25.289   3.883 -40.803  1.00 17.21 LIG-0.27  OA
ATOM      3  N   ASP B 342      25.737   2.211 -42.233  1.00 15.70 LIG-0.35  N 
ATOM      4 H    ASP B 342      26.110   1.908 -42.946  1.00 15.70 LIG 0.16  HD
ENDROOT
BRANCH 1 5
ATOM      5  CA  LEU B 341      27.065   4.212 -42.409  1.00 14.64 LIG 0.18  C 
BRANCH 5 6
ATOM      6  CB  LEU B 341      28.257   3.279 -42.635  1.00 15.72 LIG 0.04  C 
BRANCH 6 7
ATOM      7  CG  LEU B 341      29.442   3.570 -41.732  1.00 16.60 LIG-0.02  C 
ATOM      8  CD1 LEU B 341      29.770   2.334 -40.928  1.00 17.44 LIG 0.01  C 
ATOM      9  CD2 LEU B 341      30.648   4.074 -42.524  1.00 18.85 LIG 0.01  C 
ENDBRANCH 6 7
ENDBRANCH 5 6
BRANCH 5 10
ATOM     10  N   LEU B 341      27.535   5.331 -41.597  1.00 16.77 LIG-0.35  N 
ATOM     11  C   PRO B 340      27.972   6.448 -42.167  1.00 19.25 LIG 0.24  C 
ATOM     12 O    PRO B 340      27.933   6.672 -43.381  1.00 21.28 LIG-0.27  OA
ATOM     13 H    LEU B 341      27.501   5.200 -40.748  1.00 16.77 LIG 0.16  HD
BRANCH 11 14
ATOM     14  CA  PRO B 340      28.477   7.494 -41.198  1.00 21.04 LIG 0.18  C 
ATOM     15  N   PRO B 340      29.106   8.670 -41.845  1.00 20.95 LIG-0.34  N 
ATOM     16  CD  PRO B 340      28.496   9.934 -41.399  1.00 22.76 LIG 0.13  C 
ATOM     17  C   PHE B 339      30.206   8.506 -42.577  1.00 19.72 LIG 0.26  C 
ATOM     18  CG  PRO B 340      27.698   9.473 -40.197  1.00 24.91 LIG 0.02  C 
ATOM     19  CB  PRO B 340      27.280   8.093 -40.487  1.00 23.27 LIG 0.04  C 
ATOM     20 O    PHE B 339      30.653   7.374 -42.813  1.00 19.38 LIG-0.27  OA
BRANCH 17 21
ATOM     21  CA  PHE B 339      30.900   9.762 -43.102  1.00 21.94 LIG 0.40  C 
ATOM     22  N   PHE B 339      31.806  10.324 -42.112  1.00 23.90 LIG 0.61  N 
BRANCH 21 23
ATOM     23  CB  PHE B 339      31.675   9.440 -44.373  1.00 24.29 LIG 0.09  C 
BRANCH 23 24
ATOM     24  CG  PHE B 339      33.144   9.738 -44.285  1.00 28.97 LIG-0.06  A 
ATOM     25  CD1 PHE B 339      34.082   8.709 -44.323  1.00 31.92 LIG 0.01  A 
ATOM     26  CE1 PHE B 339      35.443   8.980 -44.244  1.00 33.96 LIG 0.00  A 
ATOM     27  CZ  PHE B 339      35.876  10.299 -44.143  1.00 35.90 LIG 0.00  A 
ATOM     28  CE2 PHE B 339      34.947  11.340 -44.114  1.00 35.56 LIG 0.00  A 
ATOM     29  CD2 PHE B 339      33.586  11.051 -44.185  1.00 33.37 LIG 0.01  A 
ENDBRANCH 23 24
ENDBRANCH 21 23
ENDBRANCH 17 21
ENDBRANCH 11 14
ENDBRANCH 5 10
ENDBRANCH 1 5
BRANCH 3 30
ATOM     30  CA  ASP B 342      24.829   1.278 -41.573  1.00 16.21 LIG 0.19  C 
BRANCH 30 31
ATOM     31  CB  ASP B 342      24.720   0.009 -42.394  1.00 18.68 LIG 0.15  C 
BRANCH 31 32
ATOM     32  CG  ASP B 342      25.841  -0.190 -43.348  1.00 22.92 LIG 0.17  C 
ATOM     33 OD1  ASP B 342      25.911   0.490 -44.406  1.00 25.81 LIG-0.65  OA
ATOM     34 OD2  ASP B 342      26.663  -1.061 -43.005  1.00 25.94 LIG-0.65  OA
ENDBRANCH 31 32
ENDBRANCH 30 31
BRANCH 30 35
ATOM     35  C   ASP B 342      25.361   0.850 -40.199  1.00 16.03 LIG 0.24  C 
ATOM     36  N   LEU B 343      24.435   0.677 -39.247  1.00 16.72 LIG-0.35  N 
ATOM     37 H    LEU B 343      23.636   0.989 -39.305  1.00 16.72 LIG 0.16  HD
ATOM     38 O    ASP B 342      26.550   0.586 -40.044  1.00 14.87 LIG-0.27  OA
BRANCH 36 39
ATOM     39  CA  LEU B 343      24.695  -0.066 -38.008  1.00 16.14 LIG 0.18  C 
BRANCH 39 40
ATOM     40  CB  LEU B 343      24.966   0.868 -36.835  1.00 19.18 LIG 0.04  C 
BRANCH 40 41
ATOM     41  CG  LEU B 343      25.953   2.011 -37.145  1.00 20.67 LIG-0.02  C 
ATOM     42  CD1 LEU B 343      25.813   3.099 -36.065  1.00 23.87 LIG 0.01  C 
ATOM     43  CD2 LEU B 343      27.379   1.488 -37.199  1.00 22.92 LIG 0.01  C 
ENDBRANCH 40 41
ENDBRANCH 39 40
BRANCH 39 44
ATOM     44  C   LEU B 343      23.491  -0.952 -37.667  1.00 14.33 LIG 0.24  C 
ATOM     45 O    LEU B 343      22.598  -0.561 -36.894  1.00 16.10 LIG-0.27  OA
ATOM     46  N   ALA B 344      23.471  -2.140 -38.227  1.00 14.89 LIG-0.34  N 
ATOM     47 H    ALA B 344      24.037  -2.412 -38.815  1.00 14.89 LIG 0.16  HD
BRANCH 46 48
ATOM     48  CA  ALA B 344      22.432  -3.121 -37.865  1.00 15.57 LIG 0.18  C 
ATOM     49  CB  ALA B 344      22.501  -4.318 -38.765  1.00 18.12 LIG 0.04  C 
BRANCH 48 50
ATOM     50  C   ALA B 344      22.633  -3.572 -36.423  1.00 15.03 LIG 0.20  C 
ATOM     51 OXT  ALA B 344      21.665  -3.726 -35.663  1.00 16.10 LIG-0.65  OA
ATOM     52 O    ALA B 344      23.812  -3.848 -36.075  1.00 15.80 LIG-0.65  OA
ENDBRANCH 48 50
ENDBRANCH 46 48
ENDBRANCH 39 44
ENDBRANCH 36 39
ENDBRANCH 30 35
ENDBRANCH 3 30
TORSDOF 18
ENDMDL
MODEL 16
USER: ADFR SOLUTION from run 43
USER: SCORE 16.528489 LL:  -5.559 LR: -11.638 RR:   0.000 FEB:  -6.269
USER: RMSD 4.856968
USER: SEED 42
USER: STATUS searching
USER: GENES 20
USER: genes 0 Translation |==|  0.51456 0.55794 0.62178
USER: genes 1 Rotation |==|  0.34605 0.90656 0.50738 0.74690
USER: genes 2 Torsion [N]-C--CA-[N] |==|  0.02713
USER: genes 3 Torsion [C]-CA--CB-[CG] |==|  0.44798
USER: genes 4 Torsion [CA]-CB--CG-[CD1] |==|  0.47435
USER: genes 5 Torsion [C]-CA--N-[C] |==|  0.76501
USER: genes 6 Torsion [N]-C--CA-[CB] |==|  0.17006
USER: genes 7 Torsion [N]-C--CA-[N] |==|  0.32572
USER: genes 8 Torsion [C]-CA--CB-[CG] |==|  0.19644
USER: genes 9 Torsion [CA]-CB--CG-[CD1] |==|  0.86604
USER: genes 10 Torsion [C]-N--CA-[CB] |==|  0.80556
USER: genes 11 Torsion [N]-CA--CB-[CG] |==|  0.68389
USER: genes 12 Torsion [CA]-CB--CG-[OD1] |==|  0.17342
USER: genes 13 Torsion [N]-CA--C-[N] |==|  0.18709
USER: genes 14 Torsion [C]-N--CA-[C] |==|  0.85442
USER: genes 15 Torsion [N]-CA--CB-[CG] |==|  0.62478
USER: genes 16 Torsion [CA]-CB--CG-[CD1] |==|  0.05347
USER: genes 17 Torsion [N]-CA--C-[N] |==|  0.38100
USER: genes 18 Torsion [C]-N--CA-[CB] |==|  0.23872
USER: genes 19 Torsion [N]-CA--C-[OXT] |==|  0.03477
ROOT
ATOM      1  C   LEU B 341      29.074   5.485 -42.048  1.00 14.43 LIG 0.24  C 
ATOM      2 O    LEU B 341      29.955   5.450 -41.190  1.00 17.21 LIG-0.27  OA
ATOM      3  N   ASP B 342      28.755   4.441 -42.798  1.00 15.70 LIG-0.35  N 
ATOM      4 H    ASP B 342      28.081   4.413 -43.330  1.00 15.70 LIG 0.16  HD
ENDROOT
BRANCH 1 5
ATOM      5  CA  LEU B 341      28.272   6.754 -42.335  1.00 14.64 LIG 0.18  C 
BRANCH 5 6
ATOM      6  CB  LEU B 341      27.707   7.289 -41.017  1.00 15.72 LIG 0.04  C 
BRANCH 6 7
ATOM      7  CG  LEU B 341      27.285   8.746 -41.079  1.00 16.60 LIG-0.02  C 
ATOM      8  CD1 LEU B 341      26.541   9.102 -39.813  1.00 17.44 LIG 0.01  C 
ATOM      9  CD2 LEU B 341      28.476   9.672 -41.322  1.00 18.85 LIG 0.01  C 
ENDBRANCH 6 7
ENDBRANCH 5 6
BRANCH 5 10
ATOM     10  N   LEU B 341      27.142   6.519 -43.230  1.00 16.77 LIG-0.35  N 
ATOM     11  C   PRO B 340      27.307   6.524 -44.548  1.00 19.25 LIG 0.24  C 
ATOM     12 O    PRO B 340      28.402   6.626 -45.112  1.00 21.28 LIG-0.27  OA
ATOM     13 H    LEU B 341      26.391   6.383 -42.836  1.00 16.77 LIG 0.16  HD
BRANCH 11 14
ATOM     14  CA  PRO B 340      26.037   6.324 -45.343  1.00 21.04 LIG 0.18  C 
ATOM     15  N   PRO B 340      25.257   5.125 -44.952  1.00 20.95 LIG-0.34  N 
ATOM     16  CD  PRO B 340      23.861   5.461 -44.623  1.00 22.76 LIG 0.13  C 
ATOM     17  C   PHE B 339      25.795   3.916 -45.099  1.00 19.72 LIG 0.26  C 
ATOM     18  CG  PRO B 340      23.757   6.871 -45.164  1.00 24.91 LIG 0.02  C 
ATOM     19  CB  PRO B 340      25.094   7.466 -45.019  1.00 23.27 LIG 0.04  C 
ATOM     20 O    PHE B 339      26.974   3.781 -45.458  1.00 19.38 LIG-0.27  OA
BRANCH 17 21
ATOM     21  CA  PHE B 339      24.903   2.707 -44.821  1.00 21.94 LIG 0.40  C 
ATOM     22  N   PHE B 339      24.720   1.894 -46.014  1.00 23.90 LIG 0.61  N 
BRANCH 21 23
ATOM     23  CB  PHE B 339      25.507   1.853 -43.714  1.00 24.29 LIG 0.09  C 
BRANCH 23 24
ATOM     24  CG  PHE B 339      25.444   2.483 -42.353  1.00 28.97 LIG-0.06  A 
ATOM     25  CD1 PHE B 339      25.848   3.802 -42.159  1.00 31.92 LIG 0.01  A 
ATOM     26  CE1 PHE B 339      25.790   4.390 -40.901  1.00 33.96 LIG 0.00  A 
ATOM     27  CZ  PHE B 339      25.305   3.657 -39.822  1.00 35.90 LIG 0.00  A 
ATOM     28  CE2 PHE B 339      24.889   2.337 -40.004  1.00 35.56 LIG 0.00  A 
ATOM     29  CD2 PHE B 339      24.961   1.760 -41.269  1.00 33.37 LIG 0.01  A 
ENDBRANCH 23 24
ENDBRANCH 21 23
ENDBRANCH 17 21
ENDBRANCH 11 14
ENDBRANCH 5 10
ENDBRANCH 1 5
BRANCH 3 30
ATOM     30  CA  ASP B 342      29.561   3.224 -42.765  1.00 16.21 LIG 0.19  C 
BRANCH 30 31
ATOM     31  CB  ASP B 342      30.903   3.487 -43.419  1.00 18.68 LIG 0.15  C 
BRANCH 31 32
ATOM     32  CG  ASP B 342      31.117   2.733 -44.681  1.00 22.92 LIG 0.17  C 
ATOM     33 OD1  ASP B 342      30.371   2.925 -45.677  1.00 25.81 LIG-0.65  OA
ATOM     34 OD2  ASP B 342      32.069   1.929 -44.648  1.00 25.94 LIG-0.65  OA
ENDBRANCH 31 32
ENDBRANCH 30 31
BRANCH 30 35
ATOM     35  C   ASP B 342      29.869   2.789 -41.326  1.00 16.03 LIG 0.24  C 
ATOM     36  N   LEU B 343      28.817   2.375 -40.609  1.00 16.72 LIG-0.35  N 
ATOM     37 H    LEU B 343      28.002   2.540 -40.828  1.00 16.72 LIG 0.16  HD
ATOM     38 O    ASP B 342      31.028   2.734 -40.925  1.00 14.87 LIG-0.27  OA
BRANCH 36 39
ATOM     39  CA  LEU B 343      28.953   1.594 -39.373  1.00 16.14 LIG 0.18  C 
BRANCH 39 40
ATOM     40  CB  LEU B 343      27.601   1.122 -38.851  1.00 19.18 LIG 0.04  C 
BRANCH 40 41
ATOM     41  CG  LEU B 343      27.403   1.309 -37.334  1.00 20.67 LIG-0.02  C 
ATOM     42  CD1 LEU B 343      28.416   2.350 -36.822  1.00 23.87 LIG 0.01  C 
ATOM     43  CD2 LEU B 343      25.981   1.747 -37.029  1.00 22.92 LIG 0.01  C 
ENDBRANCH 40 41
ENDBRANCH 39 40
BRANCH 39 44
ATOM     44  C   LEU B 343      29.843   0.371 -39.622  1.00 14.33 LIG 0.24  C 
ATOM     45 O    LEU B 343      29.716  -0.324 -40.647  1.00 16.10 LIG-0.27  OA
ATOM     46  N   ALA B 344      30.728   0.100 -38.690  1.00 14.89 LIG-0.34  N 
ATOM     47 H    ALA B 344      30.883   0.598 -38.007  1.00 14.89 LIG 0.16  HD
BRANCH 46 48
ATOM     48  CA  ALA B 344      31.542  -1.126 -38.764  1.00 15.57 LIG 0.18  C 
ATOM     49  CB  ALA B 344      32.764  -0.898 -39.602  1.00 18.12 LIG 0.04  C 
BRANCH 48 50
ATOM     50  C   ALA B 344      31.972  -1.541 -37.362  1.00 15.03 LIG 0.20  C 
ATOM     51 OXT  ALA B 344      31.456  -1.026 -36.358  1.00 16.10 LIG-0.65  OA
ATOM     52 O    ALA B 344      32.812  -2.477 -37.281  1.00 15.80 LIG-0.65  OA
ENDBRANCH 48 50
ENDBRANCH 46 48
ENDBRANCH 39 44
ENDBRANCH 36 39
ENDBRANCH 30 35
ENDBRANCH 3 30
TORSDOF 18
ENDMDL
MODEL 17
USER: ADFR SOLUTION from run 127
USER: SCORE 14.907236 LL:  -5.318 LR: -11.617 RR:   0.000 FEB:  -6.248
USER: RMSD 4.982335
USER: SEED 126
USER: STATUS no improvement in best in 5 clusters for 5 generations
USER: GENES 20
USER: genes 0 Translation |==|  0.41558 0.52305 0.63523
USER: genes 1 Rotation |==|  0.59925 0.97180 0.39638 0.58256
USER: genes 2 Torsion [N]-C--CA-[N] |==|  0.90202
USER: genes 3 Torsion [C]-CA--CB-[CG] |==|  0.61612
USER: genes 4 Torsion [CA]-CB--CG-[CD1] |==|  0.41305
USER: genes 5 Torsion [C]-CA--N-[C] |==|  0.64482
USER: genes 6 Torsion [N]-C--CA-[CB] |==|  0.23763
USER: genes 7 Torsion [N]-C--CA-[N] |==|  0.44928
USER: genes 8 Torsion [C]-CA--CB-[CG] |==|  0.39055
USER: genes 9 Torsion [CA]-CB--CG-[CD1] |==|  0.01901
USER: genes 10 Torsion [C]-N--CA-[CB] |==|  0.85277
USER: genes 11 Torsion [N]-CA--CB-[CG] |==|  0.80919
USER: genes 12 Torsion [CA]-CB--CG-[OD1] |==|  0.37213
USER: genes 13 Torsion [N]-CA--C-[N] |==|  0.75760
USER: genes 14 Torsion [C]-N--CA-[C] |==|  0.60672
USER: genes 15 Torsion [N]-CA--CB-[CG] |==|  0.65204
USER: genes 16 Torsion [CA]-CB--CG-[CD1] |==|  0.01554
USER: genes 17 Torsion [N]-CA--C-[N] |==|  0.97490
USER: genes 18 Torsion [C]-N--CA-[CB] |==|  0.27199
USER: genes 19 Torsion [N]-CA--C-[OXT] |==|  0.69067
ROOT
ATOM      1  C   LEU B 341      27.144   4.726 -41.756  1.00 14.43 LIG 0.24  C 
ATOM      2 O    LEU B 341      27.716   3.713 -41.355  1.00 17.21 LIG-0.27  OA
ATOM      3  N   ASP B 342      25.830   4.802 -41.900  1.00 15.70 LIG-0.35  N 
ATOM      4 H    ASP B 342      25.402   5.526 -42.082  1.00 15.70 LIG 0.16  HD
ENDROOT
BRANCH 1 5
ATOM      5  CA  LEU B 341      27.909   5.992 -42.138  1.00 14.64 LIG 0.18  C 
BRANCH 5 6
ATOM      6  CB  LEU B 341      27.901   6.953 -40.947  1.00 15.72 LIG 0.04  C 
BRANCH 6 7
ATOM      7  CG  LEU B 341      27.663   8.402 -41.330  1.00 16.60 LIG-0.02  C 
ATOM      8  CD1 LEU B 341      26.932   9.100 -40.207  1.00 17.44 LIG 0.01  C 
ATOM      9  CD2 LEU B 341      28.966   9.114 -41.694  1.00 18.85 LIG 0.01  C 
ENDBRANCH 6 7
ENDBRANCH 5 6
BRANCH 5 10
ATOM     10  N   LEU B 341      27.311   6.695 -43.270  1.00 16.77 LIG-0.35  N 
ATOM     11  C   PRO B 340      28.044   7.031 -44.326  1.00 19.25 LIG 0.24  C 
ATOM     12 O    PRO B 340      29.226   6.707 -44.484  1.00 21.28 LIG-0.27  OA
ATOM     13 H    LEU B 341      26.472   6.863 -43.188  1.00 16.77 LIG 0.16  HD
BRANCH 11 14
ATOM     14  CA  PRO B 340      27.298   7.804 -45.390  1.00 21.04 LIG 0.18  C 
ATOM     15  N   PRO B 340      25.846   7.510 -45.450  1.00 20.95 LIG-0.34  N 
ATOM     16  CD  PRO B 340      25.033   8.734 -45.350  1.00 22.76 LIG 0.13  C 
ATOM     17  C   PHE B 339      25.438   6.280 -45.754  1.00 19.72 LIG 0.26  C 
ATOM     18  CG  PRO B 340      26.079   9.807 -45.566  1.00 24.91 LIG 0.02  C 
ATOM     19  CB  PRO B 340      27.334   9.273 -45.016  1.00 23.27 LIG 0.04  C 
ATOM     20 O    PHE B 339      26.250   5.351 -45.883  1.00 19.38 LIG-0.27  OA
BRANCH 17 21
ATOM     21  CA  PHE B 339      23.939   6.059 -45.948  1.00 21.94 LIG 0.40  C 
ATOM     22  N   PHE B 339      23.671   4.827 -46.674  1.00 23.90 LIG 0.61  N 
BRANCH 21 23
ATOM     23  CB  PHE B 339      23.236   6.014 -44.598  1.00 24.29 LIG 0.09  C 
BRANCH 23 24
ATOM     24  CG  PHE B 339      21.904   6.706 -44.579  1.00 28.97 LIG-0.06  A 
ATOM     25  CD1 PHE B 339      21.338   7.195 -45.754  1.00 31.92 LIG 0.01  A 
ATOM     26  CE1 PHE B 339      20.104   7.834 -45.741  1.00 33.96 LIG 0.00  A 
ATOM     27  CZ  PHE B 339      19.415   7.974 -44.541  1.00 35.90 LIG 0.00  A 
ATOM     28  CE2 PHE B 339      19.967   7.481 -43.357  1.00 35.56 LIG 0.00  A 
ATOM     29  CD2 PHE B 339      21.208   6.850 -43.385  1.00 33.37 LIG 0.01  A 
ENDBRANCH 23 24
ENDBRANCH 21 23
ENDBRANCH 17 21
ENDBRANCH 11 14
ENDBRANCH 5 10
ENDBRANCH 1 5
BRANCH 3 30
ATOM     30  CA  ASP B 342      24.992   3.615 -41.754  1.00 16.21 LIG 0.19  C 
BRANCH 30 31
ATOM     31  CB  ASP B 342      25.510   2.514 -42.657  1.00 18.68 LIG 0.15  C 
BRANCH 31 32
ATOM     32  CG  ASP B 342      25.328   2.787 -44.106  1.00 22.92 LIG 0.17  C 
ATOM     33 OD1  ASP B 342      26.270   2.592 -44.919  1.00 25.81 LIG-0.65  OA
ATOM     34 OD2  ASP B 342      24.197   3.210 -44.414  1.00 25.94 LIG-0.65  OA
ENDBRANCH 31 32
ENDBRANCH 30 31
BRANCH 30 35
ATOM     35  C   ASP B 342      25.051   3.055 -40.327  1.00 16.03 LIG 0.24  C 
ATOM     36  N   LEU B 343      26.043   2.189 -40.086  1.00 16.72 LIG-0.35  N 
ATOM     37 H    LEU B 343      26.482   1.789 -40.708  1.00 16.72 LIG 0.16  HD
ATOM     38 O    ASP B 342      24.292   3.475 -39.459  1.00 14.87 LIG-0.27  OA
BRANCH 36 39
ATOM     39  CA  LEU B 343      26.481   1.835 -38.730  1.00 16.14 LIG 0.18  C 
BRANCH 39 40
ATOM     40  CB  LEU B 343      25.849   0.533 -38.252  1.00 19.18 LIG 0.04  C 
BRANCH 40 41
ATOM     41  CG  LEU B 343      25.099   0.643 -36.911  1.00 20.67 LIG-0.02  C 
ATOM     42  CD1 LEU B 343      25.076   2.118 -36.470  1.00 23.87 LIG 0.01  C 
ATOM     43  CD2 LEU B 343      23.686   0.099 -37.040  1.00 22.92 LIG 0.01  C 
ENDBRANCH 40 41
ENDBRANCH 39 40
BRANCH 39 44
ATOM     44  C   LEU B 343      28.007   1.687 -38.695  1.00 14.33 LIG 0.24  C 
ATOM     45 O    LEU B 343      28.621   1.566 -37.619  1.00 16.10 LIG-0.27  OA
ATOM     46  N   ALA B 344      28.617   1.709 -39.858  1.00 14.89 LIG-0.34  N 
ATOM     47 H    ALA B 344      28.216   1.725 -40.618  1.00 14.89 LIG 0.16  HD
BRANCH 46 48
ATOM     48  CA  ALA B 344      30.089   1.709 -39.931  1.00 15.57 LIG 0.18  C 
ATOM     49  CB  ALA B 344      30.604   0.323 -40.178  1.00 18.12 LIG 0.04  C 
BRANCH 48 50
ATOM     50  C   ALA B 344      30.546   2.618 -41.066  1.00 15.03 LIG 0.20  C 
ATOM     51 OXT  ALA B 344      31.075   2.148 -42.085  1.00 16.10 LIG-0.65  OA
ATOM     52 O    ALA B 344      30.290   3.845 -40.947  1.00 15.80 LIG-0.65  OA
ENDBRANCH 48 50
ENDBRANCH 46 48
ENDBRANCH 39 44
ENDBRANCH 36 39
ENDBRANCH 30 35
ENDBRANCH 3 30
TORSDOF 18
ENDMDL
MODEL 18
USER: ADFR SOLUTION from run 140
USER: SCORE 14.412037 LL:  -4.529 LR: -11.586 RR:   0.000 FEB:  -6.217
USER: RMSD 5.978208
USER: SEED 139
USER: STATUS no improvement in best in 5 clusters for 5 generations
USER: GENES 20
USER: genes 0 Translation |==|  0.57986 0.46068 0.60895
USER: genes 1 Rotation |==|  0.57620 0.09256 0.49841 0.77962
USER: genes 2 Torsion [N]-C--CA-[N] |==|  0.42052
USER: genes 3 Torsion [C]-CA--CB-[CG] |==|  0.06580
USER: genes 4 Torsion [CA]-CB--CG-[CD1] |==|  0.38842
USER: genes 5 Torsion [C]-CA--N-[C] |==|  0.18370
USER: genes 6 Torsion [N]-C--CA-[CB] |==|  0.18276
USER: genes 7 Torsion [N]-C--CA-[N] |==|  0.43516
USER: genes 8 Torsion [C]-CA--CB-[CG] |==|  0.88088
USER: genes 9 Torsion [CA]-CB--CG-[CD1] |==|  0.29694
USER: genes 10 Torsion [C]-N--CA-[CB] |==|  0.23155
USER: genes 11 Torsion [N]-CA--CB-[CG] |==|  0.62340
USER: genes 12 Torsion [CA]-CB--CG-[OD1] |==|  0.06406
USER: genes 13 Torsion [N]-CA--C-[N] |==|  0.95556
USER: genes 14 Torsion [C]-N--CA-[C] |==|  0.16295
USER: genes 15 Torsion [N]-CA--CB-[CG] |==|  0.60416
USER: genes 16 Torsion [CA]-CB--CG-[CD1] |==|  0.08671
USER: genes 17 Torsion [N]-CA--C-[N] |==|  0.10551
USER: genes 18 Torsion [C]-N--CA-[CB] |==|  0.21812
USER: genes 19 Torsion [N]-CA--C-[OXT] |==|  0.38644
ROOT
ATOM      1  C   LEU B 341      30.347   3.370 -42.327  1.00 14.43 LIG 0.24  C 
ATOM      2 O    LEU B 341      30.613   2.882 -43.425  1.00 17.21 LIG-0.27  OA
ATOM      3  N   ASP B 342      30.256   2.648 -41.221  1.00 15.70 LIG-0.35  N 
ATOM      4 H    ASP B 342      30.171   2.977 -40.431  1.00 15.70 LIG 0.16  HD
ENDROOT
BRANCH 1 5
ATOM      5  CA  LEU B 341      30.083   4.864 -42.146  1.00 14.64 LIG 0.18  C 
BRANCH 5 6
ATOM      6  CB  LEU B 341      28.588   5.128 -42.334  1.00 15.72 LIG 0.04  C 
BRANCH 6 7
ATOM      7  CG  LEU B 341      27.715   3.913 -42.076  1.00 16.60 LIG-0.02  C 
ATOM      8  CD1 LEU B 341      26.471   4.344 -41.333  1.00 17.44 LIG 0.01  C 
ATOM      9  CD2 LEU B 341      27.380   3.170 -43.369  1.00 18.85 LIG 0.01  C 
ENDBRANCH 6 7
ENDBRANCH 5 6
BRANCH 5 10
ATOM     10  N   LEU B 341      30.797   5.687 -43.119  1.00 16.77 LIG-0.35  N 
ATOM     11  C   PRO B 340      30.498   5.625 -44.411  1.00 19.25 LIG 0.24  C 
ATOM     12 O    PRO B 340      29.563   4.966 -44.879  1.00 21.28 LIG-0.27  OA
ATOM     13 H    LEU B 341      31.405   6.195 -42.785  1.00 16.77 LIG 0.16  HD
BRANCH 11 14
ATOM     14  CA  PRO B 340      31.361   6.493 -45.300  1.00 21.04 LIG 0.18  C 
ATOM     15  N   PRO B 340      31.517   7.887 -44.822  1.00 20.95 LIG-0.34  N 
ATOM     16  CD  PRO B 340      32.934   8.271 -44.699  1.00 22.76 LIG 0.13  C 
ATOM     17  C   PHE B 339      30.446   8.673 -44.730  1.00 19.72 LIG 0.26  C 
ATOM     18  CG  PRO B 340      33.614   7.146 -45.450  1.00 24.91 LIG 0.02  C 
ATOM     19  CB  PRO B 340      32.777   5.953 -45.251  1.00 23.27 LIG 0.04  C 
ATOM     20 O    PHE B 339      29.308   8.228 -44.936  1.00 19.38 LIG-0.27  OA
BRANCH 17 21
ATOM     21  CA  PHE B 339      30.675  10.141 -44.374  1.00 21.94 LIG 0.40  C 
ATOM     22  N   PHE B 339      29.573  10.977 -44.826  1.00 23.90 LIG 0.61  N 
BRANCH 21 23
ATOM     23  CB  PHE B 339      30.844  10.296 -42.869  1.00 24.29 LIG 0.09  C 
BRANCH 23 24
ATOM     24  CG  PHE B 339      29.872   9.488 -42.058  1.00 28.97 LIG-0.06  A 
ATOM     25  CD1 PHE B 339      30.290   8.349 -41.373  1.00 31.92 LIG 0.01  A 
ATOM     26  CE1 PHE B 339      29.394   7.600 -40.620  1.00 33.96 LIG 0.00  A 
ATOM     27  CZ  PHE B 339      28.064   8.001 -40.534  1.00 35.90 LIG 0.00  A 
ATOM     28  CE2 PHE B 339      27.634   9.145 -41.209  1.00 35.56 LIG 0.00  A 
ATOM     29  CD2 PHE B 339      28.543   9.881 -41.965  1.00 33.37 LIG 0.01  A 
ENDBRANCH 23 24
ENDBRANCH 21 23
ENDBRANCH 17 21
ENDBRANCH 11 14
ENDBRANCH 5 10
ENDBRANCH 1 5
BRANCH 3 30
ATOM     30  CA  ASP B 342      30.297   1.189 -41.275  1.00 16.21 LIG 0.19  C 
BRANCH 30 31
ATOM     31  CB  ASP B 342      31.739   0.723 -41.319  1.00 18.68 LIG 0.15  C 
BRANCH 31 32
ATOM     32  CG  ASP B 342      31.995  -0.349 -42.314  1.00 22.92 LIG 0.17  C 
ATOM     33 OD1  ASP B 342      31.231  -0.504 -43.303  1.00 25.81 LIG-0.65  OA
ATOM     34 OD2  ASP B 342      33.000  -1.046 -42.075  1.00 25.94 LIG-0.65  OA
ENDBRANCH 31 32
ENDBRANCH 30 31
BRANCH 30 35
ATOM     35  C   ASP B 342      29.688   0.561 -40.015  1.00 16.03 LIG 0.24  C 
ATOM     36  N   LEU B 343      29.540   1.386 -38.970  1.00 16.72 LIG-0.35  N 
ATOM     37 H    LEU B 343      29.947   2.140 -38.904  1.00 16.72 LIG 0.16  HD
ATOM     38 O    ASP B 342      29.275  -0.595 -40.030  1.00 14.87 LIG-0.27  OA
BRANCH 36 39
ATOM     39  CA  LEU B 343      28.664   1.081 -37.832  1.00 16.14 LIG 0.18  C 
BRANCH 39 40
ATOM     40  CB  LEU B 343      27.205   0.962 -38.257  1.00 19.18 LIG 0.04  C 
BRANCH 40 41
ATOM     41  CG  LEU B 343      26.197   1.533 -37.242  1.00 20.67 LIG-0.02  C 
ATOM     42  CD1 LEU B 343      26.851   2.710 -36.495  1.00 23.87 LIG 0.01  C 
ATOM     43  CD2 LEU B 343      24.925   1.983 -37.943  1.00 22.92 LIG 0.01  C 
ENDBRANCH 40 41
ENDBRANCH 39 40
BRANCH 39 44
ATOM     44  C   LEU B 343      29.098  -0.235 -37.175  1.00 14.33 LIG 0.24  C 
ATOM     45 O    LEU B 343      28.263  -1.039 -36.724  1.00 16.10 LIG-0.27  OA
ATOM     46  N   ALA B 344      30.392  -0.448 -37.108  1.00 14.89 LIG-0.34  N 
ATOM     47 H    ALA B 344      30.988   0.056 -37.469  1.00 14.89 LIG 0.16  HD
BRANCH 46 48
ATOM     48  CA  ALA B 344      30.922  -1.614 -36.380  1.00 15.57 LIG 0.18  C 
ATOM     49  CB  ALA B 344      30.787  -2.857 -37.206  1.00 18.12 LIG 0.04  C 
BRANCH 48 50
ATOM     50  C   ALA B 344      32.395  -1.391 -36.056  1.00 15.03 LIG 0.20  C 
ATOM     51 OXT  ALA B 344      32.863  -1.718 -34.956  1.00 16.10 LIG-0.65  OA
ATOM     52 O    ALA B 344      33.115  -0.932 -36.983  1.00 15.80 LIG-0.65  OA
ENDBRANCH 48 50
ENDBRANCH 46 48
ENDBRANCH 39 44
ENDBRANCH 36 39
ENDBRANCH 30 35
ENDBRANCH 3 30
TORSDOF 18
ENDMDL
MODEL 19
USER: ADFR SOLUTION from run 120
USER: SCORE 14.100581 LL:  -4.317 LR: -11.526 RR:   0.000 FEB:  -6.157
USER: RMSD 7.099902
USER: SEED 119
USER: STATUS no improvement in best in 15 clusters for 5 generations
USER: GENES 20
USER: genes 0 Translation |==|  0.35424 0.46344 0.63570
USER: genes 1 Rotation |==|  0.46975 0.66016 0.24264 0.89648
USER: genes 2 Torsion [N]-C--CA-[N] |==|  0.55267
USER: genes 3 Torsion [C]-CA--CB-[CG] |==|  0.69836
USER: genes 4 Torsion [CA]-CB--CG-[CD1] |==|  0.33764
USER: genes 5 Torsion [C]-CA--N-[C] |==|  0.58951
USER: genes 6 Torsion [N]-C--CA-[CB] |==|  0.79988
USER: genes 7 Torsion [N]-C--CA-[N] |==|  0.37997
USER: genes 8 Torsion [C]-CA--CB-[CG] |==|  0.19000
USER: genes 9 Torsion [CA]-CB--CG-[CD1] |==|  0.27054
USER: genes 10 Torsion [C]-N--CA-[CB] |==|  0.50436
USER: genes 11 Torsion [N]-CA--CB-[CG] |==|  0.06911
USER: genes 12 Torsion [CA]-CB--CG-[OD1] |==|  0.69384
USER: genes 13 Torsion [N]-CA--C-[N] |==|  0.40935
USER: genes 14 Torsion [C]-N--CA-[C] |==|  0.59643
USER: genes 15 Torsion [N]-CA--CB-[CG] |==|  0.85140
USER: genes 16 Torsion [CA]-CB--CG-[CD1] |==|  0.47055
USER: genes 17 Torsion [N]-CA--C-[N] |==|  0.23394
USER: genes 18 Torsion [C]-N--CA-[CB] |==|  0.47580
USER: genes 19 Torsion [N]-CA--C-[OXT] |==|  0.38772
ROOT
ATOM      1  C   LEU B 341      25.948   3.430 -41.745  1.00 14.43 LIG 0.24  C 
ATOM      2 O    LEU B 341      25.272   3.861 -40.812  1.00 17.21 LIG-0.27  OA
ATOM      3  N   ASP B 342      25.783   2.219 -42.255  1.00 15.70 LIG-0.35  N 
ATOM      4 H    ASP B 342      26.172   1.934 -42.967  1.00 15.70 LIG 0.16  HD
ENDROOT
BRANCH 1 5
ATOM      5  CA  LEU B 341      27.055   4.258 -42.395  1.00 14.64 LIG 0.18  C 
BRANCH 5 6
ATOM      6  CB  LEU B 341      28.267   3.356 -42.640  1.00 15.72 LIG 0.04  C 
BRANCH 6 7
ATOM      7  CG  LEU B 341      29.440   3.646 -41.722  1.00 16.60 LIG-0.02  C 
ATOM      8  CD1 LEU B 341      29.784   2.396 -40.945  1.00 17.44 LIG 0.01  C 
ATOM      9  CD2 LEU B 341      30.644   4.188 -42.493  1.00 18.85 LIG 0.01  C 
ENDBRANCH 6 7
ENDBRANCH 5 6
BRANCH 5 10
ATOM     10  N   LEU B 341      27.499   5.368 -41.557  1.00 16.77 LIG-0.35  N 
ATOM     11  C   PRO B 340      27.922   6.504 -42.100  1.00 19.25 LIG 0.24  C 
ATOM     12 O    PRO B 340      27.889   6.751 -43.310  1.00 21.28 LIG-0.27  OA
ATOM     13 H    LEU B 341      27.460   5.219 -40.711  1.00 16.77 LIG 0.16  HD
BRANCH 11 14
ATOM     14  CA  PRO B 340      28.402   7.537 -41.106  1.00 21.04 LIG 0.18  C 
ATOM     15  N   PRO B 340      29.003   8.743 -41.724  1.00 20.95 LIG-0.34  N 
ATOM     16  CD  PRO B 340      28.364   9.982 -41.249  1.00 22.76 LIG 0.13  C 
ATOM     17  C   PHE B 339      30.107   8.622 -42.458  1.00 19.72 LIG 0.26  C 
ATOM     18  CG  PRO B 340      27.576   9.473 -40.060  1.00 24.91 LIG 0.02  C 
ATOM     19  CB  PRO B 340      27.191   8.091 -40.382  1.00 23.27 LIG 0.04  C 
ATOM     20 O    PHE B 339      30.581   7.508 -42.721  1.00 19.38 LIG-0.27  OA
BRANCH 17 21
ATOM     21  CA  PHE B 339      30.771   9.907 -42.953  1.00 21.94 LIG 0.40  C 
ATOM     22  N   PHE B 339      32.217   9.851 -42.802  1.00 23.90 LIG 0.61  N 
BRANCH 21 23
ATOM     23  CB  PHE B 339      30.423  10.148 -44.416  1.00 24.29 LIG 0.09  C 
BRANCH 23 24
ATOM     24  CG  PHE B 339      28.981  10.489 -44.653  1.00 28.97 LIG-0.06  A 
ATOM     25  CD1 PHE B 339      28.576  11.816 -44.787  1.00 31.92 LIG 0.01  A 
ATOM     26  CE1 PHE B 339      27.242  12.136 -45.008  1.00 33.96 LIG 0.00  A 
ATOM     27  CZ  PHE B 339      26.299  11.118 -45.115  1.00 35.90 LIG 0.00  A 
ATOM     28  CE2 PHE B 339      26.693   9.785 -44.992  1.00 35.56 LIG 0.00  A 
ATOM     29  CD2 PHE B 339      28.032   9.481 -44.762  1.00 33.37 LIG 0.01  A 
ENDBRANCH 23 24
ENDBRANCH 21 23
ENDBRANCH 17 21
ENDBRANCH 11 14
ENDBRANCH 5 10
ENDBRANCH 1 5
BRANCH 3 30
ATOM     30  CA  ASP B 342      24.895   1.253 -41.614  1.00 16.21 LIG 0.19  C 
BRANCH 30 31
ATOM     31  CB  ASP B 342      24.927  -0.053 -42.383  1.00 18.68 LIG 0.15  C 
BRANCH 31 32
ATOM     32  CG  ASP B 342      26.175  -0.267 -43.158  1.00 22.92 LIG 0.17  C 
ATOM     33 OD1  ASP B 342      26.164  -0.226 -44.416  1.00 25.81 LIG-0.65  OA
ATOM     34 OD2  ASP B 342      27.186  -0.481 -42.461  1.00 25.94 LIG-0.65  OA
ENDBRANCH 31 32
ENDBRANCH 30 31
BRANCH 30 35
ATOM     35  C   ASP B 342      25.359   0.918 -40.190  1.00 16.03 LIG 0.24  C 
ATOM     36  N   LEU B 343      24.384   0.644 -39.314  1.00 16.72 LIG-0.35  N 
ATOM     37 H    LEU B 343      23.560   0.851 -39.445  1.00 16.72 LIG 0.16  HD
ATOM     38 O    ASP B 342      26.553   0.811 -39.932  1.00 14.87 LIG-0.27  OA
BRANCH 36 39
ATOM     39  CA  LEU B 343      24.629  -0.039 -38.037  1.00 16.14 LIG 0.18  C 
BRANCH 39 40
ATOM     40  CB  LEU B 343      24.849   0.950 -36.899  1.00 19.18 LIG 0.04  C 
BRANCH 40 41
ATOM     41  CG  LEU B 343      25.946   1.997 -37.168  1.00 20.67 LIG-0.02  C 
ATOM     42  CD1 LEU B 343      25.883   3.080 -36.074  1.00 23.87 LIG 0.01  C 
ATOM     43  CD2 LEU B 343      27.317   1.343 -37.197  1.00 22.92 LIG 0.01  C 
ENDBRANCH 40 41
ENDBRANCH 39 40
BRANCH 39 44
ATOM     44  C   LEU B 343      23.438  -0.940 -37.689  1.00 14.33 LIG 0.24  C 
ATOM     45 O    LEU B 343      22.535  -0.552 -36.926  1.00 16.10 LIG-0.27  OA
ATOM     46  N   ALA B 344      23.440  -2.136 -38.231  1.00 14.89 LIG-0.34  N 
ATOM     47 H    ALA B 344      24.013  -2.407 -38.812  1.00 14.89 LIG 0.16  HD
BRANCH 46 48
ATOM     48  CA  ALA B 344      22.415  -3.128 -37.860  1.00 15.57 LIG 0.18  C 
ATOM     49  CB  ALA B 344      22.494  -4.328 -38.755  1.00 18.12 LIG 0.04  C 
BRANCH 48 50
ATOM     50  C   ALA B 344      22.629  -3.570 -36.416  1.00 15.03 LIG 0.20  C 
ATOM     51 OXT  ALA B 344      21.666  -3.741 -35.653  1.00 16.10 LIG-0.65  OA
ATOM     52 O    ALA B 344      23.814  -3.821 -36.071  1.00 15.80 LIG-0.65  OA
ENDBRANCH 48 50
ENDBRANCH 46 48
ENDBRANCH 39 44
ENDBRANCH 36 39
ENDBRANCH 30 35
ENDBRANCH 3 30
TORSDOF 18
ENDMDL
MODEL 20
USER: ADFR SOLUTION from run 103
USER: SCORE 14.088386 LL:  -4.929 LR: -11.535 RR:   0.000 FEB:  -6.165
USER: RMSD 6.625024
USER: SEED 102
USER: STATUS no improvement in best in 10 clusters for 5 generations
USER: GENES 20
USER: genes 0 Translation |==|  0.57295 0.54419 0.57924
USER: genes 1 Rotation |==|  0.48283 0.80132 0.14985 0.69055
USER: genes 2 Torsion [N]-C--CA-[N] |==|  0.38636
USER: genes 3 Torsion [C]-CA--CB-[CG] |==|  0.25982
USER: genes 4 Torsion [CA]-CB--CG-[CD1] |==|  0.43825
USER: genes 5 Torsion [C]-CA--N-[C] |==|  0.57450
USER: genes 6 Torsion [N]-C--CA-[CB] |==|  0.18697
USER: genes 7 Torsion [N]-C--CA-[N] |==|  0.25124
USER: genes 8 Torsion [C]-CA--CB-[CG] |==|  0.20066
USER: genes 9 Torsion [CA]-CB--CG-[CD1] |==|  0.23272
USER: genes 10 Torsion [C]-N--CA-[CB] |==|  0.50617
USER: genes 11 Torsion [N]-CA--CB-[CG] |==|  0.64185
USER: genes 12 Torsion [CA]-CB--CG-[OD1] |==|  0.94694
USER: genes 13 Torsion [N]-CA--C-[N] |==|  0.76219
USER: genes 14 Torsion [C]-N--CA-[C] |==|  0.23164
USER: genes 15 Torsion [N]-CA--CB-[CG] |==|  0.53301
USER: genes 16 Torsion [CA]-CB--CG-[CD1] |==|  0.28158
USER: genes 17 Torsion [N]-CA--C-[N] |==|  0.79444
USER: genes 18 Torsion [C]-N--CA-[CB] |==|  0.84530
USER: genes 19 Torsion [N]-CA--C-[OXT] |==|  0.64387
ROOT
ATOM      1  C   LEU B 341      30.212   5.186 -42.974  1.00 14.43 LIG 0.24  C 
ATOM      2 O    LEU B 341      30.665   5.525 -41.880  1.00 17.21 LIG-0.27  OA
ATOM      3  N   ASP B 342      29.010   4.651 -43.122  1.00 15.70 LIG-0.35  N 
ATOM      4 H    ASP B 342      28.636   4.499 -43.881  1.00 15.70 LIG 0.16  HD
ENDROOT
BRANCH 1 5
ATOM      5  CA  LEU B 341      31.012   5.344 -44.266  1.00 14.64 LIG 0.18  C 
BRANCH 5 6
ATOM      6  CB  LEU B 341      32.049   4.221 -44.346  1.00 15.72 LIG 0.04  C 
BRANCH 6 7
ATOM      7  CG  LEU B 341      31.574   3.004 -45.117  1.00 16.60 LIG-0.02  C 
ATOM      8  CD1 LEU B 341      32.774   2.225 -45.605  1.00 17.44 LIG 0.01  C 
ATOM      9  CD2 LEU B 341      30.630   2.137 -44.285  1.00 18.85 LIG 0.01  C 
ENDBRANCH 6 7
ENDBRANCH 5 6
BRANCH 5 10
ATOM     10  N   LEU B 341      31.735   6.611 -44.333  1.00 16.77 LIG-0.35  N 
ATOM     11  C   PRO B 340      32.031   7.164 -45.504  1.00 19.25 LIG 0.24  C 
ATOM     12 O    PRO B 340      31.652   6.726 -46.596  1.00 21.28 LIG-0.27  OA
ATOM     13 H    LEU B 341      31.942   6.950 -43.571  1.00 16.77 LIG 0.16  HD
BRANCH 11 14
ATOM     14  CA  PRO B 340      32.831   8.444 -45.413  1.00 21.04 LIG 0.18  C 
ATOM     15  N   PRO B 340      32.316   9.413 -44.416  1.00 20.95 LIG-0.34  N 
ATOM     16  CD  PRO B 340      33.357   9.824 -43.459  1.00 22.76 LIG 0.13  C 
ATOM     17  C   PHE B 339      31.099   9.932 -44.574  1.00 19.72 LIG 0.26  C 
ATOM     18  CG  PRO B 340      34.608   9.308 -44.139  1.00 24.91 LIG 0.02  C 
ATOM     19  CB  PRO B 340      34.207   8.101 -44.876  1.00 23.27 LIG 0.04  C 
ATOM     20 O    PHE B 339      30.350   9.539 -45.480  1.00 19.38 LIG-0.27  OA
BRANCH 17 21
ATOM     21  CA  PHE B 339      30.669  11.034 -43.607  1.00 21.94 LIG 0.40  C 
ATOM     22  N   PHE B 339      31.017  12.353 -44.113  1.00 23.90 LIG 0.61  N 
BRANCH 21 23
ATOM     23  CB  PHE B 339      29.167  10.963 -43.366  1.00 24.29 LIG 0.09  C 
BRANCH 23 24
ATOM     24  CG  PHE B 339      28.737   9.800 -42.520  1.00 28.97 LIG-0.06  A 
ATOM     25  CD1 PHE B 339      28.783   9.875 -41.129  1.00 31.92 LIG 0.01  A 
ATOM     26  CE1 PHE B 339      28.385   8.802 -40.342  1.00 33.96 LIG 0.00  A 
ATOM     27  CZ  PHE B 339      27.917   7.640 -40.949  1.00 35.90 LIG 0.00  A 
ATOM     28  CE2 PHE B 339      27.858   7.554 -42.342  1.00 35.56 LIG 0.00  A 
ATOM     29  CD2 PHE B 339      28.269   8.636 -43.116  1.00 33.37 LIG 0.01  A 
ENDBRANCH 23 24
ENDBRANCH 21 23
ENDBRANCH 17 21
ENDBRANCH 11 14
ENDBRANCH 5 10
ENDBRANCH 1 5
BRANCH 3 30
ATOM     30  CA  ASP B 342      28.214   4.268 -41.959  1.00 16.21 LIG 0.19  C 
BRANCH 30 31
ATOM     31  CB  ASP B 342      26.916   3.636 -42.419  1.00 18.68 LIG 0.15  C 
BRANCH 31 32
ATOM     32  CG  ASP B 342      25.704   4.223 -41.794  1.00 22.92 LIG 0.17  C 
ATOM     33 OD1  ASP B 342      25.790   4.888 -40.728  1.00 25.81 LIG-0.65  OA
ATOM     34 OD2  ASP B 342      24.643   3.996 -42.408  1.00 25.94 LIG-0.65  OA
ENDBRANCH 31 32
ENDBRANCH 30 31
BRANCH 30 35
ATOM     35  C   ASP B 342      28.926   3.205 -41.112  1.00 16.03 LIG 0.24  C 
ATOM     36  N   LEU B 343      28.739   1.937 -41.498  1.00 16.72 LIG-0.35  N 
ATOM     37 H    LEU B 343      28.105   1.693 -42.024  1.00 16.72 LIG 0.16  HD
ATOM     38 O    ASP B 342      29.695   3.535 -40.214  1.00 14.87 LIG-0.27  OA
BRANCH 36 39
ATOM     39  CA  LEU B 343      29.603   0.834 -41.059  1.00 16.14 LIG 0.18  C 
BRANCH 39 40
ATOM     40  CB  LEU B 343      31.064   1.261 -40.970  1.00 19.18 LIG 0.04  C 
BRANCH 40 41
ATOM     41  CG  LEU B 343      32.058   0.097 -40.798  1.00 20.67 LIG-0.02  C 
ATOM     42  CD1 LEU B 343      32.717  -0.204 -42.156  1.00 23.87 LIG 0.01  C 
ATOM     43  CD2 LEU B 343      33.109   0.439 -39.755  1.00 22.92 LIG 0.01  C 
ENDBRANCH 40 41
ENDBRANCH 39 40
BRANCH 39 44
ATOM     44  C   LEU B 343      29.150   0.330 -39.684  1.00 14.33 LIG 0.24  C 
ATOM     45 O    LEU B 343      28.538  -0.746 -39.559  1.00 16.10 LIG-0.27  OA
ATOM     46  N   ALA B 344      29.434   1.104 -38.661  1.00 14.89 LIG-0.34  N 
ATOM     47 H    ALA B 344      29.911   1.818 -38.709  1.00 14.89 LIG 0.16  HD
BRANCH 46 48
ATOM     48  CA  ALA B 344      28.929   0.782 -37.315  1.00 15.57 LIG 0.18  C 
ATOM     49  CB  ALA B 344      27.436   0.647 -37.330  1.00 18.12 LIG 0.04  C 
BRANCH 48 50
ATOM     50  C   ALA B 344      29.540  -0.532 -36.839  1.00 15.03 LIG 0.20  C 
ATOM     51 OXT  ALA B 344      28.825  -1.451 -36.415  1.00 16.10 LIG-0.65  OA
ATOM     52 O    ALA B 344      30.787  -0.656 -36.971  1.00 15.80 LIG-0.65  OA
ENDBRANCH 48 50
ENDBRANCH 46 48
ENDBRANCH 39 44
ENDBRANCH 36 39
ENDBRANCH 30 35
ENDBRANCH 3 30
TORSDOF 18
ENDMDL
MODEL 21
USER: ADFR SOLUTION from run 190
USER: SCORE 15.485125 LL:  -5.595 LR: -11.518 RR:   0.000 FEB:  -6.148
USER: RMSD 7.538097
USER: SEED 189
USER: STATUS no improvement in best in 4 clusters for 5 generations
USER: GENES 20
USER: genes 0 Translation |==|  0.35720 0.40993 0.80929
USER: genes 1 Rotation |==|  0.15504 0.73344 0.64636 0.73471
USER: genes 2 Torsion [N]-C--CA-[N] |==|  0.83434
USER: genes 3 Torsion [C]-CA--CB-[CG] |==|  0.16138
USER: genes 4 Torsion [CA]-CB--CG-[CD1] |==|  0.27208
USER: genes 5 Torsion [C]-CA--N-[C] |==|  0.18744
USER: genes 6 Torsion [N]-C--CA-[CB] |==|  0.61615
USER: genes 7 Torsion [N]-C--CA-[N] |==|  0.26559
USER: genes 8 Torsion [C]-CA--CB-[CG] |==|  0.70815
USER: genes 9 Torsion [CA]-CB--CG-[CD1] |==|  0.21857
USER: genes 10 Torsion [C]-N--CA-[CB] |==|  0.20865
USER: genes 11 Torsion [N]-CA--CB-[CG] |==|  0.22104
USER: genes 12 Torsion [CA]-CB--CG-[OD1] |==|  0.86848
USER: genes 13 Torsion [N]-CA--C-[N] |==|  0.45431
USER: genes 14 Torsion [C]-N--CA-[C] |==|  0.17122
USER: genes 15 Torsion [N]-CA--CB-[CG] |==|  0.76503
USER: genes 16 Torsion [CA]-CB--CG-[CD1] |==|  0.56279
USER: genes 17 Torsion [N]-CA--C-[N] |==|  0.10289
USER: genes 18 Torsion [C]-N--CA-[CB] |==|  0.22619
USER: genes 19 Torsion [N]-CA--C-[OXT] |==|  0.58840
ROOT
ATOM      1  C   LEU B 341      26.005   2.266 -37.970  1.00 14.43 LIG 0.24  C 
ATOM      2 O    LEU B 341      26.300   2.941 -36.984  1.00 17.21 LIG-0.27  OA
ATOM      3  N   ASP B 342      26.911   1.679 -38.738  1.00 15.70 LIG-0.35  N 
ATOM      4 H    ASP B 342      26.726   1.124 -39.369  1.00 15.70 LIG 0.16  HD
ENDROOT
BRANCH 1 5
ATOM      5  CA  LEU B 341      24.556   2.056 -38.405  1.00 14.64 LIG 0.18  C 
BRANCH 5 6
ATOM      6  CB  LEU B 341      24.253   0.557 -38.407  1.00 15.72 LIG 0.04  C 
BRANCH 6 7
ATOM      7  CG  LEU B 341      24.470  -0.113 -37.062  1.00 16.60 LIG-0.02  C 
ATOM      8  CD1 LEU B 341      23.144  -0.235 -36.347  1.00 17.44 LIG 0.01  C 
ATOM      9  CD2 LEU B 341      25.167  -1.466 -37.208  1.00 18.85 LIG 0.01  C 
ENDBRANCH 6 7
ENDBRANCH 5 6
BRANCH 5 10
ATOM     10  N   LEU B 341      24.291   2.556 -39.751  1.00 16.77 LIG-0.35  N 
ATOM     11  C   PRO B 340      24.841   1.976 -40.813  1.00 19.25 LIG 0.24  C 
ATOM     12 O    PRO B 340      25.519   0.945 -40.768  1.00 21.28 LIG-0.27  OA
ATOM     13 H    LEU B 341      23.766   3.236 -39.787  1.00 16.77 LIG 0.16  HD
BRANCH 11 14
ATOM     14  CA  PRO B 340      24.519   2.642 -42.132  1.00 21.04 LIG 0.18  C 
ATOM     15  N   PRO B 340      25.655   3.379 -42.734  1.00 20.95 LIG-0.34  N 
ATOM     16  CD  PRO B 340      25.923   2.944 -44.116  1.00 22.76 LIG 0.13  C 
ATOM     17  C   PHE B 339      26.175   4.422 -42.090  1.00 19.72 LIG 0.26  C 
ATOM     18  CG  PRO B 340      24.674   2.145 -44.424  1.00 24.91 LIG 0.02  C 
ATOM     19  CB  PRO B 340      24.238   1.554 -43.150  1.00 23.27 LIG 0.04  C 
ATOM     20 O    PHE B 339      25.797   4.721 -40.948  1.00 19.38 LIG-0.27  OA
BRANCH 17 21
ATOM     21  CA  PHE B 339      27.244   5.239 -42.814  1.00 21.94 LIG 0.40  C 
ATOM     22  N   PHE B 339      26.670   6.400 -43.476  1.00 23.90 LIG 0.61  N 
BRANCH 21 23
ATOM     23  CB  PHE B 339      28.313   5.695 -41.829  1.00 24.29 LIG 0.09  C 
BRANCH 23 24
ATOM     24  CG  PHE B 339      28.228   7.148 -41.464  1.00 28.97 LIG-0.06  A 
ATOM     25  CD1 PHE B 339      27.290   7.596 -40.536  1.00 31.92 LIG 0.01  A 
ATOM     26  CE1 PHE B 339      27.209   8.940 -40.195  1.00 33.96 LIG 0.00  A 
ATOM     27  CZ  PHE B 339      28.089   9.851 -40.773  1.00 35.90 LIG 0.00  A 
ATOM     28  CE2 PHE B 339      29.039   9.414 -41.697  1.00 35.56 LIG 0.00  A 
ATOM     29  CD2 PHE B 339      29.102   8.065 -42.035  1.00 33.37 LIG 0.01  A 
ENDBRANCH 23 24
ENDBRANCH 21 23
ENDBRANCH 17 21
ENDBRANCH 11 14
ENDBRANCH 5 10
ENDBRANCH 1 5
BRANCH 3 30
ATOM     30  CA  ASP B 342      28.334   1.946 -38.554  1.00 16.21 LIG 0.19  C 
BRANCH 30 31
ATOM     31  CB  ASP B 342      28.831   1.222 -37.318  1.00 18.68 LIG 0.15  C 
BRANCH 31 32
ATOM     32  CG  ASP B 342      29.100  -0.223 -37.533  1.00 22.92 LIG 0.17  C 
ATOM     33 OD1  ASP B 342      28.260  -0.951 -38.126  1.00 25.81 LIG-0.65  OA
ATOM     34 OD2  ASP B 342      30.194  -0.617 -37.085  1.00 25.94 LIG-0.65  OA
ENDBRANCH 31 32
ENDBRANCH 30 31
BRANCH 30 35
ATOM     35  C   ASP B 342      29.166   1.406 -39.724  1.00 16.03 LIG 0.24  C 
ATOM     36  N   LEU B 343      30.410   1.891 -39.822  1.00 16.72 LIG-0.35  N 
ATOM     37 H    LEU B 343      30.671   2.605 -39.421  1.00 16.72 LIG 0.16  HD
ATOM     38 O    ASP B 342      28.728   0.511 -40.441  1.00 14.87 LIG-0.27  OA
BRANCH 36 39
ATOM     39  CA  LEU B 343      31.456   1.246 -40.626  1.00 16.14 LIG 0.18  C 
BRANCH 39 40
ATOM     40  CB  LEU B 343      31.727  -0.181 -40.163  1.00 19.18 LIG 0.04  C 
BRANCH 40 41
ATOM     41  CG  LEU B 343      32.721  -0.292 -38.990  1.00 20.67 LIG-0.02  C 
ATOM     42  CD1 LEU B 343      33.337  -1.703 -38.988  1.00 23.87 LIG 0.01  C 
ATOM     43  CD2 LEU B 343      33.805   0.768 -39.103  1.00 22.92 LIG 0.01  C 
ENDBRANCH 40 41
ENDBRANCH 39 40
BRANCH 39 44
ATOM     44  C   LEU B 343      31.038   1.217 -42.101  1.00 14.33 LIG 0.24  C 
ATOM     45 O    LEU B 343      31.318   0.251 -42.834  1.00 16.10 LIG-0.27  OA
ATOM     46  N   ALA B 344      30.386   2.270 -42.538  1.00 14.89 LIG-0.34  N 
ATOM     47 H    ALA B 344      30.122   2.920 -42.041  1.00 14.89 LIG 0.16  HD
BRANCH 46 48
ATOM     48  CA  ALA B 344      30.055   2.405 -43.968  1.00 15.57 LIG 0.18  C 
ATOM     49  CB  ALA B 344      28.825   1.615 -44.301  1.00 18.12 LIG 0.04  C 
BRANCH 48 50
ATOM     50  C   ALA B 344      29.807   3.872 -44.300  1.00 15.03 LIG 0.20  C 
ATOM     51 OXT  ALA B 344      28.996   4.198 -45.180  1.00 16.10 LIG-0.65  OA
ATOM     52 O    ALA B 344      30.406   4.723 -43.589  1.00 15.80 LIG-0.65  OA
ENDBRANCH 48 50
ENDBRANCH 46 48
ENDBRANCH 39 44
ENDBRANCH 36 39
ENDBRANCH 30 35
ENDBRANCH 3 30
TORSDOF 18
ENDMDL
MODEL 22
USER: ADFR SOLUTION from run 3
USER: SCORE 13.551995 LL:  -4.149 LR: -11.499 RR:   0.000 FEB:  -6.129
USER: RMSD 9.237513
USER: SEED 359060
USER: STATUS no improvement in best in 13 clusters for 5 generations
USER: GENES 20
USER: genes 0 Translation |==|  0.52933 0.54671 0.61254
USER: genes 1 Rotation |==|  0.58463 0.94849 0.39357 0.67425
USER: genes 2 Torsion [N]-C--CA-[N] |==|  0.78889
USER: genes 3 Torsion [C]-CA--CB-[CG] |==|  0.34041
USER: genes 4 Torsion [CA]-CB--CG-[CD1] |==|  0.30545
USER: genes 5 Torsion [C]-CA--N-[C] |==|  0.86399
USER: genes 6 Torsion [N]-C--CA-[CB] |==|  0.54823
USER: genes 7 Torsion [N]-C--CA-[N] |==|  0.32251
USER: genes 8 Torsion [C]-CA--CB-[CG] |==|  0.75953
USER: genes 9 Torsion [CA]-CB--CG-[CD1] |==|  0.25815
USER: genes 10 Torsion [C]-N--CA-[CB] |==|  0.18393
USER: genes 11 Torsion [N]-CA--CB-[CG] |==|  0.23223
USER: genes 12 Torsion [CA]-CB--CG-[OD1] |==|  0.77755
USER: genes 13 Torsion [N]-CA--C-[N] |==|  0.91301
USER: genes 14 Torsion [C]-N--CA-[C] |==|  0.66707
USER: genes 15 Torsion [N]-CA--CB-[CG] |==|  0.47759
USER: genes 16 Torsion [CA]-CB--CG-[CD1] |==|  0.17159
USER: genes 17 Torsion [N]-CA--C-[N] |==|  0.86255
USER: genes 18 Torsion [C]-N--CA-[CB] |==|  0.18811
USER: genes 19 Torsion [N]-CA--C-[OXT] |==|  0.55374
ROOT
ATOM      1  C   LEU B 341      29.362   5.241 -42.249  1.00 14.43 LIG 0.24  C 
ATOM      2 O    LEU B 341      29.847   4.351 -41.552  1.00 17.21 LIG-0.27  OA
ATOM      3  N   ASP B 342      28.178   5.134 -42.833  1.00 15.70 LIG-0.35  N 
ATOM      4 H    ASP B 342      27.777   5.777 -43.240  1.00 15.70 LIG 0.16  HD
ENDROOT
BRANCH 1 5
ATOM      5  CA  LEU B 341      30.096   6.554 -42.514  1.00 14.64 LIG 0.18  C 
BRANCH 5 6
ATOM      6  CB  LEU B 341      29.098   7.709 -42.404  1.00 15.72 LIG 0.04  C 
BRANCH 6 7
ATOM      7  CG  LEU B 341      29.482   8.754 -41.373  1.00 16.60 LIG-0.02  C 
ATOM      8  CD1 LEU B 341      29.885  10.027 -42.081  1.00 17.44 LIG 0.01  C 
ATOM      9  CD2 LEU B 341      28.361   8.993 -40.362  1.00 18.85 LIG 0.01  C 
ENDBRANCH 6 7
ENDBRANCH 5 6
BRANCH 5 10
ATOM     10  N   LEU B 341      30.686   6.614 -43.848  1.00 16.77 LIG-0.35  N 
ATOM     11  C   PRO B 340      31.425   5.611 -44.310  1.00 19.25 LIG 0.24  C 
ATOM     12 O    PRO B 340      31.593   4.540 -43.718  1.00 21.28 LIG-0.27  OA
ATOM     13 H    LEU B 341      30.515   7.333 -44.287  1.00 16.77 LIG 0.16  HD
BRANCH 11 14
ATOM     14  CA  PRO B 340      32.014   5.844 -45.684  1.00 21.04 LIG 0.18  C 
ATOM     15  N   PRO B 340      33.275   6.624 -45.680  1.00 20.95 LIG-0.34  N 
ATOM     16  CD  PRO B 340      34.359   5.920 -46.387  1.00 22.76 LIG 0.13  C 
ATOM     17  C   PHE B 339      33.268   7.878 -45.235  1.00 19.72 LIG 0.26  C 
ATOM     18  CG  PRO B 340      33.590   4.831 -47.104  1.00 24.91 LIG 0.02  C 
ATOM     19  CB  PRO B 340      32.444   4.502 -46.244  1.00 23.27 LIG 0.04  C 
ATOM     20 O    PHE B 339      32.251   8.370 -44.725  1.00 19.38 LIG-0.27  OA
BRANCH 17 21
ATOM     21  CA  PHE B 339      34.554   8.690 -45.387  1.00 21.94 LIG 0.40  C 
ATOM     22  N   PHE B 339      34.366   9.826 -46.275  1.00 23.90 LIG 0.61  N 
BRANCH 21 23
ATOM     23  CB  PHE B 339      35.027   9.184 -44.026  1.00 24.29 LIG 0.09  C 
BRANCH 23 24
ATOM     24  CG  PHE B 339      34.414  10.487 -43.602  1.00 28.97 LIG-0.06  A 
ATOM     25  CD1 PHE B 339      33.259  10.510 -42.822  1.00 31.92 LIG 0.01  A 
ATOM     26  CE1 PHE B 339      32.689  11.714 -42.426  1.00 33.96 LIG 0.00  A 
ATOM     27  CZ  PHE B 339      33.289  12.914 -42.798  1.00 35.90 LIG 0.00  A 
ATOM     28  CE2 PHE B 339      34.451  12.904 -43.571  1.00 35.56 LIG 0.00  A 
ATOM     29  CD2 PHE B 339      35.005  11.689 -43.967  1.00 33.37 LIG 0.01  A 
ENDBRANCH 23 24
ENDBRANCH 21 23
ENDBRANCH 17 21
ENDBRANCH 11 14
ENDBRANCH 5 10
ENDBRANCH 1 5
BRANCH 3 30
ATOM     30  CA  ASP B 342      27.451   3.868 -42.823  1.00 16.21 LIG 0.19  C 
BRANCH 30 31
ATOM     31  CB  ASP B 342      27.044   3.528 -41.403  1.00 18.68 LIG 0.15  C 
BRANCH 31 32
ATOM     32  CG  ASP B 342      25.787   4.184 -40.962  1.00 22.92 LIG 0.17  C 
ATOM     33 OD1  ASP B 342      25.790   5.384 -40.578  1.00 25.81 LIG-0.65  OA
ATOM     34 OD2  ASP B 342      24.778   3.455 -41.012  1.00 25.94 LIG-0.65  OA
ENDBRANCH 31 32
ENDBRANCH 30 31
BRANCH 30 35
ATOM     35  C   ASP B 342      26.148   3.959 -43.627  1.00 16.03 LIG 0.24  C 
ATOM     36  N   LEU B 343      25.555   5.160 -43.635  1.00 16.72 LIG-0.35  N 
ATOM     37 H    LEU B 343      25.738   5.780 -43.068  1.00 16.72 LIG 0.16  HD
ATOM     38 O    ASP B 342      25.758   3.007 -44.296  1.00 14.87 LIG-0.27  OA
BRANCH 36 39
ATOM     39  CA  LEU B 343      24.530   5.537 -44.616  1.00 16.14 LIG 0.18  C 
BRANCH 39 40
ATOM     40  CB  LEU B 343      23.203   5.873 -43.947  1.00 19.18 LIG 0.04  C 
BRANCH 40 41
ATOM     41  CG  LEU B 343      22.143   6.464 -44.896  1.00 20.67 LIG-0.02  C 
ATOM     42  CD1 LEU B 343      21.813   5.427 -45.986  1.00 23.87 LIG 0.01  C 
ATOM     43  CD2 LEU B 343      20.890   6.851 -44.128  1.00 22.92 LIG 0.01  C 
ENDBRANCH 40 41
ENDBRANCH 39 40
BRANCH 39 44
ATOM     44  C   LEU B 343      25.001   6.753 -45.423  1.00 14.33 LIG 0.24  C 
ATOM     45 O    LEU B 343      24.960   6.759 -46.667  1.00 16.10 LIG-0.27  OA
ATOM     46  N   ALA B 344      25.456   7.769 -44.726  1.00 14.89 LIG-0.34  N 
ATOM     47 H    ALA B 344      25.435   7.819 -43.867  1.00 14.89 LIG 0.16  HD
BRANCH 46 48
ATOM     48  CA  ALA B 344      26.056   8.932 -45.402  1.00 15.57 LIG 0.18  C 
ATOM     49  CB  ALA B 344      25.017   9.684 -46.178  1.00 18.12 LIG 0.04  C 
BRANCH 48 50
ATOM     50  C   ALA B 344      26.673   9.865 -44.367  1.00 15.03 LIG 0.20  C 
ATOM     51 OXT  ALA B 344      26.915  11.051 -44.640  1.00 16.10 LIG-0.65  OA
ATOM     52 O    ALA B 344      26.851   9.392 -43.213  1.00 15.80 LIG-0.65  OA
ENDBRANCH 48 50
ENDBRANCH 46 48
ENDBRANCH 39 44
ENDBRANCH 36 39
ENDBRANCH 30 35
ENDBRANCH 3 30
TORSDOF 18
ENDMDL
MODEL 23
USER: ADFR SOLUTION from run 127
USER: SCORE 14.144622 LL:  -4.957 LR: -11.477 RR:   0.000 FEB:  -6.108
USER: RMSD 7.433959
USER: SEED 126
USER: STATUS no improvement in best in 5 clusters for 5 generations
USER: GENES 20
USER: genes 0 Translation |==|  0.46194 0.36535 0.81049
USER: genes 1 Rotation |==|  0.16619 0.84908 0.50727 0.62906
USER: genes 2 Torsion [N]-C--CA-[N] |==|  0.77001
USER: genes 3 Torsion [C]-CA--CB-[CG] |==|  0.29528
USER: genes 4 Torsion [CA]-CB--CG-[CD1] |==|  0.04427
USER: genes 5 Torsion [C]-CA--N-[C] |==|  0.58728
USER: genes 6 Torsion [N]-C--CA-[CB] |==|  0.10822
USER: genes 7 Torsion [N]-C--CA-[N] |==|  0.34497
USER: genes 8 Torsion [C]-CA--CB-[CG] |==|  0.74313
USER: genes 9 Torsion [CA]-CB--CG-[CD1] |==|  0.71206
USER: genes 10 Torsion [C]-N--CA-[CB] |==|  0.41236
USER: genes 11 Torsion [N]-CA--CB-[CG] |==|  0.76893
USER: genes 12 Torsion [CA]-CB--CG-[OD1] |==|  0.28638
USER: genes 13 Torsion [N]-CA--C-[N] |==|  0.97222
USER: genes 14 Torsion [C]-N--CA-[C] |==|  0.17219
USER: genes 15 Torsion [N]-CA--CB-[CG] |==|  0.76007
USER: genes 16 Torsion [CA]-CB--CG-[CD1] |==|  0.25805
USER: genes 17 Torsion [N]-CA--C-[N] |==|  0.10194
USER: genes 18 Torsion [C]-N--CA-[CB] |==|  0.31284
USER: genes 19 Torsion [N]-CA--C-[OXT] |==|  0.44521
ROOT
ATOM      1  C   LEU B 341      28.048   1.296 -37.944  1.00 14.43 LIG 0.24  C 
ATOM      2 O    LEU B 341      28.788   2.201 -37.559  1.00 17.21 LIG-0.27  OA
ATOM      3  N   ASP B 342      28.449   0.041 -38.070  1.00 15.70 LIG-0.35  N 
ATOM      4 H    ASP B 342      27.927  -0.621 -38.240  1.00 15.70 LIG 0.16  HD
ENDROOT
BRANCH 1 5
ATOM      5  CA  LEU B 341      26.590   1.549 -38.326  1.00 14.64 LIG 0.18  C 
BRANCH 5 6
ATOM      6  CB  LEU B 341      25.751   0.343 -37.900  1.00 15.72 LIG 0.04  C 
BRANCH 6 7
ATOM      7  CG  LEU B 341      24.883   0.599 -36.682  1.00 16.60 LIG-0.02  C 
ATOM      8  CD1 LEU B 341      24.783   2.089 -36.447  1.00 17.44 LIG 0.01  C 
ATOM      9  CD2 LEU B 341      23.507  -0.052 -36.819  1.00 18.85 LIG 0.01  C 
ENDBRANCH 6 7
ENDBRANCH 5 6
BRANCH 5 10
ATOM     10  N   LEU B 341      26.404   1.725 -39.763  1.00 16.77 LIG-0.35  N 
ATOM     11  C   PRO B 340      25.447   2.518 -40.233  1.00 19.25 LIG 0.24  C 
ATOM     12 O    PRO B 340      24.721   3.226 -39.526  1.00 21.28 LIG-0.27  OA
ATOM     13 H    LEU B 341      26.952   1.283 -40.255  1.00 16.77 LIG 0.16  HD
BRANCH 11 14
ATOM     14  CA  PRO B 340      25.341   2.554 -41.741  1.00 21.04 LIG 0.18  C 
ATOM     15  N   PRO B 340      26.408   3.339 -42.407  1.00 20.95 LIG-0.34  N 
ATOM     16  CD  PRO B 340      27.111   2.552 -43.433  1.00 22.76 LIG 0.13  C 
ATOM     17  C   PHE B 339      26.506   4.645 -42.168  1.00 19.72 LIG 0.26  C 
ATOM     18  CG  PRO B 340      26.188   1.361 -43.581  1.00 24.91 LIG 0.02  C 
ATOM     19  CB  PRO B 340      25.575   1.149 -42.261  1.00 23.27 LIG 0.04  C 
ATOM     20 O    PHE B 339      25.790   5.195 -41.319  1.00 19.38 LIG-0.27  OA
BRANCH 17 21
ATOM     21  CA  PHE B 339      27.524   5.439 -42.986  1.00 21.94 LIG 0.40  C 
ATOM     22  N   PHE B 339      26.896   6.552 -43.682  1.00 23.90 LIG 0.61  N 
BRANCH 21 23
ATOM     23  CB  PHE B 339      28.629   5.966 -42.081  1.00 24.29 LIG 0.09  C 
BRANCH 23 24
ATOM     24  CG  PHE B 339      28.378   7.348 -41.550  1.00 28.97 LIG-0.06  A 
ATOM     25  CD1 PHE B 339      29.046   8.448 -42.083  1.00 31.92 LIG 0.01  A 
ATOM     26  CE1 PHE B 339      28.816   9.728 -41.595  1.00 33.96 LIG 0.00  A 
ATOM     27  CZ  PHE B 339      27.892   9.918 -40.572  1.00 35.90 LIG 0.00  A 
ATOM     28  CE2 PHE B 339      27.209   8.826 -40.035  1.00 35.56 LIG 0.00  A 
ATOM     29  CD2 PHE B 339      27.457   7.548 -40.529  1.00 33.37 LIG 0.01  A 
ENDBRANCH 23 24
ENDBRANCH 21 23
ENDBRANCH 17 21
ENDBRANCH 11 14
ENDBRANCH 5 10
ENDBRANCH 1 5
BRANCH 3 30
ATOM     30  CA  ASP B 342      29.858  -0.312 -37.923  1.00 16.21 LIG 0.19  C 
BRANCH 30 31
ATOM     31  CB  ASP B 342      29.974  -1.710 -37.347  1.00 18.68 LIG 0.15  C 
BRANCH 31 32
ATOM     32  CG  ASP B 342      29.857  -1.764 -35.868  1.00 22.92 LIG 0.17  C 
ATOM     33 OD1  ASP B 342      28.791  -2.154 -35.322  1.00 25.81 LIG-0.65  OA
ATOM     34 OD2  ASP B 342      30.880  -1.400 -35.255  1.00 25.94 LIG-0.65  OA
ENDBRANCH 31 32
ENDBRANCH 30 31
BRANCH 30 35
ATOM     35  C   ASP B 342      30.575  -0.352 -39.279  1.00 16.03 LIG 0.24  C 
ATOM     36  N   LEU B 343      29.782  -0.273 -40.355  1.00 16.72 LIG-0.35  N 
ATOM     37 H    LEU B 343      28.935  -0.416 -40.328  1.00 16.72 LIG 0.16  HD
ATOM     38 O    ASP B 342      31.801  -0.347 -39.338  1.00 14.87 LIG-0.27  OA
BRANCH 36 39
ATOM     39  CA  LEU B 343      30.284   0.068 -41.692  1.00 16.14 LIG 0.18  C 
BRANCH 39 40
ATOM     40  CB  LEU B 343      30.960   1.434 -41.712  1.00 19.18 LIG 0.04  C 
BRANCH 40 41
ATOM     41  CG  LEU B 343      30.000   2.617 -41.941  1.00 20.67 LIG-0.02  C 
ATOM     42  CD1 LEU B 343      29.547   3.166 -40.575  1.00 23.87 LIG 0.01  C 
ATOM     43  CD2 LEU B 343      30.674   3.704 -42.760  1.00 22.92 LIG 0.01  C 
ENDBRANCH 40 41
ENDBRANCH 39 40
BRANCH 39 44
ATOM     44  C   LEU B 343      31.292  -0.990 -42.158  1.00 14.33 LIG 0.24  C 
ATOM     45 O    LEU B 343      32.290  -0.680 -42.833  1.00 16.10 LIG-0.27  OA
ATOM     46  N   ALA B 344      31.029  -2.230 -41.813  1.00 14.89 LIG-0.34  N 
ATOM     47 H    ALA B 344      30.385  -2.465 -41.293  1.00 14.89 LIG 0.16  HD
BRANCH 46 48
ATOM     48  CA  ALA B 344      31.856  -3.339 -42.319  1.00 15.57 LIG 0.18  C 
ATOM     49  CB  ALA B 344      32.633  -3.970 -41.202  1.00 18.12 LIG 0.04  C 
BRANCH 48 50
ATOM     50  C   ALA B 344      30.963  -4.395 -42.960  1.00 15.03 LIG 0.20  C 
ATOM     51 OXT  ALA B 344      31.426  -5.222 -43.759  1.00 16.10 LIG-0.65  OA
ATOM     52 O    ALA B 344      29.762  -4.427 -42.579  1.00 15.80 LIG-0.65  OA
ENDBRANCH 48 50
ENDBRANCH 46 48
ENDBRANCH 39 44
ENDBRANCH 36 39
ENDBRANCH 30 35
ENDBRANCH 3 30
TORSDOF 18
ENDMDL
MODEL 24
USER: ADFR SOLUTION from run 184
USER: SCORE 15.487328 LL:  -5.101 LR: -11.439 RR:   0.000 FEB:  -6.070
USER: RMSD 5.559519
USER: SEED 183
USER: STATUS no improvement in best in 5 clusters for 5 generations
USER: GENES 20
USER: genes 0 Translation |==|  0.51728 0.56178 0.61010
USER: genes 1 Rotation |==|  0.32322 0.92853 0.52692 0.68543
USER: genes 2 Torsion [N]-C--CA-[N] |==|  0.99188
USER: genes 3 Torsion [C]-CA--CB-[CG] |==|  0.41732
USER: genes 4 Torsion [CA]-CB--CG-[CD1] |==|  0.50898
USER: genes 5 Torsion [C]-CA--N-[C] |==|  0.76569
USER: genes 6 Torsion [N]-C--CA-[CB] |==|  0.21253
USER: genes 7 Torsion [N]-C--CA-[N] |==|  0.27299
USER: genes 8 Torsion [C]-CA--CB-[CG] |==|  0.24819
USER: genes 9 Torsion [CA]-CB--CG-[CD1] |==|  0.90720
USER: genes 10 Torsion [C]-N--CA-[CB] |==|  0.86666
USER: genes 11 Torsion [N]-CA--CB-[CG] |==|  0.67477
USER: genes 12 Torsion [CA]-CB--CG-[OD1] |==|  0.60536
USER: genes 13 Torsion [N]-CA--C-[N] |==|  0.36773
USER: genes 14 Torsion [C]-N--CA-[C] |==|  0.21180
USER: genes 15 Torsion [N]-CA--CB-[CG] |==|  0.54370
USER: genes 16 Torsion [CA]-CB--CG-[CD1] |==|  0.18391
USER: genes 17 Torsion [N]-CA--C-[N] |==|  0.41292
USER: genes 18 Torsion [C]-N--CA-[CB] |==|  0.24848
USER: genes 19 Torsion [N]-CA--C-[OXT] |==|  0.63827
ROOT
ATOM      1  C   LEU B 341      29.127   5.569 -42.302  1.00 14.43 LIG 0.24  C 
ATOM      2 O    LEU B 341      30.201   5.665 -41.709  1.00 17.21 LIG-0.27  OA
ATOM      3  N   ASP B 342      28.726   4.452 -42.891  1.00 15.70 LIG-0.35  N 
ATOM      4 H    ASP B 342      27.942   4.333 -43.223  1.00 15.70 LIG 0.16  HD
ENDROOT
BRANCH 1 5
ATOM      5  CA  LEU B 341      28.160   6.745 -42.423  1.00 14.64 LIG 0.18  C 
BRANCH 5 6
ATOM      6  CB  LEU B 341      27.662   7.121 -41.026  1.00 15.72 LIG 0.04  C 
BRANCH 6 7
ATOM      7  CG  LEU B 341      27.316   8.591 -40.874  1.00 16.60 LIG-0.02  C 
ATOM      8  CD1 LEU B 341      26.915   8.862 -39.442  1.00 17.44 LIG 0.01  C 
ATOM      9  CD2 LEU B 341      28.464   9.493 -41.327  1.00 18.85 LIG 0.01  C 
ENDBRANCH 6 7
ENDBRANCH 5 6
BRANCH 5 10
ATOM     10  N   LEU B 341      26.987   6.432 -43.235  1.00 16.77 LIG-0.35  N 
ATOM     11  C   PRO B 340      27.028   6.538 -44.559  1.00 19.25 LIG 0.24  C 
ATOM     12 O    PRO B 340      28.048   6.805 -45.204  1.00 21.28 LIG-0.27  OA
ATOM     13 H    LEU B 341      26.295   6.183 -42.789  1.00 16.77 LIG 0.16  HD
BRANCH 11 14
ATOM     14  CA  PRO B 340      25.721   6.236 -45.256  1.00 21.04 LIG 0.18  C 
ATOM     15  N   PRO B 340      24.946   5.130 -44.644  1.00 20.95 LIG-0.34  N 
ATOM     16  CD  PRO B 340      23.570   5.538 -44.315  1.00 22.76 LIG 0.13  C 
ATOM     17  C   PHE B 339      25.464   3.903 -44.619  1.00 19.72 LIG 0.26  C 
ATOM     18  CG  PRO B 340      23.458   6.846 -45.069  1.00 24.91 LIG 0.02  C 
ATOM     19  CB  PRO B 340      24.806   7.432 -45.079  1.00 23.27 LIG 0.04  C 
ATOM     20 O    PHE B 339      26.624   3.691 -45.001  1.00 19.38 LIG-0.27  OA
BRANCH 17 21
ATOM     21  CA  PHE B 339      24.573   2.770 -44.113  1.00 21.94 LIG 0.40  C 
ATOM     22  N   PHE B 339      23.967   2.036 -45.213  1.00 23.90 LIG 0.61  N 
BRANCH 21 23
ATOM     23  CB  PHE B 339      25.382   1.811 -43.249  1.00 24.29 LIG 0.09  C 
BRANCH 23 24
ATOM     24  CG  PHE B 339      25.411   2.175 -41.793  1.00 28.97 LIG-0.06  A 
ATOM     25  CD1 PHE B 339      25.390   3.509 -41.392  1.00 31.92 LIG 0.01  A 
ATOM     26  CE1 PHE B 339      25.415   3.850 -40.045  1.00 33.96 LIG 0.00  A 
ATOM     27  CZ  PHE B 339      25.443   2.846 -39.082  1.00 35.90 LIG 0.00  A 
ATOM     28  CE2 PHE B 339      25.454   1.505 -39.470  1.00 35.56 LIG 0.00  A 
ATOM     29  CD2 PHE B 339      25.438   1.180 -40.824  1.00 33.37 LIG 0.01  A 
ENDBRANCH 23 24
ENDBRANCH 21 23
ENDBRANCH 17 21
ENDBRANCH 11 14
ENDBRANCH 5 10
ENDBRANCH 1 5
BRANCH 3 30
ATOM     30  CA  ASP B 342      29.626   3.310 -43.018  1.00 16.21 LIG 0.19  C 
BRANCH 30 31
ATOM     31  CB  ASP B 342      30.966   3.776 -43.552  1.00 18.68 LIG 0.15  C 
BRANCH 31 32
ATOM     32  CG  ASP B 342      31.322   3.201 -44.874  1.00 22.92 LIG 0.17  C 
ATOM     33 OD1  ASP B 342      32.510   2.875 -45.134  1.00 25.81 LIG-0.65  OA
ATOM     34 OD2  ASP B 342      30.362   3.082 -45.661  1.00 25.94 LIG-0.65  OA
ENDBRANCH 31 32
ENDBRANCH 30 31
BRANCH 30 35
ATOM     35  C   ASP B 342      29.914   2.664 -41.656  1.00 16.03 LIG 0.24  C 
ATOM     36  N   LEU B 343      29.801   1.331 -41.612  1.00 16.72 LIG-0.35  N 
ATOM     37 H    LEU B 343      29.386   0.873 -42.210  1.00 16.72 LIG 0.16  HD
ATOM     38 O    ASP B 342      30.324   3.341 -40.718  1.00 14.87 LIG-0.27  OA
BRANCH 36 39
ATOM     39  CA  LEU B 343      30.376   0.517 -40.534  1.00 16.14 LIG 0.18  C 
BRANCH 39 40
ATOM     40  CB  LEU B 343      31.800   0.945 -40.199  1.00 19.18 LIG 0.04  C 
BRANCH 40 41
ATOM     41  CG  LEU B 343      32.594  -0.080 -39.367  1.00 20.67 LIG-0.02  C 
ATOM     42  CD1 LEU B 343      32.823  -1.344 -40.216  1.00 23.87 LIG 0.01  C 
ATOM     43  CD2 LEU B 343      33.920   0.509 -38.914  1.00 22.92 LIG 0.01  C 
ENDBRANCH 40 41
ENDBRANCH 39 40
BRANCH 39 44
ATOM     44  C   LEU B 343      29.513   0.636 -39.271  1.00 14.33 LIG 0.24  C 
ATOM     45 O    LEU B 343      28.897   1.683 -39.005  1.00 16.10 LIG-0.27  OA
ATOM     46  N   ALA B 344      29.479  -0.422 -38.493  1.00 14.89 LIG-0.34  N 
ATOM     47 H    ALA B 344      29.839  -1.179 -38.684  1.00 14.89 LIG 0.16  HD
BRANCH 46 48
ATOM     48  CA  ALA B 344      28.790  -0.371 -37.191  1.00 15.57 LIG 0.18  C 
ATOM     49  CB  ALA B 344      27.348  -0.752 -37.342  1.00 18.12 LIG 0.04  C 
BRANCH 48 50
ATOM     50  C   ALA B 344      29.460  -1.335 -36.219  1.00 15.03 LIG 0.20  C 
ATOM     51 OXT  ALA B 344      28.790  -2.150 -35.566  1.00 16.10 LIG-0.65  OA
ATOM     52 O    ALA B 344      30.719  -1.311 -36.174  1.00 15.80 LIG-0.65  OA
ENDBRANCH 48 50
ENDBRANCH 46 48
ENDBRANCH 39 44
ENDBRANCH 36 39
ENDBRANCH 30 35
ENDBRANCH 3 30
TORSDOF 18
ENDMDL
MODEL 25
USER: ADFR SOLUTION from run 125
USER: SCORE 16.076789 LL:  -5.937 LR: -11.415 RR:   0.000 FEB:  -6.046
USER: RMSD 8.741907
USER: SEED 124
USER: STATUS no improvement in best in 5 clusters for 5 generations
USER: GENES 20
USER: genes 0 Translation |==|  0.52564 0.56412 0.63468
USER: genes 1 Rotation |==|  0.57250 0.96366 0.46477 0.66887
USER: genes 2 Torsion [N]-C--CA-[N] |==|  0.90813
USER: genes 3 Torsion [C]-CA--CB-[CG] |==|  0.71678
USER: genes 4 Torsion [CA]-CB--CG-[CD1] |==|  0.36233
USER: genes 5 Torsion [C]-CA--N-[C] |==|  0.79790
USER: genes 6 Torsion [N]-C--CA-[CB] |==|  0.57340
USER: genes 7 Torsion [N]-C--CA-[N] |==|  0.32257
USER: genes 8 Torsion [C]-CA--CB-[CG] |==|  0.20766
USER: genes 9 Torsion [CA]-CB--CG-[CD1] |==|  0.81867
USER: genes 10 Torsion [C]-N--CA-[CB] |==|  0.21354
USER: genes 11 Torsion [N]-CA--CB-[CG] |==|  0.20729
USER: genes 12 Torsion [CA]-CB--CG-[OD1] |==|  0.30656
USER: genes 13 Torsion [N]-CA--C-[N] |==|  0.93333
USER: genes 14 Torsion [C]-N--CA-[C] |==|  0.68600
USER: genes 15 Torsion [N]-CA--CB-[CG] |==|  0.55984
USER: genes 16 Torsion [CA]-CB--CG-[CD1] |==|  0.17718
USER: genes 17 Torsion [N]-CA--C-[N] |==|  0.83425
USER: genes 18 Torsion [C]-N--CA-[CB] |==|  0.20592
USER: genes 19 Torsion [N]-CA--C-[OXT] |==|  0.07195
ROOT
ATOM      1  C   LEU B 341      29.290   5.620 -41.768  1.00 14.43 LIG 0.24  C 
ATOM      2 O    LEU B 341      29.915   4.664 -41.310  1.00 17.21 LIG-0.27  OA
ATOM      3  N   ASP B 342      28.122   5.490 -42.379  1.00 15.70 LIG-0.35  N 
ATOM      4 H    ASP B 342      27.623   6.149 -42.617  1.00 15.70 LIG 0.16  HD
ENDROOT
BRANCH 1 5
ATOM      5  CA  LEU B 341      29.818   7.051 -41.680  1.00 14.64 LIG 0.18  C 
BRANCH 5 6
ATOM      6  CB  LEU B 341      29.226   7.720 -40.438  1.00 15.72 LIG 0.04  C 
BRANCH 6 7
ATOM      7  CG  LEU B 341      28.077   8.664 -40.740  1.00 16.60 LIG-0.02  C 
ATOM      8  CD1 LEU B 341      26.915   8.342 -39.829  1.00 17.44 LIG 0.01  C 
ATOM      9  CD2 LEU B 341      28.501  10.128 -40.629  1.00 18.85 LIG 0.01  C 
ENDBRANCH 6 7
ENDBRANCH 5 6
BRANCH 5 10
ATOM     10  N   LEU B 341      29.444   7.864 -42.834  1.00 16.77 LIG-0.35  N 
ATOM     11  C   PRO B 340      30.019   7.672 -44.016  1.00 19.25 LIG 0.24  C 
ATOM     12 O    PRO B 340      30.819   6.763 -44.261  1.00 21.28 LIG-0.27  OA
ATOM     13 H    LEU B 341      28.839   8.454 -42.679  1.00 16.77 LIG 0.16  HD
BRANCH 11 14
ATOM     14  CA  PRO B 340      29.570   8.628 -45.098  1.00 21.04 LIG 0.18  C 
ATOM     15  N   PRO B 340      30.413   9.841 -45.227  1.00 20.95 LIG-0.34  N 
ATOM     16  CD  PRO B 340      30.903  10.026 -46.604  1.00 22.76 LIG 0.13  C 
ATOM     17  C   PHE B 339      30.494  10.694 -44.208  1.00 19.72 LIG 0.26  C 
ATOM     18  CG  PRO B 340      30.034   9.047 -47.364  1.00 24.91 LIG 0.02  C 
ATOM     19  CB  PRO B 340      29.752   7.941 -46.437  1.00 23.27 LIG 0.04  C 
ATOM     20 O    PHE B 339      29.963  10.439 -43.117  1.00 19.38 LIG-0.27  OA
BRANCH 17 21
ATOM     21  CA  PHE B 339      31.254  11.999 -44.438  1.00 21.94 LIG 0.40  C 
ATOM     22  N   PHE B 339      30.377  13.154 -44.322  1.00 23.90 LIG 0.61  N 
BRANCH 21 23
ATOM     23  CB  PHE B 339      32.394  12.126 -43.436  1.00 24.29 LIG 0.09  C 
BRANCH 23 24
ATOM     24  CG  PHE B 339      33.570  11.240 -43.732  1.00 28.97 LIG-0.06  A 
ATOM     25  CD1 PHE B 339      33.449   9.853 -43.673  1.00 31.92 LIG 0.01  A 
ATOM     26  CE1 PHE B 339      34.534   9.030 -43.947  1.00 33.96 LIG 0.00  A 
ATOM     27  CZ  PHE B 339      35.754   9.596 -44.302  1.00 35.90 LIG 0.00  A 
ATOM     28  CE2 PHE B 339      35.887  10.984 -44.374  1.00 35.56 LIG 0.00  A 
ATOM     29  CD2 PHE B 339      34.792  11.796 -44.088  1.00 33.37 LIG 0.01  A 
ENDBRANCH 23 24
ENDBRANCH 21 23
ENDBRANCH 17 21
ENDBRANCH 11 14
ENDBRANCH 5 10
ENDBRANCH 1 5
BRANCH 3 30
ATOM     30  CA  ASP B 342      27.589   4.170 -42.701  1.00 16.21 LIG 0.19  C 
BRANCH 30 31
ATOM     31  CB  ASP B 342      27.025   3.531 -41.448  1.00 18.68 LIG 0.15  C 
BRANCH 31 32
ATOM     32  CG  ASP B 342      25.724   4.102 -41.013  1.00 22.92 LIG 0.17  C 
ATOM     33 OD1  ASP B 342      24.665   3.427 -41.102  1.00 25.81 LIG-0.65  OA
ATOM     34 OD2  ASP B 342      25.792   5.266 -40.572  1.00 25.94 LIG-0.65  OA
ENDBRANCH 31 32
ENDBRANCH 30 31
BRANCH 30 35
ATOM     35  C   ASP B 342      26.422   4.259 -43.693  1.00 16.03 LIG 0.24  C 
ATOM     36  N   LEU B 343      25.768   5.427 -43.714  1.00 16.72 LIG-0.35  N 
ATOM     37 H    LEU B 343      25.824   6.010 -43.085  1.00 16.72 LIG 0.16  HD
ATOM     38 O    ASP B 342      26.198   3.342 -44.477  1.00 14.87 LIG-0.27  OA
BRANCH 36 39
ATOM     39  CA  LEU B 343      24.886   5.828 -44.818  1.00 16.14 LIG 0.18  C 
BRANCH 39 40
ATOM     40  CB  LEU B 343      23.496   6.209 -44.322  1.00 19.18 LIG 0.04  C 
BRANCH 40 41
ATOM     41  CG  LEU B 343      22.394   6.133 -45.396  1.00 20.67 LIG-0.02  C 
ATOM     42  CD1 LEU B 343      22.244   4.671 -45.856  1.00 23.87 LIG 0.01  C 
ATOM     43  CD2 LEU B 343      21.077   6.662 -44.852  1.00 22.92 LIG 0.01  C 
ENDBRANCH 40 41
ENDBRANCH 39 40
BRANCH 39 44
ATOM     44  C   LEU B 343      25.492   7.023 -45.564  1.00 14.33 LIG 0.24  C 
ATOM     45 O    LEU B 343      25.780   6.952 -46.772  1.00 16.10 LIG-0.27  OA
ATOM     46  N   ALA B 344      25.695   8.107 -44.850  1.00 14.89 LIG-0.34  N 
ATOM     47 H    ALA B 344      25.446   8.206 -44.034  1.00 14.89 LIG 0.16  HD
BRANCH 46 48
ATOM     48  CA  ALA B 344      26.393   9.266 -45.433  1.00 15.57 LIG 0.18  C 
ATOM     49  CB  ALA B 344      25.500   9.990 -46.395  1.00 18.12 LIG 0.04  C 
BRANCH 48 50
ATOM     50  C   ALA B 344      26.809  10.225 -44.324  1.00 15.03 LIG 0.20  C 
ATOM     51 OXT  ALA B 344      27.000   9.818 -43.168  1.00 16.10 LIG-0.65  OA
ATOM     52 O    ALA B 344      27.019  11.421 -44.659  1.00 15.80 LIG-0.65  OA
ENDBRANCH 48 50
ENDBRANCH 46 48
ENDBRANCH 39 44
ENDBRANCH 36 39
ENDBRANCH 30 35
ENDBRANCH 3 30
TORSDOF 18
ENDMDL
MODEL 26
USER: ADFR SOLUTION from run 131
USER: SCORE 14.708224 LL:  -4.127 LR: -11.422 RR:   0.000 FEB:  -6.052
USER: RMSD 5.880916
USER: SEED 130
USER: STATUS no improvement in best in 18 clusters for 5 generations
USER: GENES 20
USER: genes 0 Translation |==|  0.48361 0.47405 0.62940
USER: genes 1 Rotation |==|  0.69828 0.09836 0.56350 0.71292
USER: genes 2 Torsion [N]-C--CA-[N] |==|  0.36153
USER: genes 3 Torsion [C]-CA--CB-[CG] |==|  0.27849
USER: genes 4 Torsion [CA]-CB--CG-[CD1] |==|  0.63881
USER: genes 5 Torsion [C]-CA--N-[C] |==|  0.86667
USER: genes 6 Torsion [N]-C--CA-[CB] |==|  0.18669
USER: genes 7 Torsion [N]-C--CA-[N] |==|  0.84019
USER: genes 8 Torsion [C]-CA--CB-[CG] |==|  0.11023
USER: genes 9 Torsion [CA]-CB--CG-[CD1] |==|  0.70458
USER: genes 10 Torsion [C]-N--CA-[CB] |==|  0.19234
USER: genes 11 Torsion [N]-CA--CB-[CG] |==|  0.50297
USER: genes 12 Torsion [CA]-CB--CG-[OD1] |==|  0.20484
USER: genes 13 Torsion [N]-CA--C-[N] |==|  0.86302
USER: genes 14 Torsion [C]-N--CA-[C] |==|  0.17095
USER: genes 15 Torsion [N]-CA--CB-[CG] |==|  0.86285
USER: genes 16 Torsion [CA]-CB--CG-[CD1] |==|  0.44305
USER: genes 17 Torsion [N]-CA--C-[N] |==|  0.11348
USER: genes 18 Torsion [C]-N--CA-[CB] |==|  0.49509
USER: genes 19 Torsion [N]-CA--C-[OXT] |==|  0.25150
ROOT
ATOM      1  C   LEU B 341      28.470   3.661 -41.882  1.00 14.43 LIG 0.24  C 
ATOM      2 O    LEU B 341      29.175   3.563 -42.886  1.00 17.21 LIG-0.27  OA
ATOM      3  N   ASP B 342      28.552   2.822 -40.861  1.00 15.70 LIG-0.35  N 
ATOM      4 H    ASP B 342      28.144   2.928 -40.111  1.00 15.70 LIG 0.16  HD
ENDROOT
BRANCH 1 5
ATOM      5  CA  LEU B 341      27.420   4.760 -41.732  1.00 14.64 LIG 0.18  C 
BRANCH 5 6
ATOM      6  CB  LEU B 341      26.288   4.501 -42.728  1.00 15.72 LIG 0.04  C 
BRANCH 6 7
ATOM      7  CG  LEU B 341      25.065   3.849 -42.108  1.00 16.60 LIG-0.02  C 
ATOM      8  CD1 LEU B 341      24.665   2.652 -42.940  1.00 17.44 LIG 0.01  C 
ATOM      9  CD2 LEU B 341      25.302   3.475 -40.645  1.00 18.85 LIG 0.01  C 
ENDBRANCH 6 7
ENDBRANCH 5 6
BRANCH 5 10
ATOM     10  N   LEU B 341      27.951   6.092 -42.012  1.00 16.77 LIG-0.35  N 
ATOM     11  C   PRO B 340      29.093   6.497 -41.468  1.00 19.25 LIG 0.24  C 
ATOM     12 O    PRO B 340      29.830   5.780 -40.783  1.00 21.28 LIG-0.27  OA
ATOM     13 H    LEU B 341      27.470   6.568 -42.542  1.00 16.77 LIG 0.16  HD
BRANCH 11 14
ATOM     14  CA  PRO B 340      29.483   7.918 -41.806  1.00 21.04 LIG 0.18  C 
ATOM     15  N   PRO B 340      29.365   8.256 -43.245  1.00 20.95 LIG-0.34  N 
ATOM     16  CD  PRO B 340      28.531   9.450 -43.463  1.00 22.76 LIG 0.13  C 
ATOM     17  C   PHE B 339      30.117   7.610 -44.134  1.00 19.72 LIG 0.26  C 
ATOM     18  CG  PRO B 340      28.433  10.006 -42.058  1.00 24.91 LIG 0.02  C 
ATOM     19  CB  PRO B 340      28.480   8.848 -41.153  1.00 23.27 LIG 0.04  C 
ATOM     20 O    PHE B 339      30.836   6.660 -43.792  1.00 19.38 LIG-0.27  OA
BRANCH 17 21
ATOM     21  CA  PHE B 339      30.069   8.091 -45.583  1.00 21.94 LIG 0.40  C 
ATOM     22  N   PHE B 339      28.714   8.058 -46.111  1.00 23.90 LIG 0.61  N 
BRANCH 21 23
ATOM     23  CB  PHE B 339      30.617   9.508 -45.684  1.00 24.29 LIG 0.09  C 
BRANCH 23 24
ATOM     24  CG  PHE B 339      31.817   9.763 -44.817  1.00 28.97 LIG-0.06  A 
ATOM     25  CD1 PHE B 339      31.708  10.530 -43.659  1.00 31.92 LIG 0.01  A 
ATOM     26  CE1 PHE B 339      32.814  10.767 -42.854  1.00 33.96 LIG 0.00  A 
ATOM     27  CZ  PHE B 339      34.046  10.217 -43.197  1.00 35.90 LIG 0.00  A 
ATOM     28  CE2 PHE B 339      34.167   9.439 -44.350  1.00 35.56 LIG 0.00  A 
ATOM     29  CD2 PHE B 339      33.050   9.218 -45.151  1.00 33.37 LIG 0.01  A 
ENDBRANCH 23 24
ENDBRANCH 21 23
ENDBRANCH 17 21
ENDBRANCH 11 14
ENDBRANCH 5 10
ENDBRANCH 1 5
BRANCH 3 30
ATOM     30  CA  ASP B 342      29.374   1.619 -40.945  1.00 16.21 LIG 0.19  C 
BRANCH 30 31
ATOM     31  CB  ASP B 342      30.840   2.005 -40.972  1.00 18.68 LIG 0.15  C 
BRANCH 31 32
ATOM     32  CG  ASP B 342      31.766   0.850 -41.083  1.00 22.92 LIG 0.17  C 
ATOM     33 OD1  ASP B 342      31.892   0.231 -42.173  1.00 25.81 LIG-0.65  OA
ATOM     34 OD2  ASP B 342      32.375   0.573 -40.032  1.00 25.94 LIG-0.65  OA
ENDBRANCH 31 32
ENDBRANCH 30 31
BRANCH 30 35
ATOM     35  C   ASP B 342      29.195   0.725 -39.711  1.00 16.03 LIG 0.24  C 
ATOM     36  N   LEU B 343      29.301   1.344 -38.528  1.00 16.72 LIG-0.35  N 
ATOM     37 H    LEU B 343      29.660   2.119 -38.432  1.00 16.72 LIG 0.16  HD
ATOM     38 O    ASP B 342      28.870  -0.452 -39.834  1.00 14.87 LIG-0.27  OA
BRANCH 36 39
ATOM     39  CA  LEU B 343      28.811   0.756 -37.275  1.00 16.14 LIG 0.18  C 
BRANCH 39 40
ATOM     40  CB  LEU B 343      27.314   0.475 -37.329  1.00 19.18 LIG 0.04  C 
BRANCH 40 41
ATOM     41  CG  LEU B 343      26.461   1.659 -37.824  1.00 20.67 LIG-0.02  C 
ATOM     42  CD1 LEU B 343      25.104   1.125 -38.319  1.00 23.87 LIG 0.01  C 
ATOM     43  CD2 LEU B 343      26.264   2.680 -36.716  1.00 22.92 LIG 0.01  C 
ENDBRANCH 40 41
ENDBRANCH 39 40
BRANCH 39 44
ATOM     44  C   LEU B 343      29.551  -0.555 -36.987  1.00 14.33 LIG 0.24  C 
ATOM     45 O    LEU B 343      28.955  -1.548 -36.533  1.00 16.10 LIG-0.27  OA
ATOM     46  N   ALA B 344      30.841  -0.557 -37.234  1.00 14.89 LIG-0.34  N 
ATOM     47 H    ALA B 344      31.266   0.090 -37.609  1.00 14.89 LIG 0.16  HD
BRANCH 46 48
ATOM     48  CA  ALA B 344      31.671  -1.718 -36.869  1.00 15.57 LIG 0.18  C 
ATOM     49  CB  ALA B 344      33.094  -1.502 -37.290  1.00 18.12 LIG 0.04  C 
BRANCH 48 50
ATOM     50  C   ALA B 344      31.626  -1.927 -35.360  1.00 15.03 LIG 0.20  C 
ATOM     51 OXT  ALA B 344      30.770  -2.660 -34.843  1.00 16.10 LIG-0.65  OA
ATOM     52 O    ALA B 344      32.540  -1.381 -34.686  1.00 15.80 LIG-0.65  OA
ENDBRANCH 48 50
ENDBRANCH 46 48
ENDBRANCH 39 44
ENDBRANCH 36 39
ENDBRANCH 30 35
ENDBRANCH 3 30
TORSDOF 18
ENDMDL
MODEL 27
USER: ADFR SOLUTION from run 103
USER: SCORE 15.120018 LL:  -4.627 LR: -11.399 RR:   0.000 FEB:  -6.030
USER: RMSD 6.487046
USER: SEED 102
USER: STATUS no improvement in best in 10 clusters for 5 generations
USER: GENES 20
USER: genes 0 Translation |==|  0.57537 0.53110 0.57464
USER: genes 1 Rotation |==|  0.45219 0.76618 0.13728 0.71284
USER: genes 2 Torsion [N]-C--CA-[N] |==|  0.41026
USER: genes 3 Torsion [C]-CA--CB-[CG] |==|  0.22666
USER: genes 4 Torsion [CA]-CB--CG-[CD1] |==|  0.36397
USER: genes 5 Torsion [C]-CA--N-[C] |==|  0.58453
USER: genes 6 Torsion [N]-C--CA-[CB] |==|  0.24119
USER: genes 7 Torsion [N]-C--CA-[N] |==|  0.17802
USER: genes 8 Torsion [C]-CA--CB-[CG] |==|  0.23100
USER: genes 9 Torsion [CA]-CB--CG-[CD1] |==|  0.49481
USER: genes 10 Torsion [C]-N--CA-[CB] |==|  0.52222
USER: genes 11 Torsion [N]-CA--CB-[CG] |==|  0.58886
USER: genes 12 Torsion [CA]-CB--CG-[OD1] |==|  0.68356
USER: genes 13 Torsion [N]-CA--C-[N] |==|  0.54209
USER: genes 14 Torsion [C]-N--CA-[C] |==|  0.86097
USER: genes 15 Torsion [N]-CA--CB-[CG] |==|  0.91855
USER: genes 16 Torsion [CA]-CB--CG-[CD1] |==|  0.40547
USER: genes 17 Torsion [N]-CA--C-[N] |==|  0.36233
USER: genes 18 Torsion [C]-N--CA-[CB] |==|  0.27404
USER: genes 19 Torsion [N]-CA--C-[OXT] |==|  0.49834
ROOT
ATOM      1  C   LEU B 341      30.260   4.902 -43.074  1.00 14.43 LIG 0.24  C 
ATOM      2 O    LEU B 341      30.631   5.474 -42.050  1.00 17.21 LIG-0.27  OA
ATOM      3  N   ASP B 342      29.136   4.204 -43.142  1.00 15.70 LIG-0.35  N 
ATOM      4 H    ASP B 342      28.808   3.881 -43.868  1.00 15.70 LIG 0.16  HD
ENDROOT
BRANCH 1 5
ATOM      5  CA  LEU B 341      31.078   4.935 -44.364  1.00 14.64 LIG 0.18  C 
BRANCH 5 6
ATOM      6  CB  LEU B 341      32.109   3.805 -44.324  1.00 15.72 LIG 0.04  C 
BRANCH 6 7
ATOM      7  CG  LEU B 341      31.550   2.451 -44.720  1.00 16.60 LIG-0.02  C 
ATOM      8  CD1 LEU B 341      32.462   1.816 -45.743  1.00 17.44 LIG 0.01  C 
ATOM      9  CD2 LEU B 341      31.335   1.548 -43.506  1.00 18.85 LIG 0.01  C 
ENDBRANCH 6 7
ENDBRANCH 5 6
BRANCH 5 10
ATOM     10  N   LEU B 341      31.809   6.187 -44.538  1.00 16.77 LIG-0.35  N 
ATOM     11  C   PRO B 340      32.061   6.663 -45.752  1.00 19.25 LIG 0.24  C 
ATOM     12 O    PRO B 340      31.635   6.163 -46.799  1.00 21.28 LIG-0.27  OA
ATOM     13 H    LEU B 341      32.049   6.569 -43.807  1.00 16.77 LIG 0.16  HD
BRANCH 11 14
ATOM     14  CA  PRO B 340      32.876   7.937 -45.773  1.00 21.04 LIG 0.18  C 
ATOM     15  N   PRO B 340      32.729   8.772 -44.557  1.00 20.95 LIG-0.34  N 
ATOM     16  CD  PRO B 340      34.031   9.085 -43.944  1.00 22.76 LIG 0.13  C 
ATOM     17  C   PHE B 339      31.538   9.284 -44.253  1.00 19.72 LIG 0.26  C 
ATOM     18  CG  PRO B 340      34.986   8.675 -45.045  1.00 24.91 LIG 0.02  C 
ATOM     19  CB  PRO B 340      34.343   7.557 -45.752  1.00 23.27 LIG 0.04  C 
ATOM     20 O    PHE B 339      30.529   8.988 -44.909  1.00 19.38 LIG-0.27  OA
BRANCH 17 21
ATOM     21  CA  PHE B 339      31.466  10.256 -43.076  1.00 21.94 LIG 0.40  C 
ATOM     22  N   PHE B 339      32.230  11.466 -43.336  1.00 23.90 LIG 0.61  N 
BRANCH 21 23
ATOM     23  CB  PHE B 339      30.016  10.624 -42.788  1.00 24.29 LIG 0.09  C 
BRANCH 23 24
ATOM     24  CG  PHE B 339      29.289   9.626 -41.934  1.00 28.97 LIG-0.06  A 
ATOM     25  CD1 PHE B 339      27.967   9.843 -41.553  1.00 31.92 LIG 0.01  A 
ATOM     26  CE1 PHE B 339      27.290   8.921 -40.765  1.00 33.96 LIG 0.00  A 
ATOM     27  CZ  PHE B 339      27.935   7.755 -40.363  1.00 35.90 LIG 0.00  A 
ATOM     28  CE2 PHE B 339      29.257   7.521 -40.745  1.00 35.56 LIG 0.00  A 
ATOM     29  CD2 PHE B 339      29.924   8.459 -41.529  1.00 33.37 LIG 0.01  A 
ENDBRANCH 23 24
ENDBRANCH 21 23
ENDBRANCH 17 21
ENDBRANCH 11 14
ENDBRANCH 5 10
ENDBRANCH 1 5
BRANCH 3 30
ATOM     30  CA  ASP B 342      28.352   3.930 -41.941  1.00 16.21 LIG 0.19  C 
BRANCH 30 31
ATOM     31  CB  ASP B 342      27.237   2.958 -42.273  1.00 18.68 LIG 0.15  C 
BRANCH 31 32
ATOM     32  CG  ASP B 342      26.005   3.156 -41.468  1.00 22.92 LIG 0.17  C 
ATOM     33 OD1  ASP B 342      25.626   2.277 -40.649  1.00 25.81 LIG-0.65  OA
ATOM     34 OD2  ASP B 342      25.416   4.233 -41.682  1.00 25.94 LIG-0.65  OA
ENDBRANCH 31 32
ENDBRANCH 30 31
BRANCH 30 35
ATOM     35  C   ASP B 342      29.199   3.248 -40.858  1.00 16.03 LIG 0.24  C 
ATOM     36  N   LEU B 343      28.512   2.678 -39.860  1.00 16.72 LIG-0.35  N 
ATOM     37 H    LEU B 343      27.688   2.856 -39.693  1.00 16.72 LIG 0.16  HD
ATOM     38 O    ASP B 342      30.416   3.156 -40.983  1.00 14.87 LIG-0.27  OA
BRANCH 36 39
ATOM     39  CA  LEU B 343      29.102   1.688 -38.951  1.00 16.14 LIG 0.18  C 
BRANCH 39 40
ATOM     40  CB  LEU B 343      28.051   1.045 -38.054  1.00 19.18 LIG 0.04  C 
BRANCH 40 41
ATOM     41  CG  LEU B 343      26.844   1.950 -37.738  1.00 20.67 LIG-0.02  C 
ATOM     42  CD1 LEU B 343      25.580   1.077 -37.626  1.00 23.87 LIG 0.01  C 
ATOM     43  CD2 LEU B 343      27.077   2.725 -36.452  1.00 22.92 LIG 0.01  C 
ENDBRANCH 40 41
ENDBRANCH 39 40
BRANCH 39 44
ATOM     44  C   LEU B 343      29.805   0.589 -39.757  1.00 14.33 LIG 0.24  C 
ATOM     45 O    LEU B 343      29.229   0.007 -40.694  1.00 16.10 LIG-0.27  OA
ATOM     46  N   ALA B 344      31.032   0.298 -39.391  1.00 14.89 LIG-0.34  N 
ATOM     47 H    ALA B 344      31.477   0.727 -38.794  1.00 14.89 LIG 0.16  HD
BRANCH 46 48
ATOM     48  CA  ALA B 344      31.749  -0.831 -40.010  1.00 15.57 LIG 0.18  C 
ATOM     49  CB  ALA B 344      32.668  -0.343 -41.089  1.00 18.12 LIG 0.04  C 
BRANCH 48 50
ATOM     50  C   ALA B 344      32.570  -1.559 -38.951  1.00 15.03 LIG 0.20  C 
ATOM     51 OXT  ALA B 344      33.250  -2.553 -39.244  1.00 16.10 LIG-0.65  OA
ATOM     52 O    ALA B 344      32.579  -1.055 -37.796  1.00 15.80 LIG-0.65  OA
ENDBRANCH 48 50
ENDBRANCH 46 48
ENDBRANCH 39 44
ENDBRANCH 36 39
ENDBRANCH 30 35
ENDBRANCH 3 30
TORSDOF 18
ENDMDL
MODEL 28
USER: ADFR SOLUTION from run 126
USER: SCORE 15.101020 LL:  -4.331 LR: -11.382 RR:   0.000 FEB:  -6.013
USER: RMSD 5.292505
USER: SEED 125
USER: STATUS no improvement in best in 9 clusters for 5 generations
USER: GENES 20
USER: genes 0 Translation |==|  0.55230 0.46650 0.63371
USER: genes 1 Rotation |==|  0.42122 0.92823 0.33945 0.68611
USER: genes 2 Torsion [N]-C--CA-[N] |==|  0.34170
USER: genes 3 Torsion [C]-CA--CB-[CG] |==|  0.41462
USER: genes 4 Torsion [CA]-CB--CG-[CD1] |==|  0.96655
USER: genes 5 Torsion [C]-CA--N-[C] |==|  0.76522
USER: genes 6 Torsion [N]-C--CA-[CB] |==|  0.53616
USER: genes 7 Torsion [N]-C--CA-[N] |==|  0.38928
USER: genes 8 Torsion [C]-CA--CB-[CG] |==|  0.16794
USER: genes 9 Torsion [CA]-CB--CG-[CD1] |==|  0.25794
USER: genes 10 Torsion [C]-N--CA-[CB] |==|  0.86291
USER: genes 11 Torsion [N]-CA--CB-[CG] |==|  0.64480
USER: genes 12 Torsion [CA]-CB--CG-[OD1] |==|  0.28651
USER: genes 13 Torsion [N]-CA--C-[N] |==|  0.33333
USER: genes 14 Torsion [C]-N--CA-[C] |==|  0.77030
USER: genes 15 Torsion [N]-CA--CB-[CG] |==|  0.76875
USER: genes 16 Torsion [CA]-CB--CG-[CD1] |==|  0.87933
USER: genes 17 Torsion [N]-CA--C-[N] |==|  0.19447
USER: genes 18 Torsion [C]-N--CA-[CB] |==|  0.46345
USER: genes 19 Torsion [N]-CA--C-[OXT] |==|  0.23535
ROOT
ATOM      1  C   LEU B 341      29.810   3.496 -41.789  1.00 14.43 LIG 0.24  C 
ATOM      2 O    LEU B 341      30.665   3.341 -40.918  1.00 17.21 LIG-0.27  OA
ATOM      3  N   ASP B 342      28.847   2.617 -42.018  1.00 15.70 LIG-0.35  N 
ATOM      4 H    ASP B 342      28.184   2.749 -42.550  1.00 15.70 LIG 0.16  HD
ENDROOT
BRANCH 1 5
ATOM      5  CA  LEU B 341      29.792   4.724 -42.698  1.00 14.64 LIG 0.18  C 
BRANCH 5 6
ATOM      6  CB  LEU B 341      31.089   4.755 -43.510  1.00 15.72 LIG 0.04  C 
BRANCH 6 7
ATOM      7  CG  LEU B 341      30.938   5.390 -44.881  1.00 16.60 LIG-0.02  C 
ATOM      8  CD1 LEU B 341      29.469   5.558 -45.192  1.00 17.44 LIG 0.01  C 
ATOM      9  CD2 LEU B 341      31.699   6.712 -44.980  1.00 18.85 LIG 0.01  C 
ENDBRANCH 6 7
ENDBRANCH 5 6
BRANCH 5 10
ATOM     10  N   LEU B 341      29.712   5.978 -41.955  1.00 16.77 LIG-0.35  N 
ATOM     11  C   PRO B 340      28.540   6.459 -41.558  1.00 19.25 LIG 0.24  C 
ATOM     12 O    PRO B 340      27.463   5.866 -41.689  1.00 21.28 LIG-0.27  OA
ATOM     13 H    LEU B 341      30.468   6.359 -41.807  1.00 16.77 LIG 0.16  HD
BRANCH 11 14
ATOM     14  CA  PRO B 340      28.613   7.794 -40.850  1.00 21.04 LIG 0.18  C 
ATOM     15  N   PRO B 340      28.760   8.956 -41.759  1.00 20.95 LIG-0.34  N 
ATOM     16  CD  PRO B 340      27.721   9.973 -41.524  1.00 22.76 LIG 0.13  C 
ATOM     17  C   PHE B 339      29.847   9.058 -42.522  1.00 19.72 LIG 0.26  C 
ATOM     18  CG  PRO B 340      27.145   9.512 -40.202  1.00 24.91 LIG 0.02  C 
ATOM     19  CB  PRO B 340      27.274   8.047 -40.185  1.00 23.27 LIG 0.04  C 
ATOM     20 O    PHE B 339      30.685   8.147 -42.565  1.00 19.38 LIG-0.27  OA
BRANCH 17 21
ATOM     21  CA  PHE B 339      30.025  10.342 -43.331  1.00 21.94 LIG 0.40  C 
ATOM     22  N   PHE B 339      31.412  10.781 -43.335  1.00 23.90 LIG 0.61  N 
BRANCH 21 23
ATOM     23  CB  PHE B 339      29.556  10.129 -44.764  1.00 24.29 LIG 0.09  C 
BRANCH 23 24
ATOM     24  CG  PHE B 339      28.108   9.749 -44.884  1.00 28.97 LIG-0.06  A 
ATOM     25  CD1 PHE B 339      27.131  10.723 -45.076  1.00 31.92 LIG 0.01  A 
ATOM     26  CE1 PHE B 339      25.790  10.376 -45.189  1.00 33.96 LIG 0.00  A 
ATOM     27  CZ  PHE B 339      25.419   9.036 -45.128  1.00 35.90 LIG 0.00  A 
ATOM     28  CE2 PHE B 339      26.390   8.050 -44.945  1.00 35.56 LIG 0.00  A 
ATOM     29  CD2 PHE B 339      27.728   8.415 -44.825  1.00 33.37 LIG 0.01  A 
ENDBRANCH 23 24
ENDBRANCH 21 23
ENDBRANCH 17 21
ENDBRANCH 11 14
ENDBRANCH 5 10
ENDBRANCH 1 5
BRANCH 3 30
ATOM     30  CA  ASP B 342      28.851   1.315 -41.357  1.00 16.21 LIG 0.19  C 
BRANCH 30 31
ATOM     31  CB  ASP B 342      30.216   0.673 -41.507  1.00 18.68 LIG 0.15  C 
BRANCH 31 32
ATOM     32  CG  ASP B 342      30.175  -0.709 -42.048  1.00 22.92 LIG 0.17  C 
ATOM     33 OD1  ASP B 342      30.475  -0.937 -43.250  1.00 25.81 LIG-0.65  OA
ATOM     34 OD2  ASP B 342      29.829  -1.577 -41.224  1.00 25.94 LIG-0.65  OA
ENDBRANCH 31 32
ENDBRANCH 30 31
BRANCH 30 35
ATOM     35  C   ASP B 342      28.610   1.449 -39.847  1.00 16.03 LIG 0.24  C 
ATOM     36  N   LEU B 343      27.528   0.817 -39.375  1.00 16.72 LIG-0.35  N 
ATOM     37 H    LEU B 343      26.884   0.545 -39.877  1.00 16.72 LIG 0.16  HD
ATOM     38 O    ASP B 342      29.432   2.013 -39.131  1.00 14.87 LIG-0.27  OA
BRANCH 36 39
ATOM     39  CA  LEU B 343      27.334   0.524 -37.950  1.00 16.14 LIG 0.18  C 
BRANCH 39 40
ATOM     40  CB  LEU B 343      25.860   0.351 -37.603  1.00 19.18 LIG 0.04  C 
BRANCH 40 41
ATOM     41  CG  LEU B 343      25.106   1.670 -37.349  1.00 20.67 LIG-0.02  C 
ATOM     42  CD1 LEU B 343      25.984   2.589 -36.479  1.00 23.87 LIG 0.01  C 
ATOM     43  CD2 LEU B 343      24.755   2.349 -38.662  1.00 22.92 LIG 0.01  C 
ENDBRANCH 40 41
ENDBRANCH 39 40
BRANCH 39 44
ATOM     44  C   LEU B 343      28.086  -0.758 -37.572  1.00 14.33 LIG 0.24  C 
ATOM     45 O    LEU B 343      27.477  -1.803 -37.280  1.00 16.10 LIG-0.27  OA
ATOM     46  N   ALA B 344      29.397  -0.678 -37.564  1.00 14.89 LIG-0.34  N 
ATOM     47 H    ALA B 344      29.845   0.009 -37.825  1.00 14.89 LIG 0.16  HD
BRANCH 46 48
ATOM     48  CA  ALA B 344      30.213  -1.809 -37.088  1.00 15.57 LIG 0.18  C 
ATOM     49  CB  ALA B 344      31.651  -1.617 -37.465  1.00 18.12 LIG 0.04  C 
BRANCH 48 50
ATOM     50  C   ALA B 344      30.108  -1.914 -35.570  1.00 15.03 LIG 0.20  C 
ATOM     51 OXT  ALA B 344      29.170  -2.525 -35.037  1.00 16.10 LIG-0.65  OA
ATOM     52 O    ALA B 344      31.053  -1.418 -34.902  1.00 15.80 LIG-0.65  OA
ENDBRANCH 48 50
ENDBRANCH 46 48
ENDBRANCH 39 44
ENDBRANCH 36 39
ENDBRANCH 30 35
ENDBRANCH 3 30
TORSDOF 18
ENDMDL
MODEL 29
USER: ADFR SOLUTION from run 120
USER: SCORE 13.852260 LL:  -3.733 LR: -11.364 RR:   0.000 FEB:  -5.995
USER: RMSD 6.738681
USER: SEED 119
USER: STATUS no improvement in best in 15 clusters for 5 generations
USER: GENES 20
USER: genes 0 Translation |==|  0.35659 0.47992 0.61517
USER: genes 1 Rotation |==|  0.45730 0.65167 0.25195 0.90453
USER: genes 2 Torsion [N]-C--CA-[N] |==|  0.58703
USER: genes 3 Torsion [C]-CA--CB-[CG] |==|  0.69872
USER: genes 4 Torsion [CA]-CB--CG-[CD1] |==|  0.32060
USER: genes 5 Torsion [C]-CA--N-[C] |==|  0.61623
USER: genes 6 Torsion [N]-C--CA-[CB] |==|  0.74586
USER: genes 7 Torsion [N]-C--CA-[N] |==|  0.21841
USER: genes 8 Torsion [C]-CA--CB-[CG] |==|  0.63241
USER: genes 9 Torsion [CA]-CB--CG-[CD1] |==|  0.31006
USER: genes 10 Torsion [C]-N--CA-[CB] |==|  0.52227
USER: genes 11 Torsion [N]-CA--CB-[CG] |==|  0.08154
USER: genes 12 Torsion [CA]-CB--CG-[OD1] |==|  0.80171
USER: genes 13 Torsion [N]-CA--C-[N] |==|  0.51103
USER: genes 14 Torsion [C]-N--CA-[C] |==|  0.79585
USER: genes 15 Torsion [N]-CA--CB-[CG] |==|  0.64085
USER: genes 16 Torsion [CA]-CB--CG-[CD1] |==|  0.03467
USER: genes 17 Torsion [N]-CA--C-[N] |==|  0.40407
USER: genes 18 Torsion [C]-N--CA-[CB] |==|  0.18946
USER: genes 19 Torsion [N]-CA--C-[OXT] |==|  0.72588
ROOT
ATOM      1  C   LEU B 341      25.993   3.788 -42.192  1.00 14.43 LIG 0.24  C 
ATOM      2 O    LEU B 341      25.282   4.215 -41.283  1.00 17.21 LIG-0.27  OA
ATOM      3  N   ASP B 342      25.912   2.548 -42.650  1.00 15.70 LIG-0.35  N 
ATOM      4 H    ASP B 342      26.326   2.259 -43.346  1.00 15.70 LIG 0.16  HD
ENDROOT
BRANCH 1 5
ATOM      5  CA  LEU B 341      27.053   4.657 -42.869  1.00 14.64 LIG 0.18  C 
BRANCH 5 6
ATOM      6  CB  LEU B 341      28.198   3.760 -43.343  1.00 15.72 LIG 0.04  C 
BRANCH 6 7
ATOM      7  CG  LEU B 341      29.473   3.916 -42.534  1.00 16.60 LIG-0.02  C 
ATOM      8  CD1 LEU B 341      29.769   2.618 -41.819  1.00 17.44 LIG 0.01  C 
ATOM      9  CD2 LEU B 341      30.644   4.370 -43.404  1.00 18.85 LIG 0.01  C 
ENDBRANCH 6 7
ENDBRANCH 5 6
BRANCH 5 10
ATOM     10  N   LEU B 341      27.624   5.656 -41.970  1.00 16.77 LIG-0.35  N 
ATOM     11  C   PRO B 340      27.850   6.897 -42.387  1.00 19.25 LIG 0.24  C 
ATOM     12 O    PRO B 340      27.522   7.328 -43.498  1.00 21.28 LIG-0.27  OA
ATOM     13 H    LEU B 341      27.792   5.373 -41.176  1.00 16.77 LIG 0.16  HD
BRANCH 11 14
ATOM     14  CA  PRO B 340      28.497   7.799 -41.361  1.00 21.04 LIG 0.18  C 
ATOM     15  N   PRO B 340      29.273   8.922 -41.941  1.00 20.95 LIG-0.34  N 
ATOM     16  CD  PRO B 340      28.841  10.223 -41.405  1.00 22.76 LIG 0.13  C 
ATOM     17  C   PHE B 339      30.336   8.661 -42.698  1.00 19.72 LIG 0.26  C 
ATOM     18  CG  PRO B 340      27.996   9.794 -40.223  1.00 24.91 LIG 0.02  C 
ATOM     19  CB  PRO B 340      27.396   8.504 -40.594  1.00 23.27 LIG 0.04  C 
ATOM     20 O    PHE B 339      30.627   7.498 -43.014  1.00 19.38 LIG-0.27  OA
BRANCH 17 21
ATOM     21  CA  PHE B 339      31.188   9.846 -43.152  1.00 21.94 LIG 0.40  C 
ATOM     22  N   PHE B 339      32.070  10.306 -42.090  1.00 23.90 LIG 0.61  N 
BRANCH 21 23
ATOM     23  CB  PHE B 339      32.019   9.459 -44.368  1.00 24.29 LIG 0.09  C 
BRANCH 23 24
ATOM     24  CG  PHE B 339      33.467   9.846 -44.268  1.00 28.97 LIG-0.06  A 
ATOM     25  CD1 PHE B 339      34.457   8.874 -44.150  1.00 31.92 LIG 0.01  A 
ATOM     26  CE1 PHE B 339      35.798   9.228 -44.059  1.00 33.96 LIG 0.00  A 
ATOM     27  CZ  PHE B 339      36.159  10.572 -44.104  1.00 35.90 LIG 0.00  A 
ATOM     28  CE2 PHE B 339      35.177  11.555 -44.231  1.00 35.56 LIG 0.00  A 
ATOM     29  CD2 PHE B 339      33.837  11.184 -44.313  1.00 33.37 LIG 0.01  A 
ENDBRANCH 23 24
ENDBRANCH 21 23
ENDBRANCH 17 21
ENDBRANCH 11 14
ENDBRANCH 5 10
ENDBRANCH 1 5
BRANCH 3 30
ATOM     30  CA  ASP B 342      25.081   1.556 -41.975  1.00 16.21 LIG 0.19  C 
BRANCH 30 31
ATOM     31  CB  ASP B 342      25.325   0.190 -42.585  1.00 18.68 LIG 0.15  C 
BRANCH 31 32
ATOM     32  CG  ASP B 342      26.691   0.012 -43.138  1.00 22.92 LIG 0.17  C 
ATOM     33 OD1  ASP B 342      27.040   0.606 -44.192  1.00 25.81 LIG-0.65  OA
ATOM     34 OD2  ASP B 342      27.420  -0.754 -42.478  1.00 25.94 LIG-0.65  OA
ENDBRANCH 31 32
ENDBRANCH 30 31
BRANCH 30 35
ATOM     35  C   ASP B 342      25.447   1.428 -40.490  1.00 16.03 LIG 0.24  C 
ATOM     36  N   LEU B 343      24.790   0.479 -39.811  1.00 16.72 LIG-0.35  N 
ATOM     37 H    LEU B 343      24.064   0.115 -40.094  1.00 16.72 LIG 0.16  HD
ATOM     38 O    ASP B 342      26.362   2.092 -40.014  1.00 14.87 LIG-0.27  OA
BRANCH 36 39
ATOM     39  CA  LEU B 343      25.246  -0.033 -38.514  1.00 16.14 LIG 0.18  C 
BRANCH 39 40
ATOM     40  CB  LEU B 343      24.156  -0.827 -37.803  1.00 19.18 LIG 0.04  C 
BRANCH 40 41
ATOM     41  CG  LEU B 343      23.904  -0.399 -36.345  1.00 20.67 LIG-0.02  C 
ATOM     42  CD1 LEU B 343      24.618   0.940 -36.086  1.00 23.87 LIG 0.01  C 
ATOM     43  CD2 LEU B 343      22.414  -0.275 -36.072  1.00 22.92 LIG 0.01  C 
ENDBRANCH 40 41
ENDBRANCH 39 40
BRANCH 39 44
ATOM     44  C   LEU B 343      26.470  -0.937 -38.709  1.00 14.33 LIG 0.24  C 
ATOM     45 O    LEU B 343      26.583  -1.666 -39.711  1.00 16.10 LIG-0.27  OA
ATOM     46  N   ALA B 344      27.373  -0.900 -37.756  1.00 14.89 LIG-0.34  N 
ATOM     47 H    ALA B 344      27.355  -0.360 -37.087  1.00 14.89 LIG 0.16  HD
BRANCH 46 48
ATOM     48  CA  ALA B 344      28.521  -1.824 -37.777  1.00 15.57 LIG 0.18  C 
ATOM     49  CB  ALA B 344      29.442  -1.494 -38.912  1.00 18.12 LIG 0.04  C 
BRANCH 48 50
ATOM     50  C   ALA B 344      29.291  -1.716 -36.466  1.00 15.03 LIG 0.20  C 
ATOM     51 OXT  ALA B 344      30.317  -1.025 -36.385  1.00 16.10 LIG-0.65  OA
ATOM     52 O    ALA B 344      28.790  -2.296 -35.466  1.00 15.80 LIG-0.65  OA
ENDBRANCH 48 50
ENDBRANCH 46 48
ENDBRANCH 39 44
ENDBRANCH 36 39
ENDBRANCH 30 35
ENDBRANCH 3 30
TORSDOF 18
ENDMDL
MODEL 30
USER: ADFR SOLUTION from run 182
USER: SCORE 14.358365 LL:  -4.738 LR: -11.353 RR:   0.000 FEB:  -5.984
USER: RMSD 6.495074
USER: SEED 181
USER: STATUS no improvement in best in 23 clusters for 5 generations
USER: GENES 20
USER: genes 0 Translation |==|  0.55314 0.44583 0.61302
USER: genes 1 Rotation |==|  0.44297 0.71836 0.08754 0.67012
USER: genes 2 Torsion [N]-C--CA-[N] |==|  0.36828
USER: genes 3 Torsion [C]-CA--CB-[CG] |==|  0.20878
USER: genes 4 Torsion [CA]-CB--CG-[CD1] |==|  0.08051
USER: genes 5 Torsion [C]-CA--N-[C] |==|  0.70042
USER: genes 6 Torsion [N]-C--CA-[CB] |==|  0.12421
USER: genes 7 Torsion [N]-C--CA-[N] |==|  0.47333
USER: genes 8 Torsion [C]-CA--CB-[CG] |==|  0.74793
USER: genes 9 Torsion [CA]-CB--CG-[CD1] |==|  0.22168
USER: genes 10 Torsion [C]-N--CA-[CB] |==|  0.42666
USER: genes 11 Torsion [N]-CA--CB-[CG] |==|  0.68498
USER: genes 12 Torsion [CA]-CB--CG-[OD1] |==|  0.79614
USER: genes 13 Torsion [N]-CA--C-[N] |==|  0.34362
USER: genes 14 Torsion [C]-N--CA-[C] |==|  0.17221
USER: genes 15 Torsion [N]-CA--CB-[CG] |==|  0.88860
USER: genes 16 Torsion [CA]-CB--CG-[CD1] |==|  0.41235
USER: genes 17 Torsion [N]-CA--C-[N] |==|  0.10928
USER: genes 18 Torsion [C]-N--CA-[CB] |==|  0.44647
USER: genes 19 Torsion [N]-CA--C-[OXT] |==|  0.10130
ROOT
ATOM      1  C   LEU B 341      29.826   3.047 -42.239  1.00 14.43 LIG 0.24  C 
ATOM      2 O    LEU B 341      30.329   3.804 -41.409  1.00 17.21 LIG-0.27  OA
ATOM      3  N   ASP B 342      28.600   2.560 -42.121  1.00 15.70 LIG-0.35  N 
ATOM      4 H    ASP B 342      28.194   2.113 -42.732  1.00 15.70 LIG 0.16  HD
ENDROOT
BRANCH 1 5
ATOM      5  CA  LEU B 341      30.585   2.588 -43.483  1.00 14.64 LIG 0.18  C 
BRANCH 5 6
ATOM      6  CB  LEU B 341      31.685   1.613 -43.059  1.00 15.72 LIG 0.04  C 
BRANCH 6 7
ATOM      7  CG  LEU B 341      31.171   0.232 -42.693  1.00 16.60 LIG-0.02  C 
ATOM      8  CD1 LEU B 341      29.910  -0.053 -43.476  1.00 17.44 LIG 0.01  C 
ATOM      9  CD2 LEU B 341      32.235  -0.844 -42.909  1.00 18.85 LIG 0.01  C 
ENDBRANCH 6 7
ENDBRANCH 5 6
BRANCH 5 10
ATOM     10  N   LEU B 341      31.229   3.691 -44.192  1.00 16.77 LIG-0.35  N 
ATOM     11  C   PRO B 340      30.757   4.118 -45.357  1.00 19.25 LIG 0.24  C 
ATOM     12 O    PRO B 340      29.716   3.705 -45.880  1.00 21.28 LIG-0.27  OA
ATOM     13 H    LEU B 341      31.917   4.022 -43.795  1.00 16.77 LIG 0.16  HD
BRANCH 11 14
ATOM     14  CA  PRO B 340      31.563   5.227 -45.996  1.00 21.04 LIG 0.18  C 
ATOM     15  N   PRO B 340      31.486   6.524 -45.282  1.00 20.95 LIG-0.34  N 
ATOM     16  CD  PRO B 340      32.821   7.049 -44.949  1.00 22.76 LIG 0.13  C 
ATOM     17  C   PHE B 339      30.313   7.145 -45.177  1.00 19.72 LIG 0.26  C 
ATOM     18  CG  PRO B 340      33.710   6.165 -45.797  1.00 24.91 LIG 0.02  C 
ATOM     19  CB  PRO B 340      33.031   4.863 -45.886  1.00 23.27 LIG 0.04  C 
ATOM     20 O    PHE B 339      29.268   6.608 -45.572  1.00 19.38 LIG-0.27  OA
BRANCH 17 21
ATOM     21  CA  PHE B 339      30.306   8.545 -44.563  1.00 21.94 LIG 0.40  C 
ATOM     22  N   PHE B 339      29.010   9.187 -44.715  1.00 23.90 LIG 0.61  N 
BRANCH 21 23
ATOM     23  CB  PHE B 339      30.665   8.471 -43.085  1.00 24.29 LIG 0.09  C 
BRANCH 23 24
ATOM     24  CG  PHE B 339      29.481   8.315 -42.175  1.00 28.97 LIG-0.06  A 
ATOM     25  CD1 PHE B 339      28.882   7.070 -41.992  1.00 31.92 LIG 0.01  A 
ATOM     26  CE1 PHE B 339      27.787   6.921 -41.150  1.00 33.96 LIG 0.00  A 
ATOM     27  CZ  PHE B 339      27.291   8.027 -40.465  1.00 35.90 LIG 0.00  A 
ATOM     28  CE2 PHE B 339      27.887   9.278 -40.633  1.00 35.56 LIG 0.00  A 
ATOM     29  CD2 PHE B 339      28.978   9.412 -41.487  1.00 33.37 LIG 0.01  A 
ENDBRANCH 23 24
ENDBRANCH 21 23
ENDBRANCH 17 21
ENDBRANCH 11 14
ENDBRANCH 5 10
ENDBRANCH 1 5
BRANCH 3 30
ATOM     30  CA  ASP B 342      27.832   2.760 -40.896  1.00 16.21 LIG 0.19  C 
BRANCH 30 31
ATOM     31  CB  ASP B 342      26.350   2.717 -41.214  1.00 18.68 LIG 0.15  C 
BRANCH 31 32
ATOM     32  CG  ASP B 342      25.653   4.014 -41.017  1.00 22.92 LIG 0.17  C 
ATOM     33 OD1  ASP B 342      25.415   4.445 -39.857  1.00 25.81 LIG-0.65  OA
ATOM     34 OD2  ASP B 342      25.344   4.600 -42.072  1.00 25.94 LIG-0.65  OA
ENDBRANCH 31 32
ENDBRANCH 30 31
BRANCH 30 35
ATOM     35  C   ASP B 342      28.080   1.634 -39.883  1.00 16.03 LIG 0.24  C 
ATOM     36  N   LEU B 343      28.514   2.025 -38.678  1.00 16.72 LIG-0.35  N 
ATOM     37 H    LEU B 343      28.850   2.802 -38.527  1.00 16.72 LIG 0.16  HD
ATOM     38 O    ASP B 342      27.788   0.474 -40.155  1.00 14.87 LIG-0.27  OA
BRANCH 36 39
ATOM     39  CA  LEU B 343      28.459   1.161 -37.492  1.00 16.14 LIG 0.18  C 
BRANCH 39 40
ATOM     40  CB  LEU B 343      27.033   0.726 -37.175  1.00 19.18 LIG 0.04  C 
BRANCH 40 41
ATOM     41  CG  LEU B 343      25.974   1.829 -37.362  1.00 20.67 LIG-0.02  C 
ATOM     42  CD1 LEU B 343      24.646   1.180 -37.796  1.00 23.87 LIG 0.01  C 
ATOM     43  CD2 LEU B 343      25.790   2.619 -36.077  1.00 22.92 LIG 0.01  C 
ENDBRANCH 40 41
ENDBRANCH 39 40
BRANCH 39 44
ATOM     44  C   LEU B 343      29.321  -0.087 -37.714  1.00 14.33 LIG 0.24  C 
ATOM     45 O    LEU B 343      28.957  -1.205 -37.307  1.00 16.10 LIG-0.27  OA
ATOM     46  N   ALA B 344      30.459   0.100 -38.341  1.00 14.89 LIG-0.34  N 
ATOM     47 H    ALA B 344      30.706   0.846 -38.691  1.00 14.89 LIG 0.16  HD
BRANCH 46 48
ATOM     48  CA  ALA B 344      31.423  -1.005 -38.489  1.00 15.57 LIG 0.18  C 
ATOM     49  CB  ALA B 344      32.390  -0.717 -39.598  1.00 18.12 LIG 0.04  C 
BRANCH 48 50
ATOM     50  C   ALA B 344      32.199  -1.186 -37.189  1.00 15.03 LIG 0.20  C 
ATOM     51 OXT  ALA B 344      31.647  -1.025 -36.090  1.00 16.10 LIG-0.65  OA
ATOM     52 O    ALA B 344      33.392  -1.576 -37.292  1.00 15.80 LIG-0.65  OA
ENDBRANCH 48 50
ENDBRANCH 46 48
ENDBRANCH 39 44
ENDBRANCH 36 39
ENDBRANCH 30 35
ENDBRANCH 3 30
TORSDOF 18
ENDMDL
MODEL 31
USER: ADFR SOLUTION from run 184
USER: SCORE 15.761566 LL:  -4.935 LR: -11.330 RR:   0.000 FEB:  -5.960
USER: RMSD 10.151659
USER: SEED 183
USER: STATUS no improvement in best in 5 clusters for 5 generations
USER: GENES 20
USER: genes 0 Translation |==|  0.32098 0.41555 0.68943
USER: genes 1 Rotation |==|  0.96487 0.44097 0.38376 0.62999
USER: genes 2 Torsion [N]-C--CA-[N] |==|  0.04863
USER: genes 3 Torsion [C]-CA--CB-[CG] |==|  0.61648
USER: genes 4 Torsion [CA]-CB--CG-[CD1] |==|  0.32895
USER: genes 5 Torsion [C]-CA--N-[C] |==|  0.66111
USER: genes 6 Torsion [N]-C--CA-[CB] |==|  0.10929
USER: genes 7 Torsion [N]-C--CA-[N] |==|  0.32400
USER: genes 8 Torsion [C]-CA--CB-[CG] |==|  0.25140
USER: genes 9 Torsion [CA]-CB--CG-[CD1] |==|  0.92805
USER: genes 10 Torsion [C]-N--CA-[CB] |==|  0.86004
USER: genes 11 Torsion [N]-CA--CB-[CG] |==|  0.67379
USER: genes 12 Torsion [CA]-CB--CG-[OD1] |==|  0.66602
USER: genes 13 Torsion [N]-CA--C-[N] |==|  0.38009
USER: genes 14 Torsion [C]-N--CA-[C] |==|  0.67329
USER: genes 15 Torsion [N]-CA--CB-[CG] |==|  0.59590
USER: genes 16 Torsion [CA]-CB--CG-[CD1] |==|  0.74035
USER: genes 17 Torsion [N]-CA--C-[N] |==|  0.31325
USER: genes 18 Torsion [C]-N--CA-[CB] |==|  0.38207
USER: genes 19 Torsion [N]-CA--C-[OXT] |==|  0.65535
ROOT
ATOM      1  C   LEU B 341      25.299   2.388 -40.577  1.00 14.43 LIG 0.24  C 
ATOM      2 O    LEU B 341      24.415   3.215 -40.797  1.00 17.21 LIG-0.27  OA
ATOM      3  N   ASP B 342      26.504   2.459 -41.123  1.00 15.70 LIG-0.35  N 
ATOM      4 H    ASP B 342      27.165   1.953 -40.908  1.00 15.70 LIG 0.16  HD
ENDROOT
BRANCH 1 5
ATOM      5  CA  LEU B 341      25.078   1.190 -39.656  1.00 14.64 LIG 0.18  C 
BRANCH 5 6
ATOM      6  CB  LEU B 341      24.341   1.661 -38.400  1.00 15.72 LIG 0.04  C 
BRANCH 6 7
ATOM      7  CG  LEU B 341      24.871   1.053 -37.115  1.00 16.60 LIG-0.02  C 
ATOM      8  CD1 LEU B 341      25.392   2.154 -36.221  1.00 17.44 LIG 0.01  C 
ATOM      9  CD2 LEU B 341      23.814   0.199 -36.414  1.00 18.85 LIG 0.01  C 
ENDBRANCH 6 7
ENDBRANCH 5 6
BRANCH 5 10
ATOM     10  N   LEU B 341      26.327   0.570 -39.222  1.00 16.77 LIG-0.35  N 
ATOM     11  C   PRO B 340      26.572  -0.712 -39.469  1.00 19.25 LIG 0.24  C 
ATOM     12 O    PRO B 340      25.840  -1.442 -40.146  1.00 21.28 LIG-0.27  OA
ATOM     13 H    LEU B 341      26.866   1.096 -38.808  1.00 16.77 LIG 0.16  HD
BRANCH 11 14
ATOM     14  CA  PRO B 340      27.880  -1.223 -38.909  1.00 21.04 LIG 0.18  C 
ATOM     15  N   PRO B 340      29.079  -0.775 -39.658  1.00 20.95 LIG-0.34  N 
ATOM     16  CD  PRO B 340      30.063  -0.121 -38.780  1.00 22.76 LIG 0.13  C 
ATOM     17  C   PHE B 339      29.232  -1.141 -40.929  1.00 19.72 LIG 0.26  C 
ATOM     18  CG  PRO B 340      29.541  -0.501 -37.410  1.00 24.91 LIG 0.02  C 
ATOM     19  CB  PRO B 340      28.080  -0.602 -37.541  1.00 23.27 LIG 0.04  C 
ATOM     20 O    PHE B 339      28.341  -1.760 -41.528  1.00 19.38 LIG-0.27  OA
BRANCH 17 21
ATOM     21  CA  PHE B 339      30.549  -0.780 -41.615  1.00 21.94 LIG 0.40  C 
ATOM     22  N   PHE B 339      31.290  -1.970 -42.005  1.00 23.90 LIG 0.61  N 
BRANCH 21 23
ATOM     23  CB  PHE B 339      30.283   0.076 -42.845  1.00 24.29 LIG 0.09  C 
BRANCH 23 24
ATOM     24  CG  PHE B 339      30.277   1.553 -42.573  1.00 28.97 LIG-0.06  A 
ATOM     25  CD1 PHE B 339      29.966   2.043 -41.306  1.00 31.92 LIG 0.01  A 
ATOM     26  CE1 PHE B 339      29.962   3.408 -41.050  1.00 33.96 LIG 0.00  A 
ATOM     27  CZ  PHE B 339      30.290   4.300 -42.067  1.00 35.90 LIG 0.00  A 
ATOM     28  CE2 PHE B 339      30.612   3.822 -43.338  1.00 35.56 LIG 0.00  A 
ATOM     29  CD2 PHE B 339      30.604   2.451 -43.581  1.00 33.37 LIG 0.01  A 
ENDBRANCH 23 24
ENDBRANCH 21 23
ENDBRANCH 17 21
ENDBRANCH 11 14
ENDBRANCH 5 10
ENDBRANCH 1 5
BRANCH 3 30
ATOM     30  CA  ASP B 342      26.796   3.439 -42.164  1.00 16.21 LIG 0.19  C 
BRANCH 30 31
ATOM     31  CB  ASP B 342      25.736   3.362 -43.245  1.00 18.68 LIG 0.15  C 
BRANCH 31 32
ATOM     32  CG  ASP B 342      26.261   2.969 -44.578  1.00 22.92 LIG 0.17  C 
ATOM     33 OD1  ASP B 342      26.132   3.733 -45.570  1.00 25.81 LIG-0.65  OA
ATOM     34 OD2  ASP B 342      26.816   1.853 -44.605  1.00 25.94 LIG-0.65  OA
ENDBRANCH 31 32
ENDBRANCH 30 31
BRANCH 30 35
ATOM     35  C   ASP B 342      26.742   4.873 -41.621  1.00 16.03 LIG 0.24  C 
ATOM     36  N   LEU B 343      27.728   5.684 -42.028  1.00 16.72 LIG-0.35  N 
ATOM     37 H    LEU B 343      28.460   5.398 -42.376  1.00 16.72 LIG 0.16  HD
ATOM     38 O    ASP B 342      25.789   5.251 -40.947  1.00 14.87 LIG-0.27  OA
BRANCH 36 39
ATOM     39  CA  LEU B 343      27.653   7.146 -41.920  1.00 16.14 LIG 0.18  C 
BRANCH 39 40
ATOM     40  CB  LEU B 343      28.793   7.711 -41.081  1.00 19.18 LIG 0.04  C 
BRANCH 40 41
ATOM     41  CG  LEU B 343      28.415   8.944 -40.239  1.00 20.67 LIG-0.02  C 
ATOM     42  CD1 LEU B 343      28.755  10.217 -41.036  1.00 23.87 LIG 0.01  C 
ATOM     43  CD2 LEU B 343      26.939   8.915 -39.878  1.00 22.92 LIG 0.01  C 
ENDBRANCH 40 41
ENDBRANCH 39 40
BRANCH 39 44
ATOM     44  C   LEU B 343      27.705   7.777 -43.317  1.00 14.33 LIG 0.24  C 
ATOM     45 O    LEU B 343      28.736   7.725 -44.012  1.00 16.10 LIG-0.27  OA
ATOM     46  N   ALA B 344      26.610   8.380 -43.720  1.00 14.89 LIG-0.34  N 
ATOM     47 H    ALA B 344      25.865   8.375 -43.291  1.00 14.89 LIG 0.16  HD
BRANCH 46 48
ATOM     48  CA  ALA B 344      26.593   9.133 -44.986  1.00 15.57 LIG 0.18  C 
ATOM     49  CB  ALA B 344      25.331   8.858 -45.747  1.00 18.12 LIG 0.04  C 
BRANCH 48 50
ATOM     50  C   ALA B 344      26.682  10.627 -44.696  1.00 15.03 LIG 0.20  C 
ATOM     51 OXT  ALA B 344      25.820  11.411 -45.121  1.00 16.10 LIG-0.65  OA
ATOM     52 O    ALA B 344      27.623  11.003 -43.948  1.00 15.80 LIG-0.65  OA
ENDBRANCH 48 50
ENDBRANCH 46 48
ENDBRANCH 39 44
ENDBRANCH 36 39
ENDBRANCH 30 35
ENDBRANCH 3 30
TORSDOF 18
ENDMDL
MODEL 32
USER: ADFR SOLUTION from run 186
USER: SCORE 14.282518 LL:  -4.543 LR: -11.320 RR:   0.000 FEB:  -5.951
USER: RMSD 10.974508
USER: SEED 185
USER: STATUS no improvement in best in 9 clusters for 5 generations
USER: GENES 20
USER: genes 0 Translation |==|  0.39079 0.40090 0.68817
USER: genes 1 Rotation |==|  0.47261 0.58132 0.84975 0.84686
USER: genes 2 Torsion [N]-C--CA-[N] |==|  0.40281
USER: genes 3 Torsion [C]-CA--CB-[CG] |==|  0.81546
USER: genes 4 Torsion [CA]-CB--CG-[CD1] |==|  0.37079
USER: genes 5 Torsion [C]-CA--N-[C] |==|  0.83311
USER: genes 6 Torsion [N]-C--CA-[CB] |==|  0.20135
USER: genes 7 Torsion [N]-C--CA-[N] |==|  0.39660
USER: genes 8 Torsion [C]-CA--CB-[CG] |==|  0.79627
USER: genes 9 Torsion [CA]-CB--CG-[CD1] |==|  0.73414
USER: genes 10 Torsion [C]-N--CA-[CB] |==|  0.22778
USER: genes 11 Torsion [N]-CA--CB-[CG] |==|  0.58556
USER: genes 12 Torsion [CA]-CB--CG-[OD1] |==|  0.48063
USER: genes 13 Torsion [N]-CA--C-[N] |==|  0.01064
USER: genes 14 Torsion [C]-N--CA-[C] |==|  0.24366
USER: genes 15 Torsion [N]-CA--CB-[CG] |==|  0.59137
USER: genes 16 Torsion [CA]-CB--CG-[CD1] |==|  0.74765
USER: genes 17 Torsion [N]-CA--C-[N] |==|  0.32049
USER: genes 18 Torsion [C]-N--CA-[CB] |==|  0.33338
USER: genes 19 Torsion [N]-CA--C-[OXT] |==|  0.23036
ROOT
ATOM      1  C   LEU B 341      26.660   2.070 -40.604  1.00 14.43 LIG 0.24  C 
ATOM      2 O    LEU B 341      27.442   1.216 -40.188  1.00 17.21 LIG-0.27  OA
ATOM      3  N   ASP B 342      27.057   3.159 -41.244  1.00 15.70 LIG-0.35  N 
ATOM      4 H    ASP B 342      26.527   3.717 -41.629  1.00 15.70 LIG 0.16  HD
ENDROOT
BRANCH 1 5
ATOM      5  CA  LEU B 341      25.150   1.951 -40.406  1.00 14.64 LIG 0.18  C 
BRANCH 5 6
ATOM      6  CB  LEU B 341      24.792   2.480 -39.015  1.00 15.72 LIG 0.04  C 
BRANCH 6 7
ATOM      7  CG  LEU B 341      25.339   1.635 -37.879  1.00 16.60 LIG-0.02  C 
ATOM      8  CD1 LEU B 341      25.976   2.539 -36.849  1.00 17.44 LIG 0.01  C 
ATOM      9  CD2 LEU B 341      24.261   0.741 -37.267  1.00 18.85 LIG 0.01  C 
ENDBRANCH 6 7
ENDBRANCH 5 6
BRANCH 5 10
ATOM     10  N   LEU B 341      24.675   0.573 -40.484  1.00 16.77 LIG-0.35  N 
ATOM     11  C   PRO B 340      24.850  -0.145 -41.588  1.00 19.25 LIG 0.24  C 
ATOM     12 O    PRO B 340      25.490   0.239 -42.574  1.00 21.28 LIG-0.27  OA
ATOM     13 H    LEU B 341      24.286   0.284 -39.774  1.00 16.77 LIG 0.16  HD
BRANCH 11 14
ATOM     14  CA  PRO B 340      24.253  -1.534 -41.538  1.00 21.04 LIG 0.18  C 
ATOM     15  N   PRO B 340      24.454  -2.235 -40.248  1.00 20.95 LIG-0.34  N 
ATOM     16  CD  PRO B 340      23.182  -2.710 -39.676  1.00 22.76 LIG 0.13  C 
ATOM     17  C   PHE B 339      25.690  -2.518 -39.841  1.00 19.72 LIG 0.26  C 
ATOM     18  CG  PRO B 340      22.247  -2.551 -40.856  1.00 24.91 LIG 0.02  C 
ATOM     19  CB  PRO B 340      22.746  -1.401 -41.625  1.00 23.27 LIG 0.04  C 
ATOM     20 O    PHE B 339      26.678  -2.111 -40.469  1.00 19.38 LIG-0.27  OA
BRANCH 17 21
ATOM     21  CA  PHE B 339      25.842  -3.369 -38.581  1.00 21.94 LIG 0.40  C 
ATOM     22  N   PHE B 339      26.963  -4.289 -38.692  1.00 23.90 LIG 0.61  N 
BRANCH 21 23
ATOM     23  CB  PHE B 339      26.039  -2.475 -37.364  1.00 24.29 LIG 0.09  C 
BRANCH 23 24
ATOM     24  CG  PHE B 339      27.395  -1.835 -37.288  1.00 28.97 LIG-0.06  A 
ATOM     25  CD1 PHE B 339      28.412  -2.411 -36.530  1.00 31.92 LIG 0.01  A 
ATOM     26  CE1 PHE B 339      29.669  -1.824 -36.458  1.00 33.96 LIG 0.00  A 
ATOM     27  CZ  PHE B 339      29.922  -0.653 -37.166  1.00 35.90 LIG 0.00  A 
ATOM     28  CE2 PHE B 339      28.915  -0.070 -37.937  1.00 35.56 LIG 0.00  A 
ATOM     29  CD2 PHE B 339      27.658  -0.667 -37.992  1.00 33.37 LIG 0.01  A 
ENDBRANCH 23 24
ENDBRANCH 21 23
ENDBRANCH 17 21
ENDBRANCH 11 14
ENDBRANCH 5 10
ENDBRANCH 1 5
BRANCH 3 30
ATOM     30  CA  ASP B 342      28.474   3.496 -41.339  1.00 16.21 LIG 0.19  C 
BRANCH 30 31
ATOM     31  CB  ASP B 342      29.108   2.710 -42.470  1.00 18.68 LIG 0.15  C 
BRANCH 31 32
ATOM     32  CG  ASP B 342      30.540   2.384 -42.249  1.00 22.92 LIG 0.17  C 
ATOM     33 OD1  ASP B 342      31.155   1.625 -43.044  1.00 25.81 LIG-0.65  OA
ATOM     34 OD2  ASP B 342      31.041   2.916 -41.240  1.00 25.94 LIG-0.65  OA
ENDBRANCH 31 32
ENDBRANCH 30 31
BRANCH 30 35
ATOM     35  C   ASP B 342      28.680   4.977 -41.685  1.00 16.03 LIG 0.24  C 
ATOM     36  N   LEU B 343      27.565   5.714 -41.760  1.00 16.72 LIG-0.35  N 
ATOM     37 H    LEU B 343      26.779   5.374 -41.838  1.00 16.72 LIG 0.16  HD
ATOM     38 O    ASP B 342      29.811   5.445 -41.774  1.00 14.87 LIG-0.27  OA
BRANCH 36 39
ATOM     39  CA  LEU B 343      27.576   7.182 -41.715  1.00 16.14 LIG 0.18  C 
BRANCH 39 40
ATOM     40  CB  LEU B 343      28.691   7.713 -40.822  1.00 19.18 LIG 0.04  C 
BRANCH 40 41
ATOM     41  CG  LEU B 343      28.349   9.024 -40.088  1.00 20.67 LIG-0.02  C 
ATOM     42  CD1 LEU B 343      28.790  10.214 -40.960  1.00 23.87 LIG 0.01  C 
ATOM     43  CD2 LEU B 343      26.861   9.100 -39.789  1.00 22.92 LIG 0.01  C 
ENDBRANCH 40 41
ENDBRANCH 39 40
BRANCH 39 44
ATOM     44  C   LEU B 343      27.762   7.747 -43.129  1.00 14.33 LIG 0.24  C 
ATOM     45 O    LEU B 343      28.814   7.561 -43.767  1.00 16.10 LIG-0.27  OA
ATOM     46  N   ALA B 344      26.756   8.441 -43.610  1.00 14.89 LIG-0.34  N 
ATOM     47 H    ALA B 344      25.995   8.530 -43.221  1.00 14.89 LIG 0.16  HD
BRANCH 46 48
ATOM     48  CA  ALA B 344      26.880   9.140 -44.902  1.00 15.57 LIG 0.18  C 
ATOM     49  CB  ALA B 344      25.857   8.635 -45.874  1.00 18.12 LIG 0.04  C 
BRANCH 48 50
ATOM     50  C   ALA B 344      26.673  10.637 -44.697  1.00 15.03 LIG 0.20  C 
ATOM     51 OXT  ALA B 344      27.605  11.363 -44.319  1.00 16.10 LIG-0.65  OA
ATOM     52 O    ALA B 344      25.542  11.099 -45.002  1.00 15.80 LIG-0.65  OA
ENDBRANCH 48 50
ENDBRANCH 46 48
ENDBRANCH 39 44
ENDBRANCH 36 39
ENDBRANCH 30 35
ENDBRANCH 3 30
TORSDOF 18
ENDMDL
MODEL 33
USER: ADFR SOLUTION from run 169
USER: SCORE 14.879462 LL:  -4.360 LR: -11.309 RR:   0.000 FEB:  -5.940
USER: RMSD 6.322718
USER: SEED 168
USER: STATUS no improvement in best in 7 clusters for 5 generations
USER: GENES 20
USER: genes 0 Translation |==|  0.53052 0.55633 0.61200
USER: genes 1 Rotation |==|  0.48602 0.56934 0.31417 0.95876
USER: genes 2 Torsion [N]-C--CA-[N] |==|  0.07909
USER: genes 3 Torsion [C]-CA--CB-[CG] |==|  0.25537
USER: genes 4 Torsion [CA]-CB--CG-[CD1] |==|  0.36246
USER: genes 5 Torsion [C]-CA--N-[C] |==|  0.16436
USER: genes 6 Torsion [N]-C--CA-[CB] |==|  0.24646
USER: genes 7 Torsion [N]-C--CA-[N] |==|  0.37940
USER: genes 8 Torsion [C]-CA--CB-[CG] |==|  0.77445
USER: genes 9 Torsion [CA]-CB--CG-[CD1] |==|  0.27028
USER: genes 10 Torsion [C]-N--CA-[CB] |==|  0.51454
USER: genes 11 Torsion [N]-CA--CB-[CG] |==|  0.91272
USER: genes 12 Torsion [CA]-CB--CG-[OD1] |==|  0.79436
USER: genes 13 Torsion [N]-CA--C-[N] |==|  0.43333
USER: genes 14 Torsion [C]-N--CA-[C] |==|  0.76641
USER: genes 15 Torsion [N]-CA--CB-[CG] |==|  0.78945
USER: genes 16 Torsion [CA]-CB--CG-[CD1] |==|  0.29788
USER: genes 17 Torsion [N]-CA--C-[N] |==|  0.25069
USER: genes 18 Torsion [C]-N--CA-[CB] |==|  0.37987
USER: genes 19 Torsion [N]-CA--C-[OXT] |==|  0.66166
ROOT
ATOM      1  C   LEU B 341      29.385   5.450 -42.261  1.00 14.43 LIG 0.24  C 
ATOM      2 O    LEU B 341      28.306   5.580 -41.685  1.00 17.21 LIG-0.27  OA
ATOM      3  N   ASP B 342      29.844   4.279 -42.677  1.00 15.70 LIG-0.35  N 
ATOM      4 H    ASP B 342      30.544   4.178 -43.166  1.00 15.70 LIG 0.16  HD
ENDROOT
BRANCH 1 5
ATOM      5  CA  LEU B 341      30.305   6.639 -42.538  1.00 14.64 LIG 0.18  C 
BRANCH 5 6
ATOM      6  CB  LEU B 341      29.446   7.880 -42.788  1.00 15.72 LIG 0.04  C 
BRANCH 6 7
ATOM      7  CG  LEU B 341      29.169   8.695 -41.538  1.00 16.60 LIG-0.02  C 
ATOM      8  CD1 LEU B 341      29.481  10.148 -41.813  1.00 17.44 LIG 0.01  C 
ATOM      9  CD2 LEU B 341      27.737   8.502 -41.040  1.00 18.85 LIG 0.01  C 
ENDBRANCH 6 7
ENDBRANCH 5 6
BRANCH 5 10
ATOM     10  N   LEU B 341      31.143   6.443 -43.717  1.00 16.77 LIG-0.35  N 
ATOM     11  C   PRO B 340      30.600   6.232 -44.910  1.00 19.25 LIG 0.24  C 
ATOM     12 O    PRO B 340      29.386   6.276 -45.140  1.00 21.28 LIG-0.27  OA
ATOM     13 H    LEU B 341      31.989   6.477 -43.568  1.00 16.77 LIG 0.16  HD
BRANCH 11 14
ATOM     14  CA  PRO B 340      31.595   5.991 -46.023  1.00 21.04 LIG 0.18  C 
ATOM     15  N   PRO B 340      32.932   6.585 -45.782  1.00 20.95 LIG-0.34  N 
ATOM     16  CD  PRO B 340      34.008   5.587 -45.902  1.00 22.76 LIG 0.13  C 
ATOM     17  C   PHE B 339      33.051   7.907 -45.670  1.00 19.72 LIG 0.26  C 
ATOM     18  CG  PRO B 340      33.275   4.436 -46.559  1.00 24.91 LIG 0.02  C 
ATOM     19  CB  PRO B 340      31.887   4.504 -46.078  1.00 23.27 LIG 0.04  C 
ATOM     20 O    PHE B 339      32.052   8.640 -45.658  1.00 19.38 LIG-0.27  OA
BRANCH 17 21
ATOM     21  CA  PHE B 339      34.463   8.483 -45.570  1.00 21.94 LIG 0.40  C 
ATOM     22  N   PHE B 339      34.615   9.667 -46.402  1.00 23.90 LIG 0.61  N 
BRANCH 21 23
ATOM     23  CB  PHE B 339      34.783   8.836 -44.123  1.00 24.29 LIG 0.09  C 
BRANCH 23 24
ATOM     24  CG  PHE B 339      34.226  10.158 -43.679  1.00 28.97 LIG-0.06  A 
ATOM     25  CD1 PHE B 339      33.025  10.225 -42.977  1.00 31.92 LIG 0.01  A 
ATOM     26  CE1 PHE B 339      32.507  11.445 -42.562  1.00 33.96 LIG 0.00  A 
ATOM     27  CZ  PHE B 339      33.206  12.617 -42.835  1.00 35.90 LIG 0.00  A 
ATOM     28  CE2 PHE B 339      34.415  12.564 -43.530  1.00 35.56 LIG 0.00  A 
ATOM     29  CD2 PHE B 339      34.917  11.333 -43.946  1.00 33.37 LIG 0.01  A 
ENDBRANCH 23 24
ENDBRANCH 21 23
ENDBRANCH 17 21
ENDBRANCH 11 14
ENDBRANCH 5 10
ENDBRANCH 1 5
BRANCH 3 30
ATOM     30  CA  ASP B 342      29.164   3.039 -42.315  1.00 16.21 LIG 0.19  C 
BRANCH 30 31
ATOM     31  CB  ASP B 342      29.970   1.855 -42.812  1.00 18.68 LIG 0.15  C 
BRANCH 31 32
ATOM     32  CG  ASP B 342      30.727   2.123 -44.061  1.00 22.92 LIG 0.17  C 
ATOM     33 OD1  ASP B 342      30.133   2.198 -45.169  1.00 25.81 LIG-0.65  OA
ATOM     34 OD2  ASP B 342      31.956   2.257 -43.901  1.00 25.94 LIG-0.65  OA
ENDBRANCH 31 32
ENDBRANCH 30 31
BRANCH 30 35
ATOM     35  C   ASP B 342      29.063   2.874 -40.793  1.00 16.03 LIG 0.24  C 
ATOM     36  N   LEU B 343      28.070   2.086 -40.361  1.00 16.72 LIG-0.35  N 
ATOM     37 H    LEU B 343      27.398   1.864 -40.849  1.00 16.72 LIG 0.16  HD
ATOM     38 O    ASP B 342      29.915   3.357 -40.054  1.00 14.87 LIG-0.27  OA
BRANCH 36 39
ATOM     39  CA  LEU B 343      28.032   1.522 -39.006  1.00 16.14 LIG 0.18  C 
BRANCH 39 40
ATOM     40  CB  LEU B 343      26.607   1.209 -38.563  1.00 19.18 LIG 0.04  C 
BRANCH 40 41
ATOM     41  CG  LEU B 343      25.779   2.445 -38.162  1.00 20.67 LIG-0.02  C 
ATOM     42  CD1 LEU B 343      24.735   2.725 -39.258  1.00 23.87 LIG 0.01  C 
ATOM     43  CD2 LEU B 343      25.102   2.224 -36.819  1.00 22.92 LIG 0.01  C 
ENDBRANCH 40 41
ENDBRANCH 39 40
BRANCH 39 44
ATOM     44  C   LEU B 343      28.862   0.234 -38.952  1.00 14.33 LIG 0.24  C 
ATOM     45 O    LEU B 343      28.349  -0.876 -39.183  1.00 16.10 LIG-0.27  OA
ATOM     46  N   ALA B 344      30.129   0.376 -38.639  1.00 14.89 LIG-0.34  N 
ATOM     47 H    ALA B 344      30.525   1.133 -38.540  1.00 14.89 LIG 0.16  HD
BRANCH 46 48
ATOM     48  CA  ALA B 344      30.985  -0.805 -38.428  1.00 15.57 LIG 0.18  C 
ATOM     49  CB  ALA B 344      32.317  -0.615 -39.089  1.00 18.12 LIG 0.04  C 
BRANCH 48 50
ATOM     50  C   ALA B 344      31.199  -1.024 -36.935  1.00 15.03 LIG 0.20  C 
ATOM     51 OXT  ALA B 344      32.340  -1.037 -36.449  1.00 16.10 LIG-0.65  OA
ATOM     52 O    ALA B 344      30.164  -1.113 -36.222  1.00 15.80 LIG-0.65  OA
ENDBRANCH 48 50
ENDBRANCH 46 48
ENDBRANCH 39 44
ENDBRANCH 36 39
ENDBRANCH 30 35
ENDBRANCH 3 30
TORSDOF 18
ENDMDL
MODEL 34
USER: ADFR SOLUTION from run 122
USER: SCORE 14.093684 LL:  -3.765 LR: -11.296 RR:   0.000 FEB:  -5.926
USER: RMSD 10.459991
USER: SEED 121
USER: STATUS no improvement in best in 13 clusters for 5 generations
USER: GENES 20
USER: genes 0 Translation |==|  0.56257 0.61929 0.56132
USER: genes 1 Rotation |==|  0.97764 0.64755 0.49117 0.50299
USER: genes 2 Torsion [N]-C--CA-[N] |==|  0.46312
USER: genes 3 Torsion [C]-CA--CB-[CG] |==|  0.99357
USER: genes 4 Torsion [CA]-CB--CG-[CD1] |==|  0.31846
USER: genes 5 Torsion [C]-CA--N-[C] |==|  0.73829
USER: genes 6 Torsion [N]-C--CA-[CB] |==|  0.80089
USER: genes 7 Torsion [N]-C--CA-[N] |==|  0.45450
USER: genes 8 Torsion [C]-CA--CB-[CG] |==|  0.30553
USER: genes 9 Torsion [CA]-CB--CG-[CD1] |==|  0.56167
USER: genes 10 Torsion [C]-N--CA-[CB] |==|  0.24155
USER: genes 11 Torsion [N]-CA--CB-[CG] |==|  0.69154
USER: genes 12 Torsion [CA]-CB--CG-[OD1] |==|  0.89250
USER: genes 13 Torsion [N]-CA--C-[N] |==|  0.96129
USER: genes 14 Torsion [C]-N--CA-[C] |==|  0.58376
USER: genes 15 Torsion [N]-CA--CB-[CG] |==|  0.88877
USER: genes 16 Torsion [CA]-CB--CG-[CD1] |==|  0.28272
USER: genes 17 Torsion [N]-CA--C-[N] |==|  0.43673
USER: genes 18 Torsion [C]-N--CA-[CB] |==|  0.86241
USER: genes 19 Torsion [N]-CA--C-[OXT] |==|  0.62782
ROOT
ATOM      1  C   LEU B 341      30.010   6.820 -43.363  1.00 14.43 LIG 0.24  C 
ATOM      2 O    LEU B 341      28.799   6.868 -43.577  1.00 17.21 LIG-0.27  OA
ATOM      3  N   ASP B 342      30.756   7.901 -43.197  1.00 15.70 LIG-0.35  N 
ATOM      4 H    ASP B 342      31.580   7.890 -42.950  1.00 15.70 LIG 0.16  HD
ENDROOT
BRANCH 1 5
ATOM      5  CA  LEU B 341      30.767   5.495 -43.283  1.00 14.64 LIG 0.18  C 
BRANCH 5 6
ATOM      6  CB  LEU B 341      31.581   5.313 -44.566  1.00 15.72 LIG 0.04  C 
BRANCH 6 7
ATOM      7  CG  LEU B 341      31.388   6.428 -45.577  1.00 16.60 LIG-0.02  C 
ATOM      8  CD1 LEU B 341      32.690   7.177 -45.746  1.00 17.44 LIG 0.01  C 
ATOM      9  CD2 LEU B 341      30.855   5.901 -46.909  1.00 18.85 LIG 0.01  C 
ENDBRANCH 6 7
ENDBRANCH 5 6
BRANCH 5 10
ATOM     10  N   LEU B 341      29.879   4.342 -43.162  1.00 16.77 LIG-0.35  N 
ATOM     11  C   PRO B 340      29.570   3.844 -41.970  1.00 19.25 LIG 0.24  C 
ATOM     12 O    PRO B 340      29.912   4.349 -40.895  1.00 21.28 LIG-0.27  OA
ATOM     13 H    LEU B 341      29.588   4.030 -43.909  1.00 16.77 LIG 0.16  HD
BRANCH 11 14
ATOM     14  CA  PRO B 340      28.688   2.616 -42.009  1.00 21.04 LIG 0.18  C 
ATOM     15  N   PRO B 340      28.457   1.991 -40.685  1.00 20.95 LIG-0.34  N 
ATOM     16  CD  PRO B 340      27.022   1.835 -40.393  1.00 22.76 LIG 0.13  C 
ATOM     17  C   PHE B 339      29.489   1.492 -40.007  1.00 19.72 LIG 0.26  C 
ATOM     18  CG  PRO B 340      26.410   2.091 -41.754  1.00 24.91 LIG 0.02  C 
ATOM     19  CB  PRO B 340      27.297   3.051 -42.429  1.00 23.27 LIG 0.04  C 
ATOM     20 O    PHE B 339      30.651   1.635 -40.415  1.00 19.38 LIG-0.27  OA
BRANCH 17 21
ATOM     21  CA  PHE B 339      29.185   0.728 -38.719  1.00 21.94 LIG 0.40  C 
ATOM     22  N   PHE B 339      30.323  -0.074 -38.295  1.00 23.90 LIG 0.61  N 
BRANCH 21 23
ATOM     23  CB  PHE B 339      28.808   1.700 -37.609  1.00 24.29 LIG 0.09  C 
BRANCH 23 24
ATOM     24  CG  PHE B 339      27.361   1.643 -37.212  1.00 28.97 LIG-0.06  A 
ATOM     25  CD1 PHE B 339      26.754   2.725 -36.579  1.00 31.92 LIG 0.01  A 
ATOM     26  CE1 PHE B 339      25.415   2.677 -36.211  1.00 33.96 LIG 0.00  A 
ATOM     27  CZ  PHE B 339      24.665   1.539 -36.493  1.00 35.90 LIG 0.00  A 
ATOM     28  CE2 PHE B 339      25.259   0.451 -37.135  1.00 35.56 LIG 0.00  A 
ATOM     29  CD2 PHE B 339      26.604   0.512 -37.490  1.00 33.37 LIG 0.01  A 
ENDBRANCH 23 24
ENDBRANCH 21 23
ENDBRANCH 17 21
ENDBRANCH 11 14
ENDBRANCH 5 10
ENDBRANCH 1 5
BRANCH 3 30
ATOM     30  CA  ASP B 342      30.206   9.232 -43.434  1.00 16.21 LIG 0.19  C 
BRANCH 30 31
ATOM     31  CB  ASP B 342      29.538   9.738 -42.170  1.00 18.68 LIG 0.15  C 
BRANCH 31 32
ATOM     32  CG  ASP B 342      28.059   9.834 -42.267  1.00 22.92 LIG 0.17  C 
ATOM     33 OD1  ASP B 342      27.510  10.228 -43.329  1.00 25.81 LIG-0.65  OA
ATOM     34 OD2  ASP B 342      27.451   9.499 -41.232  1.00 25.94 LIG-0.65  OA
ENDBRANCH 31 32
ENDBRANCH 30 31
BRANCH 30 35
ATOM     35  C   ASP B 342      31.307  10.248 -43.766  1.00 16.03 LIG 0.24  C 
ATOM     36  N   LEU B 343      32.559   9.850 -43.504  1.00 16.72 LIG-0.35  N 
ATOM     37 H    LEU B 343      32.745   9.188 -42.988  1.00 16.72 LIG 0.16  HD
ATOM     38 O    ASP B 342      31.035  11.302 -44.332  1.00 14.87 LIG-0.27  OA
BRANCH 36 39
ATOM     39  CA  LEU B 343      33.740  10.508 -44.075  1.00 16.14 LIG 0.18  C 
BRANCH 39 40
ATOM     40  CB  LEU B 343      34.230  11.654 -43.197  1.00 19.18 LIG 0.04  C 
BRANCH 40 41
ATOM     41  CG  LEU B 343      33.106  12.509 -42.580  1.00 20.67 LIG-0.02  C 
ATOM     42  CD1 LEU B 343      32.915  12.098 -41.109  1.00 23.87 LIG 0.01  C 
ATOM     43  CD2 LEU B 343      33.438  13.988 -42.686  1.00 22.92 LIG 0.01  C 
ENDBRANCH 40 41
ENDBRANCH 39 40
BRANCH 39 44
ATOM     44  C   LEU B 343      34.876   9.492 -44.243  1.00 14.33 LIG 0.24  C 
ATOM     45 O    LEU B 343      34.920   8.453 -43.560  1.00 16.10 LIG-0.27  OA
ATOM     46  N   ALA B 344      35.794   9.792 -45.133  1.00 14.89 LIG-0.34  N 
ATOM     47 H    ALA B 344      35.755  10.467 -45.665  1.00 14.89 LIG 0.16  HD
BRANCH 46 48
ATOM     48  CA  ALA B 344      36.996   8.954 -45.281  1.00 15.57 LIG 0.18  C 
ATOM     49  CB  ALA B 344      37.633   8.705 -43.946  1.00 18.12 LIG 0.04  C 
BRANCH 48 50
ATOM     50  C   ALA B 344      36.615   7.616 -45.905  1.00 15.03 LIG 0.20  C 
ATOM     51 OXT  ALA B 344      37.044   6.550 -45.439  1.00 16.10 LIG-0.65  OA
ATOM     52 O    ALA B 344      35.792   7.650 -46.858  1.00 15.80 LIG-0.65  OA
ENDBRANCH 48 50
ENDBRANCH 46 48
ENDBRANCH 39 44
ENDBRANCH 36 39
ENDBRANCH 30 35
ENDBRANCH 3 30
TORSDOF 18
ENDMDL
MODEL 35
USER: ADFR SOLUTION from run 57
USER: SCORE 15.656662 LL:  -4.688 LR: -11.295 RR:   0.000 FEB:  -5.925
USER: RMSD 10.712578
USER: SEED 56
USER: STATUS no improvement in best in 6 clusters for 5 generations
USER: GENES 20
USER: genes 0 Translation |==|  0.55598 0.43145 0.64211
USER: genes 1 Rotation |==|  0.14891 0.57866 0.83562 0.58891
USER: genes 2 Torsion [N]-C--CA-[N] |==|  0.45556
USER: genes 3 Torsion [C]-CA--CB-[CG] |==|  0.73076
USER: genes 4 Torsion [CA]-CB--CG-[CD1] |==|  0.27735
USER: genes 5 Torsion [C]-CA--N-[C] |==|  0.80358
USER: genes 6 Torsion [N]-C--CA-[CB] |==|  0.27387
USER: genes 7 Torsion [N]-C--CA-[N] |==|  0.43797
USER: genes 8 Torsion [C]-CA--CB-[CG] |==|  0.32572
USER: genes 9 Torsion [CA]-CB--CG-[CD1] |==|  0.15458
USER: genes 10 Torsion [C]-N--CA-[CB] |==|  0.53930
USER: genes 11 Torsion [N]-CA--CB-[CG] |==|  0.83747
USER: genes 12 Torsion [CA]-CB--CG-[OD1] |==|  0.20024
USER: genes 13 Torsion [N]-CA--C-[N] |==|  0.45068
USER: genes 14 Torsion [C]-N--CA-[C] |==|  0.64815
USER: genes 15 Torsion [N]-CA--CB-[CG] |==|  0.67215
USER: genes 16 Torsion [CA]-CB--CG-[CD1] |==|  0.75477
USER: genes 17 Torsion [N]-CA--C-[N] |==|  0.43020
USER: genes 18 Torsion [C]-N--CA-[CB] |==|  0.19518
USER: genes 19 Torsion [N]-CA--C-[OXT] |==|  0.46304
ROOT
ATOM      1  C   LEU B 341      29.882   2.734 -41.606  1.00 14.43 LIG 0.24  C 
ATOM      2 O    LEU B 341      29.945   3.473 -40.624  1.00 17.21 LIG-0.27  OA
ATOM      3  N   ASP B 342      30.347   3.077 -42.798  1.00 15.70 LIG-0.35  N 
ATOM      4 H    ASP B 342      30.403   2.543 -43.469  1.00 15.70 LIG 0.16  HD
ENDROOT
BRANCH 1 5
ATOM      5  CA  LEU B 341      29.242   1.348 -41.537  1.00 14.64 LIG 0.18  C 
BRANCH 5 6
ATOM      6  CB  LEU B 341      27.846   1.417 -42.161  1.00 15.72 LIG 0.04  C 
BRANCH 6 7
ATOM      7  CG  LEU B 341      26.730   1.590 -41.147  1.00 16.60 LIG-0.02  C 
ATOM      8  CD1 LEU B 341      26.318   3.043 -41.103  1.00 17.44 LIG 0.01  C 
ATOM      9  CD2 LEU B 341      25.547   0.668 -41.442  1.00 18.85 LIG 0.01  C 
ENDBRANCH 6 7
ENDBRANCH 5 6
BRANCH 5 10
ATOM     10  N   LEU B 341      29.085   0.864 -40.169  1.00 16.77 LIG-0.35  N 
ATOM     11  C   PRO B 340      30.142   0.504 -39.449  1.00 19.25 LIG 0.24  C 
ATOM     12 O    PRO B 340      31.314   0.632 -39.822  1.00 21.28 LIG-0.27  OA
ATOM     13 H    LEU B 341      28.274   0.837 -39.886  1.00 16.77 LIG 0.16  HD
BRANCH 11 14
ATOM     14  CA  PRO B 340      29.816  -0.029 -38.072  1.00 21.04 LIG 0.18  C 
ATOM     15  N   PRO B 340      28.436   0.267 -37.617  1.00 20.95 LIG-0.34  N 
ATOM     16  CD  PRO B 340      27.718  -0.952 -37.209  1.00 22.76 LIG 0.13  C 
ATOM     17  C   PHE B 339      28.058   1.533 -37.452  1.00 19.72 LIG 0.26  C 
ATOM     18  CG  PRO B 340      28.852  -1.953 -37.126  1.00 24.91 LIG 0.02  C 
ATOM     19  CB  PRO B 340      29.837  -1.543 -38.138  1.00 23.27 LIG 0.04  C 
ATOM     20 O    PHE B 339      28.804   2.470 -37.773  1.00 19.38 LIG-0.27  OA
BRANCH 17 21
ATOM     21  CA  PHE B 339      26.680   1.786 -36.842  1.00 21.94 LIG 0.40  C 
ATOM     22  N   PHE B 339      26.596   3.109 -36.245  1.00 23.90 LIG 0.61  N 
BRANCH 21 23
ATOM     23  CB  PHE B 339      25.601   1.641 -37.907  1.00 24.29 LIG 0.09  C 
BRANCH 23 24
ATOM     24  CG  PHE B 339      24.627   0.529 -37.643  1.00 28.97 LIG-0.06  A 
ATOM     25  CD1 PHE B 339      23.915   0.475 -36.447  1.00 31.92 LIG 0.01  A 
ATOM     26  CE1 PHE B 339      23.011  -0.551 -36.200  1.00 33.96 LIG 0.00  A 
ATOM     27  CZ  PHE B 339      22.800  -1.530 -37.167  1.00 35.90 LIG 0.00  A 
ATOM     28  CE2 PHE B 339      23.501  -1.482 -38.373  1.00 35.56 LIG 0.00  A 
ATOM     29  CD2 PHE B 339      24.409  -0.452 -38.602  1.00 33.37 LIG 0.01  A 
ENDBRANCH 23 24
ENDBRANCH 21 23
ENDBRANCH 17 21
ENDBRANCH 11 14
ENDBRANCH 5 10
ENDBRANCH 1 5
BRANCH 3 30
ATOM     30  CA  ASP B 342      30.811   4.436 -43.056  1.00 16.21 LIG 0.19  C 
BRANCH 30 31
ATOM     31  CB  ASP B 342      30.954   4.649 -44.550  1.00 18.68 LIG 0.15  C 
BRANCH 31 32
ATOM     32  CG  ASP B 342      31.893   3.703 -45.206  1.00 22.92 LIG 0.17  C 
ATOM     33 OD1  ASP B 342      31.579   2.494 -45.364  1.00 25.81 LIG-0.65  OA
ATOM     34 OD2  ASP B 342      32.972   4.212 -45.567  1.00 25.94 LIG-0.65  OA
ENDBRANCH 31 32
ENDBRANCH 30 31
BRANCH 30 35
ATOM     35  C   ASP B 342      29.795   5.481 -42.575  1.00 16.03 LIG 0.24  C 
ATOM     36  N   LEU B 343      30.270   6.724 -42.425  1.00 16.72 LIG-0.35  N 
ATOM     37 H    LEU B 343      31.109   6.905 -42.374  1.00 16.72 LIG 0.16  HD
ATOM     38 O    ASP B 342      28.610   5.188 -42.450  1.00 14.87 LIG-0.27  OA
BRANCH 36 39
ATOM     39  CA  LEU B 343      29.400   7.904 -42.333  1.00 16.14 LIG 0.18  C 
BRANCH 39 40
ATOM     40  CB  LEU B 343      29.447   8.535 -40.947  1.00 19.18 LIG 0.04  C 
BRANCH 40 41
ATOM     41  CG  LEU B 343      28.099   8.539 -40.203  1.00 20.67 LIG-0.02  C 
ATOM     42  CD1 LEU B 343      27.325   9.818 -40.575  1.00 23.87 LIG 0.01  C 
ATOM     43  CD2 LEU B 343      27.289   7.301 -40.552  1.00 22.92 LIG 0.01  C 
ENDBRANCH 40 41
ENDBRANCH 39 40
BRANCH 39 44
ATOM     44  C   LEU B 343      29.827   8.950 -43.370  1.00 14.33 LIG 0.24  C 
ATOM     45 O    LEU B 343      30.995   8.999 -43.797  1.00 16.10 LIG-0.27  OA
ATOM     46  N   ALA B 344      28.896   9.789 -43.762  1.00 14.89 LIG-0.34  N 
ATOM     47 H    ALA B 344      28.068   9.738 -43.535  1.00 14.89 LIG 0.16  HD
BRANCH 46 48
ATOM     48  CA  ALA B 344      29.229  10.915 -44.651  1.00 15.57 LIG 0.18  C 
ATOM     49  CB  ALA B 344      29.561  10.420 -46.027  1.00 18.12 LIG 0.04  C 
BRANCH 48 50
ATOM     50  C   ALA B 344      28.042  11.868 -44.740  1.00 15.03 LIG 0.20  C 
ATOM     51 OXT  ALA B 344      28.169  13.001 -45.227  1.00 16.10 LIG-0.65  OA
ATOM     52 O    ALA B 344      26.927  11.418 -44.365  1.00 15.80 LIG-0.65  OA
ENDBRANCH 48 50
ENDBRANCH 46 48
ENDBRANCH 39 44
ENDBRANCH 36 39
ENDBRANCH 30 35
ENDBRANCH 3 30
TORSDOF 18
ENDMDL
MODEL 36
USER: ADFR SOLUTION from run 57
USER: SCORE 15.336461 LL:  -4.858 LR: -11.285 RR:   0.000 FEB:  -5.915
USER: RMSD 11.855872
USER: SEED 56
USER: STATUS no improvement in best in 6 clusters for 5 generations
USER: GENES 20
USER: genes 0 Translation |==|  0.46122 0.39920 0.71548
USER: genes 1 Rotation |==|  0.54068 0.26346 0.06203 0.52407
USER: genes 2 Torsion [N]-C--CA-[N] |==|  0.41477
USER: genes 3 Torsion [C]-CA--CB-[CG] |==|  0.19997
USER: genes 4 Torsion [CA]-CB--CG-[CD1] |==|  0.12492
USER: genes 5 Torsion [C]-CA--N-[C] |==|  0.80008
USER: genes 6 Torsion [N]-C--CA-[CB] |==|  0.57249
USER: genes 7 Torsion [N]-C--CA-[N] |==|  0.37020
USER: genes 8 Torsion [C]-CA--CB-[CG] |==|  0.03656
USER: genes 9 Torsion [CA]-CB--CG-[CD1] |==|  0.22328
USER: genes 10 Torsion [C]-N--CA-[CB] |==|  0.52251
USER: genes 11 Torsion [N]-CA--CB-[CG] |==|  0.57732
USER: genes 12 Torsion [CA]-CB--CG-[OD1] |==|  0.68227
USER: genes 13 Torsion [N]-CA--C-[N] |==|  0.31448
USER: genes 14 Torsion [C]-N--CA-[C] |==|  0.67477
USER: genes 15 Torsion [N]-CA--CB-[CG] |==|  0.59300
USER: genes 16 Torsion [CA]-CB--CG-[CD1] |==|  0.73893
USER: genes 17 Torsion [N]-CA--C-[N] |==|  0.39446
USER: genes 18 Torsion [C]-N--CA-[CB] |==|  0.27553
USER: genes 19 Torsion [N]-CA--C-[OXT] |==|  0.66534
ROOT
ATOM      1  C   LEU B 341      28.034   2.033 -40.010  1.00 14.43 LIG 0.24  C 
ATOM      2 O    LEU B 341      28.928   2.789 -40.387  1.00 17.21 LIG-0.27  OA
ATOM      3  N   ASP B 342      26.873   1.920 -40.638  1.00 15.70 LIG-0.35  N 
ATOM      4 H    ASP B 342      26.275   1.330 -40.452  1.00 15.70 LIG 0.16  HD
ENDROOT
BRANCH 1 5
ATOM      5  CA  LEU B 341      28.182   1.159 -38.766  1.00 14.64 LIG 0.18  C 
BRANCH 5 6
ATOM      6  CB  LEU B 341      27.724   1.958 -37.544  1.00 15.72 LIG 0.04  C 
BRANCH 6 7
ATOM      7  CG  LEU B 341      26.222   2.166 -37.476  1.00 16.60 LIG-0.02  C 
ATOM      8  CD1 LEU B 341      25.524   0.863 -37.790  1.00 17.44 LIG 0.01  C 
ATOM      9  CD2 LEU B 341      25.789   2.736 -36.125  1.00 18.85 LIG 0.01  C 
ENDBRANCH 6 7
ENDBRANCH 5 6
BRANCH 5 10
ATOM     10  N   LEU B 341      29.561   0.745 -38.525  1.00 16.77 LIG-0.35  N 
ATOM     11  C   PRO B 340      30.146  -0.158 -39.304  1.00 19.25 LIG 0.24  C 
ATOM     12 O    PRO B 340      29.632  -0.638 -40.320  1.00 21.28 LIG-0.27  OA
ATOM     13 H    LEU B 341      29.941   1.129 -37.856  1.00 16.77 LIG 0.16  HD
BRANCH 11 14
ATOM     14  CA  PRO B 340      31.555  -0.525 -38.895  1.00 21.04 LIG 0.18  C 
ATOM     15  N   PRO B 340      31.639  -1.693 -37.986  1.00 20.95 LIG-0.34  N 
ATOM     16  CD  PRO B 340      32.547  -2.730 -38.506  1.00 22.76 LIG 0.13  C 
ATOM     17  C   PHE B 339      31.076  -1.629 -36.781  1.00 19.72 LIG 0.26  C 
ATOM     18  CG  PRO B 340      33.261  -1.976 -39.608  1.00 24.91 LIG 0.02  C 
ATOM     19  CB  PRO B 340      32.295  -0.998 -40.130  1.00 23.27 LIG 0.04  C 
ATOM     20 O    PHE B 339      30.393  -0.650 -36.447  1.00 19.38 LIG-0.27  OA
BRANCH 17 21
ATOM     21  CA  PHE B 339      31.314  -2.797 -35.826  1.00 21.94 LIG 0.40  C 
ATOM     22  N   PHE B 339      31.682  -2.334 -34.497  1.00 23.90 LIG 0.61  N 
BRANCH 21 23
ATOM     23  CB  PHE B 339      30.063  -3.661 -35.733  1.00 24.29 LIG 0.09  C 
BRANCH 23 24
ATOM     24  CG  PHE B 339      29.039  -3.372 -36.793  1.00 28.97 LIG-0.06  A 
ATOM     25  CD1 PHE B 339      29.175  -3.897 -38.076  1.00 31.92 LIG 0.01  A 
ATOM     26  CE1 PHE B 339      28.230  -3.633 -39.059  1.00 33.96 LIG 0.00  A 
ATOM     27  CZ  PHE B 339      27.122  -2.847 -38.754  1.00 35.90 LIG 0.00  A 
ATOM     28  CE2 PHE B 339      26.969  -2.322 -37.470  1.00 35.56 LIG 0.00  A 
ATOM     29  CD2 PHE B 339      27.930  -2.590 -36.498  1.00 33.37 LIG 0.01  A 
ENDBRANCH 23 24
ENDBRANCH 21 23
ENDBRANCH 17 21
ENDBRANCH 11 14
ENDBRANCH 5 10
ENDBRANCH 1 5
BRANCH 3 30
ATOM     30  CA  ASP B 342      26.521   2.827 -41.726  1.00 16.21 LIG 0.19  C 
BRANCH 30 31
ATOM     31  CB  ASP B 342      25.075   2.606 -42.124  1.00 18.68 LIG 0.15  C 
BRANCH 31 32
ATOM     32  CG  ASP B 342      24.782   2.936 -43.542  1.00 22.92 LIG 0.17  C 
ATOM     33 OD1  ASP B 342      24.014   3.891 -43.833  1.00 25.81 LIG-0.65  OA
ATOM     34 OD2  ASP B 342      25.351   2.200 -44.371  1.00 25.94 LIG-0.65  OA
ENDBRANCH 31 32
ENDBRANCH 30 31
BRANCH 30 35
ATOM     35  C   ASP B 342      26.621   4.296 -41.292  1.00 16.03 LIG 0.24  C 
ATOM     36  N   LEU B 343      27.584   5.011 -41.886  1.00 16.72 LIG-0.35  N 
ATOM     37 H    LEU B 343      28.245   4.655 -42.305  1.00 16.72 LIG 0.16  HD
ATOM     38 O    ASP B 342      25.790   4.779 -40.529  1.00 14.87 LIG-0.27  OA
BRANCH 36 39
ATOM     39  CA  LEU B 343      27.604   6.479 -41.882  1.00 16.14 LIG 0.18  C 
BRANCH 39 40
ATOM     40  CB  LEU B 343      28.884   7.025 -41.258  1.00 19.18 LIG 0.04  C 
BRANCH 40 41
ATOM     41  CG  LEU B 343      28.703   8.348 -40.490  1.00 20.67 LIG-0.02  C 
ATOM     42  CD1 LEU B 343      29.019   9.523 -41.435  1.00 23.87 LIG 0.01  C 
ATOM     43  CD2 LEU B 343      27.289   8.464 -39.944  1.00 22.92 LIG 0.01  C 
ENDBRANCH 40 41
ENDBRANCH 39 40
BRANCH 39 44
ATOM     44  C   LEU B 343      27.487   7.008 -43.316  1.00 14.33 LIG 0.24  C 
ATOM     45 O    LEU B 343      28.063   6.443 -44.264  1.00 16.10 LIG-0.27  OA
ATOM     46  N   ALA B 344      26.759   8.090 -43.475  1.00 14.89 LIG-0.34  N 
ATOM     47 H    ALA B 344      26.297   8.463 -42.853  1.00 14.89 LIG 0.16  HD
BRANCH 46 48
ATOM     48  CA  ALA B 344      26.688   8.758 -44.787  1.00 15.57 LIG 0.18  C 
ATOM     49  CB  ALA B 344      25.435   8.368 -45.510  1.00 18.12 LIG 0.04  C 
BRANCH 48 50
ATOM     50  C   ALA B 344      26.699  10.271 -44.593  1.00 15.03 LIG 0.20  C 
ATOM     51 OXT  ALA B 344      25.759  10.972 -44.997  1.00 16.10 LIG-0.65  OA
ATOM     52 O    ALA B 344      27.665  10.751 -43.942  1.00 15.80 LIG-0.65  OA
ENDBRANCH 48 50
ENDBRANCH 46 48
ENDBRANCH 39 44
ENDBRANCH 36 39
ENDBRANCH 30 35
ENDBRANCH 3 30
TORSDOF 18
ENDMDL
MODEL 37
USER: ADFR SOLUTION from run 145
USER: SCORE 14.220684 LL:  -3.702 LR: -11.263 RR:   0.000 FEB:  -5.893
USER: RMSD 4.203368
USER: SEED 144
USER: STATUS no improvement in best in 5 clusters for 5 generations
USER: GENES 20
USER: genes 0 Translation |==|  0.50070 0.51955 0.62978
USER: genes 1 Rotation |==|  0.30876 0.89384 0.43325 0.73208
USER: genes 2 Torsion [N]-C--CA-[N] |==|  0.06143
USER: genes 3 Torsion [C]-CA--CB-[CG] |==|  0.19816
USER: genes 4 Torsion [CA]-CB--CG-[CD1] |==|  0.08896
USER: genes 5 Torsion [C]-CA--N-[C] |==|  0.17972
USER: genes 6 Torsion [N]-C--CA-[CB] |==|  0.29767
USER: genes 7 Torsion [N]-C--CA-[N] |==|  0.86272
USER: genes 8 Torsion [C]-CA--CB-[CG] |==|  0.14066
USER: genes 9 Torsion [CA]-CB--CG-[CD1] |==|  0.24936
USER: genes 10 Torsion [C]-N--CA-[CB] |==|  0.79992
USER: genes 11 Torsion [N]-CA--CB-[CG] |==|  0.89832
USER: genes 12 Torsion [CA]-CB--CG-[OD1] |==|  0.38389
USER: genes 13 Torsion [N]-CA--C-[N] |==|  0.20556
USER: genes 14 Torsion [C]-N--CA-[C] |==|  0.75396
USER: genes 15 Torsion [N]-CA--CB-[CG] |==|  0.14385
USER: genes 16 Torsion [CA]-CB--CG-[CD1] |==|  0.40882
USER: genes 17 Torsion [N]-CA--C-[N] |==|  0.29037
USER: genes 18 Torsion [C]-N--CA-[CB] |==|  0.41894
USER: genes 19 Torsion [N]-CA--C-[OXT] |==|  0.28981
ROOT
ATOM      1  C   LEU B 341      28.804   4.650 -41.874  1.00 14.43 LIG 0.24  C 
ATOM      2 O    LEU B 341      29.624   4.901 -40.992  1.00 17.21 LIG-0.27  OA
ATOM      3  N   ASP B 342      28.516   3.417 -42.261  1.00 15.70 LIG-0.35  N 
ATOM      4 H    ASP B 342      27.879   3.214 -42.802  1.00 15.70 LIG 0.16  HD
ENDROOT
BRANCH 1 5
ATOM      5  CA  LEU B 341      28.049   5.752 -42.616  1.00 14.64 LIG 0.18  C 
BRANCH 5 6
ATOM      6  CB  LEU B 341      27.671   6.850 -41.619  1.00 15.72 LIG 0.04  C 
BRANCH 6 7
ATOM      7  CG  LEU B 341      28.852   7.673 -41.139  1.00 16.60 LIG-0.02  C 
ATOM      8  CD1 LEU B 341      29.876   7.768 -42.246  1.00 17.44 LIG 0.01  C 
ATOM      9  CD2 LEU B 341      28.418   9.052 -40.642  1.00 18.85 LIG 0.01  C 
ENDBRANCH 6 7
ENDBRANCH 5 6
BRANCH 5 10
ATOM     10  N   LEU B 341      26.812   5.277 -43.230  1.00 16.77 LIG-0.35  N 
ATOM     11  C   PRO B 340      25.808   4.834 -42.482  1.00 19.25 LIG 0.24  C 
ATOM     12 O    PRO B 340      25.790   4.874 -41.247  1.00 21.28 LIG-0.27  OA
ATOM     13 H    LEU B 341      26.799   5.310 -44.089  1.00 16.77 LIG 0.16  HD
BRANCH 11 14
ATOM     14  CA  PRO B 340      24.618   4.323 -43.262  1.00 21.04 LIG 0.18  C 
ATOM     15  N   PRO B 340      24.708   4.548 -44.725  1.00 20.95 LIG-0.34  N 
ATOM     16  CD  PRO B 340      24.528   3.300 -45.486  1.00 22.76 LIG 0.13  C 
ATOM     17  C   PHE B 339      24.753   5.793 -45.195  1.00 19.72 LIG 0.26  C 
ATOM     18  CG  PRO B 340      23.991   2.372 -44.416  1.00 24.91 LIG 0.02  C 
ATOM     19  CB  PRO B 340      24.597   2.811 -43.150  1.00 23.27 LIG 0.04  C 
ATOM     20 O    PHE B 339      24.828   6.763 -44.427  1.00 19.38 LIG-0.27  OA
BRANCH 17 21
ATOM     21  CA  PHE B 339      24.697   5.979 -46.710  1.00 21.94 LIG 0.40  C 
ATOM     22  N   PHE B 339      25.652   5.117 -47.389  1.00 23.90 LIG 0.61  N 
BRANCH 21 23
ATOM     23  CB  PHE B 339      23.294   5.683 -47.224  1.00 24.29 LIG 0.09  C 
BRANCH 23 24
ATOM     24  CG  PHE B 339      22.206   6.407 -46.484  1.00 28.97 LIG-0.06  A 
ATOM     25  CD1 PHE B 339      21.781   7.668 -46.897  1.00 31.92 LIG 0.01  A 
ATOM     26  CE1 PHE B 339      20.774   8.341 -46.216  1.00 33.96 LIG 0.00  A 
ATOM     27  CZ  PHE B 339      20.169   7.740 -45.116  1.00 35.90 LIG 0.00  A 
ATOM     28  CE2 PHE B 339      20.579   6.474 -44.697  1.00 35.56 LIG 0.00  A 
ATOM     29  CD2 PHE B 339      21.595   5.816 -45.385  1.00 33.37 LIG 0.01  A 
ENDBRANCH 23 24
ENDBRANCH 21 23
ENDBRANCH 17 21
ENDBRANCH 11 14
ENDBRANCH 5 10
ENDBRANCH 1 5
BRANCH 3 30
ATOM     30  CA  ASP B 342      29.293   2.281 -41.775  1.00 16.21 LIG 0.19  C 
BRANCH 30 31
ATOM     31  CB  ASP B 342      30.664   2.290 -42.421  1.00 18.68 LIG 0.15  C 
BRANCH 31 32
ATOM     32  CG  ASP B 342      30.662   2.743 -43.835  1.00 22.92 LIG 0.17  C 
ATOM     33 OD1  ASP B 342      31.559   3.517 -44.263  1.00 25.81 LIG-0.65  OA
ATOM     34 OD2  ASP B 342      29.721   2.297 -44.519  1.00 25.94 LIG-0.65  OA
ENDBRANCH 31 32
ENDBRANCH 30 31
BRANCH 30 35
ATOM     35  C   ASP B 342      29.536   2.368 -40.263  1.00 16.03 LIG 0.24  C 
ATOM     36  N   LEU B 343      28.477   2.099 -39.490  1.00 16.72 LIG-0.35  N 
ATOM     37 H    LEU B 343      27.668   2.097 -39.781  1.00 16.72 LIG 0.16  HD
ATOM     38 O    ASP B 342      30.664   2.569 -39.822  1.00 14.87 LIG-0.27  OA
BRANCH 36 39
ATOM     39  CA  LEU B 343      28.594   1.777 -38.062  1.00 16.14 LIG 0.18  C 
BRANCH 39 40
ATOM     40  CB  LEU B 343      27.359   2.211 -37.281  1.00 19.18 LIG 0.04  C 
BRANCH 40 41
ATOM     41  CG  LEU B 343      26.025   1.712 -37.870  1.00 20.67 LIG-0.02  C 
ATOM     42  CD1 LEU B 343      25.033   1.460 -36.719  1.00 23.87 LIG 0.01  C 
ATOM     43  CD2 LEU B 343      25.460   2.724 -38.853  1.00 22.92 LIG 0.01  C 
ENDBRANCH 40 41
ENDBRANCH 39 40
BRANCH 39 44
ATOM     44  C   LEU B 343      28.790   0.267 -37.880  1.00 14.33 LIG 0.24  C 
ATOM     45 O    LEU B 343      27.840  -0.528 -38.001  1.00 16.10 LIG-0.27  OA
ATOM     46  N   ALA B 344      30.006  -0.125 -37.579  1.00 14.89 LIG-0.34  N 
ATOM     47 H    ALA B 344      30.693   0.392 -37.554  1.00 14.89 LIG 0.16  HD
BRANCH 46 48
ATOM     48  CA  ALA B 344      30.278  -1.536 -37.252  1.00 15.57 LIG 0.18  C 
ATOM     49  CB  ALA B 344      31.681  -1.904 -37.630  1.00 18.12 LIG 0.04  C 
BRANCH 48 50
ATOM     50  C   ALA B 344      30.092  -1.761 -35.755  1.00 15.03 LIG 0.20  C 
ATOM     51 OXT  ALA B 344      29.085  -2.336 -35.318  1.00 16.10 LIG-0.65  OA
ATOM     52 O    ALA B 344      31.040  -1.403 -35.007  1.00 15.80 LIG-0.65  OA
ENDBRANCH 48 50
ENDBRANCH 46 48
ENDBRANCH 39 44
ENDBRANCH 36 39
ENDBRANCH 30 35
ENDBRANCH 3 30
TORSDOF 18
ENDMDL
MODEL 38
USER: ADFR SOLUTION from run 176
USER: SCORE 14.326891 LL:  -5.003 LR: -11.237 RR:   0.000 FEB:  -5.867
USER: RMSD 5.176676
USER: SEED 175
USER: STATUS no improvement in best in 10 clusters for 5 generations
USER: GENES 20
USER: genes 0 Translation |==|  0.40638 0.47442 0.58151
USER: genes 1 Rotation |==|  0.47209 0.40682 0.58199 0.98354
USER: genes 2 Torsion [N]-C--CA-[N] |==|  0.92564
USER: genes 3 Torsion [C]-CA--CB-[CG] |==|  0.57032
USER: genes 4 Torsion [CA]-CB--CG-[CD1] |==|  0.44959
USER: genes 5 Torsion [C]-CA--N-[C] |==|  0.80556
USER: genes 6 Torsion [N]-C--CA-[CB] |==|  0.32460
USER: genes 7 Torsion [N]-C--CA-[N] |==|  0.43807
USER: genes 8 Torsion [C]-CA--CB-[CG] |==|  0.27069
USER: genes 9 Torsion [CA]-CB--CG-[CD1] |==|  0.64386
USER: genes 10 Torsion [C]-N--CA-[CB] |==|  0.38220
USER: genes 11 Torsion [N]-CA--CB-[CG] |==|  0.06701
USER: genes 12 Torsion [CA]-CB--CG-[OD1] |==|  0.66416
USER: genes 13 Torsion [N]-CA--C-[N] |==|  0.26585
USER: genes 14 Torsion [C]-N--CA-[C] |==|  0.72250
USER: genes 15 Torsion [N]-CA--CB-[CG] |==|  0.13119
USER: genes 16 Torsion [CA]-CB--CG-[CD1] |==|  0.42811
USER: genes 17 Torsion [N]-CA--C-[N] |==|  0.30365
USER: genes 18 Torsion [C]-N--CA-[CB] |==|  0.41630
USER: genes 19 Torsion [N]-CA--C-[OXT] |==|  0.27071
ROOT
ATOM      1  C   LEU B 341      26.964   3.669 -42.924  1.00 14.43 LIG 0.24  C 
ATOM      2 O    LEU B 341      26.239   2.675 -42.902  1.00 17.21 LIG-0.27  OA
ATOM      3  N   ASP B 342      28.253   3.627 -42.623  1.00 15.70 LIG-0.35  N 
ATOM      4 H    ASP B 342      28.798   4.284 -42.728  1.00 15.70 LIG 0.16  HD
ENDROOT
BRANCH 1 5
ATOM      5  CA  LEU B 341      26.432   5.053 -43.293  1.00 14.64 LIG 0.18  C 
BRANCH 5 6
ATOM      6  CB  LEU B 341      26.523   5.229 -44.810  1.00 15.72 LIG 0.04  C 
BRANCH 6 7
ATOM      7  CG  LEU B 341      26.618   6.677 -45.253  1.00 16.60 LIG-0.02  C 
ATOM      8  CD1 LEU B 341      27.144   6.731 -46.669  1.00 17.44 LIG 0.01  C 
ATOM      9  CD2 LEU B 341      25.280   7.403 -45.112  1.00 18.85 LIG 0.01  C 
ENDBRANCH 6 7
ENDBRANCH 5 6
BRANCH 5 10
ATOM     10  N   LEU B 341      27.198   6.135 -42.680  1.00 16.77 LIG-0.35  N 
ATOM     11  C   PRO B 340      27.138   6.354 -41.372  1.00 19.25 LIG 0.24  C 
ATOM     12 O    PRO B 340      26.532   5.633 -40.572  1.00 21.28 LIG-0.27  OA
ATOM     13 H    LEU B 341      27.671   6.597 -43.229  1.00 16.77 LIG 0.16  HD
BRANCH 11 14
ATOM     14  CA  PRO B 340      27.940   7.545 -40.895  1.00 21.04 LIG 0.18  C 
ATOM     15  N   PRO B 340      28.604   8.305 -41.981  1.00 20.95 LIG-0.34  N 
ATOM     16  CD  PRO B 340      28.259   9.736 -41.941  1.00 22.76 LIG 0.13  C 
ATOM     17  C   PHE B 339      29.530   7.707 -42.728  1.00 19.72 LIG 0.26  C 
ATOM     18  CG  PRO B 340      27.621   9.851 -40.572  1.00 24.91 LIG 0.02  C 
ATOM     19  CB  PRO B 340      26.975   8.557 -40.309  1.00 23.27 LIG 0.04  C 
ATOM     20 O    PHE B 339      29.771   6.498 -42.601  1.00 19.38 LIG-0.27  OA
BRANCH 17 21
ATOM     21  CA  PHE B 339      30.290   8.569 -43.735  1.00 21.94 LIG 0.40  C 
ATOM     22  N   PHE B 339      31.568   7.971 -44.092  1.00 23.90 LIG 0.61  N 
BRANCH 21 23
ATOM     23  CB  PHE B 339      29.454   8.766 -44.993  1.00 24.29 LIG 0.09  C 
BRANCH 23 24
ATOM     24  CG  PHE B 339      28.697  10.062 -45.028  1.00 28.97 LIG-0.06  A 
ATOM     25  CD1 PHE B 339      27.328  10.080 -45.286  1.00 31.92 LIG 0.01  A 
ATOM     26  CE1 PHE B 339      26.623  11.276 -45.318  1.00 33.96 LIG 0.00  A 
ATOM     27  CZ  PHE B 339      27.289  12.473 -45.072  1.00 35.90 LIG 0.00  A 
ATOM     28  CE2 PHE B 339      28.659  12.469 -44.804  1.00 35.56 LIG 0.00  A 
ATOM     29  CD2 PHE B 339      29.353  11.261 -44.784  1.00 33.37 LIG 0.01  A 
ENDBRANCH 23 24
ENDBRANCH 21 23
ENDBRANCH 17 21
ENDBRANCH 11 14
ENDBRANCH 5 10
ENDBRANCH 1 5
BRANCH 3 30
ATOM     30  CA  ASP B 342      28.854   2.415 -42.073  1.00 16.21 LIG 0.19  C 
BRANCH 30 31
ATOM     31  CB  ASP B 342      30.197   2.171 -42.732  1.00 18.68 LIG 0.15  C 
BRANCH 31 32
ATOM     32  CG  ASP B 342      30.829   3.395 -43.286  1.00 22.92 LIG 0.17  C 
ATOM     33 OD1  ASP B 342      31.111   3.474 -44.510  1.00 25.81 LIG-0.65  OA
ATOM     34 OD2  ASP B 342      31.040   4.293 -42.447  1.00 25.94 LIG-0.65  OA
ENDBRANCH 31 32
ENDBRANCH 30 31
BRANCH 30 35
ATOM     35  C   ASP B 342      29.137   2.557 -40.572  1.00 16.03 LIG 0.24  C 
ATOM     36  N   LEU B 343      28.194   2.069 -39.756  1.00 16.72 LIG-0.35  N 
ATOM     37 H    LEU B 343      27.393   1.894 -40.014  1.00 16.72 LIG 0.16  HD
ATOM     38 O    ASP B 342      30.214   2.995 -40.178  1.00 14.87 LIG-0.27  OA
BRANCH 36 39
ATOM     39  CA  LEU B 343      28.438   1.783 -38.337  1.00 16.14 LIG 0.18  C 
BRANCH 39 40
ATOM     40  CB  LEU B 343      27.262   2.207 -37.464  1.00 19.18 LIG 0.04  C 
BRANCH 40 41
ATOM     41  CG  LEU B 343      25.885   1.757 -37.989  1.00 20.67 LIG-0.02  C 
ATOM     42  CD1 LEU B 343      24.911   1.644 -36.802  1.00 23.87 LIG 0.01  C 
ATOM     43  CD2 LEU B 343      25.359   2.737 -39.024  1.00 22.92 LIG 0.01  C 
ENDBRANCH 40 41
ENDBRANCH 39 40
BRANCH 39 44
ATOM     44  C   LEU B 343      28.686   0.283 -38.140  1.00 14.33 LIG 0.24  C 
ATOM     45 O    LEU B 343      27.764  -0.546 -38.252  1.00 16.10 LIG-0.27  OA
ATOM     46  N   ALA B 344      29.916  -0.065 -37.838  1.00 14.89 LIG-0.34  N 
ATOM     47 H    ALA B 344      30.584   0.475 -37.820  1.00 14.89 LIG 0.16  HD
BRANCH 46 48
ATOM     48  CA  ALA B 344      30.236  -1.463 -37.498  1.00 15.57 LIG 0.18  C 
ATOM     49  CB  ALA B 344      31.643  -1.793 -37.896  1.00 18.12 LIG 0.04  C 
BRANCH 48 50
ATOM     50  C   ALA B 344      30.084  -1.672 -35.995  1.00 15.03 LIG 0.20  C 
ATOM     51 OXT  ALA B 344      29.046  -2.158 -35.521  1.00 16.10 LIG-0.65  OA
ATOM     52 O    ALA B 344      31.085  -1.400 -35.282  1.00 15.80 LIG-0.65  OA
ENDBRANCH 48 50
ENDBRANCH 46 48
ENDBRANCH 39 44
ENDBRANCH 36 39
ENDBRANCH 30 35
ENDBRANCH 3 30
TORSDOF 18
ENDMDL
MODEL 39
USER: ADFR SOLUTION from run 51
USER: SCORE 15.251791 LL:  -4.860 LR: -11.223 RR:   0.000 FEB:  -5.853
USER: RMSD 11.347955
USER: SEED 50
USER: STATUS no improvement in best in 12 clusters for 5 generations
USER: GENES 20
USER: genes 0 Translation |==|  0.36311 0.46090 0.68128
USER: genes 1 Rotation |==|  0.97266 0.50237 0.42672 0.64567
USER: genes 2 Torsion [N]-C--CA-[N] |==|  0.04271
USER: genes 3 Torsion [C]-CA--CB-[CG] |==|  0.59144
USER: genes 4 Torsion [CA]-CB--CG-[CD1] |==|  0.29250
USER: genes 5 Torsion [C]-CA--N-[C] |==|  0.70758
USER: genes 6 Torsion [N]-C--CA-[CB] |==|  0.65507
USER: genes 7 Torsion [N]-C--CA-[N] |==|  0.35035
USER: genes 8 Torsion [C]-CA--CB-[CG] |==|  0.98779
USER: genes 9 Torsion [CA]-CB--CG-[CD1] |==|  0.73015
USER: genes 10 Torsion [C]-N--CA-[CB] |==|  0.53930
USER: genes 11 Torsion [N]-CA--CB-[CG] |==|  0.88228
USER: genes 12 Torsion [CA]-CB--CG-[OD1] |==|  0.31691
USER: genes 13 Torsion [N]-CA--C-[N] |==|  0.31369
USER: genes 14 Torsion [C]-N--CA-[C] |==|  0.69515
USER: genes 15 Torsion [N]-CA--CB-[CG] |==|  0.31596
USER: genes 16 Torsion [CA]-CB--CG-[CD1] |==|  0.27425
USER: genes 17 Torsion [N]-CA--C-[N] |==|  0.94007
USER: genes 18 Torsion [C]-N--CA-[CB] |==|  0.18589
USER: genes 19 Torsion [N]-CA--C-[OXT] |==|  0.04397
ROOT
ATOM      1  C   LEU B 341      26.121   3.375 -40.754  1.00 14.43 LIG 0.24  C 
ATOM      2 O    LEU B 341      25.062   3.911 -41.078  1.00 17.21 LIG-0.27  OA
ATOM      3  N   ASP B 342      27.301   3.790 -41.188  1.00 15.70 LIG-0.35  N 
ATOM      4 H    ASP B 342      28.056   3.496 -40.899  1.00 15.70 LIG 0.16  HD
ENDROOT
BRANCH 1 5
ATOM      5  CA  LEU B 341      26.165   2.162 -39.825  1.00 14.64 LIG 0.18  C 
BRANCH 5 6
ATOM      6  CB  LEU B 341      25.247   2.423 -38.629  1.00 15.72 LIG 0.04  C 
BRANCH 6 7
ATOM      7  CG  LEU B 341      25.731   1.791 -37.337  1.00 16.60 LIG-0.02  C 
ATOM      8  CD1 LEU B 341      26.297   2.867 -36.439  1.00 17.44 LIG 0.01  C 
ATOM      9  CD2 LEU B 341      24.624   0.994 -36.646  1.00 18.85 LIG 0.01  C 
ENDBRANCH 6 7
ENDBRANCH 5 6
BRANCH 5 10
ATOM     10  N   LEU B 341      27.502   1.900 -39.300  1.00 16.77 LIG-0.35  N 
ATOM     11  C   PRO B 340      28.228   0.889 -39.764  1.00 19.25 LIG 0.24  C 
ATOM     12 O    PRO B 340      27.894   0.168 -40.711  1.00 21.28 LIG-0.27  OA
ATOM     13 H    LEU B 341      27.761   2.442 -38.686  1.00 16.77 LIG 0.16  HD
BRANCH 11 14
ATOM     14  CA  PRO B 340      29.567   0.710 -39.083  1.00 21.04 LIG 0.18  C 
ATOM     15  N   PRO B 340      29.759  -0.622 -38.461  1.00 20.95 LIG-0.34  N 
ATOM     16  CD  PRO B 340      30.992  -1.276 -38.932  1.00 22.76 LIG 0.13  C 
ATOM     17  C   PHE B 339      28.960  -1.003 -37.467  1.00 19.72 LIG 0.26  C 
ATOM     18  CG  PRO B 340      31.700  -0.123 -39.612  1.00 24.91 LIG 0.02  C 
ATOM     19  CB  PRO B 340      30.645   0.749 -40.148  1.00 23.27 LIG 0.04  C 
ATOM     20 O    PHE B 339      27.992  -0.309 -37.124  1.00 19.38 LIG-0.27  OA
BRANCH 17 21
ATOM     21  CA  PHE B 339      29.287  -2.318 -36.761  1.00 21.94 LIG 0.40  C 
ATOM     22  N   PHE B 339      29.401  -2.136 -35.322  1.00 23.90 LIG 0.61  N 
BRANCH 21 23
ATOM     23  CB  PHE B 339      28.211  -3.354 -37.057  1.00 24.29 LIG 0.09  C 
BRANCH 23 24
ATOM     24  CG  PHE B 339      27.058  -2.827 -37.862  1.00 28.97 LIG-0.06  A 
ATOM     25  CD1 PHE B 339      25.884  -2.412 -37.237  1.00 31.92 LIG 0.01  A 
ATOM     26  CE1 PHE B 339      24.816  -1.922 -37.978  1.00 33.96 LIG 0.00  A 
ATOM     27  CZ  PHE B 339      24.926  -1.827 -39.363  1.00 35.90 LIG 0.00  A 
ATOM     28  CE2 PHE B 339      26.100  -2.231 -40.000  1.00 35.56 LIG 0.00  A 
ATOM     29  CD2 PHE B 339      27.158  -2.728 -39.244  1.00 33.37 LIG 0.01  A 
ENDBRANCH 23 24
ENDBRANCH 21 23
ENDBRANCH 17 21
ENDBRANCH 11 14
ENDBRANCH 5 10
ENDBRANCH 1 5
BRANCH 3 30
ATOM     30  CA  ASP B 342      27.398   4.814 -42.224  1.00 16.21 LIG 0.19  C 
BRANCH 30 31
ATOM     31  CB  ASP B 342      28.811   4.849 -42.772  1.00 18.68 LIG 0.15  C 
BRANCH 31 32
ATOM     32  CG  ASP B 342      29.865   4.744 -41.730  1.00 22.92 LIG 0.17  C 
ATOM     33 OD1  ASP B 342      30.622   3.739 -41.681  1.00 25.81 LIG-0.65  OA
ATOM     34 OD2  ASP B 342      29.915   5.712 -40.947  1.00 25.94 LIG-0.65  OA
ENDBRANCH 31 32
ENDBRANCH 30 31
BRANCH 30 35
ATOM     35  C   ASP B 342      26.489   4.496 -43.418  1.00 16.03 LIG 0.24  C 
ATOM     36  N   LEU B 343      25.461   5.335 -43.603  1.00 16.72 LIG-0.35  N 
ATOM     37 H    LEU B 343      25.178   5.874 -42.996  1.00 16.72 LIG 0.16  HD
ATOM     38 O    ASP B 342      26.774   3.591 -44.197  1.00 14.87 LIG-0.27  OA
BRANCH 36 39
ATOM     39  CA  LEU B 343      24.716   5.416 -44.865  1.00 16.14 LIG 0.18  C 
BRANCH 39 40
ATOM     40  CB  LEU B 343      23.212   5.313 -44.642  1.00 19.18 LIG 0.04  C 
BRANCH 40 41
ATOM     41  CG  LEU B 343      22.428   6.595 -44.981  1.00 20.67 LIG-0.02  C 
ATOM     42  CD1 LEU B 343      21.815   6.450 -46.386  1.00 23.87 LIG 0.01  C 
ATOM     43  CD2 LEU B 343      21.344   6.850 -43.947  1.00 22.92 LIG 0.01  C 
ENDBRANCH 40 41
ENDBRANCH 39 40
BRANCH 39 44
ATOM     44  C   LEU B 343      25.022   6.744 -45.569  1.00 14.33 LIG 0.24  C 
ATOM     45 O    LEU B 343      24.856   6.880 -46.795  1.00 16.10 LIG-0.27  OA
ATOM     46  N   ALA B 344      25.478   7.711 -44.806  1.00 14.89 LIG-0.34  N 
ATOM     47 H    ALA B 344      25.541   7.667 -43.950  1.00 14.89 LIG 0.16  HD
BRANCH 46 48
ATOM     48  CA  ALA B 344      25.930   8.982 -45.399  1.00 15.57 LIG 0.18  C 
ATOM     49  CB  ALA B 344      24.774   9.722 -46.001  1.00 18.12 LIG 0.04  C 
BRANCH 48 50
ATOM     50  C   ALA B 344      26.569   9.852 -44.322  1.00 15.03 LIG 0.20  C 
ATOM     51 OXT  ALA B 344      26.915   9.367 -43.234  1.00 16.10 LIG-0.65  OA
ATOM     52 O    ALA B 344      26.792  11.054 -44.624  1.00 15.80 LIG-0.65  OA
ENDBRANCH 48 50
ENDBRANCH 46 48
ENDBRANCH 39 44
ENDBRANCH 36 39
ENDBRANCH 30 35
ENDBRANCH 3 30
TORSDOF 18
ENDMDL
MODEL 40
USER: ADFR SOLUTION from run 122
USER: SCORE 14.892452 LL:  -4.087 LR: -11.213 RR:   0.000 FEB:  -5.843
USER: RMSD 11.001108
USER: SEED 121
USER: STATUS no improvement in best in 13 clusters for 5 generations
USER: GENES 20
USER: genes 0 Translation |==|  0.54308 0.58458 0.60167
USER: genes 1 Rotation |==|  0.05669 0.29567 0.56375 0.58750
USER: genes 2 Torsion [N]-C--CA-[N] |==|  0.45653
USER: genes 3 Torsion [C]-CA--CB-[CG] |==|  0.18699
USER: genes 4 Torsion [CA]-CB--CG-[CD1] |==|  0.34811
USER: genes 5 Torsion [C]-CA--N-[C] |==|  0.80538
USER: genes 6 Torsion [N]-C--CA-[CB] |==|  0.84730
USER: genes 7 Torsion [N]-C--CA-[N] |==|  0.40546
USER: genes 8 Torsion [C]-CA--CB-[CG] |==|  0.28281
USER: genes 9 Torsion [CA]-CB--CG-[CD1] |==|  0.58447
USER: genes 10 Torsion [C]-N--CA-[CB] |==|  0.20000
USER: genes 11 Torsion [N]-CA--CB-[CG] |==|  0.59545
USER: genes 12 Torsion [CA]-CB--CG-[OD1] |==|  0.02959
USER: genes 13 Torsion [N]-CA--C-[N] |==|  0.05051
USER: genes 14 Torsion [C]-N--CA-[C] |==|  0.80656
USER: genes 15 Torsion [N]-CA--CB-[CG] |==|  0.13681
USER: genes 16 Torsion [CA]-CB--CG-[CD1] |==|  0.24745
USER: genes 17 Torsion [N]-CA--C-[N] |==|  0.98264
USER: genes 18 Torsion [C]-N--CA-[CB] |==|  0.32222
USER: genes 19 Torsion [N]-CA--C-[OXT] |==|  0.47381
ROOT
ATOM      1  C   LEU B 341      29.630   6.065 -42.486  1.00 14.43 LIG 0.24  C 
ATOM      2 O    LEU B 341      28.436   5.812 -42.332  1.00 17.21 LIG-0.27  OA
ATOM      3  N   ASP B 342      30.160   7.244 -42.199  1.00 15.70 LIG-0.35  N 
ATOM      4 H    ASP B 342      31.003   7.412 -42.204  1.00 15.70 LIG 0.16  HD
ENDROOT
BRANCH 1 5
ATOM      5  CA  LEU B 341      30.613   5.033 -43.039  1.00 14.64 LIG 0.18  C 
BRANCH 5 6
ATOM      6  CB  LEU B 341      30.905   5.366 -44.503  1.00 15.72 LIG 0.04  C 
BRANCH 6 7
ATOM      7  CG  LEU B 341      31.674   6.660 -44.696  1.00 16.60 LIG-0.02  C 
ATOM      8  CD1 LEU B 341      32.918   6.384 -45.508  1.00 17.44 LIG 0.01  C 
ATOM      9  CD2 LEU B 341      30.807   7.747 -45.330  1.00 18.85 LIG 0.01  C 
ENDBRANCH 6 7
ENDBRANCH 5 6
BRANCH 5 10
ATOM     10  N   LEU B 341      30.087   3.672 -42.997  1.00 16.77 LIG-0.35  N 
ATOM     11  C   PRO B 340      29.928   3.040 -41.840  1.00 19.25 LIG 0.24  C 
ATOM     12 O    PRO B 340      30.109   3.558 -40.733  1.00 21.28 LIG-0.27  OA
ATOM     13 H    LEU B 341      29.899   3.334 -43.765  1.00 16.77 LIG 0.16  HD
BRANCH 11 14
ATOM     14  CA  PRO B 340      29.429   1.617 -41.962  1.00 21.04 LIG 0.18  C 
ATOM     15  N   PRO B 340      29.010   1.007 -40.677  1.00 20.95 LIG-0.34  N 
ATOM     16  CD  PRO B 340      27.637   0.477 -40.742  1.00 22.76 LIG 0.13  C 
ATOM     17  C   PHE B 339      29.907   0.837 -39.709  1.00 19.72 LIG 0.26  C 
ATOM     18  CG  PRO B 340      27.378   0.500 -42.234  1.00 24.91 LIG 0.02  C 
ATOM     19  CB  PRO B 340      28.145   1.637 -42.767  1.00 23.27 LIG 0.04  C 
ATOM     20 O    PHE B 339      31.061   1.276 -39.822  1.00 19.38 LIG-0.27  OA
BRANCH 17 21
ATOM     21  CA  PHE B 339      29.465   0.073 -38.461  1.00 21.94 LIG 0.40  C 
ATOM     22  N   PHE B 339      30.555  -0.712 -37.903  1.00 23.90 LIG 0.61  N 
BRANCH 21 23
ATOM     23  CB  PHE B 339      28.948   1.044 -37.407  1.00 24.29 LIG 0.09  C 
BRANCH 23 24
ATOM     24  CG  PHE B 339      27.451   1.109 -37.317  1.00 28.97 LIG-0.06  A 
ATOM     25  CD1 PHE B 339      26.811   2.284 -36.932  1.00 31.92 LIG 0.01  A 
ATOM     26  CE1 PHE B 339      25.426   2.349 -36.849  1.00 33.96 LIG 0.00  A 
ATOM     27  CZ  PHE B 339      24.664   1.230 -37.172  1.00 35.90 LIG 0.00  A 
ATOM     28  CE2 PHE B 339      25.293   0.048 -37.568  1.00 35.56 LIG 0.00  A 
ATOM     29  CD2 PHE B 339      26.682  -0.003 -37.638  1.00 33.37 LIG 0.01  A 
ENDBRANCH 23 24
ENDBRANCH 21 23
ENDBRANCH 17 21
ENDBRANCH 11 14
ENDBRANCH 5 10
ENDBRANCH 1 5
BRANCH 3 30
ATOM     30  CA  ASP B 342      29.311   8.378 -41.843  1.00 16.21 LIG 0.19  C 
BRANCH 30 31
ATOM     31  CB  ASP B 342      28.736   8.165 -40.457  1.00 18.68 LIG 0.15  C 
BRANCH 31 32
ATOM     32  CG  ASP B 342      27.362   8.703 -40.285  1.00 22.92 LIG 0.17  C 
ATOM     33 OD1  ASP B 342      26.697   9.094 -41.280  1.00 25.81 LIG-0.65  OA
ATOM     34 OD2  ASP B 342      26.959   8.724 -39.106  1.00 25.94 LIG-0.65  OA
ENDBRANCH 31 32
ENDBRANCH 30 31
BRANCH 30 35
ATOM     35  C   ASP B 342      30.114   9.683 -41.773  1.00 16.03 LIG 0.24  C 
ATOM     36  N   LEU B 343      31.302   9.667 -42.391  1.00 16.72 LIG-0.35  N 
ATOM     37 H    LEU B 343      31.705   8.942 -42.618  1.00 16.72 LIG 0.16  HD
ATOM     38 O    ASP B 342      29.626  10.690 -41.269  1.00 14.87 LIG-0.27  OA
BRANCH 36 39
ATOM     39  CA  LEU B 343      32.034  10.889 -42.744  1.00 16.14 LIG 0.18  C 
BRANCH 39 40
ATOM     40  CB  LEU B 343      33.457  10.586 -43.197  1.00 19.18 LIG 0.04  C 
BRANCH 40 41
ATOM     41  CG  LEU B 343      33.565   9.478 -44.261  1.00 20.67 LIG-0.02  C 
ATOM     42  CD1 LEU B 343      33.455  10.114 -45.659  1.00 23.87 LIG 0.01  C 
ATOM     43  CD2 LEU B 343      34.875   8.721 -44.117  1.00 22.92 LIG 0.01  C 
ENDBRANCH 40 41
ENDBRANCH 39 40
BRANCH 39 44
ATOM     44  C   LEU B 343      31.303  11.630 -43.870  1.00 14.33 LIG 0.24  C 
ATOM     45 O    LEU B 343      31.670  12.758 -44.248  1.00 16.10 LIG-0.27  OA
ATOM     46  N   ALA B 344      30.270  11.011 -44.395  1.00 14.89 LIG-0.34  N 
ATOM     47 H    ALA B 344      30.034  10.207 -44.201  1.00 14.89 LIG 0.16  HD
BRANCH 46 48
ATOM     48  CA  ALA B 344      29.418  11.687 -45.389  1.00 15.57 LIG 0.18  C 
ATOM     49  CB  ALA B 344      29.495  10.987 -46.712  1.00 18.12 LIG 0.04  C 
BRANCH 48 50
ATOM     50  C   ALA B 344      27.970  11.684 -44.910  1.00 15.03 LIG 0.20  C 
ATOM     51 OXT  ALA B 344      27.103  12.347 -45.498  1.00 16.10 LIG-0.65  OA
ATOM     52 O    ALA B 344      27.695  10.922 -43.945  1.00 15.80 LIG-0.65  OA
ENDBRANCH 48 50
ENDBRANCH 46 48
ENDBRANCH 39 44
ENDBRANCH 36 39
ENDBRANCH 30 35
ENDBRANCH 3 30
TORSDOF 18
ENDMDL
MODEL 41
USER: ADFR SOLUTION from run 184
USER: SCORE 15.864918 LL:  -5.075 LR: -11.206 RR:   0.000 FEB:  -5.837
USER: RMSD 10.477074
USER: SEED 183
USER: STATUS no improvement in best in 5 clusters for 5 generations
USER: GENES 20
USER: genes 0 Translation |==|  0.31398 0.40834 0.69590
USER: genes 1 Rotation |==|  0.94037 0.44847 0.29853 0.61327
USER: genes 2 Torsion [N]-C--CA-[N] |==|  0.95167
USER: genes 3 Torsion [C]-CA--CB-[CG] |==|  0.25739
USER: genes 4 Torsion [CA]-CB--CG-[CD1] |==|  0.22233
USER: genes 5 Torsion [C]-CA--N-[C] |==|  0.80151
USER: genes 6 Torsion [N]-C--CA-[CB] |==|  0.22290
USER: genes 7 Torsion [N]-C--CA-[N] |==|  0.34127
USER: genes 8 Torsion [C]-CA--CB-[CG] |==|  0.17203
USER: genes 9 Torsion [CA]-CB--CG-[CD1] |==|  0.12819
USER: genes 10 Torsion [C]-N--CA-[CB] |==|  0.86344
USER: genes 11 Torsion [N]-CA--CB-[CG] |==|  0.48338
USER: genes 12 Torsion [CA]-CB--CG-[OD1] |==|  0.63088
USER: genes 13 Torsion [N]-CA--C-[N] |==|  0.36903
USER: genes 14 Torsion [C]-N--CA-[C] |==|  0.63334
USER: genes 15 Torsion [N]-CA--CB-[CG] |==|  0.58565
USER: genes 16 Torsion [CA]-CB--CG-[CD1] |==|  0.76979
USER: genes 17 Torsion [N]-CA--C-[N] |==|  0.29274
USER: genes 18 Torsion [C]-N--CA-[CB] |==|  0.37167
USER: genes 19 Torsion [N]-CA--C-[OXT] |==|  0.66745
ROOT
ATOM      1  C   LEU B 341      25.163   2.231 -40.436  1.00 14.43 LIG 0.24  C 
ATOM      2 O    LEU B 341      24.343   3.137 -40.288  1.00 17.21 LIG-0.27  OA
ATOM      3  N   ASP B 342      26.120   2.268 -41.351  1.00 15.70 LIG-0.35  N 
ATOM      4 H    ASP B 342      26.760   1.697 -41.407  1.00 15.70 LIG 0.16  HD
ENDROOT
BRANCH 1 5
ATOM      5  CA  LEU B 341      25.138   0.968 -39.578  1.00 14.64 LIG 0.18  C 
BRANCH 5 6
ATOM      6  CB  LEU B 341      25.768   1.282 -38.219  1.00 15.72 LIG 0.04  C 
BRANCH 6 7
ATOM      7  CG  LEU B 341      24.765   1.706 -37.162  1.00 16.60 LIG-0.02  C 
ATOM      8  CD1 LEU B 341      24.091   0.478 -36.594  1.00 17.44 LIG 0.01  C 
ATOM      9  CD2 LEU B 341      25.415   2.557 -36.072  1.00 18.85 LIG 0.01  C 
ENDBRANCH 6 7
ENDBRANCH 5 6
BRANCH 5 10
ATOM     10  N   LEU B 341      25.898  -0.132 -40.167  1.00 16.77 LIG-0.35  N 
ATOM     11  C   PRO B 340      25.448  -0.768 -41.243  1.00 19.25 LIG 0.24  C 
ATOM     12 O    PRO B 340      24.439  -0.440 -41.875  1.00 21.28 LIG-0.27  OA
ATOM     13 H    LEU B 341      26.634  -0.318 -39.765  1.00 16.77 LIG 0.16  HD
BRANCH 11 14
ATOM     14  CA  PRO B 340      26.315  -1.920 -41.701  1.00 21.04 LIG 0.18  C 
ATOM     15  N   PRO B 340      27.766  -1.714 -41.480  1.00 20.95 LIG-0.34  N 
ATOM     16  CD  PRO B 340      28.369  -2.820 -40.718  1.00 22.76 LIG 0.13  C 
ATOM     17  C   PHE B 339      28.389  -0.715 -42.103  1.00 19.72 LIG 0.26  C 
ATOM     18  CG  PRO B 340      27.272  -3.862 -40.785  1.00 24.91 LIG 0.02  C 
ATOM     19  CB  PRO B 340      26.003  -3.119 -40.829  1.00 23.27 LIG 0.04  C 
ATOM     20 O    PHE B 339      27.757   0.108 -42.781  1.00 19.38 LIG-0.27  OA
BRANCH 17 21
ATOM     21  CA  PHE B 339      29.908  -0.631 -41.961  1.00 21.94 LIG 0.40  C 
ATOM     22  N   PHE B 339      30.567  -0.654 -43.259  1.00 23.90 LIG 0.61  N 
BRANCH 21 23
ATOM     23  CB  PHE B 339      30.296   0.640 -41.219  1.00 24.29 LIG 0.09  C 
BRANCH 23 24
ATOM     24  CG  PHE B 339      29.764   0.716 -39.817  1.00 28.97 LIG-0.06  A 
ATOM     25  CD1 PHE B 339      29.862  -0.376 -38.957  1.00 31.92 LIG 0.01  A 
ATOM     26  CE1 PHE B 339      29.372  -0.309 -37.659  1.00 33.96 LIG 0.00  A 
ATOM     27  CZ  PHE B 339      28.790   0.871 -37.204  1.00 35.90 LIG 0.00  A 
ATOM     28  CE2 PHE B 339      28.693   1.975 -38.052  1.00 35.56 LIG 0.00  A 
ATOM     29  CD2 PHE B 339      29.181   1.889 -39.353  1.00 33.37 LIG 0.01  A 
ENDBRANCH 23 24
ENDBRANCH 21 23
ENDBRANCH 17 21
ENDBRANCH 11 14
ENDBRANCH 5 10
ENDBRANCH 1 5
BRANCH 3 30
ATOM     30  CA  ASP B 342      26.148   3.322 -42.361  1.00 16.21 LIG 0.19  C 
BRANCH 30 31
ATOM     31  CB  ASP B 342      24.781   3.447 -43.002  1.00 18.68 LIG 0.15  C 
BRANCH 31 32
ATOM     32  CG  ASP B 342      24.660   4.586 -43.947  1.00 22.92 LIG 0.17  C 
ATOM     33 OD1  ASP B 342      23.670   5.363 -43.893  1.00 25.81 LIG-0.65  OA
ATOM     34 OD2  ASP B 342      25.599   4.684 -44.761  1.00 25.94 LIG-0.65  OA
ENDBRANCH 31 32
ENDBRANCH 30 31
BRANCH 30 35
ATOM     35  C   ASP B 342      26.452   4.691 -41.739  1.00 16.03 LIG 0.24  C 
ATOM     36  N   LEU B 343      27.386   5.417 -42.367  1.00 16.72 LIG-0.35  N 
ATOM     37 H    LEU B 343      27.943   5.084 -42.931  1.00 16.72 LIG 0.16  HD
ATOM     38 O    ASP B 342      25.790   5.109 -40.795  1.00 14.87 LIG-0.27  OA
BRANCH 36 39
ATOM     39  CA  LEU B 343      27.551   6.860 -42.153  1.00 16.14 LIG 0.18  C 
BRANCH 39 40
ATOM     40  CB  LEU B 343      28.797   7.173 -41.333  1.00 19.18 LIG 0.04  C 
BRANCH 40 41
ATOM     41  CG  LEU B 343      28.683   8.434 -40.457  1.00 20.67 LIG-0.02  C 
ATOM     42  CD1 LEU B 343      28.992   9.672 -41.318  1.00 23.87 LIG 0.01  C 
ATOM     43  CD2 LEU B 343      27.296   8.539 -39.844  1.00 22.92 LIG 0.01  C 
ENDBRANCH 40 41
ENDBRANCH 39 40
BRANCH 39 44
ATOM     44  C   LEU B 343      27.652   7.581 -43.503  1.00 14.33 LIG 0.24  C 
ATOM     45 O    LEU B 343      28.690   7.530 -44.188  1.00 16.10 LIG-0.27  OA
ATOM     46  N   ALA B 344      26.590   8.258 -43.878  1.00 14.89 LIG-0.34  N 
ATOM     47 H    ALA B 344      25.839   8.257 -43.460  1.00 14.89 LIG 0.16  HD
BRANCH 46 48
ATOM     48  CA  ALA B 344      26.626   9.094 -45.091  1.00 15.57 LIG 0.18  C 
ATOM     49  CB  ALA B 344      25.406   8.859 -45.930  1.00 18.12 LIG 0.04  C 
BRANCH 48 50
ATOM     50  C   ALA B 344      26.682  10.566 -44.697  1.00 15.03 LIG 0.20  C 
ATOM     51 OXT  ALA B 344      25.788  11.353 -45.045  1.00 16.10 LIG-0.65  OA
ATOM     52 O    ALA B 344      27.631  10.915 -43.947  1.00 15.80 LIG-0.65  OA
ENDBRANCH 48 50
ENDBRANCH 46 48
ENDBRANCH 39 44
ENDBRANCH 36 39
ENDBRANCH 30 35
ENDBRANCH 3 30
TORSDOF 18
ENDMDL
MODEL 42
USER: ADFR SOLUTION from run 44
USER: SCORE 14.818726 LL:  -5.448 LR: -11.204 RR:   0.000 FEB:  -5.834
USER: RMSD 7.780219
USER: SEED 43
USER: STATUS no improvement in best in 10 clusters for 5 generations
USER: GENES 20
USER: genes 0 Translation |==|  0.40888 0.40335 0.81198
USER: genes 1 Rotation |==|  0.22626 0.73452 0.71077 0.77504
USER: genes 2 Torsion [N]-C--CA-[N] |==|  0.00835
USER: genes 3 Torsion [C]-CA--CB-[CG] |==|  0.64833
USER: genes 4 Torsion [CA]-CB--CG-[CD1] |==|  0.25058
USER: genes 5 Torsion [C]-CA--N-[C] |==|  0.75367
USER: genes 6 Torsion [N]-C--CA-[CB] |==|  0.94028
USER: genes 7 Torsion [N]-C--CA-[N] |==|  0.18206
USER: genes 8 Torsion [C]-CA--CB-[CG] |==|  0.75695
USER: genes 9 Torsion [CA]-CB--CG-[CD1] |==|  0.15126
USER: genes 10 Torsion [C]-N--CA-[CB] |==|  0.30853
USER: genes 11 Torsion [N]-CA--CB-[CG] |==|  0.81268
USER: genes 12 Torsion [CA]-CB--CG-[OD1] |==|  0.19035
USER: genes 13 Torsion [N]-CA--C-[N] |==|  0.05075
USER: genes 14 Torsion [C]-N--CA-[C] |==|  0.60821
USER: genes 15 Torsion [N]-CA--CB-[CG] |==|  0.60899
USER: genes 16 Torsion [CA]-CB--CG-[CD1] |==|  0.67108
USER: genes 17 Torsion [N]-CA--C-[N] |==|  0.41667
USER: genes 18 Torsion [C]-N--CA-[CB] |==|  0.33195
USER: genes 19 Torsion [N]-CA--C-[OXT] |==|  0.55232
ROOT
ATOM      1  C   LEU B 341      27.013   2.123 -37.912  1.00 14.43 LIG 0.24  C 
ATOM      2 O    LEU B 341      27.536   2.387 -36.829  1.00 17.21 LIG-0.27  OA
ATOM      3  N   ASP B 342      27.712   1.829 -38.997  1.00 15.70 LIG-0.35  N 
ATOM      4 H    ASP B 342      27.370   1.546 -39.734  1.00 15.70 LIG 0.16  HD
ENDROOT
BRANCH 1 5
ATOM      5  CA  LEU B 341      25.497   2.124 -38.101  1.00 14.64 LIG 0.18  C 
BRANCH 5 6
ATOM      6  CB  LEU B 341      24.877   1.122 -37.125  1.00 15.72 LIG 0.04  C 
BRANCH 6 7
ATOM      7  CG  LEU B 341      23.970   0.102 -37.788  1.00 16.60 LIG-0.02  C 
ATOM      8  CD1 LEU B 341      24.787  -1.106 -38.186  1.00 17.44 LIG 0.01  C 
ATOM      9  CD2 LEU B 341      22.790  -0.276 -36.892  1.00 18.85 LIG 0.01  C 
ENDBRANCH 6 7
ENDBRANCH 5 6
BRANCH 5 10
ATOM     10  N   LEU B 341      25.094   1.728 -39.448  1.00 16.77 LIG-0.35  N 
ATOM     11  C   PRO B 340      24.975   2.630 -40.415  1.00 19.25 LIG 0.24  C 
ATOM     12 O    PRO B 340      25.275   3.823 -40.295  1.00 21.28 LIG-0.27  OA
ATOM     13 H    LEU B 341      24.949   0.887 -39.548  1.00 16.77 LIG 0.16  HD
BRANCH 11 14
ATOM     14  CA  PRO B 340      24.495   2.076 -41.738  1.00 21.04 LIG 0.18  C 
ATOM     15  N   PRO B 340      25.245   2.578 -42.915  1.00 20.95 LIG-0.34  N 
ATOM     16  CD  PRO B 340      25.774   1.479 -43.739  1.00 22.76 LIG 0.13  C 
ATOM     17  C   PHE B 339      25.218   3.877 -43.204  1.00 19.72 LIG 0.26  C 
ATOM     18  CG  PRO B 340      25.016   0.293 -43.179  1.00 24.91 LIG 0.02  C 
ATOM     19  CB  PRO B 340      24.785   0.588 -41.757  1.00 23.27 LIG 0.04  C 
ATOM     20 O    PHE B 339      24.665   4.689 -42.447  1.00 19.38 LIG-0.27  OA
BRANCH 17 21
ATOM     21  CA  PHE B 339      25.881   4.326 -44.505  1.00 21.94 LIG 0.40  C 
ATOM     22  N   PHE B 339      25.186   3.797 -45.668  1.00 23.90 LIG 0.61  N 
BRANCH 21 23
ATOM     23  CB  PHE B 339      25.911   5.847 -44.581  1.00 24.29 LIG 0.09  C 
BRANCH 23 24
ATOM     24  CG  PHE B 339      24.676   6.453 -45.183  1.00 28.97 LIG-0.06  A 
ATOM     25  CD1 PHE B 339      23.415   6.157 -44.671  1.00 31.92 LIG 0.01  A 
ATOM     26  CE1 PHE B 339      22.270   6.717 -45.224  1.00 33.96 LIG 0.00  A 
ATOM     27  CZ  PHE B 339      22.384   7.600 -46.293  1.00 35.90 LIG 0.00  A 
ATOM     28  CE2 PHE B 339      23.642   7.912 -46.811  1.00 35.56 LIG 0.00  A 
ATOM     29  CD2 PHE B 339      24.779   7.336 -46.251  1.00 33.37 LIG 0.01  A 
ENDBRANCH 23 24
ENDBRANCH 21 23
ENDBRANCH 17 21
ENDBRANCH 11 14
ENDBRANCH 5 10
ENDBRANCH 1 5
BRANCH 3 30
ATOM     30  CA  ASP B 342      29.165   1.974 -39.012  1.00 16.21 LIG 0.19  C 
BRANCH 30 31
ATOM     31  CB  ASP B 342      29.811   0.604 -39.081  1.00 18.68 LIG 0.15  C 
BRANCH 31 32
ATOM     32  CG  ASP B 342      29.615  -0.217 -37.859  1.00 22.92 LIG 0.17  C 
ATOM     33 OD1  ASP B 342      28.474  -0.657 -37.558  1.00 25.81 LIG-0.65  OA
ATOM     34 OD2  ASP B 342      30.652  -0.413 -37.197  1.00 25.94 LIG-0.65  OA
ENDBRANCH 31 32
ENDBRANCH 30 31
BRANCH 30 35
ATOM     35  C   ASP B 342      29.644   2.731 -40.258  1.00 16.03 LIG 0.24  C 
ATOM     36  N   LEU B 343      28.708   3.445 -40.897  1.00 16.72 LIG-0.35  N 
ATOM     37 H    LEU B 343      27.864   3.330 -40.779  1.00 16.72 LIG 0.16  HD
ATOM     38 O    ASP B 342      30.833   2.747 -40.561  1.00 14.87 LIG-0.27  OA
BRANCH 36 39
ATOM     39  CA  LEU B 343      29.033   4.501 -41.863  1.00 16.14 LIG 0.18  C 
BRANCH 39 40
ATOM     40  CB  LEU B 343      28.954   3.998 -43.300  1.00 19.18 LIG 0.04  C 
BRANCH 40 41
ATOM     41  CG  LEU B 343      30.059   4.540 -44.227  1.00 20.67 LIG-0.02  C 
ATOM     42  CD1 LEU B 343      29.406   5.348 -45.363  1.00 23.87 LIG 0.01  C 
ATOM     43  CD2 LEU B 343      31.037   5.403 -43.448  1.00 22.92 LIG 0.01  C 
ENDBRANCH 40 41
ENDBRANCH 39 40
BRANCH 39 44
ATOM     44  C   LEU B 343      28.066   5.679 -41.697  1.00 14.33 LIG 0.24  C 
ATOM     45 O    LEU B 343      26.896   5.506 -41.309  1.00 16.10 LIG-0.27  OA
ATOM     46  N   ALA B 344      28.542   6.866 -41.999  1.00 14.89 LIG-0.34  N 
ATOM     47 H    ALA B 344      29.362   7.024 -42.204  1.00 14.89 LIG 0.16  HD
BRANCH 46 48
ATOM     48  CA  ALA B 344      27.661   8.047 -42.002  1.00 15.57 LIG 0.18  C 
ATOM     49  CB  ALA B 344      28.138   9.063 -41.009  1.00 18.12 LIG 0.04  C 
BRANCH 48 50
ATOM     50  C   ALA B 344      27.653   8.676 -43.391  1.00 15.03 LIG 0.20  C 
ATOM     51 OXT  ALA B 344      27.278   9.846 -43.559  1.00 16.10 LIG-0.65  OA
ATOM     52 O    ALA B 344      28.113   7.976 -44.332  1.00 15.80 LIG-0.65  OA
ENDBRANCH 48 50
ENDBRANCH 46 48
ENDBRANCH 39 44
ENDBRANCH 36 39
ENDBRANCH 30 35
ENDBRANCH 3 30
TORSDOF 18
ENDMDL
MODEL 43
USER: ADFR SOLUTION from run 89
USER: SCORE 14.034658 LL:  -4.431 LR: -11.188 RR:   0.000 FEB:  -5.819
USER: RMSD 6.761366
USER: SEED 88
USER: STATUS no improvement in best in 12 clusters for 5 generations
USER: GENES 20
USER: genes 0 Translation |==|  0.46392 0.38268 0.74544
USER: genes 1 Rotation |==|  0.67266 0.76247 0.11540 0.55816
USER: genes 2 Torsion [N]-C--CA-[N] |==|  0.10277
USER: genes 3 Torsion [C]-CA--CB-[CG] |==|  0.43865
USER: genes 4 Torsion [CA]-CB--CG-[CD1] |==|  0.20343
USER: genes 5 Torsion [C]-CA--N-[C] |==|  0.16658
USER: genes 6 Torsion [N]-C--CA-[CB] |==|  0.79137
USER: genes 7 Torsion [N]-C--CA-[N] |==|  0.83477
USER: genes 8 Torsion [C]-CA--CB-[CG] |==|  0.16482
USER: genes 9 Torsion [CA]-CB--CG-[CD1] |==|  0.27025
USER: genes 10 Torsion [C]-N--CA-[CB] |==|  0.53598
USER: genes 11 Torsion [N]-CA--CB-[CG] |==|  0.96087
USER: genes 12 Torsion [CA]-CB--CG-[OD1] |==|  0.24121
USER: genes 13 Torsion [N]-CA--C-[N] |==|  0.86693
USER: genes 14 Torsion [C]-N--CA-[C] |==|  0.70696
USER: genes 15 Torsion [N]-CA--CB-[CG] |==|  0.70625
USER: genes 16 Torsion [CA]-CB--CG-[CD1] |==|  0.73894
USER: genes 17 Torsion [N]-CA--C-[N] |==|  0.23596
USER: genes 18 Torsion [C]-N--CA-[CB] |==|  0.21918
USER: genes 19 Torsion [N]-CA--C-[OXT] |==|  0.22303
ROOT
ATOM      1  C   LEU B 341      28.086   1.673 -39.359  1.00 14.43 LIG 0.24  C 
ATOM      2 O    LEU B 341      28.301   1.580 -38.151  1.00 17.21 LIG-0.27  OA
ATOM      3  N   ASP B 342      27.022   2.285 -39.856  1.00 15.70 LIG-0.35  N 
ATOM      4 H    ASP B 342      26.903   2.448 -40.692  1.00 15.70 LIG 0.16  HD
ENDROOT
BRANCH 1 5
ATOM      5  CA  LEU B 341      29.032   1.075 -40.399  1.00 14.64 LIG 0.18  C 
BRANCH 5 6
ATOM      6  CB  LEU B 341      30.429   0.954 -39.785  1.00 15.72 LIG 0.04  C 
BRANCH 6 7
ATOM      7  CG  LEU B 341      31.312  -0.072 -40.470  1.00 16.60 LIG-0.02  C 
ATOM      8  CD1 LEU B 341      31.755   0.468 -41.810  1.00 17.44 LIG 0.01  C 
ATOM      9  CD2 LEU B 341      32.499  -0.474 -39.595  1.00 18.85 LIG 0.01  C 
ENDBRANCH 6 7
ENDBRANCH 5 6
BRANCH 5 10
ATOM     10  N   LEU B 341      29.152   1.900 -41.597  1.00 16.77 LIG-0.35  N 
ATOM     11  C   PRO B 340      29.601   3.148 -41.521  1.00 19.25 LIG 0.24  C 
ATOM     12 O    PRO B 340      30.033   3.670 -40.487  1.00 21.28 LIG-0.27  OA
ATOM     13 H    LEU B 341      28.913   1.514 -42.327  1.00 16.77 LIG 0.16  HD
BRANCH 11 14
ATOM     14  CA  PRO B 340      29.614   3.894 -42.836  1.00 21.04 LIG 0.18  C 
ATOM     15  N   PRO B 340      29.912   5.341 -42.711  1.00 20.95 LIG-0.34  N 
ATOM     16  CD  PRO B 340      31.038   5.747 -43.569  1.00 22.76 LIG 0.13  C 
ATOM     17  C   PHE B 339      29.080   6.125 -42.028  1.00 19.72 LIG 0.26  C 
ATOM     18  CG  PRO B 340      31.182   4.536 -44.466  1.00 24.91 LIG 0.02  C 
ATOM     19  CB  PRO B 340      30.777   3.376 -43.659  1.00 23.27 LIG 0.04  C 
ATOM     20 O    PHE B 339      28.119   5.649 -41.407  1.00 19.38 LIG-0.27  OA
BRANCH 17 21
ATOM     21  CA  PHE B 339      29.348   7.629 -42.050  1.00 21.94 LIG 0.40  C 
ATOM     22  N   PHE B 339      30.663   7.944 -41.515  1.00 23.90 LIG 0.61  N 
BRANCH 21 23
ATOM     23  CB  PHE B 339      29.238   8.161 -43.472  1.00 24.29 LIG 0.09  C 
BRANCH 23 24
ATOM     24  CG  PHE B 339      27.896   7.938 -44.107  1.00 28.97 LIG-0.06  A 
ATOM     25  CD1 PHE B 339      26.935   8.947 -44.115  1.00 31.92 LIG 0.01  A 
ATOM     26  CE1 PHE B 339      25.693   8.745 -44.703  1.00 33.96 LIG 0.00  A 
ATOM     27  CZ  PHE B 339      25.408   7.524 -45.308  1.00 35.90 LIG 0.00  A 
ATOM     28  CE2 PHE B 339      26.365   6.508 -45.315  1.00 35.56 LIG 0.00  A 
ATOM     29  CD2 PHE B 339      27.603   6.723 -44.714  1.00 33.37 LIG 0.01  A 
ENDBRANCH 23 24
ENDBRANCH 21 23
ENDBRANCH 17 21
ENDBRANCH 11 14
ENDBRANCH 5 10
ENDBRANCH 1 5
BRANCH 3 30
ATOM     30  CA  ASP B 342      25.943   2.736 -38.983  1.00 16.21 LIG 0.19  C 
BRANCH 30 31
ATOM     31  CB  ASP B 342      24.733   3.102 -39.819  1.00 18.68 LIG 0.15  C 
BRANCH 31 32
ATOM     32  CG  ASP B 342      25.021   3.238 -41.270  1.00 22.92 LIG 0.17  C 
ATOM     33 OD1  ASP B 342      24.984   2.233 -42.029  1.00 25.81 LIG-0.65  OA
ATOM     34 OD2  ASP B 342      25.290   4.398 -41.637  1.00 25.94 LIG-0.65  OA
ENDBRANCH 31 32
ENDBRANCH 30 31
BRANCH 30 35
ATOM     35  C   ASP B 342      25.481   1.623 -38.034  1.00 16.03 LIG 0.24  C 
ATOM     36  N   LEU B 343      25.251   0.434 -38.605  1.00 16.72 LIG-0.35  N 
ATOM     37 H    LEU B 343      25.142   0.330 -39.452  1.00 16.72 LIG 0.16  HD
ATOM     38 O    ASP B 342      25.440   1.812 -36.822  1.00 14.87 LIG-0.27  OA
BRANCH 36 39
ATOM     39  CA  LEU B 343      25.163  -0.815 -37.839  1.00 16.14 LIG 0.18  C 
BRANCH 39 40
ATOM     40  CB  LEU B 343      23.957  -1.650 -38.253  1.00 19.18 LIG 0.04  C 
BRANCH 40 41
ATOM     41  CG  LEU B 343      22.796  -1.639 -37.240  1.00 20.67 LIG-0.02  C 
ATOM     42  CD1 LEU B 343      22.937  -2.854 -36.304  1.00 23.87 LIG 0.01  C 
ATOM     43  CD2 LEU B 343      22.792  -0.345 -36.442  1.00 22.92 LIG 0.01  C 
ENDBRANCH 40 41
ENDBRANCH 39 40
BRANCH 39 44
ATOM     44  C   LEU B 343      26.435  -1.647 -38.044  1.00 14.33 LIG 0.24  C 
ATOM     45 O    LEU B 343      26.486  -2.550 -38.898  1.00 16.10 LIG-0.27  OA
ATOM     46  N   ALA B 344      27.449  -1.355 -37.262  1.00 14.89 LIG-0.34  N 
ATOM     47 H    ALA B 344      27.465  -0.695 -36.710  1.00 14.89 LIG 0.16  HD
BRANCH 46 48
ATOM     48  CA  ALA B 344      28.671  -2.178 -37.283  1.00 15.57 LIG 0.18  C 
ATOM     49  CB  ALA B 344      29.525  -1.823 -38.462  1.00 18.12 LIG 0.04  C 
BRANCH 48 50
ATOM     50  C   ALA B 344      29.469  -1.944 -36.004  1.00 15.03 LIG 0.20  C 
ATOM     51 OXT  ALA B 344      29.159  -2.513 -34.947  1.00 16.10 LIG-0.65  OA
ATOM     52 O    ALA B 344      30.489  -1.212 -36.100  1.00 15.80 LIG-0.65  OA
ENDBRANCH 48 50
ENDBRANCH 46 48
ENDBRANCH 39 44
ENDBRANCH 36 39
ENDBRANCH 30 35
ENDBRANCH 3 30
TORSDOF 18
ENDMDL
MODEL 44
USER: ADFR SOLUTION from run 200
USER: SCORE 14.366271 LL:  -4.741 LR: -11.185 RR:   0.000 FEB:  -5.815
USER: RMSD 6.865669
USER: SEED 199
USER: STATUS no improvement in best in 3 clusters for 5 generations
USER: GENES 20
USER: genes 0 Translation |==|  0.48473 0.35580 0.74319
USER: genes 1 Rotation |==|  0.27510 0.78943 0.72419 0.75572
USER: genes 2 Torsion [N]-C--CA-[N] |==|  0.92239
USER: genes 3 Torsion [C]-CA--CB-[CG] |==|  0.43420
USER: genes 4 Torsion [CA]-CB--CG-[CD1] |==|  0.51846
USER: genes 5 Torsion [C]-CA--N-[C] |==|  0.60556
USER: genes 6 Torsion [N]-C--CA-[CB] |==|  0.13422
USER: genes 7 Torsion [N]-C--CA-[N] |==|  0.29247
USER: genes 8 Torsion [C]-CA--CB-[CG] |==|  0.78844
USER: genes 9 Torsion [CA]-CB--CG-[CD1] |==|  0.77465
USER: genes 10 Torsion [C]-N--CA-[CB] |==|  0.86730
USER: genes 11 Torsion [N]-CA--CB-[CG] |==|  0.79766
USER: genes 12 Torsion [CA]-CB--CG-[OD1] |==|  0.81756
USER: genes 13 Torsion [N]-CA--C-[N] |==|  0.78736
USER: genes 14 Torsion [C]-N--CA-[C] |==|  0.80815
USER: genes 15 Torsion [N]-CA--CB-[CG] |==|  0.54087
USER: genes 16 Torsion [CA]-CB--CG-[CD1] |==|  0.73074
USER: genes 17 Torsion [N]-CA--C-[N] |==|  0.87988
USER: genes 18 Torsion [C]-N--CA-[CB] |==|  0.84874
USER: genes 19 Torsion [N]-CA--C-[OXT] |==|  0.59952
ROOT
ATOM      1  C   LEU B 341      28.492   1.089 -39.408  1.00 14.43 LIG 0.24  C 
ATOM      2 O    LEU B 341      29.317   1.253 -38.509  1.00 17.21 LIG-0.27  OA
ATOM      3  N   ASP B 342      28.826   0.714 -40.633  1.00 15.70 LIG-0.35  N 
ATOM      4 H    ASP B 342      28.263   0.498 -41.246  1.00 15.70 LIG 0.16  HD
ENDROOT
BRANCH 1 5
ATOM      5  CA  LEU B 341      26.998   1.318 -39.188  1.00 14.64 LIG 0.18  C 
BRANCH 5 6
ATOM      6  CB  LEU B 341      26.363   0.011 -38.708  1.00 15.72 LIG 0.04  C 
BRANCH 6 7
ATOM      7  CG  LEU B 341      25.075   0.206 -37.930  1.00 16.60 LIG-0.02  C 
ATOM      8  CD1 LEU B 341      24.626  -1.124 -37.369  1.00 17.44 LIG 0.01  C 
ATOM      9  CD2 LEU B 341      25.226   1.265 -36.838  1.00 18.85 LIG 0.01  C 
ENDBRANCH 6 7
ENDBRANCH 5 6
BRANCH 5 10
ATOM     10  N   LEU B 341      26.301   1.720 -40.407  1.00 16.77 LIG-0.35  N 
ATOM     11  C   PRO B 340      25.329   2.624 -40.368  1.00 19.25 LIG 0.24  C 
ATOM     12 O    PRO B 340      25.004   3.253 -39.355  1.00 21.28 LIG-0.27  OA
ATOM     13 H    LEU B 341      26.572   1.329 -41.123  1.00 16.77 LIG 0.16  HD
BRANCH 11 14
ATOM     14  CA  PRO B 340      24.665   2.893 -41.700  1.00 21.04 LIG 0.18  C 
ATOM     15  N   PRO B 340      25.554   3.522 -42.706  1.00 20.95 LIG-0.34  N 
ATOM     16  CD  PRO B 340      25.588   2.756 -43.964  1.00 22.76 LIG 0.13  C 
ATOM     17  C   PHE B 339      26.060   4.730 -42.470  1.00 19.72 LIG 0.26  C 
ATOM     18  CG  PRO B 340      24.413   1.821 -43.776  1.00 24.91 LIG 0.02  C 
ATOM     19  CB  PRO B 340      24.322   1.559 -42.332  1.00 23.27 LIG 0.04  C 
ATOM     20 O    PHE B 339      25.886   5.294 -41.380  1.00 19.38 LIG-0.27  OA
BRANCH 17 21
ATOM     21  CA  PHE B 339      26.849   5.399 -43.595  1.00 21.94 LIG 0.40  C 
ATOM     22  N   PHE B 339      26.082   6.463 -44.225  1.00 23.90 LIG 0.61  N 
BRANCH 21 23
ATOM     23  CB  PHE B 339      28.154   5.967 -43.054  1.00 24.29 LIG 0.09  C 
BRANCH 23 24
ATOM     24  CG  PHE B 339      27.991   7.242 -42.279  1.00 28.97 LIG-0.06  A 
ATOM     25  CD1 PHE B 339      27.873   8.465 -42.936  1.00 31.92 LIG 0.01  A 
ATOM     26  CE1 PHE B 339      27.720   9.647 -42.222  1.00 33.96 LIG 0.00  A 
ATOM     27  CZ  PHE B 339      27.668   9.609 -40.832  1.00 35.90 LIG 0.00  A 
ATOM     28  CE2 PHE B 339      27.777   8.390 -40.161  1.00 35.56 LIG 0.00  A 
ATOM     29  CD2 PHE B 339      27.937   7.215 -40.891  1.00 33.37 LIG 0.01  A 
ENDBRANCH 23 24
ENDBRANCH 21 23
ENDBRANCH 17 21
ENDBRANCH 11 14
ENDBRANCH 5 10
ENDBRANCH 1 5
BRANCH 3 30
ATOM     30  CA  ASP B 342      30.228   0.642 -41.037  1.00 16.21 LIG 0.19  C 
BRANCH 30 31
ATOM     31  CB  ASP B 342      30.942   1.912 -40.620  1.00 18.68 LIG 0.15  C 
BRANCH 31 32
ATOM     32  CG  ASP B 342      30.585   3.101 -41.436  1.00 22.92 LIG 0.17  C 
ATOM     33 OD1  ASP B 342      30.889   3.155 -42.657  1.00 25.81 LIG-0.65  OA
ATOM     34 OD2  ASP B 342      29.982   3.995 -40.812  1.00 25.94 LIG-0.65  OA
ENDBRANCH 31 32
ENDBRANCH 30 31
BRANCH 30 35
ATOM     35  C   ASP B 342      30.960  -0.507 -40.330  1.00 16.03 LIG 0.24  C 
ATOM     36  N   LEU B 343      31.289  -0.284 -39.052  1.00 16.72 LIG-0.35  N 
ATOM     37 H    LEU B 343      31.308   0.500 -38.699  1.00 16.72 LIG 0.16  HD
ATOM     38 O    ASP B 342      31.122  -1.584 -40.894  1.00 14.87 LIG-0.27  OA
BRANCH 36 39
ATOM     39  CA  LEU B 343      31.653  -1.361 -38.123  1.00 16.14 LIG 0.18  C 
BRANCH 39 40
ATOM     40  CB  LEU B 343      32.216  -0.815 -36.816  1.00 19.18 LIG 0.04  C 
BRANCH 40 41
ATOM     41  CG  LEU B 343      32.941  -1.862 -35.949  1.00 20.67 LIG-0.02  C 
ATOM     42  CD1 LEU B 343      31.965  -2.388 -34.880  1.00 23.87 LIG 0.01  C 
ATOM     43  CD2 LEU B 343      33.463  -3.002 -36.807  1.00 22.92 LIG 0.01  C 
ENDBRANCH 40 41
ENDBRANCH 39 40
BRANCH 39 44
ATOM     44  C   LEU B 343      30.421  -2.220 -37.811  1.00 14.33 LIG 0.24  C 
ATOM     45 O    LEU B 343      30.488  -3.463 -37.790  1.00 16.10 LIG-0.27  OA
ATOM     46  N   ALA B 344      29.304  -1.569 -37.583  1.00 14.89 LIG-0.34  N 
ATOM     47 H    ALA B 344      29.242  -0.713 -37.525  1.00 14.89 LIG 0.16  HD
BRANCH 46 48
ATOM     48  CA  ALA B 344      28.036  -2.297 -37.405  1.00 15.57 LIG 0.18  C 
ATOM     49  CB  ALA B 344      27.780  -3.204 -38.572  1.00 18.12 LIG 0.04  C 
BRANCH 48 50
ATOM     50  C   ALA B 344      28.099  -3.133 -36.132  1.00 15.03 LIG 0.20  C 
ATOM     51 OXT  ALA B 344      27.554  -4.245 -36.072  1.00 16.10 LIG-0.65  OA
ATOM     52 O    ALA B 344      28.790  -2.671 -35.185  1.00 15.80 LIG-0.65  OA
ENDBRANCH 48 50
ENDBRANCH 46 48
ENDBRANCH 39 44
ENDBRANCH 36 39
ENDBRANCH 30 35
ENDBRANCH 3 30
TORSDOF 18
ENDMDL
MODEL 45
USER: ADFR SOLUTION from run 144
USER: SCORE 15.766379 LL:  -5.826 LR: -11.172 RR:   0.000 FEB:  -5.802
USER: RMSD 6.529970
USER: SEED 143
USER: STATUS no improvement in best in 4 clusters for 5 generations
USER: GENES 20
USER: genes 0 Translation |==|  0.23810 0.53986 0.50186
USER: genes 1 Rotation |==|  0.48485 0.22727 0.54423 0.91645
USER: genes 2 Torsion [N]-C--CA-[N] |==|  0.09444
USER: genes 3 Torsion [C]-CA--CB-[CG] |==|  0.46682
USER: genes 4 Torsion [CA]-CB--CG-[CD1] |==|  0.29602
USER: genes 5 Torsion [C]-CA--N-[C] |==|  0.17117
USER: genes 6 Torsion [N]-C--CA-[CB] |==|  0.67946
USER: genes 7 Torsion [N]-C--CA-[N] |==|  0.87715
USER: genes 8 Torsion [C]-CA--CB-[CG] |==|  0.04892
USER: genes 9 Torsion [CA]-CB--CG-[CD1] |==|  0.19371
USER: genes 10 Torsion [C]-N--CA-[CB] |==|  0.21650
USER: genes 11 Torsion [N]-CA--CB-[CG] |==|  0.56796
USER: genes 12 Torsion [CA]-CB--CG-[OD1] |==|  0.18984
USER: genes 13 Torsion [N]-CA--C-[N] |==|  0.46230
USER: genes 14 Torsion [C]-N--CA-[C] |==|  0.77019
USER: genes 15 Torsion [N]-CA--CB-[CG] |==|  0.65899
USER: genes 16 Torsion [CA]-CB--CG-[CD1] |==|  0.53065
USER: genes 17 Torsion [N]-CA--C-[N] |==|  0.18647
USER: genes 18 Torsion [C]-N--CA-[CB] |==|  0.21082
USER: genes 19 Torsion [N]-CA--C-[OXT] |==|  0.62445
ROOT
ATOM      1  C   LEU B 341      23.683   5.092 -44.656  1.00 14.43 LIG 0.24  C 
ATOM      2 O    LEU B 341      23.163   4.196 -45.321  1.00 17.21 LIG-0.27  OA
ATOM      3  N   ASP B 342      24.405   4.858 -43.571  1.00 15.70 LIG-0.35  N 
ATOM      4 H    ASP B 342      24.858   5.456 -43.151  1.00 15.70 LIG 0.16  HD
ENDROOT
BRANCH 1 5
ATOM      5  CA  LEU B 341      23.528   6.567 -45.023  1.00 14.64 LIG 0.18  C 
BRANCH 5 6
ATOM      6  CB  LEU B 341      23.304   6.680 -46.532  1.00 15.72 LIG 0.04  C 
BRANCH 6 7
ATOM      7  CG  LEU B 341      22.852   8.058 -46.983  1.00 16.60 LIG-0.02  C 
ATOM      8  CD1 LEU B 341      23.998   8.752 -47.682  1.00 17.44 LIG 0.01  C 
ATOM      9  CD2 LEU B 341      21.604   7.986 -47.862  1.00 18.85 LIG 0.01  C 
ENDBRANCH 6 7
ENDBRANCH 5 6
BRANCH 5 10
ATOM     10  N   LEU B 341      24.711   7.359 -44.697  1.00 16.77 LIG-0.35  N 
ATOM     11  C   PRO B 340      25.883   7.096 -45.265  1.00 19.25 LIG 0.24  C 
ATOM     12 O    PRO B 340      26.051   6.257 -46.156  1.00 21.28 LIG-0.27  OA
ATOM     13 H    LEU B 341      24.579   7.986 -44.124  1.00 16.77 LIG 0.16  HD
BRANCH 11 14
ATOM     14  CA  PRO B 340      27.025   7.963 -44.785  1.00 21.04 LIG 0.18  C 
ATOM     15  N   PRO B 340      28.239   7.208 -44.394  1.00 20.95 LIG-0.34  N 
ATOM     16  CD  PRO B 340      29.438   7.689 -45.102  1.00 22.76 LIG 0.13  C 
ATOM     17  C   PHE B 339      28.179   6.350 -43.377  1.00 19.72 LIG 0.26  C 
ATOM     18  CG  PRO B 340      28.937   8.993 -45.685  1.00 24.91 LIG 0.02  C 
ATOM     19  CB  PRO B 340      27.504   8.800 -45.955  1.00 23.27 LIG 0.04  C 
ATOM     20 O    PHE B 339      27.101   6.094 -42.821  1.00 19.38 LIG-0.27  OA
BRANCH 17 21
ATOM     21  CA  PHE B 339      29.486   5.706 -42.917  1.00 21.94 LIG 0.40  C 
ATOM     22  N   PHE B 339      30.288   5.262 -44.047  1.00 23.90 LIG 0.61  N 
BRANCH 21 23
ATOM     23  CB  PHE B 339      30.290   6.692 -42.080  1.00 24.29 LIG 0.09  C 
BRANCH 23 24
ATOM     24  CG  PHE B 339      29.488   7.848 -41.557  1.00 28.97 LIG-0.06  A 
ATOM     25  CD1 PHE B 339      28.526   7.657 -40.568  1.00 31.92 LIG 0.01  A 
ATOM     26  CE1 PHE B 339      27.782   8.724 -40.080  1.00 33.96 LIG 0.00  A 
ATOM     27  CZ  PHE B 339      28.012  10.005 -40.572  1.00 35.90 LIG 0.00  A 
ATOM     28  CE2 PHE B 339      28.980  10.211 -41.557  1.00 35.56 LIG 0.00  A 
ATOM     29  CD2 PHE B 339      29.711   9.130 -42.042  1.00 33.37 LIG 0.01  A 
ENDBRANCH 23 24
ENDBRANCH 21 23
ENDBRANCH 17 21
ENDBRANCH 11 14
ENDBRANCH 5 10
ENDBRANCH 1 5
BRANCH 3 30
ATOM     30  CA  ASP B 342      24.480   3.517 -42.998  1.00 16.21 LIG 0.19  C 
BRANCH 30 31
ATOM     31  CB  ASP B 342      25.437   2.670 -43.814  1.00 18.68 LIG 0.15  C 
BRANCH 31 32
ATOM     32  CG  ASP B 342      25.183   1.210 -43.716  1.00 22.92 LIG 0.17  C 
ATOM     33 OD1  ASP B 342      24.143   0.705 -44.216  1.00 25.81 LIG-0.65  OA
ATOM     34 OD2  ASP B 342      26.067   0.570 -43.114  1.00 25.94 LIG-0.65  OA
ENDBRANCH 31 32
ENDBRANCH 30 31
BRANCH 30 35
ATOM     35  C   ASP B 342      25.048   3.544 -41.573  1.00 16.03 LIG 0.24  C 
ATOM     36  N   LEU B 343      24.893   2.416 -40.867  1.00 16.72 LIG-0.35  N 
ATOM     37 H    LEU B 343      24.334   1.799 -41.081  1.00 16.72 LIG 0.16  HD
ATOM     38 O    ASP B 342      25.690   4.511 -41.174  1.00 14.87 LIG-0.27  OA
BRANCH 36 39
ATOM     39  CA  LEU B 343      25.667   2.122 -39.655  1.00 16.14 LIG 0.18  C 
BRANCH 39 40
ATOM     40  CB  LEU B 343      24.946   1.131 -38.749  1.00 19.18 LIG 0.04  C 
BRANCH 40 41
ATOM     41  CG  LEU B 343      24.688   1.646 -37.320  1.00 20.67 LIG-0.02  C 
ATOM     42  CD1 LEU B 343      24.215   0.472 -36.443  1.00 23.87 LIG 0.01  C 
ATOM     43  CD2 LEU B 343      25.945   2.275 -36.742  1.00 22.92 LIG 0.01  C 
ENDBRANCH 40 41
ENDBRANCH 39 40
BRANCH 39 44
ATOM     44  C   LEU B 343      27.035   1.541 -40.035  1.00 14.33 LIG 0.24  C 
ATOM     45 O    LEU B 343      27.336   0.365 -39.764  1.00 16.10 LIG-0.27  OA
ATOM     46  N   ALA B 344      27.860   2.359 -40.647  1.00 14.89 LIG-0.34  N 
ATOM     47 H    ALA B 344      27.657   3.153 -40.906  1.00 14.89 LIG 0.16  HD
BRANCH 46 48
ATOM     48  CA  ALA B 344      29.244   1.946 -40.938  1.00 15.57 LIG 0.18  C 
ATOM     49  CB  ALA B 344      29.279   0.999 -42.099  1.00 18.12 LIG 0.04  C 
BRANCH 48 50
ATOM     50  C   ALA B 344      30.086   3.172 -41.272  1.00 15.03 LIG 0.20  C 
ATOM     51 OXT  ALA B 344      30.867   3.166 -42.235  1.00 16.10 LIG-0.65  OA
ATOM     52 O    ALA B 344      29.890   4.201 -40.572  1.00 15.80 LIG-0.65  OA
ENDBRANCH 48 50
ENDBRANCH 46 48
ENDBRANCH 39 44
ENDBRANCH 36 39
ENDBRANCH 30 35
ENDBRANCH 3 30
TORSDOF 18
ENDMDL
MODEL 46
USER: ADFR SOLUTION from run 146
USER: SCORE 14.517788 LL:  -5.336 LR: -11.168 RR:   0.000 FEB:  -5.799
USER: RMSD 9.357766
USER: SEED 145
USER: STATUS no improvement in best in 5 clusters for 5 generations
USER: GENES 20
USER: genes 0 Translation |==|  0.48632 0.71195 0.61052
USER: genes 1 Rotation |==|  0.75706 0.60723 0.17874 0.76308
USER: genes 2 Torsion [N]-C--CA-[N] |==|  0.90030
USER: genes 3 Torsion [C]-CA--CB-[CG] |==|  0.76316
USER: genes 4 Torsion [CA]-CB--CG-[CD1] |==|  0.26145
USER: genes 5 Torsion [C]-CA--N-[C] |==|  0.84314
USER: genes 6 Torsion [N]-C--CA-[CB] |==|  0.76972
USER: genes 7 Torsion [N]-C--CA-[N] |==|  0.17321
USER: genes 8 Torsion [C]-CA--CB-[CG] |==|  0.27663
USER: genes 9 Torsion [CA]-CB--CG-[CD1] |==|  0.57353
USER: genes 10 Torsion [C]-N--CA-[CB] |==|  0.35357
USER: genes 11 Torsion [N]-CA--CB-[CG] |==|  0.71220
USER: genes 12 Torsion [CA]-CB--CG-[OD1] |==|  0.69376
USER: genes 13 Torsion [N]-CA--C-[N] |==|  0.42883
USER: genes 14 Torsion [C]-N--CA-[C] |==|  0.19349
USER: genes 15 Torsion [N]-CA--CB-[CG] |==|  0.79665
USER: genes 16 Torsion [CA]-CB--CG-[CD1] |==|  0.96826
USER: genes 17 Torsion [N]-CA--C-[N] |==|  0.03961
USER: genes 18 Torsion [C]-N--CA-[CB] |==|  0.15833
USER: genes 19 Torsion [N]-CA--C-[OXT] |==|  0.76083
ROOT
ATOM      1  C   LEU B 341      28.523   8.835 -42.293  1.00 14.43 LIG 0.24  C 
ATOM      2 O    LEU B 341      27.687   9.327 -41.536  1.00 17.21 LIG-0.27  OA
ATOM      3  N   ASP B 342      28.293   8.620 -43.579  1.00 15.70 LIG-0.35  N 
ATOM      4 H    ASP B 342      28.891   8.372 -44.145  1.00 15.70 LIG 0.16  HD
ENDROOT
BRANCH 1 5
ATOM      5  CA  LEU B 341      29.909   8.413 -41.807  1.00 14.64 LIG 0.18  C 
BRANCH 5 6
ATOM      6  CB  LEU B 341      30.903   9.534 -42.118  1.00 15.72 LIG 0.04  C 
BRANCH 6 7
ATOM      7  CG  LEU B 341      31.476   9.472 -43.522  1.00 16.60 LIG-0.02  C 
ATOM      8  CD1 LEU B 341      30.653  10.352 -44.434  1.00 17.44 LIG 0.01  C 
ATOM      9  CD2 LEU B 341      32.957   9.849 -43.548  1.00 18.85 LIG 0.01  C 
ENDBRANCH 6 7
ENDBRANCH 5 6
BRANCH 5 10
ATOM     10  N   LEU B 341      30.395   7.203 -42.463  1.00 16.77 LIG-0.35  N 
ATOM     11  C   PRO B 340      29.690   6.078 -42.425  1.00 19.25 LIG 0.24  C 
ATOM     12 O    PRO B 340      28.559   5.982 -41.935  1.00 21.28 LIG-0.27  OA
ATOM     13 H    LEU B 341      31.153   7.288 -42.861  1.00 16.77 LIG 0.16  HD
BRANCH 11 14
ATOM     14  CA  PRO B 340      30.350   4.897 -43.100  1.00 21.04 LIG 0.18  C 
ATOM     15  N   PRO B 340      29.774   3.583 -42.726  1.00 20.95 LIG-0.34  N 
ATOM     16  CD  PRO B 340      29.364   2.806 -43.908  1.00 22.76 LIG 0.13  C 
ATOM     17  C   PHE B 339      29.843   3.173 -41.461  1.00 19.72 LIG 0.26  C 
ATOM     18  CG  PRO B 340      30.035   3.581 -45.022  1.00 24.91 LIG 0.02  C 
ATOM     19  CB  PRO B 340      30.064   4.985 -44.586  1.00 23.27 LIG 0.04  C 
ATOM     20 O    PHE B 339      30.284   3.915 -40.572  1.00 19.38 LIG-0.27  OA
BRANCH 17 21
ATOM     21  CA  PHE B 339      29.369   1.754 -41.151  1.00 21.94 LIG 0.40  C 
ATOM     22  N   PHE B 339      30.175   0.760 -41.844  1.00 23.90 LIG 0.61  N 
BRANCH 21 23
ATOM     23  CB  PHE B 339      29.427   1.497 -39.651  1.00 24.29 LIG 0.09  C 
BRANCH 23 24
ATOM     24  CG  PHE B 339      28.104   1.634 -38.955  1.00 28.97 LIG-0.06  A 
ATOM     25  CD1 PHE B 339      28.040   1.975 -37.606  1.00 31.92 LIG 0.01  A 
ATOM     26  CE1 PHE B 339      26.818   2.103 -36.959  1.00 33.96 LIG 0.00  A 
ATOM     27  CZ  PHE B 339      25.638   1.906 -37.671  1.00 35.90 LIG 0.00  A 
ATOM     28  CE2 PHE B 339      25.688   1.572 -39.026  1.00 35.56 LIG 0.00  A 
ATOM     29  CD2 PHE B 339      26.921   1.439 -39.658  1.00 33.37 LIG 0.01  A 
ENDBRANCH 23 24
ENDBRANCH 21 23
ENDBRANCH 17 21
ENDBRANCH 11 14
ENDBRANCH 5 10
ENDBRANCH 1 5
BRANCH 3 30
ATOM     30  CA  ASP B 342      26.956   8.798 -44.139  1.00 16.21 LIG 0.19  C 
BRANCH 30 31
ATOM     31  CB  ASP B 342      27.027   9.721 -45.339  1.00 18.68 LIG 0.15  C 
BRANCH 31 32
ATOM     32  CG  ASP B 342      26.547  11.100 -45.068  1.00 22.92 LIG 0.17  C 
ATOM     33 OD1  ASP B 342      25.472  11.517 -45.573  1.00 25.81 LIG-0.65  OA
ATOM     34 OD2  ASP B 342      27.290  11.768 -44.323  1.00 25.94 LIG-0.65  OA
ENDBRANCH 31 32
ENDBRANCH 30 31
BRANCH 30 35
ATOM     35  C   ASP B 342      26.381   7.473 -44.658  1.00 16.03 LIG 0.24  C 
ATOM     36  N   LEU B 343      25.044   7.395 -44.687  1.00 16.72 LIG-0.35  N 
ATOM     37 H    LEU B 343      24.531   7.929 -44.251  1.00 16.72 LIG 0.16  HD
ATOM     38 O    ASP B 342      27.121   6.605 -45.109  1.00 14.87 LIG-0.27  OA
BRANCH 36 39
ATOM     39  CA  LEU B 343      24.322   6.385 -45.471  1.00 16.14 LIG 0.18  C 
BRANCH 39 40
ATOM     40  CB  LEU B 343      24.791   6.352 -46.921  1.00 19.18 LIG 0.04  C 
BRANCH 40 41
ATOM     41  CG  LEU B 343      24.322   7.549 -47.769  1.00 20.67 LIG-0.02  C 
ATOM     42  CD1 LEU B 343      23.252   8.331 -46.985  1.00 23.87 LIG 0.01  C 
ATOM     43  CD2 LEU B 343      25.495   8.450 -48.121  1.00 22.92 LIG 0.01  C 
ENDBRANCH 40 41
ENDBRANCH 39 40
BRANCH 39 44
ATOM     44  C   LEU B 343      24.527   4.997 -44.852  1.00 14.33 LIG 0.24  C 
ATOM     45 O    LEU B 343      24.225   3.961 -45.472  1.00 16.10 LIG-0.27  OA
ATOM     46  N   ALA B 344      25.022   4.974 -43.636  1.00 14.89 LIG-0.34  N 
ATOM     47 H    ALA B 344      25.301   5.667 -43.210  1.00 14.89 LIG 0.16  HD
BRANCH 46 48
ATOM     48  CA  ALA B 344      25.135   3.704 -42.897  1.00 15.57 LIG 0.18  C 
ATOM     49  CB  ALA B 344      25.953   2.715 -43.671  1.00 18.12 LIG 0.04  C 
BRANCH 48 50
ATOM     50  C   ALA B 344      25.801   3.952 -41.549  1.00 15.03 LIG 0.20  C 
ATOM     51 OXT  ALA B 344      27.037   3.955 -41.439  1.00 16.10 LIG-0.65  OA
ATOM     52 O    ALA B 344      25.040   4.225 -40.583  1.00 15.80 LIG-0.65  OA
ENDBRANCH 48 50
ENDBRANCH 46 48
ENDBRANCH 39 44
ENDBRANCH 36 39
ENDBRANCH 30 35
ENDBRANCH 3 30
TORSDOF 18
ENDMDL
MODEL 47
USER: ADFR SOLUTION from run 160
USER: SCORE 15.293857 LL:  -4.840 LR: -11.128 RR:   0.000 FEB:  -5.758
USER: RMSD 4.066418
USER: SEED 159
USER: STATUS no improvement in best in 7 clusters for 5 generations
USER: GENES 20
USER: genes 0 Translation |==|  0.50757 0.58160 0.63796
USER: genes 1 Rotation |==|  0.37613 0.92645 0.51634 0.72919
USER: genes 2 Torsion [N]-C--CA-[N] |==|  0.95216
USER: genes 3 Torsion [C]-CA--CB-[CG] |==|  0.36135
USER: genes 4 Torsion [CA]-CB--CG-[CD1] |==|  0.04447
USER: genes 5 Torsion [C]-CA--N-[C] |==|  0.76208
USER: genes 6 Torsion [N]-C--CA-[CB] |==|  0.67141
USER: genes 7 Torsion [N]-C--CA-[N] |==|  0.39997
USER: genes 8 Torsion [C]-CA--CB-[CG] |==|  0.01978
USER: genes 9 Torsion [CA]-CB--CG-[CD1] |==|  0.26297
USER: genes 10 Torsion [C]-N--CA-[CB] |==|  0.80943
USER: genes 11 Torsion [N]-CA--CB-[CG] |==|  0.89298
USER: genes 12 Torsion [CA]-CB--CG-[OD1] |==|  0.31872
USER: genes 13 Torsion [N]-CA--C-[N] |==|  0.20825
USER: genes 14 Torsion [C]-N--CA-[C] |==|  0.86002
USER: genes 15 Torsion [N]-CA--CB-[CG] |==|  0.67090
USER: genes 16 Torsion [CA]-CB--CG-[CD1] |==|  0.99067
USER: genes 17 Torsion [N]-CA--C-[N] |==|  0.36856
USER: genes 18 Torsion [C]-N--CA-[CB] |==|  0.28283
USER: genes 19 Torsion [N]-CA--C-[OXT] |==|  0.50789
ROOT
ATOM      1  C   LEU B 341      28.938   6.000 -41.696  1.00 14.43 LIG 0.24  C 
ATOM      2 O    LEU B 341      29.896   5.816 -40.947  1.00 17.21 LIG-0.27  OA
ATOM      3  N   ASP B 342      28.432   5.048 -42.466  1.00 15.70 LIG-0.35  N 
ATOM      4 H    ASP B 342      27.706   5.125 -42.920  1.00 15.70 LIG 0.16  HD
ENDROOT
BRANCH 1 5
ATOM      5  CA  LEU B 341      28.250   7.359 -41.814  1.00 14.64 LIG 0.18  C 
BRANCH 5 6
ATOM      6  CB  LEU B 341      27.320   7.548 -40.614  1.00 15.72 LIG 0.04  C 
BRANCH 6 7
ATOM      7  CG  LEU B 341      27.502   8.876 -39.902  1.00 16.60 LIG-0.02  C 
ATOM      8  CD1 LEU B 341      28.275   9.818 -40.795  1.00 17.44 LIG 0.01  C 
ATOM      9  CD2 LEU B 341      26.165   9.472 -39.462  1.00 18.85 LIG 0.01  C 
ENDBRANCH 6 7
ENDBRANCH 5 6
BRANCH 5 10
ATOM     10  N   LEU B 341      27.435   7.478 -43.020  1.00 16.77 LIG-0.35  N 
ATOM     11  C   PRO B 340      27.977   7.859 -44.172  1.00 19.25 LIG 0.24  C 
ATOM     12 O    PRO B 340      29.186   8.045 -44.344  1.00 21.28 LIG-0.27  OA
ATOM     13 H    LEU B 341      26.604   7.285 -42.915  1.00 16.77 LIG 0.16  HD
BRANCH 11 14
ATOM     14  CA  PRO B 340      26.997   7.991 -45.316  1.00 21.04 LIG 0.18  C 
ATOM     15  N   PRO B 340      27.053   9.296 -46.017  1.00 20.95 LIG-0.34  N 
ATOM     16  CD  PRO B 340      27.249   9.133 -47.468  1.00 22.76 LIG 0.13  C 
ATOM     17  C   PHE B 339      26.758  10.411 -45.352  1.00 19.72 LIG 0.26  C 
ATOM     18  CG  PRO B 340      26.970   7.655 -47.643  1.00 24.91 LIG 0.02  C 
ATOM     19  CB  PRO B 340      27.399   7.006 -46.395  1.00 23.27 LIG 0.04  C 
ATOM     20 O    PHE B 339      26.540  10.389 -44.132  1.00 19.38 LIG-0.27  OA
BRANCH 17 21
ATOM     21  CA  PHE B 339      26.687  11.713 -46.150  1.00 21.94 LIG 0.40  C 
ATOM     22  N   PHE B 339      25.640  12.589 -45.647  1.00 23.90 LIG 0.61  N 
BRANCH 21 23
ATOM     23  CB  PHE B 339      28.025  12.437 -46.092  1.00 24.29 LIG 0.09  C 
BRANCH 23 24
ATOM     24  CG  PHE B 339      29.120  11.649 -45.433  1.00 28.97 LIG-0.06  A 
ATOM     25  CD1 PHE B 339      30.000  10.880 -46.193  1.00 31.92 LIG 0.01  A 
ATOM     26  CE1 PHE B 339      31.015  10.150 -45.587  1.00 33.96 LIG 0.00  A 
ATOM     27  CZ  PHE B 339      31.167  10.200 -44.205  1.00 35.90 LIG 0.00  A 
ATOM     28  CE2 PHE B 339      30.298  10.973 -43.433  1.00 35.56 LIG 0.00  A 
ATOM     29  CD2 PHE B 339      29.280  11.692 -44.054  1.00 33.37 LIG 0.01  A 
ENDBRANCH 23 24
ENDBRANCH 21 23
ENDBRANCH 17 21
ENDBRANCH 11 14
ENDBRANCH 5 10
ENDBRANCH 1 5
BRANCH 3 30
ATOM     30  CA  ASP B 342      29.102   3.758 -42.597  1.00 16.21 LIG 0.19  C 
BRANCH 30 31
ATOM     31  CB  ASP B 342      30.405   3.937 -43.352  1.00 18.68 LIG 0.15  C 
BRANCH 31 32
ATOM     32  CG  ASP B 342      30.325   4.913 -44.468  1.00 22.92 LIG 0.17  C 
ATOM     33 OD1  ASP B 342      30.985   5.985 -44.431  1.00 25.81 LIG-0.65  OA
ATOM     34 OD2  ASP B 342      29.572   4.572 -45.400  1.00 25.94 LIG-0.65  OA
ENDBRANCH 31 32
ENDBRANCH 30 31
BRANCH 30 35
ATOM     35  C   ASP B 342      29.482   3.177 -41.228  1.00 16.03 LIG 0.24  C 
ATOM     36  N   LEU B 343      28.470   2.668 -40.515  1.00 16.72 LIG-0.35  N 
ATOM     37 H    LEU B 343      27.644   2.840 -40.679  1.00 16.72 LIG 0.16  HD
ATOM     38 O    ASP B 342      30.658   3.103 -40.886  1.00 14.87 LIG-0.27  OA
BRANCH 36 39
ATOM     39  CA  LEU B 343      28.673   1.762 -39.378  1.00 16.14 LIG 0.18  C 
BRANCH 39 40
ATOM     40  CB  LEU B 343      27.358   1.171 -38.882  1.00 19.18 LIG 0.04  C 
BRANCH 40 41
ATOM     41  CG  LEU B 343      27.008   1.530 -37.426  1.00 20.67 LIG-0.02  C 
ATOM     42  CD1 LEU B 343      28.162   2.350 -36.820  1.00 23.87 LIG 0.01  C 
ATOM     43  CD2 LEU B 343      25.705   2.311 -37.365  1.00 22.92 LIG 0.01  C 
ENDBRANCH 40 41
ENDBRANCH 39 40
BRANCH 39 44
ATOM     44  C   LEU B 343      29.610   0.617 -39.782  1.00 14.33 LIG 0.24  C 
ATOM     45 O    LEU B 343      29.436  -0.019 -40.837  1.00 16.10 LIG-0.27  OA
ATOM     46  N   ALA B 344      30.587   0.347 -38.947  1.00 14.89 LIG-0.34  N 
ATOM     47 H    ALA B 344      30.771   0.810 -38.246  1.00 14.89 LIG 0.16  HD
BRANCH 46 48
ATOM     48  CA  ALA B 344      31.463  -0.817 -39.171  1.00 15.57 LIG 0.18  C 
ATOM     49  CB  ALA B 344      32.774  -0.384 -39.755  1.00 18.12 LIG 0.04  C 
BRANCH 48 50
ATOM     50  C   ALA B 344      31.720  -1.528 -37.847  1.00 15.03 LIG 0.20  C 
ATOM     51 OXT  ALA B 344      32.476  -2.508 -37.787  1.00 16.10 LIG-0.65  OA
ATOM     52 O    ALA B 344      31.189  -1.024 -36.822  1.00 15.80 LIG-0.65  OA
ENDBRANCH 48 50
ENDBRANCH 46 48
ENDBRANCH 39 44
ENDBRANCH 36 39
ENDBRANCH 30 35
ENDBRANCH 3 30
TORSDOF 18
ENDMDL
MODEL 48
USER: ADFR SOLUTION from run 120
USER: SCORE 14.375729 LL:  -4.348 LR: -11.120 RR:   0.000 FEB:  -5.751
USER: RMSD 5.934713
USER: SEED 119
USER: STATUS no improvement in best in 15 clusters for 5 generations
USER: GENES 20
USER: genes 0 Translation |==|  0.35703 0.47737 0.61876
USER: genes 1 Rotation |==|  0.46126 0.66387 0.25661 0.90300
USER: genes 2 Torsion [N]-C--CA-[N] |==|  0.57222
USER: genes 3 Torsion [C]-CA--CB-[CG] |==|  0.71134
USER: genes 4 Torsion [CA]-CB--CG-[CD1] |==|  0.32728
USER: genes 5 Torsion [C]-CA--N-[C] |==|  0.57447
USER: genes 6 Torsion [N]-C--CA-[CB] |==|  0.79807
USER: genes 7 Torsion [N]-C--CA-[N] |==|  0.37989
USER: genes 8 Torsion [C]-CA--CB-[CG] |==|  0.19154
USER: genes 9 Torsion [CA]-CB--CG-[CD1] |==|  0.27251
USER: genes 10 Torsion [C]-N--CA-[CB] |==|  0.53022
USER: genes 11 Torsion [N]-CA--CB-[CG] |==|  0.08016
USER: genes 12 Torsion [CA]-CB--CG-[OD1] |==|  0.71200
USER: genes 13 Torsion [N]-CA--C-[N] |==|  0.50065
USER: genes 14 Torsion [C]-N--CA-[C] |==|  0.80103
USER: genes 15 Torsion [N]-CA--CB-[CG] |==|  0.64496
USER: genes 16 Torsion [CA]-CB--CG-[CD1] |==|  0.02866
USER: genes 17 Torsion [N]-CA--C-[N] |==|  0.38901
USER: genes 18 Torsion [C]-N--CA-[CB] |==|  0.21076
USER: genes 19 Torsion [N]-CA--C-[OXT] |==|  0.73772
ROOT
ATOM      1  C   LEU B 341      26.002   3.733 -42.114  1.00 14.43 LIG 0.24  C 
ATOM      2 O    LEU B 341      25.322   4.118 -41.164  1.00 17.21 LIG-0.27  OA
ATOM      3  N   ASP B 342      25.907   2.513 -42.620  1.00 15.70 LIG-0.35  N 
ATOM      4 H    ASP B 342      26.297   2.255 -43.342  1.00 15.70 LIG 0.16  HD
ENDROOT
BRANCH 1 5
ATOM      5  CA  LEU B 341      27.035   4.633 -42.790  1.00 14.64 LIG 0.18  C 
BRANCH 5 6
ATOM      6  CB  LEU B 341      28.227   3.778 -43.223  1.00 15.72 LIG 0.04  C 
BRANCH 6 7
ATOM      7  CG  LEU B 341      29.444   3.926 -42.329  1.00 16.60 LIG-0.02  C 
ATOM      8  CD1 LEU B 341      29.759   2.592 -41.692  1.00 17.44 LIG 0.01  C 
ATOM      9  CD2 LEU B 341      30.642   4.493 -43.090  1.00 18.85 LIG 0.01  C 
ENDBRANCH 6 7
ENDBRANCH 5 6
BRANCH 5 10
ATOM     10  N   LEU B 341      27.544   5.675 -41.903  1.00 16.77 LIG-0.35  N 
ATOM     11  C   PRO B 340      28.002   6.822 -42.393  1.00 19.25 LIG 0.24  C 
ATOM     12 O    PRO B 340      27.952   7.138 -43.587  1.00 21.28 LIG-0.27  OA
ATOM     13 H    LEU B 341      27.519   5.481 -41.066  1.00 16.77 LIG 0.16  HD
BRANCH 11 14
ATOM     14  CA  PRO B 340      28.549   7.777 -41.356  1.00 21.04 LIG 0.18  C 
ATOM     15  N   PRO B 340      29.199   8.983 -41.923  1.00 20.95 LIG-0.34  N 
ATOM     16  CD  PRO B 340      28.629  10.225 -41.373  1.00 22.76 LIG 0.13  C 
ATOM     17  C   PHE B 339      30.284   8.847 -42.682  1.00 19.72 LIG 0.26  C 
ATOM     18  CG  PRO B 340      27.835   9.695 -40.198  1.00 24.91 LIG 0.02  C 
ATOM     19  CB  PRO B 340      27.377   8.352 -40.584  1.00 23.27 LIG 0.04  C 
ATOM     20 O    PHE B 339      30.698   7.726 -43.010  1.00 19.38 LIG-0.27  OA
BRANCH 17 21
ATOM     21  CA  PHE B 339      31.004  10.121 -43.122  1.00 21.94 LIG 0.40  C 
ATOM     22  N   PHE B 339      32.447   9.987 -43.000  1.00 23.90 LIG 0.61  N 
BRANCH 21 23
ATOM     23  CB  PHE B 339      30.646  10.454 -44.564  1.00 24.29 LIG 0.09  C 
BRANCH 23 24
ATOM     24  CG  PHE B 339      29.223  10.890 -44.757  1.00 28.97 LIG-0.06  A 
ATOM     25  CD1 PHE B 339      28.896  12.242 -44.833  1.00 31.92 LIG 0.01  A 
ATOM     26  CE1 PHE B 339      27.580  12.650 -45.012  1.00 33.96 LIG 0.00  A 
ATOM     27  CZ  PHE B 339      26.575  11.695 -45.135  1.00 35.90 LIG 0.00  A 
ATOM     28  CE2 PHE B 339      26.890  10.337 -45.070  1.00 35.56 LIG 0.00  A 
ATOM     29  CD2 PHE B 339      28.213   9.945 -44.881  1.00 33.37 LIG 0.01  A 
ENDBRANCH 23 24
ENDBRANCH 21 23
ENDBRANCH 17 21
ENDBRANCH 11 14
ENDBRANCH 5 10
ENDBRANCH 1 5
BRANCH 3 30
ATOM     30  CA  ASP B 342      25.103   1.490 -41.959  1.00 16.21 LIG 0.19  C 
BRANCH 30 31
ATOM     31  CB  ASP B 342      25.381   0.139 -42.589  1.00 18.68 LIG 0.15  C 
BRANCH 31 32
ATOM     32  CG  ASP B 342      26.748   0.008 -43.155  1.00 22.92 LIG 0.17  C 
ATOM     33 OD1  ASP B 342      26.936   0.072 -44.399  1.00 25.81 LIG-0.65  OA
ATOM     34 OD2  ASP B 342      27.645  -0.163 -42.307  1.00 25.94 LIG-0.65  OA
ENDBRANCH 31 32
ENDBRANCH 30 31
BRANCH 30 35
ATOM     35  C   ASP B 342      25.473   1.350 -40.477  1.00 16.03 LIG 0.24  C 
ATOM     36  N   LEU B 343      24.786   0.428 -39.792  1.00 16.72 LIG-0.35  N 
ATOM     37 H    LEU B 343      24.045   0.090 -40.069  1.00 16.72 LIG 0.16  HD
ATOM     38 O    ASP B 342      26.416   1.981 -40.007  1.00 14.87 LIG-0.27  OA
BRANCH 36 39
ATOM     39  CA  LEU B 343      25.231  -0.100 -38.497  1.00 16.14 LIG 0.18  C 
BRANCH 39 40
ATOM     40  CB  LEU B 343      24.130  -0.890 -37.799  1.00 19.18 LIG 0.04  C 
BRANCH 40 41
ATOM     41  CG  LEU B 343      23.850  -0.449 -36.350  1.00 20.67 LIG-0.02  C 
ATOM     42  CD1 LEU B 343      24.598   0.868 -36.074  1.00 23.87 LIG 0.01  C 
ATOM     43  CD2 LEU B 343      22.357  -0.276 -36.121  1.00 22.92 LIG 0.01  C 
ENDBRANCH 40 41
ENDBRANCH 39 40
BRANCH 39 44
ATOM     44  C   LEU B 343      26.448  -1.012 -38.693  1.00 14.33 LIG 0.24  C 
ATOM     45 O    LEU B 343      26.514  -1.806 -39.649  1.00 16.10 LIG-0.27  OA
ATOM     46  N   ALA B 344      27.398  -0.910 -37.792  1.00 14.89 LIG-0.34  N 
ATOM     47 H    ALA B 344      27.410  -0.326 -37.161  1.00 14.89 LIG 0.16  HD
BRANCH 46 48
ATOM     48  CA  ALA B 344      28.548  -1.831 -37.810  1.00 15.57 LIG 0.18  C 
ATOM     49  CB  ALA B 344      29.506  -1.457 -38.901  1.00 18.12 LIG 0.04  C 
BRANCH 48 50
ATOM     50  C   ALA B 344      29.274  -1.770 -36.470  1.00 15.03 LIG 0.20  C 
ATOM     51 OXT  ALA B 344      30.249  -1.022 -36.307  1.00 16.10 LIG-0.65  OA
ATOM     52 O    ALA B 344      28.788  -2.455 -35.532  1.00 15.80 LIG-0.65  OA
ENDBRANCH 48 50
ENDBRANCH 46 48
ENDBRANCH 39 44
ENDBRANCH 36 39
ENDBRANCH 30 35
ENDBRANCH 3 30
TORSDOF 18
ENDMDL
MODEL 49
USER: ADFR SOLUTION from run 26
USER: SCORE 14.568706 LL:  -5.105 LR: -11.102 RR:   0.000 FEB:  -5.732
USER: RMSD 9.525129
USER: SEED 25
USER: STATUS no improvement in best in 4 clusters for 5 generations
USER: GENES 20
USER: genes 0 Translation |==|  0.39699 0.59865 0.52444
USER: genes 1 Rotation |==|  0.78206 0.73182 0.78495 0.68842
USER: genes 2 Torsion [N]-C--CA-[N] |==|  0.45694
USER: genes 3 Torsion [C]-CA--CB-[CG] |==|  0.30644
USER: genes 4 Torsion [CA]-CB--CG-[CD1] |==|  0.48006
USER: genes 5 Torsion [C]-CA--N-[C] |==|  0.63043
USER: genes 6 Torsion [N]-C--CA-[CB] |==|  0.68001
USER: genes 7 Torsion [N]-C--CA-[N] |==|  0.45344
USER: genes 8 Torsion [C]-CA--CB-[CG] |==|  0.29257
USER: genes 9 Torsion [CA]-CB--CG-[CD1] |==|  0.06877
USER: genes 10 Torsion [C]-N--CA-[CB] |==|  0.47086
USER: genes 11 Torsion [N]-CA--CB-[CG] |==|  0.21910
USER: genes 12 Torsion [CA]-CB--CG-[OD1] |==|  0.88041
USER: genes 13 Torsion [N]-CA--C-[N] |==|  0.94828
USER: genes 14 Torsion [C]-N--CA-[C] |==|  0.67895
USER: genes 15 Torsion [N]-CA--CB-[CG] |==|  0.19965
USER: genes 16 Torsion [CA]-CB--CG-[CD1] |==|  0.42065
USER: genes 17 Torsion [N]-CA--C-[N] |==|  0.06627
USER: genes 18 Torsion [C]-N--CA-[CB] |==|  0.87623
USER: genes 19 Torsion [N]-CA--C-[OXT] |==|  0.44683
ROOT
ATOM      1  C   LEU B 341      26.781   6.371 -44.165  1.00 14.43 LIG 0.24  C 
ATOM      2 O    LEU B 341      27.037   5.685 -45.154  1.00 17.21 LIG-0.27  OA
ATOM      3  N   ASP B 342      26.430   7.645 -44.244  1.00 15.70 LIG-0.35  N 
ATOM      4 H    ASP B 342      26.151   8.114 -43.579  1.00 15.70 LIG 0.16  HD
ENDROOT
BRANCH 1 5
ATOM      5  CA  LEU B 341      26.860   5.809 -42.747  1.00 14.64 LIG 0.18  C 
BRANCH 5 6
ATOM      6  CB  LEU B 341      28.148   6.308 -42.089  1.00 15.72 LIG 0.04  C 
BRANCH 6 7
ATOM      7  CG  LEU B 341      27.917   7.312 -40.974  1.00 16.60 LIG-0.02  C 
ATOM      8  CD1 LEU B 341      29.231   7.600 -40.284  1.00 17.44 LIG 0.01  C 
ATOM      9  CD2 LEU B 341      27.250   8.587 -41.489  1.00 18.85 LIG 0.01  C 
ENDBRANCH 6 7
ENDBRANCH 5 6
BRANCH 5 10
ATOM     10  N   LEU B 341      26.892   4.349 -42.717  1.00 16.77 LIG-0.35  N 
ATOM     11  C   PRO B 340      26.111   3.669 -41.885  1.00 19.25 LIG 0.24  C 
ATOM     12 O    PRO B 340      25.251   4.183 -41.161  1.00 21.28 LIG-0.27  OA
ATOM     13 H    LEU B 341      27.444   3.989 -43.268  1.00 16.77 LIG 0.16  HD
BRANCH 11 14
ATOM     14  CA  PRO B 340      26.298   2.169 -41.930  1.00 21.04 LIG 0.18  C 
ATOM     15  N   PRO B 340      26.467   1.538 -40.599  1.00 20.95 LIG-0.34  N 
ATOM     16  CD  PRO B 340      25.502   0.447 -40.381  1.00 22.76 LIG 0.13  C 
ATOM     17  C   PHE B 339      27.517   1.863 -39.848  1.00 19.72 LIG 0.26  C 
ATOM     18  CG  PRO B 340      24.968   0.236 -41.782  1.00 24.91 LIG 0.02  C 
ATOM     19  CB  PRO B 340      25.012   1.550 -42.441  1.00 23.27 LIG 0.04  C 
ATOM     20 O    PHE B 339      28.298   2.761 -40.196  1.00 19.38 LIG-0.27  OA
BRANCH 17 21
ATOM     21  CA  PHE B 339      27.729   1.081 -38.552  1.00 21.94 LIG 0.40  C 
ATOM     22  N   PHE B 339      29.081   1.251 -38.042  1.00 23.90 LIG 0.61  N 
BRANCH 21 23
ATOM     23  CB  PHE B 339      26.729   1.534 -37.497  1.00 24.29 LIG 0.09  C 
BRANCH 23 24
ATOM     24  CG  PHE B 339      25.613   0.558 -37.253  1.00 28.97 LIG-0.06  A 
ATOM     25  CD1 PHE B 339      25.780  -0.797 -37.529  1.00 31.92 LIG 0.01  A 
ATOM     26  CE1 PHE B 339      24.751  -1.703 -37.303  1.00 33.96 LIG 0.00  A 
ATOM     27  CZ  PHE B 339      23.542  -1.254 -36.779  1.00 35.90 LIG 0.00  A 
ATOM     28  CE2 PHE B 339      23.365   0.100 -36.491  1.00 35.56 LIG 0.00  A 
ATOM     29  CD2 PHE B 339      24.403   0.996 -36.730  1.00 33.37 LIG 0.01  A 
ENDBRANCH 23 24
ENDBRANCH 21 23
ENDBRANCH 17 21
ENDBRANCH 11 14
ENDBRANCH 5 10
ENDBRANCH 1 5
BRANCH 3 30
ATOM     30  CA  ASP B 342      26.496   8.362 -45.514  1.00 16.21 LIG 0.19  C 
BRANCH 30 31
ATOM     31  CB  ASP B 342      25.802   9.703 -45.376  1.00 18.68 LIG 0.15  C 
BRANCH 31 32
ATOM     32  CG  ASP B 342      26.622  10.739 -44.697  1.00 22.92 LIG 0.17  C 
ATOM     33 OD1  ASP B 342      27.290  10.456 -43.668  1.00 25.81 LIG-0.65  OA
ATOM     34 OD2  ASP B 342      26.577  11.864 -45.230  1.00 25.94 LIG-0.65  OA
ENDBRANCH 31 32
ENDBRANCH 30 31
BRANCH 30 35
ATOM     35  C   ASP B 342      27.945   8.674 -45.911  1.00 16.03 LIG 0.24  C 
ATOM     36  N   LEU B 343      28.843   8.614 -44.919  1.00 16.72 LIG-0.35  N 
ATOM     37 H    LEU B 343      28.627   8.628 -44.087  1.00 16.72 LIG 0.16  HD
ATOM     38 O    ASP B 342      28.245   8.855 -47.087  1.00 14.87 LIG-0.27  OA
BRANCH 36 39
ATOM     39  CA  LEU B 343      30.288   8.519 -45.157  1.00 16.14 LIG 0.18  C 
BRANCH 39 40
ATOM     40  CB  LEU B 343      31.049   9.653 -44.481  1.00 19.18 LIG 0.04  C 
BRANCH 40 41
ATOM     41  CG  LEU B 343      31.124   9.544 -42.946  1.00 20.67 LIG-0.02  C 
ATOM     42  CD1 LEU B 343      32.412  10.230 -42.457  1.00 23.87 LIG 0.01  C 
ATOM     43  CD2 LEU B 343      29.901  10.177 -42.303  1.00 22.92 LIG 0.01  C 
ENDBRANCH 40 41
ENDBRANCH 39 40
BRANCH 39 44
ATOM     44  C   LEU B 343      30.819   7.181 -44.628  1.00 14.33 LIG 0.24  C 
ATOM     45 O    LEU B 343      32.016   7.035 -44.323  1.00 16.10 LIG-0.27  OA
ATOM     46  N   ALA B 344      29.941   6.209 -44.532  1.00 14.89 LIG-0.34  N 
ATOM     47 H    ALA B 344      29.097   6.298 -44.672  1.00 14.89 LIG 0.16  HD
BRANCH 46 48
ATOM     48  CA  ALA B 344      30.369   4.848 -44.163  1.00 15.57 LIG 0.18  C 
ATOM     49  CB  ALA B 344      31.604   4.460 -44.919  1.00 18.12 LIG 0.04  C 
BRANCH 48 50
ATOM     50  C   ALA B 344      30.664   4.791 -42.668  1.00 15.03 LIG 0.20  C 
ATOM     51 OXT  ALA B 344      30.696   3.708 -42.065  1.00 16.10 LIG-0.65  OA
ATOM     52 O    ALA B 344      30.945   5.883 -42.105  1.00 15.80 LIG-0.65  OA
ENDBRANCH 48 50
ENDBRANCH 46 48
ENDBRANCH 39 44
ENDBRANCH 36 39
ENDBRANCH 30 35
ENDBRANCH 3 30
TORSDOF 18
ENDMDL
MODEL 50
USER: ADFR SOLUTION from run 115
USER: SCORE 14.854033 LL:  -4.890 LR: -11.093 RR:   0.000 FEB:  -5.724
USER: RMSD 6.112000
USER: SEED 114
USER: STATUS no improvement in best in 6 clusters for 5 generations
USER: GENES 20
USER: genes 0 Translation |==|  0.41465 0.53272 0.63815
USER: genes 1 Rotation |==|  0.55946 0.99145 0.43038 0.50973
USER: genes 2 Torsion [N]-C--CA-[N] |==|  0.83425
USER: genes 3 Torsion [C]-CA--CB-[CG] |==|  0.37439
USER: genes 4 Torsion [CA]-CB--CG-[CD1] |==|  0.93944
USER: genes 5 Torsion [C]-CA--N-[C] |==|  0.62263
USER: genes 6 Torsion [N]-C--CA-[CB] |==|  0.71443
USER: genes 7 Torsion [N]-C--CA-[N] |==|  0.35076
USER: genes 8 Torsion [C]-CA--CB-[CG] |==|  0.08019
USER: genes 9 Torsion [CA]-CB--CG-[CD1] |==|  0.19674
USER: genes 10 Torsion [C]-N--CA-[CB] |==|  0.79437
USER: genes 11 Torsion [N]-CA--CB-[CG] |==|  0.92712
USER: genes 12 Torsion [CA]-CB--CG-[OD1] |==|  0.33000
USER: genes 13 Torsion [N]-CA--C-[N] |==|  0.24368
USER: genes 14 Torsion [C]-N--CA-[C] |==|  0.64578
USER: genes 15 Torsion [N]-CA--CB-[CG] |==|  0.68899
USER: genes 16 Torsion [CA]-CB--CG-[CD1] |==|  0.81522
USER: genes 17 Torsion [N]-CA--C-[N] |==|  0.35006
USER: genes 18 Torsion [C]-N--CA-[CB] |==|  0.18957
USER: genes 19 Torsion [N]-CA--C-[OXT] |==|  0.58298
ROOT
ATOM      1  C   LEU B 341      27.126   4.937 -41.692  1.00 14.43 LIG 0.24  C 
ATOM      2 O    LEU B 341      27.890   3.973 -41.668  1.00 17.21 LIG-0.27  OA
ATOM      3  N   ASP B 342      25.828   4.834 -41.449  1.00 15.70 LIG-0.35  N 
ATOM      4 H    ASP B 342      25.295   5.503 -41.362  1.00 15.70 LIG 0.16  HD
ENDROOT
BRANCH 1 5
ATOM      5  CA  LEU B 341      27.610   6.348 -42.022  1.00 14.64 LIG 0.18  C 
BRANCH 5 6
ATOM      6  CB  LEU B 341      27.290   7.268 -40.842  1.00 15.72 LIG 0.04  C 
BRANCH 6 7
ATOM      7  CG  LEU B 341      28.436   8.182 -40.449  1.00 16.60 LIG-0.02  C 
ATOM      8  CD1 LEU B 341      29.735   7.595 -40.950  1.00 17.44 LIG 0.01  C 
ATOM      9  CD2 LEU B 341      28.222   9.609 -40.954  1.00 18.85 LIG 0.01  C 
ENDBRANCH 6 7
ENDBRANCH 5 6
BRANCH 5 10
ATOM     10  N   LEU B 341      26.960   6.909 -43.202  1.00 16.77 LIG-0.35  N 
ATOM     11  C   PRO B 340      27.664   7.554 -44.125  1.00 19.25 LIG 0.24  C 
ATOM     12 O    PRO B 340      28.896   7.650 -44.119  1.00 21.28 LIG-0.27  OA
ATOM     13 H    LEU B 341      26.110   6.785 -43.239  1.00 16.77 LIG 0.16  HD
BRANCH 11 14
ATOM     14  CA  PRO B 340      26.843   8.127 -45.258  1.00 21.04 LIG 0.18  C 
ATOM     15  N   PRO B 340      27.324   9.439 -45.755  1.00 20.95 LIG-0.34  N 
ATOM     16  CD  PRO B 340      27.559   9.423 -47.209  1.00 22.76 LIG 0.13  C 
ATOM     17  C   PHE B 339      27.324  10.490 -44.938  1.00 19.72 LIG 0.26  C 
ATOM     18  CG  PRO B 340      26.872   8.135 -47.609  1.00 24.91 LIG 0.02  C 
ATOM     19  CB  PRO B 340      27.010   7.223 -46.463  1.00 23.27 LIG 0.04  C 
ATOM     20 O    PHE B 339      27.029  10.367 -43.740  1.00 19.38 LIG-0.27  OA
BRANCH 17 21
ATOM     21  CA  PHE B 339      27.689  11.849 -45.533  1.00 21.94 LIG 0.40  C 
ATOM     22  N   PHE B 339      26.665  12.844 -45.255  1.00 23.90 LIG 0.61  N 
BRANCH 21 23
ATOM     23  CB  PHE B 339      29.023  12.325 -44.975  1.00 24.29 LIG 0.09  C 
BRANCH 23 24
ATOM     24  CG  PHE B 339      29.956  11.214 -44.588  1.00 28.97 LIG-0.06  A 
ATOM     25  CD1 PHE B 339      30.566  10.425 -45.561  1.00 31.92 LIG 0.01  A 
ATOM     26  CE1 PHE B 339      31.431   9.397 -45.207  1.00 33.96 LIG 0.00  A 
ATOM     27  CZ  PHE B 339      31.706   9.162 -43.864  1.00 35.90 LIG 0.00  A 
ATOM     28  CE2 PHE B 339      31.109   9.951 -42.879  1.00 35.56 LIG 0.00  A 
ATOM     29  CD2 PHE B 339      30.238  10.972 -43.250  1.00 33.37 LIG 0.01  A 
ENDBRANCH 23 24
ENDBRANCH 21 23
ENDBRANCH 17 21
ENDBRANCH 11 14
ENDBRANCH 5 10
ENDBRANCH 1 5
BRANCH 3 30
ATOM     30  CA  ASP B 342      25.196   3.526 -41.306  1.00 16.21 LIG 0.19  C 
BRANCH 30 31
ATOM     31  CB  ASP B 342      25.072   2.871 -42.668  1.00 18.68 LIG 0.15  C 
BRANCH 31 32
ATOM     32  CG  ASP B 342      25.007   3.834 -43.796  1.00 22.92 LIG 0.17  C 
ATOM     33 OD1  ASP B 342      25.888   3.829 -44.696  1.00 25.81 LIG-0.65  OA
ATOM     34 OD2  ASP B 342      24.033   4.610 -43.758  1.00 25.94 LIG-0.65  OA
ENDBRANCH 31 32
ENDBRANCH 30 31
BRANCH 30 35
ATOM     35  C   ASP B 342      26.050   2.576 -40.456  1.00 16.03 LIG 0.24  C 
ATOM     36  N   LEU B 343      25.839   2.634 -39.135  1.00 16.72 LIG-0.35  N 
ATOM     37 H    LEU B 343      25.437   3.289 -38.750  1.00 16.72 LIG 0.16  HD
ATOM     38 O    ASP B 342      26.789   1.754 -40.989  1.00 14.87 LIG-0.27  OA
BRANCH 36 39
ATOM     39  CA  LEU B 343      26.275   1.579 -38.211  1.00 16.14 LIG 0.18  C 
BRANCH 39 40
ATOM     40  CB  LEU B 343      27.401   2.054 -37.300  1.00 19.18 LIG 0.04  C 
BRANCH 40 41
ATOM     41  CG  LEU B 343      28.761   1.379 -37.563  1.00 20.67 LIG-0.02  C 
ATOM     42  CD1 LEU B 343      28.658  -0.113 -37.195  1.00 23.87 LIG 0.01  C 
ATOM     43  CD2 LEU B 343      29.171   1.546 -39.017  1.00 22.92 LIG 0.01  C 
ENDBRANCH 40 41
ENDBRANCH 39 40
BRANCH 39 44
ATOM     44  C   LEU B 343      25.095   1.122 -37.344  1.00 14.33 LIG 0.24  C 
ATOM     45 O    LEU B 343      24.433   1.934 -36.673  1.00 16.10 LIG-0.27  OA
ATOM     46  N   ALA B 344      24.842  -0.166 -37.346  1.00 14.89 LIG-0.34  N 
ATOM     47 H    ALA B 344      25.238  -0.740 -37.848  1.00 14.89 LIG 0.16  HD
BRANCH 46 48
ATOM     48  CA  ALA B 344      23.818  -0.729 -36.447  1.00 15.57 LIG 0.18  C 
ATOM     49  CB  ALA B 344      22.450  -0.275 -36.857  1.00 18.12 LIG 0.04  C 
BRANCH 48 50
ATOM     50  C   ALA B 344      23.872  -2.252 -36.498  1.00 15.03 LIG 0.20  C 
ATOM     51 OXT  ALA B 344      22.853  -2.932 -36.309  1.00 16.10 LIG-0.65  OA
ATOM     52 O    ALA B 344      24.977  -2.768 -36.814  1.00 15.80 LIG-0.65  OA
ENDBRANCH 48 50
ENDBRANCH 46 48
ENDBRANCH 39 44
ENDBRANCH 36 39
ENDBRANCH 30 35
ENDBRANCH 3 30
TORSDOF 18
ENDMDL
MODEL 51
USER: ADFR SOLUTION from run 168
USER: SCORE 14.290116 LL:  -3.571 LR: -11.082 RR:   0.000 FEB:  -5.713
USER: RMSD 10.608505
USER: SEED 167
USER: STATUS no improvement in best in 7 clusters for 5 generations
USER: GENES 20
USER: genes 0 Translation |==|  0.54546 0.57478 0.61099
USER: genes 1 Rotation |==|  0.05304 0.31398 0.60420 0.56901
USER: genes 2 Torsion [N]-C--CA-[N] |==|  0.47222
USER: genes 3 Torsion [C]-CA--CB-[CG] |==|  0.20143
USER: genes 4 Torsion [CA]-CB--CG-[CD1] |==|  0.32710
USER: genes 5 Torsion [C]-CA--N-[C] |==|  0.78962
USER: genes 6 Torsion [N]-C--CA-[CB] |==|  0.12513
USER: genes 7 Torsion [N]-C--CA-[N] |==|  0.87237
USER: genes 8 Torsion [C]-CA--CB-[CG] |==|  0.24644
USER: genes 9 Torsion [CA]-CB--CG-[CD1] |==|  0.96125
USER: genes 10 Torsion [C]-N--CA-[CB] |==|  0.19141
USER: genes 11 Torsion [N]-CA--CB-[CG] |==|  0.65603
USER: genes 12 Torsion [CA]-CB--CG-[OD1] |==|  0.74247
USER: genes 13 Torsion [N]-CA--C-[N] |==|  0.06887
USER: genes 14 Torsion [C]-N--CA-[C] |==|  0.84177
USER: genes 15 Torsion [N]-CA--CB-[CG] |==|  0.75539
USER: genes 16 Torsion [CA]-CB--CG-[CD1] |==|  0.34020
USER: genes 17 Torsion [N]-CA--C-[N] |==|  0.93784
USER: genes 18 Torsion [C]-N--CA-[CB] |==|  0.31665
USER: genes 19 Torsion [N]-CA--C-[OXT] |==|  0.44919
ROOT
ATOM      1  C   LEU B 341      29.676   5.852 -42.283  1.00 14.43 LIG 0.24  C 
ATOM      2 O    LEU B 341      28.505   5.673 -41.950  1.00 17.21 LIG-0.27  OA
ATOM      3  N   ASP B 342      30.266   7.036 -42.237  1.00 15.70 LIG-0.35  N 
ATOM      4 H    ASP B 342      31.106   7.167 -42.368  1.00 15.70 LIG 0.16  HD
ENDROOT
BRANCH 1 5
ATOM      5  CA  LEU B 341      30.556   4.712 -42.796  1.00 14.64 LIG 0.18  C 
BRANCH 5 6
ATOM      6  CB  LEU B 341      30.786   4.903 -44.296  1.00 15.72 LIG 0.04  C 
BRANCH 6 7
ATOM      7  CG  LEU B 341      31.727   6.045 -44.631  1.00 16.60 LIG-0.02  C 
ATOM      8  CD1 LEU B 341      32.944   5.496 -45.339  1.00 17.44 LIG 0.01  C 
ATOM      9  CD2 LEU B 341      31.031   7.132 -45.450  1.00 18.85 LIG 0.01  C 
ENDBRANCH 6 7
ENDBRANCH 5 6
BRANCH 5 10
ATOM     10  N   LEU B 341      29.946   3.399 -42.611  1.00 16.77 LIG-0.35  N 
ATOM     11  C   PRO B 340      29.913   2.827 -41.412  1.00 19.25 LIG 0.24  C 
ATOM     12 O    PRO B 340      30.291   3.373 -40.370  1.00 21.28 LIG-0.27  OA
ATOM     13 H    LEU B 341      29.624   3.047 -43.326  1.00 16.77 LIG 0.16  HD
BRANCH 11 14
ATOM     14  CA  PRO B 340      29.301   1.444 -41.390  1.00 21.04 LIG 0.18  C 
ATOM     15  N   PRO B 340      27.841   1.421 -41.651  1.00 20.95 LIG-0.34  N 
ATOM     16  CD  PRO B 340      27.494   0.511 -42.756  1.00 22.76 LIG 0.13  C 
ATOM     17  C   PHE B 339      27.015   2.034 -40.806  1.00 19.72 LIG 0.26  C 
ATOM     18  CG  PRO B 340      28.785  -0.264 -42.921  1.00 24.91 LIG 0.02  C 
ATOM     19  CB  PRO B 340      29.869   0.661 -42.557  1.00 23.27 LIG 0.04  C 
ATOM     20 O    PHE B 339      27.451   2.714 -39.865  1.00 19.38 LIG-0.27  OA
BRANCH 17 21
ATOM     21  CA  PHE B 339      25.514   1.860 -41.033  1.00 21.94 LIG 0.40  C 
ATOM     22  N   PHE B 339      25.163   2.039 -42.434  1.00 23.90 LIG 0.61  N 
BRANCH 21 23
ATOM     23  CB  PHE B 339      25.071   0.478 -40.572  1.00 24.29 LIG 0.09  C 
BRANCH 23 24
ATOM     24  CG  PHE B 339      24.674   0.413 -39.126  1.00 28.97 LIG-0.06  A 
ATOM     25  CD1 PHE B 339      24.992   1.452 -38.253  1.00 31.92 LIG 0.01  A 
ATOM     26  CE1 PHE B 339      24.625   1.397 -36.914  1.00 33.96 LIG 0.00  A 
ATOM     27  CZ  PHE B 339      23.916   0.298 -36.440  1.00 35.90 LIG 0.00  A 
ATOM     28  CE2 PHE B 339      23.584  -0.746 -37.306  1.00 35.56 LIG 0.00  A 
ATOM     29  CD2 PHE B 339      23.966  -0.679 -38.643  1.00 33.37 LIG 0.01  A 
ENDBRANCH 23 24
ENDBRANCH 21 23
ENDBRANCH 17 21
ENDBRANCH 11 14
ENDBRANCH 5 10
ENDBRANCH 1 5
BRANCH 3 30
ATOM     30  CA  ASP B 342      29.497   8.243 -41.948  1.00 16.21 LIG 0.19  C 
BRANCH 30 31
ATOM     31  CB  ASP B 342      29.031   8.216 -40.506  1.00 18.68 LIG 0.15  C 
BRANCH 31 32
ATOM     32  CG  ASP B 342      27.560   8.346 -40.345  1.00 22.92 LIG 0.17  C 
ATOM     33 OD1  ASP B 342      27.031   9.475 -40.171  1.00 25.81 LIG-0.65  OA
ATOM     34 OD2  ASP B 342      26.938   7.267 -40.397  1.00 25.94 LIG-0.65  OA
ENDBRANCH 31 32
ENDBRANCH 30 31
BRANCH 30 35
ATOM     35  C   ASP B 342      30.355   9.507 -42.092  1.00 16.03 LIG 0.24  C 
ATOM     36  N   LEU B 343      31.412   9.400 -42.908  1.00 16.72 LIG-0.35  N 
ATOM     37 H    LEU B 343      31.736   8.645 -43.162  1.00 16.72 LIG 0.16  HD
ATOM     38 O    ASP B 342      30.008  10.561 -41.567  1.00 14.87 LIG-0.27  OA
BRANCH 36 39
ATOM     39  CA  LEU B 343      32.121  10.565 -43.451  1.00 16.14 LIG 0.18  C 
BRANCH 39 40
ATOM     40  CB  LEU B 343      33.251  10.154 -44.387  1.00 19.18 LIG 0.04  C 
BRANCH 40 41
ATOM     41  CG  LEU B 343      34.600   9.902 -43.685  1.00 20.67 LIG-0.02  C 
ATOM     42  CD1 LEU B 343      35.063   8.465 -43.992  1.00 23.87 LIG 0.01  C 
ATOM     43  CD2 LEU B 343      35.640  10.910 -44.144  1.00 22.92 LIG 0.01  C 
ENDBRANCH 40 41
ENDBRANCH 39 40
BRANCH 39 44
ATOM     44  C   LEU B 343      31.143  11.462 -44.219  1.00 14.33 LIG 0.24  C 
ATOM     45 O    LEU B 343      31.380  12.670 -44.401  1.00 16.10 LIG-0.27  OA
ATOM     46  N   ALA B 344      30.048  10.883 -44.654  1.00 14.89 LIG-0.34  N 
ATOM     47 H    ALA B 344      29.888  10.040 -44.601  1.00 14.89 LIG 0.16  HD
BRANCH 46 48
ATOM     48  CA  ALA B 344      28.981  11.680 -45.286  1.00 15.57 LIG 0.18  C 
ATOM     49  CB  ALA B 344      28.839  11.316 -46.734  1.00 18.12 LIG 0.04  C 
BRANCH 48 50
ATOM     50  C   ALA B 344      27.657  11.419 -44.577  1.00 15.03 LIG 0.20  C 
ATOM     51 OXT  ALA B 344      26.704  12.203 -44.698  1.00 16.10 LIG-0.65  OA
ATOM     52 O    ALA B 344      27.563  10.340 -43.933  1.00 15.80 LIG-0.65  OA
ENDBRANCH 48 50
ENDBRANCH 46 48
ENDBRANCH 39 44
ENDBRANCH 36 39
ENDBRANCH 30 35
ENDBRANCH 3 30
TORSDOF 18
ENDMDL
MODEL 52
USER: ADFR SOLUTION from run 147
USER: SCORE 15.422971 LL:  -6.292 LR: -11.074 RR:   0.000 FEB:  -5.704
USER: RMSD 9.917293
USER: SEED 146
USER: STATUS no improvement in best in 3 clusters for 5 generations
USER: GENES 20
USER: genes 0 Translation |==|  0.56658 0.37728 0.70810
USER: genes 1 Rotation |==|  0.65340 0.73169 0.84671 0.72930
USER: genes 2 Torsion [N]-C--CA-[N] |==|  0.10555
USER: genes 3 Torsion [C]-CA--CB-[CG] |==|  0.42973
USER: genes 4 Torsion [CA]-CB--CG-[CD1] |==|  0.30902
USER: genes 5 Torsion [C]-CA--N-[C] |==|  0.64079
USER: genes 6 Torsion [N]-C--CA-[CB] |==|  0.30679
USER: genes 7 Torsion [N]-C--CA-[N] |==|  0.41374
USER: genes 8 Torsion [C]-CA--CB-[CG] |==|  0.18383
USER: genes 9 Torsion [CA]-CB--CG-[CD1] |==|  0.71521
USER: genes 10 Torsion [C]-N--CA-[CB] |==|  0.21506
USER: genes 11 Torsion [N]-CA--CB-[CG] |==|  0.07895
USER: genes 12 Torsion [CA]-CB--CG-[OD1] |==|  0.23691
USER: genes 13 Torsion [N]-CA--C-[N] |==|  0.82843
USER: genes 14 Torsion [C]-N--CA-[C] |==|  0.23234
USER: genes 15 Torsion [N]-CA--CB-[CG] |==|  0.48527
USER: genes 16 Torsion [CA]-CB--CG-[CD1] |==|  0.32958
USER: genes 17 Torsion [N]-CA--C-[N] |==|  0.42586
USER: genes 18 Torsion [C]-N--CA-[CB] |==|  0.31642
USER: genes 19 Torsion [N]-CA--C-[OXT] |==|  0.67685
ROOT
ATOM      1  C   LEU B 341      30.088   1.556 -40.171  1.00 14.43 LIG 0.24  C 
ATOM      2 O    LEU B 341      30.931   0.867 -40.744  1.00 17.21 LIG-0.27  OA
ATOM      3  N   ASP B 342      29.597   2.672 -40.687  1.00 15.70 LIG-0.35  N 
ATOM      4 H    ASP B 342      28.939   3.114 -40.353  1.00 15.70 LIG 0.16  HD
ENDROOT
BRANCH 1 5
ATOM      5  CA  LEU B 341      29.539   1.186 -38.794  1.00 14.64 LIG 0.18  C 
BRANCH 5 6
ATOM      6  CB  LEU B 341      29.717  -0.318 -38.579  1.00 15.72 LIG 0.04  C 
BRANCH 6 7
ATOM      7  CG  LEU B 341      29.796  -0.724 -37.119  1.00 16.60 LIG-0.02  C 
ATOM      8  CD1 LEU B 341      28.555  -1.503 -36.750  1.00 17.44 LIG 0.01  C 
ATOM      9  CD2 LEU B 341      31.074  -1.506 -36.816  1.00 18.85 LIG 0.01  C 
ENDBRANCH 6 7
ENDBRANCH 5 6
BRANCH 5 10
ATOM     10  N   LEU B 341      28.116   1.482 -38.653  1.00 16.77 LIG-0.35  N 
ATOM     11  C   PRO B 340      27.666   2.176 -37.615  1.00 19.25 LIG 0.24  C 
ATOM     12 O    PRO B 340      28.389   2.697 -36.759  1.00 21.28 LIG-0.27  OA
ATOM     13 H    LEU B 341      27.620   1.175 -39.284  1.00 16.77 LIG 0.16  HD
BRANCH 11 14
ATOM     14  CA  PRO B 340      26.164   2.353 -37.578  1.00 21.04 LIG 0.18  C 
ATOM     15  N   PRO B 340      25.457   1.790 -38.754  1.00 20.95 LIG-0.34  N 
ATOM     16  CD  PRO B 340      24.393   0.852 -38.359  1.00 22.76 LIG 0.13  C 
ATOM     17  C   PHE B 339      25.702   2.287 -39.965  1.00 19.72 LIG 0.26  C 
ATOM     18  CG  PRO B 340      24.277   1.138 -36.876  1.00 24.91 LIG 0.02  C 
ATOM     19  CB  PRO B 340      25.622   1.529 -36.427  1.00 23.27 LIG 0.04  C 
ATOM     20 O    PHE B 339      26.587   3.137 -40.140  1.00 19.38 LIG-0.27  OA
BRANCH 17 21
ATOM     21  CA  PHE B 339      24.845   1.779 -41.124  1.00 21.94 LIG 0.40  C 
ATOM     22  N   PHE B 339      24.665   2.802 -42.142  1.00 23.90 LIG 0.61  N 
BRANCH 21 23
ATOM     23  CB  PHE B 339      25.487   0.548 -41.750  1.00 24.29 LIG 0.09  C 
BRANCH 23 24
ATOM     24  CG  PHE B 339      25.524  -0.650 -40.845  1.00 28.97 LIG-0.06  A 
ATOM     25  CD1 PHE B 339      26.702  -1.017 -40.198  1.00 31.92 LIG 0.01  A 
ATOM     26  CE1 PHE B 339      26.741  -2.123 -39.359  1.00 33.96 LIG 0.00  A 
ATOM     27  CZ  PHE B 339      25.584  -2.866 -39.146  1.00 35.90 LIG 0.00  A 
ATOM     28  CE2 PHE B 339      24.394  -2.504 -39.781  1.00 35.56 LIG 0.00  A 
ATOM     29  CD2 PHE B 339      24.374  -1.397 -40.626  1.00 33.37 LIG 0.01  A 
ENDBRANCH 23 24
ENDBRANCH 21 23
ENDBRANCH 17 21
ENDBRANCH 11 14
ENDBRANCH 5 10
ENDBRANCH 1 5
BRANCH 3 30
ATOM     30  CA  ASP B 342      30.164   3.245 -41.905  1.00 16.21 LIG 0.19  C 
BRANCH 30 31
ATOM     31  CB  ASP B 342      29.676   2.464 -43.109  1.00 18.68 LIG 0.15  C 
BRANCH 31 32
ATOM     32  CG  ASP B 342      28.345   1.833 -42.919  1.00 22.92 LIG 0.17  C 
ATOM     33 OD1  ASP B 342      27.289   2.484 -43.139  1.00 25.81 LIG-0.65  OA
ATOM     34 OD2  ASP B 342      28.384   0.648 -42.537  1.00 25.94 LIG-0.65  OA
ENDBRANCH 31 32
ENDBRANCH 30 31
BRANCH 30 35
ATOM     35  C   ASP B 342      29.696   4.690 -42.119  1.00 16.03 LIG 0.24  C 
ATOM     36  N   LEU B 343      28.376   4.854 -42.275  1.00 16.72 LIG-0.35  N 
ATOM     37 H    LEU B 343      27.841   4.210 -42.470  1.00 16.72 LIG 0.16  HD
ATOM     38 O    ASP B 342      30.491   5.622 -42.040  1.00 14.87 LIG-0.27  OA
BRANCH 36 39
ATOM     39  CA  LEU B 343      27.712   6.155 -42.127  1.00 16.14 LIG 0.18  C 
BRANCH 39 40
ATOM     40  CB  LEU B 343      28.328   6.981 -41.004  1.00 19.18 LIG 0.04  C 
BRANCH 40 41
ATOM     41  CG  LEU B 343      27.762   8.408 -40.879  1.00 20.67 LIG-0.02  C 
ATOM     42  CD1 LEU B 343      27.108   8.568 -39.494  1.00 23.87 LIG 0.01  C 
ATOM     43  CD2 LEU B 343      28.860   9.440 -41.076  1.00 22.92 LIG 0.01  C 
ENDBRANCH 40 41
ENDBRANCH 39 40
BRANCH 39 44
ATOM     44  C   LEU B 343      27.812   6.946 -43.437  1.00 14.33 LIG 0.24  C 
ATOM     45 O    LEU B 343      28.752   6.764 -44.232  1.00 16.10 LIG-0.27  OA
ATOM     46  N   ALA B 344      26.862   7.826 -43.655  1.00 14.89 LIG-0.34  N 
ATOM     47 H    ALA B 344      26.168   7.926 -43.158  1.00 14.89 LIG 0.16  HD
BRANCH 46 48
ATOM     48  CA  ALA B 344      26.933   8.732 -44.815  1.00 15.57 LIG 0.18  C 
ATOM     49  CB  ALA B 344      25.832   8.432 -45.787  1.00 18.12 LIG 0.04  C 
BRANCH 48 50
ATOM     50  C   ALA B 344      26.801  10.176 -44.347  1.00 15.03 LIG 0.20  C 
ATOM     51 OXT  ALA B 344      25.838  10.875 -44.697  1.00 16.10 LIG-0.65  OA
ATOM     52 O    ALA B 344      27.671  10.589 -43.535  1.00 15.80 LIG-0.65  OA
ENDBRANCH 48 50
ENDBRANCH 46 48
ENDBRANCH 39 44
ENDBRANCH 36 39
ENDBRANCH 30 35
ENDBRANCH 3 30
TORSDOF 18
ENDMDL
MODEL 53
USER: ADFR SOLUTION from run 51
USER: SCORE 14.569664 LL:  -4.764 LR: -11.069 RR:   0.000 FEB:  -5.700
USER: RMSD 10.944011
USER: SEED 50
USER: STATUS no improvement in best in 12 clusters for 5 generations
USER: GENES 20
USER: genes 0 Translation |==|  0.34466 0.44122 0.69287
USER: genes 1 Rotation |==|  0.96485 0.41809 0.38407 0.61735
USER: genes 2 Torsion [N]-C--CA-[N] |==|  0.04058
USER: genes 3 Torsion [C]-CA--CB-[CG] |==|  0.63012
USER: genes 4 Torsion [CA]-CB--CG-[CD1] |==|  0.35941
USER: genes 5 Torsion [C]-CA--N-[C] |==|  0.66175
USER: genes 6 Torsion [N]-C--CA-[CB] |==|  0.16492
USER: genes 7 Torsion [N]-C--CA-[N] |==|  0.88548
USER: genes 8 Torsion [C]-CA--CB-[CG] |==|  0.64403
USER: genes 9 Torsion [CA]-CB--CG-[CD1] |==|  0.24884
USER: genes 10 Torsion [C]-N--CA-[CB] |==|  0.52990
USER: genes 11 Torsion [N]-CA--CB-[CG] |==|  0.77318
USER: genes 12 Torsion [CA]-CB--CG-[OD1] |==|  0.14958
USER: genes 13 Torsion [N]-CA--C-[N] |==|  0.32022
USER: genes 14 Torsion [C]-N--CA-[C] |==|  0.69560
USER: genes 15 Torsion [N]-CA--CB-[CG] |==|  0.59626
USER: genes 16 Torsion [CA]-CB--CG-[CD1] |==|  0.78137
USER: genes 17 Torsion [N]-CA--C-[N] |==|  0.81778
USER: genes 18 Torsion [C]-N--CA-[CB] |==|  0.21491
USER: genes 19 Torsion [N]-CA--C-[OXT] |==|  0.60039
ROOT
ATOM      1  C   LEU B 341      25.761   2.947 -40.502  1.00 14.43 LIG 0.24  C 
ATOM      2 O    LEU B 341      24.967   3.860 -40.726  1.00 17.21 LIG-0.27  OA
ATOM      3  N   ASP B 342      26.984   2.914 -41.010  1.00 15.70 LIG-0.35  N 
ATOM      4 H    ASP B 342      27.586   2.341 -40.789  1.00 15.70 LIG 0.16  HD
ENDROOT
BRANCH 1 5
ATOM      5  CA  LEU B 341      25.396   1.753 -39.621  1.00 14.64 LIG 0.18  C 
BRANCH 5 6
ATOM      6  CB  LEU B 341      24.733   2.268 -38.342  1.00 15.72 LIG 0.04  C 
BRANCH 6 7
ATOM      7  CG  LEU B 341      25.275   1.636 -37.073  1.00 16.60 LIG-0.02  C 
ATOM      8  CD1 LEU B 341      25.641   2.724 -36.091  1.00 17.44 LIG 0.01  C 
ATOM      9  CD2 LEU B 341      24.290   0.632 -36.474  1.00 18.85 LIG 0.01  C 
ENDBRANCH 6 7
ENDBRANCH 5 6
BRANCH 5 10
ATOM     10  N   LEU B 341      26.560   0.966 -39.223  1.00 16.77 LIG-0.35  N 
ATOM     11  C   PRO B 340      26.642  -0.326 -39.521  1.00 19.25 LIG 0.24  C 
ATOM     12 O    PRO B 340      25.821  -0.932 -40.218  1.00 21.28 LIG-0.27  OA
ATOM     13 H    LEU B 341      27.162   1.404 -38.794  1.00 16.77 LIG 0.16  HD
BRANCH 11 14
ATOM     14  CA  PRO B 340      27.878  -1.017 -38.992  1.00 21.04 LIG 0.18  C 
ATOM     15  N   PRO B 340      29.153  -0.374 -39.392  1.00 20.95 LIG-0.34  N 
ATOM     16  CD  PRO B 340      29.999  -0.061 -38.228  1.00 22.76 LIG 0.13  C 
ATOM     17  C   PHE B 339      29.478  -0.308 -40.681  1.00 19.72 LIG 0.26  C 
ATOM     18  CG  PRO B 340      29.314  -0.857 -37.138  1.00 24.91 LIG 0.02  C 
ATOM     19  CB  PRO B 340      27.884  -0.880 -37.483  1.00 23.27 LIG 0.04  C 
ATOM     20 O    PHE B 339      28.686  -0.680 -41.560  1.00 19.38 LIG-0.27  OA
BRANCH 17 21
ATOM     21  CA  PHE B 339      30.864   0.230 -41.034  1.00 21.94 LIG 0.40  C 
ATOM     22  N   PHE B 339      31.216   1.376 -40.210  1.00 23.90 LIG 0.61  N 
BRANCH 21 23
ATOM     23  CB  PHE B 339      31.911  -0.861 -40.859  1.00 24.29 LIG 0.09  C 
BRANCH 23 24
ATOM     24  CG  PHE B 339      33.080  -0.457 -40.008  1.00 28.97 LIG-0.06  A 
ATOM     25  CD1 PHE B 339      33.057  -0.651 -38.629  1.00 31.92 LIG 0.01  A 
ATOM     26  CE1 PHE B 339      34.137  -0.280 -37.838  1.00 33.96 LIG 0.00  A 
ATOM     27  CZ  PHE B 339      35.265   0.278 -38.432  1.00 35.90 LIG 0.00  A 
ATOM     28  CE2 PHE B 339      35.304   0.470 -39.814  1.00 35.56 LIG 0.00  A 
ATOM     29  CD2 PHE B 339      34.210   0.100 -40.592  1.00 33.37 LIG 0.01  A 
ENDBRANCH 23 24
ENDBRANCH 21 23
ENDBRANCH 17 21
ENDBRANCH 11 14
ENDBRANCH 5 10
ENDBRANCH 1 5
BRANCH 3 30
ATOM     30  CA  ASP B 342      27.402   3.886 -42.016  1.00 16.21 LIG 0.19  C 
BRANCH 30 31
ATOM     31  CB  ASP B 342      28.731   3.463 -42.609  1.00 18.68 LIG 0.15  C 
BRANCH 31 32
ATOM     32  CG  ASP B 342      29.907   3.837 -41.782  1.00 22.92 LIG 0.17  C 
ATOM     33 OD1  ASP B 342      29.972   3.502 -40.570  1.00 25.81 LIG-0.65  OA
ATOM     34 OD2  ASP B 342      30.779   4.488 -42.389  1.00 25.94 LIG-0.65  OA
ENDBRANCH 31 32
ENDBRANCH 30 31
BRANCH 30 35
ATOM     35  C   ASP B 342      26.414   3.944 -43.189  1.00 16.03 LIG 0.24  C 
ATOM     36  N   LEU B 343      25.765   5.106 -43.341  1.00 16.72 LIG-0.35  N 
ATOM     37 H    LEU B 343      25.713   5.702 -42.724  1.00 16.72 LIG 0.16  HD
ATOM     38 O    ASP B 342      26.328   3.010 -43.980  1.00 14.87 LIG-0.27  OA
BRANCH 36 39
ATOM     39  CA  LEU B 343      25.076   5.476 -44.583  1.00 16.14 LIG 0.18  C 
BRANCH 39 40
ATOM     40  CB  LEU B 343      23.646   5.935 -44.322  1.00 19.18 LIG 0.04  C 
BRANCH 40 41
ATOM     41  CG  LEU B 343      22.642   5.550 -45.426  1.00 20.67 LIG-0.02  C 
ATOM     42  CD1 LEU B 343      22.796   6.528 -46.605  1.00 23.87 LIG 0.01  C 
ATOM     43  CD2 LEU B 343      22.868   4.119 -45.882  1.00 22.92 LIG 0.01  C 
ENDBRANCH 40 41
ENDBRANCH 39 40
BRANCH 39 44
ATOM     44  C   LEU B 343      25.838   6.605 -45.288  1.00 14.33 LIG 0.24  C 
ATOM     45 O    LEU B 343      26.392   6.424 -46.387  1.00 16.10 LIG-0.27  OA
ATOM     46  N   ALA B 344      25.877   7.757 -44.658  1.00 14.89 LIG-0.34  N 
ATOM     47 H    ALA B 344      25.449   7.930 -43.932  1.00 14.89 LIG 0.16  HD
BRANCH 46 48
ATOM     48  CA  ALA B 344      26.692   8.868 -45.179  1.00 15.57 LIG 0.18  C 
ATOM     49  CB  ALA B 344      26.004   9.528 -46.336  1.00 18.12 LIG 0.04  C 
BRANCH 48 50
ATOM     50  C   ALA B 344      26.915   9.901 -44.080  1.00 15.03 LIG 0.20  C 
ATOM     51 OXT  ALA B 344      26.946  11.113 -44.341  1.00 16.10 LIG-0.65  OA
ATOM     52 O    ALA B 344      26.988   9.465 -42.901  1.00 15.80 LIG-0.65  OA
ENDBRANCH 48 50
ENDBRANCH 46 48
ENDBRANCH 39 44
ENDBRANCH 36 39
ENDBRANCH 30 35
ENDBRANCH 3 30
TORSDOF 18
ENDMDL
MODEL 54
USER: ADFR SOLUTION from run 132
USER: SCORE 14.195265 LL:  -4.535 LR: -11.062 RR:   0.000 FEB:  -5.692
USER: RMSD 9.679716
USER: SEED 131
USER: STATUS no improvement in best in 24 clusters for 5 generations
USER: GENES 20
USER: genes 0 Translation |==|  0.43363 0.63942 0.52419
USER: genes 1 Rotation |==|  0.91461 0.58642 0.60546 0.74394
USER: genes 2 Torsion [N]-C--CA-[N] |==|  0.61098
USER: genes 3 Torsion [C]-CA--CB-[CG] |==|  0.29631
USER: genes 4 Torsion [CA]-CB--CG-[CD1] |==|  0.69926
USER: genes 5 Torsion [C]-CA--N-[C] |==|  0.61410
USER: genes 6 Torsion [N]-C--CA-[CB] |==|  0.64344
USER: genes 7 Torsion [N]-C--CA-[N] |==|  0.40423
USER: genes 8 Torsion [C]-CA--CB-[CG] |==|  0.24933
USER: genes 9 Torsion [CA]-CB--CG-[CD1] |==|  0.09512
USER: genes 10 Torsion [C]-N--CA-[CB] |==|  0.21368
USER: genes 11 Torsion [N]-CA--CB-[CG] |==|  0.09888
USER: genes 12 Torsion [CA]-CB--CG-[OD1] |==|  0.12137
USER: genes 13 Torsion [N]-CA--C-[N] |==|  0.98580
USER: genes 14 Torsion [C]-N--CA-[C] |==|  0.82981
USER: genes 15 Torsion [N]-CA--CB-[CG] |==|  0.59763
USER: genes 16 Torsion [CA]-CB--CG-[CD1] |==|  0.05006
USER: genes 17 Torsion [N]-CA--C-[N] |==|  0.87329
USER: genes 18 Torsion [C]-N--CA-[CB] |==|  0.17324
USER: genes 19 Torsion [N]-CA--C-[OXT] |==|  0.54414
ROOT
ATOM      1  C   LEU B 341      27.496   7.257 -44.171  1.00 14.43 LIG 0.24  C 
ATOM      2 O    LEU B 341      26.746   6.935 -45.092  1.00 17.21 LIG-0.27  OA
ATOM      3  N   ASP B 342      28.385   8.233 -44.274  1.00 15.70 LIG-0.35  N 
ATOM      4 H    ASP B 342      28.848   8.540 -43.617  1.00 15.70 LIG 0.16  HD
ENDROOT
BRANCH 1 5
ATOM      5  CA  LEU B 341      27.474   6.544 -42.820  1.00 14.64 LIG 0.18  C 
BRANCH 5 6
ATOM      6  CB  LEU B 341      28.812   6.780 -42.115  1.00 15.72 LIG 0.04  C 
BRANCH 6 7
ATOM      7  CG  LEU B 341      28.729   7.752 -40.954  1.00 16.60 LIG-0.02  C 
ATOM      8  CD1 LEU B 341      29.403   9.049 -41.341  1.00 17.44 LIG 0.01  C 
ATOM      9  CD2 LEU B 341      27.287   7.971 -40.498  1.00 18.85 LIG 0.01  C 
ENDBRANCH 6 7
ENDBRANCH 5 6
BRANCH 5 10
ATOM     10  N   LEU B 341      27.294   5.101 -42.944  1.00 16.77 LIG-0.35  N 
ATOM     11  C   PRO B 340      26.498   4.440 -42.111  1.00 19.25 LIG 0.24  C 
ATOM     12 O    PRO B 340      25.791   4.977 -41.252  1.00 21.28 LIG-0.27  OA
ATOM     13 H    LEU B 341      27.737   4.736 -43.585  1.00 16.77 LIG 0.16  HD
BRANCH 11 14
ATOM     14  CA  PRO B 340      26.459   2.944 -42.330  1.00 21.04 LIG 0.18  C 
ATOM     15  N   PRO B 340      26.950   2.148 -41.179  1.00 20.95 LIG-0.34  N 
ATOM     16  CD  PRO B 340      25.964   1.144 -40.745  1.00 22.76 LIG 0.13  C 
ATOM     17  C   PHE B 339      28.216   2.275 -40.787  1.00 19.72 LIG 0.26  C 
ATOM     18  CG  PRO B 340      24.996   1.153 -41.909  1.00 24.91 LIG 0.02  C 
ATOM     19  CB  PRO B 340      25.007   2.523 -42.442  1.00 23.27 LIG 0.04  C 
ATOM     20 O    PHE B 339      28.962   3.123 -41.298  1.00 19.38 LIG-0.27  OA
BRANCH 17 21
ATOM     21  CA  PHE B 339      28.716   1.330 -39.695  1.00 21.94 LIG 0.40  C 
ATOM     22  N   PHE B 339      30.113   0.976 -39.894  1.00 23.90 LIG 0.61  N 
BRANCH 21 23
ATOM     23  CB  PHE B 339      28.548   1.976 -38.326  1.00 24.29 LIG 0.09  C 
BRANCH 23 24
ATOM     24  CG  PHE B 339      27.224   1.695 -37.675  1.00 28.97 LIG-0.06  A 
ATOM     25  CD1 PHE B 339      26.586   0.471 -37.859  1.00 31.92 LIG 0.01  A 
ATOM     26  CE1 PHE B 339      25.361   0.206 -37.258  1.00 33.96 LIG 0.00  A 
ATOM     27  CZ  PHE B 339      24.771   1.171 -36.447  1.00 35.90 LIG 0.00  A 
ATOM     28  CE2 PHE B 339      25.404   2.399 -36.247  1.00 35.56 LIG 0.00  A 
ATOM     29  CD2 PHE B 339      26.627   2.651 -36.864  1.00 33.37 LIG 0.01  A 
ENDBRANCH 23 24
ENDBRANCH 21 23
ENDBRANCH 17 21
ENDBRANCH 11 14
ENDBRANCH 5 10
ENDBRANCH 1 5
BRANCH 3 30
ATOM     30  CA  ASP B 342      28.647   8.873 -45.560  1.00 16.21 LIG 0.19  C 
BRANCH 30 31
ATOM     31  CB  ASP B 342      27.524   9.838 -45.884  1.00 18.68 LIG 0.15  C 
BRANCH 31 32
ATOM     32  CG  ASP B 342      26.969  10.538 -44.698  1.00 22.92 LIG 0.17  C 
ATOM     33 OD1  ASP B 342      27.733  11.008 -43.814  1.00 25.81 LIG-0.65  OA
ATOM     34 OD2  ASP B 342      25.725  10.605 -44.673  1.00 25.94 LIG-0.65  OA
ENDBRANCH 31 32
ENDBRANCH 30 31
BRANCH 30 35
ATOM     35  C   ASP B 342      29.930   9.713 -45.521  1.00 16.03 LIG 0.24  C 
ATOM     36  N   LEU B 343      30.523   9.810 -44.325  1.00 16.72 LIG-0.35  N 
ATOM     37 H    LEU B 343      30.127   9.622 -43.585  1.00 16.72 LIG 0.16  HD
ATOM     38 O    ASP B 342      30.413  10.163 -46.556  1.00 14.87 LIG-0.27  OA
BRANCH 36 39
ATOM     39  CA  LEU B 343      31.915  10.247 -44.157  1.00 16.14 LIG 0.18  C 
BRANCH 39 40
ATOM     40  CB  LEU B 343      32.313  10.318 -42.688  1.00 19.18 LIG 0.04  C 
BRANCH 40 41
ATOM     41  CG  LEU B 343      33.285  11.463 -42.347  1.00 20.67 LIG-0.02  C 
ATOM     42  CD1 LEU B 343      33.252  12.504 -43.481  1.00 23.87 LIG 0.01  C 
ATOM     43  CD2 LEU B 343      32.915  12.104 -41.019  1.00 22.92 LIG 0.01  C 
ENDBRANCH 40 41
ENDBRANCH 39 40
BRANCH 39 44
ATOM     44  C   LEU B 343      32.858   9.277 -44.880  1.00 14.33 LIG 0.24  C 
ATOM     45 O    LEU B 343      33.778   9.692 -45.609  1.00 16.10 LIG-0.27  OA
ATOM     46  N   ALA B 344      32.627   7.998 -44.692  1.00 14.89 LIG-0.34  N 
ATOM     47 H    ALA B 344      32.044   7.684 -44.144  1.00 14.89 LIG 0.16  HD
BRANCH 46 48
ATOM     48  CA  ALA B 344      33.387   6.982 -45.441  1.00 15.57 LIG 0.18  C 
ATOM     49  CB  ALA B 344      34.848   7.068 -45.113  1.00 18.12 LIG 0.04  C 
BRANCH 48 50
ATOM     50  C   ALA B 344      32.878   5.591 -45.080  1.00 15.03 LIG 0.20  C 
ATOM     51 OXT  ALA B 344      33.542   4.579 -45.352  1.00 16.10 LIG-0.65  OA
ATOM     52 O    ALA B 344      31.799   5.534 -44.433  1.00 15.80 LIG-0.65  OA
ENDBRANCH 48 50
ENDBRANCH 46 48
ENDBRANCH 39 44
ENDBRANCH 36 39
ENDBRANCH 30 35
ENDBRANCH 3 30
TORSDOF 18
ENDMDL
MODEL 55
USER: ADFR SOLUTION from run 14
USER: SCORE 15.908609 LL:  -5.991 LR: -11.038 RR:   0.000 FEB:  -5.669
USER: RMSD 10.470922
USER: SEED 219952
USER: STATUS no improvement in best in 17 clusters for 5 generations
USER: GENES 20
USER: genes 0 Translation |==|  0.35323 0.46055 0.67784
USER: genes 1 Rotation |==|  0.96985 0.44533 0.37707 0.60556
USER: genes 2 Torsion [N]-C--CA-[N] |==|  0.91929
USER: genes 3 Torsion [C]-CA--CB-[CG] |==|  0.34605
USER: genes 4 Torsion [CA]-CB--CG-[CD1] |==|  0.17046
USER: genes 5 Torsion [C]-CA--N-[C] |==|  0.80190
USER: genes 6 Torsion [N]-C--CA-[CB] |==|  0.22840
USER: genes 7 Torsion [N]-C--CA-[N] |==|  0.41011
USER: genes 8 Torsion [C]-CA--CB-[CG] |==|  0.18486
USER: genes 9 Torsion [CA]-CB--CG-[CD1] |==|  0.20770
USER: genes 10 Torsion [C]-N--CA-[CB] |==|  0.51111
USER: genes 11 Torsion [N]-CA--CB-[CG] |==|  0.83628
USER: genes 12 Torsion [CA]-CB--CG-[OD1] |==|  0.33999
USER: genes 13 Torsion [N]-CA--C-[N] |==|  0.27310
USER: genes 14 Torsion [C]-N--CA-[C] |==|  0.76157
USER: genes 15 Torsion [N]-CA--CB-[CG] |==|  0.52958
USER: genes 16 Torsion [CA]-CB--CG-[CD1] |==|  0.17058
USER: genes 17 Torsion [N]-CA--C-[N] |==|  0.88452
USER: genes 18 Torsion [C]-N--CA-[CB] |==|  0.16846
USER: genes 19 Torsion [N]-CA--C-[OXT] |==|  0.55952
ROOT
ATOM      1  C   LEU B 341      25.928   3.367 -40.829  1.00 14.43 LIG 0.24  C 
ATOM      2 O    LEU B 341      25.051   4.221 -40.950  1.00 17.21 LIG-0.27  OA
ATOM      3  N   ASP B 342      27.126   3.481 -41.381  1.00 15.70 LIG-0.35  N 
ATOM      4 H    ASP B 342      27.784   2.949 -41.229  1.00 15.70 LIG 0.16  HD
ENDROOT
BRANCH 1 5
ATOM      5  CA  LEU B 341      25.704   2.082 -40.033  1.00 14.64 LIG 0.18  C 
BRANCH 5 6
ATOM      6  CB  LEU B 341      26.120   2.322 -38.580  1.00 15.72 LIG 0.04  C 
BRANCH 6 7
ATOM      7  CG  LEU B 341      25.027   2.015 -37.572  1.00 16.60 LIG-0.02  C 
ATOM      8  CD1 LEU B 341      24.655   0.553 -37.672  1.00 17.44 LIG 0.01  C 
ATOM      9  CD2 LEU B 341      25.440   2.404 -36.153  1.00 18.85 LIG 0.01  C 
ENDBRANCH 6 7
ENDBRANCH 5 6
BRANCH 5 10
ATOM     10  N   LEU B 341      26.495   0.961 -40.534  1.00 16.77 LIG-0.35  N 
ATOM     11  C   PRO B 340      26.197   0.383 -41.692  1.00 19.25 LIG 0.24  C 
ATOM     12 O    PRO B 340      25.322   0.785 -42.466  1.00 21.28 LIG-0.27  OA
ATOM     13 H    LEU B 341      27.145   0.723 -40.025  1.00 16.77 LIG 0.16  HD
BRANCH 11 14
ATOM     14  CA  PRO B 340      27.070  -0.800 -42.048  1.00 21.04 LIG 0.18  C 
ATOM     15  N   PRO B 340      28.462  -0.701 -41.547  1.00 20.95 LIG-0.34  N 
ATOM     16  CD  PRO B 340      28.845  -1.881 -40.753  1.00 22.76 LIG 0.13  C 
ATOM     17  C   PHE B 339      29.247   0.283 -41.981  1.00 19.72 LIG 0.26  C 
ATOM     18  CG  PRO B 340      27.724  -2.843 -41.087  1.00 24.91 LIG 0.02  C 
ATOM     19  CB  PRO B 340      26.531  -2.017 -41.323  1.00 23.27 LIG 0.04  C 
ATOM     20 O    PHE B 339      28.803   1.178 -42.714  1.00 19.38 LIG-0.27  OA
BRANCH 17 21
ATOM     21  CA  PHE B 339      30.713   0.259 -41.552  1.00 21.94 LIG 0.40  C 
ATOM     22  N   PHE B 339      31.578   0.823 -42.577  1.00 23.90 LIG 0.61  N 
BRANCH 21 23
ATOM     23  CB  PHE B 339      30.893   1.036 -40.255  1.00 24.29 LIG 0.09  C 
BRANCH 23 24
ATOM     24  CG  PHE B 339      30.221   0.409 -39.068  1.00 28.97 LIG-0.06  A 
ATOM     25  CD1 PHE B 339      30.760  -0.723 -38.461  1.00 31.92 LIG 0.01  A 
ATOM     26  CE1 PHE B 339      30.142  -1.306 -37.361  1.00 33.96 LIG 0.00  A 
ATOM     27  CZ  PHE B 339      28.978  -0.742 -36.847  1.00 35.90 LIG 0.00  A 
ATOM     28  CE2 PHE B 339      28.433   0.397 -37.440  1.00 35.56 LIG 0.00  A 
ATOM     29  CD2 PHE B 339      29.059   0.965 -38.547  1.00 33.37 LIG 0.01  A 
ENDBRANCH 23 24
ENDBRANCH 21 23
ENDBRANCH 17 21
ENDBRANCH 11 14
ENDBRANCH 5 10
ENDBRANCH 1 5
BRANCH 3 30
ATOM     30  CA  ASP B 342      27.417   4.561 -42.320  1.00 16.21 LIG 0.19  C 
BRANCH 30 31
ATOM     31  CB  ASP B 342      28.820   4.393 -42.868  1.00 18.68 LIG 0.15  C 
BRANCH 31 32
ATOM     32  CG  ASP B 342      29.878   4.396 -41.826  1.00 22.92 LIG 0.17  C 
ATOM     33 OD1  ASP B 342      30.663   3.418 -41.705  1.00 25.81 LIG-0.65  OA
ATOM     34 OD2  ASP B 342      29.904   5.421 -41.117  1.00 25.94 LIG-0.65  OA
ENDBRANCH 31 32
ENDBRANCH 30 31
BRANCH 30 35
ATOM     35  C   ASP B 342      26.480   4.519 -43.535  1.00 16.03 LIG 0.24  C 
ATOM     36  N   LEU B 343      25.432   5.350 -43.487  1.00 16.72 LIG-0.35  N 
ATOM     37 H    LEU B 343      25.155   5.719 -42.761  1.00 16.72 LIG 0.16  HD
ATOM     38 O    ASP B 342      26.761   3.837 -44.516  1.00 14.87 LIG-0.27  OA
BRANCH 36 39
ATOM     39  CA  LEU B 343      24.650   5.717 -44.674  1.00 16.14 LIG 0.18  C 
BRANCH 39 40
ATOM     40  CB  LEU B 343      23.217   6.091 -44.315  1.00 19.18 LIG 0.04  C 
BRANCH 40 41
ATOM     41  CG  LEU B 343      22.273   6.235 -45.524  1.00 20.67 LIG-0.02  C 
ATOM     42  CD1 LEU B 343      22.191   4.884 -46.258  1.00 23.87 LIG 0.01  C 
ATOM     43  CD2 LEU B 343      20.893   6.688 -45.077  1.00 22.92 LIG 0.01  C 
ENDBRANCH 40 41
ENDBRANCH 39 40
BRANCH 39 44
ATOM     44  C   LEU B 343      25.308   6.903 -45.389  1.00 14.33 LIG 0.24  C 
ATOM     45 O    LEU B 343      25.403   6.940 -46.629  1.00 16.10 LIG-0.27  OA
ATOM     46  N   ALA B 344      25.769   7.860 -44.616  1.00 14.89 LIG-0.34  N 
ATOM     47 H    ALA B 344      25.658   7.894 -43.764  1.00 14.89 LIG 0.16  HD
BRANCH 46 48
ATOM     48  CA  ALA B 344      26.536   8.980 -45.188  1.00 15.57 LIG 0.18  C 
ATOM     49  CB  ALA B 344      25.704   9.736 -46.180  1.00 18.12 LIG 0.04  C 
BRANCH 48 50
ATOM     50  C   ALA B 344      26.966   9.929 -44.075  1.00 15.03 LIG 0.20  C 
ATOM     51 OXT  ALA B 344      27.264  11.107 -44.322  1.00 16.10 LIG-0.65  OA
ATOM     52 O    ALA B 344      26.927   9.477 -42.900  1.00 15.80 LIG-0.65  OA
ENDBRANCH 48 50
ENDBRANCH 46 48
ENDBRANCH 39 44
ENDBRANCH 36 39
ENDBRANCH 30 35
ENDBRANCH 3 30
TORSDOF 18
ENDMDL
MODEL 56
USER: ADFR SOLUTION from run 75
USER: SCORE 14.411675 LL:  -4.471 LR: -11.008 RR:   0.000 FEB:  -5.638
USER: RMSD 9.109495
USER: SEED 74
USER: STATUS no improvement in best in 23 clusters for 5 generations
USER: GENES 20
USER: genes 0 Translation |==|  0.58388 0.65088 0.53815
USER: genes 1 Rotation |==|  0.87709 0.24271 0.44437 0.69624
USER: genes 2 Torsion [N]-C--CA-[N] |==|  0.94165
USER: genes 3 Torsion [C]-CA--CB-[CG] |==|  0.38425
USER: genes 4 Torsion [CA]-CB--CG-[CD1] |==|  0.88029
USER: genes 5 Torsion [C]-CA--N-[C] |==|  0.66694
USER: genes 6 Torsion [N]-C--CA-[CB] |==|  0.84365
USER: genes 7 Torsion [N]-C--CA-[N] |==|  0.83381
USER: genes 8 Torsion [C]-CA--CB-[CG] |==|  0.13245
USER: genes 9 Torsion [CA]-CB--CG-[CD1] |==|  0.72001
USER: genes 10 Torsion [C]-N--CA-[CB] |==|  0.80912
USER: genes 11 Torsion [N]-CA--CB-[CG] |==|  0.88339
USER: genes 12 Torsion [CA]-CB--CG-[OD1] |==|  0.81391
USER: genes 13 Torsion [N]-CA--C-[N] |==|  0.13405
USER: genes 14 Torsion [C]-N--CA-[C] |==|  0.76071
USER: genes 15 Torsion [N]-CA--CB-[CG] |==|  0.84448
USER: genes 16 Torsion [CA]-CB--CG-[CD1] |==|  0.91752
USER: genes 17 Torsion [N]-CA--C-[N] |==|  0.00329
USER: genes 18 Torsion [C]-N--CA-[CB] |==|  0.31063
USER: genes 19 Torsion [N]-CA--C-[OXT] |==|  0.97577
ROOT
ATOM      1  C   LEU B 341      30.426   7.507 -43.867  1.00 14.43 LIG 0.24  C 
ATOM      2 O    LEU B 341      30.352   8.338 -44.772  1.00 17.21 LIG-0.27  OA
ATOM      3  N   ASP B 342      31.415   6.632 -43.771  1.00 15.70 LIG-0.35  N 
ATOM      4 H    ASP B 342      31.540   6.111 -43.098  1.00 15.70 LIG 0.16  HD
ENDROOT
BRANCH 1 5
ATOM      5  CA  LEU B 341      29.364   7.403 -42.773  1.00 14.64 LIG 0.18  C 
BRANCH 5 6
ATOM      6  CB  LEU B 341      29.660   8.450 -41.697  1.00 15.72 LIG 0.04  C 
BRANCH 6 7
ATOM      7  CG  LEU B 341      28.425   9.164 -41.181  1.00 16.60 LIG-0.02  C 
ATOM      8  CD1 LEU B 341      27.529   9.515 -42.347  1.00 17.44 LIG 0.01  C 
ATOM      9  CD2 LEU B 341      27.691   8.338 -40.126  1.00 18.85 LIG 0.01  C 
ENDBRANCH 6 7
ENDBRANCH 5 6
BRANCH 5 10
ATOM     10  N   LEU B 341      29.351   6.098 -42.119  1.00 16.77 LIG-0.35  N 
ATOM     11  C   PRO B 340      28.264   5.335 -42.145  1.00 19.25 LIG 0.24  C 
ATOM     12 O    PRO B 340      27.239   5.605 -42.781  1.00 21.28 LIG-0.27  OA
ATOM     13 H    LEU B 341      30.087   5.881 -41.731  1.00 16.77 LIG 0.16  HD
BRANCH 11 14
ATOM     14  CA  PRO B 340      28.385   4.038 -41.376  1.00 21.04 LIG 0.18  C 
ATOM     15  N   PRO B 340      27.262   3.095 -41.594  1.00 20.95 LIG-0.34  N 
ATOM     16  CD  PRO B 340      27.734   1.768 -42.025  1.00 22.76 LIG 0.13  C 
ATOM     17  C   PHE B 339      26.031   3.447 -41.229  1.00 19.72 LIG 0.26  C 
ATOM     18  CG  PRO B 340      29.216   1.868 -41.728  1.00 24.91 LIG 0.02  C 
ATOM     19  CB  PRO B 340      29.579   3.280 -41.919  1.00 23.27 LIG 0.04  C 
ATOM     20 O    PHE B 339      25.790   4.588 -40.809  1.00 19.38 LIG-0.27  OA
BRANCH 17 21
ATOM     21  CA  PHE B 339      24.932   2.390 -41.337  1.00 21.94 LIG 0.40  C 
ATOM     22  N   PHE B 339      24.779   1.919 -42.705  1.00 23.90 LIG 0.61  N 
BRANCH 21 23
ATOM     23  CB  PHE B 339      25.249   1.210 -40.428  1.00 24.29 LIG 0.09  C 
BRANCH 23 24
ATOM     24  CG  PHE B 339      25.648   1.601 -39.034  1.00 28.97 LIG-0.06  A 
ATOM     25  CD1 PHE B 339      26.988   1.615 -38.655  1.00 31.92 LIG 0.01  A 
ATOM     26  CE1 PHE B 339      27.362   1.978 -37.367  1.00 33.96 LIG 0.00  A 
ATOM     27  CZ  PHE B 339      26.386   2.350 -36.447  1.00 35.90 LIG 0.00  A 
ATOM     28  CE2 PHE B 339      25.040   2.350 -36.817  1.00 35.56 LIG 0.00  A 
ATOM     29  CD2 PHE B 339      24.681   1.975 -38.109  1.00 33.37 LIG 0.01  A 
ENDBRANCH 23 24
ENDBRANCH 21 23
ENDBRANCH 17 21
ENDBRANCH 11 14
ENDBRANCH 5 10
ENDBRANCH 1 5
BRANCH 3 30
ATOM     30  CA  ASP B 342      32.394   6.490 -44.845  1.00 16.21 LIG 0.19  C 
BRANCH 30 31
ATOM     31  CB  ASP B 342      31.727   5.883 -46.063  1.00 18.68 LIG 0.15  C 
BRANCH 31 32
ATOM     32  CG  ASP B 342      30.795   4.771 -45.749  1.00 22.92 LIG 0.17  C 
ATOM     33 OD1  ASP B 342      31.227   3.683 -45.286  1.00 25.81 LIG-0.65  OA
ATOM     34 OD2  ASP B 342      29.596   5.020 -45.983  1.00 25.94 LIG-0.65  OA
ENDBRANCH 31 32
ENDBRANCH 30 31
BRANCH 30 35
ATOM     35  C   ASP B 342      32.939   7.852 -45.295  1.00 16.03 LIG 0.24  C 
ATOM     36  N   LEU B 343      33.338   8.670 -44.312  1.00 16.72 LIG-0.35  N 
ATOM     37 H    LEU B 343      33.111   8.564 -43.489  1.00 16.72 LIG 0.16  HD
ATOM     38 O    ASP B 342      33.087   8.103 -46.487  1.00 14.87 LIG-0.27  OA
BRANCH 36 39
ATOM     39  CA  LEU B 343      34.204   9.832 -44.544  1.00 16.14 LIG 0.18  C 
BRANCH 39 40
ATOM     40  CB  LEU B 343      33.983  10.921 -43.501  1.00 19.18 LIG 0.04  C 
BRANCH 40 41
ATOM     41  CG  LEU B 343      32.526  11.408 -43.388  1.00 20.67 LIG-0.02  C 
ATOM     42  CD1 LEU B 343      31.841  11.260 -44.760  1.00 23.87 LIG 0.01  C 
ATOM     43  CD2 LEU B 343      31.776  10.620 -42.326  1.00 22.92 LIG 0.01  C 
ENDBRANCH 40 41
ENDBRANCH 39 40
BRANCH 39 44
ATOM     44  C   LEU B 343      35.676   9.403 -44.508  1.00 14.33 LIG 0.24  C 
ATOM     45 O    LEU B 343      36.594  10.227 -44.670  1.00 16.10 LIG-0.27  OA
ATOM     46  N   ALA B 344      35.901   8.124 -44.310  1.00 14.89 LIG-0.34  N 
ATOM     47 H    ALA B 344      35.291   7.545 -44.129  1.00 14.89 LIG 0.16  HD
BRANCH 46 48
ATOM     48  CA  ALA B 344      37.269   7.583 -44.390  1.00 15.57 LIG 0.18  C 
ATOM     49  CB  ALA B 344      37.740   7.139 -43.038  1.00 18.12 LIG 0.04  C 
BRANCH 48 50
ATOM     50  C   ALA B 344      37.295   6.392 -45.341  1.00 15.03 LIG 0.20  C 
ATOM     51 OXT  ALA B 344      36.244   5.911 -45.789  1.00 16.10 LIG-0.65  OA
ATOM     52 O    ALA B 344      38.430   5.980 -45.700  1.00 15.80 LIG-0.65  OA
ENDBRANCH 48 50
ENDBRANCH 46 48
ENDBRANCH 39 44
ENDBRANCH 36 39
ENDBRANCH 30 35
ENDBRANCH 3 30
TORSDOF 18
ENDMDL
MODEL 57
USER: ADFR SOLUTION from run 95
USER: SCORE 14.317121 LL:  -5.703 LR: -10.989 RR:   0.000 FEB:  -5.620
USER: RMSD 8.052549
USER: SEED 94
USER: STATUS no improvement in best in 6 clusters for 5 generations
USER: GENES 20
USER: genes 0 Translation |==|  0.50186 0.77840 0.57889
USER: genes 1 Rotation |==|  0.95415 0.35809 0.57303 0.63520
USER: genes 2 Torsion [N]-C--CA-[N] |==|  0.62719
USER: genes 3 Torsion [C]-CA--CB-[CG] |==|  0.43070
USER: genes 4 Torsion [CA]-CB--CG-[CD1] |==|  0.89473
USER: genes 5 Torsion [C]-CA--N-[C] |==|  0.14184
USER: genes 6 Torsion [N]-C--CA-[CB] |==|  0.13497
USER: genes 7 Torsion [N]-C--CA-[N] |==|  0.43130
USER: genes 8 Torsion [C]-CA--CB-[CG] |==|  0.71114
USER: genes 9 Torsion [CA]-CB--CG-[CD1] |==|  0.13977
USER: genes 10 Torsion [C]-N--CA-[CB] |==|  0.45497
USER: genes 11 Torsion [N]-CA--CB-[CG] |==|  0.56632
USER: genes 12 Torsion [CA]-CB--CG-[OD1] |==|  0.88275
USER: genes 13 Torsion [N]-CA--C-[N] |==|  0.81675
USER: genes 14 Torsion [C]-N--CA-[C] |==|  0.70700
USER: genes 15 Torsion [N]-CA--CB-[CG] |==|  0.94211
USER: genes 16 Torsion [CA]-CB--CG-[CD1] |==|  0.48668
USER: genes 17 Torsion [N]-CA--C-[N] |==|  0.86172
USER: genes 18 Torsion [C]-N--CA-[CB] |==|  0.18989
USER: genes 19 Torsion [N]-CA--C-[OXT] |==|  0.63719
ROOT
ATOM      1  C   LEU B 341      28.826  10.280 -42.981  1.00 14.43 LIG 0.24  C 
ATOM      2 O    LEU B 341      28.516  11.059 -43.882  1.00 17.21 LIG-0.27  OA
ATOM      3  N   ASP B 342      30.054  10.197 -42.491  1.00 15.70 LIG-0.35  N 
ATOM      4 H    ASP B 342      30.270   9.734 -41.799  1.00 15.70 LIG 0.16  HD
ENDROOT
BRANCH 1 5
ATOM      5  CA  LEU B 341      27.814   9.324 -42.352  1.00 14.64 LIG 0.18  C 
BRANCH 5 6
ATOM      6  CB  LEU B 341      28.571   8.248 -41.570  1.00 15.72 LIG 0.04  C 
BRANCH 6 7
ATOM      7  CG  LEU B 341      27.761   7.622 -40.450  1.00 16.60 LIG-0.02  C 
ATOM      8  CD1 LEU B 341      26.917   8.688 -39.790  1.00 17.44 LIG 0.01  C 
ATOM      9  CD2 LEU B 341      26.916   6.450 -40.947  1.00 18.85 LIG 0.01  C 
ENDBRANCH 6 7
ENDBRANCH 5 6
BRANCH 5 10
ATOM     10  N   LEU B 341      26.988   8.642 -43.344  1.00 16.77 LIG-0.35  N 
ATOM     11  C   PRO B 340      27.542   8.012 -44.375  1.00 19.25 LIG 0.24  C 
ATOM     12 O    PRO B 340      28.760   7.869 -44.529  1.00 21.28 LIG-0.27  OA
ATOM     13 H    LEU B 341      26.141   8.686 -43.201  1.00 16.77 LIG 0.16  HD
BRANCH 11 14
ATOM     14  CA  PRO B 340      26.556   7.404 -45.346  1.00 21.04 LIG 0.18  C 
ATOM     15  N   PRO B 340      25.744   6.301 -44.778  1.00 20.95 LIG-0.34  N 
ATOM     16  CD  PRO B 340      24.300   6.537 -44.948  1.00 22.76 LIG 0.13  C 
ATOM     17  C   PHE B 339      26.348   5.190 -44.360  1.00 19.72 LIG 0.26  C 
ATOM     18  CG  PRO B 340      24.300   7.675 -45.948  1.00 24.91 LIG 0.02  C 
ATOM     19  CB  PRO B 340      25.517   8.455 -45.682  1.00 23.27 LIG 0.04  C 
ATOM     20 O    PHE B 339      27.584   5.104 -44.341  1.00 19.38 LIG-0.27  OA
BRANCH 17 21
ATOM     21  CA  PHE B 339      25.461   4.027 -43.919  1.00 21.94 LIG 0.40  C 
ATOM     22  N   PHE B 339      26.151   2.752 -44.046  1.00 23.90 LIG 0.61  N 
BRANCH 21 23
ATOM     23  CB  PHE B 339      25.019   4.222 -42.475  1.00 24.29 LIG 0.09  C 
BRANCH 23 24
ATOM     24  CG  PHE B 339      25.748   3.354 -41.490  1.00 28.97 LIG-0.06  A 
ATOM     25  CD1 PHE B 339      27.139   3.295 -41.486  1.00 31.92 LIG 0.01  A 
ATOM     26  CE1 PHE B 339      27.818   2.495 -40.575  1.00 33.96 LIG 0.00  A 
ATOM     27  CZ  PHE B 339      27.099   1.755 -39.641  1.00 35.90 LIG 0.00  A 
ATOM     28  CE2 PHE B 339      25.704   1.812 -39.628  1.00 35.56 LIG 0.00  A 
ATOM     29  CD2 PHE B 339      25.039   2.613 -40.553  1.00 33.37 LIG 0.01  A 
ENDBRANCH 23 24
ENDBRANCH 21 23
ENDBRANCH 17 21
ENDBRANCH 11 14
ENDBRANCH 5 10
ENDBRANCH 1 5
BRANCH 3 30
ATOM     30  CA  ASP B 342      31.160  10.911 -43.121  1.00 16.21 LIG 0.19  C 
BRANCH 30 31
ATOM     31  CB  ASP B 342      32.334  10.975 -42.164  1.00 18.68 LIG 0.15  C 
BRANCH 31 32
ATOM     32  CG  ASP B 342      33.267  12.100 -42.427  1.00 22.92 LIG 0.17  C 
ATOM     33 OD1  ASP B 342      33.601  12.395 -43.605  1.00 25.81 LIG-0.65  OA
ATOM     34 OD2  ASP B 342      33.664  12.691 -41.405  1.00 25.94 LIG-0.65  OA
ENDBRANCH 31 32
ENDBRANCH 30 31
BRANCH 30 35
ATOM     35  C   ASP B 342      31.670  10.177 -44.368  1.00 16.03 LIG 0.24  C 
ATOM     36  N   LEU B 343      32.243   8.987 -44.145  1.00 16.72 LIG-0.35  N 
ATOM     37 H    LEU B 343      32.520   8.735 -43.372  1.00 16.72 LIG 0.16  HD
ATOM     38 O    ASP B 342      31.454  10.627 -45.489  1.00 14.87 LIG-0.27  OA
BRANCH 36 39
ATOM     39  CA  LEU B 343      32.454   7.994 -45.205  1.00 16.14 LIG 0.18  C 
BRANCH 39 40
ATOM     40  CB  LEU B 343      33.863   7.414 -45.164  1.00 19.18 LIG 0.04  C 
BRANCH 40 41
ATOM     41  CG  LEU B 343      34.891   8.288 -44.420  1.00 20.67 LIG-0.02  C 
ATOM     42  CD1 LEU B 343      36.232   7.534 -44.350  1.00 23.87 LIG 0.01  C 
ATOM     43  CD2 LEU B 343      35.063   9.626 -45.120  1.00 22.92 LIG 0.01  C 
ENDBRANCH 40 41
ENDBRANCH 39 40
BRANCH 39 44
ATOM     44  C   LEU B 343      31.443   6.850 -45.060  1.00 14.33 LIG 0.24  C 
ATOM     45 O    LEU B 343      30.758   6.466 -46.025  1.00 16.10 LIG-0.27  OA
ATOM     46  N   ALA B 344      31.340   6.318 -43.864  1.00 14.89 LIG-0.34  N 
ATOM     47 H    ALA B 344      31.845   6.517 -43.197  1.00 14.89 LIG 0.16  HD
BRANCH 46 48
ATOM     48  CA  ALA B 344      30.307   5.306 -43.582  1.00 15.57 LIG 0.18  C 
ATOM     49  CB  ALA B 344      30.601   4.033 -44.318  1.00 18.12 LIG 0.04  C 
BRANCH 48 50
ATOM     50  C   ALA B 344      30.268   5.016 -42.085  1.00 15.03 LIG 0.20  C 
ATOM     51 OXT  ALA B 344      30.290   3.851 -41.661  1.00 16.10 LIG-0.65  OA
ATOM     52 O    ALA B 344      30.290   6.013 -41.315  1.00 15.80 LIG-0.65  OA
ENDBRANCH 48 50
ENDBRANCH 46 48
ENDBRANCH 39 44
ENDBRANCH 36 39
ENDBRANCH 30 35
ENDBRANCH 3 30
TORSDOF 18
ENDMDL
MODEL 58
USER: ADFR SOLUTION from run 171
USER: SCORE 14.969406 LL:  -5.378 LR: -10.987 RR:   0.000 FEB:  -5.617
USER: RMSD 6.843812
USER: SEED 170
USER: STATUS no improvement in best in 9 clusters for 5 generations
USER: GENES 20
USER: genes 0 Translation |==|  0.36951 0.39953 0.80385
USER: genes 1 Rotation |==|  0.19500 0.74554 0.63366 0.78075
USER: genes 2 Torsion [N]-C--CA-[N] |==|  0.96596
USER: genes 3 Torsion [C]-CA--CB-[CG] |==|  0.89310
USER: genes 4 Torsion [CA]-CB--CG-[CD1] |==|  0.45102
USER: genes 5 Torsion [C]-CA--N-[C] |==|  0.77256
USER: genes 6 Torsion [N]-C--CA-[CB] |==|  0.88038
USER: genes 7 Torsion [N]-C--CA-[N] |==|  0.38278
USER: genes 8 Torsion [C]-CA--CB-[CG] |==|  0.15626
USER: genes 9 Torsion [CA]-CB--CG-[CD1] |==|  0.21516
USER: genes 10 Torsion [C]-N--CA-[CB] |==|  0.19162
USER: genes 11 Torsion [N]-CA--CB-[CG] |==|  0.17652
USER: genes 12 Torsion [CA]-CB--CG-[OD1] |==|  0.23123
USER: genes 13 Torsion [N]-CA--C-[N] |==|  0.50926
USER: genes 14 Torsion [C]-N--CA-[C] |==|  0.61667
USER: genes 15 Torsion [N]-CA--CB-[CG] |==|  0.70554
USER: genes 16 Torsion [CA]-CB--CG-[CD1] |==|  0.57483
USER: genes 17 Torsion [N]-CA--C-[N] |==|  0.97177
USER: genes 18 Torsion [C]-N--CA-[CB] |==|  0.27750
USER: genes 19 Torsion [N]-CA--C-[OXT] |==|  0.54077
ROOT
ATOM      1  C   LEU B 341      26.245   2.040 -38.088  1.00 14.43 LIG 0.24  C 
ATOM      2 O    LEU B 341      26.590   2.482 -36.993  1.00 17.21 LIG-0.27  OA
ATOM      3  N   ASP B 342      27.079   1.421 -38.911  1.00 15.70 LIG-0.35  N 
ATOM      4 H    ASP B 342      26.840   1.019 -39.632  1.00 15.70 LIG 0.16  HD
ENDROOT
BRANCH 1 5
ATOM      5  CA  LEU B 341      24.814   2.179 -38.604  1.00 14.64 LIG 0.18  C 
BRANCH 5 6
ATOM      6  CB  LEU B 341      23.916   1.207 -37.836  1.00 15.72 LIG 0.04  C 
BRANCH 6 7
ATOM      7  CG  LEU B 341      24.568  -0.132 -37.547  1.00 16.60 LIG-0.02  C 
ATOM      8  CD1 LEU B 341      23.804  -0.831 -36.446  1.00 17.44 LIG 0.01  C 
ATOM      9  CD2 LEU B 341      24.677  -0.994 -38.804  1.00 18.85 LIG 0.01  C 
ENDBRANCH 6 7
ENDBRANCH 5 6
BRANCH 5 10
ATOM     10  N   LEU B 341      24.690   1.859 -40.024  1.00 16.77 LIG-0.35  N 
ATOM     11  C   PRO B 340      24.990   2.760 -40.953  1.00 19.25 LIG 0.24  C 
ATOM     12 O    PRO B 340      25.473   3.872 -40.713  1.00 21.28 LIG-0.27  OA
ATOM     13 H    LEU B 341      24.416   1.062 -40.191  1.00 16.77 LIG 0.16  HD
BRANCH 11 14
ATOM     14  CA  PRO B 340      24.757   2.300 -42.374  1.00 21.04 LIG 0.18  C 
ATOM     15  N   PRO B 340      25.553   3.033 -43.388  1.00 20.95 LIG-0.34  N 
ATOM     16  CD  PRO B 340      26.335   2.119 -44.238  1.00 22.76 LIG 0.13  C 
ATOM     17  C   PHE B 339      25.362   4.340 -43.551  1.00 19.72 LIG 0.26  C 
ATOM     18  CG  PRO B 340      25.706   0.784 -43.900  1.00 24.91 LIG 0.02  C 
ATOM     19  CB  PRO B 340      25.269   0.879 -42.499  1.00 23.27 LIG 0.04  C 
ATOM     20 O    PHE B 339      24.609   4.975 -42.799  1.00 19.38 LIG-0.27  OA
BRANCH 17 21
ATOM     21  CA  PHE B 339      26.097   5.023 -44.704  1.00 21.94 LIG 0.40  C 
ATOM     22  N   PHE B 339      25.236   5.968 -45.400  1.00 23.90 LIG 0.61  N 
BRANCH 21 23
ATOM     23  CB  PHE B 339      27.329   5.751 -44.184  1.00 24.29 LIG 0.09  C 
BRANCH 23 24
ATOM     24  CG  PHE B 339      28.284   4.872 -43.428  1.00 28.97 LIG-0.06  A 
ATOM     25  CD1 PHE B 339      29.144   4.008 -44.103  1.00 31.92 LIG 0.01  A 
ATOM     26  CE1 PHE B 339      30.029   3.195 -43.407  1.00 33.96 LIG 0.00  A 
ATOM     27  CZ  PHE B 339      30.072   3.256 -42.017  1.00 35.90 LIG 0.00  A 
ATOM     28  CE2 PHE B 339      29.222   4.123 -41.329  1.00 35.56 LIG 0.00  A 
ATOM     29  CD2 PHE B 339      28.334   4.926 -42.041  1.00 33.37 LIG 0.01  A 
ENDBRANCH 23 24
ENDBRANCH 21 23
ENDBRANCH 17 21
ENDBRANCH 11 14
ENDBRANCH 5 10
ENDBRANCH 1 5
BRANCH 3 30
ATOM     30  CA  ASP B 342      28.512   1.383 -38.633  1.00 16.21 LIG 0.19  C 
BRANCH 30 31
ATOM     31  CB  ASP B 342      28.771   0.509 -37.422  1.00 18.68 LIG 0.15  C 
BRANCH 31 32
ATOM     32  CG  ASP B 342      28.396  -0.915 -37.615  1.00 22.92 LIG 0.17  C 
ATOM     33 OD1  ASP B 342      29.186  -1.716 -38.182  1.00 25.81 LIG-0.65  OA
ATOM     34 OD2  ASP B 342      27.269  -1.216 -37.176  1.00 25.94 LIG-0.65  OA
ENDBRANCH 31 32
ENDBRANCH 30 31
BRANCH 30 35
ATOM     35  C   ASP B 342      29.294   0.747 -39.790  1.00 16.03 LIG 0.24  C 
ATOM     36  N   LEU B 343      30.611   0.608 -39.591  1.00 16.72 LIG-0.35  N 
ATOM     37 H    LEU B 343      31.043   1.032 -38.980  1.00 16.72 LIG 0.16  HD
ATOM     38 O    ASP B 342      28.706   0.308 -40.774  1.00 14.87 LIG-0.27  OA
BRANCH 36 39
ATOM     39  CA  LEU B 343      31.449  -0.286 -40.400  1.00 16.14 LIG 0.18  C 
BRANCH 39 40
ATOM     40  CB  LEU B 343      32.232   0.479 -41.460  1.00 19.18 LIG 0.04  C 
BRANCH 40 41
ATOM     41  CG  LEU B 343      31.702   0.301 -42.896  1.00 20.67 LIG-0.02  C 
ATOM     42  CD1 LEU B 343      32.862   0.506 -43.887  1.00 23.87 LIG 0.01  C 
ATOM     43  CD2 LEU B 343      31.081  -1.075 -43.072  1.00 22.92 LIG 0.01  C 
ENDBRANCH 40 41
ENDBRANCH 39 40
BRANCH 39 44
ATOM     44  C   LEU B 343      32.437  -1.035 -39.497  1.00 14.33 LIG 0.24  C 
ATOM     45 O    LEU B 343      33.111  -1.988 -39.928  1.00 16.10 LIG-0.27  OA
ATOM     46  N   ALA B 344      32.515  -0.618 -38.254  1.00 14.89 LIG-0.34  N 
ATOM     47 H    ALA B 344      32.112   0.077 -37.947  1.00 14.89 LIG 0.16  HD
BRANCH 46 48
ATOM     48  CA  ALA B 344      33.331  -1.350 -37.270  1.00 15.57 LIG 0.18  C 
ATOM     49  CB  ALA B 344      34.655  -0.674 -37.077  1.00 18.12 LIG 0.04  C 
BRANCH 48 50
ATOM     50  C   ALA B 344      32.600  -1.400 -35.933  1.00 15.03 LIG 0.20  C 
ATOM     51 OXT  ALA B 344      33.194  -1.720 -34.893  1.00 16.10 LIG-0.65  OA
ATOM     52 O    ALA B 344      31.396  -1.029 -35.932  1.00 15.80 LIG-0.65  OA
ENDBRANCH 48 50
ENDBRANCH 46 48
ENDBRANCH 39 44
ENDBRANCH 36 39
ENDBRANCH 30 35
ENDBRANCH 3 30
TORSDOF 18
ENDMDL
MODEL 59
USER: ADFR SOLUTION from run 91
USER: SCORE 13.765581 LL:  -4.157 LR: -10.981 RR:   0.000 FEB:  -5.612
USER: RMSD 5.708347
USER: SEED 90
USER: STATUS no improvement in best in 13 clusters for 5 generations
USER: GENES 20
USER: genes 0 Translation |==|  0.54171 0.58470 0.62160
USER: genes 1 Rotation |==|  0.44260 0.98076 0.45641 0.61692
USER: genes 2 Torsion [N]-C--CA-[N] |==|  0.57213
USER: genes 3 Torsion [C]-CA--CB-[CG] |==|  0.35771
USER: genes 4 Torsion [CA]-CB--CG-[CD1] |==|  0.97710
USER: genes 5 Torsion [C]-CA--N-[C] |==|  0.55531
USER: genes 6 Torsion [N]-C--CA-[CB] |==|  0.61890
USER: genes 7 Torsion [N]-C--CA-[N] |==|  0.35951
USER: genes 8 Torsion [C]-CA--CB-[CG] |==|  0.20863
USER: genes 9 Torsion [CA]-CB--CG-[CD1] |==|  0.62502
USER: genes 10 Torsion [C]-N--CA-[CB] |==|  0.84444
USER: genes 11 Torsion [N]-CA--CB-[CG] |==|  0.83746
USER: genes 12 Torsion [CA]-CB--CG-[OD1] |==|  0.90037
USER: genes 13 Torsion [N]-CA--C-[N] |==|  0.29193
USER: genes 14 Torsion [C]-N--CA-[C] |==|  0.84740
USER: genes 15 Torsion [N]-CA--CB-[CG] |==|  0.84054
USER: genes 16 Torsion [CA]-CB--CG-[CD1] |==|  0.42653
USER: genes 17 Torsion [N]-CA--C-[N] |==|  0.39107
USER: genes 18 Torsion [C]-N--CA-[CB] |==|  0.25577
USER: genes 19 Torsion [N]-CA--C-[OXT] |==|  0.52729
ROOT
ATOM      1  C   LEU B 341      29.603   6.067 -42.052  1.00 14.43 LIG 0.24  C 
ATOM      2 O    LEU B 341      30.684   5.598 -41.696  1.00 17.21 LIG-0.27  OA
ATOM      3  N   ASP B 342      28.535   5.320 -42.286  1.00 15.70 LIG-0.35  N 
ATOM      4 H    ASP B 342      27.748   5.632 -42.438  1.00 15.70 LIG 0.16  HD
ENDROOT
BRANCH 1 5
ATOM      5  CA  LEU B 341      29.403   7.566 -42.270  1.00 14.64 LIG 0.18  C 
BRANCH 5 6
ATOM      6  CB  LEU B 341      28.441   7.770 -43.443  1.00 15.72 LIG 0.04  C 
BRANCH 6 7
ATOM      7  CG  LEU B 341      27.284   8.701 -43.131  1.00 16.60 LIG-0.02  C 
ATOM      8  CD1 LEU B 341      27.288   9.023 -41.655  1.00 17.44 LIG 0.01  C 
ATOM      9  CD2 LEU B 341      27.324   9.964 -43.992  1.00 18.85 LIG 0.01  C 
ENDBRANCH 6 7
ENDBRANCH 5 6
BRANCH 5 10
ATOM     10  N   LEU B 341      30.644   8.262 -42.598  1.00 16.77 LIG-0.35  N 
ATOM     11  C   PRO B 340      30.750   9.576 -42.437  1.00 19.25 LIG 0.24  C 
ATOM     12 O    PRO B 340      29.878  10.287 -41.926  1.00 21.28 LIG-0.27  OA
ATOM     13 H    LEU B 341      31.274   7.757 -42.892  1.00 16.77 LIG 0.16  HD
BRANCH 11 14
ATOM     14  CA  PRO B 340      32.075  10.160 -42.873  1.00 21.04 LIG 0.18  C 
ATOM     15  N   PRO B 340      32.004  10.973 -44.110  1.00 20.95 LIG-0.34  N 
ATOM     16  CD  PRO B 340      32.566  12.320 -43.916  1.00 22.76 LIG 0.13  C 
ATOM     17  C   PHE B 339      31.638  10.397 -45.253  1.00 19.72 LIG 0.26  C 
ATOM     18  CG  PRO B 340      33.283  12.157 -42.592  1.00 24.91 LIG 0.02  C 
ATOM     19  CB  PRO B 340      32.512  11.166 -41.826  1.00 23.27 LIG 0.04  C 
ATOM     20 O    PHE B 339      31.253   9.219 -45.280  1.00 19.38 LIG-0.27  OA
BRANCH 17 21
ATOM     21  CA  PHE B 339      31.721  11.237 -46.527  1.00 21.94 LIG 0.40  C 
ATOM     22  N   PHE B 339      32.441  10.538 -47.580  1.00 23.90 LIG 0.61  N 
BRANCH 21 23
ATOM     23  CB  PHE B 339      30.322  11.587 -47.016  1.00 24.29 LIG 0.09  C 
BRANCH 23 24
ATOM     24  CG  PHE B 339      29.642  12.657 -46.211  1.00 28.97 LIG-0.06  A 
ATOM     25  CD1 PHE B 339      28.313  12.517 -45.819  1.00 31.92 LIG 0.01  A 
ATOM     26  CE1 PHE B 339      27.681  13.503 -45.072  1.00 33.96 LIG 0.00  A 
ATOM     27  CZ  PHE B 339      28.390  14.640 -44.695  1.00 35.90 LIG 0.00  A 
ATOM     28  CE2 PHE B 339      29.725  14.789 -45.074  1.00 35.56 LIG 0.00  A 
ATOM     29  CD2 PHE B 339      30.342  13.795 -45.829  1.00 33.37 LIG 0.01  A 
ENDBRANCH 23 24
ENDBRANCH 21 23
ENDBRANCH 17 21
ENDBRANCH 11 14
ENDBRANCH 5 10
ENDBRANCH 1 5
BRANCH 3 30
ATOM     30  CA  ASP B 342      28.630   3.863 -42.301  1.00 16.21 LIG 0.19  C 
BRANCH 30 31
ATOM     31  CB  ASP B 342      29.680   3.434 -43.307  1.00 18.68 LIG 0.15  C 
BRANCH 31 32
ATOM     32  CG  ASP B 342      29.412   3.898 -44.693  1.00 22.92 LIG 0.17  C 
ATOM     33 OD1  ASP B 342      28.234   3.961 -45.132  1.00 25.81 LIG-0.65  OA
ATOM     34 OD2  ASP B 342      30.431   4.202 -45.341  1.00 25.94 LIG-0.65  OA
ENDBRANCH 31 32
ENDBRANCH 30 31
BRANCH 30 35
ATOM     35  C   ASP B 342      29.094   3.314 -40.945  1.00 16.03 LIG 0.24  C 
ATOM     36  N   LEU B 343      28.144   2.738 -40.199  1.00 16.72 LIG-0.35  N 
ATOM     37 H    LEU B 343      27.303   2.852 -40.336  1.00 16.72 LIG 0.16  HD
ATOM     38 O    ASP B 342      30.283   3.322 -40.642  1.00 14.87 LIG-0.27  OA
BRANCH 36 39
ATOM     39  CA  LEU B 343      28.447   1.851 -39.069  1.00 16.14 LIG 0.18  C 
BRANCH 39 40
ATOM     40  CB  LEU B 343      27.181   1.258 -38.459  1.00 19.18 LIG 0.04  C 
BRANCH 40 41
ATOM     41  CG  LEU B 343      26.161   2.303 -37.970  1.00 20.67 LIG-0.02  C 
ATOM     42  CD1 LEU B 343      24.751   1.684 -38.011  1.00 23.87 LIG 0.01  C 
ATOM     43  CD2 LEU B 343      26.502   2.769 -36.564  1.00 22.92 LIG 0.01  C 
ENDBRANCH 40 41
ENDBRANCH 39 40
BRANCH 39 44
ATOM     44  C   LEU B 343      29.357   0.706 -39.531  1.00 14.33 LIG 0.24  C 
ATOM     45 O    LEU B 343      29.190   0.151 -40.632  1.00 16.10 LIG-0.27  OA
ATOM     46  N   ALA B 344      30.303   0.347 -38.695  1.00 14.89 LIG-0.34  N 
ATOM     47 H    ALA B 344      30.484   0.754 -37.959  1.00 14.89 LIG 0.16  HD
BRANCH 46 48
ATOM     48  CA  ALA B 344      31.148  -0.826 -38.980  1.00 15.57 LIG 0.18  C 
ATOM     49  CB  ALA B 344      32.387  -0.417 -39.717  1.00 18.12 LIG 0.04  C 
BRANCH 48 50
ATOM     50  C   ALA B 344      31.549  -1.500 -37.672  1.00 15.03 LIG 0.20  C 
ATOM     51 OXT  ALA B 344      32.404  -2.397 -37.653  1.00 16.10 LIG-0.65  OA
ATOM     52 O    ALA B 344      31.026  -1.047 -36.619  1.00 15.80 LIG-0.65  OA
ENDBRANCH 48 50
ENDBRANCH 46 48
ENDBRANCH 39 44
ENDBRANCH 36 39
ENDBRANCH 30 35
ENDBRANCH 3 30
TORSDOF 18
ENDMDL
MODEL 60
USER: ADFR SOLUTION from run 140
USER: SCORE 15.086639 LL:  -4.963 LR: -10.978 RR:   0.000 FEB:  -5.608
USER: RMSD 4.823302
USER: SEED 139
USER: STATUS no improvement in best in 5 clusters for 5 generations
USER: GENES 20
USER: genes 0 Translation |==|  0.47366 0.47184 0.63536
USER: genes 1 Rotation |==|  0.69775 0.10894 0.56072 0.73298
USER: genes 2 Torsion [N]-C--CA-[N] |==|  0.37233
USER: genes 3 Torsion [C]-CA--CB-[CG] |==|  0.23709
USER: genes 4 Torsion [CA]-CB--CG-[CD1] |==|  0.69849
USER: genes 5 Torsion [C]-CA--N-[C] |==|  0.86659
USER: genes 6 Torsion [N]-C--CA-[CB] |==|  0.25190
USER: genes 7 Torsion [N]-C--CA-[N] |==|  0.28115
USER: genes 8 Torsion [C]-CA--CB-[CG] |==|  0.20691
USER: genes 9 Torsion [CA]-CB--CG-[CD1] |==|  0.11413
USER: genes 10 Torsion [C]-N--CA-[CB] |==|  0.20258
USER: genes 11 Torsion [N]-CA--CB-[CG] |==|  0.48448
USER: genes 12 Torsion [CA]-CB--CG-[OD1] |==|  0.18669
USER: genes 13 Torsion [N]-CA--C-[N] |==|  0.87062
USER: genes 14 Torsion [C]-N--CA-[C] |==|  0.17195
USER: genes 15 Torsion [N]-CA--CB-[CG] |==|  0.83151
USER: genes 16 Torsion [CA]-CB--CG-[CD1] |==|  0.52696
USER: genes 17 Torsion [N]-CA--C-[N] |==|  0.10397
USER: genes 18 Torsion [C]-N--CA-[CB] |==|  0.44767
USER: genes 19 Torsion [N]-CA--C-[OXT] |==|  0.13546
ROOT
ATOM      1  C   LEU B 341      28.276   3.613 -41.753  1.00 14.43 LIG 0.24  C 
ATOM      2 O    LEU B 341      28.892   3.485 -42.811  1.00 17.21 LIG-0.27  OA
ATOM      3  N   ASP B 342      28.448   2.804 -40.718  1.00 15.70 LIG-0.35  N 
ATOM      4 H    ASP B 342      28.105   2.932 -39.940  1.00 15.70 LIG 0.16  HD
ENDROOT
BRANCH 1 5
ATOM      5  CA  LEU B 341      27.242   4.717 -41.545  1.00 14.64 LIG 0.18  C 
BRANCH 5 6
ATOM      6  CB  LEU B 341      25.989   4.380 -42.355  1.00 15.72 LIG 0.04  C 
BRANCH 6 7
ATOM      7  CG  LEU B 341      25.020   3.462 -41.632  1.00 16.60 LIG-0.02  C 
ATOM      8  CD1 LEU B 341      25.053   2.096 -42.277  1.00 17.44 LIG 0.01  C 
ATOM      9  CD2 LEU B 341      25.314   3.395 -40.134  1.00 18.85 LIG 0.01  C 
ENDBRANCH 6 7
ENDBRANCH 5 6
BRANCH 5 10
ATOM     10  N   LEU B 341      27.712   6.025 -41.992  1.00 16.77 LIG-0.35  N 
ATOM     11  C   PRO B 340      28.912   6.474 -41.639  1.00 19.25 LIG 0.24  C 
ATOM     12 O    PRO B 340      29.743   5.813 -41.008  1.00 21.28 LIG-0.27  OA
ATOM     13 H    LEU B 341      27.158   6.458 -42.487  1.00 16.77 LIG 0.16  HD
BRANCH 11 14
ATOM     14  CA  PRO B 340      29.233   7.867 -42.132  1.00 21.04 LIG 0.18  C 
ATOM     15  N   PRO B 340      28.460   8.284 -43.326  1.00 20.95 LIG-0.34  N 
ATOM     16  CD  PRO B 340      27.759   9.560 -43.109  1.00 22.76 LIG 0.13  C 
ATOM     17  C   PHE B 339      28.604   7.613 -44.468  1.00 19.72 LIG 0.26  C 
ATOM     18  CG  PRO B 340      28.424  10.055 -41.842  1.00 24.91 LIG 0.02  C 
ATOM     19  CB  PRO B 340      28.786   8.855 -41.073  1.00 23.27 LIG 0.04  C 
ATOM     20 O    PHE B 339      29.293   6.584 -44.521  1.00 19.38 LIG-0.27  OA
BRANCH 17 21
ATOM     21  CA  PHE B 339      27.901   8.167 -45.706  1.00 21.94 LIG 0.40  C 
ATOM     22  N   PHE B 339      28.827   8.883 -46.569  1.00 23.90 LIG 0.61  N 
BRANCH 21 23
ATOM     23  CB  PHE B 339      27.251   7.034 -46.490  1.00 24.29 LIG 0.09  C 
BRANCH 23 24
ATOM     24  CG  PHE B 339      26.002   6.491 -45.858  1.00 28.97 LIG-0.06  A 
ATOM     25  CD1 PHE B 339      25.066   7.347 -45.281  1.00 31.92 LIG 0.01  A 
ATOM     26  CE1 PHE B 339      23.908   6.849 -44.697  1.00 33.96 LIG 0.00  A 
ATOM     27  CZ  PHE B 339      23.670   5.478 -44.703  1.00 35.90 LIG 0.00  A 
ATOM     28  CE2 PHE B 339      24.595   4.610 -45.286  1.00 35.56 LIG 0.00  A 
ATOM     29  CD2 PHE B 339      25.755   5.125 -45.860  1.00 33.37 LIG 0.01  A 
ENDBRANCH 23 24
ENDBRANCH 21 23
ENDBRANCH 17 21
ENDBRANCH 11 14
ENDBRANCH 5 10
ENDBRANCH 1 5
BRANCH 3 30
ATOM     30  CA  ASP B 342      29.261   1.598 -40.838  1.00 16.21 LIG 0.19  C 
BRANCH 30 31
ATOM     31  CB  ASP B 342      30.726   1.978 -40.912  1.00 18.68 LIG 0.15  C 
BRANCH 31 32
ATOM     32  CG  ASP B 342      31.652   0.817 -40.904  1.00 22.92 LIG 0.17  C 
ATOM     33 OD1  ASP B 342      31.684   0.016 -41.875  1.00 25.81 LIG-0.65  OA
ATOM     34 OD2  ASP B 342      32.359   0.727 -39.882  1.00 25.94 LIG-0.65  OA
ENDBRANCH 31 32
ENDBRANCH 30 31
BRANCH 30 35
ATOM     35  C   ASP B 342      29.119   0.696 -39.605  1.00 16.03 LIG 0.24  C 
ATOM     36  N   LEU B 343      29.210   1.316 -38.421  1.00 16.72 LIG-0.35  N 
ATOM     37 H    LEU B 343      29.544   2.103 -38.325  1.00 16.72 LIG 0.16  HD
ATOM     38 O    ASP B 342      28.834  -0.491 -39.728  1.00 14.87 LIG-0.27  OA
BRANCH 36 39
ATOM     39  CA  LEU B 343      28.748   0.710 -37.166  1.00 16.14 LIG 0.18  C 
BRANCH 39 40
ATOM     40  CB  LEU B 343      27.263   0.371 -37.216  1.00 19.18 LIG 0.04  C 
BRANCH 40 41
ATOM     41  CG  LEU B 343      26.339   1.583 -37.441  1.00 20.67 LIG-0.02  C 
ATOM     42  CD1 LEU B 343      24.878   1.145 -37.227  1.00 23.87 LIG 0.01  C 
ATOM     43  CD2 LEU B 343      26.703   2.718 -36.498  1.00 22.92 LIG 0.01  C 
ENDBRANCH 40 41
ENDBRANCH 39 40
BRANCH 39 44
ATOM     44  C   LEU B 343      29.540  -0.571 -36.880  1.00 14.33 LIG 0.24  C 
ATOM     45 O    LEU B 343      28.998  -1.566 -36.366  1.00 16.10 LIG-0.27  OA
ATOM     46  N   ALA B 344      30.815  -0.545 -37.197  1.00 14.89 LIG-0.34  N 
ATOM     47 H    ALA B 344      31.200   0.101 -37.613  1.00 14.89 LIG 0.16  HD
BRANCH 46 48
ATOM     48  CA  ALA B 344      31.696  -1.671 -36.844  1.00 15.57 LIG 0.18  C 
ATOM     49  CB  ALA B 344      32.945  -1.644 -37.673  1.00 18.12 LIG 0.04  C 
BRANCH 48 50
ATOM     50  C   ALA B 344      32.078  -1.581 -35.370  1.00 15.03 LIG 0.20  C 
ATOM     51 OXT  ALA B 344      31.215  -1.400 -34.499  1.00 16.10 LIG-0.65  OA
ATOM     52 O    ALA B 344      33.290  -1.775 -35.087  1.00 15.80 LIG-0.65  OA
ENDBRANCH 48 50
ENDBRANCH 46 48
ENDBRANCH 39 44
ENDBRANCH 36 39
ENDBRANCH 30 35
ENDBRANCH 3 30
TORSDOF 18
ENDMDL
MODEL 61
USER: ADFR SOLUTION from run 181
USER: SCORE 13.711221 LL:  -4.815 LR: -10.984 RR:   0.000 FEB:  -5.615
USER: RMSD 9.735512
USER: SEED 180
USER: STATUS no improvement in best in 17 clusters for 5 generations
USER: GENES 20
USER: genes 0 Translation |==|  0.42658 0.59781 0.53915
USER: genes 1 Rotation |==|  0.69610 0.70794 0.86261 0.69189
USER: genes 2 Torsion [N]-C--CA-[N] |==|  0.41563
USER: genes 3 Torsion [C]-CA--CB-[CG] |==|  0.15184
USER: genes 4 Torsion [CA]-CB--CG-[CD1] |==|  0.24455
USER: genes 5 Torsion [C]-CA--N-[C] |==|  0.61844
USER: genes 6 Torsion [N]-C--CA-[CB] |==|  0.59097
USER: genes 7 Torsion [N]-C--CA-[N] |==|  0.41142
USER: genes 8 Torsion [C]-CA--CB-[CG] |==|  0.21257
USER: genes 9 Torsion [CA]-CB--CG-[CD1] |==|  0.14560
USER: genes 10 Torsion [C]-N--CA-[CB] |==|  0.53575
USER: genes 11 Torsion [N]-CA--CB-[CG] |==|  0.21006
USER: genes 12 Torsion [CA]-CB--CG-[OD1] |==|  0.86639
USER: genes 13 Torsion [N]-CA--C-[N] |==|  0.92073
USER: genes 14 Torsion [C]-N--CA-[C] |==|  0.22066
USER: genes 15 Torsion [N]-CA--CB-[CG] |==|  0.69856
USER: genes 16 Torsion [CA]-CB--CG-[CD1] |==|  0.09263
USER: genes 17 Torsion [N]-CA--C-[N] |==|  0.43481
USER: genes 18 Torsion [C]-N--CA-[CB] |==|  0.25408
USER: genes 19 Torsion [N]-CA--C-[OXT] |==|  0.54386
ROOT
ATOM      1  C   LEU B 341      27.358   6.352 -43.845  1.00 14.43 LIG 0.24  C 
ATOM      2 O    LEU B 341      28.130   5.837 -44.654  1.00 17.21 LIG-0.27  OA
ATOM      3  N   ASP B 342      26.794   7.534 -44.041  1.00 15.70 LIG-0.35  N 
ATOM      4 H    ASP B 342      26.179   7.868 -43.541  1.00 15.70 LIG 0.16  HD
ENDROOT
BRANCH 1 5
ATOM      5  CA  LEU B 341      26.992   5.673 -42.527  1.00 14.64 LIG 0.18  C 
BRANCH 5 6
ATOM      6  CB  LEU B 341      28.018   6.072 -41.464  1.00 15.72 LIG 0.04  C 
BRANCH 6 7
ATOM      7  CG  LEU B 341      28.176   7.572 -41.299  1.00 16.60 LIG-0.02  C 
ATOM      8  CD1 LEU B 341      27.168   8.071 -40.289  1.00 17.44 LIG 0.01  C 
ATOM      9  CD2 LEU B 341      29.606   7.953 -40.915  1.00 18.85 LIG 0.01  C 
ENDBRANCH 6 7
ENDBRANCH 5 6
BRANCH 5 10
ATOM     10  N   LEU B 341      27.003   4.216 -42.619  1.00 16.77 LIG-0.35  N 
ATOM     11  C   PRO B 340      26.041   3.492 -42.057  1.00 19.25 LIG 0.24  C 
ATOM     12 O    PRO B 340      25.040   3.968 -41.512  1.00 21.28 LIG-0.27  OA
ATOM     13 H    LEU B 341      27.667   3.887 -43.055  1.00 16.77 LIG 0.16  HD
BRANCH 11 14
ATOM     14  CA  PRO B 340      26.221   1.996 -42.188  1.00 21.04 LIG 0.18  C 
ATOM     15  N   PRO B 340      26.802   1.346 -40.989  1.00 20.95 LIG-0.34  N 
ATOM     16  CD  PRO B 340      25.964   0.236 -40.504  1.00 22.76 LIG 0.13  C 
ATOM     17  C   PHE B 339      28.031   1.675 -40.596  1.00 19.72 LIG 0.26  C 
ATOM     18  CG  PRO B 340      25.023   0.039 -41.674  1.00 24.91 LIG 0.02  C 
ATOM     19  CB  PRO B 340      24.846   1.365 -42.286  1.00 23.27 LIG 0.04  C 
ATOM     20 O    PHE B 339      28.655   2.591 -41.151  1.00 19.38 LIG-0.27  OA
BRANCH 17 21
ATOM     21  CA  PHE B 339      28.644   0.876 -39.447  1.00 21.94 LIG 0.40  C 
ATOM     22  N   PHE B 339      30.088   0.768 -39.584  1.00 23.90 LIG 0.61  N 
BRANCH 21 23
ATOM     23  CB  PHE B 339      28.309   1.533 -38.114  1.00 24.29 LIG 0.09  C 
BRANCH 23 24
ATOM     24  CG  PHE B 339      26.902   1.292 -37.650  1.00 28.97 LIG-0.06  A 
ATOM     25  CD1 PHE B 339      26.389  -0.001 -37.572  1.00 31.92 LIG 0.01  A 
ATOM     26  CE1 PHE B 339      25.088  -0.228 -37.141  1.00 33.96 LIG 0.00  A 
ATOM     27  CZ  PHE B 339      24.290   0.848 -36.766  1.00 35.90 LIG 0.00  A 
ATOM     28  CE2 PHE B 339      24.794   2.148 -36.831  1.00 35.56 LIG 0.00  A 
ATOM     29  CD2 PHE B 339      26.098   2.360 -37.272  1.00 33.37 LIG 0.01  A 
ENDBRANCH 23 24
ENDBRANCH 21 23
ENDBRANCH 17 21
ENDBRANCH 11 14
ENDBRANCH 5 10
ENDBRANCH 1 5
BRANCH 3 30
ATOM     30  CA  ASP B 342      27.196   8.378 -45.163  1.00 16.21 LIG 0.19  C 
BRANCH 30 31
ATOM     31  CB  ASP B 342      26.639   9.775 -44.972  1.00 18.68 LIG 0.15  C 
BRANCH 31 32
ATOM     32  CG  ASP B 342      27.363  10.580 -43.956  1.00 22.92 LIG 0.17  C 
ATOM     33 OD1  ASP B 342      27.627  10.097 -42.824  1.00 25.81 LIG-0.65  OA
ATOM     34 OD2  ASP B 342      27.665  11.730 -44.328  1.00 25.94 LIG-0.65  OA
ENDBRANCH 31 32
ENDBRANCH 30 31
BRANCH 30 35
ATOM     35  C   ASP B 342      28.721   8.537 -45.231  1.00 16.03 LIG 0.24  C 
ATOM     36  N   LEU B 343      29.365   8.446 -44.061  1.00 16.72 LIG-0.35  N 
ATOM     37 H    LEU B 343      28.973   8.521 -43.299  1.00 16.72 LIG 0.16  HD
ATOM     38 O    ASP B 342      29.291   8.631 -46.314  1.00 14.87 LIG-0.27  OA
BRANCH 36 39
ATOM     39  CA  LEU B 343      30.811   8.208 -43.963  1.00 16.14 LIG 0.18  C 
BRANCH 39 40
ATOM     40  CB  LEU B 343      31.282   7.164 -44.968  1.00 19.18 LIG 0.04  C 
BRANCH 40 41
ATOM     41  CG  LEU B 343      31.678   5.812 -44.344  1.00 20.67 LIG-0.02  C 
ATOM     42  CD1 LEU B 343      30.782   5.545 -43.120  1.00 23.87 LIG 0.01  C 
ATOM     43  CD2 LEU B 343      31.544   4.691 -45.362  1.00 22.92 LIG 0.01  C 
ENDBRANCH 40 41
ENDBRANCH 39 40
BRANCH 39 44
ATOM     44  C   LEU B 343      31.574   9.515 -44.211  1.00 14.33 LIG 0.24  C 
ATOM     45 O    LEU B 343      31.069  10.445 -44.866  1.00 16.10 LIG-0.27  OA
ATOM     46  N   ALA B 344      32.784   9.582 -43.705  1.00 14.89 LIG-0.34  N 
ATOM     47 H    ALA B 344      33.133   8.985 -43.194  1.00 14.89 LIG 0.16  HD
BRANCH 46 48
ATOM     48  CA  ALA B 344      33.654  10.736 -43.995  1.00 15.57 LIG 0.18  C 
ATOM     49  CB  ALA B 344      33.483  11.801 -42.954  1.00 18.12 LIG 0.04  C 
BRANCH 48 50
ATOM     50  C   ALA B 344      35.111  10.288 -44.013  1.00 15.03 LIG 0.20  C 
ATOM     51 OXT  ALA B 344      36.033  11.115 -43.947  1.00 16.10 LIG-0.65  OA
ATOM     52 O    ALA B 344      35.321   9.046 -44.020  1.00 15.80 LIG-0.65  OA
ENDBRANCH 48 50
ENDBRANCH 46 48
ENDBRANCH 39 44
ENDBRANCH 36 39
ENDBRANCH 30 35
ENDBRANCH 3 30
TORSDOF 18
ENDMDL
