MODEL 1
USER: ADFR SOLUTION from run 57
USER: SCORE 22.040070 LL:  -4.671 LR: -19.885 RR:   0.000 FEB: -12.130
USER: RMSD 0.792194
USER: SEED 56
USER: STATUS 1 or 2 clusters left
USER: GENES 28
USER: genes 0 Translation |==|  0.58506 0.63058 0.55347
USER: genes 1 Rotation |==|  0.48973 0.48842 0.49827 0.99976
USER: genes 2 Torsion [CB]-CA--N-[C] |==|  0.22642
USER: genes 3 Torsion [N]-C--CA-[N] |==|  0.42401
USER: genes 4 Torsion [C]-CA--N-[C] |==|  0.63714
USER: genes 5 Torsion [N]-C--CA-[N] |==|  0.43845
USER: genes 6 Torsion [C]-CA--N-[C] |==|  0.63717
USER: genes 7 Torsion [N]-C--CA-[N] |==|  0.42064
USER: genes 8 Torsion [C]-CA--CB-[CG] |==|  0.26152
USER: genes 9 Torsion [CA]-CB--CG-[CD] |==|  0.26131
USER: genes 10 Torsion [CB]-CG--CD-[OE1] |==|  0.92735
USER: genes 11 Torsion [C]-CA--N-[C] |==|  0.69928
USER: genes 12 Torsion [C]-CA--CB-[CG] |==|  0.50869
USER: genes 13 Torsion [CA]-CB--CG-[CD] |==|  0.39366
USER: genes 14 Torsion [CB]-CG--CD-[OE1] |==|  0.75463
USER: genes 15 Torsion [N]-CA--C-[N] |==|  0.33825
USER: genes 16 Torsion [C]-N--CA-[CB] |==|  0.45556
USER: genes 17 Torsion [N]-CA--CB-[CG] |==|  0.55405
USER: genes 18 Torsion [CA]-CB--CG-[CD] |==|  0.41199
USER: genes 19 Torsion [CB]-CG--CD-[NE] |==|  0.68531
USER: genes 20 Torsion [CG]-CD--NE-[HE] |==|  0.28482
USER: genes 21 Torsion [N]-CA--C-[N] |==|  0.43603
USER: genes 22 Torsion [C]-N--CA-[CB] |==|  0.27905
USER: genes 23 Torsion [N]-CA--CB-[CG] |==|  0.72478
USER: genes 24 Torsion [CA]-CB--CG-[CD1] |==|  0.90711
USER: genes 25 Torsion [N]-CA--C-[OXT] |==|  0.94433
USER: genes 26 Torsion [N]-CA--CB-[OG1] |==|  0.80850
USER: genes 27 Torsion [CA]-CB--OG1-[HG1] |==|  0.18711
ROOT
ATOM      1  CA  THR B 990       2.453  -8.514 -21.071  1.00 21.72 LIG 0.20  C 
ENDROOT
BRANCH 1 2
ATOM      2  N   THR B 990       1.406  -9.163 -21.855  1.00 18.80 LIG-0.34  N 
ATOM      3  C   GLN B 989       0.714  -8.515 -22.789  1.00 20.29 LIG 0.24  C 
ATOM      4 O    GLN B 989       0.927  -7.335 -23.089  1.00 25.34 LIG-0.27  OA
ATOM      5 H    THR B 990       1.282  -9.991 -21.659  1.00 18.80 LIG 0.16  HD
BRANCH 3 6
ATOM      6  CA  GLN B 989      -0.369  -9.304 -23.515  1.00 20.93 LIG 0.18  C 
BRANCH 6 7
ATOM      7  N   GLN B 989      -1.397  -8.374 -23.968  1.00 21.51 LIG-0.35  N 
ATOM      8  C   ALA B 988      -2.702  -8.553 -23.760  1.00 19.82 LIG 0.24  C 
ATOM      9 O    ALA B 988      -3.171  -9.528 -23.167  1.00 21.07 LIG-0.27  OA
ATOM     10 H    GLN B 989      -1.081  -7.692 -24.386  1.00 21.51 LIG 0.16  HD
BRANCH 8 11
ATOM     11  CA  ALA B 988      -3.606  -7.463 -24.316  1.00 22.60 LIG 0.17  C 
ATOM     12  CB  ALA B 988      -3.616  -6.250 -23.382  1.00 24.03 LIG 0.04  C 
BRANCH 11 13
ATOM     13  N   ALA B 988      -4.937  -8.010 -24.493  1.00 21.45 LIG-0.35  N 
ATOM     14  C   GLU B 987      -5.630  -7.878 -25.617  1.00 22.73 LIG 0.24  C 
ATOM     15 O    GLU B 987      -5.302  -7.124 -26.537  1.00 25.22 LIG-0.27  OA
ATOM     16 H    ALA B 988      -5.235  -8.427 -23.803  1.00 21.45 LIG 0.16  HD
BRANCH 14 17
ATOM     17  CA  GLU B 987      -6.885  -8.722 -25.711  1.00 20.66 LIG 0.18  C 
BRANCH 17 18
ATOM     18  CB  GLU B 987      -6.516 -10.100 -26.248  1.00 22.09 LIG 0.04  C 
BRANCH 18 19
ATOM     19  CG  GLU B 987      -6.254 -11.151 -25.191  1.00 27.98 LIG 0.12  C 
BRANCH 19 20
ATOM     20  CD  GLU B 987      -7.497 -11.963 -24.890  1.00 24.84 LIG 0.17  C 
ATOM     21 OE1  GLU B 987      -8.613 -11.437 -25.091  1.00 22.19 LIG-0.65  OA
ATOM     22 OE2  GLU B 987      -7.367 -13.136 -24.483  1.00 23.04 LIG-0.65  OA
ENDBRANCH 19 20
ENDBRANCH 18 19
ENDBRANCH 17 18
BRANCH 17 23
ATOM     23  N   GLU B 987      -7.871  -8.066 -26.564  1.00 23.24 LIG-0.35  N 
ATOM     24 H    GLU B 987      -7.671  -8.073 -27.400  1.00 23.24 LIG 0.16  HD
ATOM     25  C   ACE B 986      -8.978  -7.511 -26.075  1.00 26.84 LIG 0.21  C 
ATOM     26  CH3 ACE B 986      -9.871  -6.876 -27.102  1.00 28.09 LIG 0.12  C 
ATOM     27 O    ACE B 986      -9.265  -7.515 -24.879  1.00 26.08 LIG-0.27  OA
ENDBRANCH 17 23
ENDBRANCH 14 17
ENDBRANCH 11 13
ENDBRANCH 8 11
ENDBRANCH 6 7
BRANCH 6 28
ATOM     28  CB  GLN B 989       0.241 -10.064 -24.698  1.00 26.69 LIG 0.04  C 
BRANCH 28 29
ATOM     29  CG  GLN B 989      -0.767 -10.830 -25.542  1.00 35.87 LIG 0.10  C 
BRANCH 29 30
ATOM     30  CD  GLN B 989      -0.448 -10.771 -27.022  1.00 52.60 LIG 0.21  C 
ATOM     31  NE2 GLN B 989       0.314 -11.746 -27.509  1.00 32.18 LIG-0.37  N 
ATOM     32 21HE GLN B 989       0.597 -12.371 -26.989  1.00 32.18 LIG 0.16  HD
ATOM     33 22HE GLN B 989       0.524 -11.752 -28.343  1.00 32.18 LIG 0.16  HD
ATOM     34 OE1  GLN B 989      -0.879  -9.854 -27.719  1.00 38.19 LIG-0.27  OA
ENDBRANCH 29 30
ENDBRANCH 28 29
ENDBRANCH 6 28
ENDBRANCH 3 6
ENDBRANCH 1 2
BRANCH 1 35
ATOM     35  C   THR B 990       3.420  -9.564 -20.539  1.00 20.40 LIG 0.24  C 
ATOM     36  N   ARG B 991       4.700  -9.429 -20.887  1.00 18.25 LIG-0.35  N 
ATOM     37 H    ARG B 991       4.985  -8.834 -21.438  1.00 18.25 LIG 0.16  HD
ATOM     38 O    THR B 990       3.007 -10.482 -19.824  1.00 21.77 LIG-0.27  OA
BRANCH 36 39
ATOM     39  CA  ARG B 991       5.743 -10.296 -20.351  1.00 18.44 LIG 0.18  C 
BRANCH 39 40
ATOM     40  CB  ARG B 991       7.025 -10.204 -21.179  1.00 17.17 LIG 0.04  C 
BRANCH 40 41
ATOM     41  CG  ARG B 991       7.942 -11.387 -20.966  1.00 18.12 LIG 0.02  C 
BRANCH 41 42
ATOM     42  CD  ARG B 991       8.732 -11.717 -22.204  1.00 20.13 LIG 0.14  C 
BRANCH 42 43
ATOM     43  NE  ARG B 991       8.352 -13.011 -22.770  1.00 19.75 LIG-0.23  N 
ATOM     44 HE   ARG B 991       7.844 -13.015 -23.463  1.00 19.75 LIG 0.18  HD
ATOM     45  CZ  ARG B 991       8.746 -14.184 -22.277  1.00 21.42 LIG 0.67  C 
ATOM     46  NH2 ARG B 991       8.359 -15.310 -22.854  1.00 25.04 LIG-0.23  N 
ATOM     47  NH1 ARG B 991       9.520 -14.240 -21.203  1.00 21.33 LIG-0.23  N 
ATOM     48 2HH2 ARG B 991       8.614 -16.067 -22.535  1.00 25.04 LIG 0.17  HD
ATOM     49 1HH2 ARG B 991       7.852 -15.285 -23.548  1.00 25.04 LIG 0.17  HD
ATOM     50 2HH1 ARG B 991       9.770 -15.002 -20.892  1.00 21.33 LIG 0.17  HD
ATOM     51 1HH1 ARG B 991       9.773 -13.514 -20.818  1.00 21.33 LIG 0.17  HD
ENDBRANCH 42 43
ENDBRANCH 41 42
ENDBRANCH 40 41
ENDBRANCH 39 40
BRANCH 39 52
ATOM     52  C   ARG B 991       6.020  -9.905 -18.906  1.00 19.80 LIG 0.24  C 
ATOM     53  N   LEU B 992       6.564 -10.845 -18.138  1.00 20.89 LIG-0.34  N 
ATOM     54 H    LEU B 992       6.800 -11.620 -18.427  1.00 20.89 LIG 0.16  HD
ATOM     55 O    ARG B 991       5.744  -8.770 -18.498  1.00 18.76 LIG-0.27  OA
BRANCH 53 56
ATOM     56  CA  LEU B 992       6.810 -10.637 -16.716  1.00 21.42 LIG 0.18  C 
BRANCH 56 57
ATOM     57  CB  LEU B 992       5.707 -11.306 -15.891  1.00 24.29 LIG 0.04  C 
BRANCH 57 58
ATOM     58  CG  LEU B 992       4.627 -10.319 -15.424  1.00 26.83 LIG-0.02  C 
ATOM     59  CD1 LEU B 992       5.190  -8.937 -15.137  1.00 69.60 LIG 0.01  C 
ATOM     60  CD2 LEU B 992       3.498 -10.256 -16.441  1.00 26.77 LIG 0.01  C 
ENDBRANCH 57 58
ENDBRANCH 56 57
BRANCH 56 61
ATOM     61  C   LEU B 992       8.183 -11.169 -16.309  1.00 23.41 LIG 0.20  C 
ATOM     62 OXT  LEU B 992       8.789 -12.003 -16.994  1.00 23.28 LIG-0.65  OA
ATOM     63 O    LEU B 992       8.715 -10.762 -15.274  1.00 25.47 LIG-0.65  OA
ENDBRANCH 56 61
ENDBRANCH 53 56
ENDBRANCH 39 52
ENDBRANCH 36 39
ENDBRANCH 1 35
BRANCH 1 64
ATOM     64  CB  THR B 990       1.857  -7.708 -19.902  1.00 25.20 LIG 0.15  C 
ATOM     65  CG2 THR B 990       2.949  -7.236 -18.957  1.00 22.41 LIG 0.04  C 
BRANCH 64 66
ATOM     66 OG1  THR B 990       1.143  -6.566 -20.400  1.00 22.69 LIG-0.39  OA
ATOM     67 HG1  THR B 990       0.462  -6.823 -20.820  1.00 22.69 LIG 0.21  HD
ENDBRANCH 64 66
ENDBRANCH 1 64
TORSDOF 26
ENDMDL
MODEL 2
USER: ADFR SOLUTION from run 96
USER: SCORE 20.808214 LL:  -5.467 LR: -18.765 RR:   0.000 FEB: -11.010
USER: RMSD 4.694287
USER: SEED 95
USER: STATUS 1 or 2 clusters left
USER: GENES 28
USER: genes 0 Translation |==|  0.57705 0.64094 0.55445
USER: genes 1 Rotation |==|  0.47886 0.49329 0.47213 0.99873
USER: genes 2 Torsion [CB]-CA--N-[C] |==|  0.25762
USER: genes 3 Torsion [N]-C--CA-[N] |==|  0.34112
USER: genes 4 Torsion [C]-CA--N-[C] |==|  0.56923
USER: genes 5 Torsion [N]-C--CA-[N] |==|  0.02487
USER: genes 6 Torsion [C]-CA--N-[C] |==|  0.67164
USER: genes 7 Torsion [N]-C--CA-[N] |==|  0.81321
USER: genes 8 Torsion [C]-CA--CB-[CG] |==|  0.71402
USER: genes 9 Torsion [CA]-CB--CG-[CD] |==|  0.47375
USER: genes 10 Torsion [CB]-CG--CD-[OE1] |==|  0.35924
USER: genes 11 Torsion [C]-CA--N-[C] |==|  0.63056
USER: genes 12 Torsion [C]-CA--CB-[CG] |==|  0.26444
USER: genes 13 Torsion [CA]-CB--CG-[CD] |==|  0.66926
USER: genes 14 Torsion [CB]-CG--CD-[OE1] |==|  0.13181
USER: genes 15 Torsion [N]-CA--C-[N] |==|  0.31847
USER: genes 16 Torsion [C]-N--CA-[CB] |==|  0.45556
USER: genes 17 Torsion [N]-CA--CB-[CG] |==|  0.33925
USER: genes 18 Torsion [CA]-CB--CG-[CD] |==|  0.25636
USER: genes 19 Torsion [CB]-CG--CD-[NE] |==|  0.07241
USER: genes 20 Torsion [CG]-CD--NE-[HE] |==|  0.88201
USER: genes 21 Torsion [N]-CA--C-[N] |==|  0.39630
USER: genes 22 Torsion [C]-N--CA-[CB] |==|  0.27337
USER: genes 23 Torsion [N]-CA--CB-[CG] |==|  0.84459
USER: genes 24 Torsion [CA]-CB--CG-[CD1] |==|  0.36169
USER: genes 25 Torsion [N]-CA--C-[OXT] |==|  0.41375
USER: genes 26 Torsion [N]-CA--CB-[OG1] |==|  0.84929
USER: genes 27 Torsion [CA]-CB--OG1-[HG1] |==|  0.18211
ROOT
ATOM      1  CA  THR B 990       2.231  -8.327 -21.050  1.00 21.72 LIG 0.20  C 
ENDROOT
BRANCH 1 2
ATOM      2  N   THR B 990       1.106  -8.892 -21.790  1.00 18.80 LIG-0.34  N 
ATOM      3  C   GLN B 989       0.608  -8.311 -22.878  1.00 20.29 LIG 0.24  C 
ATOM      4 O    GLN B 989       1.079  -7.276 -23.364  1.00 25.34 LIG-0.27  OA
ATOM      5 H    THR B 990       0.801  -9.626 -21.460  1.00 18.80 LIG 0.16  HD
BRANCH 3 6
ATOM      6  CA  GLN B 989      -0.583  -8.992 -23.539  1.00 20.93 LIG 0.18  C 
BRANCH 6 7
ATOM      7  N   GLN B 989      -1.689  -8.042 -23.600  1.00 21.51 LIG-0.35  N 
ATOM      8  C   ALA B 988      -2.972  -8.399 -23.658  1.00 19.82 LIG 0.24  C 
ATOM      9 O    ALA B 988      -3.353  -9.572 -23.673  1.00 21.07 LIG-0.27  OA
ATOM     10 H    GLN B 989      -1.433  -7.220 -23.593  1.00 21.51 LIG 0.16  HD
BRANCH 8 11
ATOM     11  CA  ALA B 988      -3.966  -7.250 -23.716  1.00 22.60 LIG 0.17  C 
ATOM     12  CB  ALA B 988      -4.982  -7.479 -24.839  1.00 24.03 LIG 0.04  C 
BRANCH 11 13
ATOM     13  N   ALA B 988      -3.234  -6.012 -23.905  1.00 21.45 LIG-0.35  N 
ATOM     14  C   GLU B 987      -3.253  -5.019 -23.026  1.00 22.73 LIG 0.24  C 
ATOM     15 O    GLU B 987      -4.033  -4.966 -22.072  1.00 25.22 LIG-0.27  OA
ATOM     16 H    ALA B 988      -2.788  -5.982 -24.639  1.00 21.45 LIG 0.16  HD
BRANCH 14 17
ATOM     17  CA  GLU B 987      -2.239  -3.919 -23.264  1.00 20.66 LIG 0.18  C 
BRANCH 17 18
ATOM     18  CB  GLU B 987      -2.418  -3.377 -24.678  1.00 22.09 LIG 0.04  C 
BRANCH 18 19
ATOM     19  CG  GLU B 987      -1.392  -3.854 -25.683  1.00 27.98 LIG 0.12  C 
BRANCH 19 20
ATOM     20  CD  GLU B 987      -1.769  -3.461 -27.097  1.00 24.84 LIG 0.17  C 
ATOM     21 OE1  GLU B 987      -0.914  -2.884 -27.801  1.00 22.19 LIG-0.65  OA
ATOM     22 OE2  GLU B 987      -2.907  -3.752 -27.519  1.00 23.04 LIG-0.65  OA
ENDBRANCH 19 20
ENDBRANCH 18 19
ENDBRANCH 17 18
BRANCH 17 23
ATOM     23  N   GLU B 987      -0.886  -4.425 -23.057  1.00 23.24 LIG-0.35  N 
ATOM     24 H    GLU B 987      -0.731  -5.178 -23.444  1.00 23.24 LIG 0.16  HD
ATOM     25  C   ACE B 986       0.017  -3.769 -22.331  1.00 26.84 LIG 0.21  C 
ATOM     26  CH3 ACE B 986       1.352  -4.447 -22.223  1.00 28.09 LIG 0.12  C 
ATOM     27 O    ACE B 986      -0.208  -2.687 -21.790  1.00 26.08 LIG-0.27  OA
ENDBRANCH 17 23
ENDBRANCH 14 17
ENDBRANCH 11 13
ENDBRANCH 8 11
ENDBRANCH 6 7
BRANCH 6 28
ATOM     28  CB  GLN B 989      -0.199  -9.474 -24.942  1.00 26.69 LIG 0.04  C 
BRANCH 28 29
ATOM     29  CG  GLN B 989       0.245 -10.928 -25.010  1.00 35.87 LIG 0.10  C 
BRANCH 29 30
ATOM     30  CD  GLN B 989       1.668 -11.077 -25.507  1.00 52.60 LIG 0.21  C 
ATOM     31  NE2 GLN B 989       1.879 -11.989 -26.452  1.00 32.18 LIG-0.37  N 
ATOM     32 21HE GLN B 989       1.222 -12.456 -26.753  1.00 32.18 LIG 0.16  HD
ATOM     33 22HE GLN B 989       2.672 -12.111 -26.762  1.00 32.18 LIG 0.16  HD
ATOM     34 OE1  GLN B 989       2.570 -10.383 -25.041  1.00 38.19 LIG-0.27  OA
ENDBRANCH 29 30
ENDBRANCH 28 29
ENDBRANCH 6 28
ENDBRANCH 3 6
ENDBRANCH 1 2
BRANCH 1 35
ATOM     35  C   THR B 990       3.091  -9.452 -20.489  1.00 20.40 LIG 0.24  C 
ATOM     36  N   ARG B 991       4.330  -9.555 -20.973  1.00 18.25 LIG-0.35  N 
ATOM     37 H    ARG B 991       4.632  -9.074 -21.618  1.00 18.25 LIG 0.16  HD
ATOM     38 O    THR B 990       2.636 -10.213 -19.630  1.00 21.77 LIG-0.27  OA
BRANCH 36 39
ATOM     39  CA  ARG B 991       5.292 -10.511 -20.438  1.00 18.44 LIG 0.18  C 
BRANCH 39 40
ATOM     40  CB  ARG B 991       6.472 -10.709 -21.392  1.00 17.17 LIG 0.04  C 
BRANCH 40 41
ATOM     41  CG  ARG B 991       7.801 -10.388 -20.748  1.00 18.12 LIG 0.02  C 
BRANCH 41 42
ATOM     42  CD  ARG B 991       8.440 -11.606 -20.137  1.00 20.13 LIG 0.14  C 
BRANCH 42 43
ATOM     43  NE  ARG B 991       8.003 -12.840 -20.788  1.00 19.75 LIG-0.23  N 
ATOM     44 HE   ARG B 991       7.170 -12.921 -20.983  1.00 19.75 LIG 0.18  HD
ATOM     45  CZ  ARG B 991       8.818 -13.847 -21.099  1.00 21.42 LIG 0.67  C 
ATOM     46  NH2 ARG B 991       8.340 -14.929 -21.692  1.00 25.04 LIG-0.23  N 
ATOM     47  NH1 ARG B 991      10.110 -13.783 -20.813  1.00 21.33 LIG-0.23  N 
ATOM     48 2HH2 ARG B 991       8.868 -15.578 -21.892  1.00 25.04 LIG 0.17  HD
ATOM     49 1HH2 ARG B 991       7.502 -14.982 -21.878  1.00 25.04 LIG 0.17  HD
ATOM     50 2HH1 ARG B 991      10.629 -14.438 -21.017  1.00 21.33 LIG 0.17  HD
ATOM     51 1HH1 ARG B 991      10.430 -13.086 -20.423  1.00 21.33 LIG 0.17  HD
ENDBRANCH 42 43
ENDBRANCH 41 42
ENDBRANCH 40 41
ENDBRANCH 39 40
BRANCH 39 52
ATOM     52  C   ARG B 991       5.786 -10.016 -19.086  1.00 19.80 LIG 0.24  C 
ATOM     53  N   LEU B 992       5.995 -10.949 -18.161  1.00 20.89 LIG-0.34  N 
ATOM     54 H    LEU B 992       5.911 -11.792 -18.306  1.00 20.89 LIG 0.16  HD
ATOM     55 O    ARG B 991       5.972  -8.809 -18.888  1.00 18.76 LIG-0.27  OA
BRANCH 53 56
ATOM     56  CA  LEU B 992       6.391 -10.613 -16.799  1.00 21.42 LIG 0.18  C 
BRANCH 56 57
ATOM     57  CB  LEU B 992       5.166 -10.626 -15.879  1.00 24.29 LIG 0.04  C 
BRANCH 57 58
ATOM     58  CG  LEU B 992       4.047  -9.692 -16.362  1.00 26.83 LIG-0.02  C 
ATOM     59  CD1 LEU B 992       2.694 -10.382 -16.407  1.00 69.60 LIG 0.01  C 
ATOM     60  CD2 LEU B 992       4.000  -8.438 -15.504  1.00 26.77 LIG 0.01  C 
ENDBRANCH 57 58
ENDBRANCH 56 57
BRANCH 56 61
ATOM     61  C   LEU B 992       7.461 -11.573 -16.281  1.00 23.41 LIG 0.20  C 
ATOM     62 OXT  LEU B 992       8.323 -11.213 -15.469  1.00 23.28 LIG-0.65  OA
ATOM     63 O    LEU B 992       7.476 -12.742 -16.672  1.00 25.47 LIG-0.65  OA
ENDBRANCH 56 61
ENDBRANCH 53 56
ENDBRANCH 39 52
ENDBRANCH 36 39
ENDBRANCH 1 35
BRANCH 1 64
ATOM     64  CB  THR B 990       1.746  -7.417 -19.906  1.00 25.20 LIG 0.15  C 
ATOM     65  CG2 THR B 990       2.919  -6.739 -19.219  1.00 22.41 LIG 0.04  C 
BRANCH 64 66
ATOM     66 OG1  THR B 990       0.857  -6.411 -20.417  1.00 22.69 LIG-0.39  OA
ATOM     67 HG1  THR B 990       0.157  -6.776 -20.707  1.00 22.69 LIG 0.21  HD
ENDBRANCH 64 66
ENDBRANCH 1 64
TORSDOF 26
ENDMDL
MODEL 3
USER: ADFR SOLUTION from run 58
USER: SCORE 18.093310 LL:  -4.281 LR: -18.624 RR:   0.000 FEB: -10.869
USER: RMSD 2.481947
USER: SEED 57
USER: STATUS no improvement in best in 1 clusters for 5 generations
USER: GENES 28
USER: genes 0 Translation |==|  0.59629 0.62482 0.52465
USER: genes 1 Rotation |==|  0.47064 0.51339 0.47719 0.99844
USER: genes 2 Torsion [CB]-CA--N-[C] |==|  0.24392
USER: genes 3 Torsion [N]-C--CA-[N] |==|  0.39032
USER: genes 4 Torsion [C]-CA--N-[C] |==|  0.64612
USER: genes 5 Torsion [N]-C--CA-[N] |==|  0.25934
USER: genes 6 Torsion [C]-CA--N-[C] |==|  0.15046
USER: genes 7 Torsion [N]-C--CA-[N] |==|  0.61059
USER: genes 8 Torsion [C]-CA--CB-[CG] |==|  0.25043
USER: genes 9 Torsion [CA]-CB--CG-[CD] |==|  0.49753
USER: genes 10 Torsion [CB]-CG--CD-[OE1] |==|  0.47718
USER: genes 11 Torsion [C]-CA--N-[C] |==|  0.17868
USER: genes 12 Torsion [C]-CA--CB-[CG] |==|  0.64912
USER: genes 13 Torsion [CA]-CB--CG-[CD] |==|  0.52304
USER: genes 14 Torsion [CB]-CG--CD-[OE1] |==|  0.57976
USER: genes 15 Torsion [N]-CA--C-[N] |==|  0.36289
USER: genes 16 Torsion [C]-N--CA-[CB] |==|  0.40996
USER: genes 17 Torsion [N]-CA--CB-[CG] |==|  0.40318
USER: genes 18 Torsion [CA]-CB--CG-[CD] |==|  0.17455
USER: genes 19 Torsion [CB]-CG--CD-[NE] |==|  0.13591
USER: genes 20 Torsion [CG]-CD--NE-[HE] |==|  0.78274
USER: genes 21 Torsion [N]-CA--C-[N] |==|  0.36200
USER: genes 22 Torsion [C]-N--CA-[CB] |==|  0.24027
USER: genes 23 Torsion [N]-CA--CB-[CG] |==|  0.15910
USER: genes 24 Torsion [CA]-CB--CG-[CD1] |==|  0.41312
USER: genes 25 Torsion [N]-CA--C-[OXT] |==|  0.96005
USER: genes 26 Torsion [N]-CA--CB-[OG1] |==|  0.50180
USER: genes 27 Torsion [CA]-CB--OG1-[HG1] |==|  0.06288
ROOT
ATOM      1  CA  THR B 990       2.765  -8.617 -21.698  1.00 21.72 LIG 0.20  C 
ENDROOT
BRANCH 1 2
ATOM      2  N   THR B 990       1.592  -9.221 -22.326  1.00 18.80 LIG-0.34  N 
ATOM      3  C   GLN B 989       0.939  -8.631 -23.324  1.00 20.29 LIG 0.24  C 
ATOM      4 O    GLN B 989       1.292  -7.554 -23.817  1.00 25.34 LIG-0.27  OA
ATOM      5 H    THR B 990       1.369  -9.982 -21.995  1.00 18.80 LIG 0.16  HD
BRANCH 3 6
ATOM      6  CA  GLN B 989      -0.283  -9.358 -23.871  1.00 20.93 LIG 0.18  C 
BRANCH 6 7
ATOM      7  N   GLN B 989      -1.320  -8.372 -24.159  1.00 21.51 LIG-0.35  N 
ATOM      8  C   ALA B 988      -2.568  -8.452 -23.698  1.00 19.82 LIG 0.24  C 
ATOM      9 O    ALA B 988      -2.974  -9.373 -22.984  1.00 21.07 LIG-0.27  OA
ATOM     10 H    GLN B 989      -1.048  -7.727 -24.659  1.00 21.51 LIG 0.16  HD
BRANCH 8 11
ATOM     11  CA  ALA B 988      -3.492  -7.319 -24.118  1.00 22.60 LIG 0.17  C 
ATOM     12  CB  ALA B 988      -4.461  -6.972 -22.984  1.00 24.03 LIG 0.04  C 
BRANCH 11 13
ATOM     13  N   ALA B 988      -4.200  -7.719 -25.319  1.00 21.45 LIG-0.35  N 
ATOM     14  C   GLU B 987      -4.902  -8.841 -25.404  1.00 22.73 LIG 0.24  C 
ATOM     15 O    GLU B 987      -4.865  -9.737 -24.557  1.00 25.22 LIG-0.27  OA
ATOM     16 H    ALA B 988      -4.122  -7.162 -25.969  1.00 21.45 LIG 0.16  HD
BRANCH 14 17
ATOM     17  CA  GLU B 987      -5.775  -8.971 -26.637  1.00 20.66 LIG 0.18  C 
BRANCH 17 18
ATOM     18  CB  GLU B 987      -5.962  -7.592 -27.259  1.00 22.09 LIG 0.04  C 
BRANCH 18 19
ATOM     19  CG  GLU B 987      -4.926  -7.208 -28.293  1.00 27.98 LIG 0.12  C 
BRANCH 19 20
ATOM     20  CD  GLU B 987      -5.199  -5.835 -28.874  1.00 24.84 LIG 0.17  C 
ATOM     21 OE1  GLU B 987      -4.338  -5.326 -29.624  1.00 22.19 LIG-0.65  OA
ATOM     22 OE2  GLU B 987      -6.282  -5.274 -28.611  1.00 23.04 LIG-0.65  OA
ENDBRANCH 19 20
ENDBRANCH 18 19
ENDBRANCH 17 18
BRANCH 17 23
ATOM     23  N   GLU B 987      -7.056  -9.575 -26.287  1.00 23.24 LIG-0.35  N 
ATOM     24 H    GLU B 987      -7.194 -10.342 -26.651  1.00 23.24 LIG 0.16  HD
ATOM     25  C   ACE B 986      -7.926  -8.978 -25.474  1.00 26.84 LIG 0.21  C 
ATOM     26  CH3 ACE B 986      -9.194  -9.746 -25.235  1.00 28.09 LIG 0.12  C 
ATOM     27 O    ACE B 986      -7.719  -7.886 -24.947  1.00 26.08 LIG-0.27  OA
ENDBRANCH 17 23
ENDBRANCH 14 17
ENDBRANCH 11 13
ENDBRANCH 8 11
ENDBRANCH 6 7
BRANCH 6 28
ATOM     28  CB  GLN B 989       0.094 -10.140 -25.133  1.00 26.69 LIG 0.04  C 
BRANCH 28 29
ATOM     29  CG  GLN B 989      -0.774  -9.835 -26.346  1.00 35.87 LIG 0.10  C 
BRANCH 29 30
ATOM     30  CD  GLN B 989      -0.498 -10.770 -27.505  1.00 52.60 LIG 0.21  C 
ATOM     31  NE2 GLN B 989      -0.060 -11.989 -27.200  1.00 32.18 LIG-0.37  N 
ATOM     32 21HE GLN B 989       0.049 -12.213 -26.377  1.00 32.18 LIG 0.16  HD
ATOM     33 22HE GLN B 989       0.113 -12.553 -27.826  1.00 32.18 LIG 0.16  HD
ATOM     34 OE1  GLN B 989      -0.672 -10.398 -28.665  1.00 38.19 LIG-0.27  OA
ENDBRANCH 29 30
ENDBRANCH 28 29
ENDBRANCH 6 28
ENDBRANCH 3 6
ENDBRANCH 1 2
BRANCH 1 35
ATOM     35  C   THR B 990       3.688  -9.712 -21.179  1.00 20.40 LIG 0.24  C 
ATOM     36  N   ARG B 991       4.976  -9.614 -21.511  1.00 18.25 LIG-0.35  N 
ATOM     37 H    ARG B 991       5.288  -9.018 -22.046  1.00 18.25 LIG 0.16  HD
ATOM     38 O    THR B 990       3.236 -10.630 -20.489  1.00 21.77 LIG-0.27  OA
BRANCH 36 39
ATOM     39  CA  ARG B 991       5.982 -10.529 -20.983  1.00 18.44 LIG 0.18  C 
BRANCH 39 40
ATOM     40  CB  ARG B 991       7.102 -10.772 -21.997  1.00 17.17 LIG 0.04  C 
BRANCH 40 41
ATOM     41  CG  ARG B 991       8.453 -10.946 -21.341  1.00 18.12 LIG 0.02  C 
BRANCH 41 42
ATOM     42  CD  ARG B 991       8.494 -12.155 -20.447  1.00 20.13 LIG 0.14  C 
BRANCH 42 43
ATOM     43  NE  ARG B 991       7.969 -13.347 -21.110  1.00 19.75 LIG-0.23  N 
ATOM     44 HE   ARG B 991       7.116 -13.432 -21.172  1.00 19.75 LIG 0.18  HD
ATOM     45  CZ  ARG B 991       8.731 -14.311 -21.625  1.00 21.42 LIG 0.67  C 
ATOM     46  NH2 ARG B 991       8.173 -15.356 -22.213  1.00 25.04 LIG-0.23  N 
ATOM     47  NH1 ARG B 991      10.052 -14.239 -21.549  1.00 21.33 LIG-0.23  N 
ATOM     48 2HH2 ARG B 991       8.667 -15.977 -22.545  1.00 25.04 LIG 0.17  HD
ATOM     49 1HH2 ARG B 991       7.316 -15.414 -22.264  1.00 25.04 LIG 0.17  HD
ATOM     50 2HH1 ARG B 991      10.537 -14.866 -21.883  1.00 21.33 LIG 0.17  HD
ATOM     51 1HH1 ARG B 991      10.424 -13.566 -21.164  1.00 21.33 LIG 0.17  HD
ENDBRANCH 42 43
ENDBRANCH 41 42
ENDBRANCH 40 41
ENDBRANCH 39 40
BRANCH 39 52
ATOM     52  C   ARG B 991       6.553  -9.950 -19.696  1.00 19.80 LIG 0.24  C 
ATOM     53  N   LEU B 992       6.594 -10.773 -18.651  1.00 20.89 LIG-0.34  N 
ATOM     54 H    LEU B 992       6.364 -11.600 -18.686  1.00 20.89 LIG 0.16  HD
ATOM     55 O    ARG B 991       6.949  -8.779 -19.654  1.00 18.76 LIG-0.27  OA
BRANCH 53 56
ATOM     56  CA  LEU B 992       7.042 -10.331 -17.336  1.00 21.42 LIG 0.18  C 
BRANCH 56 57
ATOM     57  CB  LEU B 992       5.867  -9.729 -16.558  1.00 24.29 LIG 0.04  C 
BRANCH 57 58
ATOM     58  CG  LEU B 992       4.692 -10.706 -16.401  1.00 26.83 LIG-0.02  C 
ATOM     59  CD1 LEU B 992       3.924 -10.488 -15.109  1.00 69.60 LIG 0.01  C 
ATOM     60  CD2 LEU B 992       3.775 -10.625 -17.611  1.00 26.77 LIG 0.01  C 
ENDBRANCH 57 58
ENDBRANCH 56 57
BRANCH 56 61
ATOM     61  C   LEU B 992       7.672 -11.481 -16.551  1.00 23.41 LIG 0.20  C 
ATOM     62 OXT  LEU B 992       7.535 -12.660 -16.899  1.00 23.28 LIG-0.65  OA
ATOM     63 O    LEU B 992       8.341 -11.240 -15.544  1.00 25.47 LIG-0.65  OA
ENDBRANCH 56 61
ENDBRANCH 53 56
ENDBRANCH 39 52
ENDBRANCH 36 39
ENDBRANCH 1 35
BRANCH 1 64
ATOM     64  CB  THR B 990       2.360  -7.681 -20.544  1.00 25.20 LIG 0.15  C 
ATOM     65  CG2 THR B 990       1.595  -8.441 -19.474  1.00 22.41 LIG 0.04  C 
BRANCH 64 66
ATOM     66 OG1  THR B 990       3.528  -7.089 -19.953  1.00 22.69 LIG-0.39  OA
ATOM     67 HG1  THR B 990       4.160  -7.103 -20.507  1.00 22.69 LIG 0.21  HD
ENDBRANCH 64 66
ENDBRANCH 1 64
TORSDOF 26
ENDMDL
MODEL 4
USER: ADFR SOLUTION from run 164
USER: SCORE 19.620015 LL:  -4.853 LR: -18.337 RR:   0.000 FEB: -10.581
USER: RMSD 2.691572
USER: SEED 163
USER: STATUS 1 or 2 clusters left
USER: GENES 28
USER: genes 0 Translation |==|  0.58317 0.63466 0.55521
USER: genes 1 Rotation |==|  0.50070 0.47700 0.51343 0.99929
USER: genes 2 Torsion [CB]-CA--N-[C] |==|  0.21475
USER: genes 3 Torsion [N]-C--CA-[N] |==|  0.42564
USER: genes 4 Torsion [C]-CA--N-[C] |==|  0.64861
USER: genes 5 Torsion [N]-C--CA-[N] |==|  0.37901
USER: genes 6 Torsion [C]-CA--N-[C] |==|  0.73091
USER: genes 7 Torsion [N]-C--CA-[N] |==|  0.93453
USER: genes 8 Torsion [C]-CA--CB-[CG] |==|  0.90801
USER: genes 9 Torsion [CA]-CB--CG-[CD] |==|  0.70307
USER: genes 10 Torsion [CB]-CG--CD-[OE1] |==|  0.59737
USER: genes 11 Torsion [C]-CA--N-[C] |==|  0.62525
USER: genes 12 Torsion [C]-CA--CB-[CG] |==|  0.41448
USER: genes 13 Torsion [CA]-CB--CG-[CD] |==|  0.31992
USER: genes 14 Torsion [CB]-CG--CD-[OE1] |==|  0.84849
USER: genes 15 Torsion [N]-CA--C-[N] |==|  0.32028
USER: genes 16 Torsion [C]-N--CA-[CB] |==|  0.42198
USER: genes 17 Torsion [N]-CA--CB-[CG] |==|  0.57320
USER: genes 18 Torsion [CA]-CB--CG-[CD] |==|  0.48234
USER: genes 19 Torsion [CB]-CG--CD-[NE] |==|  0.65896
USER: genes 20 Torsion [CG]-CD--NE-[HE] |==|  0.26253
USER: genes 21 Torsion [N]-CA--C-[N] |==|  0.14572
USER: genes 22 Torsion [C]-N--CA-[CB] |==|  0.85360
USER: genes 23 Torsion [N]-CA--CB-[CG] |==|  0.78319
USER: genes 24 Torsion [CA]-CB--CG-[CD1] |==|  0.93788
USER: genes 25 Torsion [N]-CA--C-[OXT] |==|  0.51273
USER: genes 26 Torsion [N]-CA--CB-[OG1] |==|  0.80018
USER: genes 27 Torsion [CA]-CB--OG1-[HG1] |==|  0.18515
ROOT
ATOM      1  CA  THR B 990       2.401  -8.440 -21.033  1.00 21.72 LIG 0.20  C 
ENDROOT
BRANCH 1 2
ATOM      2  N   THR B 990       1.431  -9.118 -21.890  1.00 18.80 LIG-0.34  N 
ATOM      3  C   GLN B 989       0.682  -8.461 -22.771  1.00 20.29 LIG 0.24  C 
ATOM      4 O    GLN B 989       0.773  -7.242 -22.958  1.00 25.34 LIG-0.27  OA
ATOM      5 H    THR B 990       1.393  -9.969 -21.773  1.00 18.80 LIG 0.16  HD
BRANCH 3 6
ATOM      6  CA  GLN B 989      -0.308  -9.286 -23.584  1.00 20.93 LIG 0.18  C 
BRANCH 6 7
ATOM      7  N   GLN B 989      -1.418  -8.425 -23.978  1.00 21.51 LIG-0.35  N 
ATOM      8  C   ALA B 988      -2.699  -8.711 -23.742  1.00 19.82 LIG 0.24  C 
ATOM      9 O    ALA B 988      -3.073  -9.738 -23.170  1.00 21.07 LIG-0.27  OA
ATOM     10 H    GLN B 989      -1.168  -7.708 -24.381  1.00 21.51 LIG 0.16  HD
BRANCH 8 11
ATOM     11  CA  ALA B 988      -3.699  -7.679 -24.237  1.00 22.60 LIG 0.17  C 
ATOM     12  CB  ALA B 988      -4.177  -6.800 -23.077  1.00 24.03 LIG 0.04  C 
BRANCH 11 13
ATOM     13  N   ALA B 988      -4.805  -8.370 -24.870  1.00 21.45 LIG-0.35  N 
ATOM     14  C   GLU B 987      -4.888  -8.552 -26.182  1.00 22.73 LIG 0.24  C 
ATOM     15 O    GLU B 987      -4.151  -7.993 -26.998  1.00 25.22 LIG-0.27  OA
ATOM     16 H    ALA B 988      -5.401  -8.651 -24.318  1.00 21.45 LIG 0.16  HD
BRANCH 14 17
ATOM     17  CA  GLU B 987      -5.972  -9.508 -26.640  1.00 20.66 LIG 0.18  C 
BRANCH 17 18
ATOM     18  CB  GLU B 987      -7.183  -8.701 -27.094  1.00 22.09 LIG 0.04  C 
BRANCH 18 19
ATOM     19  CG  GLU B 987      -7.414  -7.409 -26.340  1.00 27.98 LIG 0.12  C 
BRANCH 19 20
ATOM     20  CD  GLU B 987      -8.599  -7.514 -25.402  1.00 24.84 LIG 0.17  C 
ATOM     21 OE1  GLU B 987      -9.314  -6.502 -25.234  1.00 22.19 LIG-0.65  OA
ATOM     22 OE2  GLU B 987      -8.840  -8.609 -24.855  1.00 23.04 LIG-0.65  OA
ENDBRANCH 19 20
ENDBRANCH 18 19
ENDBRANCH 17 18
BRANCH 17 23
ATOM     23  N   GLU B 987      -6.320 -10.429 -25.563  1.00 23.24 LIG-0.35  N 
ATOM     24 H    GLU B 987      -6.419 -10.051 -24.796  1.00 23.24 LIG 0.16  HD
ATOM     25  C   ACE B 986      -6.469 -11.737 -25.764  1.00 26.84 LIG 0.21  C 
ATOM     26  CH3 ACE B 986      -6.821 -12.528 -24.538  1.00 28.09 LIG 0.12  C 
ATOM     27 O    ACE B 986      -6.339 -12.270 -26.866  1.00 26.08 LIG-0.27  OA
ENDBRANCH 17 23
ENDBRANCH 14 17
ENDBRANCH 11 13
ENDBRANCH 8 11
ENDBRANCH 6 7
BRANCH 6 28
ATOM     28  CB  GLN B 989       0.389  -9.877 -24.814  1.00 26.69 LIG 0.04  C 
BRANCH 28 29
ATOM     29  CG  GLN B 989      -0.172 -11.216 -25.273  1.00 35.87 LIG 0.10  C 
BRANCH 29 30
ATOM     30  CD  GLN B 989      -0.809 -11.137 -26.646  1.00 52.60 LIG 0.21  C 
ATOM     31  NE2 GLN B 989      -0.360 -11.991 -27.563  1.00 32.18 LIG-0.37  N 
ATOM     32 21HE GLN B 989       0.259 -12.552 -27.361  1.00 32.18 LIG 0.16  HD
ATOM     33 22HE GLN B 989      -0.691 -11.980 -28.357  1.00 32.18 LIG 0.16  HD
ATOM     34 OE1  GLN B 989      -1.692 -10.314 -26.880  1.00 38.19 LIG-0.27  OA
ENDBRANCH 29 30
ENDBRANCH 28 29
ENDBRANCH 6 28
ENDBRANCH 3 6
ENDBRANCH 1 2
BRANCH 1 35
ATOM     35  C   THR B 990       3.408  -9.452 -20.501  1.00 20.40 LIG 0.24  C 
ATOM     36  N   ARG B 991       4.673  -9.298 -20.894  1.00 18.25 LIG-0.35  N 
ATOM     37 H    ARG B 991       4.926  -8.714 -21.472  1.00 18.25 LIG 0.16  HD
ATOM     38 O    THR B 990       3.040 -10.355 -19.745  1.00 21.77 LIG-0.27  OA
BRANCH 36 39
ATOM     39  CA  ARG B 991       5.752 -10.124 -20.365  1.00 18.44 LIG 0.18  C 
BRANCH 39 40
ATOM     40  CB  ARG B 991       6.891 -10.268 -21.377  1.00 17.17 LIG 0.04  C 
BRANCH 40 41
ATOM     41  CG  ARG B 991       7.682 -11.543 -21.185  1.00 18.12 LIG 0.02  C 
BRANCH 41 42
ATOM     42  CD  ARG B 991       8.697 -11.745 -22.277  1.00 20.13 LIG 0.14  C 
BRANCH 42 43
ATOM     43  NE  ARG B 991       8.509 -13.017 -22.973  1.00 19.75 LIG-0.23  N 
ATOM     44 HE   ARG B 991       8.041 -13.017 -23.694  1.00 19.75 LIG 0.18  HD
ATOM     45  CZ  ARG B 991       9.020 -14.175 -22.560  1.00 21.42 LIG 0.67  C 
ATOM     46  NH2 ARG B 991       8.805 -15.281 -23.253  1.00 25.04 LIG-0.23  N 
ATOM     47  NH1 ARG B 991       9.742 -14.237 -21.450  1.00 21.33 LIG-0.23  N 
ATOM     48 2HH2 ARG B 991       9.136 -16.028 -22.985  1.00 25.04 LIG 0.17  HD
ATOM     49 1HH2 ARG B 991       8.334 -15.253 -23.972  1.00 25.04 LIG 0.17  HD
ATOM     50 2HH1 ARG B 991      10.068 -14.989 -21.190  1.00 21.33 LIG 0.17  HD
ATOM     51 1HH1 ARG B 991       9.884 -13.524 -20.989  1.00 21.33 LIG 0.17  HD
ENDBRANCH 42 43
ENDBRANCH 41 42
ENDBRANCH 40 41
ENDBRANCH 39 40
BRANCH 39 52
ATOM     52  C   ARG B 991       6.269  -9.502 -19.076  1.00 19.80 LIG 0.24  C 
ATOM     53  N   LEU B 992       5.355  -9.228 -18.149  1.00 20.89 LIG-0.34  N 
ATOM     54 H    LEU B 992       4.522  -9.425 -18.228  1.00 20.89 LIG 0.16  HD
ATOM     55 O    ARG B 991       7.476  -9.274 -18.927  1.00 18.76 LIG-0.27  OA
BRANCH 53 56
ATOM     56  CA  LEU B 992       5.696  -8.558 -16.900  1.00 21.42 LIG 0.18  C 
BRANCH 56 57
ATOM     57  CB  LEU B 992       6.847  -9.295 -16.208  1.00 24.29 LIG 0.04  C 
BRANCH 57 58
ATOM     58  CG  LEU B 992       6.391 -10.570 -15.484  1.00 26.83 LIG-0.02  C 
ATOM     59  CD1 LEU B 992       4.911 -10.545 -15.143  1.00 69.60 LIG 0.01  C 
ATOM     60  CD2 LEU B 992       6.749 -11.799 -16.305  1.00 26.77 LIG 0.01  C 
ENDBRANCH 57 58
ENDBRANCH 56 57
BRANCH 56 61
ATOM     61  C   LEU B 992       6.063  -7.094 -17.139  1.00 23.41 LIG 0.20  C 
ATOM     62 OXT  LEU B 992       6.465  -6.365 -16.223  1.00 23.28 LIG-0.65  OA
ATOM     63 O    LEU B 992       5.963  -6.615 -18.270  1.00 25.47 LIG-0.65  OA
ENDBRANCH 56 61
ENDBRANCH 53 56
ENDBRANCH 39 52
ENDBRANCH 36 39
ENDBRANCH 1 35
BRANCH 1 64
ATOM     64  CB  THR B 990       1.705  -7.725 -19.860  1.00 25.20 LIG 0.15  C 
ATOM     65  CG2 THR B 990       2.716  -7.293 -18.813  1.00 22.41 LIG 0.04  C 
BRANCH 64 66
ATOM     66 OG1  THR B 990       0.998  -6.568 -20.335  1.00 22.69 LIG-0.39  OA
ATOM     67 HG1  THR B 990       0.360  -6.810 -20.826  1.00 22.69 LIG 0.21  HD
ENDBRANCH 64 66
ENDBRANCH 1 64
TORSDOF 26
ENDMDL
MODEL 5
USER: ADFR SOLUTION from run 159
USER: SCORE 20.012602 LL:  -4.952 LR: -18.123 RR:   0.000 FEB: -10.367
USER: RMSD 5.106035
USER: SEED 158
USER: STATUS 1 or 2 clusters left
USER: GENES 28
USER: genes 0 Translation |==|  0.70205 0.54646 0.50542
USER: genes 1 Rotation |==|  0.11485 0.59753 0.26233 0.68884
USER: genes 2 Torsion [CB]-CA--N-[C] |==|  0.46137
USER: genes 3 Torsion [N]-C--CA-[N] |==|  0.27278
USER: genes 4 Torsion [C]-CA--N-[C] |==|  0.58187
USER: genes 5 Torsion [N]-C--CA-[N] |==|  0.46604
USER: genes 6 Torsion [C]-CA--N-[C] |==|  0.71089
USER: genes 7 Torsion [N]-C--CA-[N] |==|  0.38504
USER: genes 8 Torsion [C]-CA--CB-[CG] |==|  0.26192
USER: genes 9 Torsion [CA]-CB--CG-[CD] |==|  0.44715
USER: genes 10 Torsion [CB]-CG--CD-[OE1] |==|  0.71038
USER: genes 11 Torsion [C]-CA--N-[C] |==|  0.63941
USER: genes 12 Torsion [C]-CA--CB-[CG] |==|  0.25054
USER: genes 13 Torsion [CA]-CB--CG-[CD] |==|  0.17541
USER: genes 14 Torsion [CB]-CG--CD-[OE1] |==|  0.57161
USER: genes 15 Torsion [N]-CA--C-[N] |==|  0.30545
USER: genes 16 Torsion [C]-N--CA-[CB] |==|  0.87778
USER: genes 17 Torsion [N]-CA--CB-[CG] |==|  0.76867
USER: genes 18 Torsion [CA]-CB--CG-[CD] |==|  0.19693
USER: genes 19 Torsion [CB]-CG--CD-[NE] |==|  0.73540
USER: genes 20 Torsion [CG]-CD--NE-[HE] |==|  0.19944
USER: genes 21 Torsion [N]-CA--C-[N] |==|  0.96085
USER: genes 22 Torsion [C]-N--CA-[CB] |==|  0.87312
USER: genes 23 Torsion [N]-CA--CB-[CG] |==|  0.74435
USER: genes 24 Torsion [CA]-CB--CG-[CD1] |==|  0.78207
USER: genes 25 Torsion [N]-CA--C-[OXT] |==|  0.66036
USER: genes 26 Torsion [N]-CA--CB-[OG1] |==|  0.00091
USER: genes 27 Torsion [CA]-CB--OG1-[HG1] |==|  0.67843
ROOT
ATOM      1  CA  THR B 990       5.700 -10.028 -22.116  1.00 21.72 LIG 0.20  C 
ENDROOT
BRANCH 1 2
ATOM      2  N   THR B 990       4.485  -9.219 -22.068  1.00 18.80 LIG-0.34  N 
ATOM      3  C   GLN B 989       3.458  -9.526 -21.278  1.00 20.29 LIG 0.24  C 
ATOM      4 O    GLN B 989       3.469 -10.489 -20.504  1.00 25.34 LIG-0.27  OA
ATOM      5 H    THR B 990       4.496  -8.536 -22.590  1.00 18.80 LIG 0.16  HD
BRANCH 3 6
ATOM      6  CA  GLN B 989       2.241  -8.612 -21.344  1.00 20.93 LIG 0.18  C 
BRANCH 6 7
ATOM      7  N   GLN B 989       1.248  -9.222 -22.222  1.00 21.51 LIG-0.35  N 
ATOM      8  C   ALA B 988       0.369  -8.527 -22.944  1.00 19.82 LIG 0.24  C 
ATOM      9 O    ALA B 988       0.305  -7.295 -22.938  1.00 21.07 LIG-0.27  OA
ATOM     10 H    GLN B 989       1.283 -10.082 -22.230  1.00 21.51 LIG 0.16  HD
BRANCH 8 11
ATOM     11  CA  ALA B 988      -0.580  -9.359 -23.792  1.00 22.60 LIG 0.17  C 
ATOM     12  CB  ALA B 988       0.178 -10.025 -24.944  1.00 24.03 LIG 0.04  C 
BRANCH 11 13
ATOM     13  N   ALA B 988      -1.641  -8.499 -24.280  1.00 21.45 LIG-0.35  N 
ATOM     14  C   GLU B 987      -2.867  -8.506 -23.774  1.00 22.73 LIG 0.24  C 
ATOM     15 O    GLU B 987      -3.278  -9.364 -22.988  1.00 25.22 LIG-0.27  OA
ATOM     16 H    ALA B 988      -1.401  -7.986 -24.926  1.00 21.45 LIG 0.16  HD
BRANCH 14 17
ATOM     17  CA  GLU B 987      -3.766  -7.375 -24.231  1.00 20.66 LIG 0.18  C 
BRANCH 17 18
ATOM     18  CB  GLU B 987      -3.780  -6.290 -23.160  1.00 22.09 LIG 0.04  C 
BRANCH 18 19
ATOM     19  CG  GLU B 987      -2.782  -5.171 -23.367  1.00 27.98 LIG 0.12  C 
BRANCH 19 20
ATOM     20  CD  GLU B 987      -3.150  -3.938 -22.567  1.00 24.84 LIG 0.17  C 
ATOM     21 OE1  GLU B 987      -3.652  -2.966 -23.171  1.00 22.19 LIG-0.65  OA
ATOM     22 OE2  GLU B 987      -2.970  -3.946 -21.332  1.00 23.04 LIG-0.65  OA
ENDBRANCH 19 20
ENDBRANCH 18 19
ENDBRANCH 17 18
BRANCH 17 23
ATOM     23  N   GLU B 987      -5.111  -7.875 -24.498  1.00 23.24 LIG-0.35  N 
ATOM     24 H    GLU B 987      -5.441  -8.350 -23.861  1.00 23.24 LIG 0.16  HD
ATOM     25  C   ACE B 986      -5.758  -7.611 -25.632  1.00 26.84 LIG 0.21  C 
ATOM     26  CH3 ACE B 986      -7.128  -8.216 -25.731  1.00 28.09 LIG 0.12  C 
ATOM     27 O    ACE B 986      -5.285  -6.920 -26.534  1.00 26.08 LIG-0.27  OA
ENDBRANCH 17 23
ENDBRANCH 14 17
ENDBRANCH 11 13
ENDBRANCH 8 11
ENDBRANCH 6 7
BRANCH 6 28
ATOM     28  CB  GLN B 989       1.671  -8.397 -19.938  1.00 26.69 LIG 0.04  C 
BRANCH 28 29
ATOM     29  CG  GLN B 989       2.253  -7.201 -19.198  1.00 35.87 LIG 0.10  C 
BRANCH 29 30
ATOM     30  CD  GLN B 989       1.949  -5.888 -19.888  1.00 52.60 LIG 0.21  C 
ATOM     31  NE2 GLN B 989       0.863  -5.853 -20.656  1.00 32.18 LIG-0.37  N 
ATOM     32 21HE GLN B 989       0.372  -6.554 -20.738  1.00 32.18 LIG 0.16  HD
ATOM     33 22HE GLN B 989       0.653  -5.129 -21.070  1.00 32.18 LIG 0.16  HD
ATOM     34 OE1  GLN B 989       2.686  -4.915 -19.736  1.00 38.19 LIG-0.27  OA
ENDBRANCH 29 30
ENDBRANCH 28 29
ENDBRANCH 6 28
ENDBRANCH 3 6
ENDBRANCH 1 2
BRANCH 1 35
ATOM     35  C   THR B 990       6.497  -9.830 -20.833  1.00 20.40 LIG 0.24  C 
ATOM     36  N   ARG B 991       6.544 -10.864 -19.994  1.00 18.25 LIG-0.35  N 
ATOM     37 H    ARG B 991       6.100 -11.592 -20.106  1.00 18.25 LIG 0.16  HD
ATOM     38 O    THR B 990       7.062  -8.754 -20.613  1.00 21.77 LIG-0.27  OA
BRANCH 36 39
ATOM     39  CA  ARG B 991       7.368 -10.847 -18.790  1.00 18.44 LIG 0.18  C 
BRANCH 39 40
ATOM     40  CB  ARG B 991       8.759 -10.277 -19.074  1.00 17.17 LIG 0.04  C 
BRANCH 40 41
ATOM     41  CG  ARG B 991       9.708 -11.311 -19.636  1.00 18.12 LIG 0.02  C 
BRANCH 41 42
ATOM     42  CD  ARG B 991       9.352 -11.694 -21.047  1.00 20.13 LIG 0.14  C 
BRANCH 42 43
ATOM     43  NE  ARG B 991       8.523 -12.897 -21.097  1.00 19.75 LIG-0.23  N 
ATOM     44 HE   ARG B 991       7.707 -12.836 -20.835  1.00 19.75 LIG 0.18  HD
ATOM     45  CZ  ARG B 991       8.954 -14.083 -21.524  1.00 21.42 LIG 0.67  C 
ATOM     46  NH2 ARG B 991       8.135 -15.121 -21.540  1.00 25.04 LIG-0.23  N 
ATOM     47  NH1 ARG B 991      10.206 -14.239 -21.929  1.00 21.33 LIG-0.23  N 
ATOM     48 2HH2 ARG B 991       8.416 -15.886 -21.817  1.00 25.04 LIG 0.17  HD
ATOM     49 1HH2 ARG B 991       7.322 -15.031 -21.275  1.00 25.04 LIG 0.17  HD
ATOM     50 2HH1 ARG B 991      10.477 -15.008 -22.203  1.00 21.33 LIG 0.17  HD
ATOM     51 1HH1 ARG B 991      10.749 -13.572 -21.918  1.00 21.33 LIG 0.17  HD
ENDBRANCH 42 43
ENDBRANCH 41 42
ENDBRANCH 40 41
ENDBRANCH 39 40
BRANCH 39 52
ATOM     52  C   ARG B 991       6.668 -10.020 -17.720  1.00 19.80 LIG 0.24  C 
ATOM     53  N   LEU B 992       5.658  -9.260 -18.134  1.00 20.89 LIG-0.34  N 
ATOM     54 H    LEU B 992       5.365  -9.254 -18.942  1.00 20.89 LIG 0.16  HD
ATOM     55 O    ARG B 991       7.041 -10.072 -16.542  1.00 18.76 LIG-0.27  OA
BRANCH 53 56
ATOM     56  CA  LEU B 992       4.950  -8.358 -17.235  1.00 21.42 LIG 0.18  C 
BRANCH 56 57
ATOM     57  CB  LEU B 992       4.628  -9.075 -15.920  1.00 24.29 LIG 0.04  C 
BRANCH 57 58
ATOM     58  CG  LEU B 992       3.247  -9.745 -15.928  1.00 26.83 LIG-0.02  C 
ATOM     59  CD1 LEU B 992       2.119  -8.753 -15.701  1.00 69.60 LIG 0.01  C 
ATOM     60  CD2 LEU B 992       3.048 -10.524 -17.219  1.00 26.77 LIG 0.01  C 
ENDBRANCH 57 58
ENDBRANCH 56 57
BRANCH 56 61
ATOM     61  C   LEU B 992       5.762  -7.090 -16.970  1.00 23.41 LIG 0.20  C 
ATOM     62 OXT  LEU B 992       6.086  -6.751 -15.825  1.00 23.28 LIG-0.65  OA
ATOM     63 O    LEU B 992       6.114  -6.380 -17.914  1.00 25.47 LIG-0.65  OA
ENDBRANCH 56 61
ENDBRANCH 53 56
ENDBRANCH 39 52
ENDBRANCH 36 39
ENDBRANCH 1 35
BRANCH 1 64
ATOM     64  CB  THR B 990       6.566  -9.661 -23.335  1.00 25.20 LIG 0.15  C 
ATOM     65  CG2 THR B 990       6.770 -10.866 -24.237  1.00 22.41 LIG 0.04  C 
BRANCH 64 66
ATOM     66 OG1  THR B 990       5.940  -8.612 -24.090  1.00 22.69 LIG-0.39  OA
ATOM     67 HG1  THR B 990       5.735  -8.899 -24.853  1.00 22.69 LIG 0.21  HD
ENDBRANCH 64 66
ENDBRANCH 1 64
TORSDOF 26
ENDMDL
MODEL 6
USER: ADFR SOLUTION from run 198
USER: SCORE 20.477738 LL:  -5.537 LR: -17.905 RR:   0.000 FEB: -10.149
USER: RMSD 12.748287
USER: SEED 197
USER: STATUS no improvement in best in 7 clusters for 5 generations
USER: GENES 28
USER: genes 0 Translation |==|  0.62821 0.54273 0.59169
USER: genes 1 Rotation |==|  0.16654 0.66615 0.79105 0.66275
USER: genes 2 Torsion [CB]-CA--N-[C] |==|  0.17608
USER: genes 3 Torsion [N]-C--CA-[N] |==|  0.95642
USER: genes 4 Torsion [C]-CA--N-[C] |==|  0.69877
USER: genes 5 Torsion [N]-C--CA-[N] |==|  0.12153
USER: genes 6 Torsion [C]-CA--N-[C] |==|  0.15937
USER: genes 7 Torsion [N]-C--CA-[N] |==|  0.41766
USER: genes 8 Torsion [C]-CA--CB-[CG] |==|  0.47714
USER: genes 9 Torsion [CA]-CB--CG-[CD] |==|  0.27161
USER: genes 10 Torsion [CB]-CG--CD-[OE1] |==|  0.34855
USER: genes 11 Torsion [C]-CA--N-[C] |==|  0.76899
USER: genes 12 Torsion [C]-CA--CB-[CG] |==|  0.81216
USER: genes 13 Torsion [CA]-CB--CG-[CD] |==|  0.39137
USER: genes 14 Torsion [CB]-CG--CD-[OE1] |==|  0.84361
USER: genes 15 Torsion [N]-CA--C-[N] |==|  0.58546
USER: genes 16 Torsion [C]-N--CA-[CB] |==|  0.29962
USER: genes 17 Torsion [N]-CA--CB-[CG] |==|  0.00442
USER: genes 18 Torsion [CA]-CB--CG-[CD] |==|  0.24981
USER: genes 19 Torsion [CB]-CG--CD-[NE] |==|  0.58160
USER: genes 20 Torsion [CG]-CD--NE-[HE] |==|  0.25018
USER: genes 21 Torsion [N]-CA--C-[N] |==|  0.08188
USER: genes 22 Torsion [C]-N--CA-[CB] |==|  0.37238
USER: genes 23 Torsion [N]-CA--CB-[CG] |==|  0.54243
USER: genes 24 Torsion [CA]-CB--CG-[CD1] |==|  0.26511
USER: genes 25 Torsion [N]-CA--C-[OXT] |==|  0.10995
USER: genes 26 Torsion [N]-CA--CB-[OG1] |==|  0.50736
USER: genes 27 Torsion [CA]-CB--OG1-[HG1] |==|  0.19767
ROOT
ATOM      1  CA  THR B 990       3.651 -10.095 -20.240  1.00 21.72 LIG 0.20  C 
ENDROOT
BRANCH 1 2
ATOM      2  N   THR B 990       4.482 -10.296 -19.055  1.00 18.80 LIG-0.34  N 
ATOM      3  C   GLN B 989       4.132 -11.126 -18.075  1.00 20.29 LIG 0.24  C 
ATOM      4 O    GLN B 989       3.105 -11.813 -18.109  1.00 25.34 LIG-0.27  OA
ATOM      5 H    THR B 990       5.207  -9.834 -19.051  1.00 18.80 LIG 0.16  HD
BRANCH 3 6
ATOM      6  CA  GLN B 989       5.077 -11.222 -16.884  1.00 20.93 LIG 0.18  C 
BRANCH 6 7
ATOM      7  N   GLN B 989       6.361 -10.641 -17.262  1.00 21.51 LIG-0.35  N 
ATOM      8  C   ALA B 988       7.467 -11.356 -17.470  1.00 19.82 LIG 0.24  C 
ATOM      9 O    ALA B 988       7.515 -12.583 -17.358  1.00 21.07 LIG-0.27  OA
ATOM     10 H    GLN B 989       6.339  -9.784 -17.339  1.00 21.51 LIG 0.16  HD
BRANCH 8 11
ATOM     11  CA  ALA B 988       8.699 -10.553 -17.854  1.00 22.60 LIG 0.17  C 
ATOM     12  CB  ALA B 988       9.958 -11.418 -17.735  1.00 24.03 LIG 0.04  C 
BRANCH 11 13
ATOM     13  N   ALA B 988       8.776  -9.383 -17.002  1.00 21.45 LIG-0.35  N 
ATOM     14  C   GLU B 987       8.820  -9.454 -15.677  1.00 22.73 LIG 0.24  C 
ATOM     15 O    GLU B 987       8.606 -10.489 -15.041  1.00 25.22 LIG-0.27  OA
ATOM     16 H    ALA B 988       8.789  -8.640 -17.433  1.00 21.45 LIG 0.16  HD
BRANCH 14 17
ATOM     17  CA  GLU B 987       9.151  -8.158 -14.966  1.00 20.66 LIG 0.18  C 
BRANCH 17 18
ATOM     18  CB  GLU B 987      10.666  -8.024 -14.860  1.00 22.09 LIG 0.04  C 
BRANCH 18 19
ATOM     19  CG  GLU B 987      11.157  -6.687 -14.347  1.00 27.98 LIG 0.12  C 
BRANCH 19 20
ATOM     20  CD  GLU B 987      11.471  -6.739 -12.865  1.00 24.84 LIG 0.17  C 
ATOM     21 OE1  GLU B 987      12.607  -6.383 -12.486  1.00 22.19 LIG-0.65  OA
ATOM     22 OE2  GLU B 987      10.578  -7.105 -12.073  1.00 23.04 LIG-0.65  OA
ENDBRANCH 19 20
ENDBRANCH 18 19
ENDBRANCH 17 18
BRANCH 17 23
ATOM     23  N   GLU B 987       8.522  -8.130 -13.649  1.00 23.24 LIG-0.35  N 
ATOM     24 H    GLU B 987       9.041  -8.371 -13.008  1.00 23.24 LIG 0.16  HD
ATOM     25  C   ACE B 986       7.255  -7.761 -13.473  1.00 26.84 LIG 0.21  C 
ATOM     26  CH3 ACE B 986       6.779  -7.802 -12.050  1.00 28.09 LIG 0.12  C 
ATOM     27 O    ACE B 986       6.520  -7.406 -14.394  1.00 26.08 LIG-0.27  OA
ENDBRANCH 17 23
ENDBRANCH 14 17
ENDBRANCH 11 13
ENDBRANCH 8 11
ENDBRANCH 6 7
BRANCH 6 28
ATOM     28  CB  GLN B 989       4.478 -10.489 -15.679  1.00 26.69 LIG 0.04  C 
BRANCH 28 29
ATOM     29  CG  GLN B 989       4.385  -8.979 -15.842  1.00 35.87 LIG 0.10  C 
BRANCH 29 30
ATOM     30  CD  GLN B 989       3.107  -8.411 -15.262  1.00 52.60 LIG 0.21  C 
ATOM     31  NE2 GLN B 989       3.239  -7.462 -14.338  1.00 32.18 LIG-0.37  N 
ATOM     32 21HE GLN B 989       4.023  -7.199 -14.101  1.00 32.18 LIG 0.16  HD
ATOM     33 22HE GLN B 989       2.541  -7.113 -13.978  1.00 32.18 LIG 0.16  HD
ATOM     34 OE1  GLN B 989       2.011  -8.824 -15.637  1.00 38.19 LIG-0.27  OA
ENDBRANCH 29 30
ENDBRANCH 28 29
ENDBRANCH 6 28
ENDBRANCH 3 6
ENDBRANCH 1 2
BRANCH 1 35
ATOM     35  C   THR B 990       4.379  -9.192 -21.227  1.00 20.40 LIG 0.24  C 
ATOM     36  N   ARG B 991       3.617  -8.415 -21.999  1.00 18.25 LIG-0.35  N 
ATOM     37 H    ARG B 991       2.758  -8.451 -22.013  1.00 18.25 LIG 0.16  HD
ATOM     38 O    THR B 990       5.611  -9.200 -21.285  1.00 21.77 LIG-0.27  OA
BRANCH 36 39
ATOM     39  CA  ARG B 991       4.190  -7.421 -22.900  1.00 18.44 LIG 0.18  C 
BRANCH 39 40
ATOM     40  CB  ARG B 991       4.062  -7.855 -24.362  1.00 17.17 LIG 0.04  C 
BRANCH 40 41
ATOM     41  CG  ARG B 991       3.346  -9.177 -24.517  1.00 18.12 LIG 0.02  C 
BRANCH 41 42
ATOM     42  CD  ARG B 991       1.859  -8.998 -24.665  1.00 20.13 LIG 0.14  C 
BRANCH 42 43
ATOM     43  NE  ARG B 991       1.113 -10.141 -24.143  1.00 19.75 LIG-0.23  N 
ATOM     44 HE   ARG B 991       0.877 -10.126 -23.317  1.00 19.75 LIG 0.18  HD
ATOM     45  CZ  ARG B 991       0.774 -11.205 -24.870  1.00 21.42 LIG 0.67  C 
ATOM     46  NH2 ARG B 991       0.093 -12.196 -24.319  1.00 25.04 LIG-0.23  N 
ATOM     47  NH1 ARG B 991       1.119 -11.287 -26.147  1.00 21.33 LIG-0.23  N 
ATOM     48 2HH2 ARG B 991      -0.125 -12.882 -24.790  1.00 25.04 LIG 0.17  HD
ATOM     49 1HH2 ARG B 991      -0.132 -12.154 -23.490  1.00 25.04 LIG 0.17  HD
ATOM     50 2HH1 ARG B 991       0.896 -11.978 -26.609  1.00 21.33 LIG 0.17  HD
ATOM     51 1HH1 ARG B 991       1.566 -10.651 -26.513  1.00 21.33 LIG 0.17  HD
ENDBRANCH 42 43
ENDBRANCH 41 42
ENDBRANCH 40 41
ENDBRANCH 39 40
BRANCH 39 52
ATOM     52  C   ARG B 991       3.487  -6.089 -22.682  1.00 19.80 LIG 0.24  C 
ATOM     53  N   LEU B 992       3.015  -5.868 -21.458  1.00 20.89 LIG-0.34  N 
ATOM     54 H    LEU B 992       3.129  -6.407 -20.798  1.00 20.89 LIG 0.16  HD
ATOM     55 O    ARG B 991       3.375  -5.278 -23.610  1.00 18.76 LIG-0.27  OA
BRANCH 53 56
ATOM     56  CA  LEU B 992       2.251  -4.671 -21.128  1.00 21.42 LIG 0.18  C 
BRANCH 56 57
ATOM     57  CB  LEU B 992       1.010  -5.050 -20.314  1.00 24.29 LIG 0.04  C 
BRANCH 57 58
ATOM     58  CG  LEU B 992      -0.027  -3.920 -20.246  1.00 26.83 LIG-0.02  C 
ATOM     59  CD1 LEU B 992      -1.108  -4.061 -21.304  1.00 69.60 LIG 0.01  C 
ATOM     60  CD2 LEU B 992      -0.626  -3.838 -18.851  1.00 26.77 LIG 0.01  C 
ENDBRANCH 57 58
ENDBRANCH 56 57
BRANCH 56 61
ATOM     61  C   LEU B 992       3.107  -3.662 -20.363  1.00 23.41 LIG 0.20  C 
ATOM     62 OXT  LEU B 992       4.293  -3.458 -20.656  1.00 23.28 LIG-0.65  OA
ATOM     63 O    LEU B 992       2.615  -3.025 -19.430  1.00 25.47 LIG-0.65  OA
ENDBRANCH 56 61
ENDBRANCH 53 56
ENDBRANCH 39 52
ENDBRANCH 36 39
ENDBRANCH 1 35
BRANCH 1 64
ATOM     64  CB  THR B 990       2.289  -9.478 -19.869  1.00 25.20 LIG 0.15  C 
ATOM     65  CG2 THR B 990       2.469  -8.109 -19.236  1.00 22.41 LIG 0.04  C 
BRANCH 64 66
ATOM     66 OG1  THR B 990       1.469  -9.348 -21.041  1.00 22.69 LIG-0.39  OA
ATOM     67 HG1  THR B 990       1.217 -10.109 -21.293  1.00 22.69 LIG 0.21  HD
ENDBRANCH 64 66
ENDBRANCH 1 64
TORSDOF 26
ENDMDL
