MODEL 1
USER: ADFR SOLUTION from run 142
USER: SCORE 23.348344 LL:  -4.191 LR: -19.802 RR:   0.000 FEB: -12.046
USER: RMSD 1.933307
USER: SEED 141
USER: STATUS no improvement in best in 1 clusters for 5 generations
USER: GENES 28
USER: genes 0 Translation |==|  0.44752 0.51260 0.49007
USER: genes 1 Rotation |==|  0.49903 0.46774 0.46693 0.99786
USER: genes 2 Torsion [N]-C--CA-[N] |==|  0.35252
USER: genes 3 Torsion [C]-CA--N-[C] |==|  0.62836
USER: genes 4 Torsion [N]-C--CA-[N] |==|  0.43694
USER: genes 5 Torsion [C]-CA--CB-[CG] |==|  0.36167
USER: genes 6 Torsion [CA]-CB--CG-[CD] |==|  0.52881
USER: genes 7 Torsion [CB]-CG--CD-[OE1] |==|  0.61098
USER: genes 8 Torsion [C]-CA--N-[C] |==|  0.76841
USER: genes 9 Torsion [N]-C--CA-[N] |==|  0.29914
USER: genes 10 Torsion [C]-CA--CB-[CG2] |==|  0.78734
USER: genes 11 Torsion [CA]-CB--CG1-[CD1] |==|  0.48796
USER: genes 12 Torsion [C]-CA--N-[C] |==|  0.76107
USER: genes 13 Torsion [C]-CA--CB-[OG] |==|  0.43927
USER: genes 14 Torsion [CA]-CB--OG-[HG] |==|  0.62286
USER: genes 15 Torsion [C]-N--CA-[C] |==|  0.63103
USER: genes 16 Torsion [N]-CA--CB-[CG2] |==|  0.47695
USER: genes 17 Torsion [CA]-CB--OG1-[HG1] |==|  0.17672
USER: genes 18 Torsion [N]-CA--C-[N] |==|  0.37921
USER: genes 19 Torsion [C]-N--CA-[C] |==|  0.80372
USER: genes 20 Torsion [N]-CA--CB-[CG] |==|  0.23388
USER: genes 21 Torsion [CA]-CB--CG-[CD] |==|  0.84686
USER: genes 22 Torsion [CB]-CG--CD-[OE1] |==|  0.36917
USER: genes 23 Torsion [N]-CA--C-[N] |==|  0.42994
USER: genes 24 Torsion [C]-N--CA-[CB] |==|  0.24380
USER: genes 25 Torsion [N]-CA--CB-[CG2] |==|  0.58605
USER: genes 26 Torsion [CA]-CB--CG1-[CD1] |==|  0.71579
USER: genes 27 Torsion [N]-CA--C-[OXT] |==|  0.38648
ROOT
ATOM      1  C   SER B 700     -21.872 -16.143   0.735  1.00 12.42 LIG 0.24  C 
ATOM      2 O    SER B 700     -22.870 -15.426   0.823  1.00 14.21 LIG-0.27  OA
ATOM      3  N   THR B 701     -20.711 -15.867   1.331  1.00 11.45 LIG-0.34  N 
ATOM      4 H    THR B 701     -19.999 -16.340   1.242  1.00 11.45 LIG 0.16  HD
ENDROOT
BRANCH 1 5
ATOM      5  CA  SER B 700     -21.926 -17.455  -0.033  1.00 12.28 LIG 0.20  C 
BRANCH 5 6
ATOM      6  N   SER B 700     -23.069 -18.235   0.420  1.00 11.50 LIG-0.34  N 
ATOM      7 H    SER B 700     -23.804 -17.796   0.489  1.00 11.50 LIG 0.16  HD
ATOM      8  C   GLU B 699     -22.936 -19.530   0.695  1.00 10.99 LIG 0.24  C 
ATOM      9 O    GLU B 699     -21.883 -20.142   0.525  1.00 12.44 LIG-0.27  OA
BRANCH 8 10
ATOM     10  CA  GLU B 699     -24.163 -20.226   1.255  1.00 11.42 LIG 0.18  C 
BRANCH 10 11
ATOM     11  CB  GLU B 699     -24.237 -19.935   2.759  1.00 13.76 LIG 0.04  C 
BRANCH 11 12
ATOM     12  CG  GLU B 699     -25.604 -19.440   3.214  1.00 17.93 LIG 0.12  C 
BRANCH 12 13
ATOM     13  CD  GLU B 699     -25.633 -18.909   4.646  1.00 21.63 LIG 0.17  C 
ATOM     14 OE2  GLU B 699     -24.680 -18.224   5.024  1.00 23.04 LIG-0.65  OA
ATOM     15 OE1  GLU B 699     -26.589 -19.148   5.399  1.00 23.73 LIG-0.65  OA
ENDBRANCH 12 13
ENDBRANCH 11 12
ENDBRANCH 10 11
BRANCH 10 16
ATOM     16  N   GLU B 699     -24.066 -21.658   1.003  1.00 10.55 LIG-0.35  N 
ATOM     17  C   ILE B 698     -24.420 -22.236  -0.150  1.00 10.83 LIG 0.24  C 
ATOM     18 O    ILE B 698     -24.807 -21.604  -1.133  1.00 12.04 LIG-0.27  OA
ATOM     19 H    GLU B 699     -23.756 -22.102   1.672  1.00 10.55 LIG 0.16  HD
BRANCH 17 20
ATOM     20  CA  ILE B 698     -24.299 -23.735  -0.227  1.00 12.48 LIG 0.18  C 
BRANCH 20 21
ATOM     21  CB  ILE B 698     -23.565 -24.142  -1.520  1.00 12.07 LIG 0.01  C 
ATOM     22  CG2 ILE B 698     -24.488 -24.030  -2.725  1.00 12.44 LIG 0.01  C 
BRANCH 21 23
ATOM     23  CG1 ILE B 698     -22.300 -23.297  -1.729  1.00 16.16 LIG 0.00  C 
ATOM     24  CD1 ILE B 698     -21.453 -23.675  -2.903  1.00 20.65 LIG 0.01  C 
ENDBRANCH 21 23
ENDBRANCH 20 21
BRANCH 20 25
ATOM     25  N   ILE B 698     -25.640 -24.309  -0.204  1.00 11.32 LIG-0.35  N 
ATOM     26 H    ILE B 698     -25.965 -24.458  -0.986  1.00 11.32 LIG 0.16  HD
ATOM     27  C   ACE B 697     -26.297 -24.577   0.922  1.00 12.73 LIG 0.21  C 
ATOM     28  CH3 ACE B 697     -27.678 -25.179   0.779  1.00 14.28 LIG 0.12  C 
ATOM     29 O    ACE B 697     -25.804 -24.330   2.024  1.00 13.22 LIG-0.27  OA
ENDBRANCH 20 25
ENDBRANCH 17 20
ENDBRANCH 10 16
ENDBRANCH 8 10
ENDBRANCH 5 6
BRANCH 5 30
ATOM     30  CB  SER B 700     -21.928 -17.233  -1.549  1.00 19.95 LIG 0.20  C 
BRANCH 30 31
ATOM     31 OG   SER B 700     -21.494 -18.359  -2.243  1.00 23.61 LIG-0.40  OA
ATOM     32 HG   SER B 700     -20.958 -18.128  -2.847  1.00 23.61 LIG 0.21  HD
ENDBRANCH 30 31
ENDBRANCH 5 30
ENDBRANCH 1 5
BRANCH 3 33
ATOM     33  CA  THR B 701     -20.561 -14.715   2.200  1.00 11.25 LIG 0.20  C 
BRANCH 33 34
ATOM     34  CB  THR B 701     -20.449 -15.177   3.658  1.00 12.39 LIG 0.15  C 
ATOM     35  CG2 THR B 701     -20.088 -14.002   4.549  1.00 12.07 LIG 0.04  C 
BRANCH 34 36
ATOM     36 OG1  THR B 701     -21.687 -15.745   4.113  1.00 13.39 LIG-0.39  OA
ATOM     37 HG1  THR B 701     -21.860 -16.435   3.668  1.00 13.39 LIG 0.21  HD
ENDBRANCH 34 36
ENDBRANCH 33 34
BRANCH 33 38
ATOM     38  C   THR B 701     -19.290 -13.953   1.840  1.00 11.24 LIG 0.24  C 
ATOM     39 O    THR B 701     -18.250 -14.570   1.628  1.00 11.69 LIG-0.27  OA
ATOM     40  N   GLU B 702     -19.361 -12.622   1.785  1.00 12.56 LIG-0.35  N 
ATOM     41 H    GLU B 702     -20.089 -12.174   1.876  1.00 12.56 LIG 0.16  HD
BRANCH 40 42
ATOM     42  CA  GLU B 702     -18.173 -11.808   1.559  1.00 14.77 LIG 0.18  C 
BRANCH 42 43
ATOM     43  CB  GLU B 702     -18.566 -10.365   1.254  1.00 19.79 LIG 0.04  C 
BRANCH 43 44
ATOM     44  CG  GLU B 702     -18.809  -9.517   2.517  1.00 26.45 LIG 0.12  C 
BRANCH 44 45
ATOM     45  CD  GLU B 702     -19.838 -10.121   3.455  1.00 32.08 LIG 0.17  C 
ATOM     46 OE1  GLU B 702     -19.569 -10.186   4.685  1.00 34.05 LIG-0.65  OA
ATOM     47 OE2  GLU B 702     -20.924 -10.525   2.968  1.00 34.63 LIG-0.65  OA
ENDBRANCH 44 45
ENDBRANCH 43 44
ENDBRANCH 42 43
BRANCH 42 48
ATOM     48  C   GLU B 702     -17.276 -11.843   2.788  1.00 15.13 LIG 0.24  C 
ATOM     49 O    GLU B 702     -17.744 -12.076   3.905  1.00 15.63 LIG-0.27  OA
ATOM     50  N   ILE B 703     -15.995 -11.610   2.561  1.00 14.66 LIG-0.34  N 
ATOM     51 H    ILE B 703     -15.701 -11.387   1.784  1.00 14.66 LIG 0.16  HD
BRANCH 50 52
ATOM     52  CA  ILE B 703     -14.938 -11.696   3.561  1.00 17.51 LIG 0.19  C 
BRANCH 52 53
ATOM     53  CB  ILE B 703     -14.405 -13.156   3.622  1.00 19.83 LIG 0.01  C 
ATOM     54  CG2 ILE B 703     -13.929 -13.492   5.024  1.00 22.74 LIG 0.01  C 
BRANCH 53 55
ATOM     55  CG1 ILE B 703     -15.434 -14.162   3.087  1.00 21.87 LIG 0.00  C 
ATOM     56  CD1 ILE B 703     -16.172 -14.920   4.114  1.00 23.51 LIG 0.01  C 
ENDBRANCH 53 55
ENDBRANCH 52 53
BRANCH 52 57
ATOM     57  C   ILE B 703     -13.778 -10.777   3.177  1.00 19.18 LIG 0.20  C 
ATOM     58 OXT  ILE B 703     -13.200 -10.102   4.066  1.00 18.49 LIG-0.65  OA
ATOM     59 O    ILE B 703     -13.435 -10.638   1.987  1.00 21.53 LIG-0.65  OA
ENDBRANCH 52 57
ENDBRANCH 50 52
ENDBRANCH 42 48
ENDBRANCH 40 42
ENDBRANCH 33 38
ENDBRANCH 3 33
TORSDOF 26
ENDMDL
MODEL 2
USER: ADFR SOLUTION from run 149
USER: SCORE 21.357154 LL:  -3.872 LR: -19.100 RR:   0.000 FEB: -11.345
USER: RMSD 2.749872
USER: SEED 148
USER: STATUS 1 or 2 clusters left
USER: GENES 28
USER: genes 0 Translation |==|  0.44910 0.50865 0.51606
USER: genes 1 Rotation |==|  0.50236 0.53427 0.49618 0.99880
USER: genes 2 Torsion [N]-C--CA-[N] |==|  0.39180
USER: genes 3 Torsion [C]-CA--N-[C] |==|  0.59723
USER: genes 4 Torsion [N]-C--CA-[N] |==|  0.45187
USER: genes 5 Torsion [C]-CA--CB-[CG] |==|  0.42533
USER: genes 6 Torsion [CA]-CB--CG-[CD] |==|  0.61540
USER: genes 7 Torsion [CB]-CG--CD-[OE1] |==|  0.06014
USER: genes 8 Torsion [C]-CA--N-[C] |==|  0.74331
USER: genes 9 Torsion [N]-C--CA-[N] |==|  0.33412
USER: genes 10 Torsion [C]-CA--CB-[CG2] |==|  0.77400
USER: genes 11 Torsion [CA]-CB--CG1-[CD1] |==|  0.40787
USER: genes 12 Torsion [C]-CA--N-[C] |==|  0.71736
USER: genes 13 Torsion [C]-CA--CB-[OG] |==|  0.28620
USER: genes 14 Torsion [CA]-CB--OG-[HG] |==|  0.47623
USER: genes 15 Torsion [C]-N--CA-[C] |==|  0.56217
USER: genes 16 Torsion [N]-CA--CB-[CG2] |==|  0.50921
USER: genes 17 Torsion [CA]-CB--OG1-[HG1] |==|  0.22259
USER: genes 18 Torsion [N]-CA--C-[N] |==|  0.41830
USER: genes 19 Torsion [C]-N--CA-[C] |==|  0.85649
USER: genes 20 Torsion [N]-CA--CB-[CG] |==|  0.98400
USER: genes 21 Torsion [CA]-CB--CG-[CD] |==|  0.24899
USER: genes 22 Torsion [CB]-CG--CD-[OE1] |==|  0.99975
USER: genes 23 Torsion [N]-CA--C-[N] |==|  0.77967
USER: genes 24 Torsion [C]-N--CA-[CB] |==|  0.26975
USER: genes 25 Torsion [N]-CA--CB-[CG2] |==|  0.77720
USER: genes 26 Torsion [CA]-CB--CG1-[CD1] |==|  0.67657
USER: genes 27 Torsion [N]-CA--C-[OXT] |==|  0.84161
ROOT
ATOM      1  C   SER B 700     -21.836 -16.253   1.164  1.00 12.42 LIG 0.24  C 
ATOM      2 O    SER B 700     -22.850 -15.660   1.536  1.00 14.21 LIG-0.27  OA
ATOM      3  N   THR B 701     -20.599 -15.845   1.448  1.00 11.45 LIG-0.34  N 
ATOM      4 H    THR B 701     -19.886 -16.230   1.158  1.00 11.45 LIG 0.16  HD
ENDROOT
BRANCH 1 5
ATOM      5  CA  SER B 700     -21.943 -17.556   0.386  1.00 12.28 LIG 0.20  C 
BRANCH 5 6
ATOM      6  N   SER B 700     -23.066 -18.332   0.892  1.00 11.50 LIG-0.34  N 
ATOM      7 H    SER B 700     -23.743 -17.868   1.147  1.00 11.50 LIG 0.16  HD
ATOM      8  C   GLU B 699     -23.003 -19.661   0.937  1.00 10.99 LIG 0.24  C 
ATOM      9 O    GLU B 699     -22.044 -20.296   0.505  1.00 12.44 LIG-0.27  OA
BRANCH 8 10
ATOM     10  CA  GLU B 699     -24.187 -20.366   1.573  1.00 11.42 LIG 0.18  C 
BRANCH 10 11
ATOM     11  CB  GLU B 699     -24.078 -20.209   3.095  1.00 13.76 LIG 0.04  C 
BRANCH 11 12
ATOM     12  CG  GLU B 699     -25.425 -20.265   3.807  1.00 17.93 LIG 0.12  C 
BRANCH 12 13
ATOM     13  CD  GLU B 699     -25.583 -19.239   4.928  1.00 21.63 LIG 0.17  C 
ATOM     14 OE2  GLU B 699     -26.419 -19.471   5.806  1.00 23.04 LIG-0.65  OA
ATOM     15 OE1  GLU B 699     -24.886 -18.214   4.962  1.00 23.73 LIG-0.65  OA
ENDBRANCH 12 13
ENDBRANCH 11 12
ENDBRANCH 10 11
BRANCH 10 16
ATOM     16  N   GLU B 699     -24.176 -21.772   1.191  1.00 10.55 LIG-0.35  N 
ATOM     17  C   ILE B 698     -24.831 -22.258   0.130  1.00 10.83 LIG 0.24  C 
ATOM     18 O    ILE B 698     -25.456 -21.552  -0.661  1.00 12.04 LIG-0.27  OA
ATOM     19 H    GLU B 699     -23.706 -22.265   1.715  1.00 10.55 LIG 0.16  HD
BRANCH 17 20
ATOM     20  CA  ILE B 698     -24.751 -23.745  -0.097  1.00 12.48 LIG 0.18  C 
BRANCH 20 21
ATOM     21  CB  ILE B 698     -24.092 -24.039  -1.460  1.00 12.07 LIG 0.01  C 
ATOM     22  CG2 ILE B 698     -25.103 -23.906  -2.590  1.00 12.44 LIG 0.01  C 
BRANCH 21 23
ATOM     23  CG1 ILE B 698     -22.887 -23.120  -1.703  1.00 16.16 LIG 0.00  C 
ATOM     24  CD1 ILE B 698     -21.760 -23.718  -2.484  1.00 20.65 LIG 0.01  C 
ENDBRANCH 21 23
ENDBRANCH 20 21
BRANCH 20 25
ATOM     25  N   ILE B 698     -26.104 -24.291  -0.062  1.00 11.32 LIG-0.35  N 
ATOM     26 H    ILE B 698     -26.548 -24.161  -0.786  1.00 11.32 LIG 0.16  HD
ATOM     27  C   ACE B 697     -26.602 -24.930   0.994  1.00 12.73 LIG 0.21  C 
ATOM     28  CH3 ACE B 697     -28.019 -25.445   0.874  1.00 14.28 LIG 0.12  C 
ATOM     29 O    ACE B 697     -25.940 -25.077   2.024  1.00 13.22 LIG-0.27  OA
ENDBRANCH 20 25
ENDBRANCH 17 20
ENDBRANCH 10 16
ENDBRANCH 8 10
ENDBRANCH 5 6
BRANCH 5 30
ATOM     30  CB  SER B 700     -22.023 -17.318  -1.125  1.00 19.95 LIG 0.20  C 
BRANCH 30 31
ATOM     31 OG   SER B 700     -20.813 -17.581  -1.761  1.00 23.61 LIG-0.40  OA
ATOM     32 HG   SER B 700     -20.921 -17.555  -2.593  1.00 23.61 LIG 0.21  HD
ENDBRANCH 30 31
ENDBRANCH 5 30
ENDBRANCH 1 5
BRANCH 3 33
ATOM     33  CA  THR B 701     -20.356 -14.690   2.291  1.00 11.25 LIG 0.20  C 
BRANCH 33 34
ATOM     34  CB  THR B 701     -20.421 -15.103   3.767  1.00 12.39 LIG 0.15  C 
ATOM     35  CG2 THR B 701     -20.249 -13.885   4.655  1.00 12.07 LIG 0.04  C 
BRANCH 34 36
ATOM     36 OG1  THR B 701     -21.677 -15.729   4.070  1.00 13.39 LIG-0.39  OA
ATOM     37 HG1  THR B 701     -21.660 -16.530   3.819  1.00 13.39 LIG 0.21  HD
ENDBRANCH 34 36
ENDBRANCH 33 34
BRANCH 33 38
ATOM     38  C   THR B 701     -18.968 -14.124   2.012  1.00 11.24 LIG 0.24  C 
ATOM     39 O    THR B 701     -18.066 -14.873   1.649  1.00 11.69 LIG-0.27  OA
ATOM     40  N   GLU B 702     -18.786 -12.815   2.195  1.00 12.56 LIG-0.35  N 
ATOM     41 H    GLU B 702     -19.415 -12.264   2.396  1.00 12.56 LIG 0.16  HD
BRANCH 40 42
ATOM     42  CA  GLU B 702     -17.468 -12.206   2.061  1.00 14.77 LIG 0.18  C 
BRANCH 42 43
ATOM     43  CB  GLU B 702     -17.510 -10.743   2.494  1.00 19.79 LIG 0.04  C 
BRANCH 43 44
ATOM     44  CG  GLU B 702     -18.929 -10.242   2.821  1.00 26.45 LIG 0.12  C 
BRANCH 44 45
ATOM     45  CD  GLU B 702     -19.315 -10.444   4.275  1.00 32.08 LIG 0.17  C 
ATOM     46 OE1  GLU B 702     -18.479 -10.981   5.052  1.00 34.05 LIG-0.65  OA
ATOM     47 OE2  GLU B 702     -20.451 -10.057   4.649  1.00 34.63 LIG-0.65  OA
ENDBRANCH 44 45
ENDBRANCH 43 44
ENDBRANCH 42 43
BRANCH 42 48
ATOM     48  C   GLU B 702     -16.457 -12.961   2.912  1.00 15.13 LIG 0.24  C 
ATOM     49 O    GLU B 702     -15.687 -13.779   2.400  1.00 15.63 LIG-0.27  OA
ATOM     50  N   ILE B 703     -16.473 -12.674   4.201  1.00 14.66 LIG-0.34  N 
ATOM     51 H    ILE B 703     -17.061 -12.148   4.545  1.00 14.66 LIG 0.16  HD
BRANCH 50 52
ATOM     52  CA  ILE B 703     -15.532 -13.189   5.187  1.00 17.51 LIG 0.19  C 
BRANCH 52 53
ATOM     53  CB  ILE B 703     -14.408 -12.140   5.424  1.00 19.83 LIG 0.01  C 
ATOM     54  CG2 ILE B 703     -13.370 -12.212   4.319  1.00 22.74 LIG 0.01  C 
BRANCH 53 55
ATOM     55  CG1 ILE B 703     -14.978 -10.727   5.613  1.00 21.87 LIG 0.00  C 
ATOM     56  CD1 ILE B 703     -14.590  -9.745   4.584  1.00 23.51 LIG 0.01  C 
ENDBRANCH 53 55
ENDBRANCH 52 53
BRANCH 52 57
ATOM     57  C   ILE B 703     -16.248 -13.435   6.516  1.00 19.18 LIG 0.20  C 
ATOM     58 OXT  ILE B 703     -16.855 -12.489   7.079  1.00 18.49 LIG-0.65  OA
ATOM     59 O    ILE B 703     -16.187 -14.544   7.083  1.00 21.53 LIG-0.65  OA
ENDBRANCH 52 57
ENDBRANCH 50 52
ENDBRANCH 42 48
ENDBRANCH 40 42
ENDBRANCH 33 38
ENDBRANCH 3 33
TORSDOF 26
ENDMDL
MODEL 3
USER: ADFR SOLUTION from run 181
USER: SCORE 22.121063 LL:  -4.361 LR: -18.746 RR:   0.000 FEB: -10.990
USER: RMSD 6.086110
USER: SEED 180
USER: STATUS no improvement in best in 5 clusters for 5 generations
USER: GENES 28
USER: genes 0 Translation |==|  0.40817 0.38410 0.47761
USER: genes 1 Rotation |==|  0.72150 0.93819 0.59201 0.52150
USER: genes 2 Torsion [N]-C--CA-[N] |==|  0.40306
USER: genes 3 Torsion [C]-CA--N-[C] |==|  0.83333
USER: genes 4 Torsion [N]-C--CA-[N] |==|  0.12464
USER: genes 5 Torsion [C]-CA--CB-[CG] |==|  0.44300
USER: genes 6 Torsion [CA]-CB--CG-[CD] |==|  0.56580
USER: genes 7 Torsion [CB]-CG--CD-[OE1] |==|  0.31740
USER: genes 8 Torsion [C]-CA--N-[C] |==|  0.60179
USER: genes 9 Torsion [N]-C--CA-[N] |==|  0.99887
USER: genes 10 Torsion [C]-CA--CB-[CG2] |==|  0.46718
USER: genes 11 Torsion [CA]-CB--CG1-[CD1] |==|  0.30321
USER: genes 12 Torsion [C]-CA--N-[C] |==|  0.76521
USER: genes 13 Torsion [C]-CA--CB-[OG] |==|  0.64114
USER: genes 14 Torsion [CA]-CB--OG-[HG] |==|  0.16786
USER: genes 15 Torsion [C]-N--CA-[C] |==|  0.63013
USER: genes 16 Torsion [N]-CA--CB-[CG2] |==|  0.45514
USER: genes 17 Torsion [CA]-CB--OG1-[HG1] |==|  0.60020
USER: genes 18 Torsion [N]-CA--C-[N] |==|  0.28588
USER: genes 19 Torsion [C]-N--CA-[C] |==|  0.55309
USER: genes 20 Torsion [N]-CA--CB-[CG] |==|  0.23667
USER: genes 21 Torsion [CA]-CB--CG-[CD] |==|  0.55406
USER: genes 22 Torsion [CB]-CG--CD-[OE1] |==|  0.69786
USER: genes 23 Torsion [N]-CA--C-[N] |==|  0.45585
USER: genes 24 Torsion [C]-N--CA-[CB] |==|  0.18640
USER: genes 25 Torsion [N]-CA--CB-[CG2] |==|  0.34548
USER: genes 26 Torsion [CA]-CB--CG1-[CD1] |==|  0.95148
USER: genes 27 Torsion [N]-CA--C-[OXT] |==|  0.42374
ROOT
ATOM      1  C   SER B 700     -22.757 -19.709   0.529  1.00 12.42 LIG 0.24  C 
ATOM      2 O    SER B 700     -21.620 -20.176   0.437  1.00 14.21 LIG-0.27  OA
ATOM      3  N   THR B 701     -23.037 -18.415   0.374  1.00 11.45 LIG-0.34  N 
ATOM      4 H    THR B 701     -23.821 -18.076   0.477  1.00 11.45 LIG 0.16  HD
ENDROOT
BRANCH 1 5
ATOM      5  CA  SER B 700     -23.950 -20.620   0.774  1.00 12.28 LIG 0.20  C 
BRANCH 5 6
ATOM      6  N   SER B 700     -23.716 -21.908   0.137  1.00 11.50 LIG-0.34  N 
ATOM      7 H    SER B 700     -23.714 -22.582   0.670  1.00 11.50 LIG 0.16  HD
ATOM      8  C   GLU B 699     -23.525 -21.986  -1.178  1.00 10.99 LIG 0.24  C 
ATOM      9 O    GLU B 699     -23.597 -21.009  -1.920  1.00 12.44 LIG-0.27  OA
BRANCH 8 10
ATOM     10  CA  GLU B 699     -23.191 -23.362  -1.726  1.00 11.42 LIG 0.18  C 
BRANCH 10 11
ATOM     11  CB  GLU B 699     -23.354 -23.324  -3.251  1.00 13.76 LIG 0.04  C 
BRANCH 11 12
ATOM     12  CG  GLU B 699     -22.600 -24.436  -3.969  1.00 17.93 LIG 0.12  C 
BRANCH 12 13
ATOM     13  CD  GLU B 699     -22.262 -24.124  -5.426  1.00 21.63 LIG 0.17  C 
ATOM     14 OE2  GLU B 699     -23.199 -23.996  -6.218  1.00 23.04 LIG-0.65  OA
ATOM     15 OE1  GLU B 699     -21.086 -23.993  -5.797  1.00 23.73 LIG-0.65  OA
ENDBRANCH 12 13
ENDBRANCH 11 12
ENDBRANCH 10 11
BRANCH 10 16
ATOM     16  N   GLU B 699     -24.079 -24.350  -1.129  1.00 10.55 LIG-0.35  N 
ATOM     17  C   ILE B 698     -23.697 -25.590  -0.802  1.00 10.83 LIG 0.24  C 
ATOM     18 O    ILE B 698     -22.541 -25.995  -0.918  1.00 12.04 LIG-0.27  OA
ATOM     19 H    GLU B 699     -24.879 -24.060  -1.006  1.00 10.55 LIG 0.16  HD
BRANCH 17 20
ATOM     20  CA  ILE B 698     -24.755 -26.501  -0.236  1.00 12.48 LIG 0.18  C 
BRANCH 20 21
ATOM     21  CB  ILE B 698     -24.913 -27.748  -1.129  1.00 12.07 LIG 0.01  C 
ATOM     22  CG2 ILE B 698     -25.755 -28.809  -0.433  1.00 12.44 LIG 0.01  C 
BRANCH 21 23
ATOM     23  CG1 ILE B 698     -25.523 -27.383  -2.490  1.00 16.16 LIG 0.00  C 
ATOM     24  CD1 ILE B 698     -24.595 -27.463  -3.660  1.00 20.65 LIG 0.01  C 
ENDBRANCH 21 23
ENDBRANCH 20 21
BRANCH 20 25
ATOM     25  N   ILE B 698     -26.012 -25.764  -0.169  1.00 11.32 LIG-0.35  N 
ATOM     26 H    ILE B 698     -26.524 -25.892  -0.849  1.00 11.32 LIG 0.16  HD
ATOM     27  C   ACE B 697     -26.336 -24.971   0.848  1.00 12.73 LIG 0.21  C 
ATOM     28  CH3 ACE B 697     -27.681 -24.280   0.775  1.00 14.28 LIG 0.12  C 
ATOM     29 O    ACE B 697     -25.566 -24.797   1.795  1.00 13.22 LIG-0.27  OA
ENDBRANCH 20 25
ENDBRANCH 17 20
ENDBRANCH 10 16
ENDBRANCH 8 10
ENDBRANCH 5 6
BRANCH 5 30
ATOM     30  CB  SER B 700     -24.276 -20.752   2.266  1.00 19.95 LIG 0.20  C 
BRANCH 30 31
ATOM     31 OG   SER B 700     -24.392 -22.082   2.660  1.00 23.61 LIG-0.40  OA
ATOM     32 HG   SER B 700     -23.667 -22.481   2.520  1.00 23.61 LIG 0.21  HD
ENDBRANCH 30 31
ENDBRANCH 5 30
ENDBRANCH 1 5
BRANCH 3 33
ATOM     33  CA  THR B 701     -22.011 -17.456   0.009  1.00 11.25 LIG 0.20  C 
BRANCH 33 34
ATOM     34  CB  THR B 701     -22.215 -17.008  -1.444  1.00 12.39 LIG 0.15  C 
ATOM     35  CG2 THR B 701     -21.422 -15.742  -1.713  1.00 12.07 LIG 0.04  C 
BRANCH 34 36
ATOM     36 OG1  THR B 701     -21.789 -18.029  -2.360  1.00 13.39 LIG-0.39  OA
ATOM     37 HG1  THR B 701     -21.441 -17.672  -3.036  1.00 13.39 LIG 0.21  HD
ENDBRANCH 34 36
ENDBRANCH 33 34
BRANCH 33 38
ATOM     38  C   THR B 701     -22.104 -16.228   0.907  1.00 11.24 LIG 0.24  C 
ATOM     39 O    THR B 701     -22.970 -15.383   0.696  1.00 11.69 LIG-0.27  OA
ATOM     40  N   GLU B 702     -21.211 -16.112   1.892  1.00 12.56 LIG-0.35  N 
ATOM     41 H    GLU B 702     -20.631 -16.716   2.090  1.00 12.56 LIG 0.16  HD
BRANCH 40 42
ATOM     42  CA  GLU B 702     -21.153 -14.919   2.727  1.00 14.77 LIG 0.18  C 
BRANCH 42 43
ATOM     43  CB  GLU B 702     -22.266 -14.945   3.772  1.00 19.79 LIG 0.04  C 
BRANCH 43 44
ATOM     44  CG  GLU B 702     -21.892 -15.729   5.044  1.00 26.45 LIG 0.12  C 
BRANCH 44 45
ATOM     45  CD  GLU B 702     -23.099 -16.157   5.859  1.00 32.08 LIG 0.17  C 
ATOM     46 OE1  GLU B 702     -23.317 -15.584   6.961  1.00 34.05 LIG-0.65  OA
ATOM     47 OE2  GLU B 702     -23.840 -17.061   5.397  1.00 34.63 LIG-0.65  OA
ENDBRANCH 44 45
ENDBRANCH 43 44
ENDBRANCH 42 43
BRANCH 42 48
ATOM     48  C   GLU B 702     -19.802 -14.836   3.424  1.00 15.13 LIG 0.24  C 
ATOM     49 O    GLU B 702     -19.061 -15.821   3.484  1.00 15.63 LIG-0.27  OA
ATOM     50  N   ILE B 703     -19.502 -13.658   3.940  1.00 14.66 LIG-0.34  N 
ATOM     51 H    ILE B 703     -20.061 -13.003   3.943  1.00 14.66 LIG 0.16  HD
BRANCH 50 52
ATOM     52  CA  ILE B 703     -18.228 -13.313   4.557  1.00 17.51 LIG 0.19  C 
BRANCH 52 53
ATOM     53  CB  ILE B 703     -17.113 -13.312   3.472  1.00 19.83 LIG 0.01  C 
ATOM     54  CG2 ILE B 703     -16.395 -11.975   3.446  1.00 22.74 LIG 0.01  C 
BRANCH 53 55
ATOM     55  CG1 ILE B 703     -16.154 -14.499   3.639  1.00 21.87 LIG 0.00  C 
ATOM     56  CD1 ILE B 703     -16.189 -15.161   4.956  1.00 23.51 LIG 0.01  C 
ENDBRANCH 53 55
ENDBRANCH 52 53
BRANCH 52 57
ATOM     57  C   ILE B 703     -18.304 -11.913   5.169  1.00 19.18 LIG 0.20  C 
ATOM     58 OXT  ILE B 703     -17.571 -11.622   6.149  1.00 18.49 LIG-0.65  OA
ATOM     59 O    ILE B 703     -19.125 -11.073   4.752  1.00 21.53 LIG-0.65  OA
ENDBRANCH 52 57
ENDBRANCH 50 52
ENDBRANCH 42 48
ENDBRANCH 40 42
ENDBRANCH 33 38
ENDBRANCH 3 33
TORSDOF 26
ENDMDL
MODEL 4
USER: ADFR SOLUTION from run 124
USER: SCORE 21.015565 LL:  -4.792 LR: -18.423 RR:   0.000 FEB: -10.668
USER: RMSD 12.356876
USER: SEED 123
USER: STATUS no improvement in best in 2 clusters for 5 generations
USER: GENES 28
USER: genes 0 Translation |==|  0.54132 0.64725 0.51307
USER: genes 1 Rotation |==|  0.77323 0.26643 0.80014 0.67524
USER: genes 2 Torsion [N]-C--CA-[N] |==|  0.12039
USER: genes 3 Torsion [C]-CA--N-[C] |==|  0.14303
USER: genes 4 Torsion [N]-C--CA-[N] |==|  0.90420
USER: genes 5 Torsion [C]-CA--CB-[CG] |==|  0.88241
USER: genes 6 Torsion [CA]-CB--CG-[CD] |==|  0.80194
USER: genes 7 Torsion [CB]-CG--CD-[OE1] |==|  0.34734
USER: genes 8 Torsion [C]-CA--N-[C] |==|  0.55060
USER: genes 9 Torsion [N]-C--CA-[N] |==|  0.90957
USER: genes 10 Torsion [C]-CA--CB-[CG2] |==|  0.10561
USER: genes 11 Torsion [CA]-CB--CG1-[CD1] |==|  0.58565
USER: genes 12 Torsion [C]-CA--N-[C] |==|  0.84760
USER: genes 13 Torsion [C]-CA--CB-[OG] |==|  0.61747
USER: genes 14 Torsion [CA]-CB--OG-[HG] |==|  0.17553
USER: genes 15 Torsion [C]-N--CA-[C] |==|  0.53926
USER: genes 16 Torsion [N]-CA--CB-[CG2] |==|  0.19042
USER: genes 17 Torsion [CA]-CB--OG1-[HG1] |==|  0.33285
USER: genes 18 Torsion [N]-CA--C-[N] |==|  0.40842
USER: genes 19 Torsion [C]-N--CA-[C] |==|  0.54044
USER: genes 20 Torsion [N]-CA--CB-[CG] |==|  0.71853
USER: genes 21 Torsion [CA]-CB--CG-[CD] |==|  0.46884
USER: genes 22 Torsion [CB]-CG--CD-[OE1] |==|  0.83274
USER: genes 23 Torsion [N]-CA--C-[N] |==|  0.21595
USER: genes 24 Torsion [C]-N--CA-[CB] |==|  0.48693
USER: genes 25 Torsion [N]-CA--CB-[CG2] |==|  0.42576
USER: genes 26 Torsion [CA]-CB--CG1-[CD1] |==|  0.08842
USER: genes 27 Torsion [N]-CA--C-[OXT] |==|  0.90846
ROOT
ATOM      1  C   SER B 700     -19.761 -12.407   1.115  1.00 12.42 LIG 0.24  C 
ATOM      2 O    SER B 700     -20.061 -12.707  -0.043  1.00 14.21 LIG-0.27  OA
ATOM      3  N   THR B 701     -20.201 -13.071   2.185  1.00 11.45 LIG-0.34  N 
ATOM      4 H    THR B 701     -20.030 -12.843   2.996  1.00 11.45 LIG 0.16  HD
ENDROOT
BRANCH 1 5
ATOM      5  CA  SER B 700     -18.797 -11.264   1.393  1.00 12.28 LIG 0.20  C 
BRANCH 5 6
ATOM      6  N   SER B 700     -17.822 -11.684   2.390  1.00 11.50 LIG-0.34  N 
ATOM      7 H    SER B 700     -17.734 -11.152   3.058  1.00 11.50 LIG 0.16  HD
ATOM      8  C   GLU B 699     -17.141 -12.817   2.233  1.00 10.99 LIG 0.24  C 
ATOM      9 O    GLU B 699     -17.338 -13.587   1.296  1.00 12.44 LIG-0.27  OA
BRANCH 8 10
ATOM     10  CA  GLU B 699     -16.079 -13.110   3.278  1.00 11.42 LIG 0.18  C 
BRANCH 10 11
ATOM     11  CB  GLU B 699     -16.749 -13.835   4.452  1.00 13.76 LIG 0.04  C 
BRANCH 11 12
ATOM     12  CG  GLU B 699     -18.099 -13.242   4.839  1.00 17.93 LIG 0.12  C 
BRANCH 12 13
ATOM     13  CD  GLU B 699     -18.011 -11.877   5.520  1.00 21.63 LIG 0.17  C 
ATOM     14 OE2  GLU B 699     -17.291 -11.777   6.517  1.00 23.04 LIG-0.65  OA
ATOM     15 OE1  GLU B 699     -18.632 -10.899   5.078  1.00 23.73 LIG-0.65  OA
ENDBRANCH 12 13
ENDBRANCH 11 12
ENDBRANCH 10 11
BRANCH 10 16
ATOM     16  N   GLU B 699     -15.469 -11.861   3.713  1.00 10.55 LIG-0.35  N 
ATOM     17  C   ILE B 698     -14.291 -11.791   4.344  1.00 10.83 LIG 0.24  C 
ATOM     18 O    ILE B 698     -13.581 -12.771   4.563  1.00 12.04 LIG-0.27  OA
ATOM     19 H    GLU B 699     -15.940 -11.167   3.525  1.00 10.55 LIG 0.16  HD
BRANCH 17 20
ATOM     20  CA  ILE B 698     -13.826 -10.422   4.766  1.00 12.48 LIG 0.18  C 
BRANCH 20 21
ATOM     21  CB  ILE B 698     -14.371 -10.086   6.168  1.00 12.07 LIG 0.01  C 
ATOM     22  CG2 ILE B 698     -14.362 -11.317   7.062  1.00 12.44 LIG 0.01  C 
BRANCH 21 23
ATOM     23  CG1 ILE B 698     -13.573  -8.944   6.814  1.00 16.16 LIG 0.00  C 
ATOM     24  CD1 ILE B 698     -13.474  -8.983   8.306  1.00 20.65 LIG 0.01  C 
ENDBRANCH 21 23
ENDBRANCH 20 21
BRANCH 20 25
ATOM     25  N   ILE B 698     -14.306  -9.449   3.790  1.00 11.32 LIG-0.35  N 
ATOM     26 H    ILE B 698     -14.762  -8.808   4.137  1.00 11.32 LIG 0.16  HD
ATOM     27  C   ACE B 697     -14.061  -9.547   2.486  1.00 12.73 LIG 0.21  C 
ATOM     28  CH3 ACE B 697     -14.622  -8.453   1.603  1.00 14.28 LIG 0.12  C 
ATOM     29 O    ACE B 697     -13.421 -10.493   2.024  1.00 13.22 LIG-0.27  OA
ENDBRANCH 20 25
ENDBRANCH 17 20
ENDBRANCH 10 16
ENDBRANCH 8 10
ENDBRANCH 5 6
BRANCH 5 30
ATOM     30  CB  SER B 700     -18.141 -10.740   0.111  1.00 19.95 LIG 0.20  C 
BRANCH 30 31
ATOM     31 OG   SER B 700     -16.783 -10.491   0.283  1.00 23.61 LIG-0.40  OA
ATOM     32 HG   SER B 700     -16.386 -11.209   0.463  1.00 23.61 LIG 0.21  HD
ENDBRANCH 30 31
ENDBRANCH 5 30
ENDBRANCH 1 5
BRANCH 3 33
ATOM     33  CA  THR B 701     -21.022 -14.259   2.055  1.00 11.25 LIG 0.20  C 
BRANCH 33 34
ATOM     34  CB  THR B 701     -20.152 -15.445   1.619  1.00 12.39 LIG 0.15  C 
ATOM     35  CG2 THR B 701     -19.207 -15.835   2.741  1.00 12.07 LIG 0.04  C 
BRANCH 34 36
ATOM     36 OG1  THR B 701     -20.963 -16.579   1.277  1.00 13.39 LIG-0.39  OA
ATOM     37 HG1  THR B 701     -20.827 -16.790   0.475  1.00 13.39 LIG 0.21  HD
ENDBRANCH 34 36
ENDBRANCH 33 34
BRANCH 33 38
ATOM     38  C   THR B 701     -21.660 -14.600   3.397  1.00 11.24 LIG 0.24  C 
ATOM     39 O    THR B 701     -21.048 -14.375   4.437  1.00 11.69 LIG-0.27  OA
ATOM     40  N   GLU B 702     -22.873 -15.156   3.381  1.00 12.56 LIG-0.35  N 
ATOM     41 H    GLU B 702     -23.341 -15.273   2.670  1.00 12.56 LIG 0.16  HD
BRANCH 40 42
ATOM     42  CA  GLU B 702     -23.512 -15.617   4.608  1.00 14.77 LIG 0.18  C 
BRANCH 42 43
ATOM     43  CB  GLU B 702     -23.989 -14.430   5.440  1.00 19.79 LIG 0.04  C 
BRANCH 43 44
ATOM     44  CG  GLU B 702     -23.054 -14.093   6.617  1.00 26.45 LIG 0.12  C 
BRANCH 44 45
ATOM     45  CD  GLU B 702     -23.375 -12.764   7.275  1.00 32.08 LIG 0.17  C 
ATOM     46 OE1  GLU B 702     -23.316 -11.715   6.577  1.00 34.05 LIG-0.65  OA
ATOM     47 OE2  GLU B 702     -23.699 -12.763   8.490  1.00 34.63 LIG-0.65  OA
ENDBRANCH 44 45
ENDBRANCH 43 44
ENDBRANCH 42 43
BRANCH 42 48
ATOM     48  C   GLU B 702     -24.695 -16.514   4.274  1.00 15.13 LIG 0.24  C 
ATOM     49 O    GLU B 702     -25.851 -16.086   4.342  1.00 15.63 LIG-0.27  OA
ATOM     50  N   ILE B 703     -24.389 -17.748   3.917  1.00 14.66 LIG-0.34  N 
ATOM     51 H    ILE B 703     -23.581 -18.044   3.939  1.00 14.66 LIG 0.16  HD
BRANCH 50 52
ATOM     52  CA  ILE B 703     -25.342 -18.748   3.454  1.00 17.51 LIG 0.19  C 
BRANCH 52 53
ATOM     53  CB  ILE B 703     -24.574 -20.030   3.021  1.00 19.83 LIG 0.01  C 
ATOM     54  CG2 ILE B 703     -25.459 -21.256   3.162  1.00 22.74 LIG 0.01  C 
BRANCH 53 55
ATOM     55  CG1 ILE B 703     -23.976 -19.889   1.614  1.00 21.87 LIG 0.00  C 
ATOM     56  CD1 ILE B 703     -23.564 -18.525   1.235  1.00 23.51 LIG 0.01  C 
ENDBRANCH 53 55
ENDBRANCH 52 53
BRANCH 52 57
ATOM     57  C   ILE B 703     -26.302 -19.122   4.584  1.00 19.18 LIG 0.20  C 
ATOM     58 OXT  ILE B 703     -25.893 -19.118   5.773  1.00 18.49 LIG-0.65  OA
ATOM     59 O    ILE B 703     -27.468 -19.491   4.342  1.00 21.53 LIG-0.65  OA
ENDBRANCH 52 57
ENDBRANCH 50 52
ENDBRANCH 42 48
ENDBRANCH 40 42
ENDBRANCH 33 38
ENDBRANCH 3 33
TORSDOF 26
ENDMDL
MODEL 5
USER: ADFR SOLUTION from run 91
USER: SCORE 19.826172 LL:  -3.695 LR: -18.088 RR:   0.000 FEB: -10.332
USER: RMSD 5.099184
USER: SEED 90
USER: STATUS 1 or 2 clusters left
USER: GENES 28
USER: genes 0 Translation |==|  0.43168 0.39324 0.43154
USER: genes 1 Rotation |==|  0.62157 0.94927 0.62401 0.63415
USER: genes 2 Torsion [N]-C--CA-[N] |==|  0.71614
USER: genes 3 Torsion [C]-CA--N-[C] |==|  0.17244
USER: genes 4 Torsion [N]-C--CA-[N] |==|  0.86140
USER: genes 5 Torsion [C]-CA--CB-[CG] |==|  0.45228
USER: genes 6 Torsion [CA]-CB--CG-[CD] |==|  0.84003
USER: genes 7 Torsion [CB]-CG--CD-[OE1] |==|  0.94289
USER: genes 8 Torsion [C]-CA--N-[C] |==|  0.85394
USER: genes 9 Torsion [N]-C--CA-[N] |==|  0.41335
USER: genes 10 Torsion [C]-CA--CB-[CG2] |==|  0.06301
USER: genes 11 Torsion [CA]-CB--CG1-[CD1] |==|  0.46485
USER: genes 12 Torsion [C]-CA--N-[C] |==|  0.83041
USER: genes 13 Torsion [C]-CA--CB-[OG] |==|  0.54395
USER: genes 14 Torsion [CA]-CB--OG-[HG] |==|  0.43907
USER: genes 15 Torsion [C]-N--CA-[C] |==|  0.75401
USER: genes 16 Torsion [N]-CA--CB-[CG2] |==|  0.51183
USER: genes 17 Torsion [CA]-CB--OG1-[HG1] |==|  0.81899
USER: genes 18 Torsion [N]-CA--C-[N] |==|  0.34811
USER: genes 19 Torsion [C]-N--CA-[C] |==|  0.47778
USER: genes 20 Torsion [N]-CA--CB-[CG] |==|  0.41744
USER: genes 21 Torsion [CA]-CB--CG-[CD] |==|  0.47861
USER: genes 22 Torsion [CB]-CG--CD-[OE1] |==|  0.33946
USER: genes 23 Torsion [N]-CA--C-[N] |==|  0.41897
USER: genes 24 Torsion [C]-N--CA-[CB] |==|  0.15583
USER: genes 25 Torsion [N]-CA--CB-[CG2] |==|  0.21481
USER: genes 26 Torsion [CA]-CB--CG1-[CD1] |==|  0.64460
USER: genes 27 Torsion [N]-CA--C-[OXT] |==|  0.92808
ROOT
ATOM      1  C   SER B 700     -22.228 -19.456  -0.231  1.00 12.42 LIG 0.24  C 
ATOM      2 O    SER B 700     -21.132 -19.552   0.324  1.00 14.21 LIG-0.27  OA
ATOM      3  N   THR B 701     -22.700 -18.316  -0.737  1.00 11.45 LIG-0.34  N 
ATOM      4 H    THR B 701     -23.480 -18.231  -1.088  1.00 11.45 LIG 0.16  HD
ENDROOT
BRANCH 1 5
ATOM      5  CA  SER B 700     -23.106 -20.682  -0.428  1.00 12.28 LIG 0.20  C 
BRANCH 5 6
ATOM      6  N   SER B 700     -23.813 -20.977   0.810  1.00 11.50 LIG-0.34  N 
ATOM      7 H    SER B 700     -23.630 -21.741   1.159  1.00 11.50 LIG 0.16  HD
ATOM      8  C   GLU B 699     -24.669 -20.099   1.325  1.00 10.99 LIG 0.24  C 
ATOM      9 O    GLU B 699     -24.859 -18.989   0.834  1.00 12.44 LIG-0.27  OA
BRANCH 8 10
ATOM     10  CA  GLU B 699     -25.426 -20.547   2.563  1.00 11.42 LIG 0.18  C 
BRANCH 10 11
ATOM     11  CB  GLU B 699     -24.441 -20.591   3.738  1.00 13.76 LIG 0.04  C 
BRANCH 11 12
ATOM     12  CG  GLU B 699     -25.124 -20.617   5.100  1.00 17.93 LIG 0.12  C 
BRANCH 12 13
ATOM     13  CD  GLU B 699     -26.056 -19.434   5.356  1.00 21.63 LIG 0.17  C 
ATOM     14 OE2  GLU B 699     -26.913 -19.557   6.235  1.00 23.04 LIG-0.65  OA
ATOM     15 OE1  GLU B 699     -25.947 -18.381   4.710  1.00 23.73 LIG-0.65  OA
ENDBRANCH 12 13
ENDBRANCH 11 12
ENDBRANCH 10 11
BRANCH 10 16
ATOM     16  N   GLU B 699     -26.014 -21.858   2.323  1.00 10.55 LIG-0.35  N 
ATOM     17  C   ILE B 698     -26.786 -22.145   1.269  1.00 10.83 LIG 0.24  C 
ATOM     18 O    ILE B 698     -27.023 -21.343   0.366  1.00 12.04 LIG-0.27  OA
ATOM     19 H    GLU B 699     -25.817 -22.436   2.929  1.00 10.55 LIG 0.16  HD
BRANCH 17 20
ATOM     20  CA  ILE B 698     -27.351 -23.539   1.198  1.00 12.48 LIG 0.18  C 
BRANCH 20 21
ATOM     21  CB  ILE B 698     -26.387 -24.463   0.427  1.00 12.07 LIG 0.01  C 
ATOM     22  CG2 ILE B 698     -24.970 -23.909   0.451  1.00 12.44 LIG 0.01  C 
BRANCH 21 23
ATOM     23  CG1 ILE B 698     -26.418 -25.891   0.990  1.00 16.16 LIG 0.00  C 
ATOM     24  CD1 ILE B 698     -25.757 -26.936   0.149  1.00 20.65 LIG 0.01  C 
ENDBRANCH 21 23
ENDBRANCH 20 21
BRANCH 20 25
ATOM     25  N   ILE B 698     -28.643 -23.480   0.523  1.00 11.32 LIG-0.35  N 
ATOM     26 H    ILE B 698     -28.675 -23.939  -0.204  1.00 11.32 LIG 0.16  HD
ATOM     27  C   ACE B 697     -29.675 -22.781   0.989  1.00 12.73 LIG 0.21  C 
ATOM     28  CH3 ACE B 697     -30.952 -22.826   0.178  1.00 14.28 LIG 0.12  C 
ATOM     29 O    ACE B 697     -29.583 -22.118   2.024  1.00 13.22 LIG-0.27  OA
ENDBRANCH 20 25
ENDBRANCH 17 20
ENDBRANCH 10 16
ENDBRANCH 8 10
ENDBRANCH 5 6
BRANCH 5 30
ATOM     30  CB  SER B 700     -24.052 -20.525  -1.624  1.00 19.95 LIG 0.20  C 
BRANCH 30 31
ATOM     31 OG   SER B 700     -25.081 -21.462  -1.602  1.00 23.61 LIG-0.40  OA
ATOM     32 HG   SER B 700     -25.725 -21.182  -2.064  1.00 23.61 LIG 0.21  HD
ENDBRANCH 30 31
ENDBRANCH 5 30
ENDBRANCH 1 5
BRANCH 3 33
ATOM     33  CA  THR B 701     -21.909 -17.100  -0.731  1.00 11.25 LIG 0.20  C 
BRANCH 33 34
ATOM     34  CB  THR B 701     -22.334 -16.201  -1.900  1.00 12.39 LIG 0.15  C 
ATOM     35  CG2 THR B 701     -21.441 -14.976  -1.964  1.00 12.07 LIG 0.04  C 
BRANCH 34 36
ATOM     36 OG1  THR B 701     -22.248 -16.907  -3.148  1.00 13.39 LIG-0.39  OA
ATOM     37 HG1  THR B 701     -21.445 -17.096  -3.309  1.00 13.39 LIG 0.21  HD
ENDBRANCH 34 36
ENDBRANCH 33 34
BRANCH 33 38
ATOM     38  C   THR B 701     -22.138 -16.335   0.568  1.00 11.24 LIG 0.24  C 
ATOM     39 O    THR B 701     -23.279 -16.023   0.898  1.00 11.69 LIG-0.27  OA
ATOM     40  N   GLU B 702     -21.066 -16.017   1.295  1.00 12.56 LIG-0.35  N 
ATOM     41 H    GLU B 702     -20.266 -16.271   1.111  1.00 12.56 LIG 0.16  HD
BRANCH 40 42
ATOM     42  CA  GLU B 702     -21.179 -15.192   2.492  1.00 14.77 LIG 0.18  C 
BRANCH 42 43
ATOM     43  CB  GLU B 702     -22.258 -15.743   3.420  1.00 19.79 LIG 0.04  C 
BRANCH 43 44
ATOM     44  CG  GLU B 702     -21.989 -15.456   4.909  1.00 26.45 LIG 0.12  C 
BRANCH 44 45
ATOM     45  CD  GLU B 702     -23.148 -15.838   5.811  1.00 32.08 LIG 0.17  C 
ATOM     46 OE1  GLU B 702     -22.941 -16.666   6.741  1.00 34.05 LIG-0.65  OA
ATOM     47 OE2  GLU B 702     -24.267 -15.306   5.602  1.00 34.63 LIG-0.65  OA
ENDBRANCH 44 45
ENDBRANCH 43 44
ENDBRANCH 42 43
BRANCH 42 48
ATOM     48  C   GLU B 702     -19.846 -15.154   3.226  1.00 15.13 LIG 0.24  C 
ATOM     49 O    GLU B 702     -19.060 -16.103   3.158  1.00 15.63 LIG-0.27  OA
ATOM     50  N   ILE B 703     -19.611 -14.054   3.919  1.00 14.66 LIG-0.34  N 
ATOM     51 H    ILE B 703     -20.200 -13.433   4.004  1.00 14.66 LIG 0.16  HD
BRANCH 50 52
ATOM     52  CA  ILE B 703     -18.366 -13.749   4.611  1.00 17.51 LIG 0.19  C 
BRANCH 52 53
ATOM     53  CB  ILE B 703     -17.185 -13.812   3.600  1.00 19.83 LIG 0.01  C 
ATOM     54  CG2 ILE B 703     -17.151 -12.562   2.740  1.00 22.74 LIG 0.01  C 
BRANCH 53 55
ATOM     55  CG1 ILE B 703     -15.848 -14.088   4.302  1.00 21.87 LIG 0.00  C 
ATOM     56  CD1 ILE B 703     -14.759 -13.147   3.983  1.00 23.51 LIG 0.01  C 
ENDBRANCH 53 55
ENDBRANCH 52 53
BRANCH 52 57
ATOM     57  C   ILE B 703     -18.423 -12.336   5.195  1.00 19.18 LIG 0.20  C 
ATOM     58 OXT  ILE B 703     -19.172 -11.475   4.666  1.00 18.49 LIG-0.65  OA
ATOM     59 O    ILE B 703     -17.693 -12.005   6.149  1.00 21.53 LIG-0.65  OA
ENDBRANCH 52 57
ENDBRANCH 50 52
ENDBRANCH 42 48
ENDBRANCH 40 42
ENDBRANCH 33 38
ENDBRANCH 3 33
TORSDOF 26
ENDMDL
MODEL 6
USER: ADFR SOLUTION from run 183
USER: SCORE 21.247642 LL:  -4.286 LR: -17.983 RR:   0.000 FEB: -10.227
USER: RMSD 13.167710
USER: SEED 182
USER: STATUS no improvement in best in 11 clusters for 5 generations
USER: GENES 28
USER: genes 0 Translation |==|  0.48535 0.52822 0.51231
USER: genes 1 Rotation |==|  0.90572 0.21117 0.47524 0.53681
USER: genes 2 Torsion [N]-C--CA-[N] |==|  0.44049
USER: genes 3 Torsion [C]-CA--N-[C] |==|  0.55921
USER: genes 4 Torsion [N]-C--CA-[N] |==|  0.47656
USER: genes 5 Torsion [C]-CA--CB-[CG] |==|  0.24945
USER: genes 6 Torsion [CA]-CB--CG-[CD] |==|  0.06537
USER: genes 7 Torsion [CB]-CG--CD-[OE1] |==|  0.76513
USER: genes 8 Torsion [C]-CA--N-[C] |==|  0.56699
USER: genes 9 Torsion [N]-C--CA-[N] |==|  0.91157
USER: genes 10 Torsion [C]-CA--CB-[CG2] |==|  0.97764
USER: genes 11 Torsion [CA]-CB--CG1-[CD1] |==|  0.80115
USER: genes 12 Torsion [C]-CA--N-[C] |==|  0.65556
USER: genes 13 Torsion [C]-CA--CB-[OG] |==|  0.87428
USER: genes 14 Torsion [CA]-CB--OG-[HG] |==|  0.20821
USER: genes 15 Torsion [C]-N--CA-[C] |==|  0.61244
USER: genes 16 Torsion [N]-CA--CB-[CG2] |==|  0.75900
USER: genes 17 Torsion [CA]-CB--OG1-[HG1] |==|  0.55297
USER: genes 18 Torsion [N]-CA--C-[N] |==|  0.31129
USER: genes 19 Torsion [C]-N--CA-[C] |==|  0.80493
USER: genes 20 Torsion [N]-CA--CB-[CG] |==|  0.72491
USER: genes 21 Torsion [CA]-CB--CG-[CD] |==|  0.35541
USER: genes 22 Torsion [CB]-CG--CD-[OE1] |==|  0.73453
USER: genes 23 Torsion [N]-CA--C-[N] |==|  0.40625
USER: genes 24 Torsion [C]-N--CA-[CB] |==|  0.28448
USER: genes 25 Torsion [N]-CA--CB-[CG2] |==|  0.51348
USER: genes 26 Torsion [CA]-CB--CG1-[CD1] |==|  0.83621
USER: genes 27 Torsion [N]-CA--C-[OXT] |==|  0.49204
ROOT
ATOM      1  C   SER B 700     -21.021 -15.710   1.102  1.00 12.42 LIG 0.24  C 
ATOM      2 O    SER B 700     -21.946 -14.905   0.979  1.00 14.21 LIG-0.27  OA
ATOM      3  N   THR B 701     -21.107 -16.992   0.745  1.00 11.45 LIG-0.34  N 
ATOM      4 H    THR B 701     -20.481 -17.569   0.865  1.00 11.45 LIG 0.16  HD
ENDROOT
BRANCH 1 5
ATOM      5  CA  SER B 700     -19.667 -15.259   1.629  1.00 12.28 LIG 0.20  C 
BRANCH 5 6
ATOM      6  N   SER B 700     -19.552 -13.813   1.498  1.00 11.50 LIG-0.34  N 
ATOM      7 H    SER B 700     -20.300 -13.394   1.433  1.00 11.50 LIG 0.16  HD
ATOM      8  C   GLU B 699     -18.357 -13.229   1.484  1.00 10.99 LIG 0.24  C 
ATOM      9 O    GLU B 699     -17.310 -13.853   1.642  1.00 12.44 LIG-0.27  OA
BRANCH 8 10
ATOM     10  CA  GLU B 699     -18.346 -11.731   1.242  1.00 11.42 LIG 0.18  C 
BRANCH 10 11
ATOM     11  CB  GLU B 699     -18.814 -11.473  -0.195  1.00 13.76 LIG 0.04  C 
BRANCH 11 12
ATOM     12  CG  GLU B 699     -20.323 -11.294  -0.318  1.00 17.93 LIG 0.12  C 
BRANCH 12 13
ATOM     13  CD  GLU B 699     -21.007 -10.842   0.972  1.00 21.63 LIG 0.17  C 
ATOM     14 OE2  GLU B 699     -21.221  -9.636   1.117  1.00 23.04 LIG-0.65  OA
ATOM     15 OE1  GLU B 699     -21.346 -11.662   1.838  1.00 23.73 LIG-0.65  OA
ENDBRANCH 12 13
ENDBRANCH 11 12
ENDBRANCH 10 11
BRANCH 10 16
ATOM     16  N   GLU B 699     -17.000 -11.215   1.453  1.00 10.55 LIG-0.35  N 
ATOM     17  C   ILE B 698     -16.733  -9.945   1.776  1.00 10.83 LIG 0.24  C 
ATOM     18 O    ILE B 698     -17.605  -9.102   1.986  1.00 12.04 LIG-0.27  OA
ATOM     19 H    GLU B 699     -16.386 -11.810   1.351  1.00 10.55 LIG 0.16  HD
BRANCH 17 20
ATOM     20  CA  ILE B 698     -15.282  -9.567   1.913  1.00 12.48 LIG 0.18  C 
BRANCH 20 21
ATOM     21  CB  ILE B 698     -14.721  -9.112   0.551  1.00 12.07 LIG 0.01  C 
ATOM     22  CG2 ILE B 698     -15.730  -9.363  -0.561  1.00 12.44 LIG 0.01  C 
BRANCH 21 23
ATOM     23  CG1 ILE B 698     -14.314  -7.632   0.585  1.00 16.16 LIG 0.00  C 
ATOM     24  CD1 ILE B 698     -15.440  -6.649   0.634  1.00 20.65 LIG 0.01  C 
ENDBRANCH 21 23
ENDBRANCH 20 21
BRANCH 20 25
ATOM     25  N   ILE B 698     -14.545 -10.729   2.400  1.00 11.32 LIG-0.35  N 
ATOM     26 H    ILE B 698     -14.636 -11.427   1.907  1.00 11.32 LIG 0.16  HD
ATOM     27  C   ACE B 697     -13.802 -10.708   3.504  1.00 12.73 LIG 0.21  C 
ATOM     28  CH3 ACE B 697     -13.093 -11.993   3.874  1.00 14.28 LIG 0.12  C 
ATOM     29 O    ACE B 697     -13.714  -9.692   4.197  1.00 13.22 LIG-0.27  OA
ENDBRANCH 20 25
ENDBRANCH 17 20
ENDBRANCH 10 16
ENDBRANCH 8 10
ENDBRANCH 5 6
BRANCH 5 30
ATOM     30  CB  SER B 700     -19.419 -15.742   3.062  1.00 19.95 LIG 0.20  C 
BRANCH 30 31
ATOM     31 OG   SER B 700     -20.529 -15.546   3.879  1.00 23.61 LIG-0.40  OA
ATOM     32 HG   SER B 700     -21.117 -16.118   3.697  1.00 23.61 LIG 0.21  HD
ENDBRANCH 30 31
ENDBRANCH 5 30
ENDBRANCH 1 5
BRANCH 3 33
ATOM     33  CA  THR B 701     -22.298 -17.522   0.109  1.00 11.25 LIG 0.20  C 
BRANCH 33 34
ATOM     34  CB  THR B 701     -22.064 -17.652  -1.402  1.00 12.39 LIG 0.15  C 
ATOM     35  CG2 THR B 701     -22.398 -16.343  -2.093  1.00 12.07 LIG 0.04  C 
BRANCH 34 36
ATOM     36 OG1  THR B 701     -20.697 -17.992  -1.682  1.00 13.39 LIG-0.39  OA
ATOM     37 HG1  THR B 701     -20.520 -17.807  -2.482  1.00 13.39 LIG 0.21  HD
ENDBRANCH 34 36
ENDBRANCH 33 34
BRANCH 33 38
ATOM     38  C   THR B 701     -22.613 -18.906   0.665  1.00 11.24 LIG 0.24  C 
ATOM     39 O    THR B 701     -21.869 -19.849   0.411  1.00 11.69 LIG-0.27  OA
ATOM     40  N   GLU B 702     -23.716 -19.038   1.406  1.00 12.56 LIG-0.35  N 
ATOM     41 H    GLU B 702     -24.220 -18.383   1.640  1.00 12.56 LIG 0.16  HD
BRANCH 40 42
ATOM     42  CA  GLU B 702     -24.155 -20.343   1.885  1.00 14.77 LIG 0.18  C 
BRANCH 42 43
ATOM     43  CB  GLU B 702     -25.262 -20.184   2.924  1.00 19.79 LIG 0.04  C 
BRANCH 43 44
ATOM     44  CG  GLU B 702     -24.759 -20.292   4.375  1.00 26.45 LIG 0.12  C 
BRANCH 44 45
ATOM     45  CD  GLU B 702     -25.188 -19.125   5.246  1.00 32.08 LIG 0.17  C 
ATOM     46 OE1  GLU B 702     -24.390 -18.159   5.398  1.00 34.05 LIG-0.65  OA
ATOM     47 OE2  GLU B 702     -26.329 -19.162   5.773  1.00 34.63 LIG-0.65  OA
ENDBRANCH 44 45
ENDBRANCH 43 44
ENDBRANCH 42 43
BRANCH 42 48
ATOM     48  C   GLU B 702     -24.664 -21.182   0.722  1.00 15.13 LIG 0.24  C 
ATOM     49 O    GLU B 702     -25.243 -20.653  -0.232  1.00 15.63 LIG-0.27  OA
ATOM     50  N   ILE B 703     -24.441 -22.480   0.818  1.00 14.66 LIG-0.34  N 
ATOM     51 H    ILE B 703     -24.094 -22.834   1.521  1.00 14.66 LIG 0.16  HD
BRANCH 50 52
ATOM     52  CA  ILE B 703     -24.742 -23.461  -0.217  1.00 17.51 LIG 0.19  C 
BRANCH 52 53
ATOM     53  CB  ILE B 703     -23.428 -23.854  -0.951  1.00 19.83 LIG 0.01  C 
ATOM     54  CG2 ILE B 703     -23.723 -24.785  -2.113  1.00 22.74 LIG 0.01  C 
BRANCH 53 55
ATOM     55  CG1 ILE B 703     -22.618 -22.618  -1.371  1.00 21.87 LIG 0.00  C 
ATOM     56  CD1 ILE B 703     -23.315 -21.679  -2.268  1.00 23.51 LIG 0.01  C 
ENDBRANCH 53 55
ENDBRANCH 52 53
BRANCH 52 57
ATOM     57  C   ILE B 703     -25.335 -24.722   0.413  1.00 19.18 LIG 0.20  C 
ATOM     58 OXT  ILE B 703     -25.711 -25.668  -0.325  1.00 18.49 LIG-0.65  OA
ATOM     59 O    ILE B 703     -25.509 -24.804   1.645  1.00 21.53 LIG-0.65  OA
ENDBRANCH 52 57
ENDBRANCH 50 52
ENDBRANCH 42 48
ENDBRANCH 40 42
ENDBRANCH 33 38
ENDBRANCH 3 33
TORSDOF 26
ENDMDL
