MODEL 1
USER: ADFR SOLUTION from run 7
USER: SCORE 18.444899 LL:  -4.835 LR: -16.317 RR:   0.000 FEB:  -8.860
USER: RMSD 6.261277
USER: SEED 657966
USER: STATUS no improvement in best in 5 clusters for 5 generations
USER: GENES 27
USER: genes 0 Translation |==|  0.64384 0.39515 0.56797
USER: genes 1 Rotation |==|  0.70200 0.13401 0.29632 0.68374
USER: genes 2 Torsion [N]-C--CA-[N] |==|  0.87440
USER: genes 3 Torsion [C]-CA--N-[C] |==|  0.79733
USER: genes 4 Torsion [N]-C--CA-[N] |==|  0.20744
USER: genes 5 Torsion [C]-CA--CB-[CG] |==|  0.44854
USER: genes 6 Torsion [CA]-CB--CG-[CD] |==|  0.62142
USER: genes 7 Torsion [CB]-CG--CD-[NE] |==|  0.30940
USER: genes 8 Torsion [CG]-CD--NE-[HE] |==|  0.81360
USER: genes 9 Torsion [C]-CA--N-[C] |==|  0.76283
USER: genes 10 Torsion [N]-C--CA-[N] |==|  0.57375
USER: genes 11 Torsion [C]-CA--N-[C] |==|  0.14828
USER: genes 12 Torsion [C]-CA--CB-[CG2] |==|  0.60081
USER: genes 13 Torsion [CA]-CB--OG1-[HG1] |==|  0.19639
USER: genes 14 Torsion [C]-N--CA-[CB] |==|  0.75889
USER: genes 15 Torsion [N]-CA--CB-[CG] |==|  0.58001
USER: genes 16 Torsion [CA]-CB--CG-[CD] |==|  0.37657
USER: genes 17 Torsion [CB]-CG--CD-[OE2] |==|  0.11698
USER: genes 18 Torsion [N]-CA--C-[N] |==|  0.20210
USER: genes 19 Torsion [C]-N--CA-[CB] |==|  0.80556
USER: genes 20 Torsion [N]-CA--C-[N] |==|  0.22981
USER: genes 21 Torsion [C]-N--CA-[C] |==|  0.21110
USER: genes 22 Torsion [N]-CA--C-[N] |==|  0.65112
USER: genes 23 Torsion [N]-CA--CB-[CG] |==|  0.84519
USER: genes 24 Torsion [CA]-CB--CG-[CD1] |==|  0.30396
USER: genes 25 Torsion [CE1]-CZ--OH-[HH] |==|  0.44754
USER: genes 26 Torsion [N]-CA--CB-[CG1] |==|  0.56465
ROOT
ATOM      1  C   THR D   3       7.064   1.459  -3.724  1.00 23.43 LIG 0.24  C 
ATOM      2 O    THR D   3       6.693   0.988  -4.799  1.00 24.39 LIG-0.27  OA
ATOM      3  N   GLU D   4       8.220   1.136  -3.151  1.00 25.01 LIG-0.35  N 
ATOM      4 H    GLU D   4       8.498   1.480  -2.413  1.00 25.01 LIG 0.16  HD
ENDROOT
BRANCH 1 5
ATOM      5  CA  THR D   3       6.188   2.465  -2.972  1.00 20.85 LIG 0.20  C 
BRANCH 5 6
ATOM      6  N   THR D   3       6.090   2.167  -1.548  1.00 20.16 LIG-0.34  N 
ATOM      7 H    THR D   3       6.533   2.704  -1.043  1.00 20.16 LIG 0.16  HD
ATOM      8  C   ARG D   2       5.372   1.146  -1.093  1.00 20.73 LIG 0.24  C 
ATOM      9 O    ARG D   2       4.784   0.352  -1.831  1.00 19.88 LIG-0.27  OA
BRANCH 8 10
ATOM     10  CA  ARG D   2       5.327   0.982   0.423  1.00 21.07 LIG 0.18  C 
BRANCH 10 11
ATOM     11  CB  ARG D   2       4.888  -0.441   0.797  1.00 18.72 LIG 0.04  C 
BRANCH 11 12
ATOM     12  CG  ARG D   2       5.236  -0.839   2.235  1.00 17.25 LIG 0.02  C 
BRANCH 12 13
ATOM     13  CD  ARG D   2       5.806  -2.255   2.310  1.00 15.57 LIG 0.14  C 
BRANCH 13 14
ATOM     14  NE  ARG D   2       7.220  -2.265   2.671  1.00 16.78 LIG-0.23  N 
ATOM     15 HE   ARG D   2       7.782  -1.938   2.108  1.00 16.78 LIG 0.18  HD
ATOM     16  CZ  ARG D   2       7.696  -2.747   3.816  1.00 18.57 LIG 0.67  C 
ATOM     17  NH2 ARG D   2       9.000  -2.716   4.060  1.00 17.94 LIG-0.23  N 
ATOM     18  NH1 ARG D   2       6.869  -3.255   4.720  1.00 16.85 LIG-0.23  N 
ATOM     19 1HH2 ARG D   2       9.540  -2.384   3.478  1.00 17.94 LIG 0.17  HD
ATOM     20 2HH2 ARG D   2       9.306  -3.028   4.800  1.00 17.94 LIG 0.17  HD
ATOM     21 2HH1 ARG D   2       7.178  -3.565   5.460  1.00 16.85 LIG 0.17  HD
ATOM     22 1HH1 ARG D   2       6.023  -3.273   4.567  1.00 16.85 LIG 0.17  HD
ENDBRANCH 13 14
ENDBRANCH 12 13
ENDBRANCH 11 12
ENDBRANCH 10 11
BRANCH 10 23
ATOM     23  N   ARG D   2       4.462   1.981   1.051  1.00 21.51 LIG-0.35  N 
ATOM     24  C   ALA D   1       4.922   3.188   1.367  1.00 21.30 LIG 0.24  C 
ATOM     25 O    ALA D   1       6.062   3.553   1.095  1.00 21.16 LIG-0.27  OA
ATOM     26 H    ARG D   2       3.655   1.719   1.192  1.00 21.51 LIG 0.16  HD
BRANCH 24 27
ATOM     27  CA  ALA D   1       3.957   4.132   2.084  1.00 21.78 LIG 0.17  C 
ATOM     28  CB  ALA D   1       2.523   3.832   1.679  1.00 21.47 LIG 0.04  C 
BRANCH 27 29
ATOM     29  N   ALA D   1       4.268   5.540   1.849  1.00 22.15 LIG-0.35  N 
ATOM     30 H    ALA D   1       4.357   5.999   2.571  1.00 22.15 LIG 0.16  HD
ATOM     31  C   ACE D   0       4.403   6.065   0.634  1.00 22.99 LIG 0.21  C 
ATOM     32 O    ACE D   0       3.925   5.581  -0.393  1.00 24.10 LIG-0.27  OA
ATOM     33  CH3 ACE D   0       4.852   7.494   0.713  1.00 21.14 LIG 0.12  C 
ENDBRANCH 27 29
ENDBRANCH 24 27
ENDBRANCH 10 23
ENDBRANCH 8 10
ENDBRANCH 5 6
BRANCH 5 34
ATOM     34  CB  THR D   3       6.718   3.893  -3.201  1.00 19.16 LIG 0.15  C 
ATOM     35  CG2 THR D   3       6.552   4.721  -1.937  1.00 17.08 LIG 0.04  C 
BRANCH 34 36
ATOM     36 OG1  THR D   3       8.108   3.843  -3.550  1.00 20.38 LIG-0.39  OA
ATOM     37 HG1  THR D   3       8.191   3.524  -4.323  1.00 20.38 LIG 0.21  HD
ENDBRANCH 34 36
ENDBRANCH 5 34
ENDBRANCH 1 5
BRANCH 3 38
ATOM     38  CA  GLU D   4       9.131   0.154  -3.732  1.00 28.82 LIG 0.18  C 
BRANCH 38 39
ATOM     39  CB  GLU D   4       8.761  -1.260  -3.274  1.00 31.32 LIG 0.04  C 
BRANCH 39 40
ATOM     40  CG  GLU D   4       9.931  -2.229  -3.211  1.00 34.96 LIG 0.12  C 
BRANCH 40 41
ATOM     41  CD  GLU D   4       9.927  -3.064  -1.945  1.00 38.68 LIG 0.17  C 
ATOM     42 OE2  GLU D   4       8.840  -3.529  -1.542  1.00 39.24 LIG-0.65  OA
ATOM     43 OE1  GLU D   4      11.009  -3.252  -1.351  1.00 40.65 LIG-0.65  OA
ENDBRANCH 40 41
ENDBRANCH 39 40
ENDBRANCH 38 39
BRANCH 38 44
ATOM     44  C   GLU D   4       9.082   0.222  -5.256  1.00 29.37 LIG 0.24  C 
ATOM     45  N   VAL D   5       9.660   1.278  -5.822  1.00 31.15 LIG-0.35  N 
ATOM     46 H    VAL D   5      10.025   1.919  -5.380  1.00 31.15 LIG 0.16  HD
ATOM     47 O    GLU D   4       8.539  -0.672  -5.905  1.00 28.00 LIG-0.27  OA
BRANCH 45 48
ATOM     48  CA  VAL D   5       9.721   1.433  -7.273  1.00 31.02 LIG 0.18  C 
BRANCH 48 49
ATOM     49  C   VAL D   5       8.353   1.259  -7.926  1.00 31.80 LIG 0.24  C 
ATOM     50  N   TYR D   6       7.559   2.326  -7.928  1.00 29.63 LIG-0.35  N 
ATOM     51 H    TYR D   6       7.756   3.069  -7.540  1.00 29.63 LIG 0.16  HD
ATOM     52 O    VAL D   5       8.029   0.180  -8.424  1.00 32.83 LIG-0.27  OA
BRANCH 50 53
ATOM     53  CA  TYR D   6       6.266   2.327  -8.598  1.00 30.54 LIG 0.18  C 
BRANCH 53 54
ATOM     54  C   TYR D   6       5.251   1.550  -7.767  1.00 31.23 LIG 0.28  C 
ATOM     55  N   NH2 D   7       4.614   0.564  -8.390  1.00 33.55 LIG-0.11  N 
ATOM     56 O    TYR D   6       5.043   1.846  -6.590  1.00 28.81 LIG-0.27  OA
ENDBRANCH 53 54
BRANCH 53 57
ATOM     57  CB  TYR D   6       6.394   1.719 -10.000  1.00 30.33 LIG 0.07  C 
BRANCH 57 58
ATOM     58  CG  TYR D   6       7.426   2.381 -10.894  1.00 31.81 LIG-0.06  A 
ATOM     59  CD1 TYR D   6       8.607   1.730 -11.228  1.00 31.47 LIG 0.01  A 
ATOM     60  CE1 TYR D   6       9.543   2.328 -12.050  1.00 32.87 LIG 0.04  A 
ATOM     61  CZ  TYR D   6       9.301   3.586 -12.559  1.00 33.71 LIG 0.07  A 
ATOM     62  CE2 TYR D   6       8.132   4.249 -12.250  1.00 32.90 LIG 0.04  A 
ATOM     63  CD2 TYR D   6       7.200   3.643 -11.427  1.00 31.58 LIG 0.01  A 
BRANCH 61 64
ATOM     64 OH   TYR D   6      10.232   4.184 -13.378  1.00 34.88 LIG-0.36  OA
ATOM     65 HH   TYR D   6       9.866   4.802 -13.813  1.00 34.88 LIG 0.22  HD
ENDBRANCH 61 64
ENDBRANCH 57 58
ENDBRANCH 53 57
ENDBRANCH 50 53
ENDBRANCH 48 49
BRANCH 48 66
ATOM     66  CB  VAL D   5      10.683   0.416  -7.918  1.00 31.19 LIG 0.01  C 
ATOM     67  CG1 VAL D   5      11.168   0.935  -9.268  1.00 32.10 LIG 0.01  C 
ATOM     68  CG2 VAL D   5      11.852   0.130  -7.002  1.00 30.34 LIG 0.01  C 
ENDBRANCH 48 66
ENDBRANCH 45 48
ENDBRANCH 38 44
ENDBRANCH 3 38
TORSDOF 25
ENDMDL
MODEL 2
USER: ADFR SOLUTION from run 157
USER: SCORE 18.783535 LL:  -5.107 LR: -16.219 RR:   0.000 FEB:  -8.762
USER: RMSD 4.861047
USER: SEED 156
USER: STATUS searching
USER: GENES 27
USER: genes 0 Translation |==|  0.57375 0.40295 0.66880
USER: genes 1 Rotation |==|  0.30711 0.93848 0.49937 0.64328
USER: genes 2 Torsion [N]-C--CA-[N] |==|  0.04960
USER: genes 3 Torsion [C]-CA--N-[C] |==|  0.68109
USER: genes 4 Torsion [N]-C--CA-[N] |==|  0.67593
USER: genes 5 Torsion [C]-CA--CB-[CG] |==|  0.44554
USER: genes 6 Torsion [CA]-CB--CG-[CD] |==|  0.67530
USER: genes 7 Torsion [CB]-CG--CD-[NE] |==|  0.30547
USER: genes 8 Torsion [CG]-CD--NE-[HE] |==|  0.06169
USER: genes 9 Torsion [C]-CA--N-[C] |==|  0.17638
USER: genes 10 Torsion [N]-C--CA-[N] |==|  0.21997
USER: genes 11 Torsion [C]-CA--N-[C] |==|  0.76073
USER: genes 12 Torsion [C]-CA--CB-[CG2] |==|  0.38480
USER: genes 13 Torsion [CA]-CB--OG1-[HG1] |==|  0.80952
USER: genes 14 Torsion [C]-N--CA-[CB] |==|  0.56856
USER: genes 15 Torsion [N]-CA--CB-[CG] |==|  0.42717
USER: genes 16 Torsion [CA]-CB--CG-[CD] |==|  0.20844
USER: genes 17 Torsion [CB]-CG--CD-[OE2] |==|  0.13669
USER: genes 18 Torsion [N]-CA--C-[N] |==|  0.38728
USER: genes 19 Torsion [C]-N--CA-[CB] |==|  0.88227
USER: genes 20 Torsion [N]-CA--C-[N] |==|  0.26720
USER: genes 21 Torsion [C]-N--CA-[C] |==|  0.59175
USER: genes 22 Torsion [N]-CA--C-[N] |==|  0.40582
USER: genes 23 Torsion [N]-CA--CB-[CG] |==|  0.72595
USER: genes 24 Torsion [CA]-CB--CG-[CD1] |==|  0.25958
USER: genes 25 Torsion [CE1]-CZ--OH-[HH] |==|  0.25019
USER: genes 26 Torsion [N]-CA--CB-[CG1] |==|  0.47643
ROOT
ATOM      1  C   THR D   3       5.697   1.641  -1.228  1.00 23.43 LIG 0.24  C 
ATOM      2 O    THR D   3       6.502   0.828  -1.683  1.00 24.39 LIG-0.27  OA
ATOM      3  N   GLU D   4       5.017   1.435  -0.104  1.00 25.01 LIG-0.35  N 
ATOM      4 H    GLU D   4       4.473   2.008   0.235  1.00 25.01 LIG 0.16  HD
ENDROOT
BRANCH 1 5
ATOM      5  CA  THR D   3       5.429   2.961  -1.954  1.00 20.85 LIG 0.20  C 
BRANCH 5 6
ATOM      6  N   THR D   3       4.790   3.952  -1.096  1.00 20.16 LIG-0.34  N 
ATOM      7 H    THR D   3       5.278   4.217  -0.439  1.00 20.16 LIG 0.16  HD
ATOM      8  C   ARG D   2       3.558   4.393  -1.329  1.00 20.73 LIG 0.24  C 
ATOM      9 O    ARG D   2       2.851   3.965  -2.243  1.00 19.88 LIG-0.27  OA
BRANCH 8 10
ATOM     10  CA  ARG D   2       3.038   5.460  -0.372  1.00 21.07 LIG 0.18  C 
BRANCH 10 11
ATOM     11  CB  ARG D   2       4.156   5.933   0.567  1.00 18.72 LIG 0.04  C 
BRANCH 11 12
ATOM     12  CG  ARG D   2       3.886   7.292   1.220  1.00 17.25 LIG 0.02  C 
BRANCH 12 13
ATOM     13  CD  ARG D   2       4.917   8.339   0.800  1.00 15.57 LIG 0.14  C 
BRANCH 13 14
ATOM     14  NE  ARG D   2       4.346   9.360  -0.074  1.00 16.78 LIG-0.23  N 
ATOM     15 HE   ARG D   2       3.495   9.481  -0.049  1.00 16.78 LIG 0.18  HD
ATOM     16  CZ  ARG D   2       5.058  10.115  -0.906  1.00 18.57 LIG 0.67  C 
ATOM     17  NH2 ARG D   2       4.454  11.019  -1.666  1.00 17.94 LIG-0.23  N 
ATOM     18  NH1 ARG D   2       6.375   9.970  -0.975  1.00 16.85 LIG-0.23  N 
ATOM     19 1HH2 ARG D   2       3.600  11.118  -1.621  1.00 17.94 LIG 0.17  HD
ATOM     20 2HH2 ARG D   2       4.915  11.507  -2.203  1.00 17.94 LIG 0.17  HD
ATOM     21 2HH1 ARG D   2       6.834  10.460  -1.513  1.00 16.85 LIG 0.17  HD
ATOM     22 1HH1 ARG D   2       6.770   9.388  -0.482  1.00 16.85 LIG 0.17  HD
ENDBRANCH 13 14
ENDBRANCH 12 13
ENDBRANCH 11 12
ENDBRANCH 10 11
BRANCH 10 23
ATOM     23  N   ARG D   2       1.878   4.990   0.387  1.00 21.51 LIG-0.35  N 
ATOM     24  C   ALA D   1       1.978   3.971   1.234  1.00 21.30 LIG 0.24  C 
ATOM     25 O    ALA D   1       3.045   3.413   1.475  1.00 21.16 LIG-0.27  OA
ATOM     26 H    ARG D   2       1.151   5.424   0.235  1.00 21.51 LIG 0.16  HD
BRANCH 24 27
ATOM     27  CA  ALA D   1       0.692   3.513   1.923  1.00 21.78 LIG 0.17  C 
ATOM     28  CB  ALA D   1       1.015   2.784   3.217  1.00 21.47 LIG 0.04  C 
BRANCH 27 29
ATOM     29  N   ALA D   1      -0.141   2.677   1.061  1.00 22.15 LIG-0.35  N 
ATOM     30 H    ALA D   1      -0.004   1.834   1.161  1.00 22.15 LIG 0.16  HD
ATOM     31  C   ACE D   0      -1.029   3.171   0.202  1.00 22.99 LIG 0.21  C 
ATOM     32 O    ACE D   0      -0.998   4.316  -0.254  1.00 24.10 LIG-0.27  OA
ATOM     33  CH3 ACE D   0      -1.822   2.073  -0.442  1.00 21.14 LIG 0.12  C 
ENDBRANCH 27 29
ENDBRANCH 24 27
ENDBRANCH 10 23
ENDBRANCH 8 10
ENDBRANCH 5 6
BRANCH 5 34
ATOM     34  CB  THR D   3       6.741   3.509  -2.547  1.00 19.16 LIG 0.15  C 
ATOM     35  CG2 THR D   3       6.494   4.064  -3.939  1.00 17.08 LIG 0.04  C 
BRANCH 34 36
ATOM     36 OG1  THR D   3       7.250   4.554  -1.708  1.00 20.38 LIG-0.39  OA
ATOM     37 HG1  THR D   3       6.742   5.222  -1.752  1.00 20.38 LIG 0.21  HD
ENDBRANCH 34 36
ENDBRANCH 5 34
ENDBRANCH 1 5
BRANCH 3 38
ATOM     38  CA  GLU D   4       5.138   0.199   0.666  1.00 28.82 LIG 0.18  C 
BRANCH 38 39
ATOM     39  CB  GLU D   4       3.877  -0.038   1.503  1.00 31.32 LIG 0.04  C 
BRANCH 39 40
ATOM     40  CG  GLU D   4       3.602  -1.497   1.829  1.00 34.96 LIG 0.12  C 
BRANCH 40 41
ATOM     41  CD  GLU D   4       4.525  -2.036   2.905  1.00 38.68 LIG 0.17  C 
ATOM     42 OE2  GLU D   4       4.666  -1.376   3.956  1.00 39.24 LIG-0.65  OA
ATOM     43 OE1  GLU D   4       5.114  -3.118   2.697  1.00 40.65 LIG-0.65  OA
ENDBRANCH 40 41
ENDBRANCH 39 40
ENDBRANCH 38 39
BRANCH 38 44
ATOM     44  C   GLU D   4       5.357  -0.988  -0.268  1.00 29.37 LIG 0.24  C 
ATOM     45  N   VAL D   5       6.240  -1.900   0.129  1.00 31.15 LIG-0.35  N 
ATOM     46 H    VAL D   5       6.699  -1.840   0.853  1.00 31.15 LIG 0.16  HD
ATOM     47 O    GLU D   4       4.729  -1.077  -1.324  1.00 28.00 LIG-0.27  OA
BRANCH 45 48
ATOM     48  CA  VAL D   5       6.502  -3.105  -0.654  1.00 31.02 LIG 0.18  C 
BRANCH 48 49
ATOM     49  C   VAL D   5       7.420  -2.829  -1.841  1.00 31.80 LIG 0.24  C 
ATOM     50  N   TYR D   6       8.714  -3.079  -1.658  1.00 29.63 LIG-0.35  N 
ATOM     51 H    TYR D   6       9.050  -3.329  -0.906  1.00 29.63 LIG 0.16  HD
ATOM     52 O    VAL D   5       6.962  -2.403  -2.902  1.00 32.83 LIG-0.27  OA
BRANCH 50 53
ATOM     53  CA  TYR D   6       9.687  -2.949  -2.734  1.00 30.54 LIG 0.18  C 
BRANCH 53 54
ATOM     54  C   TYR D   6      10.792  -3.985  -2.560  1.00 31.23 LIG 0.28  C 
ATOM     55  N   NH2 D   7      11.313  -4.480  -3.678  1.00 33.55 LIG-0.11  N 
ATOM     56 O    TYR D   6      11.154  -4.337  -1.437  1.00 28.81 LIG-0.27  OA
ENDBRANCH 53 54
BRANCH 53 57
ATOM     57  CB  TYR D   6      10.273  -1.533  -2.751  1.00 30.33 LIG 0.07  C 
BRANCH 57 58
ATOM     58  CG  TYR D   6       9.649  -0.594  -3.766  1.00 31.81 LIG-0.06  A 
ATOM     59  CD1 TYR D   6       8.598   0.244  -3.415  1.00 31.47 LIG 0.01  A 
ATOM     60  CE1 TYR D   6       8.036   1.108  -4.335  1.00 32.87 LIG 0.04  A 
ATOM     61  CZ  TYR D   6       8.528   1.151  -5.622  1.00 33.71 LIG 0.07  A 
ATOM     62  CE2 TYR D   6       9.577   0.336  -5.993  1.00 32.90 LIG 0.04  A 
ATOM     63  CD2 TYR D   6      10.135  -0.525  -5.065  1.00 31.58 LIG 0.01  A 
BRANCH 61 64
ATOM     64 OH   TYR D   6       7.969   2.010  -6.541  1.00 34.88 LIG-0.36  OA
ATOM     65 HH   TYR D   6       8.369   2.748  -6.513  1.00 34.88 LIG 0.22  HD
ENDBRANCH 61 64
ENDBRANCH 57 58
ENDBRANCH 53 57
ENDBRANCH 50 53
ENDBRANCH 48 49
BRANCH 48 66
ATOM     66  CB  VAL D   5       5.202  -3.727  -1.201  1.00 31.19 LIG 0.01  C 
ATOM     67  CG1 VAL D   5       5.529  -4.852  -2.179  1.00 32.10 LIG 0.01  C 
ATOM     68  CG2 VAL D   5       4.335  -4.236  -0.070  1.00 30.34 LIG 0.01  C 
ENDBRANCH 48 66
ENDBRANCH 45 48
ENDBRANCH 38 44
ENDBRANCH 3 38
TORSDOF 25
ENDMDL
MODEL 3
USER: ADFR SOLUTION from run 88
USER: SCORE 17.833644 LL:  -4.811 LR: -16.049 RR:   0.000 FEB:  -8.592
USER: RMSD 10.628847
USER: SEED 87
USER: STATUS no improvement in best in 5 clusters for 5 generations
USER: GENES 27
USER: genes 0 Translation |==|  0.55718 0.41239 0.51535
USER: genes 1 Rotation |==|  0.47797 0.81511 0.18361 0.72388
USER: genes 2 Torsion [N]-C--CA-[N] |==|  0.90827
USER: genes 3 Torsion [C]-CA--N-[C] |==|  0.78938
USER: genes 4 Torsion [N]-C--CA-[N] |==|  0.19913
USER: genes 5 Torsion [C]-CA--CB-[CG] |==|  0.40226
USER: genes 6 Torsion [CA]-CB--CG-[CD] |==|  0.30003
USER: genes 7 Torsion [CB]-CG--CD-[NE] |==|  0.52190
USER: genes 8 Torsion [CG]-CD--NE-[HE] |==|  0.91783
USER: genes 9 Torsion [C]-CA--N-[C] |==|  0.57875
USER: genes 10 Torsion [N]-C--CA-[N] |==|  0.03144
USER: genes 11 Torsion [C]-CA--N-[C] |==|  0.72395
USER: genes 12 Torsion [C]-CA--CB-[CG2] |==|  0.16773
USER: genes 13 Torsion [CA]-CB--OG1-[HG1] |==|  0.20114
USER: genes 14 Torsion [C]-N--CA-[CB] |==|  0.86966
USER: genes 15 Torsion [N]-CA--CB-[CG] |==|  0.73876
USER: genes 16 Torsion [CA]-CB--CG-[CD] |==|  0.37710
USER: genes 17 Torsion [CB]-CG--CD-[OE2] |==|  0.17162
USER: genes 18 Torsion [N]-CA--C-[N] |==|  0.92769
USER: genes 19 Torsion [C]-N--CA-[CB] |==|  0.43140
USER: genes 20 Torsion [N]-CA--C-[N] |==|  0.33018
USER: genes 21 Torsion [C]-N--CA-[C] |==|  0.67819
USER: genes 22 Torsion [N]-CA--C-[N] |==|  0.94964
USER: genes 23 Torsion [N]-CA--CB-[CG] |==|  0.53945
USER: genes 24 Torsion [CA]-CB--CG-[CD1] |==|  0.57524
USER: genes 25 Torsion [CE1]-CZ--OH-[HH] |==|  0.06829
USER: genes 26 Torsion [N]-CA--CB-[CG1] |==|  0.51923
ROOT
ATOM      1  C   THR D   3       5.374   1.860  -5.026  1.00 23.43 LIG 0.24  C 
ATOM      2 O    THR D   3       5.028   0.987  -4.231  1.00 24.39 LIG-0.27  OA
ATOM      3  N   GLU D   4       4.619   2.915  -5.317  1.00 25.01 LIG-0.35  N 
ATOM      4 H    GLU D   4       4.864   3.543  -5.852  1.00 25.01 LIG 0.16  HD
ENDROOT
BRANCH 1 5
ATOM      5  CA  THR D   3       6.725   1.772  -5.740  1.00 20.85 LIG 0.20  C 
BRANCH 5 6
ATOM      6  N   THR D   3       6.685   2.332  -7.086  1.00 20.16 LIG-0.34  N 
ATOM      7 H    THR D   3       7.052   3.106  -7.157  1.00 20.16 LIG 0.16  HD
ATOM      8  C   ARG D   2       6.122   1.682  -8.100  1.00 20.73 LIG 0.24  C 
ATOM      9 O    ARG D   2       5.552   0.596  -7.972  1.00 19.88 LIG-0.27  OA
BRANCH 8 10
ATOM     10  CA  ARG D   2       6.193   2.372  -9.458  1.00 21.07 LIG 0.18  C 
BRANCH 10 11
ATOM     11  CB  ARG D   2       5.193   1.739 -10.436  1.00 18.72 LIG 0.04  C 
BRANCH 11 12
ATOM     12  CG  ARG D   2       4.559   2.738 -11.410  1.00 17.25 LIG 0.02  C 
BRANCH 12 13
ATOM     13  CD  ARG D   2       5.092   2.561 -12.831  1.00 15.57 LIG 0.14  C 
BRANCH 13 14
ATOM     14  NE  ARG D   2       4.639   3.618 -13.728  1.00 16.78 LIG-0.23  N 
ATOM     15 HE   ARG D   2       3.878   3.985 -13.566  1.00 16.78 LIG 0.18  HD
ATOM     16  CZ  ARG D   2       5.327   4.052 -14.781  1.00 18.57 LIG 0.67  C 
ATOM     17  NH2 ARG D   2       4.835   5.019 -15.545  1.00 17.94 LIG-0.23  N 
ATOM     18  NH1 ARG D   2       6.509   3.522 -15.069  1.00 16.85 LIG-0.23  N 
ATOM     19 1HH2 ARG D   2       4.071   5.368 -15.360  1.00 17.94 LIG 0.17  HD
ATOM     20 2HH2 ARG D   2       5.281   5.298 -16.225  1.00 17.94 LIG 0.17  HD
ATOM     21 2HH1 ARG D   2       6.952   3.804 -15.749  1.00 16.85 LIG 0.17  HD
ATOM     22 1HH1 ARG D   2       6.832   2.897 -14.574  1.00 16.85 LIG 0.17  HD
ENDBRANCH 13 14
ENDBRANCH 12 13
ENDBRANCH 11 12
ENDBRANCH 10 11
BRANCH 10 23
ATOM     23  N   ARG D   2       7.549   2.352 -10.007  1.00 21.51 LIG-0.35  N 
ATOM     24  C   ALA D   1       7.971   3.306 -10.831  1.00 21.30 LIG 0.24  C 
ATOM     25 O    ALA D   1       7.282   4.279 -11.125  1.00 21.16 LIG-0.27  OA
ATOM     26 H    ARG D   2       8.029   1.685  -9.752  1.00 21.51 LIG 0.16  HD
BRANCH 24 27
ATOM     27  CA  ALA D   1       9.380   3.153 -11.404  1.00 21.78 LIG 0.17  C 
ATOM     28  CB  ALA D   1       9.382   3.457 -12.894  1.00 21.47 LIG 0.04  C 
BRANCH 27 29
ATOM     29  N   ALA D   1       9.949   1.831 -11.153  1.00 22.15 LIG-0.35  N 
ATOM     30 H    ALA D   1       9.676   1.228 -11.702  1.00 22.15 LIG 0.16  HD
ATOM     31  C   ACE D   0      10.809   1.581 -10.169  1.00 22.99 LIG 0.21  C 
ATOM     32 O    ACE D   0      10.931   2.272  -9.155  1.00 24.10 LIG-0.27  OA
ATOM     33  CH3 ACE D   0      11.317   0.172 -10.244  1.00 21.14 LIG 0.12  C 
ENDBRANCH 27 29
ENDBRANCH 24 27
ENDBRANCH 10 23
ENDBRANCH 8 10
ENDBRANCH 5 6
BRANCH 5 34
ATOM     34  CB  THR D   3       7.812   2.456  -4.891  1.00 19.16 LIG 0.15  C 
ATOM     35  CG2 THR D   3       7.931   1.770  -3.541  1.00 17.08 LIG 0.04  C 
BRANCH 34 36
ATOM     36 OG1  THR D   3       9.074   2.381  -5.568  1.00 20.38 LIG-0.39  OA
ATOM     37 HG1  THR D   3       9.071   2.905  -6.225  1.00 20.38 LIG 0.21  HD
ENDBRANCH 34 36
ENDBRANCH 5 34
ENDBRANCH 1 5
BRANCH 3 38
ATOM     38  CA  GLU D   4       3.287   3.103  -4.748  1.00 28.82 LIG 0.18  C 
BRANCH 38 39
ATOM     39  CB  GLU D   4       2.472   1.810  -4.849  1.00 31.32 LIG 0.04  C 
BRANCH 39 40
ATOM     40  CG  GLU D   4       1.588   1.717  -6.082  1.00 34.96 LIG 0.12  C 
BRANCH 40 41
ATOM     41  CD  GLU D   4       1.660   0.356  -6.747  1.00 38.68 LIG 0.17  C 
ATOM     42 OE2  GLU D   4       1.291  -0.645  -6.098  1.00 39.24 LIG-0.65  OA
ATOM     43 OE1  GLU D   4       2.090   0.287  -7.917  1.00 40.65 LIG-0.65  OA
ENDBRANCH 40 41
ENDBRANCH 39 40
ENDBRANCH 38 39
BRANCH 38 44
ATOM     44  C   GLU D   4       3.391   3.524  -3.284  1.00 29.37 LIG 0.24  C 
ATOM     45  N   VAL D   5       4.490   3.149  -2.635  1.00 31.15 LIG-0.35  N 
ATOM     46 H    VAL D   5       5.114   2.671  -2.984  1.00 31.15 LIG 0.16  HD
ATOM     47 O    GLU D   4       2.495   4.185  -2.759  1.00 28.00 LIG-0.27  OA
BRANCH 45 48
ATOM     48  CA  VAL D   5       4.728   3.531  -1.246  1.00 31.02 LIG 0.18  C 
BRANCH 48 49
ATOM     49  C   VAL D   5       5.338   4.925  -1.131  1.00 31.80 LIG 0.24  C 
ATOM     50  N   TYR D   6       4.625   5.828  -0.463  1.00 29.63 LIG-0.35  N 
ATOM     51 H    TYR D   6       3.837   5.679  -0.152  1.00 29.63 LIG 0.16  HD
ATOM     52 O    VAL D   5       6.436   5.172  -1.631  1.00 32.83 LIG-0.27  OA
BRANCH 50 53
ATOM     53  CA  TYR D   6       5.129   7.168  -0.198  1.00 30.54 LIG 0.18  C 
BRANCH 53 54
ATOM     54  C   TYR D   6       5.292   7.372   1.305  1.00 31.23 LIG 0.28  C 
ATOM     55  N   NH2 D   7       4.634   6.523   2.087  1.00 33.55 LIG-0.11  N 
ATOM     56 O    TYR D   6       5.990   8.287   1.743  1.00 28.81 LIG-0.27  OA
ENDBRANCH 53 54
BRANCH 53 57
ATOM     57  CB  TYR D   6       4.180   8.219  -0.784  1.00 30.33 LIG 0.07  C 
BRANCH 57 58
ATOM     58  CG  TYR D   6       4.751   9.621  -0.872  1.00 31.81 LIG-0.06  A 
ATOM     59  CD1 TYR D   6       3.923  10.736  -0.836  1.00 31.47 LIG 0.01  A 
ATOM     60  CE1 TYR D   6       4.443  12.014  -0.906  1.00 32.87 LIG 0.04  A 
ATOM     61  CZ  TYR D   6       5.806  12.193  -1.003  1.00 33.71 LIG 0.07  A 
ATOM     62  CE2 TYR D   6       6.651  11.103  -1.033  1.00 32.90 LIG 0.04  A 
ATOM     63  CD2 TYR D   6       6.121   9.827  -0.961  1.00 31.58 LIG 0.01  A 
BRANCH 61 64
ATOM     64 OH   TYR D   6       6.327  13.465  -1.074  1.00 34.88 LIG-0.36  OA
ATOM     65 HH   TYR D   6       5.790  14.007  -0.722  1.00 34.88 LIG 0.22  HD
ENDBRANCH 61 64
ENDBRANCH 57 58
ENDBRANCH 53 57
ENDBRANCH 50 53
ENDBRANCH 48 49
BRANCH 48 66
ATOM     66  CB  VAL D   5       5.674   2.544  -0.534  1.00 31.19 LIG 0.01  C 
ATOM     67  CG1 VAL D   5       5.761   2.878   0.952  1.00 32.10 LIG 0.01  C 
ATOM     68  CG2 VAL D   5       5.212   1.118  -0.737  1.00 30.34 LIG 0.01  C 
ENDBRANCH 48 66
ENDBRANCH 45 48
ENDBRANCH 38 44
ENDBRANCH 3 38
TORSDOF 25
ENDMDL
MODEL 4
USER: ADFR SOLUTION from run 118
USER: SCORE 17.620836 LL:  -4.629 LR: -15.677 RR:   0.000 FEB:  -8.220
USER: RMSD 10.099348
USER: SEED 117
USER: STATUS 1 or 2 clusters left
USER: GENES 27
USER: genes 0 Translation |==|  0.52070 0.44987 0.53969
USER: genes 1 Rotation |==|  0.13796 0.42985 0.17517 0.59211
USER: genes 2 Torsion [N]-C--CA-[N] |==|  0.31753
USER: genes 3 Torsion [C]-CA--N-[C] |==|  0.74758
USER: genes 4 Torsion [N]-C--CA-[N] |==|  0.14989
USER: genes 5 Torsion [C]-CA--CB-[CG] |==|  0.41123
USER: genes 6 Torsion [CA]-CB--CG-[CD] |==|  0.15458
USER: genes 7 Torsion [CB]-CG--CD-[NE] |==|  0.37577
USER: genes 8 Torsion [CG]-CD--NE-[HE] |==|  0.27545
USER: genes 9 Torsion [C]-CA--N-[C] |==|  0.15548
USER: genes 10 Torsion [N]-C--CA-[N] |==|  0.42314
USER: genes 11 Torsion [C]-CA--N-[C] |==|  0.78425
USER: genes 12 Torsion [C]-CA--CB-[CG2] |==|  0.81436
USER: genes 13 Torsion [CA]-CB--OG1-[HG1] |==|  0.95749
USER: genes 14 Torsion [C]-N--CA-[CB] |==|  0.48967
USER: genes 15 Torsion [N]-CA--CB-[CG] |==|  0.87546
USER: genes 16 Torsion [CA]-CB--CG-[CD] |==|  0.39993
USER: genes 17 Torsion [CB]-CG--CD-[OE2] |==|  0.74579
USER: genes 18 Torsion [N]-CA--C-[N] |==|  0.45589
USER: genes 19 Torsion [C]-N--CA-[CB] |==|  0.83012
USER: genes 20 Torsion [N]-CA--C-[N] |==|  0.05279
USER: genes 21 Torsion [C]-N--CA-[C] |==|  0.19837
USER: genes 22 Torsion [N]-CA--C-[N] |==|  0.85063
USER: genes 23 Torsion [N]-CA--CB-[CG] |==|  0.67424
USER: genes 24 Torsion [CA]-CB--CG-[CD1] |==|  0.24257
USER: genes 25 Torsion [CE1]-CZ--OH-[HH] |==|  0.82848
USER: genes 26 Torsion [N]-CA--CB-[CG1] |==|  0.57753
ROOT
ATOM      1  C   THR D   3       4.663   2.731  -4.424  1.00 23.43 LIG 0.24  C 
ATOM      2 O    THR D   3       4.795   3.896  -4.049  1.00 24.39 LIG-0.27  OA
ATOM      3  N   GLU D   4       3.504   2.080  -4.371  1.00 25.01 LIG-0.35  N 
ATOM      4 H    GLU D   4       3.397   1.276  -4.655  1.00 25.01 LIG 0.16  HD
ENDROOT
BRANCH 1 5
ATOM      5  CA  THR D   3       5.857   1.952  -4.981  1.00 20.85 LIG 0.20  C 
BRANCH 5 6
ATOM      6  N   THR D   3       6.345   2.503  -6.239  1.00 20.16 LIG-0.34  N 
ATOM      7 H    THR D   3       6.945   3.113  -6.149  1.00 20.16 LIG 0.16  HD
ATOM      8  C   ARG D   2       5.888   2.083  -7.414  1.00 20.73 LIG 0.24  C 
ATOM      9 O    ARG D   2       4.991   1.246  -7.528  1.00 19.88 LIG-0.27  OA
BRANCH 8 10
ATOM     10  CA  ARG D   2       6.523   2.719  -8.646  1.00 21.07 LIG 0.18  C 
BRANCH 10 11
ATOM     11  CB  ARG D   2       5.936   2.112  -9.928  1.00 18.72 LIG 0.04  C 
BRANCH 11 12
ATOM     12  CG  ARG D   2       5.868   3.092 -11.105  1.00 17.25 LIG 0.02  C 
BRANCH 12 13
ATOM     13  CD  ARG D   2       7.235   3.699 -11.417  1.00 15.57 LIG 0.14  C 
BRANCH 13 14
ATOM     14  NE  ARG D   2       7.520   3.715 -12.849  1.00 16.78 LIG-0.23  N 
ATOM     15 HE   ARG D   2       7.392   4.450 -13.276  1.00 16.78 LIG 0.18  HD
ATOM     16  CZ  ARG D   2       7.967   2.666 -13.534  1.00 18.57 LIG 0.67  C 
ATOM     17  NH2 ARG D   2       8.198   2.772 -14.837  1.00 17.94 LIG-0.23  N 
ATOM     18  NH1 ARG D   2       8.187   1.512 -12.918  1.00 16.85 LIG-0.23  N 
ATOM     19 1HH2 ARG D   2       8.060   3.520 -15.239  1.00 17.94 LIG 0.17  HD
ATOM     20 2HH2 ARG D   2       8.486   2.094 -15.279  1.00 17.94 LIG 0.17  HD
ATOM     21 2HH1 ARG D   2       8.476   0.835 -13.363  1.00 16.85 LIG 0.17  HD
ATOM     22 1HH1 ARG D   2       8.042   1.441 -12.074  1.00 16.85 LIG 0.17  HD
ENDBRANCH 13 14
ENDBRANCH 12 13
ENDBRANCH 11 12
ENDBRANCH 10 11
BRANCH 10 23
ATOM     23  N   ARG D   2       7.981   2.600  -8.628  1.00 21.51 LIG-0.35  N 
ATOM     24  C   ALA D   1       8.573   1.415  -8.520  1.00 21.30 LIG 0.24  C 
ATOM     25 O    ALA D   1       7.944   0.361  -8.494  1.00 21.16 LIG-0.27  OA
ATOM     26 H    ARG D   2       8.402   3.348  -8.693  1.00 21.51 LIG 0.16  HD
BRANCH 24 27
ATOM     27  CA  ALA D   1      10.100   1.407  -8.439  1.00 21.78 LIG 0.17  C 
ATOM     28  CB  ALA D   1      10.704   1.466  -9.833  1.00 21.47 LIG 0.04  C 
BRANCH 27 29
ATOM     29  N   ALA D   1      10.619   0.253  -7.708  1.00 22.15 LIG-0.35  N 
ATOM     30 H    ALA D   1      10.931  -0.366  -8.217  1.00 22.15 LIG 0.16  HD
ATOM     31  C   ACE D   0      10.610   0.166  -6.380  1.00 22.99 LIG 0.21  C 
ATOM     32 O    ACE D   0       9.858   0.806  -5.643  1.00 24.10 LIG-0.27  OA
ATOM     33  CH3 ACE D   0      11.326  -1.068  -5.918  1.00 21.14 LIG 0.12  C 
ENDBRANCH 27 29
ENDBRANCH 24 27
ENDBRANCH 10 23
ENDBRANCH 8 10
ENDBRANCH 5 6
BRANCH 5 34
ATOM     34  CB  THR D   3       6.982   1.896  -3.930  1.00 19.16 LIG 0.15  C 
ATOM     35  CG2 THR D   3       7.549   3.285  -3.696  1.00 17.08 LIG 0.04  C 
BRANCH 34 36
ATOM     36 OG1  THR D   3       6.462   1.386  -2.695  1.00 20.38 LIG-0.39  OA
ATOM     37 HG1  THR D   3       5.623   1.414  -2.711  1.00 20.38 LIG 0.21  HD
ENDBRANCH 34 36
ENDBRANCH 5 34
ENDBRANCH 1 5
BRANCH 3 38
ATOM     38  CA  GLU D   4       2.295   2.684  -3.818  1.00 28.82 LIG 0.18  C 
BRANCH 38 39
ATOM     39  CB  GLU D   4       1.101   1.737  -3.974  1.00 31.32 LIG 0.04  C 
BRANCH 39 40
ATOM     40  CG  GLU D   4       0.991   1.081  -5.341  1.00 34.96 LIG 0.12  C 
BRANCH 40 41
ATOM     41  CD  GLU D   4       0.480  -0.344  -5.262  1.00 38.68 LIG 0.17  C 
ATOM     42 OE2  GLU D   4       1.311  -1.272  -5.169  1.00 39.24 LIG-0.65  OA
ATOM     43 OE1  GLU D   4      -0.754  -0.538  -5.299  1.00 40.65 LIG-0.65  OA
ENDBRANCH 40 41
ENDBRANCH 39 40
ENDBRANCH 38 39
BRANCH 38 44
ATOM     44  C   GLU D   4       2.493   3.012  -2.340  1.00 29.37 LIG 0.24  C 
ATOM     45  N   VAL D   5       1.615   3.848  -1.795  1.00 31.15 LIG-0.35  N 
ATOM     46 H    VAL D   5       0.975   4.223  -2.230  1.00 31.15 LIG 0.16  HD
ATOM     47 O    GLU D   4       3.420   2.506  -1.707  1.00 28.00 LIG-0.27  OA
BRANCH 45 48
ATOM     48  CA  VAL D   5       1.670   4.202  -0.379  1.00 31.02 LIG 0.18  C 
BRANCH 48 49
ATOM     49  C   VAL D   5       2.992   4.866  -0.005  1.00 31.80 LIG 0.24  C 
ATOM     50  N   TYR D   6       3.701   5.375  -1.008  1.00 29.63 LIG-0.35  N 
ATOM     51 H    TYR D   6       3.480   5.299  -1.836  1.00 29.63 LIG 0.16  HD
ATOM     52 O    VAL D   5       3.356   4.920   1.171  1.00 32.83 LIG-0.27  OA
BRANCH 50 53
ATOM     53  CA  TYR D   6       4.935   6.117  -0.784  1.00 30.54 LIG 0.18  C 
BRANCH 53 54
ATOM     54  C   TYR D   6       6.039   5.165  -0.338  1.00 31.23 LIG 0.28  C 
ATOM     55  N   NH2 D   7       5.763   4.397   0.711  1.00 33.55 LIG-0.11  N 
ATOM     56 O    TYR D   6       7.121   5.136  -0.926  1.00 28.81 LIG-0.27  OA
ENDBRANCH 53 54
BRANCH 53 57
ATOM     57  CB  TYR D   6       4.712   7.213   0.263  1.00 30.33 LIG 0.07  C 
BRANCH 57 58
ATOM     58  CG  TYR D   6       4.911   8.631  -0.240  1.00 31.81 LIG-0.06  A 
ATOM     59  CD1 TYR D   6       3.868   9.335  -0.829  1.00 31.47 LIG 0.01  A 
ATOM     60  CE1 TYR D   6       4.045  10.630  -1.278  1.00 32.87 LIG 0.04  A 
ATOM     61  CZ  TYR D   6       5.271  11.241  -1.133  1.00 33.71 LIG 0.07  A 
ATOM     62  CE2 TYR D   6       6.320  10.567  -0.544  1.00 32.90 LIG 0.04  A 
ATOM     63  CD2 TYR D   6       6.134   9.272  -0.096  1.00 31.58 LIG 0.01  A 
BRANCH 61 64
ATOM     64 OH   TYR D   6       5.450  12.531  -1.580  1.00 34.88 LIG-0.36  OA
ATOM     65 HH   TYR D   6       5.325  12.559  -2.410  1.00 34.88 LIG 0.22  HD
ENDBRANCH 61 64
ENDBRANCH 57 58
ENDBRANCH 53 57
ENDBRANCH 50 53
ENDBRANCH 48 49
BRANCH 48 66
ATOM     66  CB  VAL D   5       1.492   2.967   0.528  1.00 31.19 LIG 0.01  C 
ATOM     67  CG1 VAL D   5       0.878   3.380   1.862  1.00 32.10 LIG 0.01  C 
ATOM     68  CG2 VAL D   5       0.638   1.921  -0.155  1.00 30.34 LIG 0.01  C 
ENDBRANCH 48 66
ENDBRANCH 45 48
ENDBRANCH 38 44
ENDBRANCH 3 38
TORSDOF 25
ENDMDL
MODEL 5
USER: ADFR SOLUTION from run 20
USER: SCORE 18.942504 LL:  -5.027 LR: -15.553 RR:   0.000 FEB:  -8.096
USER: RMSD 10.973420
USER: SEED 19
USER: STATUS no improvement in best in 9 clusters for 5 generations
USER: GENES 27
USER: genes 0 Translation |==|  0.69465 0.37645 0.47718
USER: genes 1 Rotation |==|  0.45967 0.90720 0.21970 0.56322
USER: genes 2 Torsion [N]-C--CA-[N] |==|  0.92334
USER: genes 3 Torsion [C]-CA--N-[C] |==|  0.73889
USER: genes 4 Torsion [N]-C--CA-[N] |==|  0.12709
USER: genes 5 Torsion [C]-CA--CB-[CG] |==|  0.68842
USER: genes 6 Torsion [CA]-CB--CG-[CD] |==|  0.61695
USER: genes 7 Torsion [CB]-CG--CD-[NE] |==|  0.41404
USER: genes 8 Torsion [CG]-CD--NE-[HE] |==|  0.01802
USER: genes 9 Torsion [C]-CA--N-[C] |==|  0.12300
USER: genes 10 Torsion [N]-C--CA-[N] |==|  0.41687
USER: genes 11 Torsion [C]-CA--N-[C] |==|  0.66983
USER: genes 12 Torsion [C]-CA--CB-[CG2] |==|  0.51581
USER: genes 13 Torsion [CA]-CB--OG1-[HG1] |==|  0.16244
USER: genes 14 Torsion [C]-N--CA-[CB] |==|  0.53840
USER: genes 15 Torsion [N]-CA--CB-[CG] |==|  0.49687
USER: genes 16 Torsion [CA]-CB--CG-[CD] |==|  0.22842
USER: genes 17 Torsion [CB]-CG--CD-[OE2] |==|  0.83031
USER: genes 18 Torsion [N]-CA--C-[N] |==|  0.41116
USER: genes 19 Torsion [C]-N--CA-[CB] |==|  0.21612
USER: genes 20 Torsion [N]-CA--C-[N] |==|  0.96869
USER: genes 21 Torsion [C]-N--CA-[C] |==|  0.17033
USER: genes 22 Torsion [N]-CA--C-[N] |==|  0.12185
USER: genes 23 Torsion [N]-CA--CB-[CG] |==|  0.79071
USER: genes 24 Torsion [CA]-CB--CG-[CD1] |==|  0.28375
USER: genes 25 Torsion [CE1]-CZ--OH-[HH] |==|  0.33314
USER: genes 26 Torsion [N]-CA--CB-[CG1] |==|  0.20288
ROOT
ATOM      1  C   THR D   3       8.055   1.024  -5.971  1.00 23.43 LIG 0.24  C 
ATOM      2 O    THR D   3       7.895   0.024  -5.271  1.00 24.39 LIG-0.27  OA
ATOM      3  N   GLU D   4       7.719   2.248  -5.573  1.00 25.01 LIG-0.35  N 
ATOM      4 H    GLU D   4       7.851   2.955  -6.045  1.00 25.01 LIG 0.16  HD
ENDROOT
BRANCH 1 5
ATOM      5  CA  THR D   3       8.662   0.906  -7.371  1.00 20.85 LIG 0.20  C 
BRANCH 5 6
ATOM      6  N   THR D   3       8.212   1.965  -8.267  1.00 20.16 LIG-0.34  N 
ATOM      7 H    THR D   3       8.675   2.688  -8.220  1.00 20.16 LIG 0.16  HD
ATOM      8  C   ARG D   2       7.172   1.803  -9.078  1.00 20.73 LIG 0.24  C 
ATOM      9 O    ARG D   2       6.484   0.780  -9.097  1.00 19.88 LIG-0.27  OA
BRANCH 8 10
ATOM     10  CA  ARG D   2       6.844   2.981  -9.989  1.00 21.07 LIG 0.18  C 
BRANCH 10 11
ATOM     11  CB  ARG D   2       5.795   2.577 -11.035  1.00 18.72 LIG 0.04  C 
BRANCH 11 12
ATOM     12  CG  ARG D   2       6.331   2.539 -12.470  1.00 17.25 LIG 0.02  C 
BRANCH 12 13
ATOM     13  CD  ARG D   2       5.341   3.147 -13.462  1.00 15.57 LIG 0.14  C 
BRANCH 13 14
ATOM     14  NE  ARG D   2       6.009   3.776 -14.597  1.00 16.78 LIG-0.23  N 
ATOM     15 HE   ARG D   2       6.861   3.684 -14.663  1.00 16.78 LIG 0.18  HD
ATOM     16  CZ  ARG D   2       5.384   4.483 -15.535  1.00 18.57 LIG 0.67  C 
ATOM     17  NH2 ARG D   2       6.074   5.022 -16.532  1.00 17.94 LIG-0.23  N 
ATOM     18  NH1 ARG D   2       4.068   4.647 -15.479  1.00 16.85 LIG-0.23  N 
ATOM     19 1HH2 ARG D   2       6.926   4.914 -16.574  1.00 17.94 LIG 0.17  HD
ATOM     20 2HH2 ARG D   2       5.669   5.478 -17.138  1.00 17.94 LIG 0.17  HD
ATOM     21 2HH1 ARG D   2       3.666   5.104 -16.087  1.00 16.85 LIG 0.17  HD
ATOM     22 1HH1 ARG D   2       3.618   4.297 -14.837  1.00 16.85 LIG 0.17  HD
ENDBRANCH 13 14
ENDBRANCH 12 13
ENDBRANCH 11 12
ENDBRANCH 10 11
BRANCH 10 23
ATOM     23  N   ARG D   2       8.043   3.522 -10.630  1.00 21.51 LIG-0.35  N 
ATOM     24  C   ALA D   1       8.962   2.720 -11.159  1.00 21.30 LIG 0.24  C 
ATOM     25 O    ALA D   1       8.831   1.500 -11.199  1.00 21.16 LIG-0.27  OA
ATOM     26 H    ARG D   2       8.092   4.381 -10.630  1.00 21.51 LIG 0.16  HD
BRANCH 24 27
ATOM     27  CA  ALA D   1      10.210   3.385 -11.740  1.00 21.78 LIG 0.17  C 
ATOM     28  CB  ALA D   1       9.965   3.803 -13.181  1.00 21.47 LIG 0.04  C 
BRANCH 27 29
ATOM     29  N   ALA D   1      11.394   2.533 -11.651  1.00 22.15 LIG-0.35  N 
ATOM     30 H    ALA D   1      11.319   1.792 -12.083  1.00 22.15 LIG 0.16  HD
ATOM     31  C   ACE D   0      12.485   2.868 -10.967  1.00 22.99 LIG 0.21  C 
ATOM     32 O    ACE D   0      12.509   3.689 -10.049  1.00 24.10 LIG-0.27  OA
ATOM     33  CH3 ACE D   0      13.577   1.860 -11.170  1.00 21.14 LIG 0.12  C 
ENDBRANCH 27 29
ENDBRANCH 24 27
ENDBRANCH 10 23
ENDBRANCH 8 10
ENDBRANCH 5 6
BRANCH 5 34
ATOM     34  CB  THR D   3      10.199   0.882  -7.275  1.00 19.16 LIG 0.15  C 
ATOM     35  CG2 THR D   3      10.810   0.906  -8.665  1.00 17.08 LIG 0.04  C 
BRANCH 34 36
ATOM     36 OG1  THR D   3      10.655   2.026  -6.541  1.00 20.38 LIG-0.39  OA
ATOM     37 HG1  THR D   3      10.311   2.023  -5.775  1.00 20.38 LIG 0.21  HD
ENDBRANCH 34 36
ENDBRANCH 5 34
ENDBRANCH 1 5
BRANCH 3 38
ATOM     38  CA  GLU D   4       7.085   2.502  -4.282  1.00 28.82 LIG 0.18  C 
BRANCH 38 39
ATOM     39  CB  GLU D   4       6.508   3.921  -4.235  1.00 31.32 LIG 0.04  C 
BRANCH 39 40
ATOM     40  CG  GLU D   4       5.802   4.272  -2.935  1.00 34.96 LIG 0.12  C 
BRANCH 40 41
ATOM     41  CD  GLU D   4       6.767   4.703  -1.848  1.00 38.68 LIG 0.17  C 
ATOM     42 OE2  GLU D   4       7.634   3.891  -1.464  1.00 39.24 LIG-0.65  OA
ATOM     43 OE1  GLU D   4       6.656   5.853  -1.375  1.00 40.65 LIG-0.65  OA
ENDBRANCH 40 41
ENDBRANCH 39 40
ENDBRANCH 38 39
BRANCH 38 44
ATOM     44  C   GLU D   4       5.969   1.492  -4.030  1.00 29.37 LIG 0.24  C 
ATOM     45  N   VAL D   5       5.755   1.147  -2.764  1.00 31.15 LIG-0.35  N 
ATOM     46 H    VAL D   5       6.220   1.438  -2.102  1.00 31.15 LIG 0.16  HD
ATOM     47 O    GLU D   4       5.310   1.042  -4.968  1.00 28.00 LIG-0.27  OA
BRANCH 45 48
ATOM     48  CA  VAL D   5       4.685   0.226  -2.390  1.00 31.02 LIG 0.18  C 
BRANCH 48 49
ATOM     49  C   VAL D   5       4.329   0.331  -0.910  1.00 31.80 LIG 0.24  C 
ATOM     50  N   TYR D   6       5.163   1.036  -0.151  1.00 29.63 LIG-0.35  N 
ATOM     51 H    TYR D   6       5.898   1.377  -0.439  1.00 29.63 LIG 0.16  HD
ATOM     52 O    VAL D   5       3.314  -0.211  -0.469  1.00 32.83 LIG-0.27  OA
BRANCH 50 53
ATOM     53  CA  TYR D   6       4.895   1.295   1.258  1.00 30.54 LIG 0.18  C 
BRANCH 53 54
ATOM     54  C   TYR D   6       4.821  -0.022   2.021  1.00 31.23 LIG 0.28  C 
ATOM     55  N   NH2 D   7       5.758  -0.920   1.734  1.00 33.55 LIG-0.11  N 
ATOM     56 O    TYR D   6       3.927  -0.224   2.844  1.00 28.81 LIG-0.27  OA
ENDBRANCH 53 54
BRANCH 53 57
ATOM     57  CB  TYR D   6       3.589   2.082   1.414  1.00 30.33 LIG 0.07  C 
BRANCH 57 58
ATOM     58  CG  TYR D   6       3.680   3.553   1.053  1.00 31.81 LIG-0.06  A 
ATOM     59  CD1 TYR D   6       3.197   4.025  -0.161  1.00 31.47 LIG 0.01  A 
ATOM     60  CE1 TYR D   6       3.270   5.366  -0.486  1.00 32.87 LIG 0.04  A 
ATOM     61  CZ  TYR D   6       3.821   6.257   0.410  1.00 33.71 LIG 0.07  A 
ATOM     62  CE2 TYR D   6       4.300   5.816   1.625  1.00 32.90 LIG 0.04  A 
ATOM     63  CD2 TYR D   6       4.222   4.471   1.943  1.00 31.58 LIG 0.01  A 
BRANCH 61 64
ATOM     64 OH   TYR D   6       3.896   7.593   0.088  1.00 34.88 LIG-0.36  OA
ATOM     65 HH   TYR D   6       3.462   8.041   0.651  1.00 34.88 LIG 0.22  HD
ENDBRANCH 61 64
ENDBRANCH 57 58
ENDBRANCH 53 57
ENDBRANCH 50 53
ENDBRANCH 48 49
BRANCH 48 66
ATOM     66  CB  VAL D   5       5.064  -1.240  -2.679  1.00 31.19 LIG 0.01  C 
ATOM     67  CG1 VAL D   5       6.097  -1.724  -1.667  1.00 32.10 LIG 0.01  C 
ATOM     68  CG2 VAL D   5       3.836  -2.124  -2.657  1.00 30.34 LIG 0.01  C 
ENDBRANCH 48 66
ENDBRANCH 45 48
ENDBRANCH 38 44
ENDBRANCH 3 38
TORSDOF 25
ENDMDL
MODEL 6
USER: ADFR SOLUTION from run 65
USER: SCORE 16.610087 LL:  -4.647 LR: -15.508 RR:   0.000 FEB:  -8.051
USER: RMSD 4.137506
USER: SEED 64
USER: STATUS no improvement in best in 8 clusters for 5 generations
USER: GENES 27
USER: genes 0 Translation |==|  0.64118 0.43245 0.58353
USER: genes 1 Rotation |==|  0.21122 0.64228 0.75028 0.78935
USER: genes 2 Torsion [N]-C--CA-[N] |==|  0.39413
USER: genes 3 Torsion [C]-CA--N-[C] |==|  0.56476
USER: genes 4 Torsion [N]-C--CA-[N] |==|  0.56246
USER: genes 5 Torsion [C]-CA--CB-[CG] |==|  0.33976
USER: genes 6 Torsion [CA]-CB--CG-[CD] |==|  0.23899
USER: genes 7 Torsion [CB]-CG--CD-[NE] |==|  0.69856
USER: genes 8 Torsion [CG]-CD--NE-[HE] |==|  0.31154
USER: genes 9 Torsion [C]-CA--N-[C] |==|  0.20207
USER: genes 10 Torsion [N]-C--CA-[N] |==|  0.09685
USER: genes 11 Torsion [C]-CA--N-[C] |==|  0.16642
USER: genes 12 Torsion [C]-CA--CB-[CG2] |==|  0.05886
USER: genes 13 Torsion [CA]-CB--OG1-[HG1] |==|  0.08129
USER: genes 14 Torsion [C]-N--CA-[CB] |==|  0.37715
USER: genes 15 Torsion [N]-CA--CB-[CG] |==|  0.50785
USER: genes 16 Torsion [CA]-CB--CG-[CD] |==|  0.53685
USER: genes 17 Torsion [CB]-CG--CD-[OE2] |==|  0.62663
USER: genes 18 Torsion [N]-CA--C-[N] |==|  0.23517
USER: genes 19 Torsion [C]-N--CA-[CB] |==|  0.78721
USER: genes 20 Torsion [N]-CA--C-[N] |==|  0.21625
USER: genes 21 Torsion [C]-N--CA-[C] |==|  0.83876
USER: genes 22 Torsion [N]-CA--C-[N] |==|  0.42035
USER: genes 23 Torsion [N]-CA--CB-[CG] |==|  0.27704
USER: genes 24 Torsion [CA]-CB--CG-[CD1] |==|  0.80864
USER: genes 25 Torsion [CE1]-CZ--OH-[HH] |==|  0.09029
USER: genes 26 Torsion [N]-CA--CB-[CG1] |==|  0.51238
ROOT
ATOM      1  C   THR D   3       7.012   2.327  -3.339  1.00 23.43 LIG 0.24  C 
ATOM      2 O    THR D   3       7.897   3.163  -3.159  1.00 24.39 LIG-0.27  OA
ATOM      3  N   GLU D   4       7.264   1.036  -3.536  1.00 25.01 LIG-0.35  N 
ATOM      4 H    GLU D   4       6.651   0.441  -3.636  1.00 25.01 LIG 0.16  HD
ENDROOT
BRANCH 1 5
ATOM      5  CA  THR D   3       5.539   2.741  -3.346  1.00 20.85 LIG 0.20  C 
BRANCH 5 6
ATOM      6  N   THR D   3       5.241   3.765  -2.351  1.00 20.16 LIG-0.34  N 
ATOM      7 H    THR D   3       5.921   4.232  -2.110  1.00 20.16 LIG 0.16  HD
ATOM      8  C   ARG D   2       4.014   3.941  -1.871  1.00 20.73 LIG 0.24  C 
ATOM      9 O    ARG D   2       3.058   3.229  -2.185  1.00 19.88 LIG-0.27  OA
BRANCH 8 10
ATOM     10  CA  ARG D   2       3.845   5.078  -0.868  1.00 21.07 LIG 0.18  C 
BRANCH 10 11
ATOM     11  CB  ARG D   2       5.115   5.241  -0.020  1.00 18.72 LIG 0.04  C 
BRANCH 11 12
ATOM     12  CG  ARG D   2       5.740   6.638  -0.100  1.00 17.25 LIG 0.02  C 
BRANCH 12 13
ATOM     13  CD  ARG D   2       5.112   7.599   0.908  1.00 15.57 LIG 0.14  C 
BRANCH 13 14
ATOM     14  NE  ARG D   2       4.269   8.603   0.267  1.00 16.78 LIG-0.23  N 
ATOM     15 HE   ARG D   2       3.421   8.565   0.408  1.00 16.78 LIG 0.18  HD
ATOM     16  CZ  ARG D   2       4.726   9.571  -0.522  1.00 18.57 LIG 0.67  C 
ATOM     17  NH2 ARG D   2       3.884  10.441  -1.065  1.00 17.94 LIG-0.23  N 
ATOM     18  NH1 ARG D   2       6.027   9.674  -0.764  1.00 16.85 LIG-0.23  N 
ATOM     19 1HH2 ARG D   2       3.040  10.380  -0.907  1.00 17.94 LIG 0.17  HD
ATOM     20 2HH2 ARG D   2       4.181  11.066  -1.574  1.00 17.94 LIG 0.17  HD
ATOM     21 2HH1 ARG D   2       6.321  10.301  -1.274  1.00 16.85 LIG 0.17  HD
ATOM     22 1HH1 ARG D   2       6.576   9.115  -0.412  1.00 16.85 LIG 0.17  HD
ENDBRANCH 13 14
ENDBRANCH 12 13
ENDBRANCH 11 12
ENDBRANCH 10 11
BRANCH 10 23
ATOM     23  N   ARG D   2       2.669   4.884  -0.020  1.00 21.51 LIG-0.35  N 
ATOM     24  C   ALA D   1       2.655   3.960   0.936  1.00 21.30 LIG 0.24  C 
ATOM     25 O    ALA D   1       3.635   3.270   1.204  1.00 21.16 LIG-0.27  OA
ATOM     26 H    ARG D   2       2.010   5.408  -0.196  1.00 21.51 LIG 0.16  HD
BRANCH 24 27
ATOM     27  CA  ALA D   1       1.352   3.790   1.717  1.00 21.78 LIG 0.17  C 
ATOM     28  CB  ALA D   1       1.302   2.420   2.372  1.00 21.47 LIG 0.04  C 
BRANCH 27 29
ATOM     29  N   ALA D   1       0.167   4.002   0.888  1.00 22.15 LIG-0.35  N 
ATOM     30 H    ALA D   1      -0.336   4.644   1.163  1.00 22.15 LIG 0.16  HD
ATOM     31  C   ACE D   0      -0.110   3.273  -0.189  1.00 22.99 LIG 0.21  C 
ATOM     32 O    ACE D   0       0.334   2.143  -0.401  1.00 24.10 LIG-0.27  OA
ATOM     33  CH3 ACE D   0      -1.314   3.809  -0.906  1.00 21.14 LIG 0.12  C 
ENDBRANCH 27 29
ENDBRANCH 24 27
ENDBRANCH 10 23
ENDBRANCH 8 10
ENDBRANCH 5 6
BRANCH 5 34
ATOM     34  CB  THR D   3       5.133   3.209  -4.756  1.00 19.16 LIG 0.15  C 
ATOM     35  CG2 THR D   3       6.095   2.648  -5.789  1.00 17.08 LIG 0.04  C 
BRANCH 34 36
ATOM     36 OG1  THR D   3       3.807   2.753  -5.053  1.00 20.38 LIG-0.39  OA
ATOM     37 HG1  THR D   3       3.366   2.689  -4.341  1.00 20.38 LIG 0.21  HD
ENDBRANCH 34 36
ENDBRANCH 5 34
ENDBRANCH 1 5
BRANCH 3 38
ATOM     38  CA  GLU D   4       8.625   0.508  -3.602  1.00 28.82 LIG 0.18  C 
BRANCH 38 39
ATOM     39  CB  GLU D   4       8.740  -0.785  -2.790  1.00 31.32 LIG 0.04  C 
BRANCH 39 40
ATOM     40  CG  GLU D   4      10.139  -1.377  -2.742  1.00 34.96 LIG 0.12  C 
BRANCH 40 41
ATOM     41  CD  GLU D   4      10.151  -2.798  -2.212  1.00 38.68 LIG 0.17  C 
ATOM     42 OE2  GLU D   4      11.009  -3.110  -1.360  1.00 39.24 LIG-0.65  OA
ATOM     43 OE1  GLU D   4       9.306  -3.605  -2.653  1.00 40.65 LIG-0.65  OA
ENDBRANCH 40 41
ENDBRANCH 39 40
ENDBRANCH 38 39
BRANCH 38 44
ATOM     44  C   GLU D   4       9.017   0.233  -5.052  1.00 29.37 LIG 0.24  C 
ATOM     45  N   VAL D   5       9.493   1.265  -5.743  1.00 31.15 LIG-0.35  N 
ATOM     46 H    VAL D   5       9.563   2.062  -5.429  1.00 31.15 LIG 0.16  HD
ATOM     47 O    GLU D   4       8.898  -0.896  -5.528  1.00 28.00 LIG-0.27  OA
BRANCH 45 48
ATOM     48  CA  VAL D   5       9.947   1.118  -7.124  1.00 31.02 LIG 0.18  C 
BRANCH 48 49
ATOM     49  C   VAL D   5       8.980   0.285  -7.960  1.00 31.80 LIG 0.24  C 
ATOM     50  N   TYR D   6       7.878   0.902  -8.376  1.00 29.63 LIG-0.35  N 
ATOM     51 H    TYR D   6       7.668   1.706  -8.155  1.00 29.63 LIG 0.16  HD
ATOM     52 O    VAL D   5       9.233  -0.891  -8.226  1.00 32.83 LIG-0.27  OA
BRANCH 50 53
ATOM     53  CA  TYR D   6       6.916   0.254  -9.258  1.00 30.54 LIG 0.18  C 
BRANCH 53 54
ATOM     54  C   TYR D   6       7.605  -0.178 -10.548  1.00 31.23 LIG 0.28  C 
ATOM     55  N   NH2 D   7       7.090  -1.238 -11.162  1.00 33.55 LIG-0.11  N 
ATOM     56 O    TYR D   6       8.591   0.429 -10.968  1.00 28.81 LIG-0.27  OA
ENDBRANCH 53 54
BRANCH 53 57
ATOM     57  CB  TYR D   6       5.751   1.203  -9.562  1.00 30.33 LIG 0.07  C 
BRANCH 57 58
ATOM     58  CG  TYR D   6       5.835   1.912 -10.901  1.00 31.81 LIG-0.06  A 
ATOM     59  CD1 TYR D   6       6.800   2.883 -11.139  1.00 31.47 LIG 0.01  A 
ATOM     60  CE1 TYR D   6       6.883   3.522 -12.361  1.00 32.87 LIG 0.04  A 
ATOM     61  CZ  TYR D   6       6.003   3.188 -13.368  1.00 33.71 LIG 0.07  A 
ATOM     62  CE2 TYR D   6       5.041   2.222 -13.160  1.00 32.90 LIG 0.04  A 
ATOM     63  CD2 TYR D   6       4.966   1.586 -11.934  1.00 31.58 LIG 0.01  A 
BRANCH 61 64
ATOM     64 OH   TYR D   6       6.083   3.824 -14.586  1.00 34.88 LIG-0.36  OA
ATOM     65 HH   TYR D   6       6.884   4.018 -14.748  1.00 34.88 LIG 0.22  HD
ENDBRANCH 61 64
ENDBRANCH 57 58
ENDBRANCH 53 57
ENDBRANCH 50 53
ENDBRANCH 48 49
BRANCH 48 66
ATOM     66  CB  VAL D   5      11.333   0.448  -7.203  1.00 31.19 LIG 0.01  C 
ATOM     67  CG1 VAL D   5      11.818   0.414  -8.649  1.00 32.10 LIG 0.01  C 
ATOM     68  CG2 VAL D   5      12.328   1.171  -6.322  1.00 30.34 LIG 0.01  C 
ENDBRANCH 48 66
ENDBRANCH 45 48
ENDBRANCH 38 44
ENDBRANCH 3 38
TORSDOF 25
ENDMDL
MODEL 7
USER: ADFR SOLUTION from run 20
USER: SCORE 18.035254 LL:  -5.455 LR: -15.510 RR:   0.000 FEB:  -8.052
USER: RMSD 11.339224
USER: SEED 19
USER: STATUS no improvement in best in 9 clusters for 5 generations
USER: GENES 27
USER: genes 0 Translation |==|  0.66602 0.38684 0.47313
USER: genes 1 Rotation |==|  0.61483 0.91965 0.25741 0.54311
USER: genes 2 Torsion [N]-C--CA-[N] |==|  0.82401
USER: genes 3 Torsion [C]-CA--N-[C] |==|  0.76801
USER: genes 4 Torsion [N]-C--CA-[N] |==|  0.11111
USER: genes 5 Torsion [C]-CA--CB-[CG] |==|  0.62953
USER: genes 6 Torsion [CA]-CB--CG-[CD] |==|  0.60022
USER: genes 7 Torsion [CB]-CG--CD-[NE] |==|  0.43760
USER: genes 8 Torsion [CG]-CD--NE-[HE] |==|  0.04533
USER: genes 9 Torsion [C]-CA--N-[C] |==|  0.12916
USER: genes 10 Torsion [N]-C--CA-[N] |==|  0.40709
USER: genes 11 Torsion [C]-CA--N-[C] |==|  0.67441
USER: genes 12 Torsion [C]-CA--CB-[CG2] |==|  0.49014
USER: genes 13 Torsion [CA]-CB--OG1-[HG1] |==|  0.24654
USER: genes 14 Torsion [C]-N--CA-[CB] |==|  0.46725
USER: genes 15 Torsion [N]-CA--CB-[CG] |==|  0.46232
USER: genes 16 Torsion [CA]-CB--CG-[CD] |==|  0.23074
USER: genes 17 Torsion [CB]-CG--CD-[OE2] |==|  0.23746
USER: genes 18 Torsion [N]-CA--C-[N] |==|  0.43501
USER: genes 19 Torsion [C]-N--CA-[CB] |==|  0.25256
USER: genes 20 Torsion [N]-CA--C-[N] |==|  0.99748
USER: genes 21 Torsion [C]-N--CA-[C] |==|  0.60570
USER: genes 22 Torsion [N]-CA--C-[N] |==|  0.13537
USER: genes 23 Torsion [N]-CA--CB-[CG] |==|  0.78138
USER: genes 24 Torsion [CA]-CB--CG-[CD1] |==|  0.27507
USER: genes 25 Torsion [CE1]-CZ--OH-[HH] |==|  0.95546
USER: genes 26 Torsion [N]-CA--CB-[CG1] |==|  0.19207
ROOT
ATOM      1  C   THR D   3       7.496   1.266  -6.071  1.00 23.43 LIG 0.24  C 
ATOM      2 O    THR D   3       6.670   0.422  -5.726  1.00 24.39 LIG-0.27  OA
ATOM      3  N   GLU D   4       7.682   2.409  -5.416  1.00 25.01 LIG-0.35  N 
ATOM      4 H    GLU D   4       8.275   2.992  -5.635  1.00 25.01 LIG 0.16  HD
ENDROOT
BRANCH 1 5
ATOM      5  CA  THR D   3       8.373   1.038  -7.305  1.00 20.85 LIG 0.20  C 
BRANCH 5 6
ATOM      6  N   THR D   3       8.126   2.020  -8.355  1.00 20.16 LIG-0.34  N 
ATOM      7 H    THR D   3       8.676   2.681  -8.357  1.00 20.16 LIG 0.16  HD
ATOM      8  C   ARG D   2       7.131   1.882  -9.225  1.00 20.73 LIG 0.24  C 
ATOM      9 O    ARG D   2       6.318   0.956  -9.179  1.00 19.88 LIG-0.27  OA
BRANCH 8 10
ATOM     10  CA  ARG D   2       7.021   2.964 -10.293  1.00 21.07 LIG 0.18  C 
BRANCH 10 11
ATOM     11  CB  ARG D   2       6.111   2.500 -11.439  1.00 18.72 LIG 0.04  C 
BRANCH 11 12
ATOM     12  CG  ARG D   2       6.689   2.756 -12.834  1.00 17.25 LIG 0.02  C 
BRANCH 12 13
ATOM     13  CD  ARG D   2       5.601   3.137 -13.838  1.00 15.57 LIG 0.14  C 
BRANCH 13 14
ATOM     14  NE  ARG D   2       6.134   3.873 -14.980  1.00 16.78 LIG-0.23  N 
ATOM     15 HE   ARG D   2       6.983   3.846 -15.115  1.00 16.78 LIG 0.18  HD
ATOM     16  CZ  ARG D   2       5.391   4.582 -15.825  1.00 18.57 LIG 0.67  C 
ATOM     17  NH2 ARG D   2       5.962   5.223 -16.838  1.00 17.94 LIG-0.23  N 
ATOM     18  NH1 ARG D   2       4.076   4.648 -15.663  1.00 16.85 LIG-0.23  N 
ATOM     19 1HH2 ARG D   2       6.815   5.179 -16.948  1.00 17.94 LIG 0.17  HD
ATOM     20 2HH2 ARG D   2       5.481   5.680 -17.383  1.00 17.94 LIG 0.17  HD
ATOM     21 2HH1 ARG D   2       3.597   5.106 -16.211  1.00 16.85 LIG 0.17  HD
ATOM     22 1HH1 ARG D   2       3.702   4.232 -15.010  1.00 16.85 LIG 0.17  HD
ENDBRANCH 13 14
ENDBRANCH 12 13
ENDBRANCH 11 12
ENDBRANCH 10 11
BRANCH 10 23
ATOM     23  N   ARG D   2       8.335   3.366 -10.796  1.00 21.51 LIG-0.35  N 
ATOM     24  C   ALA D   1       9.248   2.460 -11.133  1.00 21.30 LIG 0.24  C 
ATOM     25 O    ALA D   1       9.025   1.253 -11.105  1.00 21.16 LIG-0.27  OA
ATOM     26 H    ARG D   2       8.454   4.216 -10.851  1.00 21.51 LIG 0.16  HD
BRANCH 24 27
ATOM     27  CA  ALA D   1      10.613   2.985 -11.580  1.00 21.78 LIG 0.17  C 
ATOM     28  CB  ALA D   1      10.625   3.218 -13.082  1.00 21.47 LIG 0.04  C 
BRANCH 27 29
ATOM     29  N   ALA D   1      11.710   2.099 -11.193  1.00 22.15 LIG-0.35  N 
ATOM     30 H    ALA D   1      11.668   1.319 -11.554  1.00 22.15 LIG 0.16  HD
ATOM     31  C   ACE D   0      12.683   2.463 -10.362  1.00 22.99 LIG 0.21  C 
ATOM     32 O    ACE D   0      12.596   3.379  -9.542  1.00 24.10 LIG-0.27  OA
ATOM     33  CH3 ACE D   0      13.731   1.395 -10.261  1.00 21.14 LIG 0.12  C 
ENDBRANCH 27 29
ENDBRANCH 24 27
ENDBRANCH 10 23
ENDBRANCH 8 10
ENDBRANCH 5 6
BRANCH 5 34
ATOM     34  CB  THR D   3       9.858   1.028  -6.898  1.00 19.16 LIG 0.15  C 
ATOM     35  CG2 THR D   3      10.728   0.715  -8.103  1.00 17.08 LIG 0.04  C 
BRANCH 34 36
ATOM     36 OG1  THR D   3      10.224   2.312  -6.375  1.00 20.38 LIG-0.39  OA
ATOM     37 HG1  THR D   3      10.079   2.329  -5.548  1.00 20.38 LIG 0.21  HD
ENDBRANCH 34 36
ENDBRANCH 5 34
ENDBRANCH 1 5
BRANCH 3 38
ATOM     38  CA  GLU D   4       6.883   2.779  -4.251  1.00 28.82 LIG 0.18  C 
BRANCH 38 39
ATOM     39  CB  GLU D   4       7.500   3.985  -3.537  1.00 31.32 LIG 0.04  C 
BRANCH 39 40
ATOM     40  CG  GLU D   4       6.589   4.648  -2.517  1.00 34.96 LIG 0.12  C 
BRANCH 40 41
ATOM     41  CD  GLU D   4       6.616   3.949  -1.172  1.00 38.68 LIG 0.17  C 
ATOM     42 OE2  GLU D   4       7.508   4.261  -0.355  1.00 39.24 LIG-0.65  OA
ATOM     43 OE1  GLU D   4       5.748   3.084  -0.932  1.00 40.65 LIG-0.65  OA
ENDBRANCH 40 41
ENDBRANCH 39 40
ENDBRANCH 38 39
BRANCH 38 44
ATOM     44  C   GLU D   4       5.455   3.114  -4.672  1.00 29.37 LIG 0.24  C 
ATOM     45  N   VAL D   5       4.517   2.999  -3.735  1.00 31.15 LIG-0.35  N 
ATOM     46 H    VAL D   5       4.670   2.725  -2.935  1.00 31.15 LIG 0.16  HD
ATOM     47 O    GLU D   4       5.212   3.480  -5.822  1.00 28.00 LIG-0.27  OA
BRANCH 45 48
ATOM     48  CA  VAL D   5       3.122   3.336  -4.002  1.00 31.02 LIG 0.18  C 
BRANCH 48 49
ATOM     49  C   VAL D   5       2.417   3.881  -2.763  1.00 31.80 LIG 0.24  C 
ATOM     50  N   TYR D   6       3.145   3.949  -1.652  1.00 29.63 LIG-0.35  N 
ATOM     51 H    TYR D   6       3.952   3.657  -1.591  1.00 29.63 LIG 0.16  HD
ATOM     52 O    VAL D   5       1.240   4.238  -2.817  1.00 32.83 LIG-0.27  OA
BRANCH 50 53
ATOM     53  CA  TYR D   6       2.628   4.535  -0.422  1.00 30.54 LIG 0.18  C 
BRANCH 53 54
ATOM     54  C   TYR D   6       3.730   5.318   0.282  1.00 31.23 LIG 0.28  C 
ATOM     55  N   NH2 D   7       4.420   6.167  -0.472  1.00 33.55 LIG-0.11  N 
ATOM     56 O    TYR D   6       3.956   5.147   1.480  1.00 28.81 LIG-0.27  OA
ENDBRANCH 53 54
BRANCH 53 57
ATOM     57  CB  TYR D   6       2.074   3.440   0.496  1.00 30.33 LIG 0.07  C 
BRANCH 57 58
ATOM     58  CG  TYR D   6       0.695   2.927   0.123  1.00 31.81 LIG-0.06  A 
ATOM     59  CD1 TYR D   6       0.539   1.746  -0.592  1.00 31.47 LIG 0.01  A 
ATOM     60  CE1 TYR D   6      -0.717   1.274  -0.923  1.00 32.87 LIG 0.04  A 
ATOM     61  CZ  TYR D   6      -1.836   1.976  -0.531  1.00 33.71 LIG 0.07  A 
ATOM     62  CE2 TYR D   6      -1.708   3.146   0.188  1.00 32.90 LIG 0.04  A 
ATOM     63  CD2 TYR D   6      -0.448   3.612   0.515  1.00 31.58 LIG 0.01  A 
BRANCH 61 64
ATOM     64 OH   TYR D   6      -3.088   1.507  -0.859  1.00 34.88 LIG-0.36  OA
ATOM     65 HH   TYR D   6      -3.021   0.930  -1.467  1.00 34.88 LIG 0.22  HD
ENDBRANCH 61 64
ENDBRANCH 57 58
ENDBRANCH 53 57
ENDBRANCH 50 53
ENDBRANCH 48 49
BRANCH 48 66
ATOM     66  CB  VAL D   5       2.321   2.116  -4.499  1.00 31.19 LIG 0.01  C 
ATOM     67  CG1 VAL D   5       2.152   1.104  -3.370  1.00 32.10 LIG 0.01  C 
ATOM     68  CG2 VAL D   5       0.976   2.543  -5.042  1.00 30.34 LIG 0.01  C 
ENDBRANCH 48 66
ENDBRANCH 45 48
ENDBRANCH 38 44
ENDBRANCH 3 38
TORSDOF 25
ENDMDL
MODEL 8
USER: ADFR SOLUTION from run 46
USER: SCORE 18.556983 LL:  -5.091 LR: -15.418 RR:   0.000 FEB:  -7.960
USER: RMSD 9.777948
USER: SEED 45
USER: STATUS no improvement in best in 4 clusters for 5 generations
USER: GENES 27
USER: genes 0 Translation |==|  0.71782 0.35256 0.53360
USER: genes 1 Rotation |==|  0.34422 0.93579 0.56316 0.67841
USER: genes 2 Torsion [N]-C--CA-[N] |==|  0.63921
USER: genes 3 Torsion [C]-CA--N-[C] |==|  0.16171
USER: genes 4 Torsion [N]-C--CA-[N] |==|  0.07598
USER: genes 5 Torsion [C]-CA--CB-[CG] |==|  0.39611
USER: genes 6 Torsion [CA]-CB--CG-[CD] |==|  0.09171
USER: genes 7 Torsion [CB]-CG--CD-[NE] |==|  0.34995
USER: genes 8 Torsion [CG]-CD--NE-[HE] |==|  0.07447
USER: genes 9 Torsion [C]-CA--N-[C] |==|  0.17033
USER: genes 10 Torsion [N]-C--CA-[N] |==|  0.37843
USER: genes 11 Torsion [C]-CA--N-[C] |==|  0.82997
USER: genes 12 Torsion [C]-CA--CB-[CG2] |==|  0.27493
USER: genes 13 Torsion [CA]-CB--OG1-[HG1] |==|  0.95990
USER: genes 14 Torsion [C]-N--CA-[CB] |==|  0.20422
USER: genes 15 Torsion [N]-CA--CB-[CG] |==|  0.48637
USER: genes 16 Torsion [CA]-CB--CG-[CD] |==|  0.44131
USER: genes 17 Torsion [CB]-CG--CD-[OE2] |==|  0.81713
USER: genes 18 Torsion [N]-CA--C-[N] |==|  0.93102
USER: genes 19 Torsion [C]-N--CA-[CB] |==|  0.19433
USER: genes 20 Torsion [N]-CA--C-[N] |==|  0.02222
USER: genes 21 Torsion [C]-N--CA-[C] |==|  0.67091
USER: genes 22 Torsion [N]-CA--C-[N] |==|  0.39073
USER: genes 23 Torsion [N]-CA--CB-[CG] |==|  0.45953
USER: genes 24 Torsion [CA]-CB--CG-[CD1] |==|  0.18587
USER: genes 25 Torsion [CE1]-CZ--OH-[HH] |==|  0.97932
USER: genes 26 Torsion [N]-CA--CB-[CG1] |==|  0.25147
ROOT
ATOM      1  C   THR D   3       8.507   0.469  -4.574  1.00 23.43 LIG 0.24  C 
ATOM      2 O    THR D   3       9.288  -0.202  -5.248  1.00 24.39 LIG-0.27  OA
ATOM      3  N   GLU D   4       7.778  -0.042  -3.586  1.00 25.01 LIG-0.35  N 
ATOM      4 H    GLU D   4       7.249   0.425  -3.094  1.00 25.01 LIG 0.16  HD
ENDROOT
BRANCH 1 5
ATOM      5  CA  THR D   3       8.328   1.964  -4.850  1.00 20.85 LIG 0.20  C 
BRANCH 5 6
ATOM      6  N   THR D   3       8.084   2.248  -6.259  1.00 20.16 LIG-0.34  N 
ATOM      7 H    THR D   3       8.657   2.780  -6.617  1.00 20.16 LIG 0.16  HD
ATOM      8  C   ARG D   2       7.056   1.718  -6.914  1.00 20.73 LIG 0.24  C 
ATOM      9 O    ARG D   2       6.211   1.000  -6.375  1.00 19.88 LIG-0.27  OA
BRANCH 8 10
ATOM     10  CA  ARG D   2       6.952   2.071  -8.394  1.00 21.07 LIG 0.18  C 
BRANCH 10 11
ATOM     11  CB  ARG D   2       6.250   0.946  -9.167  1.00 18.72 LIG 0.04  C 
BRANCH 11 12
ATOM     12  CG  ARG D   2       5.324   1.442 -10.282  1.00 17.25 LIG 0.02  C 
BRANCH 12 13
ATOM     13  CD  ARG D   2       5.845   2.727 -10.923  1.00 15.57 LIG 0.14  C 
BRANCH 13 14
ATOM     14  NE  ARG D   2       5.969   2.612 -12.373  1.00 16.78 LIG-0.23  N 
ATOM     15 HE   ARG D   2       5.455   2.054 -12.778  1.00 16.78 LIG 0.18  HD
ATOM     16  CZ  ARG D   2       6.826   3.315 -13.108  1.00 18.57 LIG 0.67  C 
ATOM     17  NH2 ARG D   2       6.872   3.143 -14.424  1.00 17.94 LIG-0.23  N 
ATOM     18  NH1 ARG D   2       7.635   4.193 -12.531  1.00 16.85 LIG-0.23  N 
ATOM     19 1HH2 ARG D   2       6.346   2.577 -14.802  1.00 17.94 LIG 0.17  HD
ATOM     20 2HH2 ARG D   2       7.426   3.598 -14.898  1.00 17.94 LIG 0.17  HD
ATOM     21 2HH1 ARG D   2       8.188   4.647 -13.008  1.00 16.85 LIG 0.17  HD
ATOM     22 1HH1 ARG D   2       7.607   4.309 -11.680  1.00 16.85 LIG 0.17  HD
ENDBRANCH 13 14
ENDBRANCH 12 13
ENDBRANCH 11 12
ENDBRANCH 10 11
BRANCH 10 23
ATOM     23  N   ARG D   2       8.261   2.370  -8.974  1.00 21.51 LIG-0.35  N 
ATOM     24  C   ALA D   1       9.227   1.456  -9.000  1.00 21.30 LIG 0.24  C 
ATOM     25 O    ALA D   1       9.060   0.305  -8.604  1.00 21.16 LIG-0.27  OA
ATOM     26 H    ARG D   2       8.341   3.167  -9.286  1.00 21.51 LIG 0.16  HD
BRANCH 24 27
ATOM     27  CA  ALA D   1      10.579   1.892  -9.564  1.00 21.78 LIG 0.17  C 
ATOM     28  CB  ALA D   1      10.729   1.425 -11.003  1.00 21.47 LIG 0.04  C 
BRANCH 27 29
ATOM     29  N   ALA D   1      11.703   1.423  -8.756  1.00 22.15 LIG-0.35  N 
ATOM     30 H    ALA D   1      12.240   0.902  -9.182  1.00 22.15 LIG 0.16  HD
ATOM     31  C   ACE D   0      11.882   1.766  -7.484  1.00 22.99 LIG 0.21  C 
ATOM     32 O    ACE D   0      10.988   2.167  -6.736  1.00 24.10 LIG-0.27  OA
ATOM     33  CH3 ACE D   0      13.186   1.240  -6.963  1.00 21.14 LIG 0.12  C 
ENDBRANCH 27 29
ENDBRANCH 24 27
ENDBRANCH 10 23
ENDBRANCH 8 10
ENDBRANCH 5 6
BRANCH 5 34
ATOM     34  CB  THR D   3       7.196   2.527  -3.970  1.00 19.16 LIG 0.15  C 
ATOM     35  CG2 THR D   3       7.778   3.218  -2.748  1.00 17.08 LIG 0.04  C 
BRANCH 34 36
ATOM     36 OG1  THR D   3       6.425   3.474  -4.722  1.00 20.38 LIG-0.39  OA
ATOM     37 HG1  THR D   3       6.845   3.687  -5.417  1.00 20.38 LIG 0.21  HD
ENDBRANCH 34 36
ENDBRANCH 5 34
ENDBRANCH 1 5
BRANCH 3 38
ATOM     38  CA  GLU D   4       7.811  -1.462  -3.246  1.00 28.82 LIG 0.18  C 
BRANCH 38 39
ATOM     39  CB  GLU D   4       9.123  -1.814  -2.537  1.00 31.32 LIG 0.04  C 
BRANCH 39 40
ATOM     40  CG  GLU D   4       9.204  -3.248  -2.036  1.00 34.96 LIG 0.12  C 
BRANCH 40 41
ATOM     41  CD  GLU D   4      10.632  -3.707  -1.818  1.00 38.68 LIG 0.17  C 
ATOM     42 OE2  GLU D   4      11.383  -3.813  -2.810  1.00 39.24 LIG-0.65  OA
ATOM     43 OE1  GLU D   4      11.003  -3.966  -0.654  1.00 40.65 LIG-0.65  OA
ENDBRANCH 40 41
ENDBRANCH 39 40
ENDBRANCH 38 39
BRANCH 38 44
ATOM     44  C   GLU D   4       6.634  -1.819  -2.342  1.00 29.37 LIG 0.24  C 
ATOM     45  N   VAL D   5       6.119  -0.828  -1.620  1.00 31.15 LIG-0.35  N 
ATOM     46 H    VAL D   5       6.427  -0.025  -1.618  1.00 31.15 LIG 0.16  HD
ATOM     47 O    GLU D   4       6.197  -2.969  -2.309  1.00 28.00 LIG-0.27  OA
BRANCH 45 48
ATOM     48  CA  VAL D   5       4.961  -1.032  -0.753  1.00 31.02 LIG 0.18  C 
BRANCH 48 49
ATOM     49  C   VAL D   5       4.389   0.287  -0.240  1.00 31.80 LIG 0.24  C 
ATOM     50  N   TYR D   6       4.898   1.396  -0.769  1.00 29.63 LIG-0.35  N 
ATOM     51 H    TYR D   6       5.552   1.402  -1.328  1.00 29.63 LIG 0.16  HD
ATOM     52 O    VAL D   5       3.500   0.295   0.612  1.00 32.83 LIG-0.27  OA
BRANCH 50 53
ATOM     53  CA  TYR D   6       4.380   2.717  -0.440  1.00 30.54 LIG 0.18  C 
BRANCH 53 54
ATOM     54  C   TYR D   6       3.840   3.389  -1.698  1.00 31.23 LIG 0.28  C 
ATOM     55  N   NH2 D   7       2.721   4.091  -1.554  1.00 33.55 LIG-0.11  N 
ATOM     56 O    TYR D   6       4.421   3.264  -2.777  1.00 28.81 LIG-0.27  OA
ENDBRANCH 53 54
BRANCH 53 57
ATOM     57  CB  TYR D   6       5.478   3.574   0.200  1.00 30.33 LIG 0.07  C 
BRANCH 57 58
ATOM     58  CG  TYR D   6       5.174   5.058   0.270  1.00 31.81 LIG-0.06  A 
ATOM     59  CD1 TYR D   6       4.155   5.544   1.080  1.00 31.47 LIG 0.01  A 
ATOM     60  CE1 TYR D   6       3.884   6.897   1.152  1.00 32.87 LIG 0.04  A 
ATOM     61  CZ  TYR D   6       4.640   7.785   0.419  1.00 33.71 LIG 0.07  A 
ATOM     62  CE2 TYR D   6       5.663   7.330  -0.386  1.00 32.90 LIG 0.04  A 
ATOM     63  CD2 TYR D   6       5.928   5.974  -0.452  1.00 31.58 LIG 0.01  A 
BRANCH 61 64
ATOM     64 OH   TYR D   6       4.372   9.134   0.489  1.00 34.88 LIG-0.36  OA
ATOM     65 HH   TYR D   6       3.667   9.256   0.929  1.00 34.88 LIG 0.22  HD
ENDBRANCH 61 64
ENDBRANCH 57 58
ENDBRANCH 53 57
ENDBRANCH 50 53
ENDBRANCH 48 49
BRANCH 48 66
ATOM     66  CB  VAL D   5       5.309  -1.901   0.472  1.00 31.19 LIG 0.01  C 
ATOM     67  CG1 VAL D   5       5.759  -1.018   1.632  1.00 32.10 LIG 0.01  C 
ATOM     68  CG2 VAL D   5       4.126  -2.754   0.876  1.00 30.34 LIG 0.01  C 
ENDBRANCH 48 66
ENDBRANCH 45 48
ENDBRANCH 38 44
ENDBRANCH 3 38
TORSDOF 25
ENDMDL
MODEL 9
USER: ADFR SOLUTION from run 20
USER: SCORE 18.578585 LL:  -5.431 LR: -15.383 RR:   0.000 FEB:  -7.926
USER: RMSD 11.205952
USER: SEED 19
USER: STATUS no improvement in best in 9 clusters for 5 generations
USER: GENES 27
USER: genes 0 Translation |==|  0.66593 0.38662 0.47375
USER: genes 1 Rotation |==|  0.61424 0.92029 0.25701 0.53553
USER: genes 2 Torsion [N]-C--CA-[N] |==|  0.82468
USER: genes 3 Torsion [C]-CA--N-[C] |==|  0.76496
USER: genes 4 Torsion [N]-C--CA-[N] |==|  0.10587
USER: genes 5 Torsion [C]-CA--CB-[CG] |==|  0.63331
USER: genes 6 Torsion [CA]-CB--CG-[CD] |==|  0.59929
USER: genes 7 Torsion [CB]-CG--CD-[NE] |==|  0.43804
USER: genes 8 Torsion [CG]-CD--NE-[HE] |==|  0.04429
USER: genes 9 Torsion [C]-CA--N-[C] |==|  0.12975
USER: genes 10 Torsion [N]-C--CA-[N] |==|  0.40741
USER: genes 11 Torsion [C]-CA--N-[C] |==|  0.67434
USER: genes 12 Torsion [C]-CA--CB-[CG2] |==|  0.48984
USER: genes 13 Torsion [CA]-CB--OG1-[HG1] |==|  0.24726
USER: genes 14 Torsion [C]-N--CA-[CB] |==|  0.47247
USER: genes 15 Torsion [N]-CA--CB-[CG] |==|  0.45759
USER: genes 16 Torsion [CA]-CB--CG-[CD] |==|  0.23184
USER: genes 17 Torsion [CB]-CG--CD-[OE2] |==|  0.23695
USER: genes 18 Torsion [N]-CA--C-[N] |==|  0.42008
USER: genes 19 Torsion [C]-N--CA-[CB] |==|  0.21048
USER: genes 20 Torsion [N]-CA--C-[N] |==|  0.01350
USER: genes 21 Torsion [C]-N--CA-[C] |==|  0.15386
USER: genes 22 Torsion [N]-CA--C-[N] |==|  0.12517
USER: genes 23 Torsion [N]-CA--CB-[CG] |==|  0.80356
USER: genes 24 Torsion [CA]-CB--CG-[CD1] |==|  0.29775
USER: genes 25 Torsion [CE1]-CZ--OH-[HH] |==|  0.95650
USER: genes 26 Torsion [N]-CA--CB-[CG1] |==|  0.21069
ROOT
ATOM      1  C   THR D   3       7.495   1.261  -6.056  1.00 23.43 LIG 0.24  C 
ATOM      2 O    THR D   3       6.668   0.425  -5.693  1.00 24.39 LIG-0.27  OA
ATOM      3  N   GLU D   4       7.712   2.397  -5.399  1.00 25.01 LIG-0.35  N 
ATOM      4 H    GLU D   4       8.306   2.974  -5.630  1.00 25.01 LIG 0.16  HD
ENDROOT
BRANCH 1 5
ATOM      5  CA  THR D   3       8.334   1.031  -7.315  1.00 20.85 LIG 0.20  C 
BRANCH 5 6
ATOM      6  N   THR D   3       8.076   2.026  -8.349  1.00 20.16 LIG-0.34  N 
ATOM      7 H    THR D   3       8.627   2.686  -8.350  1.00 20.16 LIG 0.16  HD
ATOM      8  C   ARG D   2       7.068   1.901  -9.206  1.00 20.73 LIG 0.24  C 
ATOM      9 O    ARG D   2       6.254   0.976  -9.161  1.00 19.88 LIG-0.27  OA
BRANCH 8 10
ATOM     10  CA  ARG D   2       6.947   2.997 -10.260  1.00 21.07 LIG 0.18  C 
BRANCH 10 11
ATOM     11  CB  ARG D   2       6.057   2.530 -11.421  1.00 18.72 LIG 0.04  C 
BRANCH 11 12
ATOM     12  CG  ARG D   2       6.658   2.789 -12.807  1.00 17.25 LIG 0.02  C 
BRANCH 12 13
ATOM     13  CD  ARG D   2       5.586   3.160 -13.830  1.00 15.57 LIG 0.14  C 
BRANCH 13 14
ATOM     14  NE  ARG D   2       6.134   3.896 -14.965  1.00 16.78 LIG-0.23  N 
ATOM     15 HE   ARG D   2       6.986   3.879 -15.083  1.00 16.78 LIG 0.18  HD
ATOM     16  CZ  ARG D   2       5.401   4.592 -15.830  1.00 18.57 LIG 0.67  C 
ATOM     17  NH2 ARG D   2       5.986   5.233 -16.834  1.00 17.94 LIG-0.23  N 
ATOM     18  NH1 ARG D   2       4.082   4.643 -15.695  1.00 16.85 LIG-0.23  N 
ATOM     19 1HH2 ARG D   2       6.840   5.199 -16.927  1.00 17.94 LIG 0.17  HD
ATOM     20 2HH2 ARG D   2       5.511   5.682 -17.392  1.00 17.94 LIG 0.17  HD
ATOM     21 2HH1 ARG D   2       3.609   5.093 -16.255  1.00 16.85 LIG 0.17  HD
ATOM     22 1HH1 ARG D   2       3.699   4.227 -15.048  1.00 16.85 LIG 0.17  HD
ENDBRANCH 13 14
ENDBRANCH 12 13
ENDBRANCH 11 12
ENDBRANCH 10 11
BRANCH 10 23
ATOM     23  N   ARG D   2       8.257   3.432 -10.744  1.00 21.51 LIG-0.35  N 
ATOM     24  C   ALA D   1       9.191   2.551 -11.089  1.00 21.30 LIG 0.24  C 
ATOM     25 O    ALA D   1       8.991   1.339 -11.084  1.00 21.16 LIG-0.27  OA
ATOM     26 H    ARG D   2       8.359   4.286 -10.782  1.00 21.51 LIG 0.16  HD
BRANCH 24 27
ATOM     27  CA  ALA D   1      10.549   3.110 -11.514  1.00 21.78 LIG 0.17  C 
ATOM     28  CB  ALA D   1      10.568   3.374 -13.010  1.00 21.47 LIG 0.04  C 
BRANCH 27 29
ATOM     29  N   ALA D   1      11.659   2.238 -11.135  1.00 22.15 LIG-0.35  N 
ATOM     30 H    ALA D   1      11.634   1.465 -11.511  1.00 22.15 LIG 0.16  HD
ATOM     31  C   ACE D   0      12.618   2.604 -10.289  1.00 22.99 LIG 0.21  C 
ATOM     32 O    ACE D   0      12.507   3.502  -9.452  1.00 24.10 LIG-0.27  OA
ATOM     33  CH3 ACE D   0      13.686   1.554 -10.200  1.00 21.14 LIG 0.12  C 
ENDBRANCH 27 29
ENDBRANCH 24 27
ENDBRANCH 10 23
ENDBRANCH 8 10
ENDBRANCH 5 6
BRANCH 5 34
ATOM     34  CB  THR D   3       9.830   0.994  -6.947  1.00 19.16 LIG 0.15  C 
ATOM     35  CG2 THR D   3      10.662   0.676  -8.178  1.00 17.08 LIG 0.04  C 
BRANCH 34 36
ATOM     36 OG1  THR D   3      10.230   2.267  -6.425  1.00 20.38 LIG-0.39  OA
ATOM     37 HG1  THR D   3      10.110   2.280  -5.594  1.00 20.38 LIG 0.21  HD
ENDBRANCH 34 36
ENDBRANCH 5 34
ENDBRANCH 1 5
BRANCH 3 38
ATOM     38  CA  GLU D   4       6.950   2.769  -4.210  1.00 28.82 LIG 0.18  C 
BRANCH 38 39
ATOM     39  CB  GLU D   4       7.574   3.991  -3.531  1.00 31.32 LIG 0.04  C 
BRANCH 39 40
ATOM     40  CG  GLU D   4       6.675   4.677  -2.515  1.00 34.96 LIG 0.12  C 
BRANCH 40 41
ATOM     41  CD  GLU D   4       6.726   4.015  -1.153  1.00 38.68 LIG 0.17  C 
ATOM     42 OE2  GLU D   4       7.631   4.350  -0.360  1.00 39.24 LIG-0.65  OA
ATOM     43 OE1  GLU D   4       5.864   3.154  -0.876  1.00 40.65 LIG-0.65  OA
ENDBRANCH 40 41
ENDBRANCH 39 40
ENDBRANCH 38 39
BRANCH 38 44
ATOM     44  C   GLU D   4       5.503   3.080  -4.583  1.00 29.37 LIG 0.24  C 
ATOM     45  N   VAL D   5       4.586   2.855  -3.646  1.00 31.15 LIG-0.35  N 
ATOM     46 H    VAL D   5       4.763   2.527  -2.871  1.00 31.15 LIG 0.16  HD
ATOM     47 O    GLU D   4       5.226   3.523  -5.698  1.00 28.00 LIG-0.27  OA
BRANCH 45 48
ATOM     48  CA  VAL D   5       3.175   3.158  -3.865  1.00 31.02 LIG 0.18  C 
BRANCH 48 49
ATOM     49  C   VAL D   5       2.390   3.214  -2.557  1.00 31.80 LIG 0.24  C 
ATOM     50  N   TYR D   6       3.098   3.087  -1.439  1.00 29.63 LIG-0.35  N 
ATOM     51 H    TYR D   6       3.943   2.924  -1.424  1.00 29.63 LIG 0.16  HD
ATOM     52 O    VAL D   5       1.169   3.377  -2.565  1.00 32.83 LIG-0.27  OA
BRANCH 50 53
ATOM     53  CA  TYR D   6       2.491   3.215  -0.121  1.00 30.54 LIG 0.18  C 
BRANCH 53 54
ATOM     54  C   TYR D   6       1.327   2.238   0.010  1.00 31.23 LIG 0.28  C 
ATOM     55  N   NH2 D   7       1.547   1.002  -0.423  1.00 33.55 LIG-0.11  N 
ATOM     56 O    TYR D   6       0.250   2.603   0.483  1.00 28.81 LIG-0.27  OA
ENDBRANCH 53 54
BRANCH 53 57
ATOM     57  CB  TYR D   6       2.015   4.654   0.108  1.00 30.33 LIG 0.07  C 
BRANCH 57 58
ATOM     58  CG  TYR D   6       3.123   5.674   0.294  1.00 31.81 LIG-0.06  A 
ATOM     59  CD1 TYR D   6       3.425   6.594  -0.702  1.00 31.47 LIG 0.01  A 
ATOM     60  CE1 TYR D   6       4.427   7.529  -0.529  1.00 32.87 LIG 0.04  A 
ATOM     61  CZ  TYR D   6       5.135   7.562   0.652  1.00 33.71 LIG 0.07  A 
ATOM     62  CE2 TYR D   6       4.849   6.665   1.661  1.00 32.90 LIG 0.04  A 
ATOM     63  CD2 TYR D   6       3.843   5.733   1.480  1.00 31.58 LIG 0.01  A 
BRANCH 61 64
ATOM     64 OH   TYR D   6       6.134   8.493   0.827  1.00 34.88 LIG-0.36  OA
ATOM     65 HH   TYR D   6       6.345   8.820   0.082  1.00 34.88 LIG 0.22  HD
ENDBRANCH 61 64
ENDBRANCH 57 58
ENDBRANCH 53 57
ENDBRANCH 50 53
ENDBRANCH 48 49
BRANCH 48 66
ATOM     66  CB  VAL D   5       2.499   2.112  -4.773  1.00 31.19 LIG 0.01  C 
ATOM     67  CG1 VAL D   5       2.236   0.829  -3.991  1.00 32.10 LIG 0.01  C 
ATOM     68  CG2 VAL D   5       1.213   2.658  -5.354  1.00 30.34 LIG 0.01  C 
ENDBRANCH 48 66
ENDBRANCH 45 48
ENDBRANCH 38 44
ENDBRANCH 3 38
TORSDOF 25
ENDMDL
MODEL 10
USER: ADFR SOLUTION from run 125
USER: SCORE 17.125185 LL:  -4.863 LR: -15.379 RR:   0.000 FEB:  -7.922
USER: RMSD 4.592644
USER: SEED 124
USER: STATUS searching
USER: GENES 27
USER: genes 0 Translation |==|  0.63314 0.41441 0.56104
USER: genes 1 Rotation |==|  0.18909 0.67212 0.76195 0.73472
USER: genes 2 Torsion [N]-C--CA-[N] |==|  0.34796
USER: genes 3 Torsion [C]-CA--N-[C] |==|  0.69507
USER: genes 4 Torsion [N]-C--CA-[N] |==|  0.45222
USER: genes 5 Torsion [C]-CA--CB-[CG] |==|  0.34128
USER: genes 6 Torsion [CA]-CB--CG-[CD] |==|  0.23028
USER: genes 7 Torsion [CB]-CG--CD-[NE] |==|  0.66776
USER: genes 8 Torsion [CG]-CD--NE-[HE] |==|  0.31442
USER: genes 9 Torsion [C]-CA--N-[C] |==|  0.60579
USER: genes 10 Torsion [N]-C--CA-[N] |==|  0.79969
USER: genes 11 Torsion [C]-CA--N-[C] |==|  0.77533
USER: genes 12 Torsion [C]-CA--CB-[CG2] |==|  0.52768
USER: genes 13 Torsion [CA]-CB--OG1-[HG1] |==|  0.13837
USER: genes 14 Torsion [C]-N--CA-[CB] |==|  0.45061
USER: genes 15 Torsion [N]-CA--CB-[CG] |==|  0.58159
USER: genes 16 Torsion [CA]-CB--CG-[CD] |==|  0.48247
USER: genes 17 Torsion [CB]-CG--CD-[OE2] |==|  0.08804
USER: genes 18 Torsion [N]-CA--C-[N] |==|  0.27016
USER: genes 19 Torsion [C]-N--CA-[CB] |==|  0.80556
USER: genes 20 Torsion [N]-CA--C-[N] |==|  0.22738
USER: genes 21 Torsion [C]-N--CA-[C] |==|  0.20987
USER: genes 22 Torsion [N]-CA--C-[N] |==|  0.05322
USER: genes 23 Torsion [N]-CA--CB-[CG] |==|  0.83191
USER: genes 24 Torsion [CA]-CB--CG-[CD1] |==|  0.23009
USER: genes 25 Torsion [CE1]-CZ--OH-[HH] |==|  0.71262
USER: genes 26 Torsion [N]-CA--CB-[CG1] |==|  0.56808
ROOT
ATOM      1  C   THR D   3       6.855   1.907  -3.895  1.00 23.43 LIG 0.24  C 
ATOM      2 O    THR D   3       7.661   2.830  -4.012  1.00 24.39 LIG-0.27  OA
ATOM      3  N   GLU D   4       7.219   0.629  -3.838  1.00 25.01 LIG-0.35  N 
ATOM      4 H    GLU D   4       6.665  -0.020  -3.731  1.00 25.01 LIG 0.16  HD
ENDROOT
BRANCH 1 5
ATOM      5  CA  THR D   3       5.353   2.192  -3.810  1.00 20.85 LIG 0.20  C 
BRANCH 5 6
ATOM      6  N   THR D   3       5.021   3.128  -2.743  1.00 20.16 LIG-0.34  N 
ATOM      7 H    THR D   3       5.277   3.936  -2.890  1.00 20.16 LIG 0.16  HD
ATOM      8  C   ARG D   2       4.376   2.743  -1.647  1.00 20.73 LIG 0.24  C 
ATOM      9 O    ARG D   2       4.061   1.572  -1.426  1.00 19.88 LIG-0.27  OA
BRANCH 8 10
ATOM     10  CA  ARG D   2       4.059   3.840  -0.637  1.00 21.07 LIG 0.18  C 
BRANCH 10 11
ATOM     11  CB  ARG D   2       5.333   4.282   0.096  1.00 18.72 LIG 0.04  C 
BRANCH 11 12
ATOM     12  CG  ARG D   2       5.636   5.779  -0.032  1.00 17.25 LIG 0.02  C 
BRANCH 12 13
ATOM     13  CD  ARG D   2       4.849   6.606   0.984  1.00 15.57 LIG 0.14  C 
BRANCH 13 14
ATOM     14  NE  ARG D   2       3.965   7.575   0.345  1.00 16.78 LIG-0.23  N 
ATOM     15 HE   ARG D   2       3.116   7.460   0.427  1.00 16.78 LIG 0.18  HD
ATOM     16  CZ  ARG D   2       4.387   8.623  -0.357  1.00 18.57 LIG 0.67  C 
ATOM     17  NH2 ARG D   2       3.509   9.454  -0.906  1.00 17.94 LIG-0.23  N 
ATOM     18  NH1 ARG D   2       5.686   8.846  -0.506  1.00 16.85 LIG-0.23  N 
ATOM     19 1HH2 ARG D   2       2.665   9.314  -0.808  1.00 17.94 LIG 0.17  HD
ATOM     20 2HH2 ARG D   2       3.783  10.131  -1.359  1.00 17.94 LIG 0.17  HD
ATOM     21 2HH1 ARG D   2       5.957   9.525  -0.959  1.00 16.85 LIG 0.17  HD
ATOM     22 1HH1 ARG D   2       6.258   8.312  -0.149  1.00 16.85 LIG 0.17  HD
ENDBRANCH 13 14
ENDBRANCH 12 13
ENDBRANCH 11 12
ENDBRANCH 10 11
BRANCH 10 23
ATOM     23  N   ARG D   2       3.026   3.423   0.311  1.00 21.51 LIG-0.35  N 
ATOM     24  C   ALA D   1       2.097   4.275   0.735  1.00 21.30 LIG 0.24  C 
ATOM     25 O    ALA D   1       2.012   5.425   0.314  1.00 21.16 LIG-0.27  OA
ATOM     26 H    ARG D   2       3.077   2.601   0.559  1.00 21.51 LIG 0.16  HD
BRANCH 24 27
ATOM     27  CA  ALA D   1       1.107   3.758   1.779  1.00 21.78 LIG 0.17  C 
ATOM     28  CB  ALA D   1       1.849   3.134   2.950  1.00 21.47 LIG 0.04  C 
BRANCH 27 29
ATOM     29  N   ALA D   1       0.145   2.809   1.221  1.00 22.15 LIG-0.35  N 
ATOM     30 H    ALA D   1       0.348   1.985   1.369  1.00 22.15 LIG 0.16  HD
ATOM     31  C   ACE D   0      -0.940   3.180   0.548  1.00 22.99 LIG 0.21  C 
ATOM     32 O    ACE D   0      -1.077   4.269  -0.013  1.00 24.10 LIG-0.27  OA
ATOM     33  CH3 ACE D   0      -1.799   1.995   0.218  1.00 21.14 LIG 0.12  C 
ENDBRANCH 27 29
ENDBRANCH 24 27
ENDBRANCH 10 23
ENDBRANCH 8 10
ENDBRANCH 5 6
BRANCH 5 34
ATOM     34  CB  THR D   3       4.839   2.700  -5.170  1.00 19.16 LIG 0.15  C 
ATOM     35  CG2 THR D   3       3.417   3.215  -5.032  1.00 17.08 LIG 0.04  C 
BRANCH 34 36
ATOM     36 OG1  THR D   3       5.680   3.764  -5.637  1.00 20.38 LIG-0.39  OA
ATOM     37 HG1  THR D   3       6.485   3.525  -5.592  1.00 20.38 LIG 0.21  HD
ENDBRANCH 34 36
ENDBRANCH 5 34
ENDBRANCH 1 5
BRANCH 3 38
ATOM     38  CA  GLU D   4       8.613   0.210  -3.956  1.00 28.82 LIG 0.18  C 
BRANCH 38 39
ATOM     39  CB  GLU D   4       8.792  -1.217  -3.426  1.00 31.32 LIG 0.04  C 
BRANCH 39 40
ATOM     40  CG  GLU D   4      10.168  -1.507  -2.848  1.00 34.96 LIG 0.12  C 
BRANCH 40 41
ATOM     41  CD  GLU D   4      10.249  -2.876  -2.201  1.00 38.68 LIG 0.17  C 
ATOM     42 OE2  GLU D   4       9.551  -3.799  -2.668  1.00 39.24 LIG-0.65  OA
ATOM     43 OE1  GLU D   4      11.009  -3.027  -1.221  1.00 40.65 LIG-0.65  OA
ENDBRANCH 40 41
ENDBRANCH 39 40
ENDBRANCH 38 39
BRANCH 38 44
ATOM     44  C   GLU D   4       9.065   0.270  -5.412  1.00 29.37 LIG 0.24  C 
ATOM     45  N   VAL D   5       9.726   1.362  -5.784  1.00 31.15 LIG-0.35  N 
ATOM     46 H    VAL D   5       9.883   2.029  -5.264  1.00 31.15 LIG 0.16  HD
ATOM     47 O    GLU D   4       8.825  -0.662  -6.180  1.00 28.00 LIG-0.27  OA
BRANCH 45 48
ATOM     48  CA  VAL D   5      10.251   1.517  -7.138  1.00 31.02 LIG 0.18  C 
BRANCH 48 49
ATOM     49  C   VAL D   5       9.189   1.246  -8.200  1.00 31.80 LIG 0.24  C 
ATOM     50  N   TYR D   6       8.360   2.249  -8.476  1.00 29.63 LIG-0.35  N 
ATOM     51 H    TYR D   6       8.363   3.000  -8.056  1.00 29.63 LIG 0.16  HD
ATOM     52 O    VAL D   5       9.128   0.151  -8.760  1.00 32.83 LIG-0.27  OA
BRANCH 50 53
ATOM     53  CA  TYR D   6       7.361   2.158  -9.532  1.00 30.54 LIG 0.18  C 
BRANCH 53 54
ATOM     54  C   TYR D   6       6.198   1.287  -9.070  1.00 31.23 LIG 0.28  C 
ATOM     55  N   NH2 D   7       6.081   1.111  -7.758  1.00 33.55 LIG-0.11  N 
ATOM     56 O    TYR D   6       5.431   0.777  -9.887  1.00 28.81 LIG-0.27  OA
ENDBRANCH 53 54
BRANCH 53 57
ATOM     57  CB  TYR D   6       7.988   1.587 -10.809  1.00 30.33 LIG 0.07  C 
BRANCH 57 58
ATOM     58  CG  TYR D   6       9.125   2.408 -11.387  1.00 31.81 LIG-0.06  A 
ATOM     59  CD1 TYR D   6      10.420   2.284 -10.898  1.00 31.47 LIG 0.01  A 
ATOM     60  CE1 TYR D   6      11.458   3.023 -11.431  1.00 32.87 LIG 0.04  A 
ATOM     61  CZ  TYR D   6      11.214   3.893 -12.471  1.00 33.71 LIG 0.07  A 
ATOM     62  CE2 TYR D   6       9.939   4.029 -12.981  1.00 32.90 LIG 0.04  A 
ATOM     63  CD2 TYR D   6       8.906   3.284 -12.442  1.00 31.58 LIG 0.01  A 
BRANCH 61 64
ATOM     64 OH   TYR D   6      12.246   4.632 -13.003  1.00 34.88 LIG-0.36  OA
ATOM     65 HH   TYR D   6      12.196   5.423 -12.726  1.00 34.88 LIG 0.22  HD
ENDBRANCH 61 64
ENDBRANCH 57 58
ENDBRANCH 53 57
ENDBRANCH 50 53
ENDBRANCH 48 49
BRANCH 48 66
ATOM     66  CB  VAL D   5      11.436   0.568  -7.406  1.00 31.19 LIG 0.01  C 
ATOM     67  CG1 VAL D   5      12.320   1.131  -8.514  1.00 32.10 LIG 0.01  C 
ATOM     68  CG2 VAL D   5      12.238   0.343  -6.143  1.00 30.34 LIG 0.01  C 
ENDBRANCH 48 66
ENDBRANCH 45 48
ENDBRANCH 38 44
ENDBRANCH 3 38
TORSDOF 25
ENDMDL
MODEL 11
USER: ADFR SOLUTION from run 182
USER: SCORE 19.787536 LL:  -5.854 LR: -15.371 RR:   0.000 FEB:  -7.913
USER: RMSD 6.196322
USER: SEED 181
USER: STATUS no improvement in best in 1 clusters for 5 generations
USER: GENES 27
USER: genes 0 Translation |==|  0.66103 0.42999 0.54617
USER: genes 1 Rotation |==|  0.70286 0.34313 0.08677 0.61613
USER: genes 2 Torsion [N]-C--CA-[N] |==|  0.45278
USER: genes 3 Torsion [C]-CA--N-[C] |==|  0.79653
USER: genes 4 Torsion [N]-C--CA-[N] |==|  0.09301
USER: genes 5 Torsion [C]-CA--CB-[CG] |==|  0.43536
USER: genes 6 Torsion [CA]-CB--CG-[CD] |==|  0.52192
USER: genes 7 Torsion [CB]-CG--CD-[NE] |==|  0.25723
USER: genes 8 Torsion [CG]-CD--NE-[HE] |==|  0.73459
USER: genes 9 Torsion [C]-CA--N-[C] |==|  0.68041
USER: genes 10 Torsion [N]-C--CA-[N] |==|  0.91994
USER: genes 11 Torsion [C]-CA--N-[C] |==|  0.83643
USER: genes 12 Torsion [C]-CA--CB-[CG2] |==|  0.84645
USER: genes 13 Torsion [CA]-CB--OG1-[HG1] |==|  0.06387
USER: genes 14 Torsion [C]-N--CA-[CB] |==|  0.51943
USER: genes 15 Torsion [N]-CA--CB-[CG] |==|  0.14297
USER: genes 16 Torsion [CA]-CB--CG-[CD] |==|  0.65901
USER: genes 17 Torsion [CB]-CG--CD-[OE2] |==|  0.34137
USER: genes 18 Torsion [N]-CA--C-[N] |==|  0.27222
USER: genes 19 Torsion [C]-N--CA-[CB] |==|  0.78206
USER: genes 20 Torsion [N]-CA--C-[N] |==|  0.20508
USER: genes 21 Torsion [C]-N--CA-[C] |==|  0.79788
USER: genes 22 Torsion [N]-CA--C-[N] |==|  0.39009
USER: genes 23 Torsion [N]-CA--CB-[CG] |==|  0.15543
USER: genes 24 Torsion [CA]-CB--CG-[CD1] |==|  0.78109
USER: genes 25 Torsion [CE1]-CZ--OH-[HH] |==|  0.54612
USER: genes 26 Torsion [N]-CA--CB-[CG1] |==|  0.54225
ROOT
ATOM      1  C   THR D   3       7.399   2.269  -4.263  1.00 23.43 LIG 0.24  C 
ATOM      2 O    THR D   3       6.578   2.954  -4.872  1.00 24.39 LIG-0.27  OA
ATOM      3  N   GLU D   4       8.524   1.824  -4.816  1.00 25.01 LIG-0.35  N 
ATOM      4 H    GLU D   4       9.116   1.368  -4.390  1.00 25.01 LIG 0.16  HD
ENDROOT
BRANCH 1 5
ATOM      5  CA  THR D   3       7.160   1.883  -2.801  1.00 20.85 LIG 0.20  C 
BRANCH 5 6
ATOM      6  N   THR D   3       6.143   2.711  -2.164  1.00 20.16 LIG-0.34  N 
ATOM      7 H    THR D   3       5.393   2.311  -2.032  1.00 20.16 LIG 0.16  HD
ATOM      8  C   ARG D   2       6.377   3.974  -1.824  1.00 20.73 LIG 0.24  C 
ATOM      9 O    ARG D   2       7.439   4.552  -2.067  1.00 19.88 LIG-0.27  OA
BRANCH 8 10
ATOM     10  CA  ARG D   2       5.234   4.703  -1.126  1.00 21.07 LIG 0.18  C 
BRANCH 10 11
ATOM     11  CB  ARG D   2       5.769   5.892  -0.316  1.00 18.72 LIG 0.04  C 
BRANCH 11 12
ATOM     12  CG  ARG D   2       4.727   6.985  -0.055  1.00 17.25 LIG 0.02  C 
BRANCH 12 13
ATOM     13  CD  ARG D   2       5.353   8.225   0.582  1.00 15.57 LIG 0.14  C 
BRANCH 13 14
ATOM     14  NE  ARG D   2       5.756   9.215  -0.411  1.00 16.78 LIG-0.23  N 
ATOM     15 HE   ARG D   2       6.575   9.209  -0.675  1.00 16.78 LIG 0.18  HD
ATOM     16  CZ  ARG D   2       4.939  10.124  -0.935  1.00 18.57 LIG 0.67  C 
ATOM     17  NH2 ARG D   2       5.394  10.989  -1.834  1.00 17.94 LIG-0.23  N 
ATOM     18  NH1 ARG D   2       3.666  10.168  -0.565  1.00 16.85 LIG-0.23  N 
ATOM     19 1HH2 ARG D   2       6.218  10.961  -2.079  1.00 17.94 LIG 0.17  HD
ATOM     20 2HH2 ARG D   2       4.865  11.576  -2.171  1.00 17.94 LIG 0.17  HD
ATOM     21 2HH1 ARG D   2       3.139  10.757  -0.905  1.00 16.85 LIG 0.17  HD
ATOM     22 1HH1 ARG D   2       3.367   9.608   0.014  1.00 16.85 LIG 0.17  HD
ENDBRANCH 13 14
ENDBRANCH 12 13
ENDBRANCH 11 12
ENDBRANCH 10 11
BRANCH 10 23
ATOM     23  N   ARG D   2       4.450   3.801  -0.282  1.00 21.51 LIG-0.35  N 
ATOM     24  C   ALA D   1       3.177   3.536  -0.555  1.00 21.30 LIG 0.24  C 
ATOM     25 O    ALA D   1       2.609   3.973  -1.553  1.00 21.16 LIG-0.27  OA
ATOM     26 H    ARG D   2       4.881   3.472   0.386  1.00 21.51 LIG 0.16  HD
BRANCH 24 27
ATOM     27  CA  ALA D   1       2.429   2.637   0.430  1.00 21.78 LIG 0.17  C 
ATOM     28  CB  ALA D   1       1.668   3.479   1.442  1.00 21.47 LIG 0.04  C 
BRANCH 27 29
ATOM     29  N   ALA D   1       3.312   1.694   1.114  1.00 22.15 LIG-0.35  N 
ATOM     30 H    ALA D   1       3.305   1.774   1.970  1.00 22.15 LIG 0.16  HD
ATOM     31  C   ACE D   0       4.057   0.797   0.474  1.00 22.99 LIG 0.21  C 
ATOM     32 O    ACE D   0       4.399   0.887  -0.707  1.00 24.10 LIG-0.27  OA
ATOM     33  CH3 ACE D   0       4.752  -0.113   1.442  1.00 21.14 LIG 0.12  C 
ENDBRANCH 27 29
ENDBRANCH 24 27
ENDBRANCH 10 23
ENDBRANCH 8 10
ENDBRANCH 5 6
BRANCH 5 34
ATOM     34  CB  THR D   3       6.794   0.390  -2.707  1.00 19.16 LIG 0.15  C 
ATOM     35  CG2 THR D   3       5.600   0.087  -3.597  1.00 17.08 LIG 0.04  C 
BRANCH 34 36
ATOM     36 OG1  THR D   3       7.908  -0.407  -3.129  1.00 20.38 LIG-0.39  OA
ATOM     37 HG1  THR D   3       8.617   0.035  -3.045  1.00 20.38 LIG 0.21  HD
ENDBRANCH 34 36
ENDBRANCH 5 34
ENDBRANCH 1 5
BRANCH 3 38
ATOM     38  CA  GLU D   4       8.858   2.076  -6.215  1.00 28.82 LIG 0.18  C 
BRANCH 38 39
ATOM     39  CB  GLU D   4      10.119   1.302  -6.615  1.00 31.32 LIG 0.04  C 
BRANCH 39 40
ATOM     40  CG  GLU D   4      10.082  -0.180  -6.279  1.00 34.96 LIG 0.12  C 
BRANCH 40 41
ATOM     41  CD  GLU D   4      11.235  -0.603  -5.390  1.00 38.68 LIG 0.17  C 
ATOM     42 OE2  GLU D   4      10.976  -1.147  -4.296  1.00 39.24 LIG-0.65  OA
ATOM     43 OE1  GLU D   4      12.401  -0.386  -5.782  1.00 40.65 LIG-0.65  OA
ENDBRANCH 40 41
ENDBRANCH 39 40
ENDBRANCH 38 39
BRANCH 38 44
ATOM     44  C   GLU D   4       7.700   1.661  -7.120  1.00 29.37 LIG 0.24  C 
ATOM     45  N   VAL D   5       6.882   2.630  -7.518  1.00 31.15 LIG-0.35  N 
ATOM     46 H    VAL D   5       6.956   3.452  -7.275  1.00 31.15 LIG 0.16  HD
ATOM     47 O    GLU D   4       7.560   0.485  -7.456  1.00 28.00 LIG-0.27  OA
BRANCH 45 48
ATOM     48  CA  VAL D   5       5.766   2.368  -8.423  1.00 31.02 LIG 0.18  C 
BRANCH 48 49
ATOM     49  C   VAL D   5       5.021   1.087  -8.058  1.00 31.80 LIG 0.24  C 
ATOM     50  N   TYR D   6       4.245   1.142  -6.979  1.00 29.63 LIG-0.35  N 
ATOM     51 H    TYR D   6       4.191   1.829  -6.465  1.00 29.63 LIG 0.16  HD
ATOM     52 O    VAL D   5       5.143   0.073  -8.747  1.00 32.83 LIG-0.27  OA
BRANCH 50 53
ATOM     53  CA  TYR D   6       3.407   0.023  -6.571  1.00 30.54 LIG 0.18  C 
BRANCH 53 54
ATOM     54  C   TYR D   6       2.222  -0.110  -7.522  1.00 31.23 LIG 0.28  C 
ATOM     55  N   NH2 D   7       1.868  -1.348  -7.849  1.00 33.55 LIG-0.11  N 
ATOM     56 O    TYR D   6       1.650   0.891  -7.957  1.00 28.81 LIG-0.27  OA
ENDBRANCH 53 54
BRANCH 53 57
ATOM     57  CB  TYR D   6       2.923   0.219  -5.130  1.00 30.33 LIG 0.07  C 
BRANCH 57 58
ATOM     58  CG  TYR D   6       2.183   1.517  -4.874  1.00 31.81 LIG-0.06  A 
ATOM     59  CD1 TYR D   6       2.869   2.713  -4.706  1.00 31.47 LIG 0.01  A 
ATOM     60  CE1 TYR D   6       2.195   3.898  -4.482  1.00 32.87 LIG 0.04  A 
ATOM     61  CZ  TYR D   6       0.818   3.902  -4.433  1.00 33.71 LIG 0.07  A 
ATOM     62  CE2 TYR D   6       0.112   2.729  -4.606  1.00 32.90 LIG 0.04  A 
ATOM     63  CD2 TYR D   6       0.795   1.548  -4.830  1.00 31.58 LIG 0.01  A 
BRANCH 61 64
ATOM     64 OH   TYR D   6       0.143   5.081  -4.210  1.00 34.88 LIG-0.36  OA
ATOM     65 HH   TYR D   6      -0.647   4.912  -3.981  1.00 34.88 LIG 0.22  HD
ENDBRANCH 61 64
ENDBRANCH 57 58
ENDBRANCH 53 57
ENDBRANCH 50 53
ENDBRANCH 48 49
BRANCH 48 66
ATOM     66  CB  VAL D   5       6.233   2.239  -9.887  1.00 31.19 LIG 0.01  C 
ATOM     67  CG1 VAL D   5       5.038   2.343 -10.830  1.00 32.10 LIG 0.01  C 
ATOM     68  CG2 VAL D   5       7.268   3.293 -10.213  1.00 30.34 LIG 0.01  C 
ENDBRANCH 48 66
ENDBRANCH 45 48
ENDBRANCH 38 44
ENDBRANCH 3 38
TORSDOF 25
ENDMDL
MODEL 12
USER: ADFR SOLUTION from run 121
USER: SCORE 17.432004 LL:  -6.568 LR: -15.349 RR:   0.000 FEB:  -7.892
USER: RMSD 5.510635
USER: SEED 120
USER: STATUS no improvement in best in 9 clusters for 5 generations
USER: GENES 27
USER: genes 0 Translation |==|  0.62282 0.48789 0.65196
USER: genes 1 Rotation |==|  0.44182 0.66355 0.92293 0.70247
USER: genes 2 Torsion [N]-C--CA-[N] |==|  0.67091
USER: genes 3 Torsion [C]-CA--N-[C] |==|  0.13839
USER: genes 4 Torsion [N]-C--CA-[N] |==|  0.74233
USER: genes 5 Torsion [C]-CA--CB-[CG] |==|  0.17250
USER: genes 6 Torsion [CA]-CB--CG-[CD] |==|  0.40395
USER: genes 7 Torsion [CB]-CG--CD-[NE] |==|  0.71697
USER: genes 8 Torsion [CG]-CD--NE-[HE] |==|  0.24498
USER: genes 9 Torsion [C]-CA--N-[C] |==|  0.16512
USER: genes 10 Torsion [N]-C--CA-[N] |==|  0.17797
USER: genes 11 Torsion [C]-CA--N-[C] |==|  0.73711
USER: genes 12 Torsion [C]-CA--CB-[CG2] |==|  0.47810
USER: genes 13 Torsion [CA]-CB--OG1-[HG1] |==|  0.16048
USER: genes 14 Torsion [C]-N--CA-[CB] |==|  0.30178
USER: genes 15 Torsion [N]-CA--CB-[CG] |==|  0.14012
USER: genes 16 Torsion [CA]-CB--CG-[CD] |==|  0.51391
USER: genes 17 Torsion [CB]-CG--CD-[OE2] |==|  0.83466
USER: genes 18 Torsion [N]-CA--C-[N] |==|  0.52265
USER: genes 19 Torsion [C]-N--CA-[CB] |==|  0.52400
USER: genes 20 Torsion [N]-CA--C-[N] |==|  0.37677
USER: genes 21 Torsion [C]-N--CA-[C] |==|  0.56667
USER: genes 22 Torsion [N]-CA--C-[N] |==|  0.49876
USER: genes 23 Torsion [N]-CA--CB-[CG] |==|  0.10256
USER: genes 24 Torsion [CA]-CB--CG-[CD1] |==|  0.58981
USER: genes 25 Torsion [CE1]-CZ--OH-[HH] |==|  0.16433
USER: genes 26 Torsion [N]-CA--CB-[CG1] |==|  0.47218
ROOT
ATOM      1  C   THR D   3       6.654   3.615  -1.645  1.00 23.43 LIG 0.24  C 
ATOM      2 O    THR D   3       7.244   4.683  -1.808  1.00 24.39 LIG-0.27  OA
ATOM      3  N   GLU D   4       6.553   2.691  -2.595  1.00 25.01 LIG-0.35  N 
ATOM      4 H    GLU D   4       6.166   1.931  -2.482  1.00 25.01 LIG 0.16  HD
ENDROOT
BRANCH 1 5
ATOM      5  CA  THR D   3       5.987   3.291  -0.306  1.00 20.85 LIG 0.20  C 
BRANCH 5 6
ATOM      6  N   THR D   3       4.933   4.238   0.038  1.00 20.16 LIG-0.34  N 
ATOM      7 H    THR D   3       4.992   4.559   0.834  1.00 20.16 LIG 0.16  HD
ATOM      8  C   ARG D   2       3.973   4.562  -0.822  1.00 20.73 LIG 0.24  C 
ATOM      9 O    ARG D   2       3.871   4.055  -1.941  1.00 19.88 LIG-0.27  OA
BRANCH 8 10
ATOM     10  CA  ARG D   2       2.964   5.598  -0.339  1.00 21.07 LIG 0.18  C 
BRANCH 10 11
ATOM     11  CB  ARG D   2       3.628   6.586   0.630  1.00 18.72 LIG 0.04  C 
BRANCH 11 12
ATOM     12  CG  ARG D   2       4.763   7.402   0.003  1.00 17.25 LIG 0.02  C 
BRANCH 12 13
ATOM     13  CD  ARG D   2       4.825   8.819   0.572  1.00 15.57 LIG 0.14  C 
BRANCH 13 14
ATOM     14  NE  ARG D   2       4.243   9.805  -0.333  1.00 16.78 LIG-0.23  N 
ATOM     15 HE   ARG D   2       3.398   9.958  -0.272  1.00 16.78 LIG 0.18  HD
ATOM     16  CZ  ARG D   2       4.934  10.483  -1.245  1.00 18.57 LIG 0.67  C 
ATOM     17  NH2 ARG D   2       4.320  11.362  -2.028  1.00 17.94 LIG-0.23  N 
ATOM     18  NH1 ARG D   2       6.240  10.287  -1.373  1.00 16.85 LIG-0.23  N 
ATOM     19 1HH2 ARG D   2       3.474  11.494  -1.946  1.00 17.94 LIG 0.17  HD
ATOM     20 2HH2 ARG D   2       4.768  11.799  -2.617  1.00 17.94 LIG 0.17  HD
ATOM     21 2HH1 ARG D   2       6.685  10.727  -1.963  1.00 16.85 LIG 0.17  HD
ATOM     22 1HH1 ARG D   2       6.641   9.721  -0.865  1.00 16.85 LIG 0.17  HD
ENDBRANCH 13 14
ENDBRANCH 12 13
ENDBRANCH 11 12
ENDBRANCH 10 11
BRANCH 10 23
ATOM     23  N   ARG D   2       1.792   4.970   0.273  1.00 21.51 LIG-0.35  N 
ATOM     24  C   ALA D   1       1.912   4.177   1.333  1.00 21.30 LIG 0.24  C 
ATOM     25 O    ALA D   1       2.987   3.979   1.893  1.00 21.16 LIG-0.27  OA
ATOM     26 H    ARG D   2       1.044   5.158  -0.109  1.00 21.51 LIG 0.16  HD
BRANCH 24 27
ATOM     27  CA  ALA D   1       0.635   3.515   1.851  1.00 21.78 LIG 0.17  C 
ATOM     28  CB  ALA D   1       0.903   2.806   3.169  1.00 21.47 LIG 0.04  C 
BRANCH 27 29
ATOM     29  N   ALA D   1       0.050   2.588   0.884  1.00 22.15 LIG-0.35  N 
ATOM     30 H    ALA D   1       0.386   1.796   0.919  1.00 22.15 LIG 0.16  HD
ATOM     31  C   ACE D   0      -0.911   2.933   0.031  1.00 22.99 LIG 0.21  C 
ATOM     32 O    ACE D   0      -1.148   4.089  -0.324  1.00 24.10 LIG-0.27  OA
ATOM     33  CH3 ACE D   0      -1.399   1.742  -0.739  1.00 21.14 LIG 0.12  C 
ENDBRANCH 27 29
ENDBRANCH 24 27
ENDBRANCH 10 23
ENDBRANCH 8 10
ENDBRANCH 5 6
BRANCH 5 34
ATOM     34  CB  THR D   3       5.448   1.848  -0.325  1.00 19.16 LIG 0.15  C 
ATOM     35  CG2 THR D   3       4.961   1.454   1.059  1.00 17.08 LIG 0.04  C 
BRANCH 34 36
ATOM     36 OG1  THR D   3       4.358   1.753  -1.252  1.00 20.38 LIG-0.39  OA
ATOM     37 HG1  THR D   3       4.618   1.990  -2.015  1.00 20.38 LIG 0.21  HD
ENDBRANCH 34 36
ENDBRANCH 5 34
ENDBRANCH 1 5
BRANCH 3 38
ATOM     38  CA  GLU D   4       7.099   2.887  -3.936  1.00 28.82 LIG 0.18  C 
BRANCH 38 39
ATOM     39  CB  GLU D   4       8.331   2.002  -4.150  1.00 31.32 LIG 0.04  C 
BRANCH 39 40
ATOM     40  CG  GLU D   4       8.126   0.539  -3.789  1.00 34.96 LIG 0.12  C 
BRANCH 40 41
ATOM     41  CD  GLU D   4       9.403  -0.272  -3.902  1.00 38.68 LIG 0.17  C 
ATOM     42 OE2  GLU D   4       9.978  -0.328  -5.009  1.00 39.24 LIG-0.65  OA
ATOM     43 OE1  GLU D   4       9.829  -0.856  -2.884  1.00 40.65 LIG-0.65  OA
ENDBRANCH 40 41
ENDBRANCH 39 40
ENDBRANCH 38 39
BRANCH 38 44
ATOM     44  C   GLU D   4       6.047   2.556  -4.991  1.00 29.37 LIG 0.24  C 
ATOM     45  N   VAL D   5       6.462   2.530  -6.255  1.00 31.15 LIG-0.35  N 
ATOM     46 H    VAL D   5       7.265   2.713  -6.500  1.00 31.15 LIG 0.16  HD
ATOM     47 O    GLU D   4       4.885   2.319  -4.662  1.00 28.00 LIG-0.27  OA
BRANCH 45 48
ATOM     48  CA  VAL D   5       5.561   2.180  -7.350  1.00 31.02 LIG 0.18  C 
BRANCH 48 49
ATOM     49  C   VAL D   5       4.806   0.882  -7.078  1.00 31.80 LIG 0.24  C 
ATOM     50  N   TYR D   6       3.506   0.886  -7.359  1.00 29.63 LIG-0.35  N 
ATOM     51 H    TYR D   6       3.077   1.582  -7.626  1.00 29.63 LIG 0.16  HD
ATOM     52 O    VAL D   5       5.393  -0.103  -6.629  1.00 32.83 LIG-0.27  OA
BRANCH 50 53
ATOM     53  CA  TYR D   6       2.684  -0.311  -7.237  1.00 30.54 LIG 0.18  C 
BRANCH 53 54
ATOM     54  C   TYR D   6       1.464  -0.196  -8.143  1.00 31.23 LIG 0.28  C 
ATOM     55  N   NH2 D   7       0.628  -1.230  -8.136  1.00 33.55 LIG-0.11  N 
ATOM     56 O    TYR D   6       1.291   0.803  -8.842  1.00 28.81 LIG-0.27  OA
ENDBRANCH 53 54
BRANCH 53 57
ATOM     57  CB  TYR D   6       2.257  -0.515  -5.779  1.00 30.33 LIG 0.07  C 
BRANCH 57 58
ATOM     58  CG  TYR D   6       1.947   0.760  -5.018  1.00 31.81 LIG-0.06  A 
ATOM     59  CD1 TYR D   6       2.194   0.859  -3.654  1.00 31.47 LIG 0.01  A 
ATOM     60  CE1 TYR D   6       1.922   2.024  -2.962  1.00 32.87 LIG 0.04  A 
ATOM     61  CZ  TYR D   6       1.405   3.112  -3.632  1.00 33.71 LIG 0.07  A 
ATOM     62  CE2 TYR D   6       1.158   3.042  -4.987  1.00 32.90 LIG 0.04  A 
ATOM     63  CD2 TYR D   6       1.435   1.873  -5.672  1.00 31.58 LIG 0.01  A 
BRANCH 61 64
ATOM     64 OH   TYR D   6       1.132   4.272  -2.944  1.00 34.88 LIG-0.36  OA
ATOM     65 HH   TYR D   6       1.836   4.558  -2.586  1.00 34.88 LIG 0.22  HD
ENDBRANCH 61 64
ENDBRANCH 57 58
ENDBRANCH 53 57
ENDBRANCH 50 53
ENDBRANCH 48 49
BRANCH 48 66
ATOM     66  CB  VAL D   5       6.317   2.013  -8.682  1.00 31.19 LIG 0.01  C 
ATOM     67  CG1 VAL D   5       5.395   1.411  -9.738  1.00 32.10 LIG 0.01  C 
ATOM     68  CG2 VAL D   5       6.876   3.339  -9.151  1.00 30.34 LIG 0.01  C 
ENDBRANCH 48 66
ENDBRANCH 45 48
ENDBRANCH 38 44
ENDBRANCH 3 38
TORSDOF 25
ENDMDL
MODEL 13
USER: ADFR SOLUTION from run 185
USER: SCORE 18.941231 LL:  -5.319 LR: -15.272 RR:   0.000 FEB:  -7.815
USER: RMSD 5.286069
USER: SEED 184
USER: STATUS searching
USER: GENES 27
USER: genes 0 Translation |==|  0.63766 0.31009 0.61474
USER: genes 1 Rotation |==|  0.19231 0.69080 0.81400 0.64257
USER: genes 2 Torsion [N]-C--CA-[N] |==|  0.37499
USER: genes 3 Torsion [C]-CA--N-[C] |==|  0.67494
USER: genes 4 Torsion [N]-C--CA-[N] |==|  0.98922
USER: genes 5 Torsion [C]-CA--CB-[CG] |==|  0.82301
USER: genes 6 Torsion [CA]-CB--CG-[CD] |==|  0.65207
USER: genes 7 Torsion [CB]-CG--CD-[NE] |==|  0.33349
USER: genes 8 Torsion [CG]-CD--NE-[HE] |==|  0.73270
USER: genes 9 Torsion [C]-CA--N-[C] |==|  0.72251
USER: genes 10 Torsion [N]-C--CA-[N] |==|  0.34236
USER: genes 11 Torsion [C]-CA--N-[C] |==|  0.78885
USER: genes 12 Torsion [C]-CA--CB-[CG2] |==|  0.26329
USER: genes 13 Torsion [CA]-CB--OG1-[HG1] |==|  0.91763
USER: genes 14 Torsion [C]-N--CA-[CB] |==|  0.53404
USER: genes 15 Torsion [N]-CA--CB-[CG] |==|  0.84523
USER: genes 16 Torsion [CA]-CB--CG-[CD] |==|  0.69794
USER: genes 17 Torsion [CB]-CG--CD-[OE2] |==|  0.87333
USER: genes 18 Torsion [N]-CA--C-[N] |==|  0.37374
USER: genes 19 Torsion [C]-N--CA-[CB] |==|  0.87222
USER: genes 20 Torsion [N]-CA--C-[N] |==|  0.83912
USER: genes 21 Torsion [C]-N--CA-[C] |==|  0.65344
USER: genes 22 Torsion [N]-CA--C-[N] |==|  0.28890
USER: genes 23 Torsion [N]-CA--CB-[CG] |==|  0.75559
USER: genes 24 Torsion [CA]-CB--CG-[CD1] |==|  0.67117
USER: genes 25 Torsion [CE1]-CZ--OH-[HH] |==|  0.92948
USER: genes 26 Torsion [N]-CA--CB-[CG1] |==|  0.49146
ROOT
ATOM      1  C   THR D   3       6.943  -0.518  -2.566  1.00 23.43 LIG 0.24  C 
ATOM      2 O    THR D   3       7.417   0.501  -3.067  1.00 24.39 LIG-0.27  OA
ATOM      3  N   GLU D   4       7.632  -1.648  -2.435  1.00 25.01 LIG-0.35  N 
ATOM      4 H    GLU D   4       7.318  -2.357  -2.062  1.00 25.01 LIG 0.16  HD
ENDROOT
BRANCH 1 5
ATOM      5  CA  THR D   3       5.499  -0.538  -2.058  1.00 20.85 LIG 0.20  C 
BRANCH 5 6
ATOM      6  N   THR D   3       5.167   0.646  -1.275  1.00 20.16 LIG-0.34  N 
ATOM      7 H    THR D   3       5.206   1.384  -1.715  1.00 20.16 LIG 0.16  HD
ATOM      8  C   ARG D   2       4.832   0.568   0.009  1.00 20.73 LIG 0.24  C 
ATOM      9 O    ARG D   2       4.830  -0.490   0.642  1.00 19.88 LIG-0.27  OA
BRANCH 8 10
ATOM     10  CA  ARG D   2       4.468   1.884   0.687  1.00 21.07 LIG 0.18  C 
BRANCH 10 11
ATOM     11  CB  ARG D   2       3.033   1.830   1.231  1.00 18.72 LIG 0.04  C 
BRANCH 11 12
ATOM     12  CG  ARG D   2       1.963   1.673   0.146  1.00 17.25 LIG 0.02  C 
BRANCH 12 13
ATOM     13  CD  ARG D   2       0.906   2.772   0.227  1.00 15.57 LIG 0.14  C 
BRANCH 13 14
ATOM     14  NE  ARG D   2       0.835   3.566  -0.996  1.00 16.78 LIG-0.23  N 
ATOM     15 HE   ARG D   2       1.272   4.306  -1.021  1.00 16.78 LIG 0.18  HD
ATOM     16  CZ  ARG D   2       0.139   3.217  -2.074  1.00 18.57 LIG 0.67  C 
ATOM     17  NH2 ARG D   2       0.131   4.003  -3.144  1.00 17.94 LIG-0.23  N 
ATOM     18  NH1 ARG D   2      -0.545   2.080  -2.087  1.00 16.85 LIG-0.23  N 
ATOM     19 1HH2 ARG D   2       0.577   4.739  -3.141  1.00 17.94 LIG 0.17  HD
ATOM     20 2HH2 ARG D   2      -0.319   3.776  -3.840  1.00 17.94 LIG 0.17  HD
ATOM     21 2HH1 ARG D   2      -0.994   1.857  -2.786  1.00 16.85 LIG 0.17  HD
ATOM     22 1HH1 ARG D   2      -0.540   1.568  -1.398  1.00 16.85 LIG 0.17  HD
ENDBRANCH 13 14
ENDBRANCH 12 13
ENDBRANCH 11 12
ENDBRANCH 10 11
BRANCH 10 23
ATOM     23  N   ARG D   2       4.647   3.026  -0.210  1.00 21.51 LIG-0.35  N 
ATOM     24  C   ALA D   1       5.729   3.794  -0.138  1.00 21.30 LIG 0.24  C 
ATOM     25 O    ALA D   1       6.658   3.558   0.630  1.00 21.16 LIG-0.27  OA
ATOM     26 H    ARG D   2       4.005   3.146  -0.770  1.00 21.51 LIG 0.16  HD
BRANCH 24 27
ATOM     27  CA  ALA D   1       5.785   5.003  -1.073  1.00 21.78 LIG 0.17  C 
ATOM     28  CB  ALA D   1       6.884   4.821  -2.107  1.00 21.47 LIG 0.04  C 
BRANCH 27 29
ATOM     29  N   ALA D   1       5.965   6.262  -0.354  1.00 22.15 LIG-0.35  N 
ATOM     30 H    ALA D   1       6.765   6.577  -0.404  1.00 22.15 LIG 0.16  HD
ATOM     31  C   ACE D   0       4.988   6.867   0.316  1.00 22.99 LIG 0.21  C 
ATOM     32 O    ACE D   0       3.977   6.303   0.738  1.00 24.10 LIG-0.27  OA
ATOM     33  CH3 ACE D   0       5.437   8.201   0.835  1.00 21.14 LIG 0.12  C 
ENDBRANCH 27 29
ENDBRANCH 24 27
ENDBRANCH 10 23
ENDBRANCH 8 10
ENDBRANCH 5 6
BRANCH 5 34
ATOM     34  CB  THR D   3       4.529  -0.706  -3.242  1.00 19.16 LIG 0.15  C 
ATOM     35  CG2 THR D   3       4.178  -2.173  -3.425  1.00 17.08 LIG 0.04  C 
BRANCH 34 36
ATOM     36 OG1  THR D   3       3.329   0.037  -2.992  1.00 20.38 LIG-0.39  OA
ATOM     37 HG1  THR D   3       3.191   0.076  -2.165  1.00 20.38 LIG 0.21  HD
ENDBRANCH 34 36
ENDBRANCH 5 34
ENDBRANCH 1 5
BRANCH 3 38
ATOM     38  CA  GLU D   4       9.003  -1.787  -2.920  1.00 28.82 LIG 0.18  C 
BRANCH 38 39
ATOM     39  CB  GLU D   4       9.430  -3.259  -2.910  1.00 31.32 LIG 0.04  C 
BRANCH 39 40
ATOM     40  CG  GLU D   4       9.296  -3.945  -1.561  1.00 34.96 LIG 0.12  C 
BRANCH 40 41
ATOM     41  CD  GLU D   4      10.640  -4.228  -0.917  1.00 38.68 LIG 0.17  C 
ATOM     42 OE2  GLU D   4      11.546  -4.723  -1.620  1.00 39.24 LIG-0.65  OA
ATOM     43 OE1  GLU D   4      10.788  -3.961   0.294  1.00 40.65 LIG-0.65  OA
ENDBRANCH 40 41
ENDBRANCH 39 40
ENDBRANCH 38 39
BRANCH 38 44
ATOM     44  C   GLU D   4       9.123  -1.233  -4.337  1.00 29.37 LIG 0.24  C 
ATOM     45  N   VAL D   5      10.170  -0.450  -4.581  1.00 31.15 LIG-0.35  N 
ATOM     46 H    VAL D   5      10.750  -0.226  -3.988  1.00 31.15 LIG 0.16  HD
ATOM     47 O    GLU D   4       8.286  -1.520  -5.193  1.00 28.00 LIG-0.27  OA
BRANCH 45 48
ATOM     48  CA  VAL D   5      10.420   0.102  -5.910  1.00 31.02 LIG 0.18  C 
BRANCH 48 49
ATOM     49  C   VAL D   5       9.473   1.251  -6.241  1.00 31.80 LIG 0.24  C 
ATOM     50  N   TYR D   6       8.172   0.974  -6.201  1.00 29.63 LIG-0.35  N 
ATOM     51 H    TYR D   6       7.856   0.187  -6.055  1.00 29.63 LIG 0.16  HD
ATOM     52 O    VAL D   5       9.913   2.367  -6.521  1.00 32.83 LIG-0.27  OA
BRANCH 50 53
ATOM     53  CA  TYR D   6       7.157   1.999  -6.403  1.00 30.54 LIG 0.18  C 
BRANCH 53 54
ATOM     54  C   TYR D   6       6.199   2.020  -5.217  1.00 31.23 LIG 0.28  C 
ATOM     55  N   NH2 D   7       6.357   3.017  -4.353  1.00 33.55 LIG-0.11  N 
ATOM     56 O    TYR D   6       5.344   1.144  -5.083  1.00 28.81 LIG-0.27  OA
ENDBRANCH 53 54
BRANCH 53 57
ATOM     57  CB  TYR D   6       6.394   1.740  -7.707  1.00 30.33 LIG 0.07  C 
BRANCH 57 58
ATOM     58  CG  TYR D   6       7.012   2.360  -8.946  1.00 31.81 LIG-0.06  A 
ATOM     59  CD1 TYR D   6       6.326   3.310  -9.691  1.00 31.47 LIG 0.01  A 
ATOM     60  CE1 TYR D   6       6.892   3.882 -10.814  1.00 32.87 LIG 0.04  A 
ATOM     61  CZ  TYR D   6       8.164   3.516 -11.199  1.00 33.71 LIG 0.07  A 
ATOM     62  CE2 TYR D   6       8.870   2.582 -10.472  1.00 32.90 LIG 0.04  A 
ATOM     63  CD2 TYR D   6       8.296   2.015  -9.348  1.00 31.58 LIG 0.01  A 
BRANCH 61 64
ATOM     64 OH   TYR D   6       8.730   4.085 -12.318  1.00 34.88 LIG-0.36  OA
ATOM     65 HH   TYR D   6       8.124   4.341 -12.840  1.00 34.88 LIG 0.22  HD
ENDBRANCH 61 64
ENDBRANCH 57 58
ENDBRANCH 53 57
ENDBRANCH 50 53
ENDBRANCH 48 49
BRANCH 48 66
ATOM     66  CB  VAL D   5      10.269  -0.965  -7.012  1.00 31.19 LIG 0.01  C 
ATOM     67  CG1 VAL D   5      10.463  -0.331  -8.386  1.00 32.10 LIG 0.01  C 
ATOM     68  CG2 VAL D   5      11.249  -2.097  -6.800  1.00 30.34 LIG 0.01  C 
ENDBRANCH 48 66
ENDBRANCH 45 48
ENDBRANCH 38 44
ENDBRANCH 3 38
TORSDOF 25
ENDMDL
MODEL 14
USER: ADFR SOLUTION from run 189
USER: SCORE 18.872556 LL:  -5.176 LR: -15.236 RR:   0.000 FEB:  -7.778
USER: RMSD 11.310263
USER: SEED 188
USER: STATUS searching
USER: GENES 27
USER: genes 0 Translation |==|  0.59175 0.39450 0.42338
USER: genes 1 Rotation |==|  0.15739 0.82960 0.35357 0.55046
USER: genes 2 Torsion [N]-C--CA-[N] |==|  0.38323
USER: genes 3 Torsion [C]-CA--N-[C] |==|  0.75747
USER: genes 4 Torsion [N]-C--CA-[N] |==|  0.83929
USER: genes 5 Torsion [C]-CA--CB-[CG] |==|  0.02003
USER: genes 6 Torsion [CA]-CB--CG-[CD] |==|  0.43516
USER: genes 7 Torsion [CB]-CG--CD-[NE] |==|  0.73068
USER: genes 8 Torsion [CG]-CD--NE-[HE] |==|  0.83812
USER: genes 9 Torsion [C]-CA--N-[C] |==|  0.19671
USER: genes 10 Torsion [N]-C--CA-[N] |==|  0.91299
USER: genes 11 Torsion [C]-CA--N-[C] |==|  0.83797
USER: genes 12 Torsion [C]-CA--CB-[CG2] |==|  0.43040
USER: genes 13 Torsion [CA]-CB--OG1-[HG1] |==|  0.85872
USER: genes 14 Torsion [C]-N--CA-[CB] |==|  0.17991
USER: genes 15 Torsion [N]-CA--CB-[CG] |==|  0.52180
USER: genes 16 Torsion [CA]-CB--CG-[CD] |==|  0.67184
USER: genes 17 Torsion [CB]-CG--CD-[OE2] |==|  0.43961
USER: genes 18 Torsion [N]-CA--C-[N] |==|  0.83349
USER: genes 19 Torsion [C]-N--CA-[CB] |==|  0.84145
USER: genes 20 Torsion [N]-CA--C-[N] |==|  0.40000
USER: genes 21 Torsion [C]-N--CA-[C] |==|  0.17086
USER: genes 22 Torsion [N]-CA--C-[N] |==|  0.12221
USER: genes 23 Torsion [N]-CA--CB-[CG] |==|  0.88312
USER: genes 24 Torsion [CA]-CB--CG-[CD1] |==|  0.83336
USER: genes 25 Torsion [CE1]-CZ--OH-[HH] |==|  0.30699
USER: genes 26 Torsion [N]-CA--CB-[CG1] |==|  0.55891
ROOT
ATOM      1  C   THR D   3       6.048   1.444  -7.302  1.00 23.43 LIG 0.24  C 
ATOM      2 O    THR D   3       7.214   1.074  -7.170  1.00 24.39 LIG-0.27  OA
ATOM      3  N   GLU D   4       5.287   1.823  -6.279  1.00 25.01 LIG-0.35  N 
ATOM      4 H    GLU D   4       4.480   2.108  -6.366  1.00 25.01 LIG 0.16  HD
ENDROOT
BRANCH 1 5
ATOM      5  CA  THR D   3       5.397   1.487  -8.687  1.00 20.85 LIG 0.20  C 
BRANCH 5 6
ATOM      6  N   THR D   3       6.290   2.021  -9.709  1.00 20.16 LIG-0.34  N 
ATOM      7 H    THR D   3       6.745   1.423 -10.128  1.00 20.16 LIG 0.16  HD
ATOM      8  C   ARG D   2       6.377   3.324  -9.953  1.00 20.73 LIG 0.24  C 
ATOM      9 O    ARG D   2       5.759   4.174  -9.309  1.00 19.88 LIG-0.27  OA
BRANCH 8 10
ATOM     10  CA  ARG D   2       7.321   3.732 -11.079  1.00 21.07 LIG 0.18  C 
BRANCH 10 11
ATOM     11  CB  ARG D   2       6.797   3.227 -12.431  1.00 18.72 LIG 0.04  C 
BRANCH 11 12
ATOM     12  CG  ARG D   2       5.400   2.604 -12.361  1.00 17.25 LIG 0.02  C 
BRANCH 12 13
ATOM     13  CD  ARG D   2       4.693   2.642 -13.715  1.00 15.57 LIG 0.14  C 
BRANCH 13 14
ATOM     14  NE  ARG D   2       3.787   3.780 -13.836  1.00 16.78 LIG-0.23  N 
ATOM     15 HE   ARG D   2       3.154   3.853 -13.259  1.00 16.78 LIG 0.18  HD
ATOM     16  CZ  ARG D   2       3.879   4.712 -14.781  1.00 18.57 LIG 0.67  C 
ATOM     17  NH2 ARG D   2       3.008   5.713 -14.815  1.00 17.94 LIG-0.23  N 
ATOM     18  NH1 ARG D   2       4.843   4.647 -15.690  1.00 16.85 LIG-0.23  N 
ATOM     19 1HH2 ARG D   2       2.384   5.761 -14.225  1.00 17.94 LIG 0.17  HD
ATOM     20 2HH2 ARG D   2       3.068   6.315 -15.426  1.00 17.94 LIG 0.17  HD
ATOM     21 2HH1 ARG D   2       4.901   5.251 -16.300  1.00 16.85 LIG 0.17  HD
ATOM     22 1HH1 ARG D   2       5.411   4.002 -15.669  1.00 16.85 LIG 0.17  HD
ENDBRANCH 13 14
ENDBRANCH 12 13
ENDBRANCH 11 12
ENDBRANCH 10 11
BRANCH 10 23
ATOM     23  N   ARG D   2       8.688   3.267 -10.838  1.00 21.51 LIG-0.35  N 
ATOM     24  C   ALA D   1       8.999   1.977 -10.920  1.00 21.30 LIG 0.24  C 
ATOM     25 O    ALA D   1       8.188   1.121 -11.260  1.00 21.16 LIG-0.27  OA
ATOM     26 H    ARG D   2       9.249   3.890 -10.645  1.00 21.51 LIG 0.16  HD
BRANCH 24 27
ATOM     27  CA  ALA D   1      10.438   1.589 -10.580  1.00 21.78 LIG 0.17  C 
ATOM     28  CB  ALA D   1      10.554   1.217  -9.111  1.00 21.47 LIG 0.04  C 
BRANCH 27 29
ATOM     29  N   ALA D   1      11.399   2.638 -10.917  1.00 22.15 LIG-0.35  N 
ATOM     30 H    ALA D   1      11.860   2.912 -10.244  1.00 22.15 LIG 0.16  HD
ATOM     31  C   ACE D   0      11.546   3.126 -12.146  1.00 22.99 LIG 0.21  C 
ATOM     32 O    ACE D   0      10.689   3.064 -13.029  1.00 24.10 LIG-0.27  OA
ATOM     33  CH3 ACE D   0      12.693   4.091 -12.207  1.00 21.14 LIG 0.12  C 
ENDBRANCH 27 29
ENDBRANCH 24 27
ENDBRANCH 10 23
ENDBRANCH 8 10
ENDBRANCH 5 6
BRANCH 5 34
ATOM     34  CB  THR D   3       4.896   0.083  -9.073  1.00 19.16 LIG 0.15  C 
ATOM     35  CG2 THR D   3       3.759   0.191 -10.076  1.00 17.08 LIG 0.04  C 
BRANCH 34 36
ATOM     36 OG1  THR D   3       5.967  -0.669  -9.658  1.00 20.38 LIG-0.39  OA
ATOM     37 HG1  THR D   3       6.327  -0.217 -10.268  1.00 20.38 LIG 0.21  HD
ENDBRANCH 34 36
ENDBRANCH 5 34
ENDBRANCH 1 5
BRANCH 3 38
ATOM     38  CA  GLU D   4       5.762   1.787  -4.899  1.00 28.82 LIG 0.18  C 
BRANCH 38 39
ATOM     39  CB  GLU D   4       6.919   2.772  -4.701  1.00 31.32 LIG 0.04  C 
BRANCH 39 40
ATOM     40  CG  GLU D   4       7.606   2.675  -3.349  1.00 34.96 LIG 0.12  C 
BRANCH 40 41
ATOM     41  CD  GLU D   4       7.493   3.956  -2.547  1.00 38.68 LIG 0.17  C 
ATOM     42 OE2  GLU D   4       7.633   3.899  -1.307  1.00 39.24 LIG-0.65  OA
ATOM     43 OE1  GLU D   4       7.259   5.022  -3.155  1.00 40.65 LIG-0.65  OA
ENDBRANCH 40 41
ENDBRANCH 39 40
ENDBRANCH 38 39
BRANCH 38 44
ATOM     44  C   GLU D   4       4.628   2.137  -3.938  1.00 29.37 LIG 0.24  C 
ATOM     45  N   VAL D   5       4.072   3.336  -4.089  1.00 31.15 LIG-0.35  N 
ATOM     46 H    VAL D   5       4.332   3.916  -4.667  1.00 31.15 LIG 0.16  HD
ATOM     47 O    GLU D   4       4.260   1.330  -3.085  1.00 28.00 LIG-0.27  OA
BRANCH 45 48
ATOM     48  CA  VAL D   5       2.948   3.768  -3.263  1.00 31.02 LIG 0.18  C 
BRANCH 48 49
ATOM     49  C   VAL D   5       3.328   3.878  -1.789  1.00 31.80 LIG 0.24  C 
ATOM     50  N   TYR D   6       2.762   4.870  -1.106  1.00 29.63 LIG-0.35  N 
ATOM     51 H    TYR D   6       2.252   5.464  -1.462  1.00 29.63 LIG 0.16  HD
ATOM     52 O    VAL D   5       4.113   3.076  -1.283  1.00 32.83 LIG-0.27  OA
BRANCH 50 53
ATOM     53  CA  TYR D   6       2.964   5.034   0.327  1.00 30.54 LIG 0.18  C 
BRANCH 53 54
ATOM     54  C   TYR D   6       4.442   5.268   0.619  1.00 31.23 LIG 0.28  C 
ATOM     55  N   NH2 D   7       5.072   6.118  -0.185  1.00 33.55 LIG-0.11  N 
ATOM     56 O    TYR D   6       5.001   4.679   1.545  1.00 28.81 LIG-0.27  OA
ENDBRANCH 53 54
BRANCH 53 57
ATOM     57  CB  TYR D   6       2.454   3.801   1.080  1.00 30.33 LIG 0.07  C 
BRANCH 57 58
ATOM     58  CG  TYR D   6       1.132   3.247   0.582  1.00 31.81 LIG-0.06  A 
ATOM     59  CD1 TYR D   6      -0.020   4.023   0.592  1.00 31.47 LIG 0.01  A 
ATOM     60  CE1 TYR D   6      -1.222   3.522   0.130  1.00 32.87 LIG 0.04  A 
ATOM     61  CZ  TYR D   6      -1.283   2.235  -0.360  1.00 33.71 LIG 0.07  A 
ATOM     62  CE2 TYR D   6      -0.151   1.447  -0.390  1.00 32.90 LIG 0.04  A 
ATOM     63  CD2 TYR D   6       1.048   1.957   0.074  1.00 31.58 LIG 0.01  A 
BRANCH 61 64
ATOM     64 OH   TYR D   6      -2.479   1.734  -0.822  1.00 34.88 LIG-0.36  OA
ATOM     65 HH   TYR D   6      -2.441   1.643  -1.656  1.00 34.88 LIG 0.22  HD
ENDBRANCH 61 64
ENDBRANCH 57 58
ENDBRANCH 53 57
ENDBRANCH 50 53
ENDBRANCH 48 49
BRANCH 48 66
ATOM     66  CB  VAL D   5       1.753   2.800  -3.369  1.00 31.19 LIG 0.01  C 
ATOM     67  CG1 VAL D   5       0.467   3.506  -2.953  1.00 32.10 LIG 0.01  C 
ATOM     68  CG2 VAL D   5       1.633   2.249  -4.773  1.00 30.34 LIG 0.01  C 
ENDBRANCH 48 66
ENDBRANCH 45 48
ENDBRANCH 38 44
ENDBRANCH 3 38
TORSDOF 25
ENDMDL
MODEL 15
USER: ADFR SOLUTION from run 20
USER: SCORE 18.619964 LL:  -5.752 LR: -15.185 RR:   0.000 FEB:  -7.727
USER: RMSD 10.854910
USER: SEED 19
USER: STATUS no improvement in best in 9 clusters for 5 generations
USER: GENES 27
USER: genes 0 Translation |==|  0.69359 0.37632 0.48818
USER: genes 1 Rotation |==|  0.42783 0.89485 0.20609 0.55004
USER: genes 2 Torsion [N]-C--CA-[N] |==|  0.95692
USER: genes 3 Torsion [C]-CA--N-[C] |==|  0.70618
USER: genes 4 Torsion [N]-C--CA-[N] |==|  0.14369
USER: genes 5 Torsion [C]-CA--CB-[CG] |==|  0.69427
USER: genes 6 Torsion [CA]-CB--CG-[CD] |==|  0.60121
USER: genes 7 Torsion [CB]-CG--CD-[NE] |==|  0.41573
USER: genes 8 Torsion [CG]-CD--NE-[HE] |==|  0.04391
USER: genes 9 Torsion [C]-CA--N-[C] |==|  0.12422
USER: genes 10 Torsion [N]-C--CA-[N] |==|  0.40321
USER: genes 11 Torsion [C]-CA--N-[C] |==|  0.66755
USER: genes 12 Torsion [C]-CA--CB-[CG2] |==|  0.50128
USER: genes 13 Torsion [CA]-CB--OG1-[HG1] |==|  0.23683
USER: genes 14 Torsion [C]-N--CA-[CB] |==|  0.53107
USER: genes 15 Torsion [N]-CA--CB-[CG] |==|  0.48463
USER: genes 16 Torsion [CA]-CB--CG-[CD] |==|  0.21290
USER: genes 17 Torsion [CB]-CG--CD-[OE2] |==|  0.83027
USER: genes 18 Torsion [N]-CA--C-[N] |==|  0.41134
USER: genes 19 Torsion [C]-N--CA-[CB] |==|  0.51060
USER: genes 20 Torsion [N]-CA--C-[N] |==|  0.85837
USER: genes 21 Torsion [C]-N--CA-[C] |==|  0.72933
USER: genes 22 Torsion [N]-CA--C-[N] |==|  0.97038
USER: genes 23 Torsion [N]-CA--CB-[CG] |==|  0.00341
USER: genes 24 Torsion [CA]-CB--CG-[CD1] |==|  0.23151
USER: genes 25 Torsion [CE1]-CZ--OH-[HH] |==|  0.43739
USER: genes 26 Torsion [N]-CA--CB-[CG1] |==|  0.09758
ROOT
ATOM      1  C   THR D   3       8.034   1.021  -5.699  1.00 23.43 LIG 0.24  C 
ATOM      2 O    THR D   3       8.021   0.084  -4.901  1.00 24.39 LIG-0.27  OA
ATOM      3  N   GLU D   4       7.647   2.253  -5.377  1.00 25.01 LIG-0.35  N 
ATOM      4 H    GLU D   4       7.678   2.918  -5.921  1.00 25.01 LIG 0.16  HD
ENDROOT
BRANCH 1 5
ATOM      5  CA  THR D   3       8.505   0.810  -7.140  1.00 20.85 LIG 0.20  C 
BRANCH 5 6
ATOM      6  N   THR D   3       8.118   1.905  -8.021  1.00 20.16 LIG-0.34  N 
ATOM      7 H    THR D   3       8.575   2.625  -7.912  1.00 20.16 LIG 0.16  HD
ATOM      8  C   ARG D   2       7.138   1.778  -8.910  1.00 20.73 LIG 0.24  C 
ATOM      9 O    ARG D   2       6.455   0.757  -9.020  1.00 19.88 LIG-0.27  OA
BRANCH 8 10
ATOM     10  CA  ARG D   2       6.873   2.992  -9.793  1.00 21.07 LIG 0.18  C 
BRANCH 10 11
ATOM     11  CB  ARG D   2       5.791   2.675 -10.834  1.00 18.72 LIG 0.04  C 
BRANCH 11 12
ATOM     12  CG  ARG D   2       6.318   2.585 -12.270  1.00 17.25 LIG 0.02  C 
BRANCH 12 13
ATOM     13  CD  ARG D   2       5.317   3.147 -13.278  1.00 15.57 LIG 0.14  C 
BRANCH 13 14
ATOM     14  NE  ARG D   2       5.973   3.723 -14.448  1.00 16.78 LIG-0.23  N 
ATOM     15 HE   ARG D   2       6.799   3.525 -14.584  1.00 16.78 LIG 0.18  HD
ATOM     16  CZ  ARG D   2       5.375   4.534 -15.317  1.00 18.57 LIG 0.67  C 
ATOM     17  NH2 ARG D   2       6.052   5.013 -16.354  1.00 17.94 LIG-0.23  N 
ATOM     18  NH1 ARG D   2       4.100   4.862 -15.154  1.00 16.85 LIG-0.23  N 
ATOM     19 1HH2 ARG D   2       6.878   4.799 -16.465  1.00 17.94 LIG 0.17  HD
ATOM     20 2HH2 ARG D   2       5.664   5.536 -16.915  1.00 17.94 LIG 0.17  HD
ATOM     21 2HH1 ARG D   2       3.716   5.386 -15.718  1.00 16.85 LIG 0.17  HD
ATOM     22 1HH1 ARG D   2       3.658   4.551 -14.486  1.00 16.85 LIG 0.17  HD
ENDBRANCH 13 14
ENDBRANCH 12 13
ENDBRANCH 11 12
ENDBRANCH 10 11
BRANCH 10 23
ATOM     23  N   ARG D   2       8.096   3.473 -10.436  1.00 21.51 LIG-0.35  N 
ATOM     24  C   ALA D   1       8.955   2.629 -10.999  1.00 21.30 LIG 0.24  C 
ATOM     25 O    ALA D   1       8.745   1.421 -11.070  1.00 21.16 LIG-0.27  OA
ATOM     26 H    ARG D   2       8.201   4.327 -10.414  1.00 21.51 LIG 0.16  HD
BRANCH 24 27
ATOM     27  CA  ALA D   1      10.236   3.228 -11.581  1.00 21.78 LIG 0.17  C 
ATOM     28  CB  ALA D   1      10.035   3.589 -13.044  1.00 21.47 LIG 0.04  C 
BRANCH 27 29
ATOM     29  N   ALA D   1      11.390   2.344 -11.428  1.00 22.15 LIG-0.35  N 
ATOM     30 H    ALA D   1      11.296   1.584 -11.820  1.00 22.15 LIG 0.16  HD
ATOM     31  C   ACE D   0      12.482   2.681 -10.749  1.00 22.99 LIG 0.21  C 
ATOM     32 O    ACE D   0      12.522   3.551  -9.877  1.00 24.10 LIG-0.27  OA
ATOM     33  CH3 ACE D   0      13.543   1.628 -10.880  1.00 21.14 LIG 0.12  C 
ENDBRANCH 27 29
ENDBRANCH 24 27
ENDBRANCH 10 23
ENDBRANCH 8 10
ENDBRANCH 5 6
BRANCH 5 34
ATOM     34  CB  THR D   3      10.030   0.595  -7.165  1.00 19.16 LIG 0.15  C 
ATOM     35  CG2 THR D   3      10.506   0.396  -8.594  1.00 17.08 LIG 0.04  C 
BRANCH 34 36
ATOM     36 OG1  THR D   3      10.689   1.739  -6.606  1.00 20.38 LIG-0.39  OA
ATOM     37 HG1  THR D   3      10.725   1.661  -5.771  1.00 20.38 LIG 0.21  HD
ENDBRANCH 34 36
ENDBRANCH 5 34
ENDBRANCH 1 5
BRANCH 3 38
ATOM     38  CA  GLU D   4       7.129   2.587  -4.053  1.00 28.82 LIG 0.18  C 
BRANCH 38 39
ATOM     39  CB  GLU D   4       6.512   3.989  -4.055  1.00 31.32 LIG 0.04  C 
BRANCH 39 40
ATOM     40  CG  GLU D   4       5.826   4.378  -2.755  1.00 34.96 LIG 0.12  C 
BRANCH 40 41
ATOM     41  CD  GLU D   4       6.813   4.756  -1.668  1.00 38.68 LIG 0.17  C 
ATOM     42 OE2  GLU D   4       7.634   3.897  -1.283  1.00 39.24 LIG-0.65  OA
ATOM     43 OE1  GLU D   4       6.764   5.910  -1.194  1.00 40.65 LIG-0.65  OA
ENDBRANCH 40 41
ENDBRANCH 39 40
ENDBRANCH 38 39
BRANCH 38 44
ATOM     44  C   GLU D   4       6.076   1.569  -3.624  1.00 29.37 LIG 0.24  C 
ATOM     45  N   VAL D   5       5.991   1.317  -2.320  1.00 31.15 LIG-0.35  N 
ATOM     46 H    VAL D   5       6.506   1.670  -1.729  1.00 31.15 LIG 0.16  HD
ATOM     47 O    GLU D   4       5.348   1.032  -4.459  1.00 28.00 LIG-0.27  OA
BRANCH 45 48
ATOM     48  CA  VAL D   5       4.992   0.399  -1.780  1.00 31.02 LIG 0.18  C 
BRANCH 48 49
ATOM     49  C   VAL D   5       3.575   0.786  -2.193  1.00 31.80 LIG 0.24  C 
ATOM     50  N   TYR D   6       3.222   2.050  -1.977  1.00 29.63 LIG-0.35  N 
ATOM     51 H    TYR D   6       3.723   2.624  -1.578  1.00 29.63 LIG 0.16  HD
ATOM     52 O    VAL D   5       2.821  -0.044  -2.703  1.00 32.83 LIG-0.27  OA
BRANCH 50 53
ATOM     53  CA  TYR D   6       1.934   2.578  -2.407  1.00 30.54 LIG 0.18  C 
BRANCH 53 54
ATOM     54  C   TYR D   6       2.091   3.304  -3.739  1.00 31.23 LIG 0.28  C 
ATOM     55  N   NH2 D   7       3.338   3.522  -4.146  1.00 33.55 LIG-0.11  N 
ATOM     56 O    TYR D   6       1.103   3.669  -4.377  1.00 28.81 LIG-0.27  OA
ENDBRANCH 53 54
BRANCH 53 57
ATOM     57  CB  TYR D   6       1.365   3.522  -1.343  1.00 30.33 LIG 0.07  C 
BRANCH 57 58
ATOM     58  CG  TYR D   6       2.246   3.721  -0.124  1.00 31.81 LIG-0.06  A 
ATOM     59  CD1 TYR D   6       3.283   4.646  -0.133  1.00 31.47 LIG 0.01  A 
ATOM     60  CE1 TYR D   6       4.080   4.836   0.979  1.00 32.87 LIG 0.04  A 
ATOM     61  CZ  TYR D   6       3.841   4.105   2.123  1.00 33.71 LIG 0.07  A 
ATOM     62  CE2 TYR D   6       2.813   3.187   2.161  1.00 32.90 LIG 0.04  A 
ATOM     63  CD2 TYR D   6       2.019   3.005   1.043  1.00 31.58 LIG 0.01  A 
BRANCH 61 64
ATOM     64 OH   TYR D   6       4.634   4.292   3.233  1.00 34.88 LIG-0.36  OA
ATOM     65 HH   TYR D   6       4.219   4.042   3.919  1.00 34.88 LIG 0.22  HD
ENDBRANCH 61 64
ENDBRANCH 57 58
ENDBRANCH 53 57
ENDBRANCH 50 53
ENDBRANCH 48 49
BRANCH 48 66
ATOM     66  CB  VAL D   5       5.035   0.346  -0.241  1.00 31.19 LIG 0.01  C 
ATOM     67  CG1 VAL D   5       5.379   1.721   0.323  1.00 32.10 LIG 0.01  C 
ATOM     68  CG2 VAL D   5       3.716  -0.146   0.315  1.00 30.34 LIG 0.01  C 
ENDBRANCH 48 66
ENDBRANCH 45 48
ENDBRANCH 38 44
ENDBRANCH 3 38
TORSDOF 25
ENDMDL
MODEL 16
USER: ADFR SOLUTION from run 114
USER: SCORE 17.099978 LL:  -5.049 LR: -15.121 RR:   0.000 FEB:  -7.663
USER: RMSD 11.547525
USER: SEED 113
USER: STATUS no improvement in best in 3 clusters for 5 generations
USER: GENES 27
USER: genes 0 Translation |==|  0.59051 0.42830 0.43228
USER: genes 1 Rotation |==|  0.02444 0.45945 0.44915 0.64004
USER: genes 2 Torsion [N]-C--CA-[N] |==|  0.58556
USER: genes 3 Torsion [C]-CA--N-[C] |==|  0.70953
USER: genes 4 Torsion [N]-C--CA-[N] |==|  0.03889
USER: genes 5 Torsion [C]-CA--CB-[CG] |==|  0.94535
USER: genes 6 Torsion [CA]-CB--CG-[CD] |==|  0.50228
USER: genes 7 Torsion [CB]-CG--CD-[NE] |==|  0.97496
USER: genes 8 Torsion [CG]-CD--NE-[HE] |==|  0.15916
USER: genes 9 Torsion [C]-CA--N-[C] |==|  0.18931
USER: genes 10 Torsion [N]-C--CA-[N] |==|  0.04306
USER: genes 11 Torsion [C]-CA--N-[C] |==|  0.73982
USER: genes 12 Torsion [C]-CA--CB-[CG2] |==|  0.42585
USER: genes 13 Torsion [CA]-CB--OG1-[HG1] |==|  0.71222
USER: genes 14 Torsion [C]-N--CA-[CB] |==|  0.83796
USER: genes 15 Torsion [N]-CA--CB-[CG] |==|  0.55570
USER: genes 16 Torsion [CA]-CB--CG-[CD] |==|  0.70857
USER: genes 17 Torsion [CB]-CG--CD-[OE2] |==|  0.96026
USER: genes 18 Torsion [N]-CA--C-[N] |==|  0.36899
USER: genes 19 Torsion [C]-N--CA-[CB] |==|  0.30151
USER: genes 20 Torsion [N]-CA--C-[N] |==|  0.17079
USER: genes 21 Torsion [C]-N--CA-[C] |==|  0.61783
USER: genes 22 Torsion [N]-CA--C-[N] |==|  0.34999
USER: genes 23 Torsion [N]-CA--CB-[CG] |==|  0.80663
USER: genes 24 Torsion [CA]-CB--CG-[CD1] |==|  0.81585
USER: genes 25 Torsion [CE1]-CZ--OH-[HH] |==|  0.74417
USER: genes 26 Torsion [N]-CA--CB-[CG1] |==|  0.63963
ROOT
ATOM      1  C   THR D   3       6.024   2.230  -7.082  1.00 23.43 LIG 0.24  C 
ATOM      2 O    THR D   3       6.233   3.438  -6.977  1.00 24.39 LIG-0.27  OA
ATOM      3  N   GLU D   4       5.784   1.442  -6.038  1.00 25.01 LIG-0.35  N 
ATOM      4 H    GLU D   4       5.611   0.602  -6.105  1.00 25.01 LIG 0.16  HD
ENDROOT
BRANCH 1 5
ATOM      5  CA  THR D   3       6.032   1.556  -8.456  1.00 20.85 LIG 0.20  C 
BRANCH 5 6
ATOM      6  N   THR D   3       6.941   2.206  -9.393  1.00 20.16 LIG-0.34  N 
ATOM      7 H    THR D   3       7.772   2.037  -9.254  1.00 20.16 LIG 0.16  HD
ATOM      8  C   ARG D   2       6.498   2.989 -10.372  1.00 20.73 LIG 0.24  C 
ATOM      9 O    ARG D   2       5.307   3.264 -10.528  1.00 19.88 LIG-0.27  OA
BRANCH 8 10
ATOM     10  CA  ARG D   2       7.562   3.566 -11.300  1.00 21.07 LIG 0.18  C 
BRANCH 10 11
ATOM     11  CB  ARG D   2       7.089   3.511 -12.760  1.00 18.72 LIG 0.04  C 
BRANCH 11 12
ATOM     12  CG  ARG D   2       5.956   2.510 -13.009  1.00 17.25 LIG 0.02  C 
BRANCH 12 13
ATOM     13  CD  ARG D   2       5.538   2.480 -14.478  1.00 15.57 LIG 0.14  C 
BRANCH 13 14
ATOM     14  NE  ARG D   2       6.160   3.549 -15.253  1.00 16.78 LIG-0.23  N 
ATOM     15 HE   ARG D   2       7.019   3.592 -15.262  1.00 16.78 LIG 0.18  HD
ATOM     16  CZ  ARG D   2       5.484   4.461 -15.946  1.00 18.57 LIG 0.67  C 
ATOM     17  NH2 ARG D   2       6.134   5.400 -16.623  1.00 17.94 LIG-0.23  N 
ATOM     18  NH1 ARG D   2       4.157   4.432 -15.969  1.00 16.85 LIG-0.23  N 
ATOM     19 1HH2 ARG D   2       6.994   5.419 -16.613  1.00 17.94 LIG 0.17  HD
ATOM     20 2HH2 ARG D   2       5.696   5.988 -17.070  1.00 17.94 LIG 0.17  HD
ATOM     21 2HH1 ARG D   2       3.722   5.022 -16.419  1.00 16.85 LIG 0.17  HD
ATOM     22 1HH1 ARG D   2       3.733   3.823 -15.535  1.00 16.85 LIG 0.17  HD
ENDBRANCH 13 14
ENDBRANCH 12 13
ENDBRANCH 11 12
ENDBRANCH 10 11
BRANCH 10 23
ATOM     23  N   ARG D   2       8.849   2.889 -11.139  1.00 21.51 LIG-0.35  N 
ATOM     24  C   ALA D   1       9.012   1.623 -11.512  1.00 21.30 LIG 0.24  C 
ATOM     25 O    ALA D   1       8.126   0.977 -12.065  1.00 21.16 LIG-0.27  OA
ATOM     26 H    ARG D   2       9.468   3.374 -10.790  1.00 21.51 LIG 0.16  HD
BRANCH 24 27
ATOM     27  CA  ALA D   1      10.375   0.989 -11.234  1.00 21.78 LIG 0.17  C 
ATOM     28  CB  ALA D   1      10.204  -0.442 -10.749  1.00 21.47 LIG 0.04  C 
BRANCH 27 29
ATOM     29  N   ALA D   1      11.170   1.759 -10.280  1.00 22.15 LIG-0.35  N 
ATOM     30 H    ALA D   1      11.008   1.562  -9.458  1.00 22.15 LIG 0.16  HD
ATOM     31  C   ACE D   0      12.060   2.677 -10.645  1.00 22.99 LIG 0.21  C 
ATOM     32 O    ACE D   0      12.058   3.260 -11.731  1.00 24.10 LIG-0.27  OA
ATOM     33  CH3 ACE D   0      12.811   3.201  -9.457  1.00 21.14 LIG 0.12  C 
ENDBRANCH 27 29
ENDBRANCH 24 27
ENDBRANCH 10 23
ENDBRANCH 8 10
ENDBRANCH 5 6
BRANCH 5 34
ATOM     34  CB  THR D   3       6.374   0.061  -8.304  1.00 19.16 LIG 0.15  C 
ATOM     35  CG2 THR D   3       5.772  -0.732  -9.452  1.00 17.08 LIG 0.04  C 
BRANCH 34 36
ATOM     36 OG1  THR D   3       7.797  -0.111  -8.310  1.00 20.38 LIG-0.39  OA
ATOM     37 HG1  THR D   3       8.040  -0.410  -9.057  1.00 20.38 LIG 0.21  HD
ENDBRANCH 34 36
ENDBRANCH 5 34
ENDBRANCH 1 5
BRANCH 3 38
ATOM     38  CA  GLU D   4       5.794   1.942  -4.665  1.00 28.82 LIG 0.18  C 
BRANCH 38 39
ATOM     39  CB  GLU D   4       7.153   2.563  -4.329  1.00 31.32 LIG 0.04  C 
BRANCH 39 40
ATOM     40  CG  GLU D   4       7.444   2.674  -2.841  1.00 34.96 LIG 0.12  C 
BRANCH 40 41
ATOM     41  CD  GLU D   4       7.309   4.094  -2.327  1.00 38.68 LIG 0.17  C 
ATOM     42 OE2  GLU D   4       7.257   5.027  -3.156  1.00 39.24 LIG-0.65  OA
ATOM     43 OE1  GLU D   4       7.259   4.279  -1.093  1.00 40.65 LIG-0.65  OA
ENDBRANCH 40 41
ENDBRANCH 39 40
ENDBRANCH 38 39
BRANCH 38 44
ATOM     44  C   GLU D   4       4.697   2.985  -4.473  1.00 29.37 LIG 0.24  C 
ATOM     45  N   VAL D   5       3.934   2.852  -3.392  1.00 31.15 LIG-0.35  N 
ATOM     46 H    VAL D   5       4.010   2.208  -2.827  1.00 31.15 LIG 0.16  HD
ATOM     47 O    GLU D   4       4.554   3.899  -5.286  1.00 28.00 LIG-0.27  OA
BRANCH 45 48
ATOM     48  CA  VAL D   5       2.882   3.813  -3.072  1.00 31.02 LIG 0.18  C 
BRANCH 48 49
ATOM     49  C   VAL D   5       2.963   4.293  -1.626  1.00 31.80 LIG 0.24  C 
ATOM     50  N   TYR D   6       4.077   4.931  -1.278  1.00 29.63 LIG-0.35  N 
ATOM     51 H    TYR D   6       4.753   5.033  -1.801  1.00 29.63 LIG 0.16  HD
ATOM     52 O    VAL D   5       2.032   4.093  -0.846  1.00 32.83 LIG-0.27  OA
BRANCH 50 53
ATOM     53  CA  TYR D   6       4.249   5.523   0.042  1.00 30.54 LIG 0.18  C 
BRANCH 53 54
ATOM     54  C   TYR D   6       4.903   6.894  -0.086  1.00 31.23 LIG 0.28  C 
ATOM     55  N   NH2 D   7       4.263   7.906   0.490  1.00 33.55 LIG-0.11  N 
ATOM     56 O    TYR D   6       5.958   7.032  -0.706  1.00 28.81 LIG-0.27  OA
ENDBRANCH 53 54
BRANCH 53 57
ATOM     57  CB  TYR D   6       5.094   4.604   0.931  1.00 30.33 LIG 0.07  C 
BRANCH 57 58
ATOM     58  CG  TYR D   6       4.415   3.313   1.347  1.00 31.81 LIG-0.06  A 
ATOM     59  CD1 TYR D   6       3.308   3.324   2.186  1.00 31.47 LIG 0.01  A 
ATOM     60  CE1 TYR D   6       2.683   2.149   2.558  1.00 32.87 LIG 0.04  A 
ATOM     61  CZ  TYR D   6       3.154   0.944   2.084  1.00 33.71 LIG 0.07  A 
ATOM     62  CE2 TYR D   6       4.246   0.907   1.242  1.00 32.90 LIG 0.04  A 
ATOM     63  CD2 TYR D   6       4.866   2.088   0.874  1.00 31.58 LIG 0.01  A 
BRANCH 61 64
ATOM     64 OH   TYR D   6       2.533  -0.228   2.453  1.00 34.88 LIG-0.36  OA
ATOM     65 HH   TYR D   6       2.907  -0.539   3.138  1.00 34.88 LIG 0.22  HD
ENDBRANCH 61 64
ENDBRANCH 57 58
ENDBRANCH 53 57
ENDBRANCH 50 53
ENDBRANCH 48 49
BRANCH 48 66
ATOM     66  CB  VAL D   5       1.476   3.219  -3.291  1.00 31.19 LIG 0.01  C 
ATOM     67  CG1 VAL D   5       0.632   4.166  -4.140  1.00 32.10 LIG 0.01  C 
ATOM     68  CG2 VAL D   5       1.567   1.855  -3.939  1.00 30.34 LIG 0.01  C 
ENDBRANCH 48 66
ENDBRANCH 45 48
ENDBRANCH 38 44
ENDBRANCH 3 38
TORSDOF 25
ENDMDL
MODEL 17
USER: ADFR SOLUTION from run 140
USER: SCORE 18.890190 LL:  -5.138 LR: -15.097 RR:   0.000 FEB:  -7.640
USER: RMSD 11.057913
USER: SEED 139
USER: STATUS no improvement in best in 1 clusters for 5 generations
USER: GENES 27
USER: genes 0 Translation |==|  0.56434 0.40563 0.45245
USER: genes 1 Rotation |==|  0.85118 0.20269 0.69533 0.51109
USER: genes 2 Torsion [N]-C--CA-[N] |==|  0.37353
USER: genes 3 Torsion [C]-CA--N-[C] |==|  0.83696
USER: genes 4 Torsion [N]-C--CA-[N] |==|  0.90463
USER: genes 5 Torsion [C]-CA--CB-[CG] |==|  0.60660
USER: genes 6 Torsion [CA]-CB--CG-[CD] |==|  0.50688
USER: genes 7 Torsion [CB]-CG--CD-[NE] |==|  0.28783
USER: genes 8 Torsion [CG]-CD--NE-[HE] |==|  0.08354
USER: genes 9 Torsion [C]-CA--N-[C] |==|  0.81747
USER: genes 10 Torsion [N]-C--CA-[N] |==|  0.95323
USER: genes 11 Torsion [C]-CA--N-[C] |==|  0.81237
USER: genes 12 Torsion [C]-CA--CB-[CG2] |==|  0.21932
USER: genes 13 Torsion [CA]-CB--OG1-[HG1] |==|  0.79559
USER: genes 14 Torsion [C]-N--CA-[CB] |==|  0.20455
USER: genes 15 Torsion [N]-CA--CB-[CG] |==|  0.47653
USER: genes 16 Torsion [CA]-CB--CG-[CD] |==|  0.16961
USER: genes 17 Torsion [CB]-CG--CD-[OE2] |==|  0.02580
USER: genes 18 Torsion [N]-CA--C-[N] |==|  0.93045
USER: genes 19 Torsion [C]-N--CA-[CB] |==|  0.58333
USER: genes 20 Torsion [N]-CA--C-[N] |==|  0.30276
USER: genes 21 Torsion [C]-N--CA-[C] |==|  0.76826
USER: genes 22 Torsion [N]-CA--C-[N] |==|  0.44378
USER: genes 23 Torsion [N]-CA--CB-[CG] |==|  0.98254
USER: genes 24 Torsion [CA]-CB--CG-[CD1] |==|  0.23864
USER: genes 25 Torsion [CE1]-CZ--OH-[HH] |==|  0.50215
USER: genes 26 Torsion [N]-CA--CB-[CG1] |==|  0.75088
ROOT
ATOM      1  C   THR D   3       5.514   1.703  -6.583  1.00 23.43 LIG 0.24  C 
ATOM      2 O    THR D   3       6.691   1.415  -6.367  1.00 24.39 LIG-0.27  OA
ATOM      3  N   GLU D   4       4.767   2.390  -5.724  1.00 25.01 LIG-0.35  N 
ATOM      4 H    GLU D   4       3.952   2.618  -5.878  1.00 25.01 LIG 0.16  HD
ENDROOT
BRANCH 1 5
ATOM      5  CA  THR D   3       4.832   1.270  -7.884  1.00 20.85 LIG 0.20  C 
BRANCH 5 6
ATOM      6  N   THR D   3       5.659   1.521  -9.058  1.00 20.16 LIG-0.34  N 
ATOM      7 H    THR D   3       5.838   0.818  -9.521  1.00 20.16 LIG 0.16  HD
ATOM      8  C   ARG D   2       6.088   2.740  -9.368  1.00 20.73 LIG 0.24  C 
ATOM      9 O    ARG D   2       5.868   3.730  -8.667  1.00 19.88 LIG-0.27  OA
BRANCH 8 10
ATOM     10  CA  ARG D   2       6.908   2.856 -10.648  1.00 21.07 LIG 0.18  C 
BRANCH 10 11
ATOM     11  CB  ARG D   2       5.992   3.128 -11.850  1.00 18.72 LIG 0.04  C 
BRANCH 11 12
ATOM     12  CG  ARG D   2       6.414   2.399 -13.130  1.00 17.25 LIG 0.02  C 
BRANCH 12 13
ATOM     13  CD  ARG D   2       5.508   2.751 -14.309  1.00 15.57 LIG 0.14  C 
BRANCH 13 14
ATOM     14  NE  ARG D   2       6.140   3.687 -15.234  1.00 16.78 LIG-0.23  N 
ATOM     15 HE   ARG D   2       6.996   3.662 -15.309  1.00 16.78 LIG 0.18  HD
ATOM     16  CZ  ARG D   2       5.476   4.575 -15.968  1.00 18.57 LIG 0.67  C 
ATOM     17  NH2 ARG D   2       6.134   5.390 -16.783  1.00 17.94 LIG-0.23  N 
ATOM     18  NH1 ARG D   2       4.153   4.647 -15.893  1.00 16.85 LIG-0.23  N 
ATOM     19 1HH2 ARG D   2       6.991   5.344 -16.838  1.00 17.94 LIG 0.17  HD
ATOM     20 2HH2 ARG D   2       5.704   5.964 -17.257  1.00 17.94 LIG 0.17  HD
ATOM     21 2HH1 ARG D   2       3.726   5.222 -16.369  1.00 16.85 LIG 0.17  HD
ATOM     22 1HH1 ARG D   2       3.723   4.119 -15.368  1.00 16.85 LIG 0.17  HD
ENDBRANCH 13 14
ENDBRANCH 12 13
ENDBRANCH 11 12
ENDBRANCH 10 11
BRANCH 10 23
ATOM     23  N   ARG D   2       7.733   1.670 -10.874  1.00 21.51 LIG-0.35  N 
ATOM     24  C   ALA D   1       8.730   1.358 -10.051  1.00 21.30 LIG 0.24  C 
ATOM     25 O    ALA D   1       8.972   2.001  -9.033  1.00 21.16 LIG-0.27  OA
ATOM     26 H    ARG D   2       7.517   1.210 -11.568  1.00 21.51 LIG 0.16  HD
BRANCH 24 27
ATOM     27  CA  ALA D   1       9.575   0.138 -10.417  1.00 21.78 LIG 0.17  C 
ATOM     28  CB  ALA D   1      10.943   0.572 -10.919  1.00 21.47 LIG 0.04  C 
BRANCH 27 29
ATOM     29  N   ALA D   1       8.922  -0.724 -11.400  1.00 22.15 LIG-0.35  N 
ATOM     30 H    ALA D   1       9.317  -0.736 -12.165  1.00 22.15 LIG 0.16  HD
ATOM     31  C   ACE D   0       7.822  -1.426 -11.140  1.00 22.99 LIG 0.21  C 
ATOM     32 O    ACE D   0       7.022  -1.162 -10.240  1.00 24.10 LIG-0.27  OA
ATOM     33  CH3 ACE D   0       7.466  -2.314 -12.294  1.00 21.14 LIG 0.12  C 
ENDBRANCH 27 29
ENDBRANCH 24 27
ENDBRANCH 10 23
ENDBRANCH 8 10
ENDBRANCH 5 6
BRANCH 5 34
ATOM     34  CB  THR D   3       4.433  -0.215  -7.797  1.00 19.16 LIG 0.15  C 
ATOM     35  CG2 THR D   3       3.158  -0.367  -6.985  1.00 17.08 LIG 0.04  C 
BRANCH 34 36
ATOM     36 OG1  THR D   3       4.215  -0.734  -9.116  1.00 20.38 LIG-0.39  OA
ATOM     37 HG1  THR D   3       3.490  -0.436  -9.418  1.00 20.38 LIG 0.21  HD
ENDBRANCH 34 36
ENDBRANCH 5 34
ENDBRANCH 1 5
BRANCH 3 38
ATOM     38  CA  GLU D   4       5.272   2.825  -4.424  1.00 28.82 LIG 0.18  C 
BRANCH 38 39
ATOM     39  CB  GLU D   4       6.251   3.991  -4.590  1.00 31.32 LIG 0.04  C 
BRANCH 39 40
ATOM     40  CG  GLU D   4       6.678   4.647  -3.286  1.00 34.96 LIG 0.12  C 
BRANCH 40 41
ATOM     41  CD  GLU D   4       7.394   3.684  -2.359  1.00 38.68 LIG 0.17  C 
ATOM     42 OE2  GLU D   4       7.714   2.560  -2.798  1.00 39.24 LIG-0.65  OA
ATOM     43 OE1  GLU D   4       7.633   4.050  -1.189  1.00 40.65 LIG-0.65  OA
ENDBRANCH 40 41
ENDBRANCH 39 40
ENDBRANCH 38 39
BRANCH 38 44
ATOM     44  C   GLU D   4       4.118   3.256  -3.523  1.00 29.37 LIG 0.24  C 
ATOM     45  N   VAL D   5       3.009   3.665  -4.134  1.00 31.15 LIG-0.35  N 
ATOM     46 H    VAL D   5       2.925   3.723  -4.988  1.00 31.15 LIG 0.16  HD
ATOM     47 O    GLU D   4       4.229   3.207  -2.298  1.00 28.00 LIG-0.27  OA
BRANCH 45 48
ATOM     48  CA  VAL D   5       1.820   4.058  -3.383  1.00 31.02 LIG 0.18  C 
BRANCH 48 49
ATOM     49  C   VAL D   5       1.717   3.324  -2.048  1.00 31.80 LIG 0.24  C 
ATOM     50  N   TYR D   6       1.934   4.052  -0.956  1.00 29.63 LIG-0.35  N 
ATOM     51 H    TYR D   6       2.175   4.878  -0.973  1.00 29.63 LIG 0.16  HD
ATOM     52 O    VAL D   5       1.440   2.125  -2.012  1.00 32.83 LIG-0.27  OA
BRANCH 50 53
ATOM     53  CA  TYR D   6       1.776   3.503   0.383  1.00 30.54 LIG 0.18  C 
BRANCH 53 54
ATOM     54  C   TYR D   6       0.310   3.563   0.799  1.00 31.23 LIG 0.28  C 
ATOM     55  N   NH2 D   7      -0.056   2.747   1.781  1.00 33.55 LIG-0.11  N 
ATOM     56 O    TYR D   6      -0.474   4.326   0.231  1.00 28.81 LIG-0.27  OA
ENDBRANCH 53 54
BRANCH 53 57
ATOM     57  CB  TYR D   6       2.651   4.272   1.379  1.00 30.33 LIG 0.07  C 
BRANCH 57 58
ATOM     58  CG  TYR D   6       3.576   5.301   0.759  1.00 31.81 LIG-0.06  A 
ATOM     59  CD1 TYR D   6       3.137   6.593   0.495  1.00 31.47 LIG 0.01  A 
ATOM     60  CE1 TYR D   6       3.983   7.534  -0.061  1.00 32.87 LIG 0.04  A 
ATOM     61  CZ  TYR D   6       5.286   7.195  -0.352  1.00 33.71 LIG 0.07  A 
ATOM     62  CE2 TYR D   6       5.749   5.922  -0.091  1.00 32.90 LIG 0.04  A 
ATOM     63  CD2 TYR D   6       4.897   4.986   0.467  1.00 31.58 LIG 0.01  A 
BRANCH 61 64
ATOM     64 OH   TYR D   6       6.130   8.130  -0.906  1.00 34.88 LIG-0.36  OA
ATOM     65 HH   TYR D   6       6.884   7.784  -1.038  1.00 34.88 LIG 0.22  HD
ENDBRANCH 61 64
ENDBRANCH 57 58
ENDBRANCH 53 57
ENDBRANCH 50 53
ENDBRANCH 48 49
BRANCH 48 66
ATOM     66  CB  VAL D   5       0.526   3.780  -4.172  1.00 31.19 LIG 0.01  C 
ATOM     67  CG1 VAL D   5       0.158   4.993  -5.022  1.00 32.10 LIG 0.01  C 
ATOM     68  CG2 VAL D   5       0.679   2.547  -5.036  1.00 30.34 LIG 0.01  C 
ENDBRANCH 48 66
ENDBRANCH 45 48
ENDBRANCH 38 44
ENDBRANCH 3 38
TORSDOF 25
ENDMDL
MODEL 18
USER: ADFR SOLUTION from run 115
USER: SCORE 17.933748 LL:  -4.173 LR: -15.064 RR:   0.000 FEB:  -7.607
USER: RMSD 9.993979
USER: SEED 114
USER: STATUS searching
USER: GENES 27
USER: genes 0 Translation |==|  0.61704 0.49038 0.64394
USER: genes 1 Rotation |==|  0.02861 0.52519 0.33546 0.50932
USER: genes 2 Torsion [N]-C--CA-[N] |==|  0.26233
USER: genes 3 Torsion [C]-CA--N-[C] |==|  0.78129
USER: genes 4 Torsion [N]-C--CA-[N] |==|  0.15988
USER: genes 5 Torsion [C]-CA--CB-[CG] |==|  0.80755
USER: genes 6 Torsion [CA]-CB--CG-[CD] |==|  0.47466
USER: genes 7 Torsion [CB]-CG--CD-[NE] |==|  0.93274
USER: genes 8 Torsion [CG]-CD--NE-[HE] |==|  0.33161
USER: genes 9 Torsion [C]-CA--N-[C] |==|  0.78112
USER: genes 10 Torsion [N]-C--CA-[N] |==|  0.89654
USER: genes 11 Torsion [C]-CA--N-[C] |==|  0.76354
USER: genes 12 Torsion [C]-CA--CB-[CG2] |==|  0.47334
USER: genes 13 Torsion [CA]-CB--OG1-[HG1] |==|  0.45850
USER: genes 14 Torsion [C]-N--CA-[CB] |==|  0.18492
USER: genes 15 Torsion [N]-CA--CB-[CG] |==|  0.54491
USER: genes 16 Torsion [CA]-CB--CG-[CD] |==|  0.50995
USER: genes 17 Torsion [CB]-CG--CD-[OE2] |==|  0.61403
USER: genes 18 Torsion [N]-CA--C-[N] |==|  0.02973
USER: genes 19 Torsion [C]-N--CA-[CB] |==|  0.16084
USER: genes 20 Torsion [N]-CA--C-[N] |==|  0.13143
USER: genes 21 Torsion [C]-N--CA-[C] |==|  0.82362
USER: genes 22 Torsion [N]-CA--C-[N] |==|  0.35009
USER: genes 23 Torsion [N]-CA--CB-[CG] |==|  0.31310
USER: genes 24 Torsion [CA]-CB--CG-[CD1] |==|  0.23531
USER: genes 25 Torsion [CE1]-CZ--OH-[HH] |==|  0.60388
USER: genes 26 Torsion [N]-CA--CB-[CG1] |==|  0.17555
ROOT
ATOM      1  C   THR D   3       6.541   3.673  -1.843  1.00 23.43 LIG 0.24  C 
ATOM      2 O    THR D   3       7.272   4.645  -2.037  1.00 24.39 LIG-0.27  OA
ATOM      3  N   GLU D   4       5.664   3.613  -0.846  1.00 25.01 LIG-0.35  N 
ATOM      4 H    GLU D   4       5.132   2.950  -0.719  1.00 25.01 LIG 0.16  HD
ENDROOT
BRANCH 1 5
ATOM      5  CA  THR D   3       6.609   2.453  -2.765  1.00 20.85 LIG 0.20  C 
BRANCH 5 6
ATOM      6  N   THR D   3       5.771   2.598  -3.949  1.00 20.16 LIG-0.34  N 
ATOM      7 H    THR D   3       6.201   2.813  -4.662  1.00 20.16 LIG 0.16  HD
ATOM      8  C   ARG D   2       4.456   2.410  -3.906  1.00 20.73 LIG 0.24  C 
ATOM      9 O    ARG D   2       3.845   2.154  -2.866  1.00 19.88 LIG-0.27  OA
BRANCH 8 10
ATOM     10  CA  ARG D   2       3.715   2.554  -5.231  1.00 21.07 LIG 0.18  C 
BRANCH 10 11
ATOM     11  CB  ARG D   2       2.207   2.356  -5.028  1.00 18.72 LIG 0.04  C 
BRANCH 11 12
ATOM     12  CG  ARG D   2       1.810   0.918  -4.680  1.00 17.25 LIG 0.02  C 
BRANCH 12 13
ATOM     13  CD  ARG D   2       0.342   0.817  -4.271  1.00 15.57 LIG 0.14  C 
BRANCH 13 14
ATOM     14  NE  ARG D   2      -0.181   2.082  -3.765  1.00 16.78 LIG-0.23  N 
ATOM     15 HE   ARG D   2      -0.840   2.442  -4.184  1.00 16.78 LIG 0.18  HD
ATOM     16  CZ  ARG D   2       0.296   2.714  -2.696  1.00 18.57 LIG 0.67  C 
ATOM     17  NH2 ARG D   2      -0.241   3.864  -2.307  1.00 17.94 LIG-0.23  N 
ATOM     18  NH1 ARG D   2       1.308   2.195  -2.011  1.00 16.85 LIG-0.23  N 
ATOM     19 1HH2 ARG D   2      -0.900   4.201  -2.746  1.00 17.94 LIG 0.17  HD
ATOM     20 2HH2 ARG D   2       0.068   4.271  -1.616  1.00 17.94 LIG 0.17  HD
ATOM     21 2HH1 ARG D   2       1.615   2.605  -1.320  1.00 16.85 LIG 0.17  HD
ATOM     22 1HH1 ARG D   2       1.656   1.449  -2.258  1.00 16.85 LIG 0.17  HD
ENDBRANCH 13 14
ENDBRANCH 12 13
ENDBRANCH 11 12
ENDBRANCH 10 11
BRANCH 10 23
ATOM     23  N   ARG D   2       4.234   1.637  -6.246  1.00 21.51 LIG-0.35  N 
ATOM     24  C   ALA D   1       5.359   1.904  -6.903  1.00 21.30 LIG 0.24  C 
ATOM     25 O    ALA D   1       6.052   2.887  -6.656  1.00 21.16 LIG-0.27  OA
ATOM     26 H    ARG D   2       3.756   0.933  -6.370  1.00 21.51 LIG 0.16  HD
BRANCH 24 27
ATOM     27  CA  ALA D   1       5.776   0.916  -7.992  1.00 21.78 LIG 0.17  C 
ATOM     28  CB  ALA D   1       5.115   1.274  -9.313  1.00 21.47 LIG 0.04  C 
BRANCH 27 29
ATOM     29  N   ALA D   1       5.482  -0.471  -7.636  1.00 22.15 LIG-0.35  N 
ATOM     30 H    ALA D   1       4.729  -0.754  -7.941  1.00 22.15 LIG 0.16  HD
ATOM     31  C   ACE D   0       6.301  -1.227  -6.910  1.00 22.99 LIG 0.21  C 
ATOM     32 O    ACE D   0       7.164  -0.789  -6.147  1.00 24.10 LIG-0.27  OA
ATOM     33  CH3 ACE D   0       5.796  -2.637  -6.822  1.00 21.14 LIG 0.12  C 
ENDBRANCH 27 29
ENDBRANCH 24 27
ENDBRANCH 10 23
ENDBRANCH 8 10
ENDBRANCH 5 6
BRANCH 5 34
ATOM     34  CB  THR D   3       8.072   2.173  -3.156  1.00 19.16 LIG 0.15  C 
ATOM     35  CG2 THR D   3       8.176   0.836  -3.870  1.00 17.08 LIG 0.04  C 
BRANCH 34 36
ATOM     36 OG1  THR D   3       8.546   3.209  -4.027  1.00 20.38 LIG-0.39  OA
ATOM     37 HG1  THR D   3       9.383   3.173  -4.076  1.00 20.38 LIG 0.21  HD
ENDBRANCH 34 36
ENDBRANCH 5 34
ENDBRANCH 1 5
BRANCH 3 38
ATOM     38  CA  GLU D   4       5.526   4.685   0.137  1.00 28.82 LIG 0.18  C 
BRANCH 38 39
ATOM     39  CB  GLU D   4       4.983   5.955  -0.524  1.00 31.32 LIG 0.04  C 
BRANCH 39 40
ATOM     40  CG  GLU D   4       5.162   7.221   0.299  1.00 34.96 LIG 0.12  C 
BRANCH 40 41
ATOM     41  CD  GLU D   4       4.532   8.434  -0.357  1.00 38.68 LIG 0.17  C 
ATOM     42 OE2  GLU D   4       5.151   9.518  -0.325  1.00 39.24 LIG-0.65  OA
ATOM     43 OE1  GLU D   4       3.415   8.305  -0.900  1.00 40.65 LIG-0.65  OA
ENDBRANCH 40 41
ENDBRANCH 39 40
ENDBRANCH 38 39
BRANCH 38 44
ATOM     44  C   GLU D   4       4.587   4.256   1.261  1.00 29.37 LIG 0.24  C 
ATOM     45  N   VAL D   5       4.244   2.971   1.290  1.00 31.15 LIG-0.35  N 
ATOM     46 H    VAL D   5       4.498   2.393   0.707  1.00 31.15 LIG 0.16  HD
ATOM     47 O    GLU D   4       4.189   5.074   2.090  1.00 28.00 LIG-0.27  OA
BRANCH 45 48
ATOM     48  CA  VAL D   5       3.389   2.429   2.343  1.00 31.02 LIG 0.18  C 
BRANCH 48 49
ATOM     49  C   VAL D   5       3.116   0.940   2.151  1.00 31.80 LIG 0.24  C 
ATOM     50  N   TYR D   6       4.172   0.176   1.883  1.00 29.63 LIG-0.35  N 
ATOM     51 H    TYR D   6       4.966   0.484   1.764  1.00 29.63 LIG 0.16  HD
ATOM     52 O    VAL D   5       1.972   0.494   2.250  1.00 32.83 LIG-0.27  OA
BRANCH 50 53
ATOM     53  CA  TYR D   6       4.069  -1.272   1.768  1.00 30.54 LIG 0.18  C 
BRANCH 53 54
ATOM     54  C   TYR D   6       3.639  -1.868   3.105  1.00 31.23 LIG 0.28  C 
ATOM     55  N   NH2 D   7       2.567  -2.653   3.080  1.00 33.55 LIG-0.11  N 
ATOM     56 O    TYR D   6       4.259  -1.610   4.137  1.00 28.81 LIG-0.27  OA
ENDBRANCH 53 54
BRANCH 53 57
ATOM     57  CB  TYR D   6       5.408  -1.866   1.319  1.00 30.33 LIG 0.07  C 
BRANCH 57 58
ATOM     58  CG  TYR D   6       6.110  -2.723   2.356  1.00 31.81 LIG-0.06  A 
ATOM     59  CD1 TYR D   6       5.796  -4.068   2.506  1.00 31.47 LIG 0.01  A 
ATOM     60  CE1 TYR D   6       6.442  -4.851   3.444  1.00 32.87 LIG 0.04  A 
ATOM     61  CZ  TYR D   6       7.421  -4.297   4.239  1.00 33.71 LIG 0.07  A 
ATOM     62  CE2 TYR D   6       7.758  -2.966   4.104  1.00 32.90 LIG 0.04  A 
ATOM     63  CD2 TYR D   6       7.107  -2.189   3.162  1.00 31.58 LIG 0.01  A 
BRANCH 61 64
ATOM     64 OH   TYR D   6       8.066  -5.074   5.174  1.00 34.88 LIG-0.36  OA
ATOM     65 HH   TYR D   6       8.211  -4.619   5.865  1.00 34.88 LIG 0.22  HD
ENDBRANCH 61 64
ENDBRANCH 57 58
ENDBRANCH 53 57
ENDBRANCH 50 53
ENDBRANCH 48 49
BRANCH 48 66
ATOM     66  CB  VAL D   5       2.029   3.152   2.406  1.00 31.19 LIG 0.01  C 
ATOM     67  CG1 VAL D   5       1.258   2.934   1.108  1.00 32.10 LIG 0.01  C 
ATOM     68  CG2 VAL D   5       1.223   2.674   3.594  1.00 30.34 LIG 0.01  C 
ENDBRANCH 48 66
ENDBRANCH 45 48
ENDBRANCH 38 44
ENDBRANCH 3 38
TORSDOF 25
ENDMDL
MODEL 19
USER: ADFR SOLUTION from run 138
USER: SCORE 19.529595 LL:  -5.841 LR: -15.050 RR:   0.000 FEB:  -7.593
USER: RMSD 5.880332
USER: SEED 137
USER: STATUS searching
USER: GENES 27
USER: genes 0 Translation |==|  0.56976 0.37438 0.64859
USER: genes 1 Rotation |==|  0.67197 0.47955 0.51367 0.96885
USER: genes 2 Torsion [N]-C--CA-[N] |==|  0.04769
USER: genes 3 Torsion [C]-CA--N-[C] |==|  0.70577
USER: genes 4 Torsion [N]-C--CA-[N] |==|  0.10778
USER: genes 5 Torsion [C]-CA--CB-[CG] |==|  0.21995
USER: genes 6 Torsion [CA]-CB--CG-[CD] |==|  0.43790
USER: genes 7 Torsion [CB]-CG--CD-[NE] |==|  0.61364
USER: genes 8 Torsion [CG]-CD--NE-[HE] |==|  0.77594
USER: genes 9 Torsion [C]-CA--N-[C] |==|  0.14717
USER: genes 10 Torsion [N]-C--CA-[N] |==|  0.17088
USER: genes 11 Torsion [C]-CA--N-[C] |==|  0.61046
USER: genes 12 Torsion [C]-CA--CB-[CG2] |==|  0.35449
USER: genes 13 Torsion [CA]-CB--OG1-[HG1] |==|  0.77052
USER: genes 14 Torsion [C]-N--CA-[CB] |==|  0.53454
USER: genes 15 Torsion [N]-CA--CB-[CG] |==|  0.02101
USER: genes 16 Torsion [CA]-CB--CG-[CD] |==|  0.19210
USER: genes 17 Torsion [CB]-CG--CD-[OE2] |==|  0.56904
USER: genes 18 Torsion [N]-CA--C-[N] |==|  0.40572
USER: genes 19 Torsion [C]-N--CA-[CB] |==|  0.79355
USER: genes 20 Torsion [N]-CA--C-[N] |==|  0.23333
USER: genes 21 Torsion [C]-N--CA-[C] |==|  0.78288
USER: genes 22 Torsion [N]-CA--C-[N] |==|  0.98455
USER: genes 23 Torsion [N]-CA--CB-[CG] |==|  0.85846
USER: genes 24 Torsion [CA]-CB--CG-[CD1] |==|  0.70768
USER: genes 25 Torsion [CE1]-CZ--OH-[HH] |==|  0.19413
USER: genes 26 Torsion [N]-CA--CB-[CG1] |==|  0.54329
ROOT
ATOM      1  C   THR D   3       5.619   0.976  -1.728  1.00 23.43 LIG 0.24  C 
ATOM      2 O    THR D   3       6.008  -0.181  -1.884  1.00 24.39 LIG-0.27  OA
ATOM      3  N   GLU D   4       5.632   1.883  -2.702  1.00 25.01 LIG-0.35  N 
ATOM      4 H    GLU D   4       5.338   2.686  -2.608  1.00 25.01 LIG 0.16  HD
ENDROOT
BRANCH 1 5
ATOM      5  CA  THR D   3       5.090   1.443  -0.370  1.00 20.85 LIG 0.20  C 
BRANCH 5 6
ATOM      6  N   THR D   3       4.323   2.679  -0.464  1.00 20.16 LIG-0.34  N 
ATOM      7 H    THR D   3       3.540   2.584  -0.807  1.00 20.16 LIG 0.16  HD
ATOM      8  C   ARG D   2       4.812   3.843  -0.047  1.00 20.73 LIG 0.24  C 
ATOM      9 O    ARG D   2       5.955   3.974   0.394  1.00 19.88 LIG-0.27  OA
BRANCH 8 10
ATOM     10  CA  ARG D   2       3.879   5.043  -0.168  1.00 21.07 LIG 0.18  C 
BRANCH 10 11
ATOM     11  CB  ARG D   2       4.377   6.202   0.707  1.00 18.72 LIG 0.04  C 
BRANCH 11 12
ATOM     12  CG  ARG D   2       5.528   6.999   0.087  1.00 17.25 LIG 0.02  C 
BRANCH 12 13
ATOM     13  CD  ARG D   2       5.627   8.405   0.675  1.00 15.57 LIG 0.14  C 
BRANCH 13 14
ATOM     14  NE  ARG D   2       5.917   9.412  -0.341  1.00 16.78 LIG-0.23  N 
ATOM     15 HE   ARG D   2       6.734   9.503  -0.595  1.00 16.78 LIG 0.18  HD
ATOM     16  CZ  ARG D   2       5.000  10.198  -0.898  1.00 18.57 LIG 0.67  C 
ATOM     17  NH2 ARG D   2       5.355  11.089  -1.815  1.00 17.94 LIG-0.23  N 
ATOM     18  NH1 ARG D   2       3.726  10.090  -0.544  1.00 16.85 LIG-0.23  N 
ATOM     19 1HH2 ARG D   2       6.180  11.159  -2.051  1.00 17.94 LIG 0.17  HD
ATOM     20 2HH2 ARG D   2       4.761  11.596  -2.175  1.00 17.94 LIG 0.17  HD
ATOM     21 2HH1 ARG D   2       3.134  10.598  -0.906  1.00 16.85 LIG 0.17  HD
ATOM     22 1HH1 ARG D   2       3.491   9.512   0.047  1.00 16.85 LIG 0.17  HD
ENDBRANCH 13 14
ENDBRANCH 12 13
ENDBRANCH 11 12
ENDBRANCH 10 11
BRANCH 10 23
ATOM     23  N   ARG D   2       2.497   4.692   0.161  1.00 21.51 LIG-0.35  N 
ATOM     24  C   ALA D   1       2.195   4.088   1.306  1.00 21.30 LIG 0.24  C 
ATOM     25 O    ALA D   1       3.034   3.852   2.171  1.00 21.16 LIG-0.27  OA
ATOM     26 H    ARG D   2       1.920   4.907  -0.440  1.00 21.51 LIG 0.16  HD
BRANCH 24 27
ATOM     27  CA  ALA D   1       0.732   3.701   1.521  1.00 21.78 LIG 0.17  C 
ATOM     28  CB  ALA D   1       0.530   3.147   2.922  1.00 21.47 LIG 0.04  C 
BRANCH 27 29
ATOM     29  N   ALA D   1       0.249   2.749   0.522  1.00 22.15 LIG-0.35  N 
ATOM     30 H    ALA D   1       0.825   2.144   0.317  1.00 22.15 LIG 0.16  HD
ATOM     31  C   ACE D   0      -0.964   2.811  -0.019  1.00 22.99 LIG 0.21  C 
ATOM     32 O    ACE D   0      -1.659   3.828  -0.063  1.00 24.10 LIG-0.27  OA
ATOM     33  CH3 ACE D   0      -1.218   1.629  -0.906  1.00 21.14 LIG 0.12  C 
ENDBRANCH 27 29
ENDBRANCH 24 27
ENDBRANCH 10 23
ENDBRANCH 8 10
ENDBRANCH 5 6
BRANCH 5 34
ATOM     34  CB  THR D   3       4.255   0.324   0.280  1.00 19.16 LIG 0.15  C 
ATOM     35  CG2 THR D   3       4.752   0.052   1.689  1.00 17.08 LIG 0.04  C 
BRANCH 34 36
ATOM     36 OG1  THR D   3       2.878   0.719   0.335  1.00 20.38 LIG-0.39  OA
ATOM     37 HG1  THR D   3       2.753   1.205   1.009  1.00 20.38 LIG 0.21  HD
ENDBRANCH 34 36
ENDBRANCH 5 34
ENDBRANCH 1 5
BRANCH 3 38
ATOM     38  CA  GLU D   4       6.155   1.590  -4.034  1.00 28.82 LIG 0.18  C 
BRANCH 38 39
ATOM     39  CB  GLU D   4       6.328   2.881  -4.840  1.00 31.32 LIG 0.04  C 
BRANCH 39 40
ATOM     40  CG  GLU D   4       6.103   4.156  -4.043  1.00 34.96 LIG 0.12  C 
BRANCH 40 41
ATOM     41  CD  GLU D   4       7.191   4.400  -3.017  1.00 38.68 LIG 0.17  C 
ATOM     42 OE2  GLU D   4       6.922   5.096  -2.015  1.00 39.24 LIG-0.65  OA
ATOM     43 OE1  GLU D   4       8.318   3.899  -3.213  1.00 40.65 LIG-0.65  OA
ENDBRANCH 40 41
ENDBRANCH 39 40
ENDBRANCH 38 39
BRANCH 38 44
ATOM     44  C   GLU D   4       7.498   0.873  -3.930  1.00 29.37 LIG 0.24  C 
ATOM     45  N   VAL D   5       7.762  -0.032  -4.869  1.00 31.15 LIG-0.35  N 
ATOM     46 H    VAL D   5       7.215  -0.245  -5.498  1.00 31.15 LIG 0.16  HD
ATOM     47 O    GLU D   4       8.283   1.143  -3.021  1.00 28.00 LIG-0.27  OA
BRANCH 45 48
ATOM     48  CA  VAL D   5       9.033  -0.750  -4.906  1.00 31.02 LIG 0.18  C 
BRANCH 48 49
ATOM     49  C   VAL D   5       9.427  -1.290  -3.534  1.00 31.80 LIG 0.24  C 
ATOM     50  N   TYR D   6       8.898  -2.460  -3.186  1.00 29.63 LIG-0.35  N 
ATOM     51 H    TYR D   6       8.320  -2.883  -3.663  1.00 29.63 LIG 0.16  HD
ATOM     52 O    VAL D   5      10.200  -0.661  -2.811  1.00 32.83 LIG-0.27  OA
BRANCH 50 53
ATOM     53  CA  TYR D   6       9.260  -3.134  -1.947  1.00 30.54 LIG 0.18  C 
BRANCH 53 54
ATOM     54  C   TYR D   6      10.611  -3.822  -2.108  1.00 31.23 LIG 0.28  C 
ATOM     55  N   NH2 D   7      11.144  -3.792  -3.325  1.00 33.55 LIG-0.11  N 
ATOM     56 O    TYR D   6      11.152  -4.379  -1.152  1.00 28.81 LIG-0.27  OA
ENDBRANCH 53 54
BRANCH 53 57
ATOM     57  CB  TYR D   6       8.180  -4.151  -1.560  1.00 30.33 LIG 0.07  C 
BRANCH 57 58
ATOM     58  CG  TYR D   6       6.764  -3.607  -1.544  1.00 31.81 LIG-0.06  A 
ATOM     59  CD1 TYR D   6       6.112  -3.343  -0.346  1.00 31.47 LIG 0.01  A 
ATOM     60  CE1 TYR D   6       4.825  -2.838  -0.331  1.00 32.87 LIG 0.04  A 
ATOM     61  CZ  TYR D   6       4.178  -2.581  -1.520  1.00 33.71 LIG 0.07  A 
ATOM     62  CE2 TYR D   6       4.806  -2.827  -2.722  1.00 32.90 LIG 0.04  A 
ATOM     63  CD2 TYR D   6       6.095  -3.331  -2.729  1.00 31.58 LIG 0.01  A 
BRANCH 61 64
ATOM     64 OH   TYR D   6       2.896  -2.079  -1.507  1.00 34.88 LIG-0.36  OA
ATOM     65 HH   TYR D   6       2.909  -1.285  -1.230  1.00 34.88 LIG 0.22  HD
ENDBRANCH 61 64
ENDBRANCH 57 58
ENDBRANCH 53 57
ENDBRANCH 50 53
ENDBRANCH 48 49
BRANCH 48 66
ATOM     66  CB  VAL D   5      10.184   0.146  -5.406  1.00 31.19 LIG 0.01  C 
ATOM     67  CG1 VAL D   5      11.384  -0.710  -5.797  1.00 32.10 LIG 0.01  C 
ATOM     68  CG2 VAL D   5       9.731   0.998  -6.571  1.00 30.34 LIG 0.01  C 
ENDBRANCH 48 66
ENDBRANCH 45 48
ENDBRANCH 38 44
ENDBRANCH 3 38
TORSDOF 25
ENDMDL
MODEL 20
USER: ADFR SOLUTION from run 49
USER: SCORE 19.307202 LL:  -5.936 LR: -15.034 RR:   0.000 FEB:  -7.577
USER: RMSD 6.615174
USER: SEED 48
USER: STATUS no improvement in best in 5 clusters for 5 generations
USER: GENES 27
USER: genes 0 Translation |==|  0.67163 0.42234 0.53034
USER: genes 1 Rotation |==|  0.71215 0.35169 0.08906 0.61885
USER: genes 2 Torsion [N]-C--CA-[N] |==|  0.45000
USER: genes 3 Torsion [C]-CA--N-[C] |==|  0.78888
USER: genes 4 Torsion [N]-C--CA-[N] |==|  0.11712
USER: genes 5 Torsion [C]-CA--CB-[CG] |==|  0.46799
USER: genes 6 Torsion [CA]-CB--CG-[CD] |==|  0.49413
USER: genes 7 Torsion [CB]-CG--CD-[NE] |==|  0.21958
USER: genes 8 Torsion [CG]-CD--NE-[HE] |==|  0.74265
USER: genes 9 Torsion [C]-CA--N-[C] |==|  0.16949
USER: genes 10 Torsion [N]-C--CA-[N] |==|  0.91751
USER: genes 11 Torsion [C]-CA--N-[C] |==|  0.81873
USER: genes 12 Torsion [C]-CA--CB-[CG2] |==|  0.23700
USER: genes 13 Torsion [CA]-CB--OG1-[HG1] |==|  0.98134
USER: genes 14 Torsion [C]-N--CA-[CB] |==|  0.53215
USER: genes 15 Torsion [N]-CA--CB-[CG] |==|  0.69242
USER: genes 16 Torsion [CA]-CB--CG-[CD] |==|  0.70410
USER: genes 17 Torsion [CB]-CG--CD-[OE2] |==|  0.56879
USER: genes 18 Torsion [N]-CA--C-[N] |==|  0.27917
USER: genes 19 Torsion [C]-N--CA-[CB] |==|  0.80359
USER: genes 20 Torsion [N]-CA--C-[N] |==|  0.05555
USER: genes 21 Torsion [C]-N--CA-[C] |==|  0.15173
USER: genes 22 Torsion [N]-CA--C-[N] |==|  0.11025
USER: genes 23 Torsion [N]-CA--CB-[CG] |==|  0.78273
USER: genes 24 Torsion [CA]-CB--CG-[CD1] |==|  0.56600
USER: genes 25 Torsion [CE1]-CZ--OH-[HH] |==|  0.73112
USER: genes 26 Torsion [N]-CA--CB-[CG1] |==|  0.55831
ROOT
ATOM      1  C   THR D   3       7.606   2.091  -4.655  1.00 23.43 LIG 0.24  C 
ATOM      2 O    THR D   3       6.773   2.764  -5.263  1.00 24.39 LIG-0.27  OA
ATOM      3  N   GLU D   4       8.758   1.704  -5.194  1.00 25.01 LIG-0.35  N 
ATOM      4 H    GLU D   4       9.357   1.257  -4.768  1.00 25.01 LIG 0.16  HD
ENDROOT
BRANCH 1 5
ATOM      5  CA  THR D   3       7.348   1.653  -3.211  1.00 20.85 LIG 0.20  C 
BRANCH 5 6
ATOM      6  N   THR D   3       6.303   2.439  -2.566  1.00 20.16 LIG-0.34  N 
ATOM      7 H    THR D   3       5.548   2.033  -2.495  1.00 20.16 LIG 0.16  HD
ATOM      8  C   ARG D   2       6.521   3.677  -2.134  1.00 20.73 LIG 0.24  C 
ATOM      9 O    ARG D   2       7.593   4.267  -2.290  1.00 19.88 LIG-0.27  OA
BRANCH 8 10
ATOM     10  CA  ARG D   2       5.347   4.361  -1.441  1.00 21.07 LIG 0.18  C 
BRANCH 10 11
ATOM     11  CB  ARG D   2       5.818   5.621  -0.703  1.00 18.72 LIG 0.04  C 
BRANCH 11 12
ATOM     12  CG  ARG D   2       4.677   6.519  -0.215  1.00 17.25 LIG 0.02  C 
BRANCH 12 13
ATOM     13  CD  ARG D   2       5.197   7.731   0.556  1.00 15.57 LIG 0.14  C 
BRANCH 13 14
ATOM     14  NE  ARG D   2       5.689   8.782  -0.329  1.00 16.78 LIG-0.23  N 
ATOM     15 HE   ARG D   2       6.526   8.782  -0.526  1.00 16.78 LIG 0.18  HD
ATOM     16  CZ  ARG D   2       4.926   9.739  -0.849  1.00 18.57 LIG 0.67  C 
ATOM     17  NH2 ARG D   2       5.460  10.658  -1.644  1.00 17.94 LIG-0.23  N 
ATOM     18  NH1 ARG D   2       3.627   9.777  -0.579  1.00 16.85 LIG-0.23  N 
ATOM     19 1HH2 ARG D   2       6.301  10.634  -1.825  1.00 17.94 LIG 0.17  HD
ATOM     20 2HH2 ARG D   2       4.966  11.276  -1.980  1.00 17.94 LIG 0.17  HD
ATOM     21 2HH1 ARG D   2       3.136  10.397  -0.917  1.00 16.85 LIG 0.17  HD
ATOM     22 1HH1 ARG D   2       3.277   9.182  -0.067  1.00 16.85 LIG 0.17  HD
ENDBRANCH 13 14
ENDBRANCH 12 13
ENDBRANCH 11 12
ENDBRANCH 10 11
BRANCH 10 23
ATOM     23  N   ARG D   2       4.648   3.451  -0.533  1.00 21.51 LIG-0.35  N 
ATOM     24  C   ALA D   1       5.271   2.899   0.503  1.00 21.30 LIG 0.24  C 
ATOM     25 O    ALA D   1       6.435   3.165   0.794  1.00 21.16 LIG-0.27  OA
ATOM     26 H    ARG D   2       3.822   3.314  -0.730  1.00 21.51 LIG 0.16  HD
BRANCH 24 27
ATOM     27  CA  ALA D   1       4.469   1.908   1.347  1.00 21.78 LIG 0.17  C 
ATOM     28  CB  ALA D   1       4.714   0.486   0.870  1.00 21.47 LIG 0.04  C 
BRANCH 27 29
ATOM     29  N   ALA D   1       3.038   2.204   1.354  1.00 22.15 LIG-0.35  N 
ATOM     30 H    ALA D   1       2.559   1.597   0.977  1.00 22.15 LIG 0.16  HD
ATOM     31  C   ACE D   0       2.523   3.307   1.890  1.00 22.99 LIG 0.21  C 
ATOM     32 O    ACE D   0       3.152   4.350   2.081  1.00 24.10 LIG-0.27  OA
ATOM     33  CH3 ACE D   0       1.024   3.268   1.863  1.00 21.14 LIG 0.12  C 
ENDBRANCH 27 29
ENDBRANCH 24 27
ENDBRANCH 10 23
ENDBRANCH 8 10
ENDBRANCH 5 6
BRANCH 5 34
ATOM     34  CB  THR D   3       7.011   0.151  -3.172  1.00 19.16 LIG 0.15  C 
ATOM     35  CG2 THR D   3       8.288  -0.670  -3.121  1.00 17.08 LIG 0.04  C 
BRANCH 34 36
ATOM     36 OG1  THR D   3       6.221  -0.137  -2.011  1.00 20.38 LIG-0.39  OA
ATOM     37 HG1  THR D   3       6.171   0.549  -1.529  1.00 20.38 LIG 0.21  HD
ENDBRANCH 34 36
ENDBRANCH 5 34
ENDBRANCH 1 5
BRANCH 3 38
ATOM     38  CA  GLU D   4       9.114   2.010  -6.577  1.00 28.82 LIG 0.18  C 
BRANCH 38 39
ATOM     39  CB  GLU D   4      10.347   1.207  -7.005  1.00 31.32 LIG 0.04  C 
BRANCH 39 40
ATOM     40  CG  GLU D   4      11.601   2.041  -7.216  1.00 34.96 LIG 0.12  C 
BRANCH 40 41
ATOM     41  CD  GLU D   4      11.949   2.206  -8.683  1.00 38.68 LIG 0.17  C 
ATOM     42 OE2  GLU D   4      13.136   2.437  -8.992  1.00 39.24 LIG-0.65  OA
ATOM     43 OE1  GLU D   4      11.033   2.109  -9.527  1.00 40.65 LIG-0.65  OA
ENDBRANCH 40 41
ENDBRANCH 39 40
ENDBRANCH 38 39
BRANCH 38 44
ATOM     44  C   GLU D   4       7.950   1.685  -7.508  1.00 29.37 LIG 0.24  C 
ATOM     45  N   VAL D   5       7.204   2.712  -7.906  1.00 31.15 LIG-0.35  N 
ATOM     46 H    VAL D   5       7.327   3.523  -7.649  1.00 31.15 LIG 0.16  HD
ATOM     47 O    GLU D   4       7.739   0.526  -7.866  1.00 28.00 LIG-0.27  OA
BRANCH 45 48
ATOM     48  CA  VAL D   5       6.090   2.537  -8.835  1.00 31.02 LIG 0.18  C 
BRANCH 48 49
ATOM     49  C   VAL D   5       5.149   1.419  -8.397  1.00 31.80 LIG 0.24  C 
ATOM     50  N   TYR D   6       5.206   1.067  -7.115  1.00 29.63 LIG-0.35  N 
ATOM     51 H    TYR D   6       5.771   1.395  -6.555  1.00 29.63 LIG 0.16  HD
ATOM     52 O    VAL D   5       4.382   0.892  -9.204  1.00 32.83 LIG-0.27  OA
BRANCH 50 53
ATOM     53  CA  TYR D   6       4.299   0.081  -6.543  1.00 30.54 LIG 0.18  C 
BRANCH 53 54
ATOM     54  C   TYR D   6       4.368  -1.213  -7.346  1.00 31.23 LIG 0.28  C 
ATOM     55  N   NH2 D   7       5.575  -1.583  -7.760  1.00 33.55 LIG-0.11  N 
ATOM     56 O    TYR D   6       3.347  -1.855  -7.594  1.00 28.81 LIG-0.27  OA
ENDBRANCH 53 54
BRANCH 53 57
ATOM     57  CB  TYR D   6       2.867   0.626  -6.521  1.00 30.33 LIG 0.07  C 
BRANCH 57 58
ATOM     58  CG  TYR D   6       2.572   1.608  -5.402  1.00 31.81 LIG-0.06  A 
ATOM     59  CD1 TYR D   6       1.274   1.807  -4.948  1.00 31.47 LIG 0.01  A 
ATOM     60  CE1 TYR D   6       1.005   2.693  -3.922  1.00 32.87 LIG 0.04  A 
ATOM     61  CZ  TYR D   6       2.039   3.386  -3.330  1.00 33.71 LIG 0.07  A 
ATOM     62  CE2 TYR D   6       3.337   3.200  -3.756  1.00 32.90 LIG 0.04  A 
ATOM     63  CD2 TYR D   6       3.597   2.310  -4.783  1.00 31.58 LIG 0.01  A 
BRANCH 61 64
ATOM     64 OH   TYR D   6       1.773   4.270  -2.308  1.00 34.88 LIG-0.36  OA
ATOM     65 HH   TYR D   6       1.723   5.049  -2.618  1.00 34.88 LIG 0.22  HD
ENDBRANCH 61 64
ENDBRANCH 57 58
ENDBRANCH 53 57
ENDBRANCH 50 53
ENDBRANCH 48 49
BRANCH 48 66
ATOM     66  CB  VAL D   5       6.579   2.208 -10.260  1.00 31.19 LIG 0.01  C 
ATOM     67  CG1 VAL D   5       5.491   2.538 -11.277  1.00 32.10 LIG 0.01  C 
ATOM     68  CG2 VAL D   5       7.854   2.959 -10.575  1.00 30.34 LIG 0.01  C 
ENDBRANCH 48 66
ENDBRANCH 45 48
ENDBRANCH 38 44
ENDBRANCH 3 38
TORSDOF 25
ENDMDL
MODEL 21
USER: ADFR SOLUTION from run 138
USER: SCORE 18.711172 LL:  -5.730 LR: -14.915 RR:   0.000 FEB:  -7.458
USER: RMSD 3.723501
USER: SEED 137
USER: STATUS searching
USER: GENES 27
USER: genes 0 Translation |==|  0.56142 0.37145 0.64063
USER: genes 1 Rotation |==|  0.69320 0.48286 0.47395 0.96011
USER: genes 2 Torsion [N]-C--CA-[N] |==|  0.06784
USER: genes 3 Torsion [C]-CA--N-[C] |==|  0.71111
USER: genes 4 Torsion [N]-C--CA-[N] |==|  0.09836
USER: genes 5 Torsion [C]-CA--CB-[CG] |==|  0.23782
USER: genes 6 Torsion [CA]-CB--CG-[CD] |==|  0.39682
USER: genes 7 Torsion [CB]-CG--CD-[NE] |==|  0.58574
USER: genes 8 Torsion [CG]-CD--NE-[HE] |==|  0.80781
USER: genes 9 Torsion [C]-CA--N-[C] |==|  0.14906
USER: genes 10 Torsion [N]-C--CA-[N] |==|  0.16301
USER: genes 11 Torsion [C]-CA--N-[C] |==|  0.60713
USER: genes 12 Torsion [C]-CA--CB-[CG2] |==|  0.35583
USER: genes 13 Torsion [CA]-CB--OG1-[HG1] |==|  0.76948
USER: genes 14 Torsion [C]-N--CA-[CB] |==|  0.57377
USER: genes 15 Torsion [N]-CA--CB-[CG] |==|  0.94925
USER: genes 16 Torsion [CA]-CB--CG-[CD] |==|  0.21837
USER: genes 17 Torsion [CB]-CG--CD-[OE2] |==|  0.01588
USER: genes 18 Torsion [N]-CA--C-[N] |==|  0.84696
USER: genes 19 Torsion [C]-N--CA-[CB] |==|  0.88220
USER: genes 20 Torsion [N]-CA--C-[N] |==|  0.88740
USER: genes 21 Torsion [C]-N--CA-[C] |==|  0.78691
USER: genes 22 Torsion [N]-CA--C-[N] |==|  0.92913
USER: genes 23 Torsion [N]-CA--CB-[CG] |==|  0.20617
USER: genes 24 Torsion [CA]-CB--CG-[CD1] |==|  0.79449
USER: genes 25 Torsion [CE1]-CZ--OH-[HH] |==|  0.19358
USER: genes 26 Torsion [N]-CA--CB-[CG1] |==|  0.44740
ROOT
ATOM      1  C   THR D   3       5.457   0.908  -1.925  1.00 23.43 LIG 0.24  C 
ATOM      2 O    THR D   3       5.666  -0.269  -2.216  1.00 24.39 LIG-0.27  OA
ATOM      3  N   GLU D   4       5.540   1.899  -2.809  1.00 25.01 LIG-0.35  N 
ATOM      4 H    GLU D   4       5.370   2.721  -2.620  1.00 25.01 LIG 0.16  HD
ENDROOT
BRANCH 1 5
ATOM      5  CA  THR D   3       5.083   1.302  -0.494  1.00 20.85 LIG 0.20  C 
BRANCH 5 6
ATOM      6  N   THR D   3       4.345   2.557  -0.434  1.00 20.16 LIG-0.34  N 
ATOM      7 H    THR D   3       3.521   2.495  -0.673  1.00 20.16 LIG 0.16  HD
ATOM      8  C   ARG D   2       4.916   3.690  -0.038  1.00 20.73 LIG 0.24  C 
ATOM      9 O    ARG D   2       6.111   3.776   0.253  1.00 19.88 LIG-0.27  OA
BRANCH 8 10
ATOM     10  CA  ARG D   2       4.009   4.914   0.016  1.00 21.07 LIG 0.18  C 
BRANCH 10 11
ATOM     11  CB  ARG D   2       4.610   5.989   0.932  1.00 18.72 LIG 0.04  C 
BRANCH 11 12
ATOM     12  CG  ARG D   2       5.615   6.911   0.234  1.00 17.25 LIG 0.02  C 
BRANCH 12 13
ATOM     13  CD  ARG D   2       5.507   8.351   0.733  1.00 15.57 LIG 0.14  C 
BRANCH 13 14
ATOM     14  NE  ARG D   2       5.852   9.323  -0.300  1.00 16.78 LIG-0.23  N 
ATOM     15 HE   ARG D   2       6.673   9.368  -0.551  1.00 16.78 LIG 0.18  HD
ATOM     16  CZ  ARG D   2       4.978  10.142  -0.879  1.00 18.57 LIG 0.67  C 
ATOM     17  NH2 ARG D   2       5.382  10.997  -1.810  1.00 17.94 LIG-0.23  N 
ATOM     18  NH1 ARG D   2       3.698  10.104  -0.531  1.00 16.85 LIG-0.23  N 
ATOM     19 1HH2 ARG D   2       6.210  11.021  -2.041  1.00 17.94 LIG 0.17  HD
ATOM     20 2HH2 ARG D   2       4.816  11.525  -2.183  1.00 17.94 LIG 0.17  HD
ATOM     21 2HH1 ARG D   2       3.134  10.634  -0.906  1.00 16.85 LIG 0.17  HD
ATOM     22 1HH1 ARG D   2       3.432   9.549   0.070  1.00 16.85 LIG 0.17  HD
ENDBRANCH 13 14
ENDBRANCH 12 13
ENDBRANCH 11 12
ENDBRANCH 10 11
BRANCH 10 23
ATOM     23  N   ARG D   2       2.651   4.566   0.434  1.00 21.51 LIG-0.35  N 
ATOM     24  C   ALA D   1       2.430   3.891   1.558  1.00 21.30 LIG 0.24  C 
ATOM     25 O    ALA D   1       3.331   3.580   2.332  1.00 21.16 LIG-0.27  OA
ATOM     26 H    ARG D   2       2.032   4.833  -0.100  1.00 21.51 LIG 0.16  HD
BRANCH 24 27
ATOM     27  CA  ALA D   1       0.980   3.516   1.867  1.00 21.78 LIG 0.17  C 
ATOM     28  CB  ALA D   1       0.891   2.808   3.209  1.00 21.47 LIG 0.04  C 
BRANCH 27 29
ATOM     29  N   ALA D   1       0.375   2.698   0.818  1.00 22.15 LIG-0.35  N 
ATOM     30 H    ALA D   1       0.912   2.118   0.480  1.00 22.15 LIG 0.16  HD
ATOM     31  C   ACE D   0      -0.888   2.835   0.422  1.00 22.99 LIG 0.21  C 
ATOM     32 O    ACE D   0      -1.562   3.856   0.578  1.00 24.10 LIG-0.27  OA
ATOM     33  CH3 ACE D   0      -1.259   1.773  -0.569  1.00 21.14 LIG 0.12  C 
ENDBRANCH 27 29
ENDBRANCH 24 27
ENDBRANCH 10 23
ENDBRANCH 8 10
ENDBRANCH 5 6
BRANCH 5 34
ATOM     34  CB  THR D   3       4.289   0.162   0.172  1.00 19.16 LIG 0.15  C 
ATOM     35  CG2 THR D   3       4.913  -0.198   1.509  1.00 17.08 LIG 0.04  C 
BRANCH 34 36
ATOM     36 OG1  THR D   3       2.933   0.579   0.384  1.00 20.38 LIG-0.39  OA
ATOM     37 HG1  THR D   3       2.885   1.023   1.095  1.00 20.38 LIG 0.21  HD
ENDBRANCH 34 36
ENDBRANCH 5 34
ENDBRANCH 1 5
BRANCH 3 38
ATOM     38  CA  GLU D   4       5.933   1.675  -4.197  1.00 28.82 LIG 0.18  C 
BRANCH 38 39
ATOM     39  CB  GLU D   4       6.569   2.938  -4.787  1.00 31.32 LIG 0.04  C 
BRANCH 39 40
ATOM     40  CG  GLU D   4       6.267   4.214  -4.017  1.00 34.96 LIG 0.12  C 
BRANCH 40 41
ATOM     41  CD  GLU D   4       7.117   4.355  -2.770  1.00 38.68 LIG 0.17  C 
ATOM     42 OE2  GLU D   4       8.016   3.514  -2.562  1.00 39.24 LIG-0.65  OA
ATOM     43 OE1  GLU D   4       6.883   5.305  -1.993  1.00 40.65 LIG-0.65  OA
ENDBRANCH 40 41
ENDBRANCH 39 40
ENDBRANCH 38 39
BRANCH 38 44
ATOM     44  C   GLU D   4       6.925   0.518  -4.288  1.00 29.37 LIG 0.24  C 
ATOM     45  N   VAL D   5       8.020   0.615  -3.538  1.00 31.15 LIG-0.35  N 
ATOM     46 H    VAL D   5       8.202   1.292  -3.040  1.00 31.15 LIG 0.16  HD
ATOM     47 O    GLU D   4       6.695  -0.447  -5.016  1.00 28.00 LIG-0.27  OA
BRANCH 45 48
ATOM     48  CA  VAL D   5       9.020  -0.448  -3.502  1.00 31.02 LIG 0.18  C 
BRANCH 48 49
ATOM     49  C   VAL D   5       9.933  -0.418  -4.724  1.00 31.80 LIG 0.24  C 
ATOM     50  N   TYR D   6       9.349  -0.160  -5.891  1.00 29.63 LIG-0.35  N 
ATOM     51 H    TYR D   6       8.500  -0.066  -5.989  1.00 29.63 LIG 0.16  HD
ATOM     52 O    VAL D   5      11.143  -0.619  -4.608  1.00 32.83 LIG-0.27  OA
BRANCH 50 53
ATOM     53  CA  TYR D   6      10.114  -0.009  -7.122  1.00 30.54 LIG 0.18  C 
BRANCH 53 54
ATOM     54  C   TYR D   6      10.786   1.359  -7.149  1.00 31.23 LIG 0.28  C 
ATOM     55  N   NH2 D   7      10.203   2.314  -6.433  1.00 33.55 LIG-0.11  N 
ATOM     56 O    TYR D   6      11.804   1.546  -7.816  1.00 28.81 LIG-0.27  OA
ENDBRANCH 53 54
BRANCH 53 57
ATOM     57  CB  TYR D   6       9.200  -0.186  -8.339  1.00 30.33 LIG 0.07  C 
BRANCH 57 58
ATOM     58  CG  TYR D   6       8.273   0.982  -8.620  1.00 31.81 LIG-0.06  A 
ATOM     59  CD1 TYR D   6       7.159   1.220  -7.825  1.00 31.47 LIG 0.01  A 
ATOM     60  CE1 TYR D   6       6.320   2.289  -8.075  1.00 32.87 LIG 0.04  A 
ATOM     61  CZ  TYR D   6       6.594   3.143  -9.121  1.00 33.71 LIG 0.07  A 
ATOM     62  CE2 TYR D   6       7.699   2.934  -9.920  1.00 32.90 LIG 0.04  A 
ATOM     63  CD2 TYR D   6       8.534   1.862  -9.662  1.00 31.58 LIG 0.01  A 
BRANCH 61 64
ATOM     64 OH   TYR D   6       5.759   4.209  -9.372  1.00 34.88 LIG-0.36  OA
ATOM     65 HH   TYR D   6       5.838   4.776  -8.757  1.00 34.88 LIG 0.22  HD
ENDBRANCH 61 64
ENDBRANCH 57 58
ENDBRANCH 53 57
ENDBRANCH 50 53
ENDBRANCH 48 49
BRANCH 48 66
ATOM     66  CB  VAL D   5       8.371  -1.844  -3.434  1.00 31.19 LIG 0.01  C 
ATOM     67  CG1 VAL D   5       9.373  -2.911  -3.863  1.00 32.10 LIG 0.01  C 
ATOM     68  CG2 VAL D   5       7.850  -2.126  -2.042  1.00 30.34 LIG 0.01  C 
ENDBRANCH 48 66
ENDBRANCH 45 48
ENDBRANCH 38 44
ENDBRANCH 3 38
TORSDOF 25
ENDMDL
MODEL 22
USER: ADFR SOLUTION from run 26
USER: SCORE 18.791767 LL:  -6.304 LR: -14.900 RR:   0.000 FEB:  -7.442
USER: RMSD 6.642510
USER: SEED 25
USER: STATUS no improvement in best in 5 clusters for 5 generations
USER: GENES 27
USER: genes 0 Translation |==|  0.57692 0.56063 0.66687
USER: genes 1 Rotation |==|  0.42105 0.64439 0.76459 0.89103
USER: genes 2 Torsion [N]-C--CA-[N] |==|  0.13981
USER: genes 3 Torsion [C]-CA--N-[C] |==|  0.14510
USER: genes 4 Torsion [N]-C--CA-[N] |==|  0.41134
USER: genes 5 Torsion [C]-CA--CB-[CG] |==|  0.39851
USER: genes 6 Torsion [CA]-CB--CG-[CD] |==|  0.88407
USER: genes 7 Torsion [CB]-CG--CD-[NE] |==|  0.29282
USER: genes 8 Torsion [CG]-CD--NE-[HE] |==|  0.03058
USER: genes 9 Torsion [C]-CA--N-[C] |==|  0.57911
USER: genes 10 Torsion [N]-C--CA-[N] |==|  0.15677
USER: genes 11 Torsion [C]-CA--N-[C] |==|  0.66666
USER: genes 12 Torsion [C]-CA--CB-[CG2] |==|  0.27277
USER: genes 13 Torsion [CA]-CB--OG1-[HG1] |==|  0.69438
USER: genes 14 Torsion [C]-N--CA-[CB] |==|  0.19287
USER: genes 15 Torsion [N]-CA--CB-[CG] |==|  0.52523
USER: genes 16 Torsion [CA]-CB--CG-[CD] |==|  0.62978
USER: genes 17 Torsion [CB]-CG--CD-[OE2] |==|  0.66731
USER: genes 18 Torsion [N]-CA--C-[N] |==|  0.46287
USER: genes 19 Torsion [C]-N--CA-[CB] |==|  0.52596
USER: genes 20 Torsion [N]-CA--C-[N] |==|  0.36932
USER: genes 21 Torsion [C]-N--CA-[C] |==|  0.67148
USER: genes 22 Torsion [N]-CA--C-[N] |==|  0.38088
USER: genes 23 Torsion [N]-CA--CB-[CG] |==|  0.87701
USER: genes 24 Torsion [CA]-CB--CG-[CD1] |==|  0.81660
USER: genes 25 Torsion [CE1]-CZ--OH-[HH] |==|  0.50174
USER: genes 26 Torsion [N]-CA--CB-[CG1] |==|  0.67465
ROOT
ATOM      1  C   THR D   3       5.759   5.307  -1.276  1.00 23.43 LIG 0.24  C 
ATOM      2 O    THR D   3       6.957   5.502  -1.073  1.00 24.39 LIG-0.27  OA
ATOM      3  N   GLU D   4       5.306   4.555  -2.275  1.00 25.01 LIG-0.35  N 
ATOM      4 H    GLU D   4       4.472   4.392  -2.409  1.00 25.01 LIG 0.16  HD
ENDROOT
BRANCH 1 5
ATOM      5  CA  THR D   3       4.702   5.939  -0.367  1.00 20.85 LIG 0.20  C 
BRANCH 5 6
ATOM      6  N   THR D   3       3.725   4.969   0.113  1.00 20.16 LIG-0.34  N 
ATOM      7 H    THR D   3       2.906   5.196  -0.022  1.00 20.16 LIG 0.16  HD
ATOM      8  C   ARG D   2       4.091   3.836   0.704  1.00 20.73 LIG 0.24  C 
ATOM      9 O    ARG D   2       5.266   3.547   0.938  1.00 19.88 LIG-0.27  OA
BRANCH 8 10
ATOM     10  CA  ARG D   2       2.960   2.899   1.113  1.00 21.07 LIG 0.18  C 
BRANCH 10 11
ATOM     11  CB  ARG D   2       2.450   3.251   2.518  1.00 18.72 LIG 0.04  C 
BRANCH 11 12
ATOM     12  CG  ARG D   2       0.937   3.084   2.690  1.00 17.25 LIG 0.02  C 
BRANCH 12 13
ATOM     13  CD  ARG D   2       0.167   3.599   1.476  1.00 15.57 LIG 0.14  C 
BRANCH 13 14
ATOM     14  NE  ARG D   2      -0.353   2.515   0.648  1.00 16.78 LIG-0.23  N 
ATOM     15 HE   ARG D   2      -0.321   1.716   0.965  1.00 16.78 LIG 0.18  HD
ATOM     16  CZ  ARG D   2      -0.873   2.683  -0.565  1.00 18.57 LIG 0.67  C 
ATOM     17  NH2 ARG D   2      -1.321   1.637  -1.248  1.00 17.94 LIG-0.23  N 
ATOM     18  NH1 ARG D   2      -0.950   3.897  -1.094  1.00 16.85 LIG-0.23  N 
ATOM     19 1HH2 ARG D   2      -1.276   0.848  -0.906  1.00 17.94 LIG 0.17  HD
ATOM     20 2HH2 ARG D   2      -1.657   1.747  -2.031  1.00 17.94 LIG 0.17  HD
ATOM     21 2HH1 ARG D   2      -1.287   4.003  -1.878  1.00 16.85 LIG 0.17  HD
ATOM     22 1HH1 ARG D   2      -0.664   4.577  -0.653  1.00 16.85 LIG 0.17  HD
ENDBRANCH 13 14
ENDBRANCH 12 13
ENDBRANCH 11 12
ENDBRANCH 10 11
BRANCH 10 23
ATOM     23  N   ARG D   2       3.364   1.495   1.038  1.00 21.51 LIG-0.35  N 
ATOM     24  C   ALA D   1       2.476   0.535   0.798  1.00 21.30 LIG 0.24  C 
ATOM     25 O    ALA D   1       1.294   0.771   0.563  1.00 21.16 LIG-0.27  OA
ATOM     26 H    ARG D   2       4.204   1.357   1.161  1.00 21.51 LIG 0.16  HD
BRANCH 24 27
ATOM     27  CA  ALA D   1       2.990  -0.905   0.810  1.00 21.78 LIG 0.17  C 
ATOM     28  CB  ALA D   1       1.858  -1.874   0.511  1.00 21.47 LIG 0.04  C 
BRANCH 27 29
ATOM     29  N   ALA D   1       3.644  -1.257   2.069  1.00 22.15 LIG-0.35  N 
ATOM     30 H    ALA D   1       3.129  -1.190   2.756  1.00 22.15 LIG 0.16  HD
ATOM     31  C   ACE D   0       4.913  -1.646   2.149  1.00 22.99 LIG 0.21  C 
ATOM     32 O    ACE D   0       5.775  -1.398   1.303  1.00 24.10 LIG-0.27  OA
ATOM     33  CH3 ACE D   0       5.260  -2.067   3.546  1.00 21.14 LIG 0.12  C 
ENDBRANCH 27 29
ENDBRANCH 24 27
ENDBRANCH 10 23
ENDBRANCH 8 10
ENDBRANCH 5 6
BRANCH 5 34
ATOM     34  CB  THR D   3       5.387   6.658   0.810  1.00 19.16 LIG 0.15  C 
ATOM     35  CG2 THR D   3       5.494   8.146   0.522  1.00 17.08 LIG 0.04  C 
BRANCH 34 36
ATOM     36 OG1  THR D   3       4.620   6.466   2.006  1.00 20.38 LIG-0.39  OA
ATOM     37 HG1  THR D   3       4.261   7.192   2.229  1.00 20.38 LIG 0.21  HD
ENDBRANCH 34 36
ENDBRANCH 5 34
ENDBRANCH 1 5
BRANCH 3 38
ATOM     38  CA  GLU D   4       6.199   3.930  -3.248  1.00 28.82 LIG 0.18  C 
BRANCH 38 39
ATOM     39  CB  GLU D   4       7.013   2.812  -2.591  1.00 31.32 LIG 0.04  C 
BRANCH 39 40
ATOM     40  CG  GLU D   4       8.124   2.245  -3.461  1.00 34.96 LIG 0.12  C 
BRANCH 40 41
ATOM     41  CD  GLU D   4       8.142   0.729  -3.466  1.00 38.68 LIG 0.17  C 
ATOM     42 OE2  GLU D   4       9.166   0.144  -3.056  1.00 39.24 LIG-0.65  OA
ATOM     43 OE1  GLU D   4       7.134   0.123  -3.885  1.00 40.65 LIG-0.65  OA
ENDBRANCH 40 41
ENDBRANCH 39 40
ENDBRANCH 38 39
BRANCH 38 44
ATOM     44  C   GLU D   4       5.396   3.356  -4.413  1.00 29.37 LIG 0.24  C 
ATOM     45  N   VAL D   5       6.087   3.006  -5.494  1.00 31.15 LIG-0.35  N 
ATOM     46 H    VAL D   5       6.937   3.111  -5.576  1.00 31.15 LIG 0.16  HD
ATOM     47 O    GLU D   4       4.175   3.226  -4.326  1.00 28.00 LIG-0.27  OA
BRANCH 45 48
ATOM     48  CA  VAL D   5       5.439   2.402  -6.655  1.00 31.02 LIG 0.18  C 
BRANCH 48 49
ATOM     49  C   VAL D   5       4.535   1.236  -6.265  1.00 31.80 LIG 0.24  C 
ATOM     50  N   TYR D   6       3.321   1.223  -6.807  1.00 29.63 LIG-0.35  N 
ATOM     51 H    TYR D   6       3.015   1.853  -7.307  1.00 29.63 LIG 0.16  HD
ATOM     52 O    VAL D   5       4.936   0.363  -5.494  1.00 32.83 LIG-0.27  OA
BRANCH 50 53
ATOM     53  CA  TYR D   6       2.391   0.123  -6.594  1.00 30.54 LIG 0.18  C 
BRANCH 53 54
ATOM     54  C   TYR D   6       2.061  -0.540  -7.927  1.00 31.23 LIG 0.28  C 
ATOM     55  N   NH2 D   7       2.033  -1.869  -7.931  1.00 33.55 LIG-0.11  N 
ATOM     56 O    TYR D   6       1.848   0.139  -8.932  1.00 28.81 LIG-0.27  OA
ENDBRANCH 53 54
BRANCH 53 57
ATOM     57  CB  TYR D   6       1.114   0.629  -5.914  1.00 30.33 LIG 0.07  C 
BRANCH 57 58
ATOM     58  CG  TYR D   6       1.340   1.588  -4.760  1.00 31.81 LIG-0.06  A 
ATOM     59  CD1 TYR D   6       1.961   1.168  -3.590  1.00 31.47 LIG 0.01  A 
ATOM     60  CE1 TYR D   6       2.176   2.044  -2.543  1.00 32.87 LIG 0.04  A 
ATOM     61  CZ  TYR D   6       1.780   3.359  -2.659  1.00 33.71 LIG 0.07  A 
ATOM     62  CE2 TYR D   6       1.170   3.803  -3.814  1.00 32.90 LIG 0.04  A 
ATOM     63  CD2 TYR D   6       0.960   2.920  -4.858  1.00 31.58 LIG 0.01  A 
BRANCH 61 64
ATOM     64 OH   TYR D   6       1.993   4.233  -1.617  1.00 34.88 LIG-0.36  OA
ATOM     65 HH   TYR D   6       1.696   4.991  -1.823  1.00 34.88 LIG 0.22  HD
ENDBRANCH 61 64
ENDBRANCH 57 58
ENDBRANCH 53 57
ENDBRANCH 50 53
ENDBRANCH 48 49
BRANCH 48 66
ATOM     66  CB  VAL D   5       6.468   1.877  -7.677  1.00 31.19 LIG 0.01  C 
ATOM     67  CG1 VAL D   5       6.326   2.628  -8.997  1.00 32.10 LIG 0.01  C 
ATOM     68  CG2 VAL D   5       7.874   2.006  -7.135  1.00 30.34 LIG 0.01  C 
ENDBRANCH 48 66
ENDBRANCH 45 48
ENDBRANCH 38 44
ENDBRANCH 3 38
TORSDOF 25
ENDMDL
MODEL 23
USER: ADFR SOLUTION from run 85
USER: SCORE 17.381553 LL:  -4.730 LR: -14.896 RR:   0.000 FEB:  -7.438
USER: RMSD 10.790570
USER: SEED 84
USER: STATUS no improvement in best in 6 clusters for 5 generations
USER: GENES 27
USER: genes 0 Translation |==|  0.52073 0.38330 0.46944
USER: genes 1 Rotation |==|  0.02139 0.47323 0.56216 0.62789
USER: genes 2 Torsion [N]-C--CA-[N] |==|  0.58428
USER: genes 3 Torsion [C]-CA--N-[C] |==|  0.13764
USER: genes 4 Torsion [N]-C--CA-[N] |==|  0.54218
USER: genes 5 Torsion [C]-CA--CB-[CG] |==|  0.30841
USER: genes 6 Torsion [CA]-CB--CG-[CD] |==|  0.28246
USER: genes 7 Torsion [CB]-CG--CD-[NE] |==|  0.53973
USER: genes 8 Torsion [CG]-CD--NE-[HE] |==|  0.95898
USER: genes 9 Torsion [C]-CA--N-[C] |==|  0.63729
USER: genes 10 Torsion [N]-C--CA-[N] |==|  0.96551
USER: genes 11 Torsion [C]-CA--N-[C] |==|  0.81588
USER: genes 12 Torsion [C]-CA--CB-[CG2] |==|  0.25727
USER: genes 13 Torsion [CA]-CB--OG1-[HG1] |==|  0.17035
USER: genes 14 Torsion [C]-N--CA-[CB] |==|  0.85434
USER: genes 15 Torsion [N]-CA--CB-[CG] |==|  0.31054
USER: genes 16 Torsion [CA]-CB--CG-[CD] |==|  0.34586
USER: genes 17 Torsion [CB]-CG--CD-[OE2] |==|  0.21365
USER: genes 18 Torsion [N]-CA--C-[N] |==|  0.94747
USER: genes 19 Torsion [C]-N--CA-[CB] |==|  0.53889
USER: genes 20 Torsion [N]-CA--C-[N] |==|  0.39786
USER: genes 21 Torsion [C]-N--CA-[C] |==|  0.70570
USER: genes 22 Torsion [N]-CA--C-[N] |==|  0.06449
USER: genes 23 Torsion [N]-CA--CB-[CG] |==|  0.96708
USER: genes 24 Torsion [CA]-CB--CG-[CD1] |==|  0.78198
USER: genes 25 Torsion [CE1]-CZ--OH-[HH] |==|  0.78477
USER: genes 26 Torsion [N]-CA--CB-[CG1] |==|  0.28205
ROOT
ATOM      1  C   THR D   3       4.663   1.184  -6.162  1.00 23.43 LIG 0.24  C 
ATOM      2 O    THR D   3       4.795   2.405  -6.235  1.00 24.39 LIG-0.27  OA
ATOM      3  N   GLU D   4       4.961   0.486  -5.070  1.00 25.01 LIG-0.35  N 
ATOM      4 H    GLU D   4       4.847  -0.363  -5.001  1.00 25.01 LIG 0.16  HD
ENDROOT
BRANCH 1 5
ATOM      5  CA  THR D   3       4.139   0.385  -7.358  1.00 20.85 LIG 0.20  C 
BRANCH 5 6
ATOM      6  N   THR D   3       4.491   0.993  -8.635  1.00 20.16 LIG-0.34  N 
ATOM      7 H    THR D   3       3.831   1.081  -9.179  1.00 20.16 LIG 0.16  HD
ATOM      8  C   ARG D   2       5.734   1.373  -8.913  1.00 20.73 LIG 0.24  C 
ATOM      9 O    ARG D   2       6.682   1.193  -8.145  1.00 19.88 LIG-0.27  OA
BRANCH 8 10
ATOM     10  CA  ARG D   2       5.945   2.034 -10.271  1.00 21.07 LIG 0.18  C 
BRANCH 10 11
ATOM     11  CB  ARG D   2       5.127   1.315 -11.352  1.00 18.72 LIG 0.04  C 
BRANCH 11 12
ATOM     12  CG  ARG D   2       3.961   2.143 -11.903  1.00 17.25 LIG 0.02  C 
BRANCH 12 13
ATOM     13  CD  ARG D   2       4.293   2.757 -13.262  1.00 15.57 LIG 0.14  C 
BRANCH 13 14
ATOM     14  NE  ARG D   2       3.349   3.803 -13.644  1.00 16.78 LIG-0.23  N 
ATOM     15 HE   ARG D   2       2.609   3.855 -13.208  1.00 16.78 LIG 0.18  HD
ATOM     16  CZ  ARG D   2       3.559   4.680 -14.621  1.00 18.57 LIG 0.67  C 
ATOM     17  NH2 ARG D   2       2.641   5.597 -14.901  1.00 17.94 LIG-0.23  N 
ATOM     18  NH1 ARG D   2       4.688   4.644 -15.317  1.00 16.85 LIG-0.23  N 
ATOM     19 1HH2 ARG D   2       1.910   5.626 -14.449  1.00 17.94 LIG 0.17  HD
ATOM     20 2HH2 ARG D   2       2.778   6.163 -15.533  1.00 17.94 LIG 0.17  HD
ATOM     21 2HH1 ARG D   2       4.822   5.212 -15.949  1.00 16.85 LIG 0.17  HD
ATOM     22 1HH1 ARG D   2       5.286   4.053 -15.137  1.00 16.85 LIG 0.17  HD
ENDBRANCH 13 14
ENDBRANCH 12 13
ENDBRANCH 11 12
ENDBRANCH 10 11
BRANCH 10 23
ATOM     23  N   ARG D   2       7.361   2.090 -10.634  1.00 21.51 LIG-0.35  N 
ATOM     24  C   ALA D   1       7.919   3.221 -11.055  1.00 21.30 LIG 0.24  C 
ATOM     25 O    ALA D   1       7.306   4.284 -11.102  1.00 21.16 LIG-0.27  OA
ATOM     26 H    ARG D   2       7.782   1.345 -10.550  1.00 21.51 LIG 0.16  HD
BRANCH 24 27
ATOM     27  CA  ALA D   1       9.387   3.155 -11.476  1.00 21.78 LIG 0.17  C 
ATOM     28  CB  ALA D   1       9.517   3.361 -12.977  1.00 21.47 LIG 0.04  C 
BRANCH 27 29
ATOM     29  N   ALA D   1      10.031   1.905 -11.076  1.00 22.15 LIG-0.35  N 
ATOM     30 H    ALA D   1      10.261   1.408 -11.740  1.00 22.15 LIG 0.16  HD
ATOM     31  C   ACE D   0      10.243   1.567  -9.807  1.00 22.99 LIG 0.21  C 
ATOM     32 O    ACE D   0       9.617   2.023  -8.849  1.00 24.10 LIG-0.27  OA
ATOM     33  CH3 ACE D   0      11.038   0.298  -9.715  1.00 21.14 LIG 0.12  C 
ENDBRANCH 27 29
ENDBRANCH 24 27
ENDBRANCH 10 23
ENDBRANCH 8 10
ENDBRANCH 5 6
BRANCH 5 34
ATOM     34  CB  THR D   3       4.647  -1.067  -7.281  1.00 19.16 LIG 0.15  C 
ATOM     35  CG2 THR D   3       3.632  -1.938  -6.560  1.00 17.08 LIG 0.04  C 
BRANCH 34 36
ATOM     36 OG1  THR D   3       4.848  -1.579  -8.605  1.00 20.38 LIG-0.39  OA
ATOM     37 HG1  THR D   3       5.429  -1.118  -8.998  1.00 20.38 LIG 0.21  HD
ENDBRANCH 34 36
ENDBRANCH 5 34
ENDBRANCH 1 5
BRANCH 3 38
ATOM     38  CA  GLU D   4       5.516   1.112  -3.872  1.00 28.82 LIG 0.18  C 
BRANCH 38 39
ATOM     39  CB  GLU D   4       6.750   1.949  -4.225  1.00 31.32 LIG 0.04  C 
BRANCH 39 40
ATOM     40  CG  GLU D   4       6.561   3.449  -4.064  1.00 34.96 LIG 0.12  C 
BRANCH 40 41
ATOM     41  CD  GLU D   4       7.597   4.070  -3.148  1.00 38.68 LIG 0.17  C 
ATOM     42 OE2  GLU D   4       8.748   4.261  -3.592  1.00 39.24 LIG-0.65  OA
ATOM     43 OE1  GLU D   4       7.262   4.363  -1.981  1.00 40.65 LIG-0.65  OA
ENDBRANCH 40 41
ENDBRANCH 39 40
ENDBRANCH 38 39
BRANCH 38 44
ATOM     44  C   GLU D   4       4.471   2.004  -3.208  1.00 29.37 LIG 0.24  C 
ATOM     45  N   VAL D   5       3.443   2.380  -3.964  1.00 31.15 LIG-0.35  N 
ATOM     46 H    VAL D   5       3.357   2.172  -4.794  1.00 31.15 LIG 0.16  HD
ATOM     47 O    GLU D   4       4.591   2.337  -2.028  1.00 28.00 LIG-0.27  OA
BRANCH 45 48
ATOM     48  CA  VAL D   5       2.355   3.194  -3.430  1.00 31.02 LIG 0.18  C 
BRANCH 48 49
ATOM     49  C   VAL D   5       1.883   2.697  -2.066  1.00 31.80 LIG 0.24  C 
ATOM     50  N   TYR D   6       1.528   3.631  -1.189  1.00 29.63 LIG-0.35  N 
ATOM     51 H    TYR D   6       1.603   4.476  -1.333  1.00 29.63 LIG 0.16  HD
ATOM     52 O    VAL D   5       1.836   1.492  -1.820  1.00 32.83 LIG-0.27  OA
BRANCH 50 53
ATOM     53  CA  TYR D   6       0.971   3.295   0.115  1.00 30.54 LIG 0.18  C 
BRANCH 53 54
ATOM     54  C   TYR D   6      -0.527   3.581   0.128  1.00 31.23 LIG 0.28  C 
ATOM     55  N   NH2 D   7      -1.131   3.596  -1.056  1.00 33.55 LIG-0.11  N 
ATOM     56 O    TYR D   6      -1.117   3.795   1.187  1.00 28.81 LIG-0.27  OA
ENDBRANCH 53 54
BRANCH 53 57
ATOM     57  CB  TYR D   6       1.681   4.091   1.217  1.00 30.33 LIG 0.07  C 
BRANCH 57 58
ATOM     58  CG  TYR D   6       2.945   4.805   0.779  1.00 31.81 LIG-0.06  A 
ATOM     59  CD1 TYR D   6       4.142   4.115   0.627  1.00 31.47 LIG 0.01  A 
ATOM     60  CE1 TYR D   6       5.292   4.763   0.219  1.00 32.87 LIG 0.04  A 
ATOM     61  CZ  TYR D   6       5.255   6.113  -0.055  1.00 33.71 LIG 0.07  A 
ATOM     62  CE2 TYR D   6       4.078   6.819   0.079  1.00 32.90 LIG 0.04  A 
ATOM     63  CD2 TYR D   6       2.931   6.162   0.487  1.00 31.58 LIG 0.01  A 
BRANCH 61 64
ATOM     64 OH   TYR D   6       6.400   6.761  -0.462  1.00 34.88 LIG-0.36  OA
ATOM     65 HH   TYR D   6       6.895   6.899   0.203  1.00 34.88 LIG 0.22  HD
ENDBRANCH 61 64
ENDBRANCH 57 58
ENDBRANCH 53 57
ENDBRANCH 50 53
ENDBRANCH 48 49
BRANCH 48 66
ATOM     66  CB  VAL D   5       1.135   3.209  -4.372  1.00 31.19 LIG 0.01  C 
ATOM     67  CG1 VAL D   5       0.059   2.259  -3.854  1.00 32.10 LIG 0.01  C 
ATOM     68  CG2 VAL D   5       0.586   4.612  -4.516  1.00 30.34 LIG 0.01  C 
ENDBRANCH 48 66
ENDBRANCH 45 48
ENDBRANCH 38 44
ENDBRANCH 3 38
TORSDOF 25
ENDMDL
MODEL 24
USER: ADFR SOLUTION from run 49
USER: SCORE 17.641796 LL:  -5.005 LR: -14.880 RR:   0.000 FEB:  -7.423
USER: RMSD 6.240232
USER: SEED 48
USER: STATUS no improvement in best in 5 clusters for 5 generations
USER: GENES 27
USER: genes 0 Translation |==|  0.67166 0.42231 0.53039
USER: genes 1 Rotation |==|  0.71083 0.35237 0.08841 0.61979
USER: genes 2 Torsion [N]-C--CA-[N] |==|  0.45000
USER: genes 3 Torsion [C]-CA--N-[C] |==|  0.78919
USER: genes 4 Torsion [N]-C--CA-[N] |==|  0.11744
USER: genes 5 Torsion [C]-CA--CB-[CG] |==|  0.46790
USER: genes 6 Torsion [CA]-CB--CG-[CD] |==|  0.49456
USER: genes 7 Torsion [CB]-CG--CD-[NE] |==|  0.21948
USER: genes 8 Torsion [CG]-CD--NE-[HE] |==|  0.74276
USER: genes 9 Torsion [C]-CA--N-[C] |==|  0.16986
USER: genes 10 Torsion [N]-C--CA-[N] |==|  0.91759
USER: genes 11 Torsion [C]-CA--N-[C] |==|  0.81877
USER: genes 12 Torsion [C]-CA--CB-[CG2] |==|  0.23706
USER: genes 13 Torsion [CA]-CB--OG1-[HG1] |==|  0.98137
USER: genes 14 Torsion [C]-N--CA-[CB] |==|  0.53355
USER: genes 15 Torsion [N]-CA--CB-[CG] |==|  0.69230
USER: genes 16 Torsion [CA]-CB--CG-[CD] |==|  0.70408
USER: genes 17 Torsion [CB]-CG--CD-[OE2] |==|  0.56886
USER: genes 18 Torsion [N]-CA--C-[N] |==|  0.27468
USER: genes 19 Torsion [C]-N--CA-[CB] |==|  0.79707
USER: genes 20 Torsion [N]-CA--C-[N] |==|  0.67604
USER: genes 21 Torsion [C]-N--CA-[C] |==|  0.71768
USER: genes 22 Torsion [N]-CA--C-[N] |==|  0.31957
USER: genes 23 Torsion [N]-CA--CB-[CG] |==|  0.80263
USER: genes 24 Torsion [CA]-CB--CG-[CD1] |==|  0.27090
USER: genes 25 Torsion [CE1]-CZ--OH-[HH] |==|  0.65723
USER: genes 26 Torsion [N]-CA--CB-[CG1] |==|  0.56309
ROOT
ATOM      1  C   THR D   3       7.606   2.091  -4.654  1.00 23.43 LIG 0.24  C 
ATOM      2 O    THR D   3       6.768   2.762  -5.256  1.00 24.39 LIG-0.27  OA
ATOM      3  N   GLU D   4       8.756   1.706  -5.201  1.00 25.01 LIG-0.35  N 
ATOM      4 H    GLU D   4       9.358   1.260  -4.779  1.00 25.01 LIG 0.16  HD
ENDROOT
BRANCH 1 5
ATOM      5  CA  THR D   3       7.360   1.652  -3.208  1.00 20.85 LIG 0.20  C 
BRANCH 5 6
ATOM      6  N   THR D   3       6.318   2.436  -2.556  1.00 20.16 LIG-0.34  N 
ATOM      7 H    THR D   3       5.565   2.028  -2.478  1.00 20.16 LIG 0.16  HD
ATOM      8  C   ARG D   2       6.536   3.674  -2.127  1.00 20.73 LIG 0.24  C 
ATOM      9 O    ARG D   2       7.604   4.267  -2.292  1.00 19.88 LIG-0.27  OA
BRANCH 8 10
ATOM     10  CA  ARG D   2       5.366   4.356  -1.425  1.00 21.07 LIG 0.18  C 
BRANCH 10 11
ATOM     11  CB  ARG D   2       5.839   5.620  -0.694  1.00 18.72 LIG 0.04  C 
BRANCH 11 12
ATOM     12  CG  ARG D   2       4.698   6.515  -0.200  1.00 17.25 LIG 0.02  C 
BRANCH 12 13
ATOM     13  CD  ARG D   2       5.221   7.733   0.561  1.00 15.57 LIG 0.14  C 
BRANCH 13 14
ATOM     14  NE  ARG D   2       5.700   8.782  -0.334  1.00 16.78 LIG-0.23  N 
ATOM     15 HE   ARG D   2       6.535   8.784  -0.541  1.00 16.78 LIG 0.18  HD
ATOM     16  CZ  ARG D   2       4.928   9.734  -0.851  1.00 18.57 LIG 0.67  C 
ATOM     17  NH2 ARG D   2       5.451  10.650  -1.657  1.00 17.94 LIG-0.23  N 
ATOM     18  NH1 ARG D   2       3.632   9.768  -0.568  1.00 16.85 LIG-0.23  N 
ATOM     19 1HH2 ARG D   2       6.290  10.629  -1.846  1.00 17.94 LIG 0.17  HD
ATOM     20 2HH2 ARG D   2       4.951  11.265  -1.990  1.00 17.94 LIG 0.17  HD
ATOM     21 2HH1 ARG D   2       3.135  10.384  -0.904  1.00 16.85 LIG 0.17  HD
ATOM     22 1HH1 ARG D   2       3.290   9.175  -0.050  1.00 16.85 LIG 0.17  HD
ENDBRANCH 13 14
ENDBRANCH 12 13
ENDBRANCH 11 12
ENDBRANCH 10 11
BRANCH 10 23
ATOM     23  N   ARG D   2       4.678   3.446  -0.508  1.00 21.51 LIG-0.35  N 
ATOM     24  C   ALA D   1       5.313   2.901   0.525  1.00 21.30 LIG 0.24  C 
ATOM     25 O    ALA D   1       6.477   3.175   0.806  1.00 21.16 LIG-0.27  OA
ATOM     26 H    ARG D   2       3.851   3.304  -0.698  1.00 21.51 LIG 0.16  HD
BRANCH 24 27
ATOM     27  CA  ALA D   1       4.523   1.910   1.379  1.00 21.78 LIG 0.17  C 
ATOM     28  CB  ALA D   1       4.772   0.487   0.906  1.00 21.47 LIG 0.04  C 
BRANCH 27 29
ATOM     29  N   ALA D   1       3.090   2.198   1.395  1.00 22.15 LIG-0.35  N 
ATOM     30 H    ALA D   1       2.611   1.586   1.025  1.00 22.15 LIG 0.16  HD
ATOM     31  C   ACE D   0       2.572   3.300   1.930  1.00 22.99 LIG 0.21  C 
ATOM     32 O    ACE D   0       3.197   4.347   2.113  1.00 24.10 LIG-0.27  OA
ATOM     33  CH3 ACE D   0       1.073   3.253   1.915  1.00 21.14 LIG 0.12  C 
ENDBRANCH 27 29
ENDBRANCH 24 27
ENDBRANCH 10 23
ENDBRANCH 8 10
ENDBRANCH 5 6
BRANCH 5 34
ATOM     34  CB  THR D   3       7.026   0.149  -3.167  1.00 19.16 LIG 0.15  C 
ATOM     35  CG2 THR D   3       8.305  -0.670  -3.124  1.00 17.08 LIG 0.04  C 
BRANCH 34 36
ATOM     36 OG1  THR D   3       6.245  -0.140  -2.000  1.00 20.38 LIG-0.39  OA
ATOM     37 HG1  THR D   3       6.197   0.546  -1.518  1.00 20.38 LIG 0.21  HD
ENDBRANCH 34 36
ENDBRANCH 5 34
ENDBRANCH 1 5
BRANCH 3 38
ATOM     38  CA  GLU D   4       9.101   2.012  -6.587  1.00 28.82 LIG 0.18  C 
BRANCH 38 39
ATOM     39  CB  GLU D   4      10.325   1.203  -7.028  1.00 31.32 LIG 0.04  C 
BRANCH 39 40
ATOM     40  CG  GLU D   4      11.582   2.030  -7.249  1.00 34.96 LIG 0.12  C 
BRANCH 40 41
ATOM     41  CD  GLU D   4      11.917   2.195  -8.719  1.00 38.68 LIG 0.17  C 
ATOM     42 OE2  GLU D   4      13.103   2.419  -9.038  1.00 39.24 LIG-0.65  OA
ATOM     43 OE1  GLU D   4      10.993   2.106  -9.554  1.00 40.65 LIG-0.65  OA
ENDBRANCH 40 41
ENDBRANCH 39 40
ENDBRANCH 38 39
BRANCH 38 44
ATOM     44  C   GLU D   4       7.926   1.697  -7.508  1.00 29.37 LIG 0.24  C 
ATOM     45  N   VAL D   5       7.163   2.725  -7.870  1.00 31.15 LIG-0.35  N 
ATOM     46 H    VAL D   5       7.282   3.531  -7.595  1.00 31.15 LIG 0.16  HD
ATOM     47 O    GLU D   4       7.722   0.545  -7.890  1.00 28.00 LIG-0.27  OA
BRANCH 45 48
ATOM     48  CA  VAL D   5       6.038   2.560  -8.786  1.00 31.02 LIG 0.18  C 
BRANCH 48 49
ATOM     49  C   VAL D   5       5.147   1.385  -8.394  1.00 31.80 LIG 0.24  C 
ATOM     50  N   TYR D   6       5.073   0.383  -9.265  1.00 29.63 LIG-0.35  N 
ATOM     51 H    TYR D   6       5.450   0.394 -10.038  1.00 29.63 LIG 0.16  HD
ATOM     52 O    VAL D   5       4.545   1.387  -7.319  1.00 32.83 LIG-0.27  OA
BRANCH 50 53
ATOM     53  CA  TYR D   6       4.335  -0.839  -8.977  1.00 30.54 LIG 0.18  C 
BRANCH 53 54
ATOM     54  C   TYR D   6       5.304  -1.947  -8.578  1.00 31.23 LIG 0.28  C 
ATOM     55  N   NH2 D   7       5.202  -2.395  -7.331  1.00 33.55 LIG-0.11  N 
ATOM     56 O    TYR D   6       6.133  -2.377  -9.381  1.00 28.81 LIG-0.27  OA
ENDBRANCH 53 54
BRANCH 53 57
ATOM     57  CB  TYR D   6       3.507  -1.260 -10.196  1.00 30.33 LIG 0.07  C 
BRANCH 57 58
ATOM     58  CG  TYR D   6       2.312  -0.375 -10.496  1.00 31.81 LIG-0.06  A 
ATOM     59  CD1 TYR D   6       2.387   0.631 -11.452  1.00 31.47 LIG 0.01  A 
ATOM     60  CE1 TYR D   6       1.296   1.431 -11.733  1.00 32.87 LIG 0.04  A 
ATOM     61  CZ  TYR D   6       0.108   1.226 -11.065  1.00 33.71 LIG 0.07  A 
ATOM     62  CE2 TYR D   6       0.005   0.229 -10.118  1.00 32.90 LIG 0.04  A 
ATOM     63  CD2 TYR D   6       1.102  -0.568  -9.844  1.00 31.58 LIG 0.01  A 
BRANCH 61 64
ATOM     64 OH   TYR D   6      -0.980   2.022 -11.343  1.00 34.88 LIG-0.36  OA
ATOM     65 HH   TYR D   6      -1.246   2.389 -10.636  1.00 34.88 LIG 0.22  HD
ENDBRANCH 61 64
ENDBRANCH 57 58
ENDBRANCH 53 57
ENDBRANCH 50 53
ENDBRANCH 48 49
BRANCH 48 66
ATOM     66  CB  VAL D   5       6.508   2.328 -10.236  1.00 31.19 LIG 0.01  C 
ATOM     67  CG1 VAL D   5       5.403   2.714 -11.215  1.00 32.10 LIG 0.01  C 
ATOM     68  CG2 VAL D   5       7.772   3.110 -10.520  1.00 30.34 LIG 0.01  C 
ENDBRANCH 48 66
ENDBRANCH 45 48
ENDBRANCH 38 44
ENDBRANCH 3 38
TORSDOF 25
ENDMDL
MODEL 25
USER: ADFR SOLUTION from run 34
USER: SCORE 18.484920 LL:  -5.150 LR: -14.873 RR:   0.000 FEB:  -7.415
USER: RMSD 5.221259
USER: SEED 33
USER: STATUS searching
USER: GENES 27
USER: genes 0 Translation |==|  0.63599 0.49457 0.60504
USER: genes 1 Rotation |==|  0.27073 0.76040 0.79697 0.70356
USER: genes 2 Torsion [N]-C--CA-[N] |==|  0.98409
USER: genes 3 Torsion [C]-CA--N-[C] |==|  0.76763
USER: genes 4 Torsion [N]-C--CA-[N] |==|  0.01633
USER: genes 5 Torsion [C]-CA--CB-[CG] |==|  0.31786
USER: genes 6 Torsion [CA]-CB--CG-[CD] |==|  0.67466
USER: genes 7 Torsion [CB]-CG--CD-[NE] |==|  0.89545
USER: genes 8 Torsion [CG]-CD--NE-[HE] |==|  0.77571
USER: genes 9 Torsion [C]-CA--N-[C] |==|  0.77761
USER: genes 10 Torsion [N]-C--CA-[N] |==|  0.03618
USER: genes 11 Torsion [C]-CA--N-[C] |==|  0.77098
USER: genes 12 Torsion [C]-CA--CB-[CG2] |==|  0.60633
USER: genes 13 Torsion [CA]-CB--OG1-[HG1] |==|  0.82247
USER: genes 14 Torsion [C]-N--CA-[CB] |==|  0.49561
USER: genes 15 Torsion [N]-CA--CB-[CG] |==|  0.53646
USER: genes 16 Torsion [CA]-CB--CG-[CD] |==|  0.40556
USER: genes 17 Torsion [CB]-CG--CD-[OE2] |==|  0.65151
USER: genes 18 Torsion [N]-CA--C-[N] |==|  0.45644
USER: genes 19 Torsion [C]-N--CA-[CB] |==|  0.54613
USER: genes 20 Torsion [N]-CA--C-[N] |==|  0.27645
USER: genes 21 Torsion [C]-N--CA-[C] |==|  0.17778
USER: genes 22 Torsion [N]-CA--C-[N] |==|  0.09739
USER: genes 23 Torsion [N]-CA--CB-[CG] |==|  0.85521
USER: genes 24 Torsion [CA]-CB--CG-[CD1] |==|  0.36498
USER: genes 25 Torsion [CE1]-CZ--OH-[HH] |==|  0.27011
USER: genes 26 Torsion [N]-CA--CB-[CG1] |==|  0.54555
ROOT
ATOM      1  C   THR D   3       6.911   3.771  -2.806  1.00 23.43 LIG 0.24  C 
ATOM      2 O    THR D   3       7.726   4.504  -3.366  1.00 24.39 LIG-0.27  OA
ATOM      3  N   GLU D   4       7.024   2.446  -2.783  1.00 25.01 LIG-0.35  N 
ATOM      4 H    GLU D   4       6.474   1.928  -2.371  1.00 25.01 LIG 0.16  HD
ENDROOT
BRANCH 1 5
ATOM      5  CA  THR D   3       5.693   4.363  -2.092  1.00 20.85 LIG 0.20  C 
BRANCH 5 6
ATOM      6  N   THR D   3       4.775   3.339  -1.609  1.00 20.16 LIG-0.34  N 
ATOM      7 H    THR D   3       4.886   3.127  -0.782  1.00 20.16 LIG 0.16  HD
ATOM      8  C   ARG D   2       3.854   2.792  -2.396  1.00 20.73 LIG 0.24  C 
ATOM      9 O    ARG D   2       3.742   3.067  -3.593  1.00 19.88 LIG-0.27  OA
BRANCH 8 10
ATOM     10  CA  ARG D   2       2.937   1.765  -1.741  1.00 21.07 LIG 0.18  C 
BRANCH 10 11
ATOM     11  CB  ARG D   2       1.467   2.084  -2.046  1.00 18.72 LIG 0.04  C 
BRANCH 11 12
ATOM     12  CG  ARG D   2       0.768   1.029  -2.909  1.00 17.25 LIG 0.02  C 
BRANCH 12 13
ATOM     13  CD  ARG D   2       0.314   1.603  -4.250  1.00 15.57 LIG 0.14  C 
BRANCH 13 14
ATOM     14  NE  ARG D   2      -0.178   2.971  -4.129  1.00 16.78 LIG-0.23  N 
ATOM     15 HE   ARG D   2      -0.984   3.086  -3.852  1.00 16.78 LIG 0.18  HD
ATOM     16  CZ  ARG D   2       0.540   4.053  -4.420  1.00 18.57 LIG 0.67  C 
ATOM     17  NH2 ARG D   2       0.009   5.261  -4.281  1.00 17.94 LIG-0.23  N 
ATOM     18  NH1 ARG D   2       1.791   3.928  -4.844  1.00 16.85 LIG-0.23  N 
ATOM     19 1HH2 ARG D   2      -0.801   5.346  -4.003  1.00 17.94 LIG 0.17  HD
ATOM     20 2HH2 ARG D   2       0.474   5.959  -4.469  1.00 17.94 LIG 0.17  HD
ATOM     21 2HH1 ARG D   2       2.254   4.628  -5.031  1.00 16.85 LIG 0.17  HD
ATOM     22 1HH1 ARG D   2       2.139   3.147  -4.932  1.00 16.85 LIG 0.17  HD
ENDBRANCH 13 14
ENDBRANCH 12 13
ENDBRANCH 11 12
ENDBRANCH 10 11
BRANCH 10 23
ATOM     23  N   ARG D   2       3.167   1.674  -0.298  1.00 21.51 LIG-0.35  N 
ATOM     24  C   ALA D   1       4.183   0.972   0.193  1.00 21.30 LIG 0.24  C 
ATOM     25 O    ALA D   1       5.014   0.421  -0.523  1.00 21.16 LIG-0.27  OA
ATOM     26 H    ARG D   2       2.598   2.105   0.183  1.00 21.51 LIG 0.16  HD
BRANCH 24 27
ATOM     27  CA  ALA D   1       4.291   0.883   1.716  1.00 21.78 LIG 0.17  C 
ATOM     28  CB  ALA D   1       4.633  -0.536   2.140  1.00 21.47 LIG 0.04  C 
BRANCH 27 29
ATOM     29  N   ALA D   1       3.080   1.340   2.394  1.00 22.15 LIG-0.35  N 
ATOM     30 H    ALA D   1       2.551   0.700   2.623  1.00 22.15 LIG 0.16  HD
ATOM     31  C   ACE D   0       2.816   2.621   2.634  1.00 22.99 LIG 0.21  C 
ATOM     32 O    ACE D   0       3.311   3.564   2.015  1.00 24.10 LIG-0.27  OA
ATOM     33  CH3 ACE D   0       1.572   2.768   3.458  1.00 21.14 LIG 0.12  C 
ENDBRANCH 27 29
ENDBRANCH 24 27
ENDBRANCH 10 23
ENDBRANCH 8 10
ENDBRANCH 5 6
BRANCH 5 34
ATOM     34  CB  THR D   3       6.154   5.278  -0.942  1.00 19.16 LIG 0.15  C 
ATOM     35  CG2 THR D   3       5.231   5.120   0.254  1.00 17.08 LIG 0.04  C 
BRANCH 34 36
ATOM     36 OG1  THR D   3       7.490   4.929  -0.554  1.00 20.38 LIG-0.39  OA
ATOM     37 HG1  THR D   3       7.497   4.147  -0.248  1.00 20.38 LIG 0.21  HD
ENDBRANCH 34 36
ENDBRANCH 5 34
ENDBRANCH 1 5
BRANCH 3 38
ATOM     38  CA  GLU D   4       8.109   1.743  -3.463  1.00 28.82 LIG 0.18  C 
BRANCH 38 39
ATOM     39  CB  GLU D   4       8.002   0.233  -3.229  1.00 31.32 LIG 0.04  C 
BRANCH 39 40
ATOM     40  CG  GLU D   4       9.241  -0.555  -3.623  1.00 34.96 LIG 0.12  C 
BRANCH 40 41
ATOM     41  CD  GLU D   4       9.482  -1.748  -2.719  1.00 38.68 LIG 0.17  C 
ATOM     42 OE2  GLU D   4      10.593  -1.857  -2.159  1.00 39.24 LIG-0.65  OA
ATOM     43 OE1  GLU D   4       8.562  -2.580  -2.572  1.00 40.65 LIG-0.65  OA
ENDBRANCH 40 41
ENDBRANCH 39 40
ENDBRANCH 38 39
BRANCH 38 44
ATOM     44  C   GLU D   4       8.067   2.028  -4.962  1.00 29.37 LIG 0.24  C 
ATOM     45  N   VAL D   5       9.162   1.726  -5.654  1.00 31.15 LIG-0.35  N 
ATOM     46 H    VAL D   5       9.881   1.413  -5.302  1.00 31.15 LIG 0.16  HD
ATOM     47 O    GLU D   4       7.056   2.504  -5.480  1.00 28.00 LIG-0.27  OA
BRANCH 45 48
ATOM     48  CA  VAL D   5       9.228   1.908  -7.102  1.00 31.02 LIG 0.18  C 
BRANCH 48 49
ATOM     49  C   VAL D   5       7.948   1.453  -7.796  1.00 31.80 LIG 0.24  C 
ATOM     50  N   TYR D   6       7.082   2.408  -8.124  1.00 29.63 LIG-0.35  N 
ATOM     51 H    TYR D   6       7.186   3.237  -7.918  1.00 29.63 LIG 0.16  HD
ATOM     52 O    VAL D   5       7.754   0.260  -8.035  1.00 32.83 LIG-0.27  OA
BRANCH 50 53
ATOM     53  CA  TYR D   6       5.865   2.125  -8.873  1.00 30.54 LIG 0.18  C 
BRANCH 53 54
ATOM     54  C   TYR D   6       4.952   1.219  -8.053  1.00 31.23 LIG 0.28  C 
ATOM     55  N   NH2 D   7       4.958   1.414  -6.739  1.00 33.55 LIG-0.11  N 
ATOM     56 O    TYR D   6       4.267   0.354  -8.601  1.00 28.81 LIG-0.27  OA
ENDBRANCH 53 54
BRANCH 53 57
ATOM     57  CB  TYR D   6       6.208   1.471 -10.216  1.00 30.33 LIG 0.07  C 
BRANCH 57 58
ATOM     58  CG  TYR D   6       7.229   2.220 -11.051  1.00 31.81 LIG-0.06  A 
ATOM     59  CD1 TYR D   6       8.317   1.563 -11.614  1.00 31.47 LIG 0.01  A 
ATOM     60  CE1 TYR D   6       9.242   2.242 -12.383  1.00 32.87 LIG 0.04  A 
ATOM     61  CZ  TYR D   6       9.083   3.592 -12.608  1.00 33.71 LIG 0.07  A 
ATOM     62  CE2 TYR D   6       8.008   4.267 -12.069  1.00 32.90 LIG 0.04  A 
ATOM     63  CD2 TYR D   6       7.086   3.579 -11.301  1.00 31.58 LIG 0.01  A 
BRANCH 61 64
ATOM     64 OH   TYR D   6      10.004   4.272 -13.374  1.00 34.88 LIG-0.36  OA
ATOM     65 HH   TYR D   6       9.719   4.337 -14.161  1.00 34.88 LIG 0.22  HD
ENDBRANCH 61 64
ENDBRANCH 57 58
ENDBRANCH 53 57
ENDBRANCH 50 53
ENDBRANCH 48 49
BRANCH 48 66
ATOM     66  CB  VAL D   5      10.403   1.128  -7.724  1.00 31.19 LIG 0.01  C 
ATOM     67  CG1 VAL D   5      10.692   1.646  -9.130  1.00 32.10 LIG 0.01  C 
ATOM     68  CG2 VAL D   5      11.635   1.229  -6.852  1.00 30.34 LIG 0.01  C 
ENDBRANCH 48 66
ENDBRANCH 45 48
ENDBRANCH 38 44
ENDBRANCH 3 38
TORSDOF 25
ENDMDL
MODEL 26
USER: ADFR SOLUTION from run 33
USER: SCORE 17.865665 LL:  -6.125 LR: -14.866 RR:   0.000 FEB:  -7.409
USER: RMSD 8.033636
USER: SEED 32
USER: STATUS 1 or 2 clusters left
USER: GENES 27
USER: genes 0 Translation |==|  0.53057 0.41867 0.61567
USER: genes 1 Rotation |==|  0.48543 0.97119 0.57346 0.64958
USER: genes 2 Torsion [N]-C--CA-[N] |==|  0.96403
USER: genes 3 Torsion [C]-CA--N-[C] |==|  0.81704
USER: genes 4 Torsion [N]-C--CA-[N] |==|  0.65894
USER: genes 5 Torsion [C]-CA--CB-[CG] |==|  0.22740
USER: genes 6 Torsion [CA]-CB--CG-[CD] |==|  0.29605
USER: genes 7 Torsion [CB]-CG--CD-[NE] |==|  0.67980
USER: genes 8 Torsion [CG]-CD--NE-[HE] |==|  0.27922
USER: genes 9 Torsion [C]-CA--N-[C] |==|  0.18012
USER: genes 10 Torsion [N]-C--CA-[N] |==|  0.20631
USER: genes 11 Torsion [C]-CA--N-[C] |==|  0.76727
USER: genes 12 Torsion [C]-CA--CB-[CG2] |==|  0.23553
USER: genes 13 Torsion [CA]-CB--OG1-[HG1] |==|  0.83878
USER: genes 14 Torsion [C]-N--CA-[CB] |==|  0.40613
USER: genes 15 Torsion [N]-CA--CB-[CG] |==|  0.75769
USER: genes 16 Torsion [CA]-CB--CG-[CD] |==|  0.52854
USER: genes 17 Torsion [CB]-CG--CD-[OE2] |==|  0.80919
USER: genes 18 Torsion [N]-CA--C-[N] |==|  0.09090
USER: genes 19 Torsion [C]-N--CA-[CB] |==|  0.52367
USER: genes 20 Torsion [N]-CA--C-[N] |==|  0.43538
USER: genes 21 Torsion [C]-N--CA-[C] |==|  0.56234
USER: genes 22 Torsion [N]-CA--C-[N] |==|  0.44950
USER: genes 23 Torsion [N]-CA--CB-[CG] |==|  0.18556
USER: genes 24 Torsion [CA]-CB--CG-[CD1] |==|  0.33997
USER: genes 25 Torsion [CE1]-CZ--OH-[HH] |==|  0.42830
USER: genes 26 Torsion [N]-CA--CB-[CG1] |==|  0.77971
ROOT
ATOM      1  C   THR D   3       4.855   2.006  -2.543  1.00 23.43 LIG 0.24  C 
ATOM      2 O    THR D   3       5.055   1.229  -3.476  1.00 24.39 LIG-0.27  OA
ATOM      3  N   GLU D   4       4.158   1.675  -1.461  1.00 25.01 LIG-0.35  N 
ATOM      4 H    GLU D   4       4.036   2.202  -0.793  1.00 25.01 LIG 0.16  HD
ENDROOT
BRANCH 1 5
ATOM      5  CA  THR D   3       5.412   3.431  -2.584  1.00 20.85 LIG 0.20  C 
BRANCH 5 6
ATOM      6  N   THR D   3       4.832   4.289  -1.558  1.00 20.16 LIG-0.34  N 
ATOM      7 H    THR D   3       5.390   4.551  -0.959  1.00 20.16 LIG 0.16  HD
ATOM      8  C   ARG D   2       3.545   4.623  -1.568  1.00 20.73 LIG 0.24  C 
ATOM      9 O    ARG D   2       2.744   4.197  -2.403  1.00 19.88 LIG-0.27  OA
BRANCH 8 10
ATOM     10  CA  ARG D   2       3.089   5.561  -0.456  1.00 21.07 LIG 0.18  C 
BRANCH 10 11
ATOM     11  CB  ARG D   2       4.273   5.950   0.440  1.00 18.72 LIG 0.04  C 
BRANCH 11 12
ATOM     12  CG  ARG D   2       5.130   7.088  -0.124  1.00 17.25 LIG 0.02  C 
BRANCH 12 13
ATOM     13  CD  ARG D   2       4.906   8.396   0.633  1.00 15.57 LIG 0.14  C 
BRANCH 13 14
ATOM     14  NE  ARG D   2       4.308   9.428  -0.209  1.00 16.78 LIG-0.23  N 
ATOM     15 HE   ARG D   2       3.462   9.568  -0.134  1.00 16.78 LIG 0.18  HD
ATOM     16  CZ  ARG D   2       4.986  10.165  -1.083  1.00 18.57 LIG 0.67  C 
ATOM     17  NH2 ARG D   2       4.358  11.082  -1.810  1.00 17.94 LIG-0.23  N 
ATOM     18  NH1 ARG D   2       6.293   9.992  -1.230  1.00 16.85 LIG-0.23  N 
ATOM     19 1HH2 ARG D   2       3.511  11.200  -1.715  1.00 17.94 LIG 0.17  HD
ATOM     20 2HH2 ARG D   2       4.797  11.558  -2.374  1.00 17.94 LIG 0.17  HD
ATOM     21 2HH1 ARG D   2       6.730  10.470  -1.795  1.00 16.85 LIG 0.17  HD
ATOM     22 1HH1 ARG D   2       6.704   9.401  -0.759  1.00 16.85 LIG 0.17  HD
ENDBRANCH 13 14
ENDBRANCH 12 13
ENDBRANCH 11 12
ENDBRANCH 10 11
BRANCH 10 23
ATOM     23  N   ARG D   2       2.002   4.979   0.333  1.00 21.51 LIG-0.35  N 
ATOM     24  C   ALA D   1       2.194   3.887   1.067  1.00 21.30 LIG 0.24  C 
ATOM     25 O    ALA D   1       3.291   3.347   1.176  1.00 21.16 LIG-0.27  OA
ATOM     26 H    ARG D   2       1.254   5.400   0.277  1.00 21.51 LIG 0.16  HD
BRANCH 24 27
ATOM     27  CA  ALA D   1       0.976   3.320   1.797  1.00 21.78 LIG 0.17  C 
ATOM     28  CB  ALA D   1       1.414   2.385   2.912  1.00 21.47 LIG 0.04  C 
BRANCH 27 29
ATOM     29  N   ALA D   1       0.047   2.639   0.897  1.00 22.15 LIG-0.35  N 
ATOM     30 H    ALA D   1       0.159   1.787   0.865  1.00 22.15 LIG 0.16  HD
ATOM     31  C   ACE D   0      -0.885   3.275   0.191  1.00 22.99 LIG 0.21  C 
ATOM     32 O    ACE D   0      -0.845   4.472  -0.100  1.00 24.10 LIG-0.27  OA
ATOM     33  CH3 ACE D   0      -1.767   2.303  -0.534  1.00 21.14 LIG 0.12  C 
ENDBRANCH 27 29
ENDBRANCH 24 27
ENDBRANCH 10 23
ENDBRANCH 8 10
ENDBRANCH 5 6
BRANCH 5 34
ATOM     34  CB  THR D   3       6.948   3.396  -2.469  1.00 19.16 LIG 0.15  C 
ATOM     35  CG2 THR D   3       7.570   3.174  -3.838  1.00 17.08 LIG 0.04  C 
BRANCH 34 36
ATOM     36 OG1  THR D   3       7.420   4.641  -1.936  1.00 20.38 LIG-0.39  OA
ATOM     37 HG1  THR D   3       7.170   5.271  -2.431  1.00 20.38 LIG 0.21  HD
ENDBRANCH 34 36
ENDBRANCH 5 34
ENDBRANCH 1 5
BRANCH 3 38
ATOM     38  CA  GLU D   4       3.528   0.365  -1.309  1.00 28.82 LIG 0.18  C 
BRANCH 38 39
ATOM     39  CB  GLU D   4       3.545  -0.073   0.159  1.00 31.32 LIG 0.04  C 
BRANCH 39 40
ATOM     40  CG  GLU D   4       4.806  -0.808   0.583  1.00 34.96 LIG 0.12  C 
BRANCH 40 41
ATOM     41  CD  GLU D   4       4.679  -1.436   1.957  1.00 38.68 LIG 0.17  C 
ATOM     42 OE2  GLU D   4       4.614  -0.685   2.952  1.00 39.24 LIG-0.65  OA
ATOM     43 OE1  GLU D   4       4.649  -2.682   2.042  1.00 40.65 LIG-0.65  OA
ENDBRANCH 40 41
ENDBRANCH 39 40
ENDBRANCH 38 39
BRANCH 38 44
ATOM     44  C   GLU D   4       2.086   0.410  -1.808  1.00 29.37 LIG 0.24  C 
ATOM     45  N   VAL D   5       1.835   1.230  -2.824  1.00 31.15 LIG-0.35  N 
ATOM     46 H    VAL D   5       2.424   1.743  -3.185  1.00 31.15 LIG 0.16  HD
ATOM     47 O    GLU D   4       1.222  -0.296  -1.287  1.00 28.00 LIG-0.27  OA
BRANCH 45 48
ATOM     48  CA  VAL D   5       0.506   1.326  -3.422  1.00 31.02 LIG 0.18  C 
BRANCH 48 49
ATOM     49  C   VAL D   5      -0.063  -0.044  -3.778  1.00 31.80 LIG 0.24  C 
ATOM     50  N   TYR D   6      -1.388  -0.128  -3.868  1.00 29.63 LIG-0.35  N 
ATOM     51 H    TYR D   6      -1.921   0.522  -3.686  1.00 29.63 LIG 0.16  HD
ATOM     52 O    VAL D   5       0.686  -1.002  -3.974  1.00 32.83 LIG-0.27  OA
BRANCH 50 53
ATOM     53  CA  TYR D   6      -2.058  -1.351  -4.291  1.00 30.54 LIG 0.18  C 
BRANCH 53 54
ATOM     54  C   TYR D   6      -3.446  -1.021  -4.827  1.00 31.23 LIG 0.28  C 
ATOM     55  N   NH2 D   7      -4.021  -1.952  -5.581  1.00 33.55 LIG-0.11  N 
ATOM     56 O    TYR D   6      -3.979   0.060  -4.572  1.00 28.81 LIG-0.27  OA
ENDBRANCH 53 54
BRANCH 53 57
ATOM     57  CB  TYR D   6      -2.151  -2.337  -3.121  1.00 30.33 LIG 0.07  C 
BRANCH 57 58
ATOM     58  CG  TYR D   6      -3.052  -1.897  -1.982  1.00 31.81 LIG-0.06  A 
ATOM     59  CD1 TYR D   6      -4.125  -2.679  -1.574  1.00 31.47 LIG 0.01  A 
ATOM     60  CE1 TYR D   6      -4.939  -2.284  -0.529  1.00 32.87 LIG 0.04  A 
ATOM     61  CZ  TYR D   6      -4.681  -1.100   0.128  1.00 33.71 LIG 0.07  A 
ATOM     62  CE2 TYR D   6      -3.617  -0.310  -0.252  1.00 32.90 LIG 0.04  A 
ATOM     63  CD2 TYR D   6      -2.806  -0.714  -1.298  1.00 31.58 LIG 0.01  A 
BRANCH 61 64
ATOM     64 OH   TYR D   6      -5.491  -0.705   1.168  1.00 34.88 LIG-0.36  OA
ATOM     65 HH   TYR D   6      -5.058  -0.204   1.685  1.00 34.88 LIG 0.22  HD
ENDBRANCH 61 64
ENDBRANCH 57 58
ENDBRANCH 53 57
ENDBRANCH 50 53
ENDBRANCH 48 49
BRANCH 48 66
ATOM     66  CB  VAL D   5       0.515   2.179  -4.706  1.00 31.19 LIG 0.01  C 
ATOM     67  CG1 VAL D   5       0.519   3.663  -4.352  1.00 32.10 LIG 0.01  C 
ATOM     68  CG2 VAL D   5       1.706   1.831  -5.571  1.00 30.34 LIG 0.01  C 
ENDBRANCH 48 66
ENDBRANCH 45 48
ENDBRANCH 38 44
ENDBRANCH 3 38
TORSDOF 25
ENDMDL
MODEL 27
USER: ADFR SOLUTION from run 115
USER: SCORE 19.811842 LL:  -5.715 LR: -14.855 RR:   0.000 FEB:  -7.397
USER: RMSD 9.715862
USER: SEED 114
USER: STATUS searching
USER: GENES 27
USER: genes 0 Translation |==|  0.62274 0.48066 0.64708
USER: genes 1 Rotation |==|  0.95407 0.42698 0.69616 0.50354
USER: genes 2 Torsion [N]-C--CA-[N] |==|  0.04931
USER: genes 3 Torsion [C]-CA--N-[C] |==|  0.72222
USER: genes 4 Torsion [N]-C--CA-[N] |==|  0.93210
USER: genes 5 Torsion [C]-CA--CB-[CG] |==|  0.71357
USER: genes 6 Torsion [CA]-CB--CG-[CD] |==|  0.76290
USER: genes 7 Torsion [CB]-CG--CD-[NE] |==|  0.31855
USER: genes 8 Torsion [CG]-CD--NE-[HE] |==|  0.13213
USER: genes 9 Torsion [C]-CA--N-[C] |==|  0.82035
USER: genes 10 Torsion [N]-C--CA-[N] |==|  0.38009
USER: genes 11 Torsion [C]-CA--N-[C] |==|  0.78717
USER: genes 12 Torsion [C]-CA--CB-[CG2] |==|  0.81545
USER: genes 13 Torsion [CA]-CB--OG1-[HG1] |==|  0.17924
USER: genes 14 Torsion [C]-N--CA-[CB] |==|  0.22717
USER: genes 15 Torsion [N]-CA--CB-[CG] |==|  0.54392
USER: genes 16 Torsion [CA]-CB--CG-[CD] |==|  0.51194
USER: genes 17 Torsion [CB]-CG--CD-[OE2] |==|  0.61093
USER: genes 18 Torsion [N]-CA--C-[N] |==|  0.02700
USER: genes 19 Torsion [C]-N--CA-[CB] |==|  0.16212
USER: genes 20 Torsion [N]-CA--C-[N] |==|  0.12407
USER: genes 21 Torsion [C]-N--CA-[C] |==|  0.83773
USER: genes 22 Torsion [N]-CA--C-[N] |==|  0.35040
USER: genes 23 Torsion [N]-CA--CB-[CG] |==|  0.31111
USER: genes 24 Torsion [CA]-CB--CG-[CD1] |==|  0.23068
USER: genes 25 Torsion [CE1]-CZ--OH-[HH] |==|  0.64511
USER: genes 26 Torsion [N]-CA--CB-[CG1] |==|  0.19028
ROOT
ATOM      1  C   THR D   3       6.652   3.447  -1.766  1.00 23.43 LIG 0.24  C 
ATOM      2 O    THR D   3       7.583   4.250  -1.837  1.00 24.39 LIG-0.27  OA
ATOM      3  N   GLU D   4       5.654   3.570  -0.896  1.00 25.01 LIG-0.35  N 
ATOM      4 H    GLU D   4       4.987   3.029  -0.857  1.00 25.01 LIG 0.16  HD
ENDROOT
BRANCH 1 5
ATOM      5  CA  THR D   3       6.598   2.234  -2.697  1.00 20.85 LIG 0.20  C 
BRANCH 5 6
ATOM      6  N   THR D   3       5.269   1.639  -2.763  1.00 20.16 LIG-0.34  N 
ATOM      7 H    THR D   3       4.723   2.050  -3.285  1.00 20.16 LIG 0.16  HD
ATOM      8  C   ARG D   2       4.951   0.551  -2.069  1.00 20.73 LIG 0.24  C 
ATOM      9 O    ARG D   2       5.728   0.001  -1.285  1.00 19.88 LIG-0.27  OA
BRANCH 8 10
ATOM     10  CA  ARG D   2       3.538   0.017  -2.271  1.00 21.07 LIG 0.18  C 
BRANCH 10 11
ATOM     11  CB  ARG D   2       3.544  -1.167  -3.248  1.00 18.72 LIG 0.04  C 
BRANCH 11 12
ATOM     12  CG  ARG D   2       3.055  -0.813  -4.656  1.00 17.25 LIG 0.02  C 
BRANCH 12 13
ATOM     13  CD  ARG D   2       1.534  -0.893  -4.766  1.00 15.57 LIG 0.14  C 
BRANCH 13 14
ATOM     14  NE  ARG D   2       0.927   0.410  -5.021  1.00 16.78 LIG-0.23  N 
ATOM     15 HE   ARG D   2       1.269   0.898  -5.641  1.00 16.78 LIG 0.18  HD
ATOM     16  CZ  ARG D   2      -0.121   0.890  -4.357  1.00 18.57 LIG 0.67  C 
ATOM     17  NH2 ARG D   2      -0.607   2.088  -4.656  1.00 17.94 LIG-0.23  N 
ATOM     18  NH1 ARG D   2      -0.688   0.170  -3.397  1.00 16.85 LIG-0.23  N 
ATOM     19 1HH2 ARG D   2      -0.244   2.556  -5.281  1.00 17.94 LIG 0.17  HD
ATOM     20 2HH2 ARG D   2      -1.284   2.397  -4.226  1.00 17.94 LIG 0.17  HD
ATOM     21 2HH1 ARG D   2      -1.366   0.482  -2.969  1.00 16.85 LIG 0.17  HD
ATOM     22 1HH1 ARG D   2      -0.378  -0.608  -3.203  1.00 16.85 LIG 0.17  HD
ENDBRANCH 13 14
ENDBRANCH 12 13
ENDBRANCH 11 12
ENDBRANCH 10 11
BRANCH 10 23
ATOM     23  N   ARG D   2       2.620   1.064  -2.720  1.00 21.51 LIG-0.35  N 
ATOM     24  C   ALA D   1       2.329   2.103  -1.943  1.00 21.30 LIG 0.24  C 
ATOM     25 O    ALA D   1       2.853   2.276  -0.846  1.00 21.16 LIG-0.27  OA
ATOM     26 H    ARG D   2       2.300   0.945  -3.509  1.00 21.51 LIG 0.16  HD
BRANCH 24 27
ATOM     27  CA  ALA D   1       1.305   3.104  -2.479  1.00 21.78 LIG 0.17  C 
ATOM     28  CB  ALA D   1       2.007   4.314  -3.073  1.00 21.47 LIG 0.04  C 
BRANCH 27 29
ATOM     29  N   ALA D   1       0.341   3.522  -1.463  1.00 22.15 LIG-0.35  N 
ATOM     30 H    ALA D   1       0.494   4.307  -1.146  1.00 22.15 LIG 0.16  HD
ATOM     31  C   ACE D   0      -0.675   2.762  -1.064  1.00 22.99 LIG 0.21  C 
ATOM     32 O    ACE D   0      -0.719   1.536  -1.181  1.00 24.10 LIG-0.27  OA
ATOM     33  CH3 ACE D   0      -1.563   3.508  -0.113  1.00 21.14 LIG 0.12  C 
ENDBRANCH 27 29
ENDBRANCH 24 27
ENDBRANCH 10 23
ENDBRANCH 8 10
ENDBRANCH 5 6
BRANCH 5 34
ATOM     34  CB  THR D   3       7.096   2.629  -4.101  1.00 19.16 LIG 0.15  C 
ATOM     35  CG2 THR D   3       6.132   3.614  -4.739  1.00 17.08 LIG 0.04  C 
BRANCH 34 36
ATOM     36 OG1  THR D   3       8.391   3.236  -4.000  1.00 20.38 LIG-0.39  OA
ATOM     37 HG1  THR D   3       8.943   2.672  -3.714  1.00 20.38 LIG 0.21  HD
ENDBRANCH 34 36
ENDBRANCH 5 34
ENDBRANCH 1 5
BRANCH 3 38
ATOM     38  CA  GLU D   4       5.602   4.652   0.084  1.00 28.82 LIG 0.18  C 
BRANCH 38 39
ATOM     39  CB  GLU D   4       5.052   5.931  -0.554  1.00 31.32 LIG 0.04  C 
BRANCH 39 40
ATOM     40  CG  GLU D   4       5.304   7.197   0.250  1.00 34.96 LIG 0.12  C 
BRANCH 40 41
ATOM     41  CD  GLU D   4       4.653   8.418  -0.369  1.00 38.68 LIG 0.17  C 
ATOM     42 OE2  GLU D   4       5.281   9.497  -0.363  1.00 39.24 LIG-0.65  OA
ATOM     43 OE1  GLU D   4       3.509   8.300  -0.858  1.00 40.65 LIG-0.65  OA
ENDBRANCH 40 41
ENDBRANCH 39 40
ENDBRANCH 38 39
BRANCH 38 44
ATOM     44  C   GLU D   4       4.721   4.255   1.266  1.00 29.37 LIG 0.24  C 
ATOM     45  N   VAL D   5       4.332   2.984   1.315  1.00 31.15 LIG-0.35  N 
ATOM     46 H    VAL D   5       4.525   2.399   0.716  1.00 31.15 LIG 0.16  HD
ATOM     47 O    GLU D   4       4.409   5.085   2.120  1.00 28.00 LIG-0.27  OA
BRANCH 45 48
ATOM     48  CA  VAL D   5       3.526   2.472   2.421  1.00 31.02 LIG 0.18  C 
BRANCH 48 49
ATOM     49  C   VAL D   5       3.194   0.992   2.250  1.00 31.80 LIG 0.24  C 
ATOM     50  N   TYR D   6       4.194   0.203   1.867  1.00 29.63 LIG-0.35  N 
ATOM     51 H    TYR D   6       4.979   0.491   1.666  1.00 29.63 LIG 0.16  HD
ATOM     52 O    VAL D   5       2.055   0.576   2.467  1.00 32.83 LIG-0.27  OA
BRANCH 50 53
ATOM     53  CA  TYR D   6       4.040  -1.241   1.756  1.00 30.54 LIG 0.18  C 
BRANCH 53 54
ATOM     54  C   TYR D   6       3.615  -1.821   3.101  1.00 31.23 LIG 0.28  C 
ATOM     55  N   NH2 D   7       2.518  -2.572   3.096  1.00 33.55 LIG-0.11  N 
ATOM     56 O    TYR D   6       4.261  -1.582   4.122  1.00 28.81 LIG-0.27  OA
ENDBRANCH 53 54
BRANCH 53 57
ATOM     57  CB  TYR D   6       5.350  -1.880   1.283  1.00 30.33 LIG 0.07  C 
BRANCH 57 58
ATOM     58  CG  TYR D   6       6.050  -2.746   2.314  1.00 31.81 LIG-0.06  A 
ATOM     59  CD1 TYR D   6       5.677  -4.069   2.511  1.00 31.47 LIG 0.01  A 
ATOM     60  CE1 TYR D   6       6.321  -4.861   3.443  1.00 32.87 LIG 0.04  A 
ATOM     61  CZ  TYR D   6       7.357  -4.338   4.185  1.00 33.71 LIG 0.07  A 
ATOM     62  CE2 TYR D   6       7.753  -3.029   4.002  1.00 32.90 LIG 0.04  A 
ATOM     63  CD2 TYR D   6       7.104  -2.244   3.066  1.00 31.58 LIG 0.01  A 
BRANCH 61 64
ATOM     64 OH   TYR D   6       8.000  -5.124   5.114  1.00 34.88 LIG-0.36  OA
ATOM     65 HH   TYR D   6       8.015  -4.728   5.854  1.00 34.88 LIG 0.22  HD
ENDBRANCH 61 64
ENDBRANCH 57 58
ENDBRANCH 53 57
ENDBRANCH 50 53
ENDBRANCH 48 49
BRANCH 48 66
ATOM     66  CB  VAL D   5       2.196   3.238   2.564  1.00 31.19 LIG 0.01  C 
ATOM     67  CG1 VAL D   5       1.287   2.939   1.376  1.00 32.10 LIG 0.01  C 
ATOM     68  CG2 VAL D   5       1.512   2.884   3.866  1.00 30.34 LIG 0.01  C 
ENDBRANCH 48 66
ENDBRANCH 45 48
ENDBRANCH 38 44
ENDBRANCH 3 38
TORSDOF 25
ENDMDL
MODEL 28
USER: ADFR SOLUTION from run 121
USER: SCORE 17.200319 LL:  -5.671 LR: -14.852 RR:   0.000 FEB:  -7.394
USER: RMSD 3.924411
USER: SEED 120
USER: STATUS no improvement in best in 9 clusters for 5 generations
USER: GENES 27
USER: genes 0 Translation |==|  0.61916 0.48946 0.64087
USER: genes 1 Rotation |==|  0.49278 0.67535 0.91446 0.71777
USER: genes 2 Torsion [N]-C--CA-[N] |==|  0.69652
USER: genes 3 Torsion [C]-CA--N-[C] |==|  0.13393
USER: genes 4 Torsion [N]-C--CA-[N] |==|  0.72057
USER: genes 5 Torsion [C]-CA--CB-[CG] |==|  0.17254
USER: genes 6 Torsion [CA]-CB--CG-[CD] |==|  0.38060
USER: genes 7 Torsion [CB]-CG--CD-[NE] |==|  0.72949
USER: genes 8 Torsion [CG]-CD--NE-[HE] |==|  0.24708
USER: genes 9 Torsion [C]-CA--N-[C] |==|  0.15913
USER: genes 10 Torsion [N]-C--CA-[N] |==|  0.19427
USER: genes 11 Torsion [C]-CA--N-[C] |==|  0.74276
USER: genes 12 Torsion [C]-CA--CB-[CG2] |==|  0.48274
USER: genes 13 Torsion [CA]-CB--OG1-[HG1] |==|  0.06546
USER: genes 14 Torsion [C]-N--CA-[CB] |==|  0.24444
USER: genes 15 Torsion [N]-CA--CB-[CG] |==|  0.06432
USER: genes 16 Torsion [CA]-CB--CG-[CD] |==|  0.21455
USER: genes 17 Torsion [CB]-CG--CD-[OE2] |==|  0.69069
USER: genes 18 Torsion [N]-CA--C-[N] |==|  0.90246
USER: genes 19 Torsion [C]-N--CA-[CB] |==|  0.85532
USER: genes 20 Torsion [N]-CA--C-[N] |==|  0.93977
USER: genes 21 Torsion [C]-N--CA-[C] |==|  0.56447
USER: genes 22 Torsion [N]-CA--C-[N] |==|  0.43067
USER: genes 23 Torsion [N]-CA--CB-[CG] |==|  0.27217
USER: genes 24 Torsion [CA]-CB--CG-[CD1] |==|  0.32205
USER: genes 25 Torsion [CE1]-CZ--OH-[HH] |==|  0.16564
USER: genes 26 Torsion [N]-CA--CB-[CG1] |==|  0.50424
ROOT
ATOM      1  C   THR D   3       6.583   3.652  -1.919  1.00 23.43 LIG 0.24  C 
ATOM      2 O    THR D   3       7.282   4.638  -2.151  1.00 24.39 LIG-0.27  OA
ATOM      3  N   GLU D   4       6.199   2.798  -2.864  1.00 25.01 LIG-0.35  N 
ATOM      4 H    GLU D   4       5.733   2.092  -2.707  1.00 25.01 LIG 0.16  HD
ENDROOT
BRANCH 1 5
ATOM      5  CA  THR D   3       6.106   3.353  -0.496  1.00 20.85 LIG 0.20  C 
BRANCH 5 6
ATOM      6  N   THR D   3       5.099   4.300  -0.033  1.00 20.16 LIG-0.34  N 
ATOM      7 H    THR D   3       5.250   4.623   0.750  1.00 20.16 LIG 0.16  HD
ATOM      8  C   ARG D   2       4.045   4.623  -0.776  1.00 20.73 LIG 0.24  C 
ATOM      9 O    ARG D   2       3.812   4.114  -1.874  1.00 19.88 LIG-0.27  OA
BRANCH 8 10
ATOM     10  CA  ARG D   2       3.098   5.660  -0.180  1.00 21.07 LIG 0.18  C 
BRANCH 10 11
ATOM     11  CB  ARG D   2       3.832   6.528   0.852  1.00 18.72 LIG 0.04  C 
BRANCH 11 12
ATOM     12  CG  ARG D   2       4.991   7.341   0.268  1.00 17.25 LIG 0.02  C 
BRANCH 12 13
ATOM     13  CD  ARG D   2       5.010   8.771   0.805  1.00 15.57 LIG 0.14  C 
BRANCH 13 14
ATOM     14  NE  ARG D   2       4.373   9.715  -0.109  1.00 16.78 LIG-0.23  N 
ATOM     15 HE   ARG D   2       3.526   9.844  -0.028  1.00 16.78 LIG 0.18  HD
ATOM     16  CZ  ARG D   2       5.017  10.387  -1.059  1.00 18.57 LIG 0.67  C 
ATOM     17  NH2 ARG D   2       4.355  11.225  -1.847  1.00 17.94 LIG-0.23  N 
ATOM     18  NH1 ARG D   2       6.325  10.227  -1.218  1.00 16.85 LIG-0.23  N 
ATOM     19 1HH2 ARG D   2       3.508  11.335  -1.744  1.00 17.94 LIG 0.17  HD
ATOM     20 2HH2 ARG D   2       4.773  11.659  -2.460  1.00 17.94 LIG 0.17  HD
ATOM     21 2HH1 ARG D   2       6.740  10.663  -1.833  1.00 16.85 LIG 0.17  HD
ATOM     22 1HH1 ARG D   2       6.757   9.687  -0.708  1.00 16.85 LIG 0.17  HD
ENDBRANCH 13 14
ENDBRANCH 12 13
ENDBRANCH 11 12
ENDBRANCH 10 11
BRANCH 10 23
ATOM     23  N   ARG D   2       1.911   5.038   0.407  1.00 21.51 LIG-0.35  N 
ATOM     24  C   ALA D   1       2.017   4.120   1.363  1.00 21.30 LIG 0.24  C 
ATOM     25 O    ALA D   1       3.096   3.792   1.849  1.00 21.16 LIG-0.27  OA
ATOM     26 H    ARG D   2       1.164   5.315   0.082  1.00 21.51 LIG 0.16  HD
BRANCH 24 27
ATOM     27  CA  ALA D   1       0.718   3.481   1.857  1.00 21.78 LIG 0.17  C 
ATOM     28  CB  ALA D   1       0.960   2.726   3.154  1.00 21.47 LIG 0.04  C 
BRANCH 27 29
ATOM     29  N   ALA D   1       0.110   2.601   0.861  1.00 22.15 LIG-0.35  N 
ATOM     30 H    ALA D   1       0.402   1.793   0.891  1.00 22.15 LIG 0.16  HD
ATOM     31  C   ACE D   0      -0.809   3.010  -0.010  1.00 22.99 LIG 0.21  C 
ATOM     32 O    ACE D   0      -0.975   4.183  -0.352  1.00 24.10 LIG-0.27  OA
ATOM     33  CH3 ACE D   0      -1.340   1.859  -0.811  1.00 21.14 LIG 0.12  C 
ENDBRANCH 27 29
ENDBRANCH 24 27
ENDBRANCH 10 23
ENDBRANCH 8 10
ENDBRANCH 5 6
BRANCH 5 34
ATOM     34  CB  THR D   3       5.582   1.907  -0.412  1.00 19.16 LIG 0.15  C 
ATOM     35  CG2 THR D   3       5.251   1.554   1.028  1.00 17.08 LIG 0.04  C 
BRANCH 34 36
ATOM     36 OG1  THR D   3       4.400   1.774  -1.212  1.00 20.38 LIG-0.39  OA
ATOM     37 HG1  THR D   3       4.395   2.369  -1.805  1.00 20.38 LIG 0.21  HD
ENDBRANCH 34 36
ENDBRANCH 5 34
ENDBRANCH 1 5
BRANCH 3 38
ATOM     38  CA  GLU D   4       6.540   2.986  -4.271  1.00 28.82 LIG 0.18  C 
BRANCH 38 39
ATOM     39  CB  GLU D   4       7.895   2.344  -4.587  1.00 31.32 LIG 0.04  C 
BRANCH 39 40
ATOM     40  CG  GLU D   4       8.307   1.238  -3.629  1.00 34.96 LIG 0.12  C 
BRANCH 40 41
ATOM     41  CD  GLU D   4       7.581  -0.065  -3.899  1.00 38.68 LIG 0.17  C 
ATOM     42 OE2  GLU D   4       6.750  -0.470  -3.060  1.00 39.24 LIG-0.65  OA
ATOM     43 OE1  GLU D   4       7.846  -0.688  -4.948  1.00 40.65 LIG-0.65  OA
ENDBRANCH 40 41
ENDBRANCH 39 40
ENDBRANCH 38 39
BRANCH 38 44
ATOM     44  C   GLU D   4       5.467   2.369  -5.164  1.00 29.37 LIG 0.24  C 
ATOM     45  N   VAL D   5       4.892   1.255  -4.719  1.00 31.15 LIG-0.35  N 
ATOM     46 H    VAL D   5       5.110   0.863  -3.985  1.00 31.15 LIG 0.16  HD
ATOM     47 O    GLU D   4       5.160   2.901  -6.231  1.00 28.00 LIG-0.27  OA
BRANCH 45 48
ATOM     48  CA  VAL D   5       3.819   0.597  -5.459  1.00 31.02 LIG 0.18  C 
BRANCH 48 49
ATOM     49  C   VAL D   5       4.318  -0.025  -6.760  1.00 31.80 LIG 0.24  C 
ATOM     50  N   TYR D   6       5.452   0.467  -7.253  1.00 29.63 LIG-0.35  N 
ATOM     51 H    TYR D   6       5.871   1.135  -6.910  1.00 29.63 LIG 0.16  HD
ATOM     52 O    VAL D   5       3.690  -0.936  -7.301  1.00 32.83 LIG-0.27  OA
BRANCH 50 53
ATOM     53  CA  TYR D   6       6.089  -0.096  -8.435  1.00 30.54 LIG 0.18  C 
BRANCH 53 54
ATOM     54  C   TYR D   6       7.575   0.244  -8.434  1.00 31.23 LIG 0.28  C 
ATOM     55  N   NH2 D   7       8.367  -0.579  -9.113  1.00 33.55 LIG-0.11  N 
ATOM     56 O    TYR D   6       7.995   1.226  -7.820  1.00 28.81 LIG-0.27  OA
ENDBRANCH 53 54
BRANCH 53 57
ATOM     57  CB  TYR D   6       5.416   0.435  -9.706  1.00 30.33 LIG 0.07  C 
BRANCH 57 58
ATOM     58  CG  TYR D   6       6.127   1.598 -10.370  1.00 31.81 LIG-0.06  A 
ATOM     59  CD1 TYR D   6       6.668   1.475 -11.644  1.00 31.47 LIG 0.01  A 
ATOM     60  CE1 TYR D   6       7.308   2.537 -12.253  1.00 32.87 LIG 0.04  A 
ATOM     61  CZ  TYR D   6       7.405   3.745 -11.597  1.00 33.71 LIG 0.07  A 
ATOM     62  CE2 TYR D   6       6.868   3.896 -10.335  1.00 32.90 LIG 0.04  A 
ATOM     63  CD2 TYR D   6       6.228   2.828  -9.732  1.00 31.58 LIG 0.01  A 
BRANCH 61 64
ATOM     64 OH   TYR D   6       8.041   4.804 -12.202  1.00 34.88 LIG-0.36  OA
ATOM     65 HH   TYR D   6       7.652   4.990 -12.923  1.00 34.88 LIG 0.22  HD
ENDBRANCH 61 64
ENDBRANCH 57 58
ENDBRANCH 53 57
ENDBRANCH 50 53
ENDBRANCH 48 49
BRANCH 48 66
ATOM     66  CB  VAL D   5       2.682   1.576  -5.813  1.00 31.19 LIG 0.01  C 
ATOM     67  CG1 VAL D   5       1.567   0.842  -6.551  1.00 32.10 LIG 0.01  C 
ATOM     68  CG2 VAL D   5       2.148   2.249  -4.567  1.00 30.34 LIG 0.01  C 
ENDBRANCH 48 66
ENDBRANCH 45 48
ENDBRANCH 38 44
ENDBRANCH 3 38
TORSDOF 25
ENDMDL
MODEL 29
USER: ADFR SOLUTION from run 22
USER: SCORE 18.297114 LL:  -4.571 LR: -14.848 RR:   0.000 FEB:  -7.391
USER: RMSD 6.149004
USER: SEED 21
USER: STATUS 1 or 2 clusters left
USER: GENES 27
USER: genes 0 Translation |==|  0.66067 0.34237 0.56095
USER: genes 1 Rotation |==|  0.69993 0.10719 0.32886 0.66261
USER: genes 2 Torsion [N]-C--CA-[N] |==|  0.88188
USER: genes 3 Torsion [C]-CA--N-[C] |==|  0.82163
USER: genes 4 Torsion [N]-C--CA-[N] |==|  0.18893
USER: genes 5 Torsion [C]-CA--CB-[CG] |==|  0.44345
USER: genes 6 Torsion [CA]-CB--CG-[CD] |==|  0.63599
USER: genes 7 Torsion [CB]-CG--CD-[NE] |==|  0.28469
USER: genes 8 Torsion [CG]-CD--NE-[HE] |==|  0.83401
USER: genes 9 Torsion [C]-CA--N-[C] |==|  0.76689
USER: genes 10 Torsion [N]-C--CA-[N] |==|  0.90539
USER: genes 11 Torsion [C]-CA--N-[C] |==|  0.81402
USER: genes 12 Torsion [C]-CA--CB-[CG2] |==|  0.64691
USER: genes 13 Torsion [CA]-CB--OG1-[HG1] |==|  0.81012
USER: genes 14 Torsion [C]-N--CA-[CB] |==|  0.78587
USER: genes 15 Torsion [N]-CA--CB-[CG] |==|  0.55942
USER: genes 16 Torsion [CA]-CB--CG-[CD] |==|  0.18249
USER: genes 17 Torsion [CB]-CG--CD-[OE2] |==|  0.90191
USER: genes 18 Torsion [N]-CA--C-[N] |==|  0.20418
USER: genes 19 Torsion [C]-N--CA-[CB] |==|  0.78197
USER: genes 20 Torsion [N]-CA--C-[N] |==|  0.21596
USER: genes 21 Torsion [C]-N--CA-[C] |==|  0.86181
USER: genes 22 Torsion [N]-CA--C-[N] |==|  0.88949
USER: genes 23 Torsion [N]-CA--CB-[CG] |==|  0.38052
USER: genes 24 Torsion [CA]-CB--CG-[CD1] |==|  0.24658
USER: genes 25 Torsion [CE1]-CZ--OH-[HH] |==|  0.39930
USER: genes 26 Torsion [N]-CA--CB-[CG1] |==|  0.58848
ROOT
ATOM      1  C   THR D   3       7.392   0.232  -3.897  1.00 23.43 LIG 0.24  C 
ATOM      2 O    THR D   3       7.164  -0.344  -4.961  1.00 24.39 LIG-0.27  OA
ATOM      3  N   GLU D   4       8.435  -0.058  -3.125  1.00 25.01 LIG-0.35  N 
ATOM      4 H    GLU D   4       8.616   0.358  -2.394  1.00 25.01 LIG 0.16  HD
ENDROOT
BRANCH 1 5
ATOM      5  CA  THR D   3       6.460   1.339  -3.397  1.00 20.85 LIG 0.20  C 
BRANCH 5 6
ATOM      6  N   THR D   3       6.190   1.238  -1.968  1.00 20.16 LIG-0.34  N 
ATOM      7 H    THR D   3       6.484   1.900  -1.504  1.00 20.16 LIG 0.16  HD
ATOM      8  C   ARG D   2       5.541   0.201  -1.447  1.00 20.73 LIG 0.24  C 
ATOM      9 O    ARG D   2       5.170  -0.767  -2.115  1.00 19.88 LIG-0.27  OA
BRANCH 8 10
ATOM     10  CA  ARG D   2       5.293   0.253   0.056  1.00 21.07 LIG 0.18  C 
BRANCH 10 11
ATOM     11  CB  ARG D   2       4.819  -1.114   0.571  1.00 18.72 LIG 0.04  C 
BRANCH 11 12
ATOM     12  CG  ARG D   2       5.013  -1.311   2.078  1.00 17.25 LIG 0.02  C 
BRANCH 12 13
ATOM     13  CD  ARG D   2       5.692  -2.643   2.393  1.00 15.57 LIG 0.14  C 
BRANCH 13 14
ATOM     14  NE  ARG D   2       7.106  -2.482   2.717  1.00 16.78 LIG-0.23  N 
ATOM     15 HE   ARG D   2       7.618  -2.131   2.121  1.00 16.78 LIG 0.18  HD
ATOM     16  CZ  ARG D   2       7.654  -2.842   3.874  1.00 18.57 LIG 0.67  C 
ATOM     17  NH2 ARG D   2       8.953  -2.659   4.081  1.00 17.94 LIG-0.23  N 
ATOM     18  NH1 ARG D   2       6.905  -3.382   4.827  1.00 16.85 LIG-0.23  N 
ATOM     19 1HH2 ARG D   2       9.441  -2.306   3.467  1.00 17.94 LIG 0.17  HD
ATOM     20 2HH2 ARG D   2       9.305  -2.892   4.829  1.00 17.94 LIG 0.17  HD
ATOM     21 2HH1 ARG D   2       7.261  -3.613   5.574  1.00 16.85 LIG 0.17  HD
ATOM     22 1HH1 ARG D   2       6.064  -3.499   4.697  1.00 16.85 LIG 0.17  HD
ENDBRANCH 13 14
ENDBRANCH 12 13
ENDBRANCH 11 12
ENDBRANCH 10 11
BRANCH 10 23
ATOM     23  N   ARG D   2       4.343   1.307   0.414  1.00 21.51 LIG-0.35  N 
ATOM     24  C   ALA D   1       4.742   2.564   0.582  1.00 21.30 LIG 0.24  C 
ATOM     25 O    ALA D   1       5.901   2.922   0.387  1.00 21.16 LIG-0.27  OA
ATOM     26 H    ARG D   2       3.530   1.042   0.502  1.00 21.51 LIG 0.16  HD
BRANCH 24 27
ATOM     27  CA  ALA D   1       3.683   3.574   1.024  1.00 21.78 LIG 0.17  C 
ATOM     28  CB  ALA D   1       3.617   3.643   2.541  1.00 21.47 LIG 0.04  C 
BRANCH 27 29
ATOM     29  N   ALA D   1       2.362   3.284   0.470  1.00 22.15 LIG-0.35  N 
ATOM     30 H    ALA D   1       1.784   3.050   1.062  1.00 22.15 LIG 0.16  HD
ATOM     31  C   ACE D   0       2.080   3.372  -0.827  1.00 22.99 LIG 0.21  C 
ATOM     32 O    ACE D   0       2.917   3.319  -1.730  1.00 24.10 LIG-0.27  OA
ATOM     33  CH3 ACE D   0       0.618   3.145  -1.075  1.00 21.14 LIG 0.12  C 
ENDBRANCH 27 29
ENDBRANCH 24 27
ENDBRANCH 10 23
ENDBRANCH 8 10
ENDBRANCH 5 6
BRANCH 5 34
ATOM     34  CB  THR D   3       7.048   2.718  -3.751  1.00 19.16 LIG 0.15  C 
ATOM     35  CG2 THR D   3       7.126   3.587  -2.507  1.00 17.08 LIG 0.04  C 
BRANCH 34 36
ATOM     36 OG1  THR D   3       8.364   2.556  -4.295  1.00 20.38 LIG-0.39  OA
ATOM     37 HG1  THR D   3       8.885   2.287  -3.693  1.00 20.38 LIG 0.21  HD
ENDBRANCH 34 36
ENDBRANCH 5 34
ENDBRANCH 1 5
BRANCH 3 38
ATOM     38  CA  GLU D   4       9.378  -1.123  -3.455  1.00 28.82 LIG 0.18  C 
BRANCH 38 39
ATOM     39  CB  GLU D   4       8.777  -2.494  -3.129  1.00 31.32 LIG 0.04  C 
BRANCH 39 40
ATOM     40  CG  GLU D   4       9.800  -3.603  -2.943  1.00 34.96 LIG 0.12  C 
BRANCH 40 41
ATOM     41  CD  GLU D   4      10.680  -3.384  -1.729  1.00 38.68 LIG 0.17  C 
ATOM     42 OE2  GLU D   4      11.004  -2.215  -1.429  1.00 39.24 LIG-0.65  OA
ATOM     43 OE1  GLU D   4      11.053  -4.381  -1.075  1.00 40.65 LIG-0.65  OA
ENDBRANCH 40 41
ENDBRANCH 39 40
ENDBRANCH 38 39
BRANCH 38 44
ATOM     44  C   GLU D   4       9.743  -1.068  -4.936  1.00 29.37 LIG 0.24  C 
ATOM     45  N   VAL D   5      10.554  -0.082  -5.312  1.00 31.15 LIG-0.35  N 
ATOM     46 H    VAL D   5      10.851   0.524  -4.779  1.00 31.15 LIG 0.16  HD
ATOM     47 O    GLU D   4       9.305  -1.910  -5.720  1.00 28.00 LIG-0.27  OA
BRANCH 45 48
ATOM     48  CA  VAL D   5      11.013   0.049  -6.692  1.00 31.02 LIG 0.18  C 
BRANCH 48 49
ATOM     49  C   VAL D   5       9.891  -0.200  -7.696  1.00 31.80 LIG 0.24  C 
ATOM     50  N   TYR D   6       9.027   0.795  -7.875  1.00 29.63 LIG-0.35  N 
ATOM     51 H    TYR D   6       9.042   1.527  -7.423  1.00 29.63 LIG 0.16  HD
ATOM     52 O    VAL D   5       9.816  -1.271  -8.299  1.00 32.83 LIG-0.27  OA
BRANCH 50 53
ATOM     53  CA  TYR D   6       7.965   0.728  -8.869  1.00 30.54 LIG 0.18  C 
BRANCH 53 54
ATOM     54  C   TYR D   6       8.543   0.304 -10.215  1.00 31.23 LIG 0.28  C 
ATOM     55  N   NH2 D   7       9.721   0.826 -10.539  1.00 33.55 LIG-0.11  N 
ATOM     56 O    TYR D   6       7.926  -0.470 -10.949  1.00 28.81 LIG-0.27  OA
ENDBRANCH 53 54
BRANCH 53 57
ATOM     57  CB  TYR D   6       7.261   2.084  -8.988  1.00 30.33 LIG 0.07  C 
BRANCH 57 58
ATOM     58  CG  TYR D   6       6.963   2.530 -10.407  1.00 31.81 LIG-0.06  A 
ATOM     59  CD1 TYR D   6       5.776   2.175 -11.036  1.00 31.47 LIG 0.01  A 
ATOM     60  CE1 TYR D   6       5.500   2.589 -12.324  1.00 32.87 LIG 0.04  A 
ATOM     61  CZ  TYR D   6       6.408   3.376 -12.999  1.00 33.71 LIG 0.07  A 
ATOM     62  CE2 TYR D   6       7.589   3.750 -12.394  1.00 32.90 LIG 0.04  A 
ATOM     63  CD2 TYR D   6       7.858   3.332 -11.103  1.00 31.58 LIG 0.01  A 
BRANCH 61 64
ATOM     64 OH   TYR D   6       6.135   3.790 -14.283  1.00 34.88 LIG-0.36  OA
ATOM     65 HH   TYR D   6       6.429   4.569 -14.394  1.00 34.88 LIG 0.22  HD
ENDBRANCH 61 64
ENDBRANCH 57 58
ENDBRANCH 53 57
ENDBRANCH 50 53
ENDBRANCH 48 49
BRANCH 48 66
ATOM     66  CB  VAL D   5      12.156  -0.934  -7.011  1.00 31.19 LIG 0.01  C 
ATOM     67  CG1 VAL D   5      13.103  -0.323  -8.040  1.00 32.10 LIG 0.01  C 
ATOM     68  CG2 VAL D   5      12.905  -1.312  -5.752  1.00 30.34 LIG 0.01  C 
ENDBRANCH 48 66
ENDBRANCH 45 48
ENDBRANCH 38 44
ENDBRANCH 3 38
TORSDOF 25
ENDMDL
MODEL 30
USER: ADFR SOLUTION from run 105
USER: SCORE 17.297852 LL:  -5.047 LR: -14.845 RR:   0.000 FEB:  -7.387
USER: RMSD 10.700647
USER: SEED 104
USER: STATUS no improvement in best in 7 clusters for 5 generations
USER: GENES 27
USER: genes 0 Translation |==|  0.54731 0.44820 0.50341
USER: genes 1 Rotation |==|  0.10643 0.38576 0.23144 0.59964
USER: genes 2 Torsion [N]-C--CA-[N] |==|  0.35784
USER: genes 3 Torsion [C]-CA--N-[C] |==|  0.75589
USER: genes 4 Torsion [N]-C--CA-[N] |==|  0.14430
USER: genes 5 Torsion [C]-CA--CB-[CG] |==|  0.49927
USER: genes 6 Torsion [CA]-CB--CG-[CD] |==|  0.50010
USER: genes 7 Torsion [CB]-CG--CD-[NE] |==|  0.37264
USER: genes 8 Torsion [CG]-CD--NE-[HE] |==|  0.76516
USER: genes 9 Torsion [C]-CA--N-[C] |==|  0.14325
USER: genes 10 Torsion [N]-C--CA-[N] |==|  0.31761
USER: genes 11 Torsion [C]-CA--N-[C] |==|  0.59401
USER: genes 12 Torsion [C]-CA--CB-[CG2] |==|  0.25620
USER: genes 13 Torsion [CA]-CB--OG1-[HG1] |==|  0.14678
USER: genes 14 Torsion [C]-N--CA-[CB] |==|  0.52318
USER: genes 15 Torsion [N]-CA--CB-[CG] |==|  0.73070
USER: genes 16 Torsion [CA]-CB--CG-[CD] |==|  0.26907
USER: genes 17 Torsion [CB]-CG--CD-[OE2] |==|  0.12068
USER: genes 18 Torsion [N]-CA--C-[N] |==|  0.89197
USER: genes 19 Torsion [C]-N--CA-[CB] |==|  0.76802
USER: genes 20 Torsion [N]-CA--C-[N] |==|  0.23856
USER: genes 21 Torsion [C]-N--CA-[C] |==|  0.50002
USER: genes 22 Torsion [N]-CA--C-[N] |==|  0.50156
USER: genes 23 Torsion [N]-CA--CB-[CG] |==|  0.21113
USER: genes 24 Torsion [CA]-CB--CG-[CD1] |==|  0.29130
USER: genes 25 Torsion [CE1]-CZ--OH-[HH] |==|  0.40553
USER: genes 26 Torsion [N]-CA--CB-[CG1] |==|  0.49283
ROOT
ATOM      1  C   THR D   3       5.182   2.693  -5.322  1.00 23.43 LIG 0.24  C 
ATOM      2 O    THR D   3       5.169   3.910  -5.138  1.00 24.39 LIG-0.27  OA
ATOM      3  N   GLU D   4       4.198   1.890  -4.925  1.00 25.01 LIG-0.35  N 
ATOM      4 H    GLU D   4       4.187   1.043  -5.073  1.00 25.01 LIG 0.16  HD
ENDROOT
BRANCH 1 5
ATOM      5  CA  THR D   3       6.362   2.025  -6.031  1.00 20.85 LIG 0.20  C 
BRANCH 5 6
ATOM      6  N   THR D   3       6.687   2.665  -7.300  1.00 20.16 LIG-0.34  N 
ATOM      7 H    THR D   3       7.282   3.283  -7.242  1.00 20.16 LIG 0.16  HD
ATOM      8  C   ARG D   2       6.100   2.308  -8.438  1.00 20.73 LIG 0.24  C 
ATOM      9 O    ARG D   2       5.210   1.456  -8.499  1.00 19.88 LIG-0.27  OA
BRANCH 8 10
ATOM     10  CA  ARG D   2       6.571   3.035  -9.692  1.00 21.07 LIG 0.18  C 
BRANCH 10 11
ATOM     11  CB  ARG D   2       5.882   2.461 -10.938  1.00 18.72 LIG 0.04  C 
BRANCH 11 12
ATOM     12  CG  ARG D   2       6.296   3.143 -12.246  1.00 17.25 LIG 0.02  C 
BRANCH 12 13
ATOM     13  CD  ARG D   2       5.583   2.536 -13.453  1.00 15.57 LIG 0.14  C 
BRANCH 13 14
ATOM     14  NE  ARG D   2       5.053   3.554 -14.354  1.00 16.78 LIG-0.23  N 
ATOM     15 HE   ARG D   2       4.281   3.888 -14.174  1.00 16.78 LIG 0.18  HD
ATOM     16  CZ  ARG D   2       5.687   4.000 -15.435  1.00 18.57 LIG 0.67  C 
ATOM     17  NH2 ARG D   2       5.127   4.930 -16.199  1.00 17.94 LIG-0.23  N 
ATOM     18  NH1 ARG D   2       6.884   3.522 -15.750  1.00 16.85 LIG-0.23  N 
ATOM     19 1HH2 ARG D   2       4.353   5.245 -15.996  1.00 17.94 LIG 0.17  HD
ATOM     20 2HH2 ARG D   2       5.538   5.217 -16.897  1.00 17.94 LIG 0.17  HD
ATOM     21 2HH1 ARG D   2       7.292   3.812 -16.449  1.00 16.85 LIG 0.17  HD
ATOM     22 1HH1 ARG D   2       7.251   2.922 -15.256  1.00 16.85 LIG 0.17  HD
ENDBRANCH 13 14
ENDBRANCH 12 13
ENDBRANCH 11 12
ENDBRANCH 10 11
BRANCH 10 23
ATOM     23  N   ARG D   2       8.027   2.993  -9.830  1.00 21.51 LIG-0.35  N 
ATOM     24  C   ALA D   1       8.691   1.843  -9.759  1.00 21.30 LIG 0.24  C 
ATOM     25 O    ALA D   1       8.127   0.759  -9.641  1.00 21.16 LIG-0.27  OA
ATOM     26 H    ARG D   2       8.397   3.759  -9.956  1.00 21.51 LIG 0.16  HD
BRANCH 24 27
ATOM     27  CA  ALA D   1      10.216   1.917  -9.844  1.00 21.78 LIG 0.17  C 
ATOM     28  CB  ALA D   1      10.722   1.087 -11.013  1.00 21.47 LIG 0.04  C 
BRANCH 27 29
ATOM     29  N   ALA D   1      10.869   1.503  -8.604  1.00 22.15 LIG-0.35  N 
ATOM     30 H    ALA D   1      10.450   0.879  -8.185  1.00 22.15 LIG 0.16  HD
ATOM     31  C   ACE D   0      12.005   2.038  -8.163  1.00 22.99 LIG 0.21  C 
ATOM     32 O    ACE D   0      12.427   3.149  -8.490  1.00 24.10 LIG-0.27  OA
ATOM     33  CH3 ACE D   0      12.498   1.321  -6.942  1.00 21.14 LIG 0.12  C 
ENDBRANCH 27 29
ENDBRANCH 24 27
ENDBRANCH 10 23
ENDBRANCH 8 10
ENDBRANCH 5 6
BRANCH 5 34
ATOM     34  CB  THR D   3       7.587   1.998  -5.098  1.00 19.16 LIG 0.15  C 
ATOM     35  CG2 THR D   3       7.619   0.696  -4.315  1.00 17.08 LIG 0.04  C 
BRANCH 34 36
ATOM     36 OG1  THR D   3       8.788   2.109  -5.874  1.00 20.38 LIG-0.39  OA
ATOM     37 HG1  THR D   3       8.736   2.781  -6.375  1.00 20.38 LIG 0.21  HD
ENDBRANCH 34 36
ENDBRANCH 5 34
ENDBRANCH 1 5
BRANCH 3 38
ATOM     38  CA  GLU D   4       3.034   2.384  -4.194  1.00 28.82 LIG 0.18  C 
BRANCH 38 39
ATOM     39  CB  GLU D   4       2.178   1.217  -3.693  1.00 31.32 LIG 0.04  C 
BRANCH 39 40
ATOM     40  CG  GLU D   4       0.997   0.873  -4.586  1.00 34.96 LIG 0.12  C 
BRANCH 40 41
ATOM     41  CD  GLU D   4       1.298  -0.271  -5.534  1.00 38.68 LIG 0.17  C 
ATOM     42 OE2  GLU D   4       1.907  -1.268  -5.092  1.00 39.24 LIG-0.65  OA
ATOM     43 OE1  GLU D   4       0.932  -0.172  -6.724  1.00 40.65 LIG-0.65  OA
ENDBRANCH 40 41
ENDBRANCH 39 40
ENDBRANCH 38 39
BRANCH 38 44
ATOM     44  C   GLU D   4       3.476   3.235  -3.007  1.00 29.37 LIG 0.24  C 
ATOM     45  N   VAL D   5       4.548   2.813  -2.340  1.00 31.15 LIG-0.35  N 
ATOM     46 H    VAL D   5       4.974   2.090  -2.525  1.00 31.15 LIG 0.16  HD
ATOM     47 O    GLU D   4       2.862   4.259  -2.708  1.00 28.00 LIG-0.27  OA
BRANCH 45 48
ATOM     48  CA  VAL D   5       5.096   3.566  -1.215  1.00 31.02 LIG 0.18  C 
BRANCH 48 49
ATOM     49  C   VAL D   5       4.002   4.197  -0.360  1.00 31.80 LIG 0.24  C 
ATOM     50  N   TYR D   6       3.480   3.429   0.593  1.00 29.63 LIG-0.35  N 
ATOM     51 H    TYR D   6       3.689   2.602   0.707  1.00 29.63 LIG 0.16  HD
ATOM     52 O    VAL D   5       3.644   5.359  -0.557  1.00 32.83 LIG-0.27  OA
BRANCH 50 53
ATOM     53  CA  TYR D   6       2.496   3.934   1.541  1.00 30.54 LIG 0.18  C 
BRANCH 53 54
ATOM     54  C   TYR D   6       2.090   2.825   2.506  1.00 31.23 LIG 0.28  C 
ATOM     55  N   NH2 D   7       1.184   3.147   3.422  1.00 33.55 LIG-0.11  N 
ATOM     56 O    TYR D   6       2.599   1.706   2.427  1.00 28.81 LIG-0.27  OA
ENDBRANCH 53 54
BRANCH 53 57
ATOM     57  CB  TYR D   6       1.271   4.476   0.796  1.00 30.33 LIG 0.07  C 
BRANCH 57 58
ATOM     58  CG  TYR D   6       0.333   3.417   0.249  1.00 31.81 LIG-0.06  A 
ATOM     59  CD1 TYR D   6      -0.884   3.150   0.864  1.00 31.47 LIG 0.01  A 
ATOM     60  CE1 TYR D   6      -1.743   2.192   0.360  1.00 32.87 LIG 0.04  A 
ATOM     61  CZ  TYR D   6      -1.397   1.494  -0.777  1.00 33.71 LIG 0.07  A 
ATOM     62  CE2 TYR D   6      -0.199   1.746  -1.412  1.00 32.90 LIG 0.04  A 
ATOM     63  CD2 TYR D   6       0.655   2.708  -0.901  1.00 31.58 LIG 0.01  A 
BRANCH 61 64
ATOM     64 OH   TYR D   6      -2.251   0.539  -1.281  1.00 34.88 LIG-0.36  OA
ATOM     65 HH   TYR D   6      -2.199   0.531  -2.119  1.00 34.88 LIG 0.22  HD
ENDBRANCH 61 64
ENDBRANCH 57 58
ENDBRANCH 53 57
ENDBRANCH 50 53
ENDBRANCH 48 49
BRANCH 48 66
ATOM     66  CB  VAL D   5       6.035   4.695  -1.684  1.00 31.19 LIG 0.01  C 
ATOM     67  CG1 VAL D   5       6.535   5.495  -0.485  1.00 32.10 LIG 0.01  C 
ATOM     68  CG2 VAL D   5       7.196   4.132  -2.475  1.00 30.34 LIG 0.01  C 
ENDBRANCH 48 66
ENDBRANCH 45 48
ENDBRANCH 38 44
ENDBRANCH 3 38
TORSDOF 25
ENDMDL
MODEL 31
USER: ADFR SOLUTION from run 138
USER: SCORE 19.845615 LL:  -6.463 LR: -14.822 RR:   0.000 FEB:  -7.365
USER: RMSD 5.832658
USER: SEED 137
USER: STATUS searching
USER: GENES 27
USER: genes 0 Translation |==|  0.55563 0.38079 0.64603
USER: genes 1 Rotation |==|  0.68921 0.49570 0.55620 0.95937
USER: genes 2 Torsion [N]-C--CA-[N] |==|  0.00735
USER: genes 3 Torsion [C]-CA--N-[C] |==|  0.75619
USER: genes 4 Torsion [N]-C--CA-[N] |==|  0.07861
USER: genes 5 Torsion [C]-CA--CB-[CG] |==|  0.23246
USER: genes 6 Torsion [CA]-CB--CG-[CD] |==|  0.37707
USER: genes 7 Torsion [CB]-CG--CD-[NE] |==|  0.58794
USER: genes 8 Torsion [CG]-CD--NE-[HE] |==|  0.83665
USER: genes 9 Torsion [C]-CA--N-[C] |==|  0.14445
USER: genes 10 Torsion [N]-C--CA-[N] |==|  0.20000
USER: genes 11 Torsion [C]-CA--N-[C] |==|  0.64997
USER: genes 12 Torsion [C]-CA--CB-[CG2] |==|  0.36002
USER: genes 13 Torsion [CA]-CB--OG1-[HG1] |==|  0.09393
USER: genes 14 Torsion [C]-N--CA-[CB] |==|  0.84947
USER: genes 15 Torsion [N]-CA--CB-[CG] |==|  0.75070
USER: genes 16 Torsion [CA]-CB--CG-[CD] |==|  0.13292
USER: genes 17 Torsion [CB]-CG--CD-[OE2] |==|  0.67337
USER: genes 18 Torsion [N]-CA--C-[N] |==|  0.35280
USER: genes 19 Torsion [C]-N--CA-[CB] |==|  0.80503
USER: genes 20 Torsion [N]-CA--C-[N] |==|  0.23862
USER: genes 21 Torsion [C]-N--CA-[C] |==|  0.72899
USER: genes 22 Torsion [N]-CA--C-[N] |==|  0.44387
USER: genes 23 Torsion [N]-CA--CB-[CG] |==|  0.92199
USER: genes 24 Torsion [CA]-CB--CG-[CD1] |==|  0.29930
USER: genes 25 Torsion [CE1]-CZ--OH-[HH] |==|  0.19439
USER: genes 26 Torsion [N]-CA--CB-[CG1] |==|  0.53454
ROOT
ATOM      1  C   THR D   3       5.344   1.125  -1.792  1.00 23.43 LIG 0.24  C 
ATOM      2 O    THR D   3       5.938   0.073  -2.026  1.00 24.39 LIG-0.27  OA
ATOM      3  N   GLU D   4       5.181   2.083  -2.700  1.00 25.01 LIG-0.35  N 
ATOM      4 H    GLU D   4       4.744   2.809  -2.553  1.00 25.01 LIG 0.16  HD
ENDROOT
BRANCH 1 5
ATOM      5  CA  THR D   3       4.749   1.392  -0.406  1.00 20.85 LIG 0.20  C 
BRANCH 5 6
ATOM      6  N   THR D   3       4.035   2.662  -0.340  1.00 20.16 LIG-0.34  N 
ATOM      7 H    THR D   3       3.194   2.603  -0.508  1.00 20.16 LIG 0.16  HD
ATOM      8  C   ARG D   2       4.653   3.800  -0.041  1.00 20.73 LIG 0.24  C 
ATOM      9 O    ARG D   2       5.869   3.878   0.147  1.00 19.88 LIG-0.27  OA
BRANCH 8 10
ATOM     10  CA  ARG D   2       3.770   5.041   0.035  1.00 21.07 LIG 0.18  C 
BRANCH 10 11
ATOM     11  CB  ARG D   2       4.376   6.075   0.994  1.00 18.72 LIG 0.04  C 
BRANCH 11 12
ATOM     12  CG  ARG D   2       5.446   6.965   0.354  1.00 17.25 LIG 0.02  C 
BRANCH 12 13
ATOM     13  CD  ARG D   2       5.268   8.433   0.739  1.00 15.57 LIG 0.14  C 
BRANCH 13 14
ATOM     14  NE  ARG D   2       5.702   9.340  -0.318  1.00 16.78 LIG-0.23  N 
ATOM     15 HE   ARG D   2       6.519   9.288  -0.582  1.00 16.78 LIG 0.18  HD
ATOM     16  CZ  ARG D   2       4.916  10.242  -0.900  1.00 18.57 LIG 0.67  C 
ATOM     17  NH2 ARG D   2       5.399  11.028  -1.855  1.00 17.94 LIG-0.23  N 
ATOM     18  NH1 ARG D   2       3.646  10.355  -0.533  1.00 16.85 LIG-0.23  N 
ATOM     19 1HH2 ARG D   2       6.221  10.955  -2.098  1.00 17.94 LIG 0.17  HD
ATOM     20 2HH2 ARG D   2       4.890  11.610  -2.230  1.00 17.94 LIG 0.17  HD
ATOM     21 2HH1 ARG D   2       3.140  10.938  -0.911  1.00 16.85 LIG 0.17  HD
ATOM     22 1HH1 ARG D   2       3.330   9.845   0.082  1.00 16.85 LIG 0.17  HD
ENDBRANCH 13 14
ENDBRANCH 12 13
ENDBRANCH 11 12
ENDBRANCH 10 11
BRANCH 10 23
ATOM     23  N   ARG D   2       2.398   4.709   0.418  1.00 21.51 LIG-0.35  N 
ATOM     24  C   ALA D   1       2.144   3.977   1.499  1.00 21.30 LIG 0.24  C 
ATOM     25 O    ALA D   1       3.027   3.596   2.263  1.00 21.16 LIG-0.27  OA
ATOM     26 H    ARG D   2       1.793   5.023  -0.106  1.00 21.51 LIG 0.16  HD
BRANCH 24 27
ATOM     27  CA  ALA D   1       0.681   3.627   1.771  1.00 21.78 LIG 0.17  C 
ATOM     28  CB  ALA D   1       0.509   3.144   3.202  1.00 21.47 LIG 0.04  C 
BRANCH 27 29
ATOM     29  N   ALA D   1       0.156   2.636   0.833  1.00 22.15 LIG-0.35  N 
ATOM     30 H    ALA D   1       0.628   1.918   0.789  1.00 22.15 LIG 0.16  HD
ATOM     31  C   ACE D   0      -0.947   2.825   0.114  1.00 22.99 LIG 0.21  C 
ATOM     32 O    ACE D   0      -1.426   3.929  -0.154  1.00 24.10 LIG-0.27  OA
ATOM     33  CH3 ACE D   0      -1.307   1.587  -0.653  1.00 21.14 LIG 0.12  C 
ENDBRANCH 27 29
ENDBRANCH 24 27
ENDBRANCH 10 23
ENDBRANCH 8 10
ENDBRANCH 5 6
BRANCH 5 34
ATOM     34  CB  THR D   3       3.835   0.223   0.005  1.00 19.16 LIG 0.15  C 
ATOM     35  CG2 THR D   3       4.202  -0.262   1.398  1.00 17.08 LIG 0.04  C 
BRANCH 34 36
ATOM     36 OG1  THR D   3       2.468   0.656   0.004  1.00 20.38 LIG-0.39  OA
ATOM     37 HG1  THR D   3       2.354   1.222  -0.606  1.00 20.38 LIG 0.21  HD
ENDBRANCH 34 36
ENDBRANCH 5 34
ENDBRANCH 1 5
BRANCH 3 38
ATOM     38  CA  GLU D   4       5.737   1.983  -4.047  1.00 28.82 LIG 0.18  C 
BRANCH 38 39
ATOM     39  CB  GLU D   4       7.243   1.709  -3.988  1.00 31.32 LIG 0.04  C 
BRANCH 39 40
ATOM     40  CG  GLU D   4       8.110   2.957  -3.957  1.00 34.96 LIG 0.12  C 
BRANCH 40 41
ATOM     41  CD  GLU D   4       7.631   3.972  -2.938  1.00 38.68 LIG 0.17  C 
ATOM     42 OE2  GLU D   4       7.257   5.093  -3.342  1.00 39.24 LIG-0.65  OA
ATOM     43 OE1  GLU D   4       7.633   3.651  -1.731  1.00 40.65 LIG-0.65  OA
ENDBRANCH 40 41
ENDBRANCH 39 40
ENDBRANCH 38 39
BRANCH 38 44
ATOM     44  C   GLU D   4       5.047   0.865  -4.824  1.00 29.37 LIG 0.24  C 
ATOM     45  N   VAL D   5       4.540   1.191  -6.010  1.00 31.15 LIG-0.35  N 
ATOM     46 H    VAL D   5       4.558   1.986  -6.337  1.00 31.15 LIG 0.16  HD
ATOM     47 O    GLU D   4       4.986  -0.274  -4.359  1.00 28.00 LIG-0.27  OA
BRANCH 45 48
ATOM     48  CA  VAL D   5       3.898   0.199  -6.868  1.00 31.02 LIG 0.18  C 
BRANCH 48 49
ATOM     49  C   VAL D   5       2.837  -0.605  -6.122  1.00 31.80 LIG 0.24  C 
ATOM     50  N   TYR D   6       1.620  -0.072  -6.071  1.00 29.63 LIG-0.35  N 
ATOM     51 H    TYR D   6       1.426   0.706  -6.382  1.00 29.63 LIG 0.16  HD
ATOM     52 O    VAL D   5       3.118  -1.689  -5.609  1.00 32.83 LIG-0.27  OA
BRANCH 50 53
ATOM     53  CA  TYR D   6       0.493  -0.774  -5.472  1.00 30.54 LIG 0.18  C 
BRANCH 53 54
ATOM     54  C   TYR D   6      -0.327  -1.458  -6.560  1.00 31.23 LIG 0.28  C 
ATOM     55  N   NH2 D   7      -1.115  -2.452  -6.164  1.00 33.55 LIG-0.11  N 
ATOM     56 O    TYR D   6      -0.238  -1.100  -7.735  1.00 28.81 LIG-0.27  OA
ENDBRANCH 53 54
BRANCH 53 57
ATOM     57  CB  TYR D   6      -0.378   0.202  -4.674  1.00 30.33 LIG 0.07  C 
BRANCH 57 58
ATOM     58  CG  TYR D   6       0.357   1.403  -4.109  1.00 31.81 LIG-0.06  A 
ATOM     59  CD1 TYR D   6       0.176   2.672  -4.645  1.00 31.47 LIG 0.01  A 
ATOM     60  CE1 TYR D   6       0.838   3.767  -4.124  1.00 32.87 LIG 0.04  A 
ATOM     61  CZ  TYR D   6       1.684   3.607  -3.049  1.00 33.71 LIG 0.07  A 
ATOM     62  CE2 TYR D   6       1.874   2.359  -2.492  1.00 32.90 LIG 0.04  A 
ATOM     63  CD2 TYR D   6       1.207   1.268  -3.019  1.00 31.58 LIG 0.01  A 
BRANCH 61 64
ATOM     64 OH   TYR D   6       2.345   4.697  -2.528  1.00 34.88 LIG-0.36  OA
ATOM     65 HH   TYR D   6       1.794   5.200  -2.143  1.00 34.88 LIG 0.22  HD
ENDBRANCH 61 64
ENDBRANCH 57 58
ENDBRANCH 53 57
ENDBRANCH 50 53
ENDBRANCH 48 49
BRANCH 48 66
ATOM     66  CB  VAL D   5       4.918  -0.798  -7.453  1.00 31.19 LIG 0.01  C 
ATOM     67  CG1 VAL D   5       4.274  -1.614  -8.569  1.00 32.10 LIG 0.01  C 
ATOM     68  CG2 VAL D   5       6.146  -0.073  -7.959  1.00 30.34 LIG 0.01  C 
ENDBRANCH 48 66
ENDBRANCH 45 48
ENDBRANCH 38 44
ENDBRANCH 3 38
TORSDOF 25
ENDMDL
MODEL 32
USER: ADFR SOLUTION from run 20
USER: SCORE 17.180075 LL:  -5.468 LR: -14.806 RR:   0.000 FEB:  -7.348
USER: RMSD 10.597041
USER: SEED 19
USER: STATUS no improvement in best in 9 clusters for 5 generations
USER: GENES 27
USER: genes 0 Translation |==|  0.66127 0.37966 0.46034
USER: genes 1 Rotation |==|  0.49501 0.90571 0.23566 0.62449
USER: genes 2 Torsion [N]-C--CA-[N] |==|  0.90251
USER: genes 3 Torsion [C]-CA--N-[C] |==|  0.81602
USER: genes 4 Torsion [N]-C--CA-[N] |==|  0.10558
USER: genes 5 Torsion [C]-CA--CB-[CG] |==|  0.68798
USER: genes 6 Torsion [CA]-CB--CG-[CD] |==|  0.61189
USER: genes 7 Torsion [CB]-CG--CD-[NE] |==|  0.37417
USER: genes 8 Torsion [CG]-CD--NE-[HE] |==|  0.02241
USER: genes 9 Torsion [C]-CA--N-[C] |==|  0.12225
USER: genes 10 Torsion [N]-C--CA-[N] |==|  0.34591
USER: genes 11 Torsion [C]-CA--N-[C] |==|  0.60099
USER: genes 12 Torsion [C]-CA--CB-[CG2] |==|  0.52496
USER: genes 13 Torsion [CA]-CB--OG1-[HG1] |==|  0.28403
USER: genes 14 Torsion [C]-N--CA-[CB] |==|  0.45467
USER: genes 15 Torsion [N]-CA--CB-[CG] |==|  0.61381
USER: genes 16 Torsion [CA]-CB--CG-[CD] |==|  0.26462
USER: genes 17 Torsion [CB]-CG--CD-[OE2] |==|  0.45357
USER: genes 18 Torsion [N]-CA--C-[N] |==|  0.02129
USER: genes 19 Torsion [C]-N--CA-[CB] |==|  0.53910
USER: genes 20 Torsion [N]-CA--C-[N] |==|  0.39700
USER: genes 21 Torsion [C]-N--CA-[C] |==|  0.66470
USER: genes 22 Torsion [N]-CA--C-[N] |==|  0.10280
USER: genes 23 Torsion [N]-CA--CB-[CG] |==|  0.89960
USER: genes 24 Torsion [CA]-CB--CG-[CD1] |==|  0.22860
USER: genes 25 Torsion [CE1]-CZ--OH-[HH] |==|  0.32442
USER: genes 26 Torsion [N]-CA--CB-[CG1] |==|  0.19476
ROOT
ATOM      1  C   THR D   3       7.404   1.099  -6.388  1.00 23.43 LIG 0.24  C 
ATOM      2 O    THR D   3       7.103   0.037  -5.842  1.00 24.39 LIG-0.27  OA
ATOM      3  N   GLU D   4       6.921   2.276  -5.999  1.00 25.01 LIG-0.35  N 
ATOM      4 H    GLU D   4       7.146   3.025  -6.357  1.00 25.01 LIG 0.16  HD
ENDROOT
BRANCH 1 5
ATOM      5  CA  THR D   3       8.371   1.118  -7.574  1.00 20.85 LIG 0.20  C 
BRANCH 5 6
ATOM      6  N   THR D   3       8.028   2.137  -8.559  1.00 20.16 LIG-0.34  N 
ATOM      7 H    THR D   3       8.607   2.769  -8.629  1.00 20.16 LIG 0.16  HD
ATOM      8  C   ARG D   2       6.912   2.072  -9.276  1.00 20.73 LIG 0.24  C 
ATOM      9 O    ARG D   2       6.066   1.187  -9.129  1.00 19.88 LIG-0.27  OA
BRANCH 8 10
ATOM     10  CA  ARG D   2       6.707   3.185 -10.298  1.00 21.07 LIG 0.18  C 
BRANCH 10 11
ATOM     11  CB  ARG D   2       5.652   2.775 -11.336  1.00 18.72 LIG 0.04  C 
BRANCH 11 12
ATOM     12  CG  ARG D   2       6.216   2.566 -12.745  1.00 17.25 LIG 0.02  C 
BRANCH 12 13
ATOM     13  CD  ARG D   2       5.281   3.121 -13.819  1.00 15.57 LIG 0.14  C 
BRANCH 13 14
ATOM     14  NE  ARG D   2       5.996   3.894 -14.830  1.00 16.78 LIG-0.23  N 
ATOM     15 HE   ARG D   2       6.855   3.885 -14.809  1.00 16.78 LIG 0.18  HD
ATOM     16  CZ  ARG D   2       5.403   4.609 -15.782  1.00 18.57 LIG 0.67  C 
ATOM     17  NH2 ARG D   2       6.134   5.283 -16.661  1.00 17.94 LIG-0.23  N 
ATOM     18  NH1 ARG D   2       4.079   4.647 -15.860  1.00 16.85 LIG-0.23  N 
ATOM     19 1HH2 ARG D   2       6.993   5.257 -16.616  1.00 17.94 LIG 0.17  HD
ATOM     20 2HH2 ARG D   2       5.750   5.745 -17.276  1.00 17.94 LIG 0.17  HD
ATOM     21 2HH1 ARG D   2       3.697   5.110 -16.477  1.00 16.85 LIG 0.17  HD
ATOM     22 1HH1 ARG D   2       3.602   4.209 -15.295  1.00 16.85 LIG 0.17  HD
ENDBRANCH 13 14
ENDBRANCH 12 13
ENDBRANCH 11 12
ENDBRANCH 10 11
BRANCH 10 23
ATOM     23  N   ARG D   2       7.962   3.564 -10.947  1.00 21.51 LIG-0.35  N 
ATOM     24  C   ALA D   1       8.824   2.643 -11.369  1.00 21.30 LIG 0.24  C 
ATOM     25 O    ALA D   1       8.592   1.439 -11.300  1.00 21.16 LIG-0.27  OA
ATOM     26 H    ARG D   2       8.083   4.412 -11.025  1.00 21.51 LIG 0.16  HD
BRANCH 24 27
ATOM     27  CA  ALA D   1      10.137   3.146 -11.969  1.00 21.78 LIG 0.17  C 
ATOM     28  CB  ALA D   1      10.185   2.853 -13.459  1.00 21.47 LIG 0.04  C 
BRANCH 27 29
ATOM     29  N   ALA D   1      11.311   2.586 -11.301  1.00 22.15 LIG-0.35  N 
ATOM     30 H    ALA D   1      11.210   1.769 -11.054  1.00 22.15 LIG 0.16  HD
ATOM     31  C   ACE D   0      12.431   3.274 -11.096  1.00 22.99 LIG 0.21  C 
ATOM     32 O    ACE D   0      12.501   4.504 -11.070  1.00 24.10 LIG-0.27  OA
ATOM     33  CH3 ACE D   0      13.500   2.398 -10.512  1.00 21.14 LIG 0.12  C 
ENDBRANCH 27 29
ENDBRANCH 24 27
ENDBRANCH 10 23
ENDBRANCH 8 10
ENDBRANCH 5 6
BRANCH 5 34
ATOM     34  CB  THR D   3       9.815   1.303  -7.069  1.00 19.16 LIG 0.15  C 
ATOM     35  CG2 THR D   3      10.751   1.544  -8.241  1.00 17.08 LIG 0.04  C 
BRANCH 34 36
ATOM     36 OG1  THR D   3       9.875   2.427  -6.180  1.00 20.38 LIG-0.39  OA
ATOM     37 HG1  THR D   3       9.902   2.154  -5.386  1.00 20.38 LIG 0.21  HD
ENDBRANCH 34 36
ENDBRANCH 5 34
ENDBRANCH 1 5
BRANCH 3 38
ATOM     38  CA  GLU D   4       5.952   2.401  -4.913  1.00 28.82 LIG 0.18  C 
BRANCH 38 39
ATOM     39  CB  GLU D   4       5.883   3.850  -4.419  1.00 31.32 LIG 0.04  C 
BRANCH 39 40
ATOM     40  CG  GLU D   4       5.786   3.997  -2.909  1.00 34.96 LIG 0.12  C 
BRANCH 40 41
ATOM     41  CD  GLU D   4       7.138   4.218  -2.259  1.00 38.68 LIG 0.17  C 
ATOM     42 OE2  GLU D   4       7.174   4.664  -1.093  1.00 39.24 LIG-0.65  OA
ATOM     43 OE1  GLU D   4       8.166   3.952  -2.916  1.00 40.65 LIG-0.65  OA
ENDBRANCH 40 41
ENDBRANCH 39 40
ENDBRANCH 38 39
BRANCH 38 44
ATOM     44  C   GLU D   4       4.569   1.959  -5.383  1.00 29.37 LIG 0.24  C 
ATOM     45  N   VAL D   5       4.501   1.403  -6.589  1.00 31.15 LIG-0.35  N 
ATOM     46 H    VAL D   5       5.177   1.309  -7.113  1.00 31.15 LIG 0.16  HD
ATOM     47 O    GLU D   4       3.585   2.110  -4.659  1.00 28.00 LIG-0.27  OA
BRANCH 45 48
ATOM     48  CA  VAL D   5       3.243   0.896  -7.130  1.00 31.02 LIG 0.18  C 
BRANCH 48 49
ATOM     49  C   VAL D   5       2.464   0.081  -6.102  1.00 31.80 LIG 0.24  C 
ATOM     50  N   TYR D   6       1.141   0.212  -6.125  1.00 29.63 LIG-0.35  N 
ATOM     51 H    TYR D   6       0.724   0.760  -6.641  1.00 29.63 LIG 0.16  HD
ATOM     52 O    VAL D   5       3.052  -0.656  -5.310  1.00 32.83 LIG-0.27  OA
BRANCH 50 53
ATOM     53  CA  TYR D   6       0.270  -0.577  -5.264  1.00 30.54 LIG 0.18  C 
BRANCH 53 54
ATOM     54  C   TYR D   6      -0.696  -1.395  -6.113  1.00 31.23 LIG 0.28  C 
ATOM     55  N   NH2 D   7      -0.209  -1.886  -7.248  1.00 33.55 LIG-0.11  N 
ATOM     56 O    TYR D   6      -1.861  -1.565  -5.753  1.00 28.81 LIG-0.27  OA
ENDBRANCH 53 54
BRANCH 53 57
ATOM     57  CB  TYR D   6      -0.498   0.339  -4.304  1.00 30.33 LIG 0.07  C 
BRANCH 57 58
ATOM     58  CG  TYR D   6       0.281   1.540  -3.802  1.00 31.81 LIG-0.06  A 
ATOM     59  CD1 TYR D   6       0.386   2.696  -4.567  1.00 31.47 LIG 0.01  A 
ATOM     60  CE1 TYR D   6       1.087   3.794  -4.106  1.00 32.87 LIG 0.04  A 
ATOM     61  CZ  TYR D   6       1.684   3.753  -2.865  1.00 33.71 LIG 0.07  A 
ATOM     62  CE2 TYR D   6       1.587   2.621  -2.083  1.00 32.90 LIG 0.04  A 
ATOM     63  CD2 TYR D   6       0.882   1.526  -2.551  1.00 31.58 LIG 0.01  A 
BRANCH 61 64
ATOM     64 OH   TYR D   6       2.383   4.845  -2.405  1.00 34.88 LIG-0.36  OA
ATOM     65 HH   TYR D   6       2.008   5.147  -1.716  1.00 34.88 LIG 0.22  HD
ENDBRANCH 61 64
ENDBRANCH 57 58
ENDBRANCH 53 57
ENDBRANCH 50 53
ENDBRANCH 48 49
BRANCH 48 66
ATOM     66  CB  VAL D   5       3.470   0.001  -8.365  1.00 31.19 LIG 0.01  C 
ATOM     67  CG1 VAL D   5       4.119  -1.315  -7.948  1.00 32.10 LIG 0.01  C 
ATOM     68  CG2 VAL D   5       2.166  -0.251  -9.090  1.00 30.34 LIG 0.01  C 
ENDBRANCH 48 66
ENDBRANCH 45 48
ENDBRANCH 38 44
ENDBRANCH 3 38
TORSDOF 25
ENDMDL
MODEL 33
USER: ADFR SOLUTION from run 157
USER: SCORE 19.045915 LL:  -6.161 LR: -14.783 RR:   0.000 FEB:  -7.326
USER: RMSD 5.344247
USER: SEED 156
USER: STATUS searching
USER: GENES 27
USER: genes 0 Translation |==|  0.56524 0.40679 0.65017
USER: genes 1 Rotation |==|  0.41558 0.99010 0.51612 0.54910
USER: genes 2 Torsion [N]-C--CA-[N] |==|  0.94328
USER: genes 3 Torsion [C]-CA--N-[C] |==|  0.81004
USER: genes 4 Torsion [N]-C--CA-[N] |==|  0.59140
USER: genes 5 Torsion [C]-CA--CB-[CG] |==|  0.46733
USER: genes 6 Torsion [CA]-CB--CG-[CD] |==|  0.66169
USER: genes 7 Torsion [CB]-CG--CD-[NE] |==|  0.30307
USER: genes 8 Torsion [CG]-CD--NE-[HE] |==|  0.07008
USER: genes 9 Torsion [C]-CA--N-[C] |==|  0.16015
USER: genes 10 Torsion [N]-C--CA-[N] |==|  0.22780
USER: genes 11 Torsion [C]-CA--N-[C] |==|  0.75818
USER: genes 12 Torsion [C]-CA--CB-[CG2] |==|  0.26193
USER: genes 13 Torsion [CA]-CB--OG1-[HG1] |==|  0.67147
USER: genes 14 Torsion [C]-N--CA-[CB] |==|  0.54446
USER: genes 15 Torsion [N]-CA--CB-[CG] |==|  0.45546
USER: genes 16 Torsion [CA]-CB--CG-[CD] |==|  0.19271
USER: genes 17 Torsion [CB]-CG--CD-[OE2] |==|  0.87246
USER: genes 18 Torsion [N]-CA--C-[N] |==|  0.30029
USER: genes 19 Torsion [C]-N--CA-[CB] |==|  0.77723
USER: genes 20 Torsion [N]-CA--C-[N] |==|  0.17505
USER: genes 21 Torsion [C]-N--CA-[C] |==|  0.76992
USER: genes 22 Torsion [N]-CA--C-[N] |==|  0.44628
USER: genes 23 Torsion [N]-CA--CB-[CG] |==|  0.66467
USER: genes 24 Torsion [CA]-CB--CG-[CD1] |==|  0.90747
USER: genes 25 Torsion [CE1]-CZ--OH-[HH] |==|  0.05431
USER: genes 26 Torsion [N]-CA--CB-[CG1] |==|  0.54085
ROOT
ATOM      1  C   THR D   3       5.531   1.730  -1.689  1.00 23.43 LIG 0.24  C 
ATOM      2 O    THR D   3       5.665   0.723  -2.385  1.00 24.39 LIG-0.27  OA
ATOM      3  N   GLU D   4       5.323   1.681  -0.377  1.00 25.01 LIG-0.35  N 
ATOM      4 H    GLU D   4       5.255   2.380   0.121  1.00 25.01 LIG 0.16  HD
ENDROOT
BRANCH 1 5
ATOM      5  CA  THR D   3       5.597   3.125  -2.317  1.00 20.85 LIG 0.20  C 
BRANCH 5 6
ATOM      6  N   THR D   3       4.964   4.142  -1.487  1.00 20.16 LIG-0.34  N 
ATOM      7 H    THR D   3       5.512   4.711  -1.147  1.00 20.16 LIG 0.16  HD
ATOM      8  C   ARG D   2       3.650   4.168  -1.288  1.00 20.73 LIG 0.24  C 
ATOM      9 O    ARG D   2       2.883   3.315  -1.739  1.00 19.88 LIG-0.27  OA
BRANCH 8 10
ATOM     10  CA  ARG D   2       3.126   5.316  -0.432  1.00 21.07 LIG 0.18  C 
BRANCH 10 11
ATOM     11  CB  ARG D   2       4.238   5.867   0.470  1.00 18.72 LIG 0.04  C 
BRANCH 11 12
ATOM     12  CG  ARG D   2       3.886   7.193   1.151  1.00 17.25 LIG 0.02  C 
BRANCH 12 13
ATOM     13  CD  ARG D   2       4.886   8.294   0.801  1.00 15.57 LIG 0.14  C 
BRANCH 13 14
ATOM     14  NE  ARG D   2       4.310   9.306  -0.081  1.00 16.78 LIG-0.23  N 
ATOM     15 HE   ARG D   2       3.457   9.414  -0.065  1.00 16.78 LIG 0.18  HD
ATOM     16  CZ  ARG D   2       5.020  10.070  -0.906  1.00 18.57 LIG 0.67  C 
ATOM     17  NH2 ARG D   2       4.411  10.965  -1.674  1.00 17.94 LIG-0.23  N 
ATOM     18  NH1 ARG D   2       6.340   9.945  -0.961  1.00 16.85 LIG-0.23  N 
ATOM     19 1HH2 ARG D   2       3.555  11.052  -1.638  1.00 17.94 LIG 0.17  HD
ATOM     20 2HH2 ARG D   2       4.870  11.458  -2.207  1.00 17.94 LIG 0.17  HD
ATOM     21 2HH1 ARG D   2       6.797  10.440  -1.495  1.00 16.85 LIG 0.17  HD
ATOM     22 1HH1 ARG D   2       6.738   9.369  -0.463  1.00 16.85 LIG 0.17  HD
ENDBRANCH 13 14
ENDBRANCH 12 13
ENDBRANCH 11 12
ENDBRANCH 10 11
BRANCH 10 23
ATOM     23  N   ARG D   2       1.959   4.917   0.356  1.00 21.51 LIG-0.35  N 
ATOM     24  C   ALA D   1       2.021   3.898   1.208  1.00 21.30 LIG 0.24  C 
ATOM     25 O    ALA D   1       3.060   3.282   1.429  1.00 21.16 LIG-0.27  OA
ATOM     26 H    ARG D   2       1.254   5.390   0.217  1.00 21.51 LIG 0.16  HD
BRANCH 24 27
ATOM     27  CA  ALA D   1       0.727   3.518   1.929  1.00 21.78 LIG 0.17  C 
ATOM     28  CB  ALA D   1       1.038   2.841   3.253  1.00 21.47 LIG 0.04  C 
BRANCH 27 29
ATOM     29  N   ALA D   1      -0.142   2.671   1.115  1.00 22.15 LIG-0.35  N 
ATOM     30 H    ALA D   1      -0.023   1.828   1.245  1.00 22.15 LIG 0.16  HD
ATOM     31  C   ACE D   0      -1.034   3.153   0.253  1.00 22.99 LIG 0.21  C 
ATOM     32 O    ACE D   0      -0.984   4.278  -0.247  1.00 24.10 LIG-0.27  OA
ATOM     33  CH3 ACE D   0      -1.865   2.051  -0.333  1.00 21.14 LIG 0.12  C 
ENDBRANCH 27 29
ENDBRANCH 24 27
ENDBRANCH 10 23
ENDBRANCH 8 10
ENDBRANCH 5 6
BRANCH 5 34
ATOM     34  CB  THR D   3       7.062   3.493  -2.621  1.00 19.16 LIG 0.15  C 
ATOM     35  CG2 THR D   3       7.404   3.135  -4.057  1.00 17.08 LIG 0.04  C 
BRANCH 34 36
ATOM     36 OG1  THR D   3       7.255   4.901  -2.429  1.00 20.38 LIG-0.39  OA
ATOM     37 HG1  THR D   3       7.486   5.254  -3.155  1.00 20.38 LIG 0.21  HD
ENDBRANCH 34 36
ENDBRANCH 5 34
ENDBRANCH 1 5
BRANCH 3 38
ATOM     38  CA  GLU D   4       5.190   0.419   0.346  1.00 28.82 LIG 0.18  C 
BRANCH 38 39
ATOM     39  CB  GLU D   4       4.574   0.654   1.729  1.00 31.32 LIG 0.04  C 
BRANCH 39 40
ATOM     40  CG  GLU D   4       4.042  -0.601   2.403  1.00 34.96 LIG 0.12  C 
BRANCH 40 41
ATOM     41  CD  GLU D   4       5.149  -1.547   2.826  1.00 38.68 LIG 0.17  C 
ATOM     42 OE2  GLU D   4       6.065  -1.795   2.014  1.00 39.24 LIG-0.65  OA
ATOM     43 OE1  GLU D   4       5.101  -2.048   3.969  1.00 40.65 LIG-0.65  OA
ENDBRANCH 40 41
ENDBRANCH 39 40
ENDBRANCH 38 39
BRANCH 38 44
ATOM     44  C   GLU D   4       4.314  -0.552  -0.441  1.00 29.37 LIG 0.24  C 
ATOM     45  N   VAL D   5       4.934  -1.583  -1.009  1.00 31.15 LIG-0.35  N 
ATOM     46 H    VAL D   5       5.784  -1.709  -0.978  1.00 31.15 LIG 0.16  HD
ATOM     47 O    GLU D   4       3.099  -0.374  -0.522  1.00 28.00 LIG-0.27  OA
BRANCH 45 48
ATOM     48  CA  VAL D   5       4.200  -2.607  -1.748  1.00 31.02 LIG 0.18  C 
BRANCH 48 49
ATOM     49  C   VAL D   5       3.095  -2.007  -2.614  1.00 31.80 LIG 0.24  C 
ATOM     50  N   TYR D   6       3.487  -1.188  -3.586  1.00 29.63 LIG-0.35  N 
ATOM     51 H    TYR D   6       4.304  -0.946  -3.707  1.00 29.63 LIG 0.16  HD
ATOM     52 O    VAL D   5       1.914  -2.289  -2.408  1.00 32.83 LIG-0.27  OA
BRANCH 50 53
ATOM     53  CA  TYR D   6       2.547  -0.620  -4.544  1.00 30.54 LIG 0.18  C 
BRANCH 53 54
ATOM     54  C   TYR D   6       2.282  -1.621  -5.663  1.00 31.23 LIG 0.28  C 
ATOM     55  N   NH2 D   7       1.178  -1.424  -6.377  1.00 33.55 LIG-0.11  N 
ATOM     56 O    TYR D   6       3.055  -2.557  -5.867  1.00 28.81 LIG-0.27  OA
ENDBRANCH 53 54
BRANCH 53 57
ATOM     57  CB  TYR D   6       3.097   0.692  -5.113  1.00 30.33 LIG 0.07  C 
BRANCH 57 58
ATOM     58  CG  TYR D   6       2.224   1.910  -4.876  1.00 31.81 LIG-0.06  A 
ATOM     59  CD1 TYR D   6       0.839   1.804  -4.846  1.00 31.47 LIG 0.01  A 
ATOM     60  CE1 TYR D   6       0.044   2.911  -4.620  1.00 32.87 LIG 0.04  A 
ATOM     61  CZ  TYR D   6       0.628   4.141  -4.409  1.00 33.71 LIG 0.07  A 
ATOM     62  CE2 TYR D   6       2.001   4.271  -4.424  1.00 32.90 LIG 0.04  A 
ATOM     63  CD2 TYR D   6       2.790   3.158  -4.651  1.00 31.58 LIG 0.01  A 
BRANCH 61 64
ATOM     64 OH   TYR D   6      -0.162   5.245  -4.183  1.00 34.88 LIG-0.36  OA
ATOM     65 HH   TYR D   6      -0.926   4.997  -3.939  1.00 34.88 LIG 0.22  HD
ENDBRANCH 61 64
ENDBRANCH 57 58
ENDBRANCH 53 57
ENDBRANCH 50 53
ENDBRANCH 48 49
BRANCH 48 66
ATOM     66  CB  VAL D   5       3.549  -3.638  -0.806  1.00 31.19 LIG 0.01  C 
ATOM     67  CG1 VAL D   5       3.112  -4.868  -1.595  1.00 32.10 LIG 0.01  C 
ATOM     68  CG2 VAL D   5       4.501  -4.024   0.305  1.00 30.34 LIG 0.01  C 
ENDBRANCH 48 66
ENDBRANCH 45 48
ENDBRANCH 38 44
ENDBRANCH 3 38
TORSDOF 25
ENDMDL
MODEL 34
USER: ADFR SOLUTION from run 115
USER: SCORE 18.894911 LL:  -5.675 LR: -14.761 RR:   0.000 FEB:  -7.303
USER: RMSD 9.777239
USER: SEED 114
USER: STATUS searching
USER: GENES 27
USER: genes 0 Translation |==|  0.62038 0.48514 0.64943
USER: genes 1 Rotation |==|  0.05116 0.58934 0.29870 0.50635
USER: genes 2 Torsion [N]-C--CA-[N] |==|  0.04994
USER: genes 3 Torsion [C]-CA--N-[C] |==|  0.79655
USER: genes 4 Torsion [N]-C--CA-[N] |==|  0.97598
USER: genes 5 Torsion [C]-CA--CB-[CG] |==|  0.47696
USER: genes 6 Torsion [CA]-CB--CG-[CD] |==|  0.83526
USER: genes 7 Torsion [CB]-CG--CD-[NE] |==|  0.18703
USER: genes 8 Torsion [CG]-CD--NE-[HE] |==|  0.70727
USER: genes 9 Torsion [C]-CA--N-[C] |==|  0.81272
USER: genes 10 Torsion [N]-C--CA-[N] |==|  0.02300
USER: genes 11 Torsion [C]-CA--N-[C] |==|  0.79341
USER: genes 12 Torsion [C]-CA--CB-[CG2] |==|  0.79986
USER: genes 13 Torsion [CA]-CB--OG1-[HG1] |==|  0.47457
USER: genes 14 Torsion [C]-N--CA-[CB] |==|  0.22458
USER: genes 15 Torsion [N]-CA--CB-[CG] |==|  0.54661
USER: genes 16 Torsion [CA]-CB--CG-[CD] |==|  0.50370
USER: genes 17 Torsion [CB]-CG--CD-[OE2] |==|  0.60785
USER: genes 18 Torsion [N]-CA--C-[N] |==|  0.03326
USER: genes 19 Torsion [C]-N--CA-[CB] |==|  0.17056
USER: genes 20 Torsion [N]-CA--C-[N] |==|  0.11830
USER: genes 21 Torsion [C]-N--CA-[C] |==|  0.83682
USER: genes 22 Torsion [N]-CA--C-[N] |==|  0.34444
USER: genes 23 Torsion [N]-CA--CB-[CG] |==|  0.30645
USER: genes 24 Torsion [CA]-CB--CG-[CD1] |==|  0.23098
USER: genes 25 Torsion [CE1]-CZ--OH-[HH] |==|  0.64391
USER: genes 26 Torsion [N]-CA--CB-[CG1] |==|  0.18714
ROOT
ATOM      1  C   THR D   3       6.606   3.552  -1.708  1.00 23.43 LIG 0.24  C 
ATOM      2 O    THR D   3       7.574   4.312  -1.702  1.00 24.39 LIG-0.27  OA
ATOM      3  N   GLU D   4       5.585   3.672  -0.864  1.00 25.01 LIG-0.35  N 
ATOM      4 H    GLU D   4       4.893   3.161  -0.879  1.00 25.01 LIG 0.16  HD
ENDROOT
BRANCH 1 5
ATOM      5  CA  THR D   3       6.529   2.398  -2.711  1.00 20.85 LIG 0.20  C 
BRANCH 5 6
ATOM      6  N   THR D   3       5.176   1.875  -2.858  1.00 20.16 LIG-0.34  N 
ATOM      7 H    THR D   3       4.794   2.087  -3.598  1.00 20.16 LIG 0.16  HD
ATOM      8  C   ARG D   2       4.603   1.134  -1.914  1.00 20.73 LIG 0.24  C 
ATOM      9 O    ARG D   2       5.143   0.881  -0.835  1.00 19.88 LIG-0.27  OA
BRANCH 8 10
ATOM     10  CA  ARG D   2       3.201   0.621  -2.226  1.00 21.07 LIG 0.18  C 
BRANCH 10 11
ATOM     11  CB  ARG D   2       3.196  -0.912  -2.313  1.00 18.72 LIG 0.04  C 
BRANCH 11 12
ATOM     12  CG  ARG D   2       1.796  -1.523  -2.422  1.00 17.25 LIG 0.02  C 
BRANCH 12 13
ATOM     13  CD  ARG D   2       0.921  -1.156  -1.225  1.00 15.57 LIG 0.14  C 
BRANCH 13 14
ATOM     14  NE  ARG D   2       0.600   0.268  -1.189  1.00 16.78 LIG-0.23  N 
ATOM     15 HE   ARG D   2       1.005   0.757  -0.610  1.00 16.78 LIG 0.18  HD
ATOM     16  CZ  ARG D   2      -0.279   0.856  -1.995  1.00 18.57 LIG 0.67  C 
ATOM     17  NH2 ARG D   2      -0.510   2.159  -1.890  1.00 17.94 LIG-0.23  N 
ATOM     18  NH1 ARG D   2      -0.925   0.145  -2.910  1.00 16.85 LIG-0.23  N 
ATOM     19 1HH2 ARG D   2      -0.090   2.625  -1.300  1.00 17.94 LIG 0.17  HD
ATOM     20 2HH2 ARG D   2      -1.078   2.539  -2.411  1.00 17.94 LIG 0.17  HD
ATOM     21 2HH1 ARG D   2      -1.493   0.528  -3.431  1.00 16.85 LIG 0.17  HD
ATOM     22 1HH1 ARG D   2      -0.776  -0.698  -2.983  1.00 16.85 LIG 0.17  HD
ENDBRANCH 13 14
ENDBRANCH 12 13
ENDBRANCH 11 12
ENDBRANCH 10 11
BRANCH 10 23
ATOM     23  N   ARG D   2       2.663   1.218  -3.448  1.00 21.51 LIG-0.35  N 
ATOM     24  C   ALA D   1       2.366   2.513  -3.508  1.00 21.30 LIG 0.24  C 
ATOM     25 O    ALA D   1       2.582   3.285  -2.578  1.00 21.16 LIG-0.27  OA
ATOM     26 H    ARG D   2       2.562   0.668  -4.101  1.00 21.51 LIG 0.16  HD
BRANCH 24 27
ATOM     27  CA  ALA D   1       1.743   3.022  -4.808  1.00 21.78 LIG 0.17  C 
ATOM     28  CB  ALA D   1       0.523   3.877  -4.511  1.00 21.47 LIG 0.04  C 
BRANCH 27 29
ATOM     29  N   ALA D   1       1.395   1.939  -5.726  1.00 22.15 LIG-0.35  N 
ATOM     30 H    ALA D   1       0.550   1.782  -5.769  1.00 22.15 LIG 0.16  HD
ATOM     31  C   ACE D   0       2.297   1.260  -6.429  1.00 22.99 LIG 0.21  C 
ATOM     32 O    ACE D   0       3.490   1.170  -6.134  1.00 24.10 LIG-0.27  OA
ATOM     33  CH3 ACE D   0       1.632   0.307  -7.378  1.00 21.14 LIG 0.12  C 
ENDBRANCH 27 29
ENDBRANCH 24 27
ENDBRANCH 10 23
ENDBRANCH 8 10
ENDBRANCH 5 6
BRANCH 5 34
ATOM     34  CB  THR D   3       7.097   2.847  -4.070  1.00 19.16 LIG 0.15  C 
ATOM     35  CG2 THR D   3       6.137   3.811  -4.745  1.00 17.08 LIG 0.04  C 
BRANCH 34 36
ATOM     36 OG1  THR D   3       8.359   3.500  -3.874  1.00 20.38 LIG-0.39  OA
ATOM     37 HG1  THR D   3       8.725   3.632  -4.618  1.00 20.38 LIG 0.21  HD
ENDBRANCH 34 36
ENDBRANCH 5 34
ENDBRANCH 1 5
BRANCH 3 38
ATOM     38  CA  GLU D   4       5.549   4.696   0.176  1.00 28.82 LIG 0.18  C 
BRANCH 38 39
ATOM     39  CB  GLU D   4       5.102   6.040  -0.408  1.00 31.32 LIG 0.04  C 
BRANCH 39 40
ATOM     40  CG  GLU D   4       5.409   7.243   0.471  1.00 34.96 LIG 0.12  C 
BRANCH 40 41
ATOM     41  CD  GLU D   4       4.920   8.544  -0.134  1.00 38.68 LIG 0.17  C 
ATOM     42 OE2  GLU D   4       5.633   9.563  -0.015  1.00 39.24 LIG-0.65  OA
ATOM     43 OE1  GLU D   4       3.820   8.550  -0.725  1.00 40.65 LIG-0.65  OA
ENDBRANCH 40 41
ENDBRANCH 39 40
ENDBRANCH 38 39
BRANCH 38 44
ATOM     44  C   GLU D   4       4.593   4.285   1.292  1.00 29.37 LIG 0.24  C 
ATOM     45  N   VAL D   5       4.167   3.025   1.275  1.00 31.15 LIG-0.35  N 
ATOM     46 H    VAL D   5       4.378   2.456   0.666  1.00 31.15 LIG 0.16  HD
ATOM     47 O    GLU D   4       4.257   5.094   2.157  1.00 28.00 LIG-0.27  OA
BRANCH 45 48
ATOM     48  CA  VAL D   5       3.288   2.499   2.315  1.00 31.02 LIG 0.18  C 
BRANCH 48 49
ATOM     49  C   VAL D   5       2.985   1.017   2.114  1.00 31.80 LIG 0.24  C 
ATOM     50  N   TYR D   6       4.011   0.247   1.762  1.00 29.63 LIG-0.35  N 
ATOM     51 H    TYR D   6       4.799   0.549   1.595  1.00 29.63 LIG 0.16  HD
ATOM     52 O    VAL D   5       1.845   0.581   2.282  1.00 32.83 LIG-0.27  OA
BRANCH 50 53
ATOM     53  CA  TYR D   6       3.884  -1.198   1.628  1.00 30.54 LIG 0.18  C 
BRANCH 53 54
ATOM     54  C   TYR D   6       3.423  -1.802   2.950  1.00 31.23 LIG 0.28  C 
ATOM     55  N   NH2 D   7       2.315  -2.533   2.907  1.00 33.55 LIG-0.11  N 
ATOM     56 O    TYR D   6       4.054  -1.598   3.988  1.00 28.81 LIG-0.27  OA
ENDBRANCH 53 54
BRANCH 53 57
ATOM     57  CB  TYR D   6       5.219  -1.810   1.191  1.00 30.33 LIG 0.07  C 
BRANCH 57 58
ATOM     58  CG  TYR D   6       5.917  -2.646   2.248  1.00 31.81 LIG-0.06  A 
ATOM     59  CD1 TYR D   6       5.573  -3.976   2.452  1.00 31.47 LIG 0.01  A 
ATOM     60  CE1 TYR D   6       6.216  -4.740   3.408  1.00 32.87 LIG 0.04  A 
ATOM     61  CZ  TYR D   6       7.222  -4.182   4.166  1.00 33.71 LIG 0.07  A 
ATOM     62  CE2 TYR D   6       7.588  -2.866   3.976  1.00 32.90 LIG 0.04  A 
ATOM     63  CD2 TYR D   6       6.941  -2.108   3.017  1.00 31.58 LIG 0.01  A 
BRANCH 61 64
ATOM     64 OH   TYR D   6       7.863  -4.941   5.118  1.00 34.88 LIG-0.36  OA
ATOM     65 HH   TYR D   6       7.856  -4.533   5.853  1.00 34.88 LIG 0.22  HD
ENDBRANCH 61 64
ENDBRANCH 57 58
ENDBRANCH 53 57
ENDBRANCH 50 53
ENDBRANCH 48 49
BRANCH 48 66
ATOM     66  CB  VAL D   5       1.943   3.250   2.363  1.00 31.19 LIG 0.01  C 
ATOM     67  CG1 VAL D   5       1.139   2.970   1.097  1.00 32.10 LIG 0.01  C 
ATOM     68  CG2 VAL D   5       1.155   2.862   3.595  1.00 30.34 LIG 0.01  C 
ENDBRANCH 48 66
ENDBRANCH 45 48
ENDBRANCH 38 44
ENDBRANCH 3 38
TORSDOF 25
ENDMDL
MODEL 35
USER: ADFR SOLUTION from run 23
USER: SCORE 17.913474 LL:  -5.347 LR: -14.746 RR:   0.000 FEB:  -7.288
USER: RMSD 10.690139
USER: SEED 22
USER: STATUS no improvement in best in 3 clusters for 5 generations
USER: GENES 27
USER: genes 0 Translation |==|  0.54924 0.37075 0.43774
USER: genes 1 Rotation |==|  0.45172 0.06711 0.67500 0.67218
USER: genes 2 Torsion [N]-C--CA-[N] |==|  0.10783
USER: genes 3 Torsion [C]-CA--N-[C] |==|  0.72736
USER: genes 4 Torsion [N]-C--CA-[N] |==|  0.92499
USER: genes 5 Torsion [C]-CA--CB-[CG] |==|  0.92725
USER: genes 6 Torsion [CA]-CB--CG-[CD] |==|  0.59603
USER: genes 7 Torsion [CB]-CG--CD-[NE] |==|  0.83276
USER: genes 8 Torsion [CG]-CD--NE-[HE] |==|  0.18574
USER: genes 9 Torsion [C]-CA--N-[C] |==|  0.83889
USER: genes 10 Torsion [N]-C--CA-[N] |==|  0.39651
USER: genes 11 Torsion [C]-CA--N-[C] |==|  0.81107
USER: genes 12 Torsion [C]-CA--CB-[CG2] |==|  0.81824
USER: genes 13 Torsion [CA]-CB--OG1-[HG1] |==|  0.11610
USER: genes 14 Torsion [C]-N--CA-[CB] |==|  0.46348
USER: genes 15 Torsion [N]-CA--CB-[CG] |==|  0.43650
USER: genes 16 Torsion [CA]-CB--CG-[CD] |==|  0.72387
USER: genes 17 Torsion [CB]-CG--CD-[OE2] |==|  0.48758
USER: genes 18 Torsion [N]-CA--C-[N] |==|  0.89723
USER: genes 19 Torsion [C]-N--CA-[CB] |==|  0.77680
USER: genes 20 Torsion [N]-CA--C-[N] |==|  0.16673
USER: genes 21 Torsion [C]-N--CA-[C] |==|  0.14668
USER: genes 22 Torsion [N]-CA--C-[N] |==|  0.10321
USER: genes 23 Torsion [N]-CA--CB-[CG] |==|  0.79815
USER: genes 24 Torsion [CA]-CB--CG-[CD1] |==|  0.27619
USER: genes 25 Torsion [CE1]-CZ--OH-[HH] |==|  0.12170
USER: genes 26 Torsion [N]-CA--CB-[CG1] |==|  0.59957
ROOT
ATOM      1  C   THR D   3       5.219   0.892  -6.947  1.00 23.43 LIG 0.24  C 
ATOM      2 O    THR D   3       4.634  -0.041  -6.398  1.00 24.39 LIG-0.27  OA
ATOM      3  N   GLU D   4       6.139   1.631  -6.334  1.00 25.01 LIG-0.35  N 
ATOM      4 H    GLU D   4       6.572   2.268  -6.718  1.00 25.01 LIG 0.16  HD
ENDROOT
BRANCH 1 5
ATOM      5  CA  THR D   3       4.907   1.260  -8.400  1.00 20.85 LIG 0.20  C 
BRANCH 5 6
ATOM      6  N   THR D   3       6.099   1.640  -9.149  1.00 20.16 LIG-0.34  N 
ATOM      7 H    THR D   3       6.554   0.975  -9.450  1.00 20.16 LIG 0.16  HD
ATOM      8  C   ARG D   2       6.434   2.912  -9.338  1.00 20.73 LIG 0.24  C 
ATOM      9 O    ARG D   2       5.801   3.854  -8.857  1.00 19.88 LIG-0.27  OA
BRANCH 8 10
ATOM     10  CA  ARG D   2       7.683   3.158 -10.177  1.00 21.07 LIG 0.18  C 
BRANCH 10 11
ATOM     11  CB  ARG D   2       7.302   3.458 -11.634  1.00 18.72 LIG 0.04  C 
BRANCH 11 12
ATOM     12  CG  ARG D   2       5.962   2.852 -12.063  1.00 17.25 LIG 0.02  C 
BRANCH 12 13
ATOM     13  CD  ARG D   2       5.980   2.413 -13.526  1.00 15.57 LIG 0.14  C 
BRANCH 13 14
ATOM     14  NE  ARG D   2       6.246   3.524 -14.435  1.00 16.78 LIG-0.23  N 
ATOM     15 HE   ARG D   2       7.023   3.890 -14.406  1.00 16.78 LIG 0.18  HD
ATOM     16  CZ  ARG D   2       5.363   4.006 -15.305  1.00 18.57 LIG 0.67  C 
ATOM     17  NH2 ARG D   2       5.691   5.022 -16.093  1.00 17.94 LIG-0.23  N 
ATOM     18  NH1 ARG D   2       4.152   3.469 -15.393  1.00 16.85 LIG-0.23  N 
ATOM     19 1HH2 ARG D   2       6.476   5.370 -16.043  1.00 17.94 LIG 0.17  HD
ATOM     20 2HH2 ARG D   2       5.119   5.332 -16.655  1.00 17.94 LIG 0.17  HD
ATOM     21 2HH1 ARG D   2       3.583   3.782 -15.956  1.00 16.85 LIG 0.17  HD
ATOM     22 1HH1 ARG D   2       3.937   2.809 -14.886  1.00 16.85 LIG 0.17  HD
ENDBRANCH 13 14
ENDBRANCH 12 13
ENDBRANCH 11 12
ENDBRANCH 10 11
BRANCH 10 23
ATOM     23  N   ARG D   2       8.619   2.036 -10.100  1.00 21.51 LIG-0.35  N 
ATOM     24  C   ALA D   1       9.111   1.631  -8.933  1.00 21.30 LIG 0.24  C 
ATOM     25 O    ALA D   1       8.765   2.123  -7.862  1.00 21.16 LIG-0.27  OA
ATOM     26 H    ARG D   2       8.812   1.678 -10.857  1.00 21.51 LIG 0.16  HD
BRANCH 24 27
ATOM     27  CA  ALA D   1      10.136   0.497  -8.969  1.00 21.78 LIG 0.17  C 
ATOM     28  CB  ALA D   1       9.447  -0.846  -8.787  1.00 21.47 LIG 0.04  C 
BRANCH 27 29
ATOM     29  N   ALA D   1      11.196   0.665  -7.977  1.00 22.15 LIG-0.35  N 
ATOM     30 H    ALA D   1      11.174   0.079  -7.347  1.00 22.15 LIG 0.16  HD
ATOM     31  C   ACE D   0      12.108   1.631  -8.039  1.00 22.99 LIG 0.21  C 
ATOM     32 O    ACE D   0      11.968   2.685  -8.662  1.00 24.10 LIG-0.27  OA
ATOM     33  CH3 ACE D   0      13.138   1.467  -6.962  1.00 21.14 LIG 0.12  C 
ENDBRANCH 27 29
ENDBRANCH 24 27
ENDBRANCH 10 23
ENDBRANCH 8 10
ENDBRANCH 5 6
BRANCH 5 34
ATOM     34  CB  THR D   3       4.172   0.095  -9.088  1.00 19.16 LIG 0.15  C 
ATOM     35  CG2 THR D   3       5.086  -1.114  -9.190  1.00 17.08 LIG 0.04  C 
BRANCH 34 36
ATOM     36 OG1  THR D   3       3.009  -0.259  -8.328  1.00 20.38 LIG-0.39  OA
ATOM     37 HG1  THR D   3       2.623   0.439  -8.064  1.00 20.38 LIG 0.21  HD
ENDBRANCH 34 36
ENDBRANCH 5 34
ENDBRANCH 1 5
BRANCH 3 38
ATOM     38  CA  GLU D   4       6.501   1.423  -4.934  1.00 28.82 LIG 0.18  C 
BRANCH 38 39
ATOM     39  CB  GLU D   4       7.790   2.179  -4.594  1.00 31.32 LIG 0.04  C 
BRANCH 39 40
ATOM     40  CG  GLU D   4       7.966   2.491  -3.117  1.00 34.96 LIG 0.12  C 
BRANCH 40 41
ATOM     41  CD  GLU D   4       7.575   3.915  -2.774  1.00 38.68 LIG 0.17  C 
ATOM     42 OE2  GLU D   4       7.595   4.268  -1.576  1.00 39.24 LIG-0.65  OA
ATOM     43 OE1  GLU D   4       7.242   4.682  -3.702  1.00 40.65 LIG-0.65  OA
ENDBRANCH 40 41
ENDBRANCH 39 40
ENDBRANCH 38 39
BRANCH 38 44
ATOM     44  C   GLU D   4       5.377   1.901  -4.019  1.00 29.37 LIG 0.24  C 
ATOM     45  N   VAL D   5       4.723   2.994  -4.403  1.00 31.15 LIG-0.35  N 
ATOM     46 H    VAL D   5       4.916   3.446  -5.109  1.00 31.15 LIG 0.16  HD
ATOM     47 O    GLU D   4       5.102   1.283  -2.991  1.00 28.00 LIG-0.27  OA
BRANCH 45 48
ATOM     48  CA  VAL D   5       3.597   3.522  -3.638  1.00 31.02 LIG 0.18  C 
BRANCH 48 49
ATOM     49  C   VAL D   5       3.844   3.455  -2.134  1.00 31.80 LIG 0.24  C 
ATOM     50  N   TYR D   6       4.897   4.127  -1.678  1.00 29.63 LIG-0.35  N 
ATOM     51 H    TYR D   6       5.457   4.538  -2.186  1.00 29.63 LIG 0.16  HD
ATOM     52 O    VAL D   5       3.090   2.812  -1.402  1.00 32.83 LIG-0.27  OA
BRANCH 50 53
ATOM     53  CA  TYR D   6       5.196   4.225  -0.256  1.00 30.54 LIG 0.18  C 
BRANCH 53 54
ATOM     54  C   TYR D   6       5.237   2.832   0.362  1.00 31.23 LIG 0.28  C 
ATOM     55  N   NH2 D   7       5.759   1.871  -0.392  1.00 33.55 LIG-0.11  N 
ATOM     56 O    TYR D   6       4.793   2.632   1.493  1.00 28.81 LIG-0.27  OA
ENDBRANCH 53 54
BRANCH 53 57
ATOM     57  CB  TYR D   6       4.149   5.096   0.448  1.00 30.33 LIG 0.07  C 
BRANCH 57 58
ATOM     58  CG  TYR D   6       4.251   6.582   0.158  1.00 31.81 LIG-0.06  A 
ATOM     59  CD1 TYR D   6       3.423   7.188  -0.779  1.00 31.47 LIG 0.01  A 
ATOM     60  CE1 TYR D   6       3.509   8.543  -1.036  1.00 32.87 LIG 0.04  A 
ATOM     61  CZ  TYR D   6       4.421   9.313  -0.348  1.00 33.71 LIG 0.07  A 
ATOM     62  CE2 TYR D   6       5.248   8.737   0.594  1.00 32.90 LIG 0.04  A 
ATOM     63  CD2 TYR D   6       5.155   7.380   0.846  1.00 31.58 LIG 0.01  A 
BRANCH 61 64
ATOM     64 OH   TYR D   6       4.509  10.663  -0.602  1.00 34.88 LIG-0.36  OA
ATOM     65 HH   TYR D   6       3.736  10.988  -0.656  1.00 34.88 LIG 0.22  HD
ENDBRANCH 61 64
ENDBRANCH 57 58
ENDBRANCH 53 57
ENDBRANCH 50 53
ENDBRANCH 48 49
BRANCH 48 66
ATOM     66  CB  VAL D   5       2.292   2.756  -3.934  1.00 31.19 LIG 0.01  C 
ATOM     67  CG1 VAL D   5       1.104   3.713  -3.913  1.00 32.10 LIG 0.01  C 
ATOM     68  CG2 VAL D   5       2.382   2.041  -5.265  1.00 30.34 LIG 0.01  C 
ENDBRANCH 48 66
ENDBRANCH 45 48
ENDBRANCH 38 44
ENDBRANCH 3 38
TORSDOF 25
ENDMDL
MODEL 36
USER: ADFR SOLUTION from run 34
USER: SCORE 17.859094 LL:  -4.966 LR: -14.729 RR:   0.000 FEB:  -7.272
USER: RMSD 5.595260
USER: SEED 33
USER: STATUS searching
USER: GENES 27
USER: genes 0 Translation |==|  0.63402 0.47981 0.60363
USER: genes 1 Rotation |==|  0.25969 0.73813 0.80647 0.70401
USER: genes 2 Torsion [N]-C--CA-[N] |==|  0.96619
USER: genes 3 Torsion [C]-CA--N-[C] |==|  0.82774
USER: genes 4 Torsion [N]-C--CA-[N] |==|  0.95497
USER: genes 5 Torsion [C]-CA--CB-[CG] |==|  0.99878
USER: genes 6 Torsion [CA]-CB--CG-[CD] |==|  0.64306
USER: genes 7 Torsion [CB]-CG--CD-[NE] |==|  0.90649
USER: genes 8 Torsion [CG]-CD--NE-[HE] |==|  0.86195
USER: genes 9 Torsion [C]-CA--N-[C] |==|  0.81584
USER: genes 10 Torsion [N]-C--CA-[N] |==|  0.45173
USER: genes 11 Torsion [C]-CA--N-[C] |==|  0.49980
USER: genes 12 Torsion [C]-CA--CB-[CG2] |==|  0.77177
USER: genes 13 Torsion [CA]-CB--OG1-[HG1] |==|  0.89594
USER: genes 14 Torsion [C]-N--CA-[CB] |==|  0.49026
USER: genes 15 Torsion [N]-CA--CB-[CG] |==|  0.56962
USER: genes 16 Torsion [CA]-CB--CG-[CD] |==|  0.43458
USER: genes 17 Torsion [CB]-CG--CD-[OE2] |==|  0.65012
USER: genes 18 Torsion [N]-CA--C-[N] |==|  0.47516
USER: genes 19 Torsion [C]-N--CA-[CB] |==|  0.54663
USER: genes 20 Torsion [N]-CA--C-[N] |==|  0.27415
USER: genes 21 Torsion [C]-N--CA-[C] |==|  0.18333
USER: genes 22 Torsion [N]-CA--C-[N] |==|  0.09769
USER: genes 23 Torsion [N]-CA--CB-[CG] |==|  0.84928
USER: genes 24 Torsion [CA]-CB--CG-[CD1] |==|  0.36479
USER: genes 25 Torsion [CE1]-CZ--OH-[HH] |==|  0.27030
USER: genes 26 Torsion [N]-CA--CB-[CG1] |==|  0.54576
ROOT
ATOM      1  C   THR D   3       6.872   3.428  -2.841  1.00 23.43 LIG 0.24  C 
ATOM      2 O    THR D   3       7.650   4.252  -3.321  1.00 24.39 LIG-0.27  OA
ATOM      3  N   GLU D   4       7.089   2.116  -2.883  1.00 25.01 LIG-0.35  N 
ATOM      4 H    GLU D   4       6.565   1.535  -2.527  1.00 25.01 LIG 0.16  HD
ENDROOT
BRANCH 1 5
ATOM      5  CA  THR D   3       5.581   3.883  -2.156  1.00 20.85 LIG 0.20  C 
BRANCH 5 6
ATOM      6  N   THR D   3       4.661   2.779  -1.908  1.00 20.16 LIG-0.34  N 
ATOM      7 H    THR D   3       4.490   2.642  -1.076  1.00 20.16 LIG 0.16  HD
ATOM      8  C   ARG D   2       4.143   2.061  -2.899  1.00 20.73 LIG 0.24  C 
ATOM      9 O    ARG D   2       4.437   2.235  -4.083  1.00 19.88 LIG-0.27  OA
BRANCH 8 10
ATOM     10  CA  ARG D   2       3.162   0.967  -2.490  1.00 21.07 LIG 0.18  C 
BRANCH 10 11
ATOM     11  CB  ARG D   2       1.729   1.358  -2.876  1.00 18.72 LIG 0.04  C 
BRANCH 11 12
ATOM     12  CG  ARG D   2       1.619   2.727  -3.555  1.00 17.25 LIG 0.02  C 
BRANCH 12 13
ATOM     13  CD  ARG D   2       0.569   3.611  -2.885  1.00 15.57 LIG 0.14  C 
BRANCH 13 14
ATOM     14  NE  ARG D   2      -0.558   2.839  -2.370  1.00 16.78 LIG-0.23  N 
ATOM     15 HE   ARG D   2      -0.932   2.272  -2.898  1.00 16.78 LIG 0.18  HD
ATOM     16  CZ  ARG D   2      -1.043   2.955  -1.137  1.00 18.57 LIG 0.67  C 
ATOM     17  NH2 ARG D   2      -2.074   2.212  -0.754  1.00 17.94 LIG-0.23  N 
ATOM     18  NH1 ARG D   2      -0.495   3.810  -0.283  1.00 16.85 LIG-0.23  N 
ATOM     19 1HH2 ARG D   2      -2.430   1.653  -1.304  1.00 17.94 LIG 0.17  HD
ATOM     20 2HH2 ARG D   2      -2.387   2.288   0.043  1.00 17.94 LIG 0.17  HD
ATOM     21 2HH1 ARG D   2      -0.810   3.884   0.514  1.00 16.85 LIG 0.17  HD
ATOM     22 1HH1 ARG D   2       0.175   4.291  -0.526  1.00 16.85 LIG 0.17  HD
ENDBRANCH 13 14
ENDBRANCH 12 13
ENDBRANCH 11 12
ENDBRANCH 10 11
BRANCH 10 23
ATOM     23  N   ARG D   2       3.256   0.659  -1.063  1.00 21.51 LIG-0.35  N 
ATOM     24  C   ALA D   1       4.351   0.105  -0.550  1.00 21.30 LIG 0.24  C 
ATOM     25 O    ALA D   1       5.356  -0.117  -1.219  1.00 21.16 LIG-0.27  OA
ATOM     26 H    ARG D   2       2.557   0.864  -0.605  1.00 21.51 LIG 0.16  HD
BRANCH 24 27
ATOM     27  CA  ALA D   1       4.319  -0.242   0.939  1.00 21.78 LIG 0.17  C 
ATOM     28  CB  ALA D   1       4.416   1.021   1.779  1.00 21.47 LIG 0.04  C 
BRANCH 27 29
ATOM     29  N   ALA D   1       5.367  -1.188   1.318  1.00 22.15 LIG-0.35  N 
ATOM     30 H    ALA D   1       5.866  -1.431   0.661  1.00 22.15 LIG 0.16  HD
ATOM     31  C   ACE D   0       5.534  -1.633   2.561  1.00 22.99 LIG 0.21  C 
ATOM     32 O    ACE D   0       4.656  -1.634   3.426  1.00 24.10 LIG-0.27  OA
ATOM     33  CH3 ACE D   0       6.765  -2.483   2.666  1.00 21.14 LIG 0.12  C 
ENDBRANCH 27 29
ENDBRANCH 24 27
ENDBRANCH 10 23
ENDBRANCH 8 10
ENDBRANCH 5 6
BRANCH 5 34
ATOM     34  CB  THR D   3       5.916   4.626  -0.849  1.00 19.16 LIG 0.15  C 
ATOM     35  CG2 THR D   3       6.165   3.630   0.270  1.00 17.08 LIG 0.04  C 
BRANCH 34 36
ATOM     36 OG1  THR D   3       7.092   5.426  -1.036  1.00 20.38 LIG-0.39  OA
ATOM     37 HG1  THR D   3       7.635   5.014  -1.528  1.00 20.38 LIG 0.21  HD
ENDBRANCH 34 36
ENDBRANCH 5 34
ENDBRANCH 1 5
BRANCH 3 38
ATOM     38  CA  GLU D   4       8.255   1.539  -3.547  1.00 28.82 LIG 0.18  C 
BRANCH 38 39
ATOM     39  CB  GLU D   4       8.284   0.019  -3.359  1.00 31.32 LIG 0.04  C 
BRANCH 39 40
ATOM     40  CG  GLU D   4       9.668  -0.602  -3.457  1.00 34.96 LIG 0.12  C 
BRANCH 40 41
ATOM     41  CD  GLU D   4       9.761  -1.931  -2.733  1.00 38.68 LIG 0.17  C 
ATOM     42 OE2  GLU D   4      10.658  -2.082  -1.877  1.00 39.24 LIG-0.65  OA
ATOM     43 OE1  GLU D   4       8.940  -2.826  -3.022  1.00 40.65 LIG-0.65  OA
ENDBRANCH 40 41
ENDBRANCH 39 40
ENDBRANCH 38 39
BRANCH 38 44
ATOM     44  C   GLU D   4       8.232   1.865  -5.038  1.00 29.37 LIG 0.24  C 
ATOM     45  N   VAL D   5       9.325   1.559  -5.730  1.00 31.15 LIG-0.35  N 
ATOM     46 H    VAL D   5      10.035   1.221  -5.382  1.00 31.15 LIG 0.16  HD
ATOM     47 O    GLU D   4       7.236   2.376  -5.551  1.00 28.00 LIG-0.27  OA
BRANCH 45 48
ATOM     48  CA  VAL D   5       9.407   1.778  -7.172  1.00 31.02 LIG 0.18  C 
BRANCH 48 49
ATOM     49  C   VAL D   5       8.122   1.373  -7.887  1.00 31.80 LIG 0.24  C 
ATOM     50  N   TYR D   6       7.274   2.356  -8.180  1.00 29.63 LIG-0.35  N 
ATOM     51 H    TYR D   6       7.391   3.174  -7.941  1.00 29.63 LIG 0.16  HD
ATOM     52 O    VAL D   5       7.908   0.195  -8.174  1.00 32.83 LIG-0.27  OA
BRANCH 50 53
ATOM     53  CA  TYR D   6       6.055   2.124  -8.943  1.00 30.54 LIG 0.18  C 
BRANCH 53 54
ATOM     54  C   TYR D   6       5.103   1.244  -8.141  1.00 31.23 LIG 0.28  C 
ATOM     55  N   NH2 D   7       5.101   1.427  -6.825  1.00 33.55 LIG-0.11  N 
ATOM     56 O    TYR D   6       4.394   0.409  -8.704  1.00 28.81 LIG-0.27  OA
ENDBRANCH 53 54
BRANCH 53 57
ATOM     57  CB  TYR D   6       6.387   1.473 -10.290  1.00 30.33 LIG 0.07  C 
BRANCH 57 58
ATOM     58  CG  TYR D   6       7.405   2.220 -11.130  1.00 31.81 LIG-0.06  A 
ATOM     59  CD1 TYR D   6       8.488   1.561 -11.699  1.00 31.47 LIG 0.01  A 
ATOM     60  CE1 TYR D   6       9.410   2.239 -12.473  1.00 32.87 LIG 0.04  A 
ATOM     61  CZ  TYR D   6       9.253   3.590 -12.696  1.00 33.71 LIG 0.07  A 
ATOM     62  CE2 TYR D   6       8.183   4.266 -12.149  1.00 32.90 LIG 0.04  A 
ATOM     63  CD2 TYR D   6       7.264   3.579 -11.377  1.00 31.58 LIG 0.01  A 
BRANCH 61 64
ATOM     64 OH   TYR D   6      10.171   4.267 -13.466  1.00 34.88 LIG-0.36  OA
ATOM     65 HH   TYR D   6       9.881   4.336 -14.251  1.00 34.88 LIG 0.22  HD
ENDBRANCH 61 64
ENDBRANCH 57 58
ENDBRANCH 53 57
ENDBRANCH 50 53
ENDBRANCH 48 49
BRANCH 48 66
ATOM     66  CB  VAL D   5      10.567   0.987  -7.807  1.00 31.19 LIG 0.01  C 
ATOM     67  CG1 VAL D   5      10.881   1.537  -9.195  1.00 32.10 LIG 0.01  C 
ATOM     68  CG2 VAL D   5      11.794   1.033  -6.923  1.00 30.34 LIG 0.01  C 
ENDBRANCH 48 66
ENDBRANCH 45 48
ENDBRANCH 38 44
ENDBRANCH 3 38
TORSDOF 25
ENDMDL
MODEL 37
USER: ADFR SOLUTION from run 65
USER: SCORE 17.059473 LL:  -6.388 LR: -14.700 RR:   0.000 FEB:  -7.243
USER: RMSD 4.868219
USER: SEED 64
USER: STATUS no improvement in best in 8 clusters for 5 generations
USER: GENES 27
USER: genes 0 Translation |==|  0.64367 0.43796 0.57998
USER: genes 1 Rotation |==|  0.21897 0.63559 0.74657 0.80305
USER: genes 2 Torsion [N]-C--CA-[N] |==|  0.38985
USER: genes 3 Torsion [C]-CA--N-[C] |==|  0.56430
USER: genes 4 Torsion [N]-C--CA-[N] |==|  0.57138
USER: genes 5 Torsion [C]-CA--CB-[CG] |==|  0.33608
USER: genes 6 Torsion [CA]-CB--CG-[CD] |==|  0.22463
USER: genes 7 Torsion [CB]-CG--CD-[NE] |==|  0.70626
USER: genes 8 Torsion [CG]-CD--NE-[HE] |==|  0.30710
USER: genes 9 Torsion [C]-CA--N-[C] |==|  0.20556
USER: genes 10 Torsion [N]-C--CA-[N] |==|  0.08754
USER: genes 11 Torsion [C]-CA--N-[C] |==|  0.17377
USER: genes 12 Torsion [C]-CA--CB-[CG2] |==|  0.07907
USER: genes 13 Torsion [CA]-CB--OG1-[HG1] |==|  0.08289
USER: genes 14 Torsion [C]-N--CA-[CB] |==|  0.38887
USER: genes 15 Torsion [N]-CA--CB-[CG] |==|  0.53933
USER: genes 16 Torsion [CA]-CB--CG-[CD] |==|  0.50261
USER: genes 17 Torsion [CB]-CG--CD-[OE2] |==|  0.58630
USER: genes 18 Torsion [N]-CA--C-[N] |==|  0.21807
USER: genes 19 Torsion [C]-N--CA-[CB] |==|  0.80885
USER: genes 20 Torsion [N]-CA--C-[N] |==|  0.18898
USER: genes 21 Torsion [C]-N--CA-[C] |==|  0.53495
USER: genes 22 Torsion [N]-CA--C-[N] |==|  0.48470
USER: genes 23 Torsion [N]-CA--CB-[CG] |==|  0.18387
USER: genes 24 Torsion [CA]-CB--CG-[CD1] |==|  0.71740
USER: genes 25 Torsion [CE1]-CZ--OH-[HH] |==|  0.27638
USER: genes 26 Torsion [N]-CA--CB-[CG1] |==|  0.53014
ROOT
ATOM      1  C   THR D   3       7.060   2.455  -3.426  1.00 23.43 LIG 0.24  C 
ATOM      2 O    THR D   3       7.964   3.252  -3.177  1.00 24.39 LIG-0.27  OA
ATOM      3  N   GLU D   4       7.280   1.171  -3.694  1.00 25.01 LIG-0.35  N 
ATOM      4 H    GLU D   4       6.654   0.601  -3.843  1.00 25.01 LIG 0.16  HD
ENDROOT
BRANCH 1 5
ATOM      5  CA  THR D   3       5.600   2.913  -3.443  1.00 20.85 LIG 0.20  C 
BRANCH 5 6
ATOM      6  N   THR D   3       5.298   3.858  -2.375  1.00 20.16 LIG-0.34  N 
ATOM      7 H    THR D   3       5.984   4.281  -2.073  1.00 20.16 LIG 0.16  HD
ATOM      8  C   ARG D   2       4.062   4.033  -1.921  1.00 20.73 LIG 0.24  C 
ATOM      9 O    ARG D   2       3.096   3.382  -2.326  1.00 19.88 LIG-0.27  OA
BRANCH 8 10
ATOM     10  CA  ARG D   2       3.891   5.086  -0.831  1.00 21.07 LIG 0.18  C 
BRANCH 10 11
ATOM     11  CB  ARG D   2       5.165   5.192   0.019  1.00 18.72 LIG 0.04  C 
BRANCH 11 12
ATOM     12  CG  ARG D   2       5.798   6.587   0.020  1.00 17.25 LIG 0.02  C 
BRANCH 12 13
ATOM     13  CD  ARG D   2       5.096   7.528   0.998  1.00 15.57 LIG 0.14  C 
BRANCH 13 14
ATOM     14  NE  ARG D   2       4.256   8.509   0.318  1.00 16.78 LIG-0.23  N 
ATOM     15 HE   ARG D   2       3.403   8.435   0.402  1.00 16.78 LIG 0.18  HD
ATOM     16  CZ  ARG D   2       4.724   9.510  -0.422  1.00 18.57 LIG 0.67  C 
ATOM     17  NH2 ARG D   2       3.884  10.355  -1.006  1.00 17.94 LIG-0.23  N 
ATOM     18  NH1 ARG D   2       6.032   9.670  -0.575  1.00 16.85 LIG-0.23  N 
ATOM     19 1HH2 ARG D   2       3.035  10.257  -0.906  1.00 17.94 LIG 0.17  HD
ATOM     20 2HH2 ARG D   2       4.188  11.002  -1.484  1.00 17.94 LIG 0.17  HD
ATOM     21 2HH1 ARG D   2       6.333  10.318  -1.054  1.00 16.85 LIG 0.17  HD
ATOM     22 1HH1 ARG D   2       6.579   9.126  -0.196  1.00 16.85 LIG 0.17  HD
ENDBRANCH 13 14
ENDBRANCH 12 13
ENDBRANCH 11 12
ENDBRANCH 10 11
BRANCH 10 23
ATOM     23  N   ARG D   2       2.722   4.817   0.006  1.00 21.51 LIG-0.35  N 
ATOM     24  C   ALA D   1       2.730   3.836   0.904  1.00 21.30 LIG 0.24  C 
ATOM     25 O    ALA D   1       3.725   3.151   1.126  1.00 21.16 LIG-0.27  OA
ATOM     26 H    ARG D   2       2.052   5.337  -0.136  1.00 21.51 LIG 0.16  HD
BRANCH 24 27
ATOM     27  CA  ALA D   1       1.433   3.593   1.677  1.00 21.78 LIG 0.17  C 
ATOM     28  CB  ALA D   1       1.376   2.158   2.176  1.00 21.47 LIG 0.04  C 
BRANCH 27 29
ATOM     29  N   ALA D   1       0.242   3.906   0.890  1.00 22.15 LIG-0.35  N 
ATOM     30 H    ALA D   1      -0.232   4.544   1.221  1.00 22.15 LIG 0.16  HD
ATOM     31  C   ACE D   0      -0.080   3.269  -0.232  1.00 22.99 LIG 0.21  C 
ATOM     32 O    ACE D   0       0.319   2.142  -0.535  1.00 24.10 LIG-0.27  OA
ATOM     33  CH3 ACE D   0      -1.276   3.897  -0.883  1.00 21.14 LIG 0.12  C 
ENDBRANCH 27 29
ENDBRANCH 24 27
ENDBRANCH 10 23
ENDBRANCH 8 10
ENDBRANCH 5 6
BRANCH 5 34
ATOM     34  CB  THR D   3       5.255   3.510  -4.821  1.00 19.16 LIG 0.15  C 
ATOM     35  CG2 THR D   3       6.117   2.874  -5.897  1.00 17.08 LIG 0.04  C 
BRANCH 34 36
ATOM     36 OG1  THR D   3       3.874   3.266  -5.120  1.00 20.38 LIG-0.39  OA
ATOM     37 HG1  THR D   3       3.433   3.234  -4.405  1.00 20.38 LIG 0.21  HD
ENDBRANCH 34 36
ENDBRANCH 5 34
ENDBRANCH 1 5
BRANCH 3 38
ATOM     38  CA  GLU D   4       8.626   0.607  -3.760  1.00 28.82 LIG 0.18  C 
BRANCH 38 39
ATOM     39  CB  GLU D   4       8.660  -0.782  -3.114  1.00 31.32 LIG 0.04  C 
BRANCH 39 40
ATOM     40  CG  GLU D   4      10.056  -1.310  -2.826  1.00 34.96 LIG 0.12  C 
BRANCH 40 41
ATOM     41  CD  GLU D   4      10.038  -2.694  -2.208  1.00 38.68 LIG 0.17  C 
ATOM     42 OE2  GLU D   4      10.951  -3.006  -1.414  1.00 39.24 LIG-0.65  OA
ATOM     43 OE1  GLU D   4       9.114  -3.474  -2.521  1.00 40.65 LIG-0.65  OA
ENDBRANCH 40 41
ENDBRANCH 39 40
ENDBRANCH 38 39
BRANCH 38 44
ATOM     44  C   GLU D   4       9.087   0.503  -5.211  1.00 29.37 LIG 0.24  C 
ATOM     45  N   VAL D   5       9.513   1.627  -5.781  1.00 31.15 LIG-0.35  N 
ATOM     46 H    VAL D   5       9.515   2.392  -5.390  1.00 31.15 LIG 0.16  HD
ATOM     47 O    GLU D   4       9.066  -0.580  -5.798  1.00 28.00 LIG-0.27  OA
BRANCH 45 48
ATOM     48  CA  VAL D   5      10.024   1.647  -7.149  1.00 31.02 LIG 0.18  C 
BRANCH 48 49
ATOM     49  C   VAL D   5       9.053   1.000  -8.133  1.00 31.80 LIG 0.24  C 
ATOM     50  N   TYR D   6       7.910   1.646  -8.346  1.00 29.63 LIG-0.35  N 
ATOM     51 H    TYR D   6       7.680   2.360  -7.925  1.00 29.63 LIG 0.16  HD
ATOM     52 O    VAL D   5       9.340  -0.059  -8.692  1.00 32.83 LIG-0.27  OA
BRANCH 50 53
ATOM     53  CA  TYR D   6       6.936   1.191  -9.328  1.00 30.54 LIG 0.18  C 
BRANCH 53 54
ATOM     54  C   TYR D   6       5.896   2.280  -9.569  1.00 31.23 LIG 0.28  C 
ATOM     55  N   NH2 D   7       5.009   2.042 -10.529  1.00 33.55 LIG-0.11  N 
ATOM     56 O    TYR D   6       5.907   3.318  -8.907  1.00 28.81 LIG-0.27  OA
ENDBRANCH 53 54
BRANCH 53 57
ATOM     57  CB  TYR D   6       6.263  -0.101  -8.850  1.00 30.33 LIG 0.07  C 
BRANCH 57 58
ATOM     58  CG  TYR D   6       5.395   0.048  -7.616  1.00 31.81 LIG-0.06  A 
ATOM     59  CD1 TYR D   6       5.853  -0.348  -6.365  1.00 31.47 LIG 0.01  A 
ATOM     60  CE1 TYR D   6       5.066  -0.204  -5.239  1.00 32.87 LIG 0.04  A 
ATOM     61  CZ  TYR D   6       3.809   0.350  -5.349  1.00 33.71 LIG 0.07  A 
ATOM     62  CE2 TYR D   6       3.334   0.760  -6.577  1.00 32.90 LIG 0.04  A 
ATOM     63  CD2 TYR D   6       4.129   0.613  -7.700  1.00 31.58 LIG 0.01  A 
BRANCH 61 64
ATOM     64 OH   TYR D   6       3.024   0.495  -4.228  1.00 34.88 LIG-0.36  OA
ATOM     65 HH   TYR D   6       3.072   1.287  -3.952  1.00 34.88 LIG 0.22  HD
ENDBRANCH 61 64
ENDBRANCH 57 58
ENDBRANCH 53 57
ENDBRANCH 50 53
ENDBRANCH 48 49
BRANCH 48 66
ATOM     66  CB  VAL D   5      11.373   0.911  -7.268  1.00 31.19 LIG 0.01  C 
ATOM     67  CG1 VAL D   5      12.000   1.181  -8.632  1.00 32.10 LIG 0.01  C 
ATOM     68  CG2 VAL D   5      12.310   1.328  -6.156  1.00 30.34 LIG 0.01  C 
ENDBRANCH 48 66
ENDBRANCH 45 48
ENDBRANCH 38 44
ENDBRANCH 3 38
TORSDOF 25
ENDMDL
MODEL 38
USER: ADFR SOLUTION from run 30
USER: SCORE 17.851791 LL:  -4.492 LR: -14.632 RR:   0.000 FEB:  -7.175
USER: RMSD 9.085680
USER: SEED 29
USER: STATUS no improvement in best in 11 clusters for 5 generations
USER: GENES 27
USER: genes 0 Translation |==|  0.40844 0.40250 0.76324
USER: genes 1 Rotation |==|  0.56947 0.05759 0.30191 0.60105
USER: genes 2 Torsion [N]-C--CA-[N] |==|  0.27875
USER: genes 3 Torsion [C]-CA--N-[C] |==|  0.69791
USER: genes 4 Torsion [N]-C--CA-[N] |==|  0.94766
USER: genes 5 Torsion [C]-CA--CB-[CG] |==|  0.69293
USER: genes 6 Torsion [CA]-CB--CG-[CD] |==|  0.55919
USER: genes 7 Torsion [CB]-CG--CD-[NE] |==|  0.22181
USER: genes 8 Torsion [CG]-CD--NE-[HE] |==|  0.85696
USER: genes 9 Torsion [C]-CA--N-[C] |==|  0.82943
USER: genes 10 Torsion [N]-C--CA-[N] |==|  0.39374
USER: genes 11 Torsion [C]-CA--N-[C] |==|  0.81822
USER: genes 12 Torsion [C]-CA--CB-[CG2] |==|  0.27630
USER: genes 13 Torsion [CA]-CB--OG1-[HG1] |==|  0.26918
USER: genes 14 Torsion [C]-N--CA-[CB] |==|  0.52222
USER: genes 15 Torsion [N]-CA--CB-[CG] |==|  0.57185
USER: genes 16 Torsion [CA]-CB--CG-[CD] |==|  0.36811
USER: genes 17 Torsion [CB]-CG--CD-[OE2] |==|  0.20049
USER: genes 18 Torsion [N]-CA--C-[N] |==|  0.41681
USER: genes 19 Torsion [C]-N--CA-[CB] |==|  0.54289
USER: genes 20 Torsion [N]-CA--C-[N] |==|  0.38552
USER: genes 21 Torsion [C]-N--CA-[C] |==|  0.68908
USER: genes 22 Torsion [N]-CA--C-[N] |==|  0.39787
USER: genes 23 Torsion [N]-CA--CB-[CG] |==|  0.11353
USER: genes 24 Torsion [CA]-CB--CG-[CD1] |==|  0.79264
USER: genes 25 Torsion [CE1]-CZ--OH-[HH] |==|  0.01178
USER: genes 26 Torsion [N]-CA--CB-[CG1] |==|  0.52095
ROOT
ATOM      1  C   THR D   3       2.474   1.630   1.109  1.00 23.43 LIG 0.24  C 
ATOM      2 O    THR D   3       1.973   1.226   0.060  1.00 24.39 LIG-0.27  OA
ATOM      3  N   GLU D   4       3.141   0.840   1.945  1.00 25.01 LIG-0.35  N 
ATOM      4 H    GLU D   4       3.516   1.119   2.667  1.00 25.01 LIG 0.16  HD
ENDROOT
BRANCH 1 5
ATOM      5  CA  THR D   3       2.348   3.101   1.516  1.00 20.85 LIG 0.20  C 
BRANCH 5 6
ATOM      6  N   THR D   3       3.303   3.956   0.822  1.00 20.16 LIG-0.34  N 
ATOM      7 H    THR D   3       3.133   4.072  -0.013  1.00 20.16 LIG 0.16  HD
ATOM      8  C   ARG D   2       4.342   4.501   1.448  1.00 20.73 LIG 0.24  C 
ATOM      9 O    ARG D   2       4.604   4.284   2.633  1.00 19.88 LIG-0.27  OA
BRANCH 8 10
ATOM     10  CA  ARG D   2       5.231   5.407   0.604  1.00 21.07 LIG 0.18  C 
BRANCH 10 11
ATOM     11  CB  ARG D   2       4.987   6.881   0.958  1.00 18.72 LIG 0.04  C 
BRANCH 11 12
ATOM     12  CG  ARG D   2       4.288   7.678  -0.149  1.00 17.25 LIG 0.02  C 
BRANCH 12 13
ATOM     13  CD  ARG D   2       4.525   9.180  -0.003  1.00 15.57 LIG 0.14  C 
BRANCH 13 14
ATOM     14  NE  ARG D   2       5.830   9.588  -0.513  1.00 16.78 LIG-0.23  N 
ATOM     15 HE   ARG D   2       6.522   9.161  -0.233  1.00 16.78 LIG 0.18  HD
ATOM     16  CZ  ARG D   2       6.017  10.576  -1.383  1.00 18.57 LIG 0.67  C 
ATOM     17  NH2 ARG D   2       7.243  10.879  -1.792  1.00 17.94 LIG-0.23  N 
ATOM     18  NH1 ARG D   2       4.980  11.258  -1.851  1.00 16.85 LIG-0.23  N 
ATOM     19 1HH2 ARG D   2       7.918  10.436  -1.495  1.00 17.94 LIG 0.17  HD
ATOM     20 2HH2 ARG D   2       7.363  11.518  -2.355  1.00 17.94 LIG 0.17  HD
ATOM     21 2HH1 ARG D   2       5.103  11.896  -2.414  1.00 16.85 LIG 0.17  HD
ATOM     22 1HH1 ARG D   2       4.184  11.062  -1.590  1.00 16.85 LIG 0.17  HD
ENDBRANCH 13 14
ENDBRANCH 12 13
ENDBRANCH 11 12
ENDBRANCH 10 11
BRANCH 10 23
ATOM     23  N   ARG D   2       5.044   5.172  -0.828  1.00 21.51 LIG-0.35  N 
ATOM     24  C   ALA D   1       5.307   3.988  -1.370  1.00 21.30 LIG 0.24  C 
ATOM     25 O    ALA D   1       5.656   3.017  -0.703  1.00 21.16 LIG-0.27  OA
ATOM     26 H    ARG D   2       4.756   5.853  -1.268  1.00 21.51 LIG 0.16  HD
BRANCH 24 27
ATOM     27  CA  ALA D   1       5.146   3.868  -2.886  1.00 21.78 LIG 0.17  C 
ATOM     28  CB  ALA D   1       3.763   3.341  -3.231  1.00 21.47 LIG 0.04  C 
BRANCH 27 29
ATOM     29  N   ALA D   1       6.177   3.032  -3.497  1.00 22.15 LIG-0.35  N 
ATOM     30 H    ALA D   1       5.871   2.307  -3.847  1.00 22.15 LIG 0.16  HD
ATOM     31  C   ACE D   0       7.467   3.358  -3.513  1.00 22.99 LIG 0.21  C 
ATOM     32 O    ACE D   0       7.998   4.144  -2.727  1.00 24.10 LIG-0.27  OA
ATOM     33  CH3 ACE D   0       8.259   2.376  -4.324  1.00 21.14 LIG 0.12  C 
ENDBRANCH 27 29
ENDBRANCH 24 27
ENDBRANCH 10 23
ENDBRANCH 8 10
ENDBRANCH 5 6
BRANCH 5 34
ATOM     34  CB  THR D   3       0.905   3.586   1.286  1.00 19.16 LIG 0.15  C 
ATOM     35  CG2 THR D   3       0.134   3.573   2.595  1.00 17.08 LIG 0.04  C 
BRANCH 34 36
ATOM     36 OG1  THR D   3       0.922   4.922   0.765  1.00 20.38 LIG-0.39  OA
ATOM     37 HG1  THR D   3       0.851   4.897  -0.071  1.00 20.38 LIG 0.21  HD
ENDBRANCH 34 36
ENDBRANCH 5 34
ENDBRANCH 1 5
BRANCH 3 38
ATOM     38  CA  GLU D   4       3.296  -0.593   1.707  1.00 28.82 LIG 0.18  C 
BRANCH 38 39
ATOM     39  CB  GLU D   4       3.932  -1.274   2.923  1.00 31.32 LIG 0.04  C 
BRANCH 39 40
ATOM     40  CG  GLU D   4       4.690  -2.553   2.605  1.00 34.96 LIG 0.12  C 
BRANCH 40 41
ATOM     41  CD  GLU D   4       6.060  -2.594   3.254  1.00 38.68 LIG 0.17  C 
ATOM     42 OE2  GLU D   4       6.129  -2.763   4.489  1.00 39.24 LIG-0.65  OA
ATOM     43 OE1  GLU D   4       7.067  -2.451   2.530  1.00 40.65 LIG-0.65  OA
ENDBRANCH 40 41
ENDBRANCH 39 40
ENDBRANCH 38 39
BRANCH 38 44
ATOM     44  C   GLU D   4       1.941  -1.233   1.419  1.00 29.37 LIG 0.24  C 
ATOM     45  N   VAL D   5       1.945  -2.296   0.619  1.00 31.15 LIG-0.35  N 
ATOM     46 H    VAL D   5       2.651  -2.614   0.247  1.00 31.15 LIG 0.16  HD
ATOM     47 O    GLU D   4       0.914  -0.775   1.920  1.00 28.00 LIG-0.27  OA
BRANCH 45 48
ATOM     48  CA  VAL D   5       0.718  -3.024   0.306  1.00 31.02 LIG 0.18  C 
BRANCH 48 49
ATOM     49  C   VAL D   5      -0.152  -3.240   1.541  1.00 31.80 LIG 0.24  C 
ATOM     50  N   TYR D   6      -1.462  -3.074   1.377  1.00 29.63 LIG-0.35  N 
ATOM     51 H    TYR D   6      -1.821  -2.806   0.643  1.00 29.63 LIG 0.16  HD
ATOM     52 O    VAL D   5       0.355  -3.556   2.618  1.00 32.83 LIG-0.27  OA
BRANCH 50 53
ATOM     53  CA  TYR D   6      -2.415  -3.339   2.447  1.00 30.54 LIG 0.18  C 
BRANCH 53 54
ATOM     54  C   TYR D   6      -3.264  -4.555   2.094  1.00 31.23 LIG 0.28  C 
ATOM     55  N   NH2 D   7      -3.587  -5.358   3.103  1.00 33.55 LIG-0.11  N 
ATOM     56 O    TYR D   6      -3.608  -4.766   0.930  1.00 28.81 LIG-0.27  OA
ENDBRANCH 53 54
BRANCH 53 57
ATOM     57  CB  TYR D   6      -3.302  -2.112   2.683  1.00 30.33 LIG 0.07  C 
BRANCH 57 58
ATOM     58  CG  TYR D   6      -3.761  -1.401   1.424  1.00 31.81 LIG-0.06  A 
ATOM     59  CD1 TYR D   6      -2.889  -0.606   0.690  1.00 31.47 LIG 0.01  A 
ATOM     60  CE1 TYR D   6      -3.304   0.033  -0.462  1.00 32.87 LIG 0.04  A 
ATOM     61  CZ  TYR D   6      -4.600  -0.123  -0.901  1.00 33.71 LIG 0.07  A 
ATOM     62  CE2 TYR D   6      -5.484  -0.913  -0.196  1.00 32.90 LIG 0.04  A 
ATOM     63  CD2 TYR D   6      -5.060  -1.551   0.956  1.00 31.58 LIG 0.01  A 
BRANCH 61 64
ATOM     64 OH   TYR D   6      -5.016   0.514  -2.049  1.00 34.88 LIG-0.36  OA
ATOM     65 HH   TYR D   6      -4.364   0.910  -2.401  1.00 34.88 LIG 0.22  HD
ENDBRANCH 61 64
ENDBRANCH 57 58
ENDBRANCH 53 57
ENDBRANCH 50 53
ENDBRANCH 48 49
BRANCH 48 66
ATOM     66  CB  VAL D   5       1.013  -4.407  -0.307  1.00 31.19 LIG 0.01  C 
ATOM     67  CG1 VAL D   5      -0.281  -5.055  -0.790  1.00 32.10 LIG 0.01  C 
ATOM     68  CG2 VAL D   5       2.008  -4.289  -1.440  1.00 30.34 LIG 0.01  C 
ENDBRANCH 48 66
ENDBRANCH 45 48
ENDBRANCH 38 44
ENDBRANCH 3 38
TORSDOF 25
ENDMDL
MODEL 39
USER: ADFR SOLUTION from run 65
USER: SCORE 16.359006 LL:  -4.485 LR: -14.620 RR:   0.000 FEB:  -7.163
USER: RMSD 5.114383
USER: SEED 64
USER: STATUS no improvement in best in 8 clusters for 5 generations
USER: GENES 27
USER: genes 0 Translation |==|  0.67311 0.39538 0.57121
USER: genes 1 Rotation |==|  0.21227 0.62324 0.74403 0.80409
USER: genes 2 Torsion [N]-C--CA-[N] |==|  0.36839
USER: genes 3 Torsion [C]-CA--N-[C] |==|  0.62945
USER: genes 4 Torsion [N]-C--CA-[N] |==|  0.61672
USER: genes 5 Torsion [C]-CA--CB-[CG] |==|  0.41624
USER: genes 6 Torsion [CA]-CB--CG-[CD] |==|  0.89866
USER: genes 7 Torsion [CB]-CG--CD-[NE] |==|  0.51947
USER: genes 8 Torsion [CG]-CD--NE-[HE] |==|  0.64596
USER: genes 9 Torsion [C]-CA--N-[C] |==|  0.18001
USER: genes 10 Torsion [N]-C--CA-[N] |==|  0.95737
USER: genes 11 Torsion [C]-CA--N-[C] |==|  0.81712
USER: genes 12 Torsion [C]-CA--CB-[CG2] |==|  0.12943
USER: genes 13 Torsion [CA]-CB--OG1-[HG1] |==|  0.07436
USER: genes 14 Torsion [C]-N--CA-[CB] |==|  0.40362
USER: genes 15 Torsion [N]-CA--CB-[CG] |==|  0.63980
USER: genes 16 Torsion [CA]-CB--CG-[CD] |==|  0.55141
USER: genes 17 Torsion [CB]-CG--CD-[OE2] |==|  0.57273
USER: genes 18 Torsion [N]-CA--C-[N] |==|  0.18823
USER: genes 19 Torsion [C]-N--CA-[CB] |==|  0.86466
USER: genes 20 Torsion [N]-CA--C-[N] |==|  0.36215
USER: genes 21 Torsion [C]-N--CA-[C] |==|  0.81266
USER: genes 22 Torsion [N]-CA--C-[N] |==|  0.39161
USER: genes 23 Torsion [N]-CA--CB-[CG] |==|  0.17127
USER: genes 24 Torsion [CA]-CB--CG-[CD1] |==|  0.40529
USER: genes 25 Torsion [CE1]-CZ--OH-[HH] |==|  0.18687
USER: genes 26 Torsion [N]-CA--CB-[CG1] |==|  0.51727
ROOT
ATOM      1  C   THR D   3       7.635   1.465  -3.644  1.00 23.43 LIG 0.24  C 
ATOM      2 O    THR D   3       8.503   2.284  -3.344  1.00 24.39 LIG-0.27  OA
ATOM      3  N   GLU D   4       7.902   0.189  -3.909  1.00 25.01 LIG-0.35  N 
ATOM      4 H    GLU D   4       7.299  -0.396  -4.093  1.00 25.01 LIG 0.16  HD
ENDROOT
BRANCH 1 5
ATOM      5  CA  THR D   3       6.165   1.884  -3.730  1.00 20.85 LIG 0.20  C 
BRANCH 5 6
ATOM      6  N   THR D   3       5.738   2.665  -2.576  1.00 20.16 LIG-0.34  N 
ATOM      7 H    THR D   3       6.281   3.294  -2.353  1.00 20.16 LIG 0.16  HD
ATOM      8  C   ARG D   2       4.600   2.409  -1.937  1.00 20.73 LIG 0.24  C 
ATOM      9 O    ARG D   2       3.857   1.472  -2.234  1.00 19.88 LIG-0.27  OA
BRANCH 8 10
ATOM     10  CA  ARG D   2       4.262   3.336  -0.774  1.00 21.07 LIG 0.18  C 
BRANCH 10 11
ATOM     11  CB  ARG D   2       5.489   4.169  -0.376  1.00 18.72 LIG 0.04  C 
BRANCH 11 12
ATOM     12  CG  ARG D   2       5.144   5.547   0.198  1.00 17.25 LIG 0.02  C 
BRANCH 12 13
ATOM     13  CD  ARG D   2       3.932   6.165  -0.498  1.00 15.57 LIG 0.14  C 
BRANCH 13 14
ATOM     14  NE  ARG D   2       3.693   7.542  -0.075  1.00 16.78 LIG-0.23  N 
ATOM     15 HE   ARG D   2       2.905   7.746   0.202  1.00 16.78 LIG 0.18  HD
ATOM     16  CZ  ARG D   2       4.614   8.501  -0.092  1.00 18.57 LIG 0.67  C 
ATOM     17  NH2 ARG D   2       4.306   9.727   0.310  1.00 17.94 LIG-0.23  N 
ATOM     18  NH1 ARG D   2       5.847   8.233  -0.506  1.00 16.85 LIG-0.23  N 
ATOM     19 1HH2 ARG D   2       3.509   9.903   0.582  1.00 17.94 LIG 0.17  HD
ATOM     20 2HH2 ARG D   2       4.902  10.346   0.299  1.00 17.94 LIG 0.17  HD
ATOM     21 2HH1 ARG D   2       6.441   8.855  -0.515  1.00 16.85 LIG 0.17  HD
ATOM     22 1HH1 ARG D   2       6.051   7.439  -0.764  1.00 16.85 LIG 0.17  HD
ENDBRANCH 13 14
ENDBRANCH 12 13
ENDBRANCH 11 12
ENDBRANCH 10 11
BRANCH 10 23
ATOM     23  N   ARG D   2       3.734   2.597   0.373  1.00 21.51 LIG-0.35  N 
ATOM     24  C   ALA D   1       4.487   1.723   1.034  1.00 21.30 LIG 0.24  C 
ATOM     25 O    ALA D   1       5.671   1.533   0.766  1.00 21.16 LIG-0.27  OA
ATOM     26 H    ARG D   2       2.917   2.779   0.571  1.00 21.51 LIG 0.16  HD
BRANCH 24 27
ATOM     27  CA  ALA D   1       3.818   0.953   2.172  1.00 21.78 LIG 0.17  C 
ATOM     28  CB  ALA D   1       3.612  -0.501   1.779  1.00 21.47 LIG 0.04  C 
BRANCH 27 29
ATOM     29  N   ALA D   1       2.551   1.552   2.588  1.00 22.15 LIG-0.35  N 
ATOM     30 H    ALA D   1       1.866   1.057   2.428  1.00 22.15 LIG 0.16  HD
ATOM     31  C   ACE D   0       2.464   2.750   3.160  1.00 22.99 LIG 0.21  C 
ATOM     32 O    ACE D   0       3.316   3.635   3.063  1.00 24.10 LIG-0.27  OA
ATOM     33  CH3 ACE D   0       1.057   3.037   3.594  1.00 21.14 LIG 0.12  C 
ENDBRANCH 27 29
ENDBRANCH 24 27
ENDBRANCH 10 23
ENDBRANCH 8 10
ENDBRANCH 5 6
BRANCH 5 34
ATOM     34  CB  THR D   3       5.918   2.656  -5.040  1.00 19.16 LIG 0.15  C 
ATOM     35  CG2 THR D   3       6.551   1.920  -6.208  1.00 17.08 LIG 0.04  C 
BRANCH 34 36
ATOM     36 OG1  THR D   3       4.507   2.776  -5.270  1.00 20.38 LIG-0.39  OA
ATOM     37 HG1  THR D   3       4.100   2.752  -4.536  1.00 20.38 LIG 0.21  HD
ENDBRANCH 34 36
ENDBRANCH 5 34
ENDBRANCH 1 5
BRANCH 3 38
ATOM     38  CA  GLU D   4       9.264  -0.338  -3.911  1.00 28.82 LIG 0.18  C 
BRANCH 38 39
ATOM     39  CB  GLU D   4       9.284  -1.780  -3.396  1.00 31.32 LIG 0.04  C 
BRANCH 39 40
ATOM     40  CG  GLU D   4      10.307  -2.046  -2.303  1.00 34.96 LIG 0.12  C 
BRANCH 40 41
ATOM     41  CD  GLU D   4      10.611  -3.522  -2.138  1.00 38.68 LIG 0.17  C 
ATOM     42 OE2  GLU D   4      11.009  -3.928  -1.026  1.00 39.24 LIG-0.65  OA
ATOM     43 OE1  GLU D   4      10.456  -4.276  -3.121  1.00 40.65 LIG-0.65  OA
ENDBRANCH 40 41
ENDBRANCH 39 40
ENDBRANCH 38 39
BRANCH 38 44
ATOM     44  C   GLU D   4       9.848  -0.295  -5.321  1.00 29.37 LIG 0.24  C 
ATOM     45  N   VAL D   5      10.082   0.911  -5.830  1.00 31.15 LIG-0.35  N 
ATOM     46 H    VAL D   5       9.900   1.647  -5.424  1.00 31.15 LIG 0.16  HD
ATOM     47 O    GLU D   4      10.089  -1.338  -5.930  1.00 28.00 LIG-0.27  OA
BRANCH 45 48
ATOM     48  CA  VAL D   5      10.682   1.083  -7.150  1.00 31.02 LIG 0.18  C 
BRANCH 48 49
ATOM     49  C   VAL D   5       9.711   0.728  -8.272  1.00 31.80 LIG 0.24  C 
ATOM     50  N   TYR D   6       9.586   1.621  -9.250  1.00 29.63 LIG-0.35  N 
ATOM     51 H    TYR D   6       9.974   2.389  -9.248  1.00 29.63 LIG 0.16  HD
ATOM     52 O    VAL D   5       9.093  -0.338  -8.254  1.00 32.83 LIG-0.27  OA
BRANCH 50 53
ATOM     53  CA  TYR D   6       8.766   1.370 -10.427  1.00 30.54 LIG 0.18  C 
BRANCH 53 54
ATOM     54  C   TYR D   6       9.388   0.257 -11.263  1.00 31.23 LIG 0.28  C 
ATOM     55  N   NH2 D   7       8.541  -0.607 -11.814  1.00 33.55 LIG-0.11  N 
ATOM     56 O    TYR D   6      10.610   0.177 -11.396  1.00 28.81 LIG-0.27  OA
ENDBRANCH 53 54
BRANCH 53 57
ATOM     57  CB  TYR D   6       8.620   2.650 -11.257  1.00 30.33 LIG 0.07  C 
BRANCH 57 58
ATOM     58  CG  TYR D   6       9.920   3.214 -11.800  1.00 31.81 LIG-0.06  A 
ATOM     59  CD1 TYR D   6       9.964   3.851 -13.033  1.00 31.47 LIG 0.01  A 
ATOM     60  CE1 TYR D   6      11.146   4.373 -13.524  1.00 32.87 LIG 0.04  A 
ATOM     61  CZ  TYR D   6      12.300   4.272 -12.778  1.00 33.71 LIG 0.07  A 
ATOM     62  CE2 TYR D   6      12.281   3.652 -11.546  1.00 32.90 LIG 0.04  A 
ATOM     63  CD2 TYR D   6      11.093   3.133 -11.062  1.00 31.58 LIG 0.01  A 
BRANCH 61 64
ATOM     64 OH   TYR D   6      13.478   4.791 -13.265  1.00 34.88 LIG-0.36  OA
ATOM     65 HH   TYR D   6      13.423   5.629 -13.298  1.00 34.88 LIG 0.22  HD
ENDBRANCH 61 64
ENDBRANCH 57 58
ENDBRANCH 53 57
ENDBRANCH 50 53
ENDBRANCH 48 49
BRANCH 48 66
ATOM     66  CB  VAL D   5      11.941   0.210  -7.326  1.00 31.19 LIG 0.01  C 
ATOM     67  CG1 VAL D   5      12.622   0.532  -8.652  1.00 32.10 LIG 0.01  C 
ATOM     68  CG2 VAL D   5      12.896   0.411  -6.170  1.00 30.34 LIG 0.01  C 
ENDBRANCH 48 66
ENDBRANCH 45 48
ENDBRANCH 38 44
ENDBRANCH 3 38
TORSDOF 25
ENDMDL
MODEL 40
USER: ADFR SOLUTION from run 105
USER: SCORE 18.113626 LL:  -5.850 LR: -14.620 RR:   0.000 FEB:  -7.162
USER: RMSD 10.506803
USER: SEED 104
USER: STATUS no improvement in best in 7 clusters for 5 generations
USER: GENES 27
USER: genes 0 Translation |==|  0.55859 0.43404 0.47798
USER: genes 1 Rotation |==|  0.08298 0.39853 0.26994 0.61346
USER: genes 2 Torsion [N]-C--CA-[N] |==|  0.40771
USER: genes 3 Torsion [C]-CA--N-[C] |==|  0.73437
USER: genes 4 Torsion [N]-C--CA-[N] |==|  0.13034
USER: genes 5 Torsion [C]-CA--CB-[CG] |==|  0.61526
USER: genes 6 Torsion [CA]-CB--CG-[CD] |==|  0.51238
USER: genes 7 Torsion [CB]-CG--CD-[NE] |==|  0.11096
USER: genes 8 Torsion [CG]-CD--NE-[HE] |==|  0.83917
USER: genes 9 Torsion [C]-CA--N-[C] |==|  0.12947
USER: genes 10 Torsion [N]-C--CA-[N] |==|  0.31019
USER: genes 11 Torsion [C]-CA--N-[C] |==|  0.56667
USER: genes 12 Torsion [C]-CA--CB-[CG2] |==|  0.49588
USER: genes 13 Torsion [CA]-CB--OG1-[HG1] |==|  0.99181
USER: genes 14 Torsion [C]-N--CA-[CB] |==|  0.51561
USER: genes 15 Torsion [N]-CA--CB-[CG] |==|  0.03007
USER: genes 16 Torsion [CA]-CB--CG-[CD] |==|  0.21641
USER: genes 17 Torsion [CB]-CG--CD-[OE2] |==|  0.75692
USER: genes 18 Torsion [N]-CA--C-[N] |==|  0.87061
USER: genes 19 Torsion [C]-N--CA-[CB] |==|  0.86934
USER: genes 20 Torsion [N]-CA--C-[N] |==|  0.86912
USER: genes 21 Torsion [C]-N--CA-[C] |==|  0.68894
USER: genes 22 Torsion [N]-CA--C-[N] |==|  0.37885
USER: genes 23 Torsion [N]-CA--CB-[CG] |==|  0.89773
USER: genes 24 Torsion [CA]-CB--CG-[CD1] |==|  0.77720
USER: genes 25 Torsion [CE1]-CZ--OH-[HH] |==|  0.18763
USER: genes 26 Torsion [N]-CA--CB-[CG1] |==|  0.46866
ROOT
ATOM      1  C   THR D   3       5.402   2.364  -5.951  1.00 23.43 LIG 0.24  C 
ATOM      2 O    THR D   3       5.428   3.577  -5.748  1.00 24.39 LIG-0.27  OA
ATOM      3  N   GLU D   4       4.511   1.554  -5.385  1.00 25.01 LIG-0.35  N 
ATOM      4 H    GLU D   4       4.469   0.709  -5.542  1.00 25.01 LIG 0.16  HD
ENDROOT
BRANCH 1 5
ATOM      5  CA  THR D   3       6.420   1.708  -6.887  1.00 20.85 LIG 0.20  C 
BRANCH 5 6
ATOM      6  N   THR D   3       6.806   2.578  -7.991  1.00 20.16 LIG-0.34  N 
ATOM      7 H    THR D   3       7.434   3.134  -7.801  1.00 20.16 LIG 0.16  HD
ATOM      8  C   ARG D   2       6.221   2.502  -9.182  1.00 20.73 LIG 0.24  C 
ATOM      9 O    ARG D   2       5.284   1.738  -9.426  1.00 19.88 LIG-0.27  OA
BRANCH 8 10
ATOM     10  CA  ARG D   2       6.757   3.446 -10.253  1.00 21.07 LIG 0.18  C 
BRANCH 10 11
ATOM     11  CB  ARG D   2       6.153   3.105 -11.623  1.00 18.72 LIG 0.04  C 
BRANCH 11 12
ATOM     12  CG  ARG D   2       7.158   3.162 -12.777  1.00 17.25 LIG 0.02  C 
BRANCH 12 13
ATOM     13  CD  ARG D   2       6.485   2.923 -14.128  1.00 15.57 LIG 0.14  C 
BRANCH 13 14
ATOM     14  NE  ARG D   2       5.186   3.581 -14.225  1.00 16.78 LIG-0.23  N 
ATOM     15 HE   ARG D   2       4.588   3.378 -13.641  1.00 16.78 LIG 0.18  HD
ATOM     16  CZ  ARG D   2       4.868   4.475 -15.157  1.00 18.57 LIG 0.67  C 
ATOM     17  NH2 ARG D   2       3.659   5.022 -15.169  1.00 17.94 LIG-0.23  N 
ATOM     18  NH1 ARG D   2       5.759   4.826 -16.075  1.00 16.85 LIG-0.23  N 
ATOM     19 1HH2 ARG D   2       3.079   4.799 -14.573  1.00 17.94 LIG 0.17  HD
ATOM     20 2HH2 ARG D   2       3.454   5.599 -15.772  1.00 17.94 LIG 0.17  HD
ATOM     21 2HH1 ARG D   2       5.551   5.405 -16.677  1.00 16.85 LIG 0.17  HD
ATOM     22 1HH1 ARG D   2       6.544   4.476 -16.068  1.00 16.85 LIG 0.17  HD
ENDBRANCH 13 14
ENDBRANCH 12 13
ENDBRANCH 11 12
ENDBRANCH 10 11
BRANCH 10 23
ATOM     23  N   ARG D   2       8.219   3.432 -10.306  1.00 21.51 LIG-0.35  N 
ATOM     24  C   ALA D   1       8.897   2.288 -10.305  1.00 21.30 LIG 0.24  C 
ATOM     25 O    ALA D   1       8.344   1.192 -10.324  1.00 21.16 LIG-0.27  OA
ATOM     26 H    ARG D   2       8.584   4.210 -10.337  1.00 21.51 LIG 0.16  HD
BRANCH 24 27
ATOM     27  CA  ALA D   1      10.422   2.386 -10.291  1.00 21.78 LIG 0.17  C 
ATOM     28  CB  ALA D   1      11.013   1.621 -11.464  1.00 21.47 LIG 0.04  C 
BRANCH 27 29
ATOM     29  N   ALA D   1      11.004   1.920  -9.033  1.00 22.15 LIG-0.35  N 
ATOM     30 H    ALA D   1      10.502   1.367  -8.605  1.00 22.15 LIG 0.16  HD
ATOM     31  C   ACE D   0      12.196   2.311  -8.591  1.00 22.99 LIG 0.21  C 
ATOM     32 O    ACE D   0      12.764   3.349  -8.939  1.00 24.10 LIG-0.27  OA
ATOM     33  CH3 ACE D   0      12.579   1.566  -7.348  1.00 21.14 LIG 0.12  C 
ENDBRANCH 27 29
ENDBRANCH 24 27
ENDBRANCH 10 23
ENDBRANCH 8 10
ENDBRANCH 5 6
BRANCH 5 34
ATOM     34  CB  THR D   3       7.655   1.257  -6.084  1.00 19.16 LIG 0.15  C 
ATOM     35  CG2 THR D   3       8.654   0.573  -7.001  1.00 17.08 LIG 0.04  C 
BRANCH 34 36
ATOM     36 OG1  THR D   3       8.278   2.397  -5.477  1.00 20.38 LIG-0.39  OA
ATOM     37 HG1  THR D   3       7.873   3.095  -5.710  1.00 20.38 LIG 0.21  HD
ENDBRANCH 34 36
ENDBRANCH 5 34
ENDBRANCH 1 5
BRANCH 3 38
ATOM     38  CA  GLU D   4       3.512   2.035  -4.435  1.00 28.82 LIG 0.18  C 
BRANCH 38 39
ATOM     39  CB  GLU D   4       2.720   0.862  -3.848  1.00 31.32 LIG 0.04  C 
BRANCH 39 40
ATOM     40  CG  GLU D   4       3.296  -0.509  -4.163  1.00 34.96 LIG 0.12  C 
BRANCH 40 41
ATOM     41  CD  GLU D   4       4.492  -0.850  -3.296  1.00 38.68 LIG 0.17  C 
ATOM     42 OE2  GLU D   4       5.626  -0.491  -3.677  1.00 39.24 LIG-0.65  OA
ATOM     43 OE1  GLU D   4       4.299  -1.482  -2.237  1.00 40.65 LIG-0.65  OA
ENDBRANCH 40 41
ENDBRANCH 39 40
ENDBRANCH 38 39
BRANCH 38 44
ATOM     44  C   GLU D   4       4.185   2.808  -3.304  1.00 29.37 LIG 0.24  C 
ATOM     45  N   VAL D   5       5.257   2.244  -2.755  1.00 31.15 LIG-0.35  N 
ATOM     46 H    VAL D   5       5.563   1.473  -2.981  1.00 31.15 LIG 0.16  HD
ATOM     47 O    GLU D   4       3.745   3.901  -2.946  1.00 28.00 LIG-0.27  OA
BRANCH 45 48
ATOM     48  CA  VAL D   5       6.016   2.907  -1.697  1.00 31.02 LIG 0.18  C 
BRANCH 48 49
ATOM     49  C   VAL D   5       5.280   2.881  -0.361  1.00 31.80 LIG 0.24  C 
ATOM     50  N   TYR D   6       3.995   3.226  -0.388  1.00 29.63 LIG-0.35  N 
ATOM     51 H    TYR D   6       3.591   3.507  -1.093  1.00 29.63 LIG 0.16  HD
ATOM     52 O    VAL D   5       5.864   2.548   0.671  1.00 32.83 LIG-0.27  OA
BRANCH 50 53
ATOM     53  CA  TYR D   6       3.151   3.156   0.797  1.00 30.54 LIG 0.18  C 
BRANCH 53 54
ATOM     54  C   TYR D   6       2.105   2.061   0.623  1.00 31.23 LIG 0.28  C 
ATOM     55  N   NH2 D   7       1.899   1.273   1.673  1.00 33.55 LIG-0.11  N 
ATOM     56 O    TYR D   6       1.506   1.927  -0.445  1.00 28.81 LIG-0.27  OA
ENDBRANCH 53 54
BRANCH 53 57
ATOM     57  CB  TYR D   6       2.478   4.510   1.051  1.00 30.33 LIG 0.07  C 
BRANCH 57 58
ATOM     58  CG  TYR D   6       3.336   5.721   0.738  1.00 31.81 LIG-0.06  A 
ATOM     59  CD1 TYR D   6       4.299   6.168   1.634  1.00 31.47 LIG 0.01  A 
ATOM     60  CE1 TYR D   6       5.088   7.265   1.345  1.00 32.87 LIG 0.04  A 
ATOM     61  CZ  TYR D   6       4.928   7.925   0.146  1.00 33.71 LIG 0.07  A 
ATOM     62  CE2 TYR D   6       3.985   7.496  -0.764  1.00 32.90 LIG 0.04  A 
ATOM     63  CD2 TYR D   6       3.200   6.396  -0.468  1.00 31.58 LIG 0.01  A 
BRANCH 61 64
ATOM     64 OH   TYR D   6       5.712   9.019  -0.144  1.00 34.88 LIG-0.36  OA
ATOM     65 HH   TYR D   6       6.509   8.773  -0.244  1.00 34.88 LIG 0.22  HD
ENDBRANCH 61 64
ENDBRANCH 57 58
ENDBRANCH 53 57
ENDBRANCH 50 53
ENDBRANCH 48 49
BRANCH 48 66
ATOM     66  CB  VAL D   5       6.312   4.380  -2.042  1.00 31.19 LIG 0.01  C 
ATOM     67  CG1 VAL D   5       6.852   5.108  -0.815  1.00 32.10 LIG 0.01  C 
ATOM     68  CG2 VAL D   5       7.288   4.474  -3.194  1.00 30.34 LIG 0.01  C 
ENDBRANCH 48 66
ENDBRANCH 45 48
ENDBRANCH 38 44
ENDBRANCH 3 38
TORSDOF 25
ENDMDL
MODEL 41
USER: ADFR SOLUTION from run 157
USER: SCORE 18.034684 LL:  -6.450 LR: -14.609 RR:   0.000 FEB:  -7.152
USER: RMSD 5.100008
USER: SEED 156
USER: STATUS searching
USER: GENES 27
USER: genes 0 Translation |==|  0.53610 0.42819 0.61343
USER: genes 1 Rotation |==|  0.51607 0.97236 0.60728 0.62292
USER: genes 2 Torsion [N]-C--CA-[N] |==|  0.92050
USER: genes 3 Torsion [C]-CA--N-[C] |==|  0.84978
USER: genes 4 Torsion [N]-C--CA-[N] |==|  0.65244
USER: genes 5 Torsion [C]-CA--CB-[CG] |==|  0.42780
USER: genes 6 Torsion [CA]-CB--CG-[CD] |==|  0.68056
USER: genes 7 Torsion [CB]-CG--CD-[NE] |==|  0.30587
USER: genes 8 Torsion [CG]-CD--NE-[HE] |==|  0.06888
USER: genes 9 Torsion [C]-CA--N-[C] |==|  0.17747
USER: genes 10 Torsion [N]-C--CA-[N] |==|  0.22282
USER: genes 11 Torsion [C]-CA--N-[C] |==|  0.73065
USER: genes 12 Torsion [C]-CA--CB-[CG2] |==|  0.25641
USER: genes 13 Torsion [CA]-CB--OG1-[HG1] |==|  0.42409
USER: genes 14 Torsion [C]-N--CA-[CB] |==|  0.52876
USER: genes 15 Torsion [N]-CA--CB-[CG] |==|  0.67741
USER: genes 16 Torsion [CA]-CB--CG-[CD] |==|  0.31546
USER: genes 17 Torsion [CB]-CG--CD-[OE2] |==|  0.96483
USER: genes 18 Torsion [N]-CA--C-[N] |==|  0.87957
USER: genes 19 Torsion [C]-N--CA-[CB] |==|  0.50007
USER: genes 20 Torsion [N]-CA--C-[N] |==|  0.37222
USER: genes 21 Torsion [C]-N--CA-[C] |==|  0.54319
USER: genes 22 Torsion [N]-CA--C-[N] |==|  0.44171
USER: genes 23 Torsion [N]-CA--CB-[CG] |==|  0.74665
USER: genes 24 Torsion [CA]-CB--CG-[CD1] |==|  0.82504
USER: genes 25 Torsion [CE1]-CZ--OH-[HH] |==|  0.31762
USER: genes 26 Torsion [N]-CA--CB-[CG1] |==|  0.90910
ROOT
ATOM      1  C   THR D   3       4.963   2.227  -2.599  1.00 23.43 LIG 0.24  C 
ATOM      2 O    THR D   3       4.996   1.604  -3.659  1.00 24.39 LIG-0.27  OA
ATOM      3  N   GLU D   4       4.377   1.759  -1.501  1.00 25.01 LIG-0.35  N 
ATOM      4 H    GLU D   4       4.372   2.176  -0.749  1.00 25.01 LIG 0.16  HD
ENDROOT
BRANCH 1 5
ATOM      5  CA  THR D   3       5.609   3.611  -2.488  1.00 20.85 LIG 0.20  C 
BRANCH 5 6
ATOM      6  N   THR D   3       4.955   4.456  -1.496  1.00 20.16 LIG-0.34  N 
ATOM      7 H    THR D   3       5.486   4.780  -0.903  1.00 20.16 LIG 0.16  HD
ATOM      8  C   ARG D   2       3.647   4.690  -1.525  1.00 20.73 LIG 0.24  C 
ATOM      9 O    ARG D   2       2.888   4.175  -2.349  1.00 19.88 LIG-0.27  OA
BRANCH 8 10
ATOM     10  CA  ARG D   2       3.110   5.627  -0.448  1.00 21.07 LIG 0.18  C 
BRANCH 10 11
ATOM     11  CB  ARG D   2       4.245   6.090   0.476  1.00 18.72 LIG 0.04  C 
BRANCH 11 12
ATOM     12  CG  ARG D   2       3.986   7.442   1.148  1.00 17.25 LIG 0.02  C 
BRANCH 12 13
ATOM     13  CD  ARG D   2       4.981   8.506   0.686  1.00 15.57 LIG 0.14  C 
BRANCH 13 14
ATOM     14  NE  ARG D   2       4.355   9.524  -0.152  1.00 16.78 LIG-0.23  N 
ATOM     15 HE   ARG D   2       3.510   9.656  -0.060  1.00 16.78 LIG 0.18  HD
ATOM     16  CZ  ARG D   2       5.007  10.260  -1.047  1.00 18.57 LIG 0.67  C 
ATOM     17  NH2 ARG D   2       4.355  11.164  -1.768  1.00 17.94 LIG-0.23  N 
ATOM     18  NH1 ARG D   2       6.313  10.098  -1.219  1.00 16.85 LIG-0.23  N 
ATOM     19 1HH2 ARG D   2       3.509  11.275  -1.656  1.00 17.94 LIG 0.17  HD
ATOM     20 2HH2 ARG D   2       4.778  11.639  -2.346  1.00 17.94 LIG 0.17  HD
ATOM     21 2HH1 ARG D   2       6.733  10.575  -1.799  1.00 16.85 LIG 0.17  HD
ATOM     22 1HH1 ARG D   2       6.739   9.516  -0.752  1.00 16.85 LIG 0.17  HD
ENDBRANCH 13 14
ENDBRANCH 12 13
ENDBRANCH 11 12
ENDBRANCH 10 11
BRANCH 10 23
ATOM     23  N   ARG D   2       2.027   5.010   0.318  1.00 21.51 LIG-0.35  N 
ATOM     24  C   ALA D   1       2.241   3.932   1.066  1.00 21.30 LIG 0.24  C 
ATOM     25 O    ALA D   1       3.355   3.436   1.208  1.00 21.16 LIG-0.27  OA
ATOM     26 H    ARG D   2       1.265   5.401   0.239  1.00 21.51 LIG 0.16  HD
BRANCH 24 27
ATOM     27  CA  ALA D   1       1.027   3.324   1.769  1.00 21.78 LIG 0.17  C 
ATOM     28  CB  ALA D   1       1.464   2.534   2.992  1.00 21.47 LIG 0.04  C 
BRANCH 27 29
ATOM     29  N   ALA D   1       0.223   2.486   0.881  1.00 22.15 LIG-0.35  N 
ATOM     30 H    ALA D   1       0.523   1.684   0.801  1.00 22.15 LIG 0.16  HD
ATOM     31  C   ACE D   0      -0.867   2.921   0.256  1.00 22.99 LIG 0.21  C 
ATOM     32 O    ACE D   0      -1.115   4.107   0.026  1.00 24.10 LIG-0.27  OA
ATOM     33  CH3 ACE D   0      -1.550   1.803  -0.474  1.00 21.14 LIG 0.12  C 
ENDBRANCH 27 29
ENDBRANCH 24 27
ENDBRANCH 10 23
ENDBRANCH 8 10
ENDBRANCH 5 6
BRANCH 5 34
ATOM     34  CB  THR D   3       7.111   3.465  -2.184  1.00 19.16 LIG 0.15  C 
ATOM     35  CG2 THR D   3       7.908   3.453  -3.478  1.00 17.08 LIG 0.04  C 
BRANCH 34 36
ATOM     36 OG1  THR D   3       7.549   4.564  -1.374  1.00 20.38 LIG-0.39  OA
ATOM     37 HG1  THR D   3       8.207   4.325  -0.910  1.00 20.38 LIG 0.21  HD
ENDBRANCH 34 36
ENDBRANCH 5 34
ENDBRANCH 1 5
BRANCH 3 38
ATOM     38  CA  GLU D   4       3.681   0.475  -1.476  1.00 28.82 LIG 0.18  C 
BRANCH 38 39
ATOM     39  CB  GLU D   4       2.895   0.315  -0.170  1.00 31.32 LIG 0.04  C 
BRANCH 39 40
ATOM     40  CG  GLU D   4       3.369  -0.826   0.716  1.00 34.96 LIG 0.12  C 
BRANCH 40 41
ATOM     41  CD  GLU D   4       3.971  -0.338   2.019  1.00 38.68 LIG 0.17  C 
ATOM     42 OE2  GLU D   4       4.239   0.876   2.134  1.00 39.24 LIG-0.65  OA
ATOM     43 OE1  GLU D   4       4.180  -1.170   2.927  1.00 40.65 LIG-0.65  OA
ENDBRANCH 40 41
ENDBRANCH 39 40
ENDBRANCH 38 39
BRANCH 38 44
ATOM     44  C   GLU D   4       2.724   0.367  -2.660  1.00 29.37 LIG 0.24  C 
ATOM     45  N   VAL D   5       1.996   1.446  -2.935  1.00 31.15 LIG-0.35  N 
ATOM     46 H    VAL D   5       2.019   2.170  -2.473  1.00 31.15 LIG 0.16  HD
ATOM     47 O    GLU D   4       2.657  -0.672  -3.317  1.00 28.00 LIG-0.27  OA
BRANCH 45 48
ATOM     48  CA  VAL D   5       1.080   1.483  -4.072  1.00 31.02 LIG 0.18  C 
BRANCH 48 49
ATOM     49  C   VAL D   5       1.798   1.235  -5.396  1.00 31.80 LIG 0.24  C 
ATOM     50  N   TYR D   6       1.220   0.374  -6.228  1.00 29.63 LIG-0.35  N 
ATOM     51 H    TYR D   6       0.512  -0.075  -6.036  1.00 29.63 LIG 0.16  HD
ATOM     52 O    VAL D   5       2.851   1.818  -5.657  1.00 32.83 LIG-0.27  OA
BRANCH 50 53
ATOM     53  CA  TYR D   6       1.747   0.115  -7.561  1.00 30.54 LIG 0.18  C 
BRANCH 53 54
ATOM     54  C   TYR D   6       0.695  -0.595  -8.405  1.00 31.23 LIG 0.28  C 
ATOM     55  N   NH2 D   7       0.846  -0.514  -9.723  1.00 33.55 LIG-0.11  N 
ATOM     56 O    TYR D   6      -0.241  -1.193  -7.872  1.00 28.81 LIG-0.27  OA
ENDBRANCH 53 54
BRANCH 53 57
ATOM     57  CB  TYR D   6       3.025  -0.727  -7.473  1.00 30.33 LIG 0.07  C 
BRANCH 57 58
ATOM     58  CG  TYR D   6       4.314   0.070  -7.391  1.00 31.81 LIG-0.06  A 
ATOM     59  CD1 TYR D   6       4.709   0.902  -8.431  1.00 31.47 LIG 0.01  A 
ATOM     60  CE1 TYR D   6       5.878   1.636  -8.352  1.00 32.87 LIG 0.04  A 
ATOM     61  CZ  TYR D   6       6.662   1.553  -7.222  1.00 33.71 LIG 0.07  A 
ATOM     62  CE2 TYR D   6       6.287   0.741  -6.172  1.00 32.90 LIG 0.04  A 
ATOM     63  CD2 TYR D   6       5.115   0.011  -6.258  1.00 31.58 LIG 0.01  A 
BRANCH 61 64
ATOM     64 OH   TYR D   6       7.826   2.283  -7.142  1.00 34.88 LIG-0.36  OA
ATOM     65 HH   TYR D   6       7.754   2.859  -6.534  1.00 34.88 LIG 0.22  HD
ENDBRANCH 61 64
ENDBRANCH 57 58
ENDBRANCH 53 57
ENDBRANCH 50 53
ENDBRANCH 48 49
BRANCH 48 66
ATOM     66  CB  VAL D   5       0.354   2.838  -4.179  1.00 31.19 LIG 0.01  C 
ATOM     67  CG1 VAL D   5       0.124   3.422  -2.789  1.00 32.10 LIG 0.01  C 
ATOM     68  CG2 VAL D   5       1.142   3.801  -5.041  1.00 30.34 LIG 0.01  C 
ENDBRANCH 48 66
ENDBRANCH 45 48
ENDBRANCH 38 44
ENDBRANCH 3 38
TORSDOF 25
ENDMDL
MODEL 42
USER: ADFR SOLUTION from run 136
USER: SCORE 17.616115 LL:  -5.368 LR: -14.596 RR:   0.000 FEB:  -7.139
USER: RMSD 4.071631
USER: SEED 135
USER: STATUS no improvement in best in 3 clusters for 5 generations
USER: GENES 27
USER: genes 0 Translation |==|  0.60997 0.27358 0.64015
USER: genes 1 Rotation |==|  0.18123 0.71027 0.77791 0.66413
USER: genes 2 Torsion [N]-C--CA-[N] |==|  0.47448
USER: genes 3 Torsion [C]-CA--N-[C] |==|  0.16142
USER: genes 4 Torsion [N]-C--CA-[N] |==|  0.74673
USER: genes 5 Torsion [C]-CA--CB-[CG] |==|  0.33002
USER: genes 6 Torsion [CA]-CB--CG-[CD] |==|  0.49595
USER: genes 7 Torsion [CB]-CG--CD-[NE] |==|  0.75675
USER: genes 8 Torsion [CG]-CD--NE-[HE] |==|  0.18910
USER: genes 9 Torsion [C]-CA--N-[C] |==|  0.66113
USER: genes 10 Torsion [N]-C--CA-[N] |==|  0.92164
USER: genes 11 Torsion [C]-CA--N-[C] |==|  0.83333
USER: genes 12 Torsion [C]-CA--CB-[CG2] |==|  0.57092
USER: genes 13 Torsion [CA]-CB--OG1-[HG1] |==|  0.89278
USER: genes 14 Torsion [C]-N--CA-[CB] |==|  0.55575
USER: genes 15 Torsion [N]-CA--CB-[CG] |==|  0.70138
USER: genes 16 Torsion [CA]-CB--CG-[CD] |==|  0.83683
USER: genes 17 Torsion [CB]-CG--CD-[OE2] |==|  0.36156
USER: genes 18 Torsion [N]-CA--C-[N] |==|  0.29334
USER: genes 19 Torsion [C]-N--CA-[CB] |==|  0.85000
USER: genes 20 Torsion [N]-CA--C-[N] |==|  0.36990
USER: genes 21 Torsion [C]-N--CA-[C] |==|  0.17516
USER: genes 22 Torsion [N]-CA--C-[N] |==|  0.11533
USER: genes 23 Torsion [N]-CA--CB-[CG] |==|  0.60937
USER: genes 24 Torsion [CA]-CB--CG-[CD1] |==|  0.29618
USER: genes 25 Torsion [CE1]-CZ--OH-[HH] |==|  0.13078
USER: genes 26 Torsion [N]-CA--CB-[CG1] |==|  0.53251
ROOT
ATOM      1  C   THR D   3       6.403  -1.367  -1.937  1.00 23.43 LIG 0.24  C 
ATOM      2 O    THR D   3       7.063  -0.451  -2.428  1.00 24.39 LIG-0.27  OA
ATOM      3  N   GLU D   4       6.918  -2.561  -1.655  1.00 25.01 LIG-0.35  N 
ATOM      4 H    GLU D   4       6.471  -3.197  -1.288  1.00 25.01 LIG 0.16  HD
ENDROOT
BRANCH 1 5
ATOM      5  CA  THR D   3       4.918  -1.174  -1.622  1.00 20.85 LIG 0.20  C 
BRANCH 5 6
ATOM      6  N   THR D   3       4.492   0.213  -1.760  1.00 20.16 LIG-0.34  N 
ATOM      7 H    THR D   3       4.155   0.552  -1.046  1.00 20.16 LIG 0.16  HD
ATOM      8  C   ARG D   2       4.626   0.878  -2.904  1.00 20.73 LIG 0.24  C 
ATOM      9 O    ARG D   2       5.063   0.364  -3.935  1.00 19.88 LIG-0.27  OA
BRANCH 8 10
ATOM     10  CA  ARG D   2       4.177   2.335  -2.887  1.00 21.07 LIG 0.18  C 
BRANCH 10 11
ATOM     11  CB  ARG D   2       4.432   2.962  -1.510  1.00 18.72 LIG 0.04  C 
BRANCH 11 12
ATOM     12  CG  ARG D   2       5.400   4.149  -1.537  1.00 17.25 LIG 0.02  C 
BRANCH 12 13
ATOM     13  CD  ARG D   2       5.592   4.757  -0.149  1.00 15.57 LIG 0.14  C 
BRANCH 13 14
ATOM     14  NE  ARG D   2       4.591   5.777   0.153  1.00 16.78 LIG-0.23  N 
ATOM     15 HE   ARG D   2       3.776   5.522   0.256  1.00 16.78 LIG 0.18  HD
ATOM     16  CZ  ARG D   2       4.859   7.073   0.279  1.00 18.57 LIG 0.67  C 
ATOM     17  NH2 ARG D   2       3.884   7.931   0.553  1.00 17.94 LIG-0.23  N 
ATOM     18  NH1 ARG D   2       6.103   7.514   0.136  1.00 16.85 LIG-0.23  N 
ATOM     19 1HH2 ARG D   2       3.077   7.648   0.651  1.00 17.94 LIG 0.17  HD
ATOM     20 2HH2 ARG D   2       4.058   8.768   0.635  1.00 17.94 LIG 0.17  HD
ATOM     21 2HH1 ARG D   2       6.274   8.353   0.218  1.00 16.85 LIG 0.17  HD
ATOM     22 1HH1 ARG D   2       6.737   6.961  -0.039  1.00 16.85 LIG 0.17  HD
ENDBRANCH 13 14
ENDBRANCH 12 13
ENDBRANCH 11 12
ENDBRANCH 10 11
BRANCH 10 23
ATOM     23  N   ARG D   2       2.773   2.475  -3.276  1.00 21.51 LIG-0.35  N 
ATOM     24  C   ALA D   1       2.418   3.230  -4.311  1.00 21.30 LIG 0.24  C 
ATOM     25 O    ALA D   1       3.238   3.794  -5.031  1.00 21.16 LIG-0.27  OA
ATOM     26 H    ARG D   2       2.220   2.036  -2.785  1.00 21.51 LIG 0.16  HD
BRANCH 24 27
ATOM     27  CA  ALA D   1       0.921   3.366  -4.589  1.00 21.78 LIG 0.17  C 
ATOM     28  CB  ALA D   1       0.376   4.632  -3.948  1.00 21.47 LIG 0.04  C 
BRANCH 27 29
ATOM     29  N   ALA D   1       0.158   2.201  -4.144  1.00 22.15 LIG-0.35  N 
ATOM     30 H    ALA D   1      -0.441   2.386  -3.555  1.00 22.15 LIG 0.16  HD
ATOM     31  C   ACE D   0       0.369   0.971  -4.604  1.00 22.99 LIG 0.21  C 
ATOM     32 O    ACE D   0       1.419   0.590  -5.125  1.00 24.10 LIG-0.27  OA
ATOM     33  CH3 ACE D   0      -0.650   0.013  -4.063  1.00 21.14 LIG 0.12  C 
ENDBRANCH 27 29
ENDBRANCH 24 27
ENDBRANCH 10 23
ENDBRANCH 8 10
ENDBRANCH 5 6
BRANCH 5 34
ATOM     34  CB  THR D   3       4.069  -2.103  -2.510  1.00 19.16 LIG 0.15  C 
ATOM     35  CG2 THR D   3       2.676  -1.525  -2.689  1.00 17.08 LIG 0.04  C 
BRANCH 34 36
ATOM     36 OG1  THR D   3       4.689  -2.240  -3.796  1.00 20.38 LIG-0.39  OA
ATOM     37 HG1  THR D   3       5.014  -1.502  -4.031  1.00 20.38 LIG 0.21  HD
ENDBRANCH 34 36
ENDBRANCH 5 34
ENDBRANCH 1 5
BRANCH 3 38
ATOM     38  CA  GLU D   4       8.308  -2.900  -1.948  1.00 28.82 LIG 0.18  C 
BRANCH 38 39
ATOM     39  CB  GLU D   4       8.494  -4.420  -1.992  1.00 31.32 LIG 0.04  C 
BRANCH 39 40
ATOM     40  CG  GLU D   4       9.245  -4.998  -0.803  1.00 34.96 LIG 0.12  C 
BRANCH 40 41
ATOM     41  CD  GLU D   4      10.634  -4.409  -0.652  1.00 38.68 LIG 0.17  C 
ATOM     42 OE2  GLU D   4      10.980  -3.978   0.468  1.00 39.24 LIG-0.65  OA
ATOM     43 OE1  GLU D   4      11.378  -4.374  -1.654  1.00 40.65 LIG-0.65  OA
ENDBRANCH 40 41
ENDBRANCH 39 40
ENDBRANCH 38 39
BRANCH 38 44
ATOM     44  C   GLU D   4       8.730  -2.298  -3.286  1.00 29.37 LIG 0.24  C 
ATOM     45  N   VAL D   5       9.532  -1.238  -3.234  1.00 31.15 LIG-0.35  N 
ATOM     46 H    VAL D   5       9.794  -0.870  -2.502  1.00 31.15 LIG 0.16  HD
ATOM     47 O    GLU D   4       8.343  -2.794  -4.344  1.00 28.00 LIG-0.27  OA
BRANCH 45 48
ATOM     48  CA  VAL D   5      10.042  -0.603  -4.446  1.00 31.02 LIG 0.18  C 
BRANCH 48 49
ATOM     49  C   VAL D   5       8.933   0.065  -5.254  1.00 31.80 LIG 0.24  C 
ATOM     50  N   TYR D   6       9.177   1.301  -5.681  1.00 29.63 LIG-0.35  N 
ATOM     51 H    TYR D   6       9.886   1.744  -5.481  1.00 29.63 LIG 0.16  HD
ATOM     52 O    VAL D   5       7.882  -0.532  -5.489  1.00 32.83 LIG-0.27  OA
BRANCH 50 53
ATOM     53  CA  TYR D   6       8.245   2.020  -6.540  1.00 30.54 LIG 0.18  C 
BRANCH 53 54
ATOM     54  C   TYR D   6       6.926   2.236  -5.806  1.00 31.23 LIG 0.28  C 
ATOM     55  N   NH2 D   7       7.016   2.584  -4.527  1.00 33.55 LIG-0.11  N 
ATOM     56 O    TYR D   6       5.851   2.079  -6.386  1.00 28.81 LIG-0.27  OA
ENDBRANCH 53 54
BRANCH 53 57
ATOM     57  CB  TYR D   6       8.017   1.244  -7.842  1.00 30.33 LIG 0.07  C 
BRANCH 57 58
ATOM     58  CG  TYR D   6       7.922   2.101  -9.090  1.00 31.81 LIG-0.06  A 
ATOM     59  CD1 TYR D   6       8.959   2.138 -10.014  1.00 31.47 LIG 0.01  A 
ATOM     60  CE1 TYR D   6       8.870   2.910 -11.157  1.00 32.87 LIG 0.04  A 
ATOM     61  CZ  TYR D   6       7.731   3.650 -11.394  1.00 33.71 LIG 0.07  A 
ATOM     62  CE2 TYR D   6       6.684   3.623 -10.497  1.00 32.90 LIG 0.04  A 
ATOM     63  CD2 TYR D   6       6.781   2.847  -9.357  1.00 31.58 LIG 0.01  A 
BRANCH 61 64
ATOM     64 OH   TYR D   6       7.640   4.420 -12.531  1.00 34.88 LIG-0.36  OA
ATOM     65 HH   TYR D   6       7.882   3.968 -13.196  1.00 34.88 LIG 0.22  HD
ENDBRANCH 61 64
ENDBRANCH 57 58
ENDBRANCH 53 57
ENDBRANCH 50 53
ENDBRANCH 48 49
BRANCH 48 66
ATOM     66  CB  VAL D   5      10.751  -1.614  -5.368  1.00 31.19 LIG 0.01  C 
ATOM     67  CG1 VAL D   5      11.514  -0.879  -6.465  1.00 32.10 LIG 0.01  C 
ATOM     68  CG2 VAL D   5      11.681  -2.504  -4.573  1.00 30.34 LIG 0.01  C 
ENDBRANCH 48 66
ENDBRANCH 45 48
ENDBRANCH 38 44
ENDBRANCH 3 38
TORSDOF 25
ENDMDL
MODEL 43
USER: ADFR SOLUTION from run 163
USER: SCORE 17.049561 LL:  -5.149 LR: -14.587 RR:   0.000 FEB:  -7.129
USER: RMSD 6.693954
USER: SEED 162
USER: STATUS no improvement in best in 9 clusters for 5 generations
USER: GENES 27
USER: genes 0 Translation |==|  0.60099 0.44304 0.50880
USER: genes 1 Rotation |==|  0.59506 0.35140 0.17757 0.83900
USER: genes 2 Torsion [N]-C--CA-[N] |==|  0.46072
USER: genes 3 Torsion [C]-CA--N-[C] |==|  0.55273
USER: genes 4 Torsion [N]-C--CA-[N] |==|  0.06111
USER: genes 5 Torsion [C]-CA--CB-[CG] |==|  0.40084
USER: genes 6 Torsion [CA]-CB--CG-[CD] |==|  0.71608
USER: genes 7 Torsion [CB]-CG--CD-[NE] |==|  0.32305
USER: genes 8 Torsion [CG]-CD--NE-[HE] |==|  0.12797
USER: genes 9 Torsion [C]-CA--N-[C] |==|  0.72580
USER: genes 10 Torsion [N]-C--CA-[N] |==|  0.34640
USER: genes 11 Torsion [C]-CA--N-[C] |==|  0.80553
USER: genes 12 Torsion [C]-CA--CB-[CG2] |==|  0.82157
USER: genes 13 Torsion [CA]-CB--OG1-[HG1] |==|  0.15827
USER: genes 14 Torsion [C]-N--CA-[CB] |==|  0.25256
USER: genes 15 Torsion [N]-CA--CB-[CG] |==|  0.44476
USER: genes 16 Torsion [CA]-CB--CG-[CD] |==|  0.70110
USER: genes 17 Torsion [CB]-CG--CD-[OE2] |==|  0.22209
USER: genes 18 Torsion [N]-CA--C-[N] |==|  0.92518
USER: genes 19 Torsion [C]-N--CA-[CB] |==|  0.41216
USER: genes 20 Torsion [N]-CA--C-[N] |==|  0.93824
USER: genes 21 Torsion [C]-N--CA-[C] |==|  0.84190
USER: genes 22 Torsion [N]-CA--C-[N] |==|  0.37718
USER: genes 23 Torsion [N]-CA--CB-[CG] |==|  0.39603
USER: genes 24 Torsion [CA]-CB--CG-[CD1] |==|  0.71637
USER: genes 25 Torsion [CE1]-CZ--OH-[HH] |==|  0.26144
USER: genes 26 Torsion [N]-CA--CB-[CG1] |==|  0.33601
ROOT
ATOM      1  C   THR D   3       6.228   2.573  -5.188  1.00 23.43 LIG 0.24  C 
ATOM      2 O    THR D   3       5.060   2.211  -5.326  1.00 24.39 LIG-0.27  OA
ATOM      3  N   GLU D   4       7.138   2.471  -6.153  1.00 25.01 LIG-0.35  N 
ATOM      4 H    GLU D   4       7.949   2.745  -6.074  1.00 25.01 LIG 0.16  HD
ENDROOT
BRANCH 1 5
ATOM      5  CA  THR D   3       6.706   3.171  -3.863  1.00 20.85 LIG 0.20  C 
BRANCH 5 6
ATOM      6  N   THR D   3       5.601   3.549  -2.989  1.00 20.16 LIG-0.34  N 
ATOM      7 H    THR D   3       4.853   3.173  -3.184  1.00 20.16 LIG 0.16  HD
ATOM      8  C   ARG D   2       5.762   4.403  -1.984  1.00 20.73 LIG 0.24  C 
ATOM      9 O    ARG D   2       6.828   4.975  -1.748  1.00 19.88 LIG-0.27  OA
BRANCH 8 10
ATOM     10  CA  ARG D   2       4.527   4.670  -1.129  1.00 21.07 LIG 0.18  C 
BRANCH 10 11
ATOM     11  CB  ARG D   2       4.927   4.912   0.333  1.00 18.72 LIG 0.04  C 
BRANCH 11 12
ATOM     12  CG  ARG D   2       4.064   5.955   1.049  1.00 17.25 LIG 0.02  C 
BRANCH 12 13
ATOM     13  CD  ARG D   2       4.777   7.302   1.161  1.00 15.57 LIG 0.14  C 
BRANCH 13 14
ATOM     14  NE  ARG D   2       4.088   8.357   0.423  1.00 16.78 LIG-0.23  N 
ATOM     15 HE   ARG D   2       3.236   8.420   0.514  1.00 16.78 LIG 0.18  HD
ATOM     16  CZ  ARG D   2       4.696   9.225  -0.381  1.00 18.57 LIG 0.67  C 
ATOM     17  NH2 ARG D   2       3.988  10.152  -1.015  1.00 17.94 LIG-0.23  N 
ATOM     18  NH1 ARG D   2       6.011   9.172  -0.548  1.00 16.85 LIG-0.23  N 
ATOM     19 1HH2 ARG D   2       3.136  10.193  -0.906  1.00 17.94 LIG 0.17  HD
ATOM     20 2HH2 ARG D   2       4.382  10.713  -1.534  1.00 17.94 LIG 0.17  HD
ATOM     21 2HH1 ARG D   2       6.401   9.735  -1.068  1.00 16.85 LIG 0.17  HD
ATOM     22 1HH1 ARG D   2       6.473   8.575  -0.137  1.00 16.85 LIG 0.17  HD
ENDBRANCH 13 14
ENDBRANCH 12 13
ENDBRANCH 11 12
ENDBRANCH 10 11
BRANCH 10 23
ATOM     23  N   ARG D   2       3.549   3.587  -1.234  1.00 21.51 LIG-0.35  N 
ATOM     24  C   ALA D   1       2.498   3.685  -2.042  1.00 21.30 LIG 0.24  C 
ATOM     25 O    ALA D   1       2.322   4.647  -2.784  1.00 21.16 LIG-0.27  OA
ATOM     26 H    ARG D   2       3.717   2.904  -0.738  1.00 21.51 LIG 0.16  HD
BRANCH 24 27
ATOM     27  CA  ALA D   1       1.499   2.527  -2.024  1.00 21.78 LIG 0.17  C 
ATOM     28  CB  ALA D   1       1.549   1.765  -3.338  1.00 21.47 LIG 0.04  C 
BRANCH 27 29
ATOM     29  N   ALA D   1       0.134   2.967  -1.740  1.00 22.15 LIG-0.35  N 
ATOM     30 H    ALA D   1      -0.394   2.908  -2.417  1.00 22.15 LIG 0.16  HD
ATOM     31  C   ACE D   0      -0.256   3.415  -0.550  1.00 22.99 LIG 0.21  C 
ATOM     32 O    ACE D   0       0.502   3.874   0.307  1.00 24.10 LIG-0.27  OA
ATOM     33  CH3 ACE D   0      -1.735   3.663  -0.528  1.00 21.14 LIG 0.12  C 
ENDBRANCH 27 29
ENDBRANCH 24 27
ENDBRANCH 10 23
ENDBRANCH 8 10
ENDBRANCH 5 6
BRANCH 5 34
ATOM     34  CB  THR D   3       7.656   2.187  -3.156  1.00 19.16 LIG 0.15  C 
ATOM     35  CG2 THR D   3       6.910   0.917  -2.782  1.00 17.08 LIG 0.04  C 
BRANCH 34 36
ATOM     36 OG1  THR D   3       8.742   1.852  -4.030  1.00 20.38 LIG-0.39  OA
ATOM     37 HG1  THR D   3       9.139   2.554  -4.265  1.00 20.38 LIG 0.21  HD
ENDBRANCH 34 36
ENDBRANCH 5 34
ENDBRANCH 1 5
BRANCH 3 38
ATOM     38  CA  GLU D   4       6.834   1.875  -7.451  1.00 28.82 LIG 0.18  C 
BRANCH 38 39
ATOM     39  CB  GLU D   4       6.357   2.946  -8.437  1.00 31.32 LIG 0.04  C 
BRANCH 39 40
ATOM     40  CG  GLU D   4       6.468   2.551  -9.901  1.00 34.96 LIG 0.12  C 
BRANCH 40 41
ATOM     41  CD  GLU D   4       7.585   3.284 -10.617  1.00 38.68 LIG 0.17  C 
ATOM     42 OE2  GLU D   4       8.756   2.875 -10.472  1.00 39.24 LIG-0.65  OA
ATOM     43 OE1  GLU D   4       7.293   4.272 -11.323  1.00 40.65 LIG-0.65  OA
ENDBRANCH 40 41
ENDBRANCH 39 40
ENDBRANCH 38 39
BRANCH 38 44
ATOM     44  C   GLU D   4       8.069   1.178  -8.017  1.00 29.37 LIG 0.24  C 
ATOM     45  N   VAL D   5       9.248   1.648  -7.622  1.00 31.15 LIG-0.35  N 
ATOM     46 H    VAL D   5       9.345   2.323  -7.098  1.00 31.15 LIG 0.16  HD
ATOM     47 O    GLU D   4       7.951   0.227  -8.790  1.00 28.00 LIG-0.27  OA
BRANCH 45 48
ATOM     48  CA  VAL D   5      10.502   1.036  -8.055  1.00 31.02 LIG 0.18  C 
BRANCH 48 49
ATOM     49  C   VAL D   5      10.968  -0.057  -7.098  1.00 31.80 LIG 0.24  C 
ATOM     50  N   TYR D   6      10.494   0.004  -5.857  1.00 29.63 LIG-0.35  N 
ATOM     51 H    TYR D   6       9.998   0.643  -5.566  1.00 29.63 LIG 0.16  HD
ATOM     52 O    VAL D   5      11.735  -0.941  -7.482  1.00 32.83 LIG-0.27  OA
BRANCH 50 53
ATOM     53  CA  TYR D   6      10.782  -1.026  -4.868  1.00 30.54 LIG 0.18  C 
BRANCH 53 54
ATOM     54  C   TYR D   6      10.330  -2.386  -5.390  1.00 31.23 LIG 0.28  C 
ATOM     55  N   NH2 D   7      11.176  -3.394  -5.209  1.00 33.55 LIG-0.11  N 
ATOM     56 O    TYR D   6       9.243  -2.513  -5.954  1.00 28.81 LIG-0.27  OA
ENDBRANCH 53 54
BRANCH 53 57
ATOM     57  CB  TYR D   6      10.086  -0.699  -3.542  1.00 30.33 LIG 0.07  C 
BRANCH 57 58
ATOM     58  CG  TYR D   6       9.534  -1.898  -2.795  1.00 31.81 LIG-0.06  A 
ATOM     59  CD1 TYR D   6       8.178  -2.197  -2.821  1.00 31.47 LIG 0.01  A 
ATOM     60  CE1 TYR D   6       7.676  -3.295  -2.149  1.00 32.87 LIG 0.04  A 
ATOM     61  CZ  TYR D   6       8.532  -4.117  -1.447  1.00 33.71 LIG 0.07  A 
ATOM     62  CE2 TYR D   6       9.884  -3.847  -1.413  1.00 32.90 LIG 0.04  A 
ATOM     63  CD2 TYR D   6      10.378  -2.746  -2.089  1.00 31.58 LIG 0.01  A 
BRANCH 61 64
ATOM     64 OH   TYR D   6       8.034  -5.211  -0.776  1.00 34.88 LIG-0.36  OA
ATOM     65 HH   TYR D   6       8.089  -5.890  -1.268  1.00 34.88 LIG 0.22  HD
ENDBRANCH 61 64
ENDBRANCH 57 58
ENDBRANCH 53 57
ENDBRANCH 50 53
ENDBRANCH 48 49
BRANCH 48 66
ATOM     66  CB  VAL D   5      11.636   2.074  -8.171  1.00 31.19 LIG 0.01  C 
ATOM     67  CG1 VAL D   5      12.792   1.692  -7.252  1.00 32.10 LIG 0.01  C 
ATOM     68  CG2 VAL D   5      12.107   2.195  -9.603  1.00 30.34 LIG 0.01  C 
ENDBRANCH 48 66
ENDBRANCH 45 48
ENDBRANCH 38 44
ENDBRANCH 3 38
TORSDOF 25
ENDMDL
MODEL 44
USER: ADFR SOLUTION from run 120
USER: SCORE 18.564012 LL:  -5.687 LR: -14.588 RR:   0.000 FEB:  -7.130
USER: RMSD 10.670387
USER: SEED 119
USER: STATUS searching
USER: GENES 27
USER: genes 0 Translation |==|  0.51097 0.38673 0.46724
USER: genes 1 Rotation |==|  0.32367 0.12420 0.74448 0.63383
USER: genes 2 Torsion [N]-C--CA-[N] |==|  0.06329
USER: genes 3 Torsion [C]-CA--N-[C] |==|  0.74510
USER: genes 4 Torsion [N]-C--CA-[N] |==|  0.89038
USER: genes 5 Torsion [C]-CA--CB-[CG] |==|  0.14306
USER: genes 6 Torsion [CA]-CB--CG-[CD] |==|  0.17868
USER: genes 7 Torsion [CB]-CG--CD-[NE] |==|  0.26652
USER: genes 8 Torsion [CG]-CD--NE-[HE] |==|  0.25990
USER: genes 9 Torsion [C]-CA--N-[C] |==|  0.85329
USER: genes 10 Torsion [N]-C--CA-[N] |==|  0.26557
USER: genes 11 Torsion [C]-CA--N-[C] |==|  0.79488
USER: genes 12 Torsion [C]-CA--CB-[CG2] |==|  0.32548
USER: genes 13 Torsion [CA]-CB--OG1-[HG1] |==|  0.26323
USER: genes 14 Torsion [C]-N--CA-[CB] |==|  0.51531
USER: genes 15 Torsion [N]-CA--CB-[CG] |==|  0.61138
USER: genes 16 Torsion [CA]-CB--CG-[CD] |==|  0.76249
USER: genes 17 Torsion [CB]-CG--CD-[OE2] |==|  0.82801
USER: genes 18 Torsion [N]-CA--C-[N] |==|  0.45366
USER: genes 19 Torsion [C]-N--CA-[CB] |==|  0.20000
USER: genes 20 Torsion [N]-CA--C-[N] |==|  0.09030
USER: genes 21 Torsion [C]-N--CA-[C] |==|  0.18783
USER: genes 22 Torsion [N]-CA--C-[N] |==|  0.09075
USER: genes 23 Torsion [N]-CA--CB-[CG] |==|  0.82178
USER: genes 24 Torsion [CA]-CB--CG-[CD1] |==|  0.29656
USER: genes 25 Torsion [CE1]-CZ--OH-[HH] |==|  0.65360
USER: genes 26 Torsion [N]-CA--CB-[CG1] |==|  0.73369
ROOT
ATOM      1  C   THR D   3       4.473   1.263  -6.217  1.00 23.43 LIG 0.24  C 
ATOM      2 O    THR D   3       3.537   0.928  -5.491  1.00 24.39 LIG-0.27  OA
ATOM      3  N   GLU D   4       5.518   1.959  -5.777  1.00 25.01 LIG-0.35  N 
ATOM      4 H    GLU D   4       6.188   2.175  -6.271  1.00 25.01 LIG 0.16  HD
ENDROOT
BRANCH 1 5
ATOM      5  CA  THR D   3       4.480   0.889  -7.701  1.00 20.85 LIG 0.20  C 
BRANCH 5 6
ATOM      6  N   THR D   3       5.823   0.882  -8.270  1.00 20.16 LIG-0.34  N 
ATOM      7 H    THR D   3       6.234   0.131  -8.195  1.00 20.16 LIG 0.16  HD
ATOM      8  C   ARG D   2       6.345   1.958  -8.849  1.00 20.73 LIG 0.24  C 
ATOM      9 O    ARG D   2       5.765   3.045  -8.902  1.00 19.88 LIG-0.27  OA
BRANCH 8 10
ATOM     10  CA  ARG D   2       7.742   1.790  -9.437  1.00 21.07 LIG 0.18  C 
BRANCH 10 11
ATOM     11  CB  ARG D   2       7.663   1.211 -10.856  1.00 18.72 LIG 0.04  C 
BRANCH 11 12
ATOM     12  CG  ARG D   2       6.710   1.970 -11.785  1.00 17.25 LIG 0.02  C 
BRANCH 12 13
ATOM     13  CD  ARG D   2       7.183   3.401 -12.037  1.00 15.57 LIG 0.14  C 
BRANCH 13 14
ATOM     14  NE  ARG D   2       7.947   3.522 -13.275  1.00 16.78 LIG-0.23  N 
ATOM     15 HE   ARG D   2       7.523   3.747 -13.989  1.00 16.78 LIG 0.18  HD
ATOM     16  CZ  ARG D   2       9.256   3.309 -13.370  1.00 18.57 LIG 0.67  C 
ATOM     17  NH2 ARG D   2       9.869   3.441 -14.540  1.00 17.94 LIG-0.23  N 
ATOM     18  NH1 ARG D   2       9.956   2.967 -12.295  1.00 16.85 LIG-0.23  N 
ATOM     19 1HH2 ARG D   2       9.419   3.666 -15.238  1.00 17.94 LIG 0.17  HD
ATOM     20 2HH2 ARG D   2      10.715   3.303 -14.600  1.00 17.94 LIG 0.17  HD
ATOM     21 2HH1 ARG D   2      10.802   2.830 -12.359  1.00 16.85 LIG 0.17  HD
ATOM     22 1HH1 ARG D   2       9.563   2.884 -11.536  1.00 16.85 LIG 0.17  HD
ENDBRANCH 13 14
ENDBRANCH 12 13
ENDBRANCH 11 12
ENDBRANCH 10 11
BRANCH 10 23
ATOM     23  N   ARG D   2       8.596   0.967  -8.581  1.00 21.51 LIG-0.35  N 
ATOM     24  C   ALA D   1       8.755   1.250  -7.291  1.00 21.30 LIG 0.24  C 
ATOM     25 O    ALA D   1       8.153   2.166  -6.736  1.00 21.16 LIG-0.27  OA
ATOM     26 H    ARG D   2       8.973   0.305  -8.980  1.00 21.51 LIG 0.16  HD
BRANCH 24 27
ATOM     27  CA  ALA D   1       9.724   0.370  -6.502  1.00 21.78 LIG 0.17  C 
ATOM     28  CB  ALA D   1       9.172   0.087  -5.114  1.00 21.47 LIG 0.04  C 
BRANCH 27 29
ATOM     29  N   ALA D   1      11.062   0.949  -6.410  1.00 22.15 LIG-0.35  N 
ATOM     30 H    ALA D   1      11.247   1.268  -5.632  1.00 22.15 LIG 0.16  HD
ATOM     31  C   ACE D   0      11.916   0.982  -7.430  1.00 22.99 LIG 0.21  C 
ATOM     32 O    ACE D   0      11.590   0.907  -8.616  1.00 24.10 LIG-0.27  OA
ATOM     33  CH3 ACE D   0      13.250   1.515  -6.997  1.00 21.14 LIG 0.12  C 
ENDBRANCH 27 29
ENDBRANCH 24 27
ENDBRANCH 10 23
ENDBRANCH 8 10
ENDBRANCH 5 6
BRANCH 5 34
ATOM     34  CB  THR D   3       3.790  -0.473  -7.901  1.00 19.16 LIG 0.15  C 
ATOM     35  CG2 THR D   3       2.550  -0.309  -8.763  1.00 17.08 LIG 0.04  C 
BRANCH 34 36
ATOM     36 OG1  THR D   3       4.693  -1.382  -8.545  1.00 20.38 LIG-0.39  OA
ATOM     37 HG1  THR D   3       5.087  -1.843  -7.964  1.00 20.38 LIG 0.21  HD
ENDBRANCH 34 36
ENDBRANCH 5 34
ENDBRANCH 1 5
BRANCH 3 38
ATOM     38  CA  GLU D   4       5.619   2.424  -4.396  1.00 28.82 LIG 0.18  C 
BRANCH 38 39
ATOM     39  CB  GLU D   4       6.857   3.309  -4.217  1.00 31.32 LIG 0.04  C 
BRANCH 39 40
ATOM     40  CG  GLU D   4       7.609   3.085  -2.914  1.00 34.96 LIG 0.12  C 
BRANCH 40 41
ATOM     41  CD  GLU D   4       7.038   3.896  -1.767  1.00 38.68 LIG 0.17  C 
ATOM     42 OE2  GLU D   4       7.052   5.141  -1.851  1.00 39.24 LIG-0.65  OA
ATOM     43 OE1  GLU D   4       6.578   3.287  -0.778  1.00 40.65 LIG-0.65  OA
ENDBRANCH 40 41
ENDBRANCH 39 40
ENDBRANCH 38 39
BRANCH 38 44
ATOM     44  C   GLU D   4       4.371   3.214  -4.009  1.00 29.37 LIG 0.24  C 
ATOM     45  N   VAL D   5       4.168   3.401  -2.708  1.00 31.15 LIG-0.35  N 
ATOM     46 H    VAL D   5       4.677   3.085  -2.092  1.00 31.15 LIG 0.16  HD
ATOM     47 O    GLU D   4       3.614   3.651  -4.876  1.00 28.00 LIG-0.27  OA
BRANCH 45 48
ATOM     48  CA  VAL D   5       3.035   4.180  -2.214  1.00 31.02 LIG 0.18  C 
BRANCH 48 49
ATOM     49  C   VAL D   5       3.180   4.527  -0.735  1.00 31.80 LIG 0.24  C 
ATOM     50  N   TYR D   6       4.420   4.717  -0.292  1.00 29.63 LIG-0.35  N 
ATOM     51 H    TYR D   6       5.122   4.602  -0.775  1.00 29.63 LIG 0.16  HD
ATOM     52 O    VAL D   5       2.187   4.627  -0.014  1.00 32.83 LIG-0.27  OA
BRANCH 50 53
ATOM     53  CA  TYR D   6       4.696   5.144   1.073  1.00 30.54 LIG 0.18  C 
BRANCH 53 54
ATOM     54  C   TYR D   6       4.315   4.037   2.049  1.00 31.23 LIG 0.28  C 
ATOM     55  N   NH2 D   7       4.470   2.791   1.613  1.00 33.55 LIG-0.11  N 
ATOM     56 O    TYR D   6       3.879   4.307   3.169  1.00 28.81 LIG-0.27  OA
ENDBRANCH 53 54
BRANCH 53 57
ATOM     57  CB  TYR D   6       3.928   6.432   1.392  1.00 30.33 LIG 0.07  C 
BRANCH 57 58
ATOM     58  CG  TYR D   6       4.333   7.641   0.570  1.00 31.81 LIG-0.06  A 
ATOM     59  CD1 TYR D   6       3.510   8.131  -0.437  1.00 31.47 LIG 0.01  A 
ATOM     60  CE1 TYR D   6       3.873   9.237  -1.180  1.00 32.87 LIG 0.04  A 
ATOM     61  CZ  TYR D   6       5.065   9.876  -0.916  1.00 33.71 LIG 0.07  A 
ATOM     62  CE2 TYR D   6       5.896   9.416   0.084  1.00 32.90 LIG 0.04  A 
ATOM     63  CD2 TYR D   6       5.524   8.307   0.824  1.00 31.58 LIG 0.01  A 
BRANCH 61 64
ATOM     64 OH   TYR D   6       5.429  10.979  -1.655  1.00 34.88 LIG-0.36  OA
ATOM     65 HH   TYR D   6       6.187  10.851  -1.995  1.00 34.88 LIG 0.22  HD
ENDBRANCH 61 64
ENDBRANCH 57 58
ENDBRANCH 53 57
ENDBRANCH 50 53
ENDBRANCH 48 49
BRANCH 48 66
ATOM     66  CB  VAL D   5       1.702   3.428  -2.391  1.00 31.19 LIG 0.01  C 
ATOM     67  CG1 VAL D   5       1.016   3.871  -3.680  1.00 32.10 LIG 0.01  C 
ATOM     68  CG2 VAL D   5       1.926   1.932  -2.391  1.00 30.34 LIG 0.01  C 
ENDBRANCH 48 66
ENDBRANCH 45 48
ENDBRANCH 38 44
ENDBRANCH 3 38
TORSDOF 25
ENDMDL
MODEL 45
USER: ADFR SOLUTION from run 94
USER: SCORE 18.097099 LL:  -6.611 LR: -14.559 RR:   0.000 FEB:  -7.102
USER: RMSD 9.846730
USER: SEED 93
USER: STATUS no improvement in best in 2 clusters for 5 generations
USER: GENES 27
USER: genes 0 Translation |==|  0.41141 0.45959 0.60173
USER: genes 1 Rotation |==|  0.13781 0.58062 0.75614 0.71612
USER: genes 2 Torsion [N]-C--CA-[N] |==|  0.91017
USER: genes 3 Torsion [C]-CA--N-[C] |==|  0.81953
USER: genes 4 Torsion [N]-C--CA-[N] |==|  0.47977
USER: genes 5 Torsion [C]-CA--CB-[CG] |==|  0.40009
USER: genes 6 Torsion [CA]-CB--CG-[CD] |==|  0.79614
USER: genes 7 Torsion [CB]-CG--CD-[NE] |==|  0.23256
USER: genes 8 Torsion [CG]-CD--NE-[HE] |==|  0.10131
USER: genes 9 Torsion [C]-CA--N-[C] |==|  0.56957
USER: genes 10 Torsion [N]-C--CA-[N] |==|  0.40198
USER: genes 11 Torsion [C]-CA--N-[C] |==|  0.77534
USER: genes 12 Torsion [C]-CA--CB-[CG2] |==|  0.75514
USER: genes 13 Torsion [CA]-CB--OG1-[HG1] |==|  0.28857
USER: genes 14 Torsion [C]-N--CA-[CB] |==|  0.86861
USER: genes 15 Torsion [N]-CA--CB-[CG] |==|  0.49858
USER: genes 16 Torsion [CA]-CB--CG-[CD] |==|  0.71813
USER: genes 17 Torsion [CB]-CG--CD-[OE2] |==|  0.78631
USER: genes 18 Torsion [N]-CA--C-[N] |==|  0.83333
USER: genes 19 Torsion [C]-N--CA-[CB] |==|  0.44348
USER: genes 20 Torsion [N]-CA--C-[N] |==|  0.96636
USER: genes 21 Torsion [C]-N--CA-[C] |==|  0.17175
USER: genes 22 Torsion [N]-CA--C-[N] |==|  0.22391
USER: genes 23 Torsion [N]-CA--CB-[CG] |==|  0.88012
USER: genes 24 Torsion [CA]-CB--CG-[CD1] |==|  0.39757
USER: genes 25 Torsion [CE1]-CZ--OH-[HH] |==|  0.96465
USER: genes 26 Torsion [N]-CA--CB-[CG1] |==|  0.83016
ROOT
ATOM      1  C   THR D   3       2.531   2.957  -2.888  1.00 23.43 LIG 0.24  C 
ATOM      2 O    THR D   3       2.996   4.093  -2.787  1.00 24.39 LIG-0.27  OA
ATOM      3  N   GLU D   4       3.263   1.858  -2.731  1.00 25.01 LIG-0.35  N 
ATOM      4 H    GLU D   4       2.941   1.062  -2.774  1.00 25.01 LIG 0.16  HD
ENDROOT
BRANCH 1 5
ATOM      5  CA  THR D   3       1.050   2.749  -3.211  1.00 20.85 LIG 0.20  C 
BRANCH 5 6
ATOM      6  N   THR D   3       0.813   1.547  -4.002  1.00 20.16 LIG-0.34  N 
ATOM      7 H    THR D   3       0.354   0.943  -3.598  1.00 20.16 LIG 0.16  HD
ATOM      8  C   ARG D   2       1.279   1.419  -5.240  1.00 20.73 LIG 0.24  C 
ATOM      9 O    ARG D   2       1.981   2.271  -5.789  1.00 19.88 LIG-0.27  OA
BRANCH 8 10
ATOM     10  CA  ARG D   2       0.916   0.125  -5.961  1.00 21.07 LIG 0.18  C 
BRANCH 10 11
ATOM     11  CB  ARG D   2       1.522  -1.084  -5.233  1.00 18.72 LIG 0.04  C 
BRANCH 11 12
ATOM     12  CG  ARG D   2       0.632  -2.331  -5.254  1.00 17.25 LIG 0.02  C 
BRANCH 12 13
ATOM     13  CD  ARG D   2      -0.566  -2.189  -4.316  1.00 15.57 LIG 0.14  C 
BRANCH 13 14
ATOM     14  NE  ARG D   2      -1.675  -1.472  -4.939  1.00 16.78 LIG-0.23  N 
ATOM     15 HE   ARG D   2      -1.819  -1.604  -5.776  1.00 16.78 LIG 0.18  HD
ATOM     16  CZ  ARG D   2      -2.476  -0.628  -4.294  1.00 18.57 LIG 0.67  C 
ATOM     17  NH2 ARG D   2      -3.461  -0.018  -4.942  1.00 17.94 LIG-0.23  N 
ATOM     18  NH1 ARG D   2      -2.298  -0.398  -3.000  1.00 16.85 LIG-0.23  N 
ATOM     19 1HH2 ARG D   2      -3.582  -0.168  -5.781  1.00 17.94 LIG 0.17  HD
ATOM     20 2HH2 ARG D   2      -3.978   0.526  -4.525  1.00 17.94 LIG 0.17  HD
ATOM     21 2HH1 ARG D   2      -2.818   0.148  -2.584  1.00 16.85 LIG 0.17  HD
ATOM     22 1HH1 ARG D   2      -1.664  -0.793  -2.576  1.00 16.85 LIG 0.17  HD
ENDBRANCH 13 14
ENDBRANCH 12 13
ENDBRANCH 11 12
ENDBRANCH 10 11
BRANCH 10 23
ATOM     23  N   ARG D   2       1.326   0.152  -7.365  1.00 21.51 LIG-0.35  N 
ATOM     24  C   ALA D   1       0.712  -0.598  -8.275  1.00 21.30 LIG 0.24  C 
ATOM     25 O    ALA D   1      -0.261  -1.298  -8.009  1.00 21.16 LIG-0.27  OA
ATOM     26 H    ARG D   2       1.981   0.683  -7.537  1.00 21.51 LIG 0.16  HD
BRANCH 24 27
ATOM     27  CA  ALA D   1       1.264  -0.549  -9.700  1.00 21.78 LIG 0.17  C 
ATOM     28  CB  ALA D   1       0.555   0.528 -10.506  1.00 21.47 LIG 0.04  C 
BRANCH 27 29
ATOM     29  N   ALA D   1       1.173  -1.838 -10.383  1.00 22.15 LIG-0.35  N 
ATOM     30 H    ALA D   1       0.498  -1.901 -10.913  1.00 22.15 LIG 0.16  HD
ATOM     31  C   ACE D   0       2.051  -2.822 -10.204  1.00 22.99 LIG 0.21  C 
ATOM     32 O    ACE D   0       2.777  -2.939  -9.216  1.00 24.10 LIG-0.27  OA
ATOM     33  CH3 ACE D   0       1.773  -3.965 -11.135  1.00 21.14 LIG 0.12  C 
ENDBRANCH 27 29
ENDBRANCH 24 27
ENDBRANCH 10 23
ENDBRANCH 8 10
ENDBRANCH 5 6
BRANCH 5 34
ATOM     34  CB  THR D   3       0.229   2.722  -1.908  1.00 19.16 LIG 0.15  C 
ATOM     35  CG2 THR D   3       0.169   1.307  -1.357  1.00 17.08 LIG 0.04  C 
BRANCH 34 36
ATOM     36 OG1  THR D   3       0.840   3.579  -0.935  1.00 20.38 LIG-0.39  OA
ATOM     37 HG1  THR D   3       0.400   4.292  -0.874  1.00 20.38 LIG 0.21  HD
ENDBRANCH 34 36
ENDBRANCH 5 34
ENDBRANCH 1 5
BRANCH 3 38
ATOM     38  CA  GLU D   4       4.699   1.908  -2.468  1.00 28.82 LIG 0.18  C 
BRANCH 38 39
ATOM     39  CB  GLU D   4       5.390   2.877  -3.433  1.00 31.32 LIG 0.04  C 
BRANCH 39 40
ATOM     40  CG  GLU D   4       6.891   3.007  -3.229  1.00 34.96 LIG 0.12  C 
BRANCH 40 41
ATOM     41  CD  GLU D   4       7.268   4.268  -2.478  1.00 38.68 LIG 0.17  C 
ATOM     42 OE2  GLU D   4       7.257   5.355  -3.093  1.00 39.24 LIG-0.65  OA
ATOM     43 OE1  GLU D   4       7.581   4.172  -1.272  1.00 40.65 LIG-0.65  OA
ENDBRANCH 40 41
ENDBRANCH 39 40
ENDBRANCH 38 39
BRANCH 38 44
ATOM     44  C   GLU D   4       4.960   2.351  -1.031  1.00 29.37 LIG 0.24  C 
ATOM     45  N   VAL D   5       4.497   3.549  -0.686  1.00 31.15 LIG-0.35  N 
ATOM     46 H    VAL D   5       4.094   4.082  -1.227  1.00 31.15 LIG 0.16  HD
ATOM     47 O    GLU D   4       5.561   1.614  -0.249  1.00 28.00 LIG-0.27  OA
BRANCH 45 48
ATOM     48  CA  VAL D   5       4.642   4.066   0.672  1.00 31.02 LIG 0.18  C 
BRANCH 48 49
ATOM     49  C   VAL D   5       3.604   3.477   1.623  1.00 31.80 LIG 0.24  C 
ATOM     50  N   TYR D   6       2.600   2.810   1.061  1.00 29.63 LIG-0.35  N 
ATOM     51 H    TYR D   6       2.486   2.746   0.210  1.00 29.63 LIG 0.16  HD
ATOM     52 O    VAL D   5       3.716   3.619   2.841  1.00 32.83 LIG-0.27  OA
BRANCH 50 53
ATOM     53  CA  TYR D   6       1.591   2.118   1.852  1.00 30.54 LIG 0.18  C 
BRANCH 53 54
ATOM     54  C   TYR D   6       0.836   3.120   2.719  1.00 31.23 LIG 0.28  C 
ATOM     55  N   NH2 D   7      -0.130   3.806   2.117  1.00 33.55 LIG-0.11  N 
ATOM     56 O    TYR D   6       1.133   3.277   3.904  1.00 28.81 LIG-0.27  OA
ENDBRANCH 53 54
BRANCH 53 57
ATOM     57  CB  TYR D   6       2.246   1.040   2.722  1.00 30.33 LIG 0.07  C 
BRANCH 57 58
ATOM     58  CG  TYR D   6       3.306   0.208   2.023  1.00 31.81 LIG-0.06  A 
ATOM     59  CD1 TYR D   6       4.446  -0.213   2.697  1.00 31.47 LIG 0.01  A 
ATOM     60  CE1 TYR D   6       5.406  -0.978   2.064  1.00 32.87 LIG 0.04  A 
ATOM     61  CZ  TYR D   6       5.231  -1.342   0.746  1.00 33.71 LIG 0.07  A 
ATOM     62  CE2 TYR D   6       4.104  -0.944   0.058  1.00 32.90 LIG 0.04  A 
ATOM     63  CD2 TYR D   6       3.147  -0.179   0.699  1.00 31.58 LIG 0.01  A 
BRANCH 61 64
ATOM     64 OH   TYR D   6       6.187  -2.104   0.113  1.00 34.88 LIG-0.36  OA
ATOM     65 HH   TYR D   6       6.884  -2.125   0.581  1.00 34.88 LIG 0.22  HD
ENDBRANCH 61 64
ENDBRANCH 57 58
ENDBRANCH 53 57
ENDBRANCH 50 53
ENDBRANCH 48 49
BRANCH 48 66
ATOM     66  CB  VAL D   5       4.505   5.600   0.720  1.00 31.19 LIG 0.01  C 
ATOM     67  CG1 VAL D   5       5.597   6.251  -0.123  1.00 32.10 LIG 0.01  C 
ATOM     68  CG2 VAL D   5       3.134   6.031   0.247  1.00 30.34 LIG 0.01  C 
ENDBRANCH 48 66
ENDBRANCH 45 48
ENDBRANCH 38 44
ENDBRANCH 3 38
TORSDOF 25
ENDMDL
MODEL 46
USER: ADFR SOLUTION from run 125
USER: SCORE 17.639193 LL:  -5.178 LR: -14.489 RR:   0.000 FEB:  -7.031
USER: RMSD 5.893767
USER: SEED 124
USER: STATUS searching
USER: GENES 27
USER: genes 0 Translation |==|  0.68824 0.41109 0.55921
USER: genes 1 Rotation |==|  0.22422 0.81962 0.74020 0.61870
USER: genes 2 Torsion [N]-C--CA-[N] |==|  0.03113
USER: genes 3 Torsion [C]-CA--N-[C] |==|  0.65731
USER: genes 4 Torsion [N]-C--CA-[N] |==|  0.14885
USER: genes 5 Torsion [C]-CA--CB-[CG] |==|  0.19983
USER: genes 6 Torsion [CA]-CB--CG-[CD] |==|  0.69442
USER: genes 7 Torsion [CB]-CG--CD-[NE] |==|  0.97318
USER: genes 8 Torsion [CG]-CD--NE-[HE] |==|  0.17705
USER: genes 9 Torsion [C]-CA--N-[C] |==|  0.15326
USER: genes 10 Torsion [N]-C--CA-[N] |==|  0.47674
USER: genes 11 Torsion [C]-CA--N-[C] |==|  0.69820
USER: genes 12 Torsion [C]-CA--CB-[CG2] |==|  0.64713
USER: genes 13 Torsion [CA]-CB--OG1-[HG1] |==|  0.18648
USER: genes 14 Torsion [C]-N--CA-[CB] |==|  0.54477
USER: genes 15 Torsion [N]-CA--CB-[CG] |==|  0.56441
USER: genes 16 Torsion [CA]-CB--CG-[CD] |==|  0.44784
USER: genes 17 Torsion [CB]-CG--CD-[OE2] |==|  0.06433
USER: genes 18 Torsion [N]-CA--C-[N] |==|  0.28681
USER: genes 19 Torsion [C]-N--CA-[CB] |==|  0.81108
USER: genes 20 Torsion [N]-CA--C-[N] |==|  0.20969
USER: genes 21 Torsion [C]-N--CA-[C] |==|  0.18613
USER: genes 22 Torsion [N]-CA--C-[N] |==|  0.08999
USER: genes 23 Torsion [N]-CA--CB-[CG] |==|  0.81292
USER: genes 24 Torsion [CA]-CB--CG-[CD1] |==|  0.18345
USER: genes 25 Torsion [CE1]-CZ--OH-[HH] |==|  0.74565
USER: genes 26 Torsion [N]-CA--CB-[CG1] |==|  0.56553
ROOT
ATOM      1  C   THR D   3       7.930   1.830  -3.941  1.00 23.43 LIG 0.24  C 
ATOM      2 O    THR D   3       8.641   2.269  -4.844  1.00 24.39 LIG-0.27  OA
ATOM      3  N   GLU D   4       8.187   0.691  -3.304  1.00 25.01 LIG-0.35  N 
ATOM      4 H    GLU D   4       7.710   0.390  -2.654  1.00 25.01 LIG 0.16  HD
ENDROOT
BRANCH 1 5
ATOM      5  CA  THR D   3       6.679   2.592  -3.495  1.00 20.85 LIG 0.20  C 
BRANCH 5 6
ATOM      6  N   THR D   3       6.114   2.064  -2.259  1.00 20.16 LIG-0.34  N 
ATOM      7 H    THR D   3       6.662   2.050  -1.597  1.00 20.16 LIG 0.16  HD
ATOM      8  C   ARG D   2       4.854   1.646  -2.185  1.00 20.73 LIG 0.24  C 
ATOM      9 O    ARG D   2       4.094   1.622  -3.155  1.00 19.88 LIG-0.27  OA
BRANCH 8 10
ATOM     10  CA  ARG D   2       4.389   1.161  -0.816  1.00 21.07 LIG 0.18  C 
BRANCH 10 11
ATOM     11  CB  ARG D   2       2.908   0.760  -0.862  1.00 18.72 LIG 0.04  C 
BRANCH 11 12
ATOM     12  CG  ARG D   2       2.639  -0.540  -1.625  1.00 17.25 LIG 0.02  C 
BRANCH 12 13
ATOM     13  CD  ARG D   2       1.912  -0.285  -2.945  1.00 15.57 LIG 0.14  C 
BRANCH 13 14
ATOM     14  NE  ARG D   2       1.447   1.094  -3.063  1.00 16.78 LIG-0.23  N 
ATOM     15 HE   ARG D   2       2.040   1.718  -3.085  1.00 16.78 LIG 0.18  HD
ATOM     16  CZ  ARG D   2       0.168   1.448  -3.140  1.00 18.57 LIG 0.67  C 
ATOM     17  NH2 ARG D   2      -0.164   2.729  -3.245  1.00 17.94 LIG-0.23  N 
ATOM     18  NH1 ARG D   2      -0.783   0.522  -3.118  1.00 16.85 LIG-0.23  N 
ATOM     19 1HH2 ARG D   2       0.450   3.332  -3.263  1.00 17.94 LIG 0.17  HD
ATOM     20 2HH2 ARG D   2      -0.991   2.957  -3.295  1.00 17.94 LIG 0.17  HD
ATOM     21 2HH1 ARG D   2      -1.609   0.753  -3.168  1.00 16.85 LIG 0.17  HD
ATOM     22 1HH1 ARG D   2      -0.572  -0.309  -3.054  1.00 16.85 LIG 0.17  HD
ENDBRANCH 13 14
ENDBRANCH 12 13
ENDBRANCH 11 12
ENDBRANCH 10 11
BRANCH 10 23
ATOM     23  N   ARG D   2       4.632   2.159   0.225  1.00 21.51 LIG-0.35  N 
ATOM     24  C   ALA D   1       4.158   3.396   0.115  1.00 21.30 LIG 0.24  C 
ATOM     25 O    ALA D   1       3.446   3.752  -0.820  1.00 21.16 LIG-0.27  OA
ATOM     26 H    ARG D   2       5.095   1.875   0.892  1.00 21.51 LIG 0.16  HD
BRANCH 24 27
ATOM     27  CA  ALA D   1       4.529   4.381   1.225  1.00 21.78 LIG 0.17  C 
ATOM     28  CB  ALA D   1       3.927   3.939   2.548  1.00 21.47 LIG 0.04  C 
BRANCH 27 29
ATOM     29  N   ALA D   1       4.128   5.753   0.916  1.00 22.15 LIG-0.35  N 
ATOM     30 H    ALA D   1       3.277   5.879   0.950  1.00 22.15 LIG 0.16  HD
ATOM     31  C   ACE D   0       4.994   6.715   0.612  1.00 22.99 LIG 0.21  C 
ATOM     32 O    ACE D   0       6.131   6.521   0.180  1.00 24.10 LIG-0.27  OA
ATOM     33  CH3 ACE D   0       4.300   8.039   0.477  1.00 21.14 LIG 0.12  C 
ENDBRANCH 27 29
ENDBRANCH 24 27
ENDBRANCH 10 23
ENDBRANCH 8 10
ENDBRANCH 5 6
BRANCH 5 34
ATOM     34  CB  THR D   3       7.000   4.092  -3.358  1.00 19.16 LIG 0.15  C 
ATOM     35  CG2 THR D   3       6.588   4.591  -1.984  1.00 17.08 LIG 0.04  C 
BRANCH 34 36
ATOM     36 OG1  THR D   3       8.408   4.301  -3.531  1.00 20.38 LIG-0.39  OA
ATOM     37 HG1  THR D   3       8.622   4.127  -4.324  1.00 20.38 LIG 0.21  HD
ENDBRANCH 34 36
ENDBRANCH 5 34
ENDBRANCH 1 5
BRANCH 3 38
ATOM     38  CA  GLU D   4       9.319  -0.162  -3.657  1.00 28.82 LIG 0.18  C 
BRANCH 38 39
ATOM     39  CB  GLU D   4       9.147  -1.560  -3.056  1.00 31.32 LIG 0.04  C 
BRANCH 39 40
ATOM     40  CG  GLU D   4      10.444  -2.333  -2.875  1.00 34.96 LIG 0.12  C 
BRANCH 40 41
ATOM     41  CD  GLU D   4      10.306  -3.478  -1.892  1.00 38.68 LIG 0.17  C 
ATOM     42 OE2  GLU D   4       9.169  -3.954  -1.686  1.00 39.24 LIG-0.65  OA
ATOM     43 OE1  GLU D   4      11.333  -3.900  -1.320  1.00 40.65 LIG-0.65  OA
ENDBRANCH 40 41
ENDBRANCH 39 40
ENDBRANCH 38 39
BRANCH 38 44
ATOM     44  C   GLU D   4       9.445  -0.274  -5.174  1.00 29.37 LIG 0.24  C 
ATOM     45  N   VAL D   5      10.406   0.446  -5.745  1.00 31.15 LIG-0.35  N 
ATOM     46 H    VAL D   5      10.927   0.978  -5.315  1.00 31.15 LIG 0.16  HD
ATOM     47 O    GLU D   4       8.689  -1.009  -5.812  1.00 28.00 LIG-0.27  OA
BRANCH 45 48
ATOM     48  CA  VAL D   5      10.657   0.388  -7.183  1.00 31.02 LIG 0.18  C 
BRANCH 48 49
ATOM     49  C   VAL D   5       9.393   0.650  -7.997  1.00 31.80 LIG 0.24  C 
ATOM     50  N   TYR D   6       8.986   1.914  -8.064  1.00 29.63 LIG-0.35  N 
ATOM     51 H    TYR D   6       9.361   2.560  -7.636  1.00 29.63 LIG 0.16  HD
ATOM     52 O    VAL D   5       8.806  -0.276  -8.558  1.00 32.83 LIG-0.27  OA
BRANCH 50 53
ATOM     53  CA  TYR D   6       7.850   2.318  -8.882  1.00 30.54 LIG 0.18  C 
BRANCH 53 54
ATOM     54  C   TYR D   6       6.566   1.724  -8.314  1.00 31.23 LIG 0.28  C 
ATOM     55  N   NH2 D   7       6.521   1.575  -6.995  1.00 33.55 LIG-0.11  N 
ATOM     56 O    TYR D   6       5.641   1.397  -9.059  1.00 28.81 LIG-0.27  OA
ENDBRANCH 53 54
BRANCH 53 57
ATOM     57  CB  TYR D   6       8.056   1.872 -10.333  1.00 30.33 LIG 0.07  C 
BRANCH 57 58
ATOM     58  CG  TYR D   6       9.185   2.572 -11.066  1.00 31.81 LIG-0.06  A 
ATOM     59  CD1 TYR D   6      10.508   2.394 -10.682  1.00 31.47 LIG 0.01  A 
ATOM     60  CE1 TYR D   6      11.537   3.023 -11.355  1.00 32.87 LIG 0.04  A 
ATOM     61  CZ  TYR D   6      11.254   3.834 -12.433  1.00 33.71 LIG 0.07  A 
ATOM     62  CE2 TYR D   6       9.950   4.020 -12.840  1.00 32.90 LIG 0.04  A 
ATOM     63  CD2 TYR D   6       8.925   3.385 -12.161  1.00 31.58 LIG 0.01  A 
BRANCH 61 64
ATOM     64 OH   TYR D   6      12.278   4.462 -13.105  1.00 34.88 LIG-0.36  OA
ATOM     65 HH   TYR D   6      12.408   5.222 -12.770  1.00 34.88 LIG 0.22  HD
ENDBRANCH 61 64
ENDBRANCH 57 58
ENDBRANCH 53 57
ENDBRANCH 50 53
ENDBRANCH 48 49
BRANCH 48 66
ATOM     66  CB  VAL D   5      11.216  -0.983  -7.611  1.00 31.19 LIG 0.01  C 
ATOM     67  CG1 VAL D   5      11.993  -0.849  -8.917  1.00 32.10 LIG 0.01  C 
ATOM     68  CG2 VAL D   5      12.091  -1.568  -6.525  1.00 30.34 LIG 0.01  C 
ENDBRANCH 48 66
ENDBRANCH 45 48
ENDBRANCH 38 44
ENDBRANCH 3 38
TORSDOF 25
ENDMDL
MODEL 47
USER: ADFR SOLUTION from run 5
USER: SCORE 17.081678 LL:  -5.223 LR: -14.425 RR:   0.000 FEB:  -6.968
USER: RMSD 6.322125
USER: SEED 354881
USER: STATUS searching
USER: GENES 27
USER: genes 0 Translation |==|  0.60581 0.50429 0.61918
USER: genes 1 Rotation |==|  0.34329 0.72371 0.81247 0.77885
USER: genes 2 Torsion [N]-C--CA-[N] |==|  0.12778
USER: genes 3 Torsion [C]-CA--N-[C] |==|  0.16738
USER: genes 4 Torsion [N]-C--CA-[N] |==|  0.92433
USER: genes 5 Torsion [C]-CA--CB-[CG] |==|  0.50974
USER: genes 6 Torsion [CA]-CB--CG-[CD] |==|  0.58346
USER: genes 7 Torsion [CB]-CG--CD-[NE] |==|  0.38205
USER: genes 8 Torsion [CG]-CD--NE-[HE] |==|  0.13118
USER: genes 9 Torsion [C]-CA--N-[C] |==|  0.80026
USER: genes 10 Torsion [N]-C--CA-[N] |==|  0.87603
USER: genes 11 Torsion [C]-CA--N-[C] |==|  0.83453
USER: genes 12 Torsion [C]-CA--CB-[CG2] |==|  0.56633
USER: genes 13 Torsion [CA]-CB--OG1-[HG1] |==|  0.81245
USER: genes 14 Torsion [C]-N--CA-[CB] |==|  0.34007
USER: genes 15 Torsion [N]-CA--CB-[CG] |==|  0.54373
USER: genes 16 Torsion [CA]-CB--CG-[CD] |==|  0.54041
USER: genes 17 Torsion [CB]-CG--CD-[OE2] |==|  0.78473
USER: genes 18 Torsion [N]-CA--C-[N] |==|  0.64476
USER: genes 19 Torsion [C]-N--CA-[CB] |==|  0.86595
USER: genes 20 Torsion [N]-CA--C-[N] |==|  0.91774
USER: genes 21 Torsion [C]-N--CA-[C] |==|  0.19556
USER: genes 22 Torsion [N]-CA--C-[N] |==|  0.04075
USER: genes 23 Torsion [N]-CA--CB-[CG] |==|  0.79102
USER: genes 24 Torsion [CA]-CB--CG-[CD1] |==|  0.15419
USER: genes 25 Torsion [CE1]-CZ--OH-[HH] |==|  0.68067
USER: genes 26 Torsion [N]-CA--CB-[CG1] |==|  0.47698
ROOT
ATOM      1  C   THR D   3       6.322   3.997  -2.456  1.00 23.43 LIG 0.24  C 
ATOM      2 O    THR D   3       7.315   4.670  -2.731  1.00 24.39 LIG-0.27  OA
ATOM      3  N   GLU D   4       6.128   2.768  -2.925  1.00 25.01 LIG-0.35  N 
ATOM      4 H    GLU D   4       5.450   2.280  -2.718  1.00 25.01 LIG 0.16  HD
ENDROOT
BRANCH 1 5
ATOM      5  CA  THR D   3       5.232   4.556  -1.539  1.00 20.85 LIG 0.20  C 
BRANCH 5 6
ATOM      6  N   THR D   3       4.809   3.598  -0.524  1.00 20.16 LIG-0.34  N 
ATOM      7 H    THR D   3       3.976   3.388  -0.562  1.00 20.16 LIG 0.16  HD
ATOM      8  C   ARG D   2       5.657   3.105   0.372  1.00 20.73 LIG 0.24  C 
ATOM      9 O    ARG D   2       6.837   3.454   0.447  1.00 19.88 LIG-0.27  OA
BRANCH 8 10
ATOM     10  CA  ARG D   2       5.083   2.080   1.344  1.00 21.07 LIG 0.18  C 
BRANCH 10 11
ATOM     11  CB  ARG D   2       5.381   0.654   0.861  1.00 18.72 LIG 0.04  C 
BRANCH 11 12
ATOM     12  CG  ARG D   2       4.764  -0.441   1.738  1.00 17.25 LIG 0.02  C 
BRANCH 12 13
ATOM     13  CD  ARG D   2       5.603  -1.717   1.726  1.00 15.57 LIG 0.14  C 
BRANCH 13 14
ATOM     14  NE  ARG D   2       5.732  -2.308   3.055  1.00 16.78 LIG-0.23  N 
ATOM     15 HE   ARG D   2       5.019  -2.392   3.528  1.00 16.78 LIG 0.18  HD
ATOM     16  CZ  ARG D   2       6.880  -2.725   3.579  1.00 18.57 LIG 0.67  C 
ATOM     17  NH2 ARG D   2       6.904  -3.250   4.799  1.00 17.94 LIG-0.23  N 
ATOM     18  NH1 ARG D   2       8.007  -2.623   2.885  1.00 16.85 LIG-0.23  N 
ATOM     19 1HH2 ARG D   2       6.175  -3.321   5.250  1.00 17.94 LIG 0.17  HD
ATOM     20 2HH2 ARG D   2       7.646  -3.519   5.137  1.00 17.94 LIG 0.17  HD
ATOM     21 2HH1 ARG D   2       8.748  -2.894   3.226  1.00 16.85 LIG 0.17  HD
ATOM     22 1HH1 ARG D   2       7.995  -2.287   2.094  1.00 16.85 LIG 0.17  HD
ENDBRANCH 13 14
ENDBRANCH 12 13
ENDBRANCH 11 12
ENDBRANCH 10 11
BRANCH 10 23
ATOM     23  N   ARG D   2       3.648   2.275   1.554  1.00 21.51 LIG-0.35  N 
ATOM     24  C   ALA D   1       3.190   3.307   2.256  1.00 21.30 LIG 0.24  C 
ATOM     25 O    ALA D   1       3.926   4.179   2.708  1.00 21.16 LIG-0.27  OA
ATOM     26 H    ARG D   2       3.148   1.677   1.190  1.00 21.51 LIG 0.16  HD
BRANCH 24 27
ATOM     27  CA  ALA D   1       1.678   3.379   2.475  1.00 21.78 LIG 0.17  C 
ATOM     28  CB  ALA D   1       1.260   2.437   3.593  1.00 21.47 LIG 0.04  C 
BRANCH 27 29
ATOM     29  N   ALA D   1       0.919   3.095   1.259  1.00 22.15 LIG-0.35  N 
ATOM     30 H    ALA D   1       0.390   2.420   1.332  1.00 22.15 LIG 0.16  HD
ATOM     31  C   ACE D   0       1.033   3.811   0.144  1.00 22.99 LIG 0.21  C 
ATOM     32 O    ACE D   0       2.008   4.508  -0.143  1.00 24.10 LIG-0.27  OA
ATOM     33  CH3 ACE D   0       0.036   3.366  -0.885  1.00 21.14 LIG 0.12  C 
ENDBRANCH 27 29
ENDBRANCH 24 27
ENDBRANCH 10 23
ENDBRANCH 8 10
ENDBRANCH 5 6
BRANCH 5 34
ATOM     34  CB  THR D   3       5.713   5.868  -0.893  1.00 19.16 LIG 0.15  C 
ATOM     35  CG2 THR D   3       4.961   6.120   0.403  1.00 17.08 LIG 0.04  C 
BRANCH 34 36
ATOM     36 OG1  THR D   3       7.117   5.781  -0.611  1.00 20.38 LIG-0.39  OA
ATOM     37 HG1  THR D   3       7.246   5.211  -0.007  1.00 20.38 LIG 0.21  HD
ENDBRANCH 34 36
ENDBRANCH 5 34
ENDBRANCH 1 5
BRANCH 3 38
ATOM     38  CA  GLU D   4       7.062   2.128  -3.848  1.00 28.82 LIG 0.18  C 
BRANCH 38 39
ATOM     39  CB  GLU D   4       7.578   0.809  -3.264  1.00 31.32 LIG 0.04  C 
BRANCH 39 40
ATOM     40  CG  GLU D   4       8.817   0.257  -3.950  1.00 34.96 LIG 0.12  C 
BRANCH 40 41
ATOM     41  CD  GLU D   4       9.084  -1.192  -3.589  1.00 38.68 LIG 0.17  C 
ATOM     42 OE2  GLU D   4       9.598  -1.444  -2.479  1.00 39.24 LIG-0.65  OA
ATOM     43 OE1  GLU D   4       8.785  -2.077  -4.417  1.00 40.65 LIG-0.65  OA
ENDBRANCH 40 41
ENDBRANCH 39 40
ENDBRANCH 38 39
BRANCH 38 44
ATOM     44  C   GLU D   4       6.383   1.858  -5.188  1.00 29.37 LIG 0.24  C 
ATOM     45  N   VAL D   5       6.465   0.615  -5.655  1.00 31.15 LIG-0.35  N 
ATOM     46 H    VAL D   5       6.894  -0.018  -5.262  1.00 31.15 LIG 0.16  HD
ATOM     47 O    GLU D   4       5.788   2.759  -5.780  1.00 28.00 LIG-0.27  OA
BRANCH 45 48
ATOM     48  CA  VAL D   5       5.816   0.221  -6.903  1.00 31.02 LIG 0.18  C 
BRANCH 48 49
ATOM     49  C   VAL D   5       6.533   0.786  -8.126  1.00 31.80 LIG 0.24  C 
ATOM     50  N   TYR D   6       7.166   1.943  -7.956  1.00 29.63 LIG-0.35  N 
ATOM     51 H    TYR D   6       7.142   2.398  -7.226  1.00 29.63 LIG 0.16  HD
ATOM     52 O    VAL D   5       6.517   0.179  -9.197  1.00 32.83 LIG-0.27  OA
BRANCH 50 53
ATOM     53  CA  TYR D   6       7.967   2.548  -9.012  1.00 30.54 LIG 0.18  C 
BRANCH 53 54
ATOM     54  C   TYR D   6       7.057   3.055 -10.126  1.00 31.23 LIG 0.28  C 
ATOM     55  N   NH2 D   7       5.765   3.148  -9.832  1.00 33.55 LIG-0.11  N 
ATOM     56 O    TYR D   6       7.518   3.345 -11.231  1.00 28.81 LIG-0.27  OA
ENDBRANCH 53 54
BRANCH 53 57
ATOM     57  CB  TYR D   6       8.976   1.534  -9.560  1.00 30.33 LIG 0.07  C 
BRANCH 57 58
ATOM     58  CG  TYR D   6      10.169   1.266  -8.661  1.00 31.81 LIG-0.06  A 
ATOM     59  CD1 TYR D   6       9.997   0.850  -7.347  1.00 31.47 LIG 0.01  A 
ATOM     60  CE1 TYR D   6      11.083   0.596  -6.531  1.00 32.87 LIG 0.04  A 
ATOM     61  CZ  TYR D   6      12.360   0.746  -7.027  1.00 33.71 LIG 0.07  A 
ATOM     62  CE2 TYR D   6      12.558   1.150  -8.330  1.00 32.90 LIG 0.04  A 
ATOM     63  CD2 TYR D   6      11.465   1.401  -9.141  1.00 31.58 LIG 0.01  A 
BRANCH 61 64
ATOM     64 OH   TYR D   6      13.443   0.495  -6.216  1.00 34.88 LIG-0.36  OA
ATOM     65 HH   TYR D   6      13.871   1.207  -6.090  1.00 34.88 LIG 0.22  HD
ENDBRANCH 61 64
ENDBRANCH 57 58
ENDBRANCH 53 57
ENDBRANCH 50 53
ENDBRANCH 48 49
BRANCH 48 66
ATOM     66  CB  VAL D   5       4.349   0.691  -6.959  1.00 31.19 LIG 0.01  C 
ATOM     67  CG1 VAL D   5       3.771   0.443  -8.349  1.00 32.10 LIG 0.01  C 
ATOM     68  CG2 VAL D   5       3.522  -0.007  -5.902  1.00 30.34 LIG 0.01  C 
ENDBRANCH 48 66
ENDBRANCH 45 48
ENDBRANCH 38 44
ENDBRANCH 3 38
TORSDOF 25
ENDMDL
MODEL 48
USER: ADFR SOLUTION from run 26
USER: SCORE 17.121956 LL:  -5.034 LR: -14.412 RR:   0.000 FEB:  -6.954
USER: RMSD 5.923324
USER: SEED 25
USER: STATUS no improvement in best in 5 clusters for 5 generations
USER: GENES 27
USER: genes 0 Translation |==|  0.62237 0.49338 0.61909
USER: genes 1 Rotation |==|  0.30490 0.71668 0.75367 0.81724
USER: genes 2 Torsion [N]-C--CA-[N] |==|  0.10594
USER: genes 3 Torsion [C]-CA--N-[C] |==|  0.15574
USER: genes 4 Torsion [N]-C--CA-[N] |==|  0.38774
USER: genes 5 Torsion [C]-CA--CB-[CG] |==|  0.39273
USER: genes 6 Torsion [CA]-CB--CG-[CD] |==|  0.82619
USER: genes 7 Torsion [CB]-CG--CD-[NE] |==|  0.32714
USER: genes 8 Torsion [CG]-CD--NE-[HE] |==|  0.99566
USER: genes 9 Torsion [C]-CA--N-[C] |==|  0.83077
USER: genes 10 Torsion [N]-C--CA-[N] |==|  0.16842
USER: genes 11 Torsion [C]-CA--N-[C] |==|  0.75240
USER: genes 12 Torsion [C]-CA--CB-[CG2] |==|  0.58036
USER: genes 13 Torsion [CA]-CB--OG1-[HG1] |==|  0.87486
USER: genes 14 Torsion [C]-N--CA-[CB] |==|  0.37620
USER: genes 15 Torsion [N]-CA--CB-[CG] |==|  0.43358
USER: genes 16 Torsion [CA]-CB--CG-[CD] |==|  0.29831
USER: genes 17 Torsion [CB]-CG--CD-[OE2] |==|  0.93145
USER: genes 18 Torsion [N]-CA--C-[N] |==|  0.85931
USER: genes 19 Torsion [C]-N--CA-[CB] |==|  0.55682
USER: genes 20 Torsion [N]-CA--C-[N] |==|  0.32434
USER: genes 21 Torsion [C]-N--CA-[C] |==|  0.78915
USER: genes 22 Torsion [N]-CA--C-[N] |==|  0.48696
USER: genes 23 Torsion [N]-CA--CB-[CG] |==|  0.81910
USER: genes 24 Torsion [CA]-CB--CG-[CD1] |==|  0.64226
USER: genes 25 Torsion [CE1]-CZ--OH-[HH] |==|  0.22213
USER: genes 26 Torsion [N]-CA--CB-[CG1] |==|  0.67158
ROOT
ATOM      1  C   THR D   3       6.645   3.743  -2.459  1.00 23.43 LIG 0.24  C 
ATOM      2 O    THR D   3       7.771   4.234  -2.534  1.00 24.39 LIG-0.27  OA
ATOM      3  N   GLU D   4       6.372   2.496  -2.831  1.00 25.01 LIG-0.35  N 
ATOM      4 H    GLU D   4       5.594   2.137  -2.757  1.00 25.01 LIG 0.16  HD
ENDROOT
BRANCH 1 5
ATOM      5  CA  THR D   3       5.472   4.566  -1.920  1.00 20.85 LIG 0.20  C 
BRANCH 5 6
ATOM      6  N   THR D   3       4.563   3.775  -1.100  1.00 20.16 LIG-0.34  N 
ATOM      7 H    THR D   3       3.746   3.787  -1.366  1.00 20.16 LIG 0.16  HD
ATOM      8  C   ARG D   2       4.986   3.100  -0.036  1.00 20.73 LIG 0.24  C 
ATOM      9 O    ARG D   2       6.151   3.133   0.365  1.00 19.88 LIG-0.27  OA
BRANCH 8 10
ATOM     10  CA  ARG D   2       3.930   2.282   0.700  1.00 21.07 LIG 0.18  C 
BRANCH 10 11
ATOM     11  CB  ARG D   2       3.371   3.071   1.892  1.00 18.72 LIG 0.04  C 
BRANCH 11 12
ATOM     12  CG  ARG D   2       1.865   2.891   2.105  1.00 17.25 LIG 0.02  C 
BRANCH 12 13
ATOM     13  CD  ARG D   2       1.057   3.403   0.914  1.00 15.57 LIG 0.14  C 
BRANCH 13 14
ATOM     14  NE  ARG D   2       0.289   2.344   0.268  1.00 16.78 LIG-0.23  N 
ATOM     15 HE   ARG D   2       0.364   1.546   0.580  1.00 16.78 LIG 0.18  HD
ATOM     16  CZ  ARG D   2      -0.518   2.533  -0.772  1.00 18.57 LIG 0.67  C 
ATOM     17  NH2 ARG D   2      -1.178   1.508  -1.298  1.00 17.94 LIG-0.23  N 
ATOM     18  NH1 ARG D   2      -0.672   3.748  -1.284  1.00 16.85 LIG-0.23  N 
ATOM     19 1HH2 ARG D   2      -1.084   0.720  -0.966  1.00 17.94 LIG 0.17  HD
ATOM     20 2HH2 ARG D   2      -1.700   1.632  -1.969  1.00 17.94 LIG 0.17  HD
ATOM     21 2HH1 ARG D   2      -1.195   3.868  -1.956  1.00 16.85 LIG 0.17  HD
ATOM     22 1HH1 ARG D   2      -0.249   4.414  -0.944  1.00 16.85 LIG 0.17  HD
ENDBRANCH 13 14
ENDBRANCH 12 13
ENDBRANCH 11 12
ENDBRANCH 10 11
BRANCH 10 23
ATOM     23  N   ARG D   2       4.451   0.983   1.129  1.00 21.51 LIG-0.35  N 
ATOM     24  C   ALA D   1       4.896   0.095   0.245  1.00 21.30 LIG 0.24  C 
ATOM     25 O    ALA D   1       4.956   0.332  -0.959  1.00 21.16 LIG-0.27  OA
ATOM     26 H    ARG D   2       4.441   0.856   1.979  1.00 21.51 LIG 0.16  HD
BRANCH 24 27
ATOM     27  CA  ALA D   1       5.352  -1.258   0.791  1.00 21.78 LIG 0.17  C 
ATOM     28  CB  ALA D   1       5.933  -2.111  -0.325  1.00 21.47 LIG 0.04  C 
BRANCH 27 29
ATOM     29  N   ALA D   1       4.282  -1.977   1.478  1.00 22.15 LIG-0.35  N 
ATOM     30 H    ALA D   1       3.831  -2.499   0.963  1.00 22.15 LIG 0.16  HD
ATOM     31  C   ACE D   0       4.026  -1.840   2.776  1.00 22.99 LIG 0.21  C 
ATOM     32 O    ACE D   0       4.356  -0.865   3.454  1.00 24.10 LIG-0.27  OA
ATOM     33  CH3 ACE D   0       2.962  -2.800   3.219  1.00 21.14 LIG 0.12  C 
ENDBRANCH 27 29
ENDBRANCH 24 27
ENDBRANCH 10 23
ENDBRANCH 8 10
ENDBRANCH 5 6
BRANCH 5 34
ATOM     34  CB  THR D   3       6.001   5.784  -1.139  1.00 19.16 LIG 0.15  C 
ATOM     35  CG2 THR D   3       5.012   6.180  -0.057  1.00 17.08 LIG 0.04  C 
BRANCH 34 36
ATOM     36 OG1  THR D   3       7.258   5.458  -0.531  1.00 20.38 LIG-0.39  OA
ATOM     37 HG1  THR D   3       7.207   4.701  -0.170  1.00 20.38 LIG 0.21  HD
ENDBRANCH 34 36
ENDBRANCH 5 34
ENDBRANCH 1 5
BRANCH 3 38
ATOM     38  CA  GLU D   4       7.383   1.614  -3.407  1.00 28.82 LIG 0.18  C 
BRANCH 38 39
ATOM     39  CB  GLU D   4       7.299   0.218  -2.781  1.00 31.32 LIG 0.04  C 
BRANCH 39 40
ATOM     40  CG  GLU D   4       7.863  -0.896  -3.648  1.00 34.96 LIG 0.12  C 
BRANCH 40 41
ATOM     41  CD  GLU D   4       9.185  -1.425  -3.126  1.00 38.68 LIG 0.17  C 
ATOM     42 OE2  GLU D   4       9.889  -0.676  -2.417  1.00 39.24 LIG-0.65  OA
ATOM     43 OE1  GLU D   4       9.523  -2.588  -3.430  1.00 40.65 LIG-0.65  OA
ENDBRANCH 40 41
ENDBRANCH 39 40
ENDBRANCH 38 39
BRANCH 38 44
ATOM     44  C   GLU D   4       7.194   1.505  -4.917  1.00 29.37 LIG 0.24  C 
ATOM     45  N   VAL D   5       5.969   1.208  -5.342  1.00 31.15 LIG-0.35  N 
ATOM     46 H    VAL D   5       5.305   1.052  -4.820  1.00 31.15 LIG 0.16  HD
ATOM     47 O    GLU D   4       8.140   1.697  -5.681  1.00 28.00 LIG-0.27  OA
BRANCH 45 48
ATOM     48  CA  VAL D   5       5.651   1.123  -6.765  1.00 31.02 LIG 0.18  C 
BRANCH 48 49
ATOM     49  C   VAL D   5       6.370   2.195  -7.579  1.00 31.80 LIG 0.24  C 
ATOM     50  N   TYR D   6       7.241   1.763  -8.486  1.00 29.63 LIG-0.35  N 
ATOM     51 H    TYR D   6       7.450   0.935  -8.591  1.00 29.63 LIG 0.16  HD
ATOM     52 O    VAL D   5       6.133   3.389  -7.391  1.00 32.83 LIG-0.27  OA
BRANCH 50 53
ATOM     53  CA  TYR D   6       7.927   2.672  -9.394  1.00 30.54 LIG 0.18  C 
BRANCH 53 54
ATOM     54  C   TYR D   6       6.973   3.122 -10.495  1.00 31.23 LIG 0.28  C 
ATOM     55  N   NH2 D   7       7.441   4.033 -11.341  1.00 33.55 LIG-0.11  N 
ATOM     56 O    TYR D   6       5.832   2.662 -10.565  1.00 28.81 LIG-0.27  OA
ENDBRANCH 53 54
BRANCH 53 57
ATOM     57  CB  TYR D   6       9.161   1.990  -9.996  1.00 30.33 LIG 0.07  C 
BRANCH 57 58
ATOM     58  CG  TYR D   6      10.253   1.647  -9.001  1.00 31.81 LIG-0.06  A 
ATOM     59  CD1 TYR D   6      11.571   2.028  -9.224  1.00 31.47 LIG 0.01  A 
ATOM     60  CE1 TYR D   6      12.565   1.724  -8.313  1.00 32.87 LIG 0.04  A 
ATOM     61  CZ  TYR D   6      12.248   1.042  -7.159  1.00 33.71 LIG 0.07  A 
ATOM     62  CE2 TYR D   6      10.947   0.660  -6.910  1.00 32.90 LIG 0.04  A 
ATOM     63  CD2 TYR D   6       9.958   0.969  -7.826  1.00 31.58 LIG 0.01  A 
BRANCH 61 64
ATOM     64 OH   TYR D   6      13.237   0.738  -6.250  1.00 34.88 LIG-0.36  OA
ATOM     65 HH   TYR D   6      13.404   1.414  -5.781  1.00 34.88 LIG 0.22  HD
ENDBRANCH 61 64
ENDBRANCH 57 58
ENDBRANCH 53 57
ENDBRANCH 50 53
ENDBRANCH 48 49
BRANCH 48 66
ATOM     66  CB  VAL D   5       4.139   1.272  -7.024  1.00 31.19 LIG 0.01  C 
ATOM     67  CG1 VAL D   5       3.589   0.005  -7.671  1.00 32.10 LIG 0.01  C 
ATOM     68  CG2 VAL D   5       3.403   1.580  -5.738  1.00 30.34 LIG 0.01  C 
ENDBRANCH 48 66
ENDBRANCH 45 48
ENDBRANCH 38 44
ENDBRANCH 3 38
TORSDOF 25
ENDMDL
MODEL 49
USER: ADFR SOLUTION from run 194
USER: SCORE 18.386205 LL:  -6.239 LR: -14.411 RR:   0.000 FEB:  -6.954
USER: RMSD 8.514622
USER: SEED 193
USER: STATUS searching
USER: GENES 27
USER: genes 0 Translation |==|  0.60216 0.48150 0.64709
USER: genes 1 Rotation |==|  0.47536 0.61988 0.89365 0.78296
USER: genes 2 Torsion [N]-C--CA-[N] |==|  0.17554
USER: genes 3 Torsion [C]-CA--N-[C] |==|  0.60961
USER: genes 4 Torsion [N]-C--CA-[N] |==|  0.90502
USER: genes 5 Torsion [C]-CA--CB-[CG] |==|  0.43442
USER: genes 6 Torsion [CA]-CB--CG-[CD] |==|  0.18809
USER: genes 7 Torsion [CB]-CG--CD-[NE] |==|  0.16874
USER: genes 8 Torsion [CG]-CD--NE-[HE] |==|  0.74744
USER: genes 9 Torsion [C]-CA--N-[C] |==|  0.84398
USER: genes 10 Torsion [N]-C--CA-[N] |==|  0.08401
USER: genes 11 Torsion [C]-CA--N-[C] |==|  0.16877
USER: genes 12 Torsion [C]-CA--CB-[CG2] |==|  0.22198
USER: genes 13 Torsion [CA]-CB--OG1-[HG1] |==|  0.89699
USER: genes 14 Torsion [C]-N--CA-[CB] |==|  0.20383
USER: genes 15 Torsion [N]-CA--CB-[CG] |==|  0.08447
USER: genes 16 Torsion [CA]-CB--CG-[CD] |==|  0.37878
USER: genes 17 Torsion [CB]-CG--CD-[OE2] |==|  0.91352
USER: genes 18 Torsion [N]-CA--C-[N] |==|  0.01219
USER: genes 19 Torsion [C]-N--CA-[CB] |==|  0.26664
USER: genes 20 Torsion [N]-CA--C-[N] |==|  0.02989
USER: genes 21 Torsion [C]-N--CA-[C] |==|  0.59975
USER: genes 22 Torsion [N]-CA--C-[N] |==|  0.38889
USER: genes 23 Torsion [N]-CA--CB-[CG] |==|  0.27038
USER: genes 24 Torsion [CA]-CB--CG-[CD1] |==|  0.33870
USER: genes 25 Torsion [CE1]-CZ--OH-[HH] |==|  0.74689
USER: genes 26 Torsion [N]-CA--CB-[CG1] |==|  0.83302
ROOT
ATOM      1  C   THR D   3       6.251   3.467  -1.765  1.00 23.43 LIG 0.24  C 
ATOM      2 O    THR D   3       7.173   4.277  -1.677  1.00 24.39 LIG-0.27  OA
ATOM      3  N   GLU D   4       5.956   2.825  -2.892  1.00 25.01 LIG-0.35  N 
ATOM      4 H    GLU D   4       5.331   2.238  -2.956  1.00 25.01 LIG 0.16  HD
ENDROOT
BRANCH 1 5
ATOM      5  CA  THR D   3       5.373   3.151  -0.552  1.00 20.85 LIG 0.20  C 
BRANCH 5 6
ATOM      6  N   THR D   3       5.477   1.758  -0.134  1.00 20.16 LIG-0.34  N 
ATOM      7 H    THR D   3       6.273   1.435  -0.176  1.00 20.16 LIG 0.16  HD
ATOM      8  C   ARG D   2       4.418   1.067   0.274  1.00 20.73 LIG 0.24  C 
ATOM      9 O    ARG D   2       3.274   1.526   0.280  1.00 19.88 LIG-0.27  OA
BRANCH 8 10
ATOM     10  CA  ARG D   2       4.686  -0.366   0.722  1.00 21.07 LIG 0.18  C 
BRANCH 10 11
ATOM     11  CB  ARG D   2       4.997  -0.411   2.224  1.00 18.72 LIG 0.04  C 
BRANCH 11 12
ATOM     12  CG  ARG D   2       4.720  -1.770   2.875  1.00 17.25 LIG 0.02  C 
BRANCH 12 13
ATOM     13  CD  ARG D   2       5.684  -2.845   2.376  1.00 15.57 LIG 0.14  C 
BRANCH 13 14
ATOM     14  NE  ARG D   2       7.076  -2.525   2.678  1.00 16.78 LIG-0.23  N 
ATOM     15 HE   ARG D   2       7.524  -2.084   2.091  1.00 16.78 LIG 0.18  HD
ATOM     16  CZ  ARG D   2       7.696  -2.872   3.803  1.00 18.57 LIG 0.67  C 
ATOM     17  NH2 ARG D   2       8.967  -2.539   3.992  1.00 17.94 LIG-0.23  N 
ATOM     18  NH1 ARG D   2       7.046  -3.546   4.742  1.00 16.85 LIG-0.23  N 
ATOM     19 1HH2 ARG D   2       9.391  -2.098   3.387  1.00 17.94 LIG 0.17  HD
ATOM     20 2HH2 ARG D   2       9.367  -2.763   4.719  1.00 17.94 LIG 0.17  HD
ATOM     21 2HH1 ARG D   2       7.448  -3.769   5.469  1.00 16.85 LIG 0.17  HD
ATOM     22 1HH1 ARG D   2       6.222  -3.761   4.624  1.00 16.85 LIG 0.17  HD
ENDBRANCH 13 14
ENDBRANCH 12 13
ENDBRANCH 11 12
ENDBRANCH 10 11
BRANCH 10 23
ATOM     23  N   ARG D   2       5.759  -0.986  -0.056  1.00 21.51 LIG-0.35  N 
ATOM     24  C   ALA D   1       5.694  -1.058  -1.382  1.00 21.30 LIG 0.24  C 
ATOM     25 O    ALA D   1       4.776  -0.559  -2.027  1.00 21.16 LIG-0.27  OA
ATOM     26 H    ARG D   2       6.413  -1.289   0.414  1.00 21.51 LIG 0.16  HD
BRANCH 24 27
ATOM     27  CA  ALA D   1       6.833  -1.789  -2.093  1.00 21.78 LIG 0.17  C 
ATOM     28  CB  ALA D   1       6.357  -2.342  -3.426  1.00 21.47 LIG 0.04  C 
BRANCH 27 29
ATOM     29  N   ALA D   1       7.414  -2.854  -1.277  1.00 22.15 LIG-0.35  N 
ATOM     30 H    ALA D   1       8.249  -2.741  -1.106  1.00 22.15 LIG 0.16  HD
ATOM     31  C   ACE D   0       6.718  -3.901  -0.842  1.00 22.99 LIG 0.21  C 
ATOM     32 O    ACE D   0       5.674  -4.309  -1.354  1.00 24.10 LIG-0.27  OA
ATOM     33  CH3 ACE D   0       7.545  -4.751   0.076  1.00 21.14 LIG 0.12  C 
ENDBRANCH 27 29
ENDBRANCH 24 27
ENDBRANCH 10 23
ENDBRANCH 8 10
ENDBRANCH 5 6
BRANCH 5 34
ATOM     34  CB  THR D   3       5.721   4.102   0.608  1.00 19.16 LIG 0.15  C 
ATOM     35  CG2 THR D   3       5.049   5.449   0.400  1.00 17.08 LIG 0.04  C 
BRANCH 34 36
ATOM     36 OG1  THR D   3       5.269   3.539   1.847  1.00 20.38 LIG-0.39  OA
ATOM     37 HG1  THR D   3       4.538   3.145   1.725  1.00 20.38 LIG 0.21  HD
ENDBRANCH 34 36
ENDBRANCH 5 34
ENDBRANCH 1 5
BRANCH 3 38
ATOM     38  CA  GLU D   4       6.680   3.064  -4.138  1.00 28.82 LIG 0.18  C 
BRANCH 38 39
ATOM     39  CB  GLU D   4       8.077   2.440  -4.078  1.00 31.32 LIG 0.04  C 
BRANCH 39 40
ATOM     40  CG  GLU D   4       8.174   1.195  -3.211  1.00 34.96 LIG 0.12  C 
BRANCH 40 41
ATOM     41  CD  GLU D   4       8.985   0.093  -3.865  1.00 38.68 LIG 0.17  C 
ATOM     42 OE2  GLU D   4       8.977   0.005  -5.110  1.00 39.24 LIG-0.65  OA
ATOM     43 OE1  GLU D   4       9.628  -0.688  -3.133  1.00 40.65 LIG-0.65  OA
ENDBRANCH 40 41
ENDBRANCH 39 40
ENDBRANCH 38 39
BRANCH 38 44
ATOM     44  C   GLU D   4       5.912   2.476  -5.319  1.00 29.37 LIG 0.24  C 
ATOM     45  N   VAL D   5       4.721   1.949  -5.048  1.00 31.15 LIG-0.35  N 
ATOM     46 H    VAL D   5       4.385   1.901  -4.258  1.00 31.15 LIG 0.16  HD
ATOM     47 O    GLU D   4       6.388   2.509  -6.454  1.00 28.00 LIG-0.27  OA
BRANCH 45 48
ATOM     48  CA  VAL D   5       3.870   1.397  -6.100  1.00 31.02 LIG 0.18  C 
BRANCH 48 49
ATOM     49  C   VAL D   5       2.392   1.683  -5.849  1.00 31.80 LIG 0.24  C 
ATOM     50  N   TYR D   6       2.114   2.549  -4.879  1.00 29.63 LIG-0.35  N 
ATOM     51 H    TYR D   6       2.710   2.901  -4.368  1.00 29.63 LIG 0.16  HD
ATOM     52 O    VAL D   5       1.523   1.133  -6.528  1.00 32.83 LIG-0.27  OA
BRANCH 50 53
ATOM     53  CA  TYR D   6       0.752   2.983  -4.596  1.00 30.54 LIG 0.18  C 
BRANCH 53 54
ATOM     54  C   TYR D   6       0.752   4.450  -4.180  1.00 31.23 LIG 0.28  C 
ATOM     55  N   NH2 D   7      -0.241   5.194  -4.654  1.00 33.55 LIG-0.11  N 
ATOM     56 O    TYR D   6       1.641   4.898  -3.455  1.00 28.81 LIG-0.27  OA
ENDBRANCH 53 54
BRANCH 53 57
ATOM     57  CB  TYR D   6       0.134   2.111  -3.498  1.00 30.33 LIG 0.07  C 
BRANCH 57 58
ATOM     58  CG  TYR D   6       0.197   2.698  -2.101  1.00 31.81 LIG-0.06  A 
ATOM     59  CD1 TYR D   6      -0.959   2.914  -1.361  1.00 31.47 LIG 0.01  A 
ATOM     60  CE1 TYR D   6      -0.901   3.440  -0.085  1.00 32.87 LIG 0.04  A 
ATOM     61  CZ  TYR D   6       0.321   3.748   0.473  1.00 33.71 LIG 0.07  A 
ATOM     62  CE2 TYR D   6       1.484   3.534  -0.237  1.00 32.90 LIG 0.04  A 
ATOM     63  CD2 TYR D   6       1.417   3.007  -1.514  1.00 31.58 LIG 0.01  A 
BRANCH 61 64
ATOM     64 OH   TYR D   6       0.381   4.272   1.745  1.00 34.88 LIG-0.36  OA
ATOM     65 HH   TYR D   6       0.361   5.111   1.703  1.00 34.88 LIG 0.22  HD
ENDBRANCH 61 64
ENDBRANCH 57 58
ENDBRANCH 53 57
ENDBRANCH 50 53
ENDBRANCH 48 49
BRANCH 48 66
ATOM     66  CB  VAL D   5       4.037  -0.129  -6.231  1.00 31.19 LIG 0.01  C 
ATOM     67  CG1 VAL D   5       5.484  -0.471  -6.574  1.00 32.10 LIG 0.01  C 
ATOM     68  CG2 VAL D   5       3.609  -0.827  -4.958  1.00 30.34 LIG 0.01  C 
ENDBRANCH 48 66
ENDBRANCH 45 48
ENDBRANCH 38 44
ENDBRANCH 3 38
TORSDOF 25
ENDMDL
MODEL 50
USER: ADFR SOLUTION from run 157
USER: SCORE 18.927312 LL:  -7.310 LR: -14.388 RR:   0.000 FEB:  -6.931
USER: RMSD 6.571106
USER: SEED 156
USER: STATUS searching
USER: GENES 27
USER: genes 0 Translation |==|  0.55703 0.40780 0.64165
USER: genes 1 Rotation |==|  0.42182 0.98496 0.52911 0.58862
USER: genes 2 Torsion [N]-C--CA-[N] |==|  0.95948
USER: genes 3 Torsion [C]-CA--N-[C] |==|  0.79983
USER: genes 4 Torsion [N]-C--CA-[N] |==|  0.62271
USER: genes 5 Torsion [C]-CA--CB-[CG] |==|  0.46872
USER: genes 6 Torsion [CA]-CB--CG-[CD] |==|  0.65823
USER: genes 7 Torsion [CB]-CG--CD-[NE] |==|  0.29112
USER: genes 8 Torsion [CG]-CD--NE-[HE] |==|  0.08271
USER: genes 9 Torsion [C]-CA--N-[C] |==|  0.16857
USER: genes 10 Torsion [N]-C--CA-[N] |==|  0.22056
USER: genes 11 Torsion [C]-CA--N-[C] |==|  0.75492
USER: genes 12 Torsion [C]-CA--CB-[CG2] |==|  0.22341
USER: genes 13 Torsion [CA]-CB--OG1-[HG1] |==|  0.65201
USER: genes 14 Torsion [C]-N--CA-[CB] |==|  0.37323
USER: genes 15 Torsion [N]-CA--CB-[CG] |==|  0.38827
USER: genes 16 Torsion [CA]-CB--CG-[CD] |==|  0.30502
USER: genes 17 Torsion [CB]-CG--CD-[OE2] |==|  0.85173
USER: genes 18 Torsion [N]-CA--C-[N] |==|  0.35768
USER: genes 19 Torsion [C]-N--CA-[CB] |==|  0.85450
USER: genes 20 Torsion [N]-CA--C-[N] |==|  0.35711
USER: genes 21 Torsion [C]-N--CA-[C] |==|  0.61272
USER: genes 22 Torsion [N]-CA--C-[N] |==|  0.46667
USER: genes 23 Torsion [N]-CA--CB-[CG] |==|  0.80268
USER: genes 24 Torsion [CA]-CB--CG-[CD1] |==|  0.75731
USER: genes 25 Torsion [CE1]-CZ--OH-[HH] |==|  0.25129
USER: genes 26 Torsion [N]-CA--CB-[CG1] |==|  0.48642
ROOT
ATOM      1  C   THR D   3       5.371   1.753  -1.900  1.00 23.43 LIG 0.24  C 
ATOM      2 O    THR D   3       5.591   0.802  -2.649  1.00 24.39 LIG-0.27  OA
ATOM      3  N   GLU D   4       4.971   1.607  -0.641  1.00 25.01 LIG-0.35  N 
ATOM      4 H    GLU D   4       4.840   2.266  -0.103  1.00 25.01 LIG 0.16  HD
ENDROOT
BRANCH 1 5
ATOM      5  CA  THR D   3       5.550   3.191  -2.395  1.00 20.85 LIG 0.20  C 
BRANCH 5 6
ATOM      6  N   THR D   3       4.930   4.169  -1.510  1.00 20.16 LIG-0.34  N 
ATOM      7 H    THR D   3       5.488   4.638  -1.055  1.00 20.16 LIG 0.16  HD
ATOM      8  C   ARG D   2       3.610   4.306  -1.429  1.00 20.73 LIG 0.24  C 
ATOM      9 O    ARG D   2       2.819   3.590  -2.048  1.00 19.88 LIG-0.27  OA
BRANCH 8 10
ATOM     10  CA  ARG D   2       3.106   5.398  -0.493  1.00 21.07 LIG 0.18  C 
BRANCH 10 11
ATOM     11  CB  ARG D   2       4.251   5.926   0.384  1.00 18.72 LIG 0.04  C 
BRANCH 11 12
ATOM     12  CG  ARG D   2       3.904   7.203   1.156  1.00 17.25 LIG 0.02  C 
BRANCH 12 13
ATOM     13  CD  ARG D   2       4.877   8.338   0.843  1.00 15.57 LIG 0.14  C 
BRANCH 13 14
ATOM     14  NE  ARG D   2       4.290   9.344  -0.038  1.00 16.78 LIG-0.23  N 
ATOM     15 HE   ARG D   2       3.440   9.468   0.003  1.00 16.78 LIG 0.18  HD
ATOM     16  CZ  ARG D   2       4.986  10.080  -0.900  1.00 18.57 LIG 0.67  C 
ATOM     17  NH2 ARG D   2       4.368  10.972  -1.665  1.00 17.94 LIG-0.23  N 
ATOM     18  NH1 ARG D   2       6.301   9.931  -0.994  1.00 16.85 LIG-0.23  N 
ATOM     19 1HH2 ARG D   2       3.516  11.074  -1.603  1.00 17.94 LIG 0.17  HD
ATOM     20 2HH2 ARG D   2       4.819  11.447  -2.221  1.00 17.94 LIG 0.17  HD
ATOM     21 2HH1 ARG D   2       6.749  10.408  -1.552  1.00 16.85 LIG 0.17  HD
ATOM     22 1HH1 ARG D   2       6.705   9.357  -0.499  1.00 16.85 LIG 0.17  HD
ENDBRANCH 13 14
ENDBRANCH 12 13
ENDBRANCH 11 12
ENDBRANCH 10 11
BRANCH 10 23
ATOM     23  N   ARG D   2       1.986   4.936   0.328  1.00 21.51 LIG-0.35  N 
ATOM     24  C   ALA D   1       2.124   3.915   1.167  1.00 21.30 LIG 0.24  C 
ATOM     25 O    ALA D   1       3.199   3.349   1.350  1.00 21.16 LIG-0.27  OA
ATOM     26 H    ARG D   2       1.255   5.376   0.217  1.00 21.51 LIG 0.16  HD
BRANCH 24 27
ATOM     27  CA  ALA D   1       0.874   3.467   1.925  1.00 21.78 LIG 0.17  C 
ATOM     28  CB  ALA D   1       1.262   2.737   3.201  1.00 21.47 LIG 0.04  C 
BRANCH 27 29
ATOM     29  N   ALA D   1      -0.009   2.634   1.111  1.00 22.15 LIG-0.35  N 
ATOM     30 H    ALA D   1       0.148   1.791   1.184  1.00 22.15 LIG 0.16  HD
ATOM     31  C   ACE D   0      -0.965   3.130   0.330  1.00 22.99 LIG 0.21  C 
ATOM     32 O    ACE D   0      -0.984   4.283  -0.104  1.00 24.10 LIG-0.27  OA
ATOM     33  CH3 ACE D   0      -1.788   2.032  -0.274  1.00 21.14 LIG 0.12  C 
ENDBRANCH 27 29
ENDBRANCH 24 27
ENDBRANCH 10 23
ENDBRANCH 8 10
ENDBRANCH 5 6
BRANCH 5 34
ATOM     34  CB  THR D   3       7.047   3.495  -2.590  1.00 19.16 LIG 0.15  C 
ATOM     35  CG2 THR D   3       7.527   2.930  -3.916  1.00 17.08 LIG 0.04  C 
BRANCH 34 36
ATOM     36 OG1  THR D   3       7.257   4.913  -2.580  1.00 20.38 LIG-0.39  OA
ATOM     37 HG1  THR D   3       7.659   5.142  -3.281  1.00 20.38 LIG 0.21  HD
ENDBRANCH 34 36
ENDBRANCH 5 34
ENDBRANCH 1 5
BRANCH 3 38
ATOM     38  CA  GLU D   4       4.713   0.296  -0.051  1.00 28.82 LIG 0.18  C 
BRANCH 38 39
ATOM     39  CB  GLU D   4       5.350   0.196   1.338  1.00 31.32 LIG 0.04  C 
BRANCH 39 40
ATOM     40  CG  GLU D   4       4.497  -0.519   2.374  1.00 34.96 LIG 0.12  C 
BRANCH 40 41
ATOM     41  CD  GLU D   4       5.063  -1.872   2.759  1.00 38.68 LIG 0.17  C 
ATOM     42 OE2  GLU D   4       5.320  -2.692   1.852  1.00 39.24 LIG-0.65  OA
ATOM     43 OE1  GLU D   4       5.247  -2.118   3.969  1.00 40.65 LIG-0.65  OA
ENDBRANCH 40 41
ENDBRANCH 39 40
ENDBRANCH 38 39
BRANCH 38 44
ATOM     44  C   GLU D   4       3.211   0.051   0.061  1.00 29.37 LIG 0.24  C 
ATOM     45  N   VAL D   5       2.757  -1.094  -0.441  1.00 31.15 LIG-0.35  N 
ATOM     46 H    VAL D   5       3.253  -1.674  -0.839  1.00 31.15 LIG 0.16  HD
ATOM     47 O    GLU D   4       2.480   0.881   0.602  1.00 28.00 LIG-0.27  OA
BRANCH 45 48
ATOM     48  CA  VAL D   5       1.347  -1.465  -0.353  1.00 31.02 LIG 0.18  C 
BRANCH 48 49
ATOM     49  C   VAL D   5       0.464  -0.576  -1.223  1.00 31.80 LIG 0.24  C 
ATOM     50  N   TYR D   6      -0.366  -1.200  -2.053  1.00 29.63 LIG-0.35  N 
ATOM     51 H    TYR D   6      -0.387  -2.054  -2.156  1.00 29.63 LIG 0.16  HD
ATOM     52 O    VAL D   5       0.532   0.651  -1.137  1.00 32.83 LIG-0.27  OA
BRANCH 50 53
ATOM     53  CA  TYR D   6      -1.329  -0.476  -2.872  1.00 30.54 LIG 0.18  C 
BRANCH 53 54
ATOM     54  C   TYR D   6      -2.655  -1.228  -2.899  1.00 31.23 LIG 0.28  C 
ATOM     55  N   NH2 D   7      -3.695  -0.569  -3.399  1.00 33.55 LIG-0.11  N 
ATOM     56 O    TYR D   6      -2.735  -2.378  -2.463  1.00 28.81 LIG-0.27  OA
ENDBRANCH 53 54
BRANCH 53 57
ATOM     57  CB  TYR D   6      -0.786  -0.291  -4.293  1.00 30.33 LIG 0.07  C 
BRANCH 57 58
ATOM     58  CG  TYR D   6       0.360   0.695  -4.419  1.00 31.81 LIG-0.06  A 
ATOM     59  CD1 TYR D   6       0.121   2.051  -4.607  1.00 31.47 LIG 0.01  A 
ATOM     60  CE1 TYR D   6       1.164   2.951  -4.711  1.00 32.87 LIG 0.04  A 
ATOM     61  CZ  TYR D   6       2.464   2.505  -4.617  1.00 33.71 LIG 0.07  A 
ATOM     62  CE2 TYR D   6       2.728   1.165  -4.421  1.00 32.90 LIG 0.04  A 
ATOM     63  CD2 TYR D   6       1.678   0.271  -4.317  1.00 31.58 LIG 0.01  A 
BRANCH 61 64
ATOM     64 OH   TYR D   6       3.505   3.400  -4.721  1.00 34.88 LIG-0.36  OA
ATOM     65 HH   TYR D   6       3.702   3.689  -3.957  1.00 34.88 LIG 0.22  HD
ENDBRANCH 61 64
ENDBRANCH 57 58
ENDBRANCH 53 57
ENDBRANCH 50 53
ENDBRANCH 48 49
BRANCH 48 66
ATOM     66  CB  VAL D   5       0.821  -1.378   1.093  1.00 31.19 LIG 0.01  C 
ATOM     67  CG1 VAL D   5      -0.678  -1.654   1.125  1.00 32.10 LIG 0.01  C 
ATOM     68  CG2 VAL D   5       1.563  -2.342   1.993  1.00 30.34 LIG 0.01  C 
ENDBRANCH 48 66
ENDBRANCH 45 48
ENDBRANCH 38 44
ENDBRANCH 3 38
TORSDOF 25
ENDMDL
MODEL 51
USER: ADFR SOLUTION from run 125
USER: SCORE 18.659336 LL:  -5.996 LR: -14.375 RR:   0.000 FEB:  -6.918
USER: RMSD 6.479160
USER: SEED 124
USER: STATUS searching
USER: GENES 27
USER: genes 0 Translation |==|  0.66266 0.42306 0.59206
USER: genes 1 Rotation |==|  0.26822 0.72490 0.80529 0.72911
USER: genes 2 Torsion [N]-C--CA-[N] |==|  0.16934
USER: genes 3 Torsion [C]-CA--N-[C] |==|  0.75723
USER: genes 4 Torsion [N]-C--CA-[N] |==|  0.13621
USER: genes 5 Torsion [C]-CA--CB-[CG] |==|  0.27173
USER: genes 6 Torsion [CA]-CB--CG-[CD] |==|  0.25045
USER: genes 7 Torsion [CB]-CG--CD-[NE] |==|  0.67883
USER: genes 8 Torsion [CG]-CD--NE-[HE] |==|  0.03424
USER: genes 9 Torsion [C]-CA--N-[C] |==|  0.15743
USER: genes 10 Torsion [N]-C--CA-[N] |==|  0.31835
USER: genes 11 Torsion [C]-CA--N-[C] |==|  0.72643
USER: genes 12 Torsion [C]-CA--CB-[CG2] |==|  0.52193
USER: genes 13 Torsion [CA]-CB--OG1-[HG1] |==|  0.22188
USER: genes 14 Torsion [C]-N--CA-[CB] |==|  0.51685
USER: genes 15 Torsion [N]-CA--CB-[CG] |==|  0.56834
USER: genes 16 Torsion [CA]-CB--CG-[CD] |==|  0.22464
USER: genes 17 Torsion [CB]-CG--CD-[OE2] |==|  0.87904
USER: genes 18 Torsion [N]-CA--C-[N] |==|  0.42778
USER: genes 19 Torsion [C]-N--CA-[CB] |==|  0.54710
USER: genes 20 Torsion [N]-CA--C-[N] |==|  0.35128
USER: genes 21 Torsion [C]-N--CA-[C] |==|  0.67694
USER: genes 22 Torsion [N]-CA--C-[N] |==|  0.42176
USER: genes 23 Torsion [N]-CA--CB-[CG] |==|  0.86222
USER: genes 24 Torsion [CA]-CB--CG-[CD1] |==|  0.29080
USER: genes 25 Torsion [CE1]-CZ--OH-[HH] |==|  0.70771
USER: genes 26 Torsion [N]-CA--CB-[CG1] |==|  0.59162
ROOT
ATOM      1  C   THR D   3       7.431   2.108  -3.128  1.00 23.43 LIG 0.24  C 
ATOM      2 O    THR D   3       8.275   2.927  -3.491  1.00 24.39 LIG-0.27  OA
ATOM      3  N   GLU D   4       7.581   0.796  -3.282  1.00 25.01 LIG-0.35  N 
ATOM      4 H    GLU D   4       7.009   0.215  -3.007  1.00 25.01 LIG 0.16  HD
ENDROOT
BRANCH 1 5
ATOM      5  CA  THR D   3       6.131   2.572  -2.466  1.00 20.85 LIG 0.20  C 
BRANCH 5 6
ATOM      6  N   THR D   3       5.977   2.054  -1.112  1.00 20.16 LIG-0.34  N 
ATOM      7 H    THR D   3       6.277   2.576  -0.497  1.00 20.16 LIG 0.16  HD
ATOM      8  C   ARG D   2       5.418   0.873  -0.870  1.00 20.73 LIG 0.24  C 
ATOM      9 O    ARG D   2       5.039   0.111  -1.763  1.00 19.88 LIG-0.27  OA
BRANCH 8 10
ATOM     10  CA  ARG D   2       5.285   0.482   0.598  1.00 21.07 LIG 0.18  C 
BRANCH 10 11
ATOM     11  CB  ARG D   2       4.479  -0.817   0.738  1.00 18.72 LIG 0.04  C 
BRANCH 11 12
ATOM     12  CG  ARG D   2       5.343  -2.072   0.893  1.00 17.25 LIG 0.02  C 
BRANCH 12 13
ATOM     13  CD  ARG D   2       5.644  -2.376   2.360  1.00 15.57 LIG 0.14  C 
BRANCH 13 14
ATOM     14  NE  ARG D   2       7.067  -2.271   2.668  1.00 16.78 LIG-0.23  N 
ATOM     15 HE   ARG D   2       7.578  -1.903   2.083  1.00 16.78 LIG 0.18  HD
ATOM     16  CZ  ARG D   2       7.622  -2.707   3.795  1.00 18.57 LIG 0.67  C 
ATOM     17  NH2 ARG D   2       8.928  -2.570   3.990  1.00 17.94 LIG-0.23  N 
ATOM     18  NH1 ARG D   2       6.872  -3.274   4.732  1.00 16.85 LIG-0.23  N 
ATOM     19 1HH2 ARG D   2       9.416  -2.199   3.387  1.00 17.94 LIG 0.17  HD
ATOM     20 2HH2 ARG D   2       9.286  -2.852   4.719  1.00 17.94 LIG 0.17  HD
ATOM     21 2HH1 ARG D   2       7.234  -3.555   5.460  1.00 16.85 LIG 0.17  HD
ATOM     22 1HH1 ARG D   2       6.026  -3.362   4.610  1.00 16.85 LIG 0.17  HD
ENDBRANCH 13 14
ENDBRANCH 12 13
ENDBRANCH 11 12
ENDBRANCH 10 11
BRANCH 10 23
ATOM     23  N   ARG D   2       4.694   1.557   1.395  1.00 21.51 LIG-0.35  N 
ATOM     24  C   ALA D   1       3.506   2.068   1.086  1.00 21.30 LIG 0.24  C 
ATOM     25 O    ALA D   1       2.817   1.633   0.168  1.00 21.16 LIG-0.27  OA
ATOM     26 H    ARG D   2       5.174   1.816   2.059  1.00 21.51 LIG 0.16  HD
BRANCH 24 27
ATOM     27  CA  ALA D   1       3.011   3.236   1.940  1.00 21.78 LIG 0.17  C 
ATOM     28  CB  ALA D   1       1.681   2.889   2.590  1.00 21.47 LIG 0.04  C 
BRANCH 27 29
ATOM     29  N   ALA D   1       2.898   4.480   1.181  1.00 22.15 LIG-0.35  N 
ATOM     30 H    ALA D   1       2.172   4.540   0.723  1.00 22.15 LIG 0.16  HD
ATOM     31  C   ACE D   0       3.828   5.430   1.195  1.00 22.99 LIG 0.21  C 
ATOM     32 O    ACE D   0       5.009   5.248   1.498  1.00 24.10 LIG-0.27  OA
ATOM     33  CH3 ACE D   0       3.374   6.638   0.430  1.00 21.14 LIG 0.12  C 
ENDBRANCH 27 29
ENDBRANCH 24 27
ENDBRANCH 10 23
ENDBRANCH 8 10
ENDBRANCH 5 6
BRANCH 5 34
ATOM     34  CB  THR D   3       6.055   4.110  -2.480  1.00 19.16 LIG 0.15  C 
ATOM     35  CG2 THR D   3       4.869   4.583  -1.657  1.00 17.08 LIG 0.04  C 
BRANCH 34 36
ATOM     36 OG1  THR D   3       7.259   4.657  -1.926  1.00 20.38 LIG-0.39  OA
ATOM     37 HG1  THR D   3       7.866   4.645  -2.507  1.00 20.38 LIG 0.21  HD
ENDBRANCH 34 36
ENDBRANCH 5 34
ENDBRANCH 1 5
BRANCH 3 38
ATOM     38  CA  GLU D   4       8.749   0.217  -3.940  1.00 28.82 LIG 0.18  C 
BRANCH 38 39
ATOM     39  CB  GLU D   4       8.579  -1.297  -4.105  1.00 31.32 LIG 0.04  C 
BRANCH 39 40
ATOM     40  CG  GLU D   4       9.883  -2.070  -4.215  1.00 34.96 LIG 0.12  C 
BRANCH 40 41
ATOM     41  CD  GLU D   4      10.520  -2.329  -2.863  1.00 38.68 LIG 0.17  C 
ATOM     42 OE2  GLU D   4      10.552  -1.399  -2.031  1.00 39.24 LIG-0.65  OA
ATOM     43 OE1  GLU D   4      10.993  -3.462  -2.635  1.00 40.65 LIG-0.65  OA
ENDBRANCH 40 41
ENDBRANCH 39 40
ENDBRANCH 38 39
BRANCH 38 44
ATOM     44  C   GLU D   4       8.957   0.856  -5.310  1.00 29.37 LIG 0.24  C 
ATOM     45  N   VAL D   5      10.200   0.852  -5.785  1.00 31.15 LIG-0.35  N 
ATOM     46 H    VAL D   5      10.876   0.539  -5.356  1.00 31.15 LIG 0.16  HD
ATOM     47 O    GLU D   4       8.006   1.335  -5.928  1.00 28.00 LIG-0.27  OA
BRANCH 45 48
ATOM     48  CA  VAL D   5      10.519   1.390  -7.104  1.00 31.02 LIG 0.18  C 
BRANCH 48 49
ATOM     49  C   VAL D   5       9.481   0.995  -8.151  1.00 31.80 LIG 0.24  C 
ATOM     50  N   TYR D   6       8.938   1.988  -8.849  1.00 29.63 LIG-0.35  N 
ATOM     51 H    TYR D   6       9.100   2.820  -8.701  1.00 29.63 LIG 0.16  HD
ATOM     52 O    VAL D   5       9.186  -0.188  -8.326  1.00 32.83 LIG-0.27  OA
BRANCH 50 53
ATOM     53  CA  TYR D   6       8.005   1.746  -9.941  1.00 30.54 LIG 0.18  C 
BRANCH 53 54
ATOM     54  C   TYR D   6       8.604   2.242 -11.253  1.00 31.23 LIG 0.28  C 
ATOM     55  N   NH2 D   7       8.202   1.618 -12.355  1.00 33.55 LIG-0.11  N 
ATOM     56 O    TYR D   6       9.423   3.162 -11.262  1.00 28.81 LIG-0.27  OA
ENDBRANCH 53 54
BRANCH 53 57
ATOM     57  CB  TYR D   6       6.668   2.442  -9.662  1.00 30.33 LIG 0.07  C 
BRANCH 57 58
ATOM     58  CG  TYR D   6       6.084   2.180  -8.287  1.00 31.81 LIG-0.06  A 
ATOM     59  CD1 TYR D   6       6.134   3.147  -7.291  1.00 31.47 LIG 0.01  A 
ATOM     60  CE1 TYR D   6       5.593   2.913  -6.041  1.00 32.87 LIG 0.04  A 
ATOM     61  CZ  TYR D   6       4.983   1.706  -5.776  1.00 33.71 LIG 0.07  A 
ATOM     62  CE2 TYR D   6       4.912   0.733  -6.750  1.00 32.90 LIG 0.04  A 
ATOM     63  CD2 TYR D   6       5.455   0.976  -7.999  1.00 31.58 LIG 0.01  A 
BRANCH 61 64
ATOM     64 OH   TYR D   6       4.443   1.470  -4.532  1.00 34.88 LIG-0.36  OA
ATOM     65 HH   TYR D   6       4.943   0.947  -4.104  1.00 34.88 LIG 0.22  HD
ENDBRANCH 61 64
ENDBRANCH 57 58
ENDBRANCH 53 57
ENDBRANCH 50 53
ENDBRANCH 48 49
BRANCH 48 66
ATOM     66  CB  VAL D   5      11.896   0.909  -7.603  1.00 31.19 LIG 0.01  C 
ATOM     67  CG1 VAL D   5      12.555   1.991  -8.452  1.00 32.10 LIG 0.01  C 
ATOM     68  CG2 VAL D   5      12.783   0.527  -6.438  1.00 30.34 LIG 0.01  C 
ENDBRANCH 48 66
ENDBRANCH 45 48
ENDBRANCH 38 44
ENDBRANCH 3 38
TORSDOF 25
ENDMDL
MODEL 52
USER: ADFR SOLUTION from run 59
USER: SCORE 18.283174 LL:  -6.029 LR: -14.356 RR:   0.000 FEB:  -6.899
USER: RMSD 7.501317
USER: SEED 58
USER: STATUS no improvement in best in 4 clusters for 5 generations
USER: GENES 27
USER: genes 0 Translation |==|  0.45755 0.45176 0.71330
USER: genes 1 Rotation |==|  0.62616 0.26156 0.09269 0.60643
USER: genes 2 Torsion [N]-C--CA-[N] |==|  0.89649
USER: genes 3 Torsion [C]-CA--N-[C] |==|  0.84689
USER: genes 4 Torsion [N]-C--CA-[N] |==|  0.51206
USER: genes 5 Torsion [C]-CA--CB-[CG] |==|  0.53978
USER: genes 6 Torsion [CA]-CB--CG-[CD] |==|  0.40131
USER: genes 7 Torsion [CB]-CG--CD-[NE] |==|  0.23140
USER: genes 8 Torsion [CG]-CD--NE-[HE] |==|  0.69858
USER: genes 9 Torsion [C]-CA--N-[C] |==|  0.73333
USER: genes 10 Torsion [N]-C--CA-[N] |==|  0.20501
USER: genes 11 Torsion [C]-CA--N-[C] |==|  0.77211
USER: genes 12 Torsion [C]-CA--CB-[CG2] |==|  0.13998
USER: genes 13 Torsion [CA]-CB--OG1-[HG1] |==|  0.02564
USER: genes 14 Torsion [C]-N--CA-[CB] |==|  0.24996
USER: genes 15 Torsion [N]-CA--CB-[CG] |==|  0.89122
USER: genes 16 Torsion [CA]-CB--CG-[CD] |==|  0.37786
USER: genes 17 Torsion [CB]-CG--CD-[OE2] |==|  0.03304
USER: genes 18 Torsion [N]-CA--C-[N] |==|  0.99824
USER: genes 19 Torsion [C]-N--CA-[CB] |==|  0.80520
USER: genes 20 Torsion [N]-CA--C-[N] |==|  0.26690
USER: genes 21 Torsion [C]-N--CA-[C] |==|  0.63082
USER: genes 22 Torsion [N]-CA--C-[N] |==|  0.08002
USER: genes 23 Torsion [N]-CA--CB-[CG] |==|  0.78673
USER: genes 24 Torsion [CA]-CB--CG-[CD1] |==|  0.74468
USER: genes 25 Torsion [CE1]-CZ--OH-[HH] |==|  0.68427
USER: genes 26 Torsion [N]-CA--CB-[CG1] |==|  0.53397
ROOT
ATOM      1  C   THR D   3       3.431   2.776  -0.127  1.00 23.43 LIG 0.24  C 
ATOM      2 O    THR D   3       2.681   3.440  -0.840  1.00 24.39 LIG-0.27  OA
ATOM      3  N   GLU D   4       4.299   1.893  -0.612  1.00 25.01 LIG-0.35  N 
ATOM      4 H    GLU D   4       4.845   1.443  -0.123  1.00 25.01 LIG 0.16  HD
ENDROOT
BRANCH 1 5
ATOM      5  CA  THR D   3       3.401   2.934   1.395  1.00 20.85 LIG 0.20  C 
BRANCH 5 6
ATOM      6  N   THR D   3       3.593   1.669   2.093  1.00 20.16 LIG-0.34  N 
ATOM      7 H    THR D   3       4.241   1.672   2.659  1.00 20.16 LIG 0.16  HD
ATOM      8  C   ARG D   2       2.820   0.613   1.859  1.00 20.73 LIG 0.24  C 
ATOM      9 O    ARG D   2       1.929   0.606   1.008  1.00 19.88 LIG-0.27  OA
BRANCH 8 10
ATOM     10  CA  ARG D   2       3.112  -0.629   2.695  1.00 21.07 LIG 0.18  C 
BRANCH 10 11
ATOM     11  CB  ARG D   2       4.603  -0.988   2.624  1.00 18.72 LIG 0.04  C 
BRANCH 11 12
ATOM     12  CG  ARG D   2       4.928  -2.394   3.137  1.00 17.25 LIG 0.02  C 
BRANCH 12 13
ATOM     13  CD  ARG D   2       6.057  -3.043   2.337  1.00 15.57 LIG 0.14  C 
BRANCH 13 14
ATOM     14  NE  ARG D   2       7.376  -2.631   2.807  1.00 16.78 LIG-0.23  N 
ATOM     15 HE   ARG D   2       7.835  -2.103   2.307  1.00 16.78 LIG 0.18  HD
ATOM     16  CZ  ARG D   2       7.915  -3.021   3.959  1.00 18.57 LIG 0.67  C 
ATOM     17  NH2 ARG D   2       9.124  -2.597   4.306  1.00 17.94 LIG-0.23  N 
ATOM     18  NH1 ARG D   2       7.244  -3.830   4.769  1.00 16.85 LIG-0.23  N 
ATOM     19 1HH2 ARG D   2       9.561  -2.069   3.786  1.00 17.94 LIG 0.17  HD
ATOM     20 2HH2 ARG D   2       9.471  -2.849   5.051  1.00 17.94 LIG 0.17  HD
ATOM     21 2HH1 ARG D   2       7.594  -4.081   5.514  1.00 16.85 LIG 0.17  HD
ATOM     22 1HH1 ARG D   2       6.459  -4.104   4.549  1.00 16.85 LIG 0.17  HD
ENDBRANCH 13 14
ENDBRANCH 12 13
ENDBRANCH 11 12
ENDBRANCH 10 11
BRANCH 10 23
ATOM     23  N   ARG D   2       2.279  -1.762   2.293  1.00 21.51 LIG-0.35  N 
ATOM     24  C   ALA D   1       1.148  -2.046   2.932  1.00 21.30 LIG 0.24  C 
ATOM     25 O    ALA D   1       0.710  -1.347   3.842  1.00 21.16 LIG-0.27  OA
ATOM     26 H    ARG D   2       2.582  -2.211   1.625  1.00 21.51 LIG 0.16  HD
BRANCH 24 27
ATOM     27  CA  ALA D   1       0.389  -3.293   2.478  1.00 21.78 LIG 0.17  C 
ATOM     28  CB  ALA D   1      -1.048  -3.247   2.973  1.00 21.47 LIG 0.04  C 
BRANCH 27 29
ATOM     29  N   ALA D   1       1.036  -4.532   2.905  1.00 22.15 LIG-0.35  N 
ATOM     30 H    ALA D   1       0.695  -4.871   3.619  1.00 22.15 LIG 0.16  HD
ATOM     31  C   ACE D   0       2.055  -5.085   2.253  1.00 22.99 LIG 0.21  C 
ATOM     32 O    ACE D   0       2.809  -4.478   1.491  1.00 24.10 LIG-0.27  OA
ATOM     33  CH3 ACE D   0       2.417  -6.413   2.849  1.00 21.14 LIG 0.12  C 
ENDBRANCH 27 29
ENDBRANCH 24 27
ENDBRANCH 10 23
ENDBRANCH 8 10
ENDBRANCH 5 6
BRANCH 5 34
ATOM     34  CB  THR D   3       4.451   3.971   1.835  1.00 19.16 LIG 0.15  C 
ATOM     35  CG2 THR D   3       4.303   5.244   1.018  1.00 17.08 LIG 0.04  C 
BRANCH 34 36
ATOM     36 OG1  THR D   3       4.272   4.281   3.223  1.00 20.38 LIG-0.39  OA
ATOM     37 HG1  THR D   3       3.715   3.749   3.560  1.00 20.38 LIG 0.21  HD
ENDBRANCH 34 36
ENDBRANCH 5 34
ENDBRANCH 1 5
BRANCH 3 38
ATOM     38  CA  GLU D   4       4.402   1.604  -2.041  1.00 28.82 LIG 0.18  C 
BRANCH 38 39
ATOM     39  CB  GLU D   4       5.419   2.537  -2.706  1.00 31.32 LIG 0.04  C 
BRANCH 39 40
ATOM     40  CG  GLU D   4       5.388   3.970  -2.197  1.00 34.96 LIG 0.12  C 
BRANCH 40 41
ATOM     41  CD  GLU D   4       6.776   4.530  -1.956  1.00 38.68 LIG 0.17  C 
ATOM     42 OE2  GLU D   4       7.759   3.897  -2.392  1.00 39.24 LIG-0.65  OA
ATOM     43 OE1  GLU D   4       6.884   5.603  -1.325  1.00 40.65 LIG-0.65  OA
ENDBRANCH 40 41
ENDBRANCH 39 40
ENDBRANCH 38 39
BRANCH 38 44
ATOM     44  C   GLU D   4       4.825   0.154  -2.260  1.00 29.37 LIG 0.24  C 
ATOM     45  N   VAL D   5       5.035  -0.574  -1.167  1.00 31.15 LIG-0.35  N 
ATOM     46 H    VAL D   5       4.972  -0.268  -0.366  1.00 31.15 LIG 0.16  HD
ATOM     47 O    GLU D   4       4.949  -0.296  -3.399  1.00 28.00 LIG-0.27  OA
BRANCH 45 48
ATOM     48  CA  VAL D   5       5.397  -1.987  -1.245  1.00 31.02 LIG 0.18  C 
BRANCH 48 49
ATOM     49  C   VAL D   5       6.574  -2.226  -2.187  1.00 31.80 LIG 0.24  C 
ATOM     50  N   TYR D   6       7.776  -2.299  -1.622  1.00 29.63 LIG-0.35  N 
ATOM     51 H    TYR D   6       7.919  -2.167  -0.784  1.00 29.63 LIG 0.16  HD
ATOM     52 O    VAL D   5       6.392  -2.348  -3.399  1.00 32.83 LIG-0.27  OA
BRANCH 50 53
ATOM     53  CA  TYR D   6       8.973  -2.616  -2.390  1.00 30.54 LIG 0.18  C 
BRANCH 53 54
ATOM     54  C   TYR D   6       9.786  -3.682  -1.664  1.00 31.23 LIG 0.28  C 
ATOM     55  N   NH2 D   7       9.100  -4.525  -0.900  1.00 33.55 LIG-0.11  N 
ATOM     56 O    TYR D   6      11.011  -3.730  -1.786  1.00 28.81 LIG-0.27  OA
ENDBRANCH 53 54
BRANCH 53 57
ATOM     57  CB  TYR D   6       9.813  -1.353  -2.610  1.00 30.33 LIG 0.07  C 
BRANCH 57 58
ATOM     58  CG  TYR D   6       9.288  -0.412  -3.678  1.00 31.81 LIG-0.06  A 
ATOM     59  CD1 TYR D   6       9.715  -0.514  -4.996  1.00 31.47 LIG 0.01  A 
ATOM     60  CE1 TYR D   6       9.230   0.337  -5.971  1.00 32.87 LIG 0.04  A 
ATOM     61  CZ  TYR D   6       8.300   1.297  -5.639  1.00 33.71 LIG 0.07  A 
ATOM     62  CE2 TYR D   6       7.853   1.413  -4.339  1.00 32.90 LIG 0.04  A 
ATOM     63  CD2 TYR D   6       8.343   0.557  -3.369  1.00 31.58 LIG 0.01  A 
BRANCH 61 64
ATOM     64 OH   TYR D   6       7.816   2.146  -6.608  1.00 34.88 LIG-0.36  OA
ATOM     65 HH   TYR D   6       8.069   2.930  -6.446  1.00 34.88 LIG 0.22  HD
ENDBRANCH 61 64
ENDBRANCH 57 58
ENDBRANCH 53 57
ENDBRANCH 50 53
ENDBRANCH 48 49
BRANCH 48 66
ATOM     66  CB  VAL D   5       4.221  -2.854  -1.735  1.00 31.19 LIG 0.01  C 
ATOM     67  CG1 VAL D   5       4.531  -4.332  -1.517  1.00 32.10 LIG 0.01  C 
ATOM     68  CG2 VAL D   5       2.939  -2.466  -1.029  1.00 30.34 LIG 0.01  C 
ENDBRANCH 48 66
ENDBRANCH 45 48
ENDBRANCH 38 44
ENDBRANCH 3 38
TORSDOF 25
ENDMDL
MODEL 53
USER: ADFR SOLUTION from run 49
USER: SCORE 18.094380 LL:  -5.288 LR: -14.363 RR:   0.000 FEB:  -6.906
USER: RMSD 5.920721
USER: SEED 48
USER: STATUS no improvement in best in 5 clusters for 5 generations
USER: GENES 27
USER: genes 0 Translation |==|  0.67196 0.42236 0.53974
USER: genes 1 Rotation |==|  0.71505 0.35835 0.08223 0.59571
USER: genes 2 Torsion [N]-C--CA-[N] |==|  0.45491
USER: genes 3 Torsion [C]-CA--N-[C] |==|  0.80379
USER: genes 4 Torsion [N]-C--CA-[N] |==|  0.12089
USER: genes 5 Torsion [C]-CA--CB-[CG] |==|  0.45176
USER: genes 6 Torsion [CA]-CB--CG-[CD] |==|  0.49430
USER: genes 7 Torsion [CB]-CG--CD-[NE] |==|  0.23025
USER: genes 8 Torsion [CG]-CD--NE-[HE] |==|  0.74447
USER: genes 9 Torsion [C]-CA--N-[C] |==|  0.16851
USER: genes 10 Torsion [N]-C--CA-[N] |==|  0.91427
USER: genes 11 Torsion [C]-CA--N-[C] |==|  0.80592
USER: genes 12 Torsion [C]-CA--CB-[CG2] |==|  0.22937
USER: genes 13 Torsion [CA]-CB--OG1-[HG1] |==|  0.97745
USER: genes 14 Torsion [C]-N--CA-[CB] |==|  0.52914
USER: genes 15 Torsion [N]-CA--CB-[CG] |==|  0.49285
USER: genes 16 Torsion [CA]-CB--CG-[CD] |==|  0.61450
USER: genes 17 Torsion [CB]-CG--CD-[OE2] |==|  0.74224
USER: genes 18 Torsion [N]-CA--C-[N] |==|  0.76152
USER: genes 19 Torsion [C]-N--CA-[CB] |==|  0.86667
USER: genes 20 Torsion [N]-CA--C-[N] |==|  0.88009
USER: genes 21 Torsion [C]-N--CA-[C] |==|  0.17691
USER: genes 22 Torsion [N]-CA--C-[N] |==|  0.09391
USER: genes 23 Torsion [N]-CA--CB-[CG] |==|  0.67429
USER: genes 24 Torsion [CA]-CB--CG-[CD1] |==|  0.23814
USER: genes 25 Torsion [CE1]-CZ--OH-[HH] |==|  0.67894
USER: genes 26 Torsion [N]-CA--CB-[CG1] |==|  0.50611
ROOT
ATOM      1  C   THR D   3       7.612   2.092  -4.422  1.00 23.43 LIG 0.24  C 
ATOM      2 O    THR D   3       6.840   2.861  -4.994  1.00 24.39 LIG-0.27  OA
ATOM      3  N   GLU D   4       8.748   1.666  -4.969  1.00 25.01 LIG-0.35  N 
ATOM      4 H    GLU D   4       9.306   1.150  -4.566  1.00 25.01 LIG 0.16  HD
ENDROOT
BRANCH 1 5
ATOM      5  CA  THR D   3       7.295   1.570  -3.019  1.00 20.85 LIG 0.20  C 
BRANCH 5 6
ATOM      6  N   THR D   3       6.261   2.354  -2.352  1.00 20.16 LIG-0.34  N 
ATOM      7 H    THR D   3       5.510   1.945  -2.264  1.00 20.16 LIG 0.16  HD
ATOM      8  C   ARG D   2       6.485   3.592  -1.924  1.00 20.73 LIG 0.24  C 
ATOM      9 O    ARG D   2       7.551   4.185  -2.104  1.00 19.88 LIG-0.27  OA
BRANCH 8 10
ATOM     10  CA  ARG D   2       5.325   4.273  -1.207  1.00 21.07 LIG 0.18  C 
BRANCH 10 11
ATOM     11  CB  ARG D   2       5.801   5.554  -0.507  1.00 18.72 LIG 0.04  C 
BRANCH 11 12
ATOM     12  CG  ARG D   2       4.668   6.512  -0.126  1.00 17.25 LIG 0.02  C 
BRANCH 12 13
ATOM     13  CD  ARG D   2       5.191   7.744   0.610  1.00 15.57 LIG 0.14  C 
BRANCH 13 14
ATOM     14  NE  ARG D   2       5.681   8.770  -0.305  1.00 16.78 LIG-0.23  N 
ATOM     15 HE   ARG D   2       6.516   8.759  -0.511  1.00 16.78 LIG 0.18  HD
ATOM     16  CZ  ARG D   2       4.920   9.720  -0.840  1.00 18.57 LIG 0.67  C 
ATOM     17  NH2 ARG D   2       5.453  10.615  -1.663  1.00 17.94 LIG-0.23  N 
ATOM     18  NH1 ARG D   2       3.624   9.774  -0.558  1.00 16.85 LIG-0.23  N 
ATOM     19 1HH2 ARG D   2       6.292  10.581  -1.852  1.00 17.94 LIG 0.17  HD
ATOM     20 2HH2 ARG D   2       4.960  11.229  -2.009  1.00 17.94 LIG 0.17  HD
ATOM     21 2HH1 ARG D   2       3.134  10.389  -0.906  1.00 16.85 LIG 0.17  HD
ATOM     22 1HH1 ARG D   2       3.276   9.195  -0.028  1.00 16.85 LIG 0.17  HD
ENDBRANCH 13 14
ENDBRANCH 12 13
ENDBRANCH 11 12
ENDBRANCH 10 11
BRANCH 10 23
ATOM     23  N   ARG D   2       4.668   3.371  -0.260  1.00 21.51 LIG-0.35  N 
ATOM     24  C   ALA D   1       5.334   2.842   0.761  1.00 21.30 LIG 0.24  C 
ATOM     25 O    ALA D   1       6.504   3.124   1.006  1.00 21.16 LIG-0.27  OA
ATOM     26 H    ARG D   2       3.837   3.223  -0.425  1.00 21.51 LIG 0.16  HD
BRANCH 24 27
ATOM     27  CA  ALA D   1       4.573   1.857   1.649  1.00 21.78 LIG 0.17  C 
ATOM     28  CB  ALA D   1       4.792   0.432   1.168  1.00 21.47 LIG 0.04  C 
BRANCH 27 29
ATOM     29  N   ALA D   1       3.144   2.155   1.725  1.00 22.15 LIG-0.35  N 
ATOM     30 H    ALA D   1       2.650   1.578   1.321  1.00 22.15 LIG 0.16  HD
ATOM     31  C   ACE D   0       2.653   3.217   2.357  1.00 22.99 LIG 0.21  C 
ATOM     32 O    ACE D   0       3.292   4.242   2.604  1.00 24.10 LIG-0.27  OA
ATOM     33  CH3 ACE D   0       1.153   3.184   2.377  1.00 21.14 LIG 0.12  C 
ENDBRANCH 27 29
ENDBRANCH 24 27
ENDBRANCH 10 23
ENDBRANCH 8 10
ENDBRANCH 5 6
BRANCH 5 34
ATOM     34  CB  THR D   3       6.900   0.084  -3.089  1.00 19.16 LIG 0.15  C 
ATOM     35  CG2 THR D   3       8.144  -0.787  -3.126  1.00 17.08 LIG 0.04  C 
BRANCH 34 36
ATOM     36 OG1  THR D   3       6.118  -0.263  -1.938  1.00 20.38 LIG-0.39  OA
ATOM     37 HG1  THR D   3       6.119   0.377  -1.395  1.00 20.38 LIG 0.21  HD
ENDBRANCH 34 36
ENDBRANCH 5 34
ENDBRANCH 1 5
BRANCH 3 38
ATOM     38  CA  GLU D   4       9.153   2.044  -6.320  1.00 28.82 LIG 0.18  C 
BRANCH 38 39
ATOM     39  CB  GLU D   4      10.355   1.210  -6.774  1.00 31.32 LIG 0.04  C 
BRANCH 39 40
ATOM     40  CG  GLU D   4      10.814   1.488  -8.197  1.00 34.96 LIG 0.12  C 
BRANCH 40 41
ATOM     41  CD  GLU D   4      11.181   0.223  -8.947  1.00 38.68 LIG 0.17  C 
ATOM     42 OE2  GLU D   4      12.372  -0.154  -8.933  1.00 39.24 LIG-0.65  OA
ATOM     43 OE1  GLU D   4      10.280  -0.393  -9.554  1.00 40.65 LIG-0.65  OA
ENDBRANCH 40 41
ENDBRANCH 39 40
ENDBRANCH 38 39
BRANCH 38 44
ATOM     44  C   GLU D   4       7.997   1.842  -7.296  1.00 29.37 LIG 0.24  C 
ATOM     45  N   VAL D   5       7.863   0.624  -7.813  1.00 31.15 LIG-0.35  N 
ATOM     46 H    VAL D   5       8.398  -0.029  -7.648  1.00 31.15 LIG 0.16  HD
ATOM     47 O    GLU D   4       7.237   2.772  -7.567  1.00 28.00 LIG-0.27  OA
BRANCH 45 48
ATOM     48  CA  VAL D   5       6.769   0.292  -8.722  1.00 31.02 LIG 0.18  C 
BRANCH 48 49
ATOM     49  C   VAL D   5       6.964   0.910 -10.103  1.00 31.80 LIG 0.24  C 
ATOM     50  N   TYR D   6       7.385   2.172 -10.132  1.00 29.63 LIG-0.35  N 
ATOM     51 H    TYR D   6       7.495   2.654  -9.428  1.00 29.63 LIG 0.16  HD
ATOM     52 O    VAL D   5       6.744   0.253 -11.121  1.00 32.83 LIG-0.27  OA
BRANCH 50 53
ATOM     53  CA  TYR D   6       7.702   2.854 -11.379  1.00 30.54 LIG 0.18  C 
BRANCH 53 54
ATOM     54  C   TYR D   6       6.446   2.975 -12.236  1.00 31.23 LIG 0.28  C 
ATOM     55  N   NH2 D   7       5.302   3.141 -11.580  1.00 33.55 LIG-0.11  N 
ATOM     56 O    TYR D   6       6.513   2.907 -13.464  1.00 28.81 LIG-0.27  OA
ENDBRANCH 53 54
BRANCH 53 57
ATOM     57  CB  TYR D   6       8.798   2.096 -12.135  1.00 30.33 LIG 0.07  C 
BRANCH 57 58
ATOM     58  CG  TYR D   6      10.089   2.867 -12.335  1.00 31.81 LIG-0.06  A 
ATOM     59  CD1 TYR D   6      11.078   2.875 -11.359  1.00 31.47 LIG 0.01  A 
ATOM     60  CE1 TYR D   6      12.259   3.569 -11.545  1.00 32.87 LIG 0.04  A 
ATOM     61  CZ  TYR D   6      12.468   4.258 -12.720  1.00 33.71 LIG 0.07  A 
ATOM     62  CE2 TYR D   6      11.506   4.259 -13.708  1.00 32.90 LIG 0.04  A 
ATOM     63  CD2 TYR D   6      10.328   3.561 -13.514  1.00 31.58 LIG 0.01  A 
BRANCH 61 64
ATOM     64 OH   TYR D   6      13.643   4.951 -12.907  1.00 34.88 LIG-0.36  OA
ATOM     65 HH   TYR D   6      13.478   5.772 -12.966  1.00 34.88 LIG 0.22  HD
ENDBRANCH 61 64
ENDBRANCH 57 58
ENDBRANCH 53 57
ENDBRANCH 50 53
ENDBRANCH 48 49
BRANCH 48 66
ATOM     66  CB  VAL D   5       5.408   0.774  -8.180  1.00 31.19 LIG 0.01  C 
ATOM     67  CG1 VAL D   5       4.289   0.361  -9.131  1.00 32.10 LIG 0.01  C 
ATOM     68  CG2 VAL D   5       5.161   0.227  -6.791  1.00 30.34 LIG 0.01  C 
ENDBRANCH 48 66
ENDBRANCH 45 48
ENDBRANCH 38 44
ENDBRANCH 3 38
TORSDOF 25
ENDMDL
MODEL 54
USER: ADFR SOLUTION from run 152
USER: SCORE 18.004306 LL:  -5.379 LR: -14.359 RR:   0.000 FEB:  -6.901
USER: RMSD 5.614428
USER: SEED 151
USER: STATUS no improvement in best in 5 clusters for 5 generations
USER: GENES 27
USER: genes 0 Translation |==|  0.44190 0.51634 0.70976
USER: genes 1 Rotation |==|  0.48136 0.74493 0.92707 0.58526
USER: genes 2 Torsion [N]-C--CA-[N] |==|  0.98405
USER: genes 3 Torsion [C]-CA--N-[C] |==|  0.20672
USER: genes 4 Torsion [N]-C--CA-[N] |==|  0.10963
USER: genes 5 Torsion [C]-CA--CB-[CG] |==|  0.36973
USER: genes 6 Torsion [CA]-CB--CG-[CD] |==|  0.48580
USER: genes 7 Torsion [CB]-CG--CD-[NE] |==|  0.30811
USER: genes 8 Torsion [CG]-CD--NE-[HE] |==|  0.73549
USER: genes 9 Torsion [C]-CA--N-[C] |==|  0.14902
USER: genes 10 Torsion [N]-C--CA-[N] |==|  0.33570
USER: genes 11 Torsion [C]-CA--N-[C] |==|  0.82691
USER: genes 12 Torsion [C]-CA--CB-[CG2] |==|  0.20121
USER: genes 13 Torsion [CA]-CB--OG1-[HG1] |==|  0.95490
USER: genes 14 Torsion [C]-N--CA-[CB] |==|  0.85518
USER: genes 15 Torsion [N]-CA--CB-[CG] |==|  0.63174
USER: genes 16 Torsion [CA]-CB--CG-[CD] |==|  0.98073
USER: genes 17 Torsion [CB]-CG--CD-[OE2] |==|  0.75994
USER: genes 18 Torsion [N]-CA--C-[N] |==|  0.40405
USER: genes 19 Torsion [C]-N--CA-[CB] |==|  0.18889
USER: genes 20 Torsion [N]-CA--C-[N] |==|  0.53145
USER: genes 21 Torsion [C]-N--CA-[C] |==|  0.75083
USER: genes 22 Torsion [N]-CA--C-[N] |==|  0.98139
USER: genes 23 Torsion [N]-CA--CB-[CG] |==|  0.65429
USER: genes 24 Torsion [CA]-CB--CG-[CD1] |==|  0.55022
USER: genes 25 Torsion [CE1]-CZ--OH-[HH] |==|  0.87867
USER: genes 26 Torsion [N]-CA--CB-[CG1] |==|  0.73486
ROOT
ATOM      1  C   THR D   3       3.126   4.277  -0.214  1.00 23.43 LIG 0.24  C 
ATOM      2 O    THR D   3       3.197   5.349  -0.814  1.00 24.39 LIG-0.27  OA
ATOM      3  N   GLU D   4       3.023   3.105  -0.835  1.00 25.01 LIG-0.35  N 
ATOM      4 H    GLU D   4       3.000   2.349  -0.424  1.00 25.01 LIG 0.16  HD
ENDROOT
BRANCH 1 5
ATOM      5  CA  THR D   3       3.151   4.238   1.316  1.00 20.85 LIG 0.20  C 
BRANCH 5 6
ATOM      6  N   THR D   3       2.920   2.899   1.845  1.00 20.16 LIG-0.34  N 
ATOM      7 H    THR D   3       2.139   2.783   2.184  1.00 20.16 LIG 0.16  HD
ATOM      8  C   ARG D   2       3.854   1.954   1.795  1.00 20.73 LIG 0.24  C 
ATOM      9 O    ARG D   2       4.988   2.149   1.353  1.00 19.88 LIG-0.27  OA
BRANCH 8 10
ATOM     10  CA  ARG D   2       3.456   0.590   2.348  1.00 21.07 LIG 0.18  C 
BRANCH 10 11
ATOM     11  CB  ARG D   2       4.439  -0.490   1.876  1.00 18.72 LIG 0.04  C 
BRANCH 11 12
ATOM     12  CG  ARG D   2       4.920  -1.423   2.991  1.00 17.25 LIG 0.02  C 
BRANCH 12 13
ATOM     13  CD  ARG D   2       5.794  -2.553   2.449  1.00 15.57 LIG 0.14  C 
BRANCH 13 14
ATOM     14  NE  ARG D   2       7.189  -2.418   2.858  1.00 16.78 LIG-0.23  N 
ATOM     15 HE   ARG D   2       7.732  -2.031   2.315  1.00 16.78 LIG 0.18  HD
ATOM     16  CZ  ARG D   2       7.674  -2.857   4.017  1.00 18.57 LIG 0.67  C 
ATOM     17  NH2 ARG D   2       8.960  -2.693   4.305  1.00 17.94 LIG-0.23  N 
ATOM     18  NH1 ARG D   2       6.875  -3.455   4.890  1.00 16.85 LIG-0.23  N 
ATOM     19 1HH2 ARG D   2       9.480  -2.302   3.742  1.00 17.94 LIG 0.17  HD
ATOM     20 2HH2 ARG D   2       9.272  -2.976   5.053  1.00 17.94 LIG 0.17  HD
ATOM     21 2HH1 ARG D   2       7.191  -3.738   5.639  1.00 16.85 LIG 0.17  HD
ATOM     22 1HH1 ARG D   2       6.042  -3.560   4.708  1.00 16.85 LIG 0.17  HD
ENDBRANCH 13 14
ENDBRANCH 12 13
ENDBRANCH 11 12
ENDBRANCH 10 11
BRANCH 10 23
ATOM     23  N   ARG D   2       2.080   0.240   1.991  1.00 21.51 LIG-0.35  N 
ATOM     24  C   ALA D   1       1.671   0.262   0.727  1.00 21.30 LIG 0.24  C 
ATOM     25 O    ALA D   1       2.426   0.510  -0.209  1.00 21.16 LIG-0.27  OA
ATOM     26 H    ARG D   2       1.581   0.026   2.658  1.00 21.51 LIG 0.16  HD
BRANCH 24 27
ATOM     27  CA  ALA D   1       0.196  -0.051   0.470  1.00 21.78 LIG 0.17  C 
ATOM     28  CB  ALA D   1       0.060  -1.337  -0.330  1.00 21.47 LIG 0.04  C 
BRANCH 27 29
ATOM     29  N   ALA D   1      -0.503   1.043  -0.201  1.00 22.15 LIG-0.35  N 
ATOM     30 H    ALA D   1      -0.811   0.831  -0.976  1.00 22.15 LIG 0.16  HD
ATOM     31  C   ACE D   0      -0.650   2.252   0.334  1.00 22.99 LIG 0.21  C 
ATOM     32 O    ACE D   0       0.070   2.716   1.220  1.00 24.10 LIG-0.27  OA
ATOM     33  CH3 ACE D   0      -1.521   3.118  -0.526  1.00 21.14 LIG 0.12  C 
ENDBRANCH 27 29
ENDBRANCH 24 27
ENDBRANCH 10 23
ENDBRANCH 8 10
ENDBRANCH 5 6
BRANCH 5 34
ATOM     34  CB  THR D   3       4.482   4.813   1.833  1.00 19.16 LIG 0.15  C 
ATOM     35  CG2 THR D   3       4.509   6.321   1.644  1.00 17.08 LIG 0.04  C 
BRANCH 34 36
ATOM     36 OG1  THR D   3       4.629   4.513   3.227  1.00 20.38 LIG-0.39  OA
ATOM     37 HG1  THR D   3       3.885   4.285   3.544  1.00 20.38 LIG 0.21  HD
ENDBRANCH 34 36
ENDBRANCH 5 34
ENDBRANCH 1 5
BRANCH 3 38
ATOM     38  CA  GLU D   4       2.940   2.996  -2.289  1.00 28.82 LIG 0.18  C 
BRANCH 38 39
ATOM     39  CB  GLU D   4       1.829   3.900  -2.833  1.00 31.32 LIG 0.04  C 
BRANCH 39 40
ATOM     40  CG  GLU D   4       0.902   3.228  -3.832  1.00 34.96 LIG 0.12  C 
BRANCH 40 41
ATOM     41  CD  GLU D   4       1.370   1.837  -4.215  1.00 38.68 LIG 0.17  C 
ATOM     42 OE2  GLU D   4       2.190   1.720  -5.149  1.00 39.24 LIG-0.65  OA
ATOM     43 OE1  GLU D   4       0.913   0.861  -3.584  1.00 40.65 LIG-0.65  OA
ENDBRANCH 40 41
ENDBRANCH 39 40
ENDBRANCH 38 39
BRANCH 38 44
ATOM     44  C   GLU D   4       4.271   3.387  -2.927  1.00 29.37 LIG 0.24  C 
ATOM     45  N   VAL D   5       4.618   2.727  -4.028  1.00 31.15 LIG-0.35  N 
ATOM     46 H    VAL D   5       4.154   2.090  -4.372  1.00 31.15 LIG 0.16  HD
ATOM     47 O    GLU D   4       4.963   4.278  -2.433  1.00 28.00 LIG-0.27  OA
BRANCH 45 48
ATOM     48  CA  VAL D   5       5.843   3.042  -4.757  1.00 31.02 LIG 0.18  C 
BRANCH 48 49
ATOM     49  C   VAL D   5       5.918   2.313  -6.095  1.00 31.80 LIG 0.24  C 
ATOM     50  N   TYR D   6       7.090   2.350  -6.723  1.00 29.63 LIG-0.35  N 
ATOM     51 H    TYR D   6       7.768   2.798  -6.442  1.00 29.63 LIG 0.16  HD
ATOM     52 O    VAL D   5       4.933   1.725  -6.545  1.00 32.83 LIG-0.27  OA
BRANCH 50 53
ATOM     53  CA  TYR D   6       7.327   1.620  -7.961  1.00 30.54 LIG 0.18  C 
BRANCH 53 54
ATOM     54  C   TYR D   6       7.844   0.220  -7.646  1.00 31.23 LIG 0.28  C 
ATOM     55  N   NH2 D   7       8.114  -0.033  -6.369  1.00 33.55 LIG-0.11  N 
ATOM     56 O    TYR D   6       8.006  -0.608  -8.543  1.00 28.81 LIG-0.27  OA
ENDBRANCH 53 54
BRANCH 53 57
ATOM     57  CB  TYR D   6       8.327   2.378  -8.841  1.00 30.33 LIG 0.07  C 
BRANCH 57 58
ATOM     58  CG  TYR D   6       7.836   2.694 -10.242  1.00 31.81 LIG-0.06  A 
ATOM     59  CD1 TYR D   6       8.726   3.030 -11.254  1.00 31.47 LIG 0.01  A 
ATOM     60  CE1 TYR D   6       8.281   3.308 -12.532  1.00 32.87 LIG 0.04  A 
ATOM     61  CZ  TYR D   6       6.934   3.243 -12.816  1.00 33.71 LIG 0.07  A 
ATOM     62  CE2 TYR D   6       6.031   2.903 -11.831  1.00 32.90 LIG 0.04  A 
ATOM     63  CD2 TYR D   6       6.485   2.625 -10.555  1.00 31.58 LIG 0.01  A 
BRANCH 61 64
ATOM     64 OH   TYR D   6       6.489   3.520 -14.089  1.00 34.88 LIG-0.36  OA
ATOM     65 HH   TYR D   6       6.883   4.201 -14.382  1.00 34.88 LIG 0.22  HD
ENDBRANCH 61 64
ENDBRANCH 57 58
ENDBRANCH 53 57
ENDBRANCH 50 53
ENDBRANCH 48 49
BRANCH 48 66
ATOM     66  CB  VAL D   5       7.102   2.669  -3.949  1.00 31.19 LIG 0.01  C 
ATOM     67  CG1 VAL D   5       7.621   3.888  -3.193  1.00 32.10 LIG 0.01  C 
ATOM     68  CG2 VAL D   5       6.809   1.532  -2.995  1.00 30.34 LIG 0.01  C 
ENDBRANCH 48 66
ENDBRANCH 45 48
ENDBRANCH 38 44
ENDBRANCH 3 38
TORSDOF 25
ENDMDL
MODEL 55
USER: ADFR SOLUTION from run 173
USER: SCORE 16.971613 LL:  -4.979 LR: -14.355 RR:   0.000 FEB:  -6.898
USER: RMSD 10.976988
USER: SEED 172
USER: STATUS no improvement in best in 13 clusters for 5 generations
USER: GENES 27
USER: genes 0 Translation |==|  0.67206 0.45539 0.58018
USER: genes 1 Rotation |==|  0.20361 0.80503 0.23825 0.52438
USER: genes 2 Torsion [N]-C--CA-[N] |==|  0.42496
USER: genes 3 Torsion [C]-CA--N-[C] |==|  0.55027
USER: genes 4 Torsion [N]-C--CA-[N] |==|  0.07222
USER: genes 5 Torsion [C]-CA--CB-[CG] |==|  0.29112
USER: genes 6 Torsion [CA]-CB--CG-[CD] |==|  0.63041
USER: genes 7 Torsion [CB]-CG--CD-[NE] |==|  0.31232
USER: genes 8 Torsion [CG]-CD--NE-[HE] |==|  0.83079
USER: genes 9 Torsion [C]-CA--N-[C] |==|  0.17488
USER: genes 10 Torsion [N]-C--CA-[N] |==|  0.41215
USER: genes 11 Torsion [C]-CA--N-[C] |==|  0.76928
USER: genes 12 Torsion [C]-CA--CB-[CG2] |==|  0.93860
USER: genes 13 Torsion [CA]-CB--OG1-[HG1] |==|  0.17551
USER: genes 14 Torsion [C]-N--CA-[CB] |==|  0.36822
USER: genes 15 Torsion [N]-CA--CB-[CG] |==|  0.43573
USER: genes 16 Torsion [CA]-CB--CG-[CD] |==|  0.62898
USER: genes 17 Torsion [CB]-CG--CD-[OE2] |==|  0.26327
USER: genes 18 Torsion [N]-CA--C-[N] |==|  0.38014
USER: genes 19 Torsion [C]-N--CA-[CB] |==|  0.85837
USER: genes 20 Torsion [N]-CA--C-[N] |==|  0.35830
USER: genes 21 Torsion [C]-N--CA-[C] |==|  0.61916
USER: genes 22 Torsion [N]-CA--C-[N] |==|  0.38893
USER: genes 23 Torsion [N]-CA--CB-[CG] |==|  0.26739
USER: genes 24 Torsion [CA]-CB--CG-[CD1] |==|  0.76337
USER: genes 25 Torsion [CE1]-CZ--OH-[HH] |==|  0.11898
USER: genes 26 Torsion [N]-CA--CB-[CG1] |==|  0.50195
ROOT
ATOM      1  C   THR D   3       7.614   2.860  -3.421  1.00 23.43 LIG 0.24  C 
ATOM      2 O    THR D   3       8.608   2.494  -2.794  1.00 24.39 LIG-0.27  OA
ATOM      3  N   GLU D   4       6.686   3.660  -2.906  1.00 25.01 LIG-0.35  N 
ATOM      4 H    GLU D   4       6.002   3.942  -3.345  1.00 25.01 LIG 0.16  HD
ENDROOT
BRANCH 1 5
ATOM      5  CA  THR D   3       7.390   2.398  -4.864  1.00 20.85 LIG 0.20  C 
BRANCH 5 6
ATOM      6  N   THR D   3       8.638   2.090  -5.552  1.00 20.16 LIG-0.34  N 
ATOM      7 H    THR D   3       9.309   1.963  -5.029  1.00 20.16 LIG 0.16  HD
ATOM      8  C   ARG D   2       8.709   2.018  -6.877  1.00 20.73 LIG 0.24  C 
ATOM      9 O    ARG D   2       7.752   2.254  -7.618  1.00 19.88 LIG-0.27  OA
BRANCH 8 10
ATOM     10  CA  ARG D   2      10.070   1.645  -7.455  1.00 21.07 LIG 0.18  C 
BRANCH 10 11
ATOM     11  CB  ARG D   2       9.903   0.896  -8.785  1.00 18.72 LIG 0.04  C 
BRANCH 11 12
ATOM     12  CG  ARG D   2      10.230   1.742 -10.020  1.00 17.25 LIG 0.02  C 
BRANCH 12 13
ATOM     13  CD  ARG D   2       9.156   1.610 -11.099  1.00 15.57 LIG 0.14  C 
BRANCH 13 14
ATOM     14  NE  ARG D   2       8.413   2.850 -11.295  1.00 16.78 LIG-0.23  N 
ATOM     15 HE   ARG D   2       7.972   3.165 -10.627  1.00 16.78 LIG 0.18  HD
ATOM     16  CZ  ARG D   2       8.373   3.525 -12.440  1.00 18.57 LIG 0.67  C 
ATOM     17  NH2 ARG D   2       7.667   4.646 -12.529  1.00 17.94 LIG-0.23  N 
ATOM     18  NH1 ARG D   2       9.043   3.084 -13.498  1.00 16.85 LIG-0.23  N 
ATOM     19 1HH2 ARG D   2       7.235   4.937 -11.844  1.00 17.94 LIG 0.17  HD
ATOM     20 2HH2 ARG D   2       7.643   5.081 -13.269  1.00 17.94 LIG 0.17  HD
ATOM     21 2HH1 ARG D   2       9.016   3.522 -14.237  1.00 16.85 LIG 0.17  HD
ATOM     22 1HH1 ARG D   2       9.503   2.360 -13.443  1.00 16.85 LIG 0.17  HD
ENDBRANCH 13 14
ENDBRANCH 12 13
ENDBRANCH 11 12
ENDBRANCH 10 11
BRANCH 10 23
ATOM     23  N   ARG D   2      10.867   0.864  -6.509  1.00 21.51 LIG-0.35  N 
ATOM     24  C   ALA D   1      10.463  -0.333  -6.094  1.00 21.30 LIG 0.24  C 
ATOM     25 O    ALA D   1       9.447  -0.874  -6.522  1.00 21.16 LIG-0.27  OA
ATOM     26 H    ARG D   2      11.596   1.243  -6.256  1.00 21.51 LIG 0.16  HD
BRANCH 24 27
ATOM     27  CA  ALA D   1      11.332  -1.035  -5.050  1.00 21.78 LIG 0.17  C 
ATOM     28  CB  ALA D   1      12.421  -1.849  -5.730  1.00 21.47 LIG 0.04  C 
BRANCH 27 29
ATOM     29  N   ALA D   1      10.555  -1.879  -4.145  1.00 22.15 LIG-0.35  N 
ATOM     30 H    ALA D   1      10.544  -2.709  -4.372  1.00 22.15 LIG 0.16  HD
ATOM     31  C   ACE D   0       9.922  -1.411  -3.073  1.00 22.99 LIG 0.21  C 
ATOM     32 O    ACE D   0       9.584  -0.236  -2.919  1.00 24.10 LIG-0.27  OA
ATOM     33  CH3 ACE D   0       9.325  -2.529  -2.271  1.00 21.14 LIG 0.12  C 
ENDBRANCH 27 29
ENDBRANCH 24 27
ENDBRANCH 10 23
ENDBRANCH 8 10
ENDBRANCH 5 6
BRANCH 5 34
ATOM     34  CB  THR D   3       6.437   1.188  -4.884  1.00 19.16 LIG 0.15  C 
ATOM     35  CG2 THR D   3       6.443   0.495  -3.532  1.00 17.08 LIG 0.04  C 
BRANCH 34 36
ATOM     36 OG1  THR D   3       5.105   1.629  -5.180  1.00 20.38 LIG-0.39  OA
ATOM     37 HG1  THR D   3       5.085   1.965  -5.949  1.00 20.38 LIG 0.21  HD
ENDBRANCH 34 36
ENDBRANCH 5 34
ENDBRANCH 1 5
BRANCH 3 38
ATOM     38  CA  GLU D   4       6.746   4.138  -1.527  1.00 28.82 LIG 0.18  C 
BRANCH 38 39
ATOM     39  CB  GLU D   4       6.494   5.648  -1.469  1.00 31.32 LIG 0.04  C 
BRANCH 39 40
ATOM     40  CG  GLU D   4       5.992   6.153  -0.126  1.00 34.96 LIG 0.12  C 
BRANCH 40 41
ATOM     41  CD  GLU D   4       4.813   7.096  -0.263  1.00 38.68 LIG 0.17  C 
ATOM     42 OE2  GLU D   4       3.660   6.628  -0.164  1.00 39.24 LIG-0.65  OA
ATOM     43 OE1  GLU D   4       5.040   8.306  -0.475  1.00 40.65 LIG-0.65  OA
ENDBRANCH 40 41
ENDBRANCH 39 40
ENDBRANCH 38 39
BRANCH 38 44
ATOM     44  C   GLU D   4       5.709   3.417  -0.670  1.00 29.37 LIG 0.24  C 
ATOM     45  N   VAL D   5       6.110   3.015   0.533  1.00 31.15 LIG-0.35  N 
ATOM     46 H    VAL D   5       6.910   3.115   0.831  1.00 31.15 LIG 0.16  HD
ATOM     47 O    GLU D   4       4.566   3.239  -1.090  1.00 28.00 LIG-0.27  OA
BRANCH 45 48
ATOM     48  CA  VAL D   5       5.197   2.357   1.464  1.00 31.02 LIG 0.18  C 
BRANCH 48 49
ATOM     49  C   VAL D   5       4.819   0.953   1.000  1.00 31.80 LIG 0.24  C 
ATOM     50  N   TYR D   6       4.966  -0.023   1.892  1.00 29.63 LIG-0.35  N 
ATOM     51 H    TYR D   6       5.306   0.092   2.674  1.00 29.63 LIG 0.16  HD
ATOM     52 O    VAL D   5       4.396   0.762  -0.141  1.00 32.83 LIG-0.27  OA
BRANCH 50 53
ATOM     53  CA  TYR D   6       4.555  -1.393   1.614  1.00 30.54 LIG 0.18  C 
BRANCH 53 54
ATOM     54  C   TYR D   6       3.844  -1.977   2.830  1.00 31.23 LIG 0.28  C 
ATOM     55  N   NH2 D   7       2.780  -2.733   2.580  1.00 33.55 LIG-0.11  N 
ATOM     56 O    TYR D   6       4.245  -1.736   3.969  1.00 28.81 LIG-0.27  OA
ENDBRANCH 53 54
BRANCH 53 57
ATOM     57  CB  TYR D   6       5.772  -2.246   1.240  1.00 30.33 LIG 0.07  C 
BRANCH 57 58
ATOM     58  CG  TYR D   6       6.372  -3.044   2.382  1.00 31.81 LIG-0.06  A 
ATOM     59  CD1 TYR D   6       7.303  -2.475   3.242  1.00 31.47 LIG 0.01  A 
ATOM     60  CE1 TYR D   6       7.843  -3.198   4.289  1.00 32.87 LIG 0.04  A 
ATOM     61  CZ  TYR D   6       7.447  -4.502   4.494  1.00 33.71 LIG 0.07  A 
ATOM     62  CE2 TYR D   6       6.517  -5.087   3.661  1.00 32.90 LIG 0.04  A 
ATOM     63  CD2 TYR D   6       5.981  -4.356   2.616  1.00 31.58 LIG 0.01  A 
BRANCH 61 64
ATOM     64 OH   TYR D   6       7.983  -5.224   5.536  1.00 34.88 LIG-0.36  OA
ATOM     65 HH   TYR D   6       8.018  -4.741   6.223  1.00 34.88 LIG 0.22  HD
ENDBRANCH 61 64
ENDBRANCH 57 58
ENDBRANCH 53 57
ENDBRANCH 50 53
ENDBRANCH 48 49
BRANCH 48 66
ATOM     66  CB  VAL D   5       3.893   3.157   1.651  1.00 31.19 LIG 0.01  C 
ATOM     67  CG1 VAL D   5       2.977   2.445   2.642  1.00 32.10 LIG 0.01  C 
ATOM     68  CG2 VAL D   5       4.191   4.566   2.113  1.00 30.34 LIG 0.01  C 
ENDBRANCH 48 66
ENDBRANCH 45 48
ENDBRANCH 38 44
ENDBRANCH 3 38
TORSDOF 25
ENDMDL
MODEL 56
USER: ADFR SOLUTION from run 160
USER: SCORE 18.572582 LL:  -5.990 LR: -14.362 RR:   0.000 FEB:  -6.905
USER: RMSD 5.533726
USER: SEED 159
USER: STATUS no improvement in best in 8 clusters for 5 generations
USER: GENES 27
USER: genes 0 Translation |==|  0.55489 0.48220 0.60099
USER: genes 1 Rotation |==|  0.34821 0.58055 0.87570 0.78164
USER: genes 2 Torsion [N]-C--CA-[N] |==|  0.46446
USER: genes 3 Torsion [C]-CA--N-[C] |==|  0.80742
USER: genes 4 Torsion [N]-C--CA-[N] |==|  0.89544
USER: genes 5 Torsion [C]-CA--CB-[CG] |==|  0.97273
USER: genes 6 Torsion [CA]-CB--CG-[CD] |==|  0.72274
USER: genes 7 Torsion [CB]-CG--CD-[NE] |==|  0.48717
USER: genes 8 Torsion [CG]-CD--NE-[HE] |==|  0.08375
USER: genes 9 Torsion [C]-CA--N-[C] |==|  0.82343
USER: genes 10 Torsion [N]-C--CA-[N] |==|  0.46904
USER: genes 11 Torsion [C]-CA--N-[C] |==|  0.46667
USER: genes 12 Torsion [C]-CA--CB-[CG2] |==|  0.26544
USER: genes 13 Torsion [CA]-CB--OG1-[HG1] |==|  0.32118
USER: genes 14 Torsion [C]-N--CA-[CB] |==|  0.21815
USER: genes 15 Torsion [N]-CA--CB-[CG] |==|  0.11843
USER: genes 16 Torsion [CA]-CB--CG-[CD] |==|  0.34852
USER: genes 17 Torsion [CB]-CG--CD-[OE2] |==|  0.26603
USER: genes 18 Torsion [N]-CA--C-[N] |==|  0.82669
USER: genes 19 Torsion [C]-N--CA-[CB] |==|  0.86571
USER: genes 20 Torsion [N]-CA--C-[N] |==|  0.89914
USER: genes 21 Torsion [C]-N--CA-[C] |==|  0.65657
USER: genes 22 Torsion [N]-CA--C-[N] |==|  0.40247
USER: genes 23 Torsion [N]-CA--CB-[CG] |==|  0.94440
USER: genes 24 Torsion [CA]-CB--CG-[CD1] |==|  0.24886
USER: genes 25 Torsion [CE1]-CZ--OH-[HH] |==|  0.77258
USER: genes 26 Torsion [N]-CA--CB-[CG1] |==|  0.49212
ROOT
ATOM      1  C   THR D   3       5.329   3.483  -2.907  1.00 23.43 LIG 0.24  C 
ATOM      2 O    THR D   3       6.056   4.414  -2.561  1.00 24.39 LIG-0.27  OA
ATOM      3  N   GLU D   4       5.644   2.644  -3.889  1.00 25.01 LIG-0.35  N 
ATOM      4 H    GLU D   4       5.155   1.975  -4.119  1.00 25.01 LIG 0.16  HD
ENDROOT
BRANCH 1 5
ATOM      5  CA  THR D   3       3.990   3.240  -2.206  1.00 20.85 LIG 0.20  C 
BRANCH 5 6
ATOM      6  N   THR D   3       3.860   4.001  -0.969  1.00 20.16 LIG-0.34  N 
ATOM      7 H    THR D   3       3.279   4.635  -1.004  1.00 20.16 LIG 0.16  HD
ATOM      8  C   ARG D   2       4.586   3.721   0.107  1.00 20.73 LIG 0.24  C 
ATOM      9 O    ARG D   2       5.452   2.843   0.127  1.00 19.88 LIG-0.27  OA
BRANCH 8 10
ATOM     10  CA  ARG D   2       4.311   4.573   1.341  1.00 21.07 LIG 0.18  C 
BRANCH 10 11
ATOM     11  CB  ARG D   2       3.158   3.977   2.161  1.00 18.72 LIG 0.04  C 
BRANCH 11 12
ATOM     12  CG  ARG D   2       2.413   2.842   1.452  1.00 17.25 LIG 0.02  C 
BRANCH 12 13
ATOM     13  CD  ARG D   2       1.111   3.327   0.817  1.00 15.57 LIG 0.14  C 
BRANCH 13 14
ATOM     14  NE  ARG D   2       0.446   2.281   0.047  1.00 16.78 LIG-0.23  N 
ATOM     15 HE   ARG D   2       0.553   1.466   0.300  1.00 16.78 LIG 0.18  HD
ATOM     16  CZ  ARG D   2      -0.316   2.507  -1.019  1.00 18.57 LIG 0.67  C 
ATOM     17  NH2 ARG D   2      -0.882   1.491  -1.661  1.00 17.94 LIG-0.23  N 
ATOM     18  NH1 ARG D   2      -0.518   3.748  -1.443  1.00 16.85 LIG-0.23  N 
ATOM     19 1HH2 ARG D   2      -0.756   0.686  -1.386  1.00 17.94 LIG 0.17  HD
ATOM     20 2HH2 ARG D   2      -1.374   1.639  -2.350  1.00 17.94 LIG 0.17  HD
ATOM     21 2HH1 ARG D   2      -1.012   3.892  -2.133  1.00 16.85 LIG 0.17  HD
ATOM     22 1HH1 ARG D   2      -0.156   4.408  -1.029  1.00 16.85 LIG 0.17  HD
ENDBRANCH 13 14
ENDBRANCH 12 13
ENDBRANCH 11 12
ENDBRANCH 10 11
BRANCH 10 23
ATOM     23  N   ARG D   2       4.039   5.967   0.989  1.00 21.51 LIG-0.35  N 
ATOM     24  C   ALA D   1       4.966   6.723   0.408  1.00 21.30 LIG 0.24  C 
ATOM     25 O    ALA D   1       6.065   6.285   0.078  1.00 21.16 LIG-0.27  OA
ATOM     26 H    ARG D   2       3.248   6.239   1.188  1.00 21.51 LIG 0.16  HD
BRANCH 24 27
ATOM     27  CA  ALA D   1       4.604   8.185   0.146  1.00 21.78 LIG 0.17  C 
ATOM     28  CB  ALA D   1       3.509   8.280  -0.904  1.00 21.47 LIG 0.04  C 
BRANCH 27 29
ATOM     29  N   ALA D   1       5.760   8.988  -0.250  1.00 22.15 LIG-0.35  N 
ATOM     30 H    ALA D   1       6.513   8.591  -0.130  1.00 22.15 LIG 0.16  HD
ATOM     31  C   ACE D   0       5.658  10.217  -0.749  1.00 22.99 LIG 0.21  C 
ATOM     32 O    ACE D   0       4.687  10.959  -0.586  1.00 24.10 LIG-0.27  OA
ATOM     33  CH3 ACE D   0       6.998  10.733  -1.183  1.00 21.14 LIG 0.12  C 
ENDBRANCH 27 29
ENDBRANCH 24 27
ENDBRANCH 10 23
ENDBRANCH 8 10
ENDBRANCH 5 6
BRANCH 5 34
ATOM     34  CB  THR D   3       2.831   3.552  -3.171  1.00 19.16 LIG 0.15  C 
ATOM     35  CG2 THR D   3       2.356   2.278  -3.848  1.00 17.08 LIG 0.04  C 
BRANCH 34 36
ATOM     36 OG1  THR D   3       1.740   4.131  -2.442  1.00 20.38 LIG-0.39  OA
ATOM     37 HG1  THR D   3       1.616   4.920  -2.703  1.00 20.38 LIG 0.21  HD
ENDBRANCH 34 36
ENDBRANCH 5 34
ENDBRANCH 1 5
BRANCH 3 38
ATOM     38  CA  GLU D   4       6.867   2.786  -4.675  1.00 28.82 LIG 0.18  C 
BRANCH 38 39
ATOM     39  CB  GLU D   4       8.073   2.252  -3.895  1.00 31.32 LIG 0.04  C 
BRANCH 39 40
ATOM     40  CG  GLU D   4       7.821   0.943  -3.163  1.00 34.96 LIG 0.12  C 
BRANCH 40 41
ATOM     41  CD  GLU D   4       8.828  -0.130  -3.529  1.00 38.68 LIG 0.17  C 
ATOM     42 OE2  GLU D   4       9.822  -0.291  -2.790  1.00 39.24 LIG-0.65  OA
ATOM     43 OE1  GLU D   4       8.629  -0.808  -4.558  1.00 40.65 LIG-0.65  OA
ENDBRANCH 40 41
ENDBRANCH 39 40
ENDBRANCH 38 39
BRANCH 38 44
ATOM     44  C   GLU D   4       6.741   2.029  -5.994  1.00 29.37 LIG 0.24  C 
ATOM     45  N   VAL D   5       6.577   0.712  -5.909  1.00 31.15 LIG-0.35  N 
ATOM     46 H    VAL D   5       6.567   0.276  -5.168  1.00 31.15 LIG 0.16  HD
ATOM     47 O    GLU D   4       6.782   2.631  -7.067  1.00 28.00 LIG-0.27  OA
BRANCH 45 48
ATOM     48  CA  VAL D   5       6.397  -0.117  -7.098  1.00 31.02 LIG 0.18  C 
BRANCH 48 49
ATOM     49  C   VAL D   5       7.692  -0.272  -7.891  1.00 31.80 LIG 0.24  C 
ATOM     50  N   TYR D   6       8.490   0.791  -7.931  1.00 29.63 LIG-0.35  N 
ATOM     51 H    TYR D   6       8.288   1.553  -7.588  1.00 29.63 LIG 0.16  HD
ATOM     52 O    VAL D   5       7.963  -1.337  -8.447  1.00 32.83 LIG-0.27  OA
BRANCH 50 53
ATOM     53  CA  TYR D   6       9.798   0.752  -8.572  1.00 30.54 LIG 0.18  C 
BRANCH 53 54
ATOM     54  C   TYR D   6      10.875   1.168  -7.576  1.00 31.23 LIG 0.28  C 
ATOM     55  N   NH2 D   7      12.046   0.550  -7.686  1.00 33.55 LIG-0.11  N 
ATOM     56 O    TYR D   6      10.643   2.021  -6.718  1.00 28.81 LIG-0.27  OA
ENDBRANCH 53 54
BRANCH 53 57
ATOM     57  CB  TYR D   6       9.816   1.670  -9.799  1.00 30.33 LIG 0.07  C 
BRANCH 57 58
ATOM     58  CG  TYR D   6       8.450   2.018 -10.359  1.00 31.81 LIG-0.06  A 
ATOM     59  CD1 TYR D   6       7.752   3.131  -9.906  1.00 31.47 LIG 0.01  A 
ATOM     60  CE1 TYR D   6       6.512   3.455 -10.423  1.00 32.87 LIG 0.04  A 
ATOM     61  CZ  TYR D   6       5.958   2.671 -11.412  1.00 33.71 LIG 0.07  A 
ATOM     62  CE2 TYR D   6       6.634   1.566 -11.885  1.00 32.90 LIG 0.04  A 
ATOM     63  CD2 TYR D   6       7.875   1.249 -11.363  1.00 31.58 LIG 0.01  A 
BRANCH 61 64
ATOM     64 OH   TYR D   6       4.723   2.991 -11.928  1.00 34.88 LIG-0.36  OA
ATOM     65 HH   TYR D   6       4.122   2.699 -11.419  1.00 34.88 LIG 0.22  HD
ENDBRANCH 61 64
ENDBRANCH 57 58
ENDBRANCH 53 57
ENDBRANCH 50 53
ENDBRANCH 48 49
BRANCH 48 66
ATOM     66  CB  VAL D   5       5.333   0.468  -8.048  1.00 31.19 LIG 0.01  C 
ATOM     67  CG1 VAL D   5       5.226  -0.387  -9.307  1.00 32.10 LIG 0.01  C 
ATOM     68  CG2 VAL D   5       3.993   0.569  -7.354  1.00 30.34 LIG 0.01  C 
ENDBRANCH 48 66
ENDBRANCH 45 48
ENDBRANCH 38 44
ENDBRANCH 3 38
TORSDOF 25
ENDMDL
MODEL 57
USER: ADFR SOLUTION from run 157
USER: SCORE 18.231811 LL:  -6.468 LR: -14.342 RR:   0.000 FEB:  -6.884
USER: RMSD 7.884141
USER: SEED 156
USER: STATUS searching
USER: GENES 27
USER: genes 0 Translation |==|  0.55452 0.40278 0.64632
USER: genes 1 Rotation |==|  0.44109 0.98799 0.52987 0.58659
USER: genes 2 Torsion [N]-C--CA-[N] |==|  0.94523
USER: genes 3 Torsion [C]-CA--N-[C] |==|  0.80906
USER: genes 4 Torsion [N]-C--CA-[N] |==|  0.62337
USER: genes 5 Torsion [C]-CA--CB-[CG] |==|  0.47156
USER: genes 6 Torsion [CA]-CB--CG-[CD] |==|  0.65919
USER: genes 7 Torsion [CB]-CG--CD-[NE] |==|  0.29498
USER: genes 8 Torsion [CG]-CD--NE-[HE] |==|  0.08476
USER: genes 9 Torsion [C]-CA--N-[C] |==|  0.16803
USER: genes 10 Torsion [N]-C--CA-[N] |==|  0.19907
USER: genes 11 Torsion [C]-CA--N-[C] |==|  0.77092
USER: genes 12 Torsion [C]-CA--CB-[CG2] |==|  0.26664
USER: genes 13 Torsion [CA]-CB--OG1-[HG1] |==|  0.73491
USER: genes 14 Torsion [C]-N--CA-[CB] |==|  0.43867
USER: genes 15 Torsion [N]-CA--CB-[CG] |==|  0.40893
USER: genes 16 Torsion [CA]-CB--CG-[CD] |==|  0.29590
USER: genes 17 Torsion [CB]-CG--CD-[OE2] |==|  0.22143
USER: genes 18 Torsion [N]-CA--C-[N] |==|  0.92815
USER: genes 19 Torsion [C]-N--CA-[CB] |==|  0.82744
USER: genes 20 Torsion [N]-CA--C-[N] |==|  0.47900
USER: genes 21 Torsion [C]-N--CA-[C] |==|  0.82151
USER: genes 22 Torsion [N]-CA--C-[N] |==|  0.39830
USER: genes 23 Torsion [N]-CA--CB-[CG] |==|  0.09860
USER: genes 24 Torsion [CA]-CB--CG-[CD1] |==|  0.60146
USER: genes 25 Torsion [CE1]-CZ--OH-[HH] |==|  0.44461
USER: genes 26 Torsion [N]-CA--CB-[CG1] |==|  0.27633
ROOT
ATOM      1  C   THR D   3       5.322   1.637  -1.785  1.00 23.43 LIG 0.24  C 
ATOM      2 O    THR D   3       5.458   0.683  -2.550  1.00 24.39 LIG-0.27  OA
ATOM      3  N   GLU D   4       4.930   1.502  -0.521  1.00 25.01 LIG-0.35  N 
ATOM      4 H    GLU D   4       4.858   2.160   0.028  1.00 25.01 LIG 0.16  HD
ENDROOT
BRANCH 1 5
ATOM      5  CA  THR D   3       5.602   3.064  -2.262  1.00 20.85 LIG 0.20  C 
BRANCH 5 6
ATOM      6  N   THR D   3       4.969   4.070  -1.418  1.00 20.16 LIG-0.34  N 
ATOM      7 H    THR D   3       5.520   4.543  -0.958  1.00 20.16 LIG 0.16  HD
ATOM      8  C   ARG D   2       3.650   4.225  -1.380  1.00 20.73 LIG 0.24  C 
ATOM      9 O    ARG D   2       2.868   3.506  -2.005  1.00 19.88 LIG-0.27  OA
BRANCH 8 10
ATOM     10  CA  ARG D   2       3.133   5.347  -0.485  1.00 21.07 LIG 0.18  C 
BRANCH 10 11
ATOM     11  CB  ARG D   2       4.260   5.885   0.408  1.00 18.72 LIG 0.04  C 
BRANCH 11 12
ATOM     12  CG  ARG D   2       3.897   7.171   1.158  1.00 17.25 LIG 0.02  C 
BRANCH 12 13
ATOM     13  CD  ARG D   2       4.872   8.305   0.844  1.00 15.57 LIG 0.14  C 
BRANCH 13 14
ATOM     14  NE  ARG D   2       4.285   9.313  -0.033  1.00 16.78 LIG-0.23  N 
ATOM     15 HE   ARG D   2       3.437   9.446   0.018  1.00 16.78 LIG 0.18  HD
ATOM     16  CZ  ARG D   2       4.978  10.040  -0.905  1.00 18.57 LIG 0.67  C 
ATOM     17  NH2 ARG D   2       4.359  10.936  -1.665  1.00 17.94 LIG-0.23  N 
ATOM     18  NH1 ARG D   2       6.290   9.878  -1.014  1.00 16.85 LIG-0.23  N 
ATOM     19 1HH2 ARG D   2       3.509  11.047  -1.594  1.00 17.94 LIG 0.17  HD
ATOM     20 2HH2 ARG D   2       4.808  11.405  -2.228  1.00 17.94 LIG 0.17  HD
ATOM     21 2HH1 ARG D   2       6.736  10.349  -1.578  1.00 16.85 LIG 0.17  HD
ATOM     22 1HH1 ARG D   2       6.694   9.301  -0.521  1.00 16.85 LIG 0.17  HD
ENDBRANCH 13 14
ENDBRANCH 12 13
ENDBRANCH 11 12
ENDBRANCH 10 11
BRANCH 10 23
ATOM     23  N   ARG D   2       1.987   4.917   0.317  1.00 21.51 LIG-0.35  N 
ATOM     24  C   ALA D   1       2.091   3.913   1.182  1.00 21.30 LIG 0.24  C 
ATOM     25 O    ALA D   1       3.154   3.338   1.404  1.00 21.16 LIG-0.27  OA
ATOM     26 H    ARG D   2       1.265   5.362   0.177  1.00 21.51 LIG 0.16  HD
BRANCH 24 27
ATOM     27  CA  ALA D   1       0.817   3.497   1.918  1.00 21.78 LIG 0.17  C 
ATOM     28  CB  ALA D   1       1.158   2.629   3.118  1.00 21.47 LIG 0.04  C 
BRANCH 27 29
ATOM     29  N   ALA D   1      -0.136   2.811   1.048  1.00 22.15 LIG-0.35  N 
ATOM     30 H    ALA D   1      -0.098   1.953   1.103  1.00 22.15 LIG 0.16  HD
ATOM     31  C   ACE D   0      -0.984   3.450   0.246  1.00 22.99 LIG 0.21  C 
ATOM     32 O    ACE D   0      -0.829   4.605  -0.156  1.00 24.10 LIG-0.27  OA
ATOM     33  CH3 ACE D   0      -1.922   2.489  -0.420  1.00 21.14 LIG 0.12  C 
ENDBRANCH 27 29
ENDBRANCH 24 27
ENDBRANCH 10 23
ENDBRANCH 8 10
ENDBRANCH 5 6
BRANCH 5 34
ATOM     34  CB  THR D   3       7.122   3.297  -2.353  1.00 19.16 LIG 0.15  C 
ATOM     35  CG2 THR D   3       7.602   3.067  -3.775  1.00 17.08 LIG 0.04  C 
BRANCH 34 36
ATOM     36 OG1  THR D   3       7.428   4.643  -1.965  1.00 20.38 LIG-0.39  OA
ATOM     37 HG1  THR D   3       7.480   5.127  -2.650  1.00 20.38 LIG 0.21  HD
ENDBRANCH 34 36
ENDBRANCH 5 34
ENDBRANCH 1 5
BRANCH 3 38
ATOM     38  CA  GLU D   4       4.583   0.205   0.054  1.00 28.82 LIG 0.18  C 
BRANCH 38 39
ATOM     39  CB  GLU D   4       4.703   0.243   1.581  1.00 31.32 LIG 0.04  C 
BRANCH 39 40
ATOM     40  CG  GLU D   4       3.707  -0.640   2.314  1.00 34.96 LIG 0.12  C 
BRANCH 40 41
ATOM     41  CD  GLU D   4       4.353  -1.881   2.900  1.00 38.68 LIG 0.17  C 
ATOM     42 OE2  GLU D   4       4.979  -1.776   3.975  1.00 39.24 LIG-0.65  OA
ATOM     43 OE1  GLU D   4       4.237  -2.960   2.283  1.00 40.65 LIG-0.65  OA
ENDBRANCH 40 41
ENDBRANCH 39 40
ENDBRANCH 38 39
BRANCH 38 44
ATOM     44  C   GLU D   4       3.158  -0.182  -0.333  1.00 29.37 LIG 0.24  C 
ATOM     45  N   VAL D   5       2.325   0.819  -0.607  1.00 31.15 LIG-0.35  N 
ATOM     46 H    VAL D   5       2.538   1.650  -0.552  1.00 31.15 LIG 0.16  HD
ATOM     47 O    GLU D   4       2.824  -1.366  -0.389  1.00 28.00 LIG-0.27  OA
BRANCH 45 48
ATOM     48  CA  VAL D   5       0.950   0.576  -1.035  1.00 31.02 LIG 0.18  C 
BRANCH 48 49
ATOM     49  C   VAL D   5       0.160  -0.223  -0.001  1.00 31.80 LIG 0.24  C 
ATOM     50  N   TYR D   6      -1.143  -0.359  -0.231  1.00 29.63 LIG-0.35  N 
ATOM     51 H    TYR D   6      -1.555   0.018  -0.886  1.00 29.63 LIG 0.16  HD
ATOM     52 O    VAL D   5       0.724  -0.710   0.979  1.00 32.83 LIG-0.27  OA
BRANCH 50 53
ATOM     53  CA  TYR D   6      -1.997  -1.173   0.623  1.00 30.54 LIG 0.18  C 
BRANCH 53 54
ATOM     54  C   TYR D   6      -1.571  -2.635   0.539  1.00 31.23 LIG 0.28  C 
ATOM     55  N   NH2 D   7      -1.652  -3.336   1.665  1.00 33.55 LIG-0.11  N 
ATOM     56 O    TYR D   6      -1.166  -3.112  -0.522  1.00 28.81 LIG-0.27  OA
ENDBRANCH 53 54
BRANCH 53 57
ATOM     57  CB  TYR D   6      -3.465  -1.015   0.212  1.00 30.33 LIG 0.07  C 
BRANCH 57 58
ATOM     58  CG  TYR D   6      -3.699  -0.851  -1.278  1.00 31.81 LIG-0.06  A 
ATOM     59  CD1 TYR D   6      -4.695  -0.011  -1.759  1.00 31.47 LIG 0.01  A 
ATOM     60  CE1 TYR D   6      -4.903   0.147  -3.116  1.00 32.87 LIG 0.04  A 
ATOM     61  CZ  TYR D   6      -4.105  -0.530  -4.012  1.00 33.71 LIG 0.07  A 
ATOM     62  CE2 TYR D   6      -3.103  -1.364  -3.561  1.00 32.90 LIG 0.04  A 
ATOM     63  CD2 TYR D   6      -2.902  -1.515  -2.201  1.00 31.58 LIG 0.01  A 
BRANCH 61 64
ATOM     64 OH   TYR D   6      -4.309  -0.375  -5.365  1.00 34.88 LIG-0.36  OA
ATOM     65 HH   TYR D   6      -3.617  -0.606  -5.781  1.00 34.88 LIG 0.22  HD
ENDBRANCH 61 64
ENDBRANCH 57 58
ENDBRANCH 53 57
ENDBRANCH 50 53
ENDBRANCH 48 49
BRANCH 48 66
ATOM     66  CB  VAL D   5       0.892  -0.195  -2.368  1.00 31.19 LIG 0.01  C 
ATOM     67  CG1 VAL D   5       0.632  -1.676  -2.108  1.00 32.10 LIG 0.01  C 
ATOM     68  CG2 VAL D   5      -0.171   0.384  -3.276  1.00 30.34 LIG 0.01  C 
ENDBRANCH 48 66
ENDBRANCH 45 48
ENDBRANCH 38 44
ENDBRANCH 3 38
TORSDOF 25
ENDMDL
MODEL 58
USER: ADFR SOLUTION from run 176
USER: SCORE 18.165530 LL:  -5.787 LR: -14.342 RR:   0.000 FEB:  -6.885
USER: RMSD 7.234311
USER: SEED 175
USER: STATUS no improvement in best in 8 clusters for 5 generations
USER: GENES 27
USER: genes 0 Translation |==|  0.48334 0.37010 0.79049
USER: genes 1 Rotation |==|  0.42222 0.46238 0.58757 0.98463
USER: genes 2 Torsion [N]-C--CA-[N] |==|  0.93499
USER: genes 3 Torsion [C]-CA--N-[C] |==|  0.81427
USER: genes 4 Torsion [N]-C--CA-[N] |==|  0.40867
USER: genes 5 Torsion [C]-CA--CB-[CG] |==|  0.90607
USER: genes 6 Torsion [CA]-CB--CG-[CD] |==|  0.81850
USER: genes 7 Torsion [CB]-CG--CD-[NE] |==|  0.63142
USER: genes 8 Torsion [CG]-CD--NE-[HE] |==|  0.68063
USER: genes 9 Torsion [C]-CA--N-[C] |==|  0.75499
USER: genes 10 Torsion [N]-C--CA-[N] |==|  0.37222
USER: genes 11 Torsion [C]-CA--N-[C] |==|  0.58078
USER: genes 12 Torsion [C]-CA--CB-[CG2] |==|  0.99947
USER: genes 13 Torsion [CA]-CB--OG1-[HG1] |==|  0.50614
USER: genes 14 Torsion [C]-N--CA-[CB] |==|  0.15659
USER: genes 15 Torsion [N]-CA--CB-[CG] |==|  0.65842
USER: genes 16 Torsion [CA]-CB--CG-[CD] |==|  0.36641
USER: genes 17 Torsion [CB]-CG--CD-[OE2] |==|  0.20982
USER: genes 18 Torsion [N]-CA--C-[N] |==|  0.91872
USER: genes 19 Torsion [C]-N--CA-[CB] |==|  0.22219
USER: genes 20 Torsion [N]-CA--C-[N] |==|  0.07134
USER: genes 21 Torsion [C]-N--CA-[C] |==|  0.78139
USER: genes 22 Torsion [N]-CA--C-[N] |==|  0.00537
USER: genes 23 Torsion [N]-CA--CB-[CG] |==|  0.78686
USER: genes 24 Torsion [CA]-CB--CG-[CD1] |==|  0.53443
USER: genes 25 Torsion [CE1]-CZ--OH-[HH] |==|  0.96318
USER: genes 26 Torsion [N]-CA--CB-[CG1] |==|  0.73492
ROOT
ATOM      1  C   THR D   3       3.934   0.877   1.784  1.00 23.43 LIG 0.24  C 
ATOM      2 O    THR D   3       4.452   0.268   2.719  1.00 24.39 LIG-0.27  OA
ATOM      3  N   GLU D   4       4.125   0.547   0.510  1.00 25.01 LIG-0.35  N 
ATOM      4 H    GLU D   4       3.746   0.951  -0.149  1.00 25.01 LIG 0.16  HD
ENDROOT
BRANCH 1 5
ATOM      5  CA  THR D   3       3.022   2.078   2.047  1.00 20.85 LIG 0.20  C 
BRANCH 5 6
ATOM      6  N   THR D   3       2.944   2.982   0.906  1.00 20.16 LIG-0.34  N 
ATOM      7 H    THR D   3       2.171   3.013   0.531  1.00 20.16 LIG 0.16  HD
ATOM      8  C   ARG D   2       3.993   3.689   0.498  1.00 20.73 LIG 0.24  C 
ATOM      9 O    ARG D   2       5.110   3.597   1.012  1.00 19.88 LIG-0.27  OA
BRANCH 8 10
ATOM     10  CA  ARG D   2       3.752   4.625  -0.681  1.00 21.07 LIG 0.18  C 
BRANCH 10 11
ATOM     11  CB  ARG D   2       3.991   3.892  -2.008  1.00 18.72 LIG 0.04  C 
BRANCH 11 12
ATOM     12  CG  ARG D   2       5.102   2.839  -1.944  1.00 17.25 LIG 0.02  C 
BRANCH 12 13
ATOM     13  CD  ARG D   2       6.469   3.470  -1.687  1.00 15.57 LIG 0.14  C 
BRANCH 13 14
ATOM     14  NE  ARG D   2       7.494   2.961  -2.593  1.00 16.78 LIG-0.23  N 
ATOM     15 HE   ARG D   2       8.142   2.508  -2.253  1.00 16.78 LIG 0.18  HD
ATOM     16  CZ  ARG D   2       7.491   3.151  -3.909  1.00 18.57 LIG 0.67  C 
ATOM     17  NH2 ARG D   2       8.467   2.651  -4.656  1.00 17.94 LIG-0.23  N 
ATOM     18  NH1 ARG D   2       6.509   3.836  -4.481  1.00 16.85 LIG-0.23  N 
ATOM     19 1HH2 ARG D   2       9.104   2.203  -4.289  1.00 17.94 LIG 0.17  HD
ATOM     20 2HH2 ARG D   2       8.464   2.775  -5.507  1.00 17.94 LIG 0.17  HD
ATOM     21 2HH1 ARG D   2       6.509   3.958  -5.332  1.00 16.85 LIG 0.17  HD
ATOM     22 1HH1 ARG D   2       5.873   4.159  -4.001  1.00 16.85 LIG 0.17  HD
ENDBRANCH 13 14
ENDBRANCH 12 13
ENDBRANCH 11 12
ENDBRANCH 10 11
BRANCH 10 23
ATOM     23  N   ARG D   2       4.573   5.833  -0.593  1.00 21.51 LIG-0.35  N 
ATOM     24  C   ALA D   1       4.145   6.909   0.061  1.00 21.30 LIG 0.24  C 
ATOM     25 O    ALA D   1       3.082   6.931   0.675  1.00 21.16 LIG-0.27  OA
ATOM     26 H    ARG D   2       5.333   5.780  -0.992  1.00 21.51 LIG 0.16  HD
BRANCH 24 27
ATOM     27  CA  ALA D   1       5.049   8.142   0.033  1.00 21.78 LIG 0.17  C 
ATOM     28  CB  ALA D   1       5.808   8.272   1.344  1.00 21.47 LIG 0.04  C 
BRANCH 27 29
ATOM     29  N   ALA D   1       4.314   9.372  -0.254  1.00 22.15 LIG-0.35  N 
ATOM     30 H    ALA D   1       3.495   9.354   0.011  1.00 22.15 LIG 0.16  HD
ATOM     31  C   ACE D   0       4.856  10.421  -0.866  1.00 22.99 LIG 0.21  C 
ATOM     32 O    ACE D   0       5.855  10.370  -1.587  1.00 24.10 LIG-0.27  OA
ATOM     33  CH3 ACE D   0       3.901  11.576  -0.900  1.00 21.14 LIG 0.12  C 
ENDBRANCH 27 29
ENDBRANCH 24 27
ENDBRANCH 10 23
ENDBRANCH 8 10
ENDBRANCH 5 6
BRANCH 5 34
ATOM     34  CB  THR D   3       1.621   1.590   2.460  1.00 19.16 LIG 0.15  C 
ATOM     35  CG2 THR D   3       1.578   0.072   2.473  1.00 17.08 LIG 0.04  C 
BRANCH 34 36
ATOM     36 OG1  THR D   3       1.306   2.080   3.771  1.00 20.38 LIG-0.39  OA
ATOM     37 HG1  THR D   3       0.554   1.788   4.006  1.00 20.38 LIG 0.21  HD
ENDBRANCH 34 36
ENDBRANCH 5 34
ENDBRANCH 1 5
BRANCH 3 38
ATOM     38  CA  GLU D   4       5.008  -0.545   0.110  1.00 28.82 LIG 0.18  C 
BRANCH 38 39
ATOM     39  CB  GLU D   4       4.585  -1.853   0.786  1.00 31.32 LIG 0.04  C 
BRANCH 39 40
ATOM     40  CG  GLU D   4       5.674  -2.515   1.616  1.00 34.96 LIG 0.12  C 
BRANCH 40 41
ATOM     41  CD  GLU D   4       5.187  -2.925   2.992  1.00 38.68 LIG 0.17  C 
ATOM     42 OE2  GLU D   4       4.462  -3.938   3.091  1.00 39.24 LIG-0.65  OA
ATOM     43 OE1  GLU D   4       5.525  -2.233   3.975  1.00 40.65 LIG-0.65  OA
ENDBRANCH 40 41
ENDBRANCH 39 40
ENDBRANCH 38 39
BRANCH 38 44
ATOM     44  C   GLU D   4       4.978  -0.725  -1.405  1.00 29.37 LIG 0.24  C 
ATOM     45  N   VAL D   5       3.848  -0.387  -2.021  1.00 31.15 LIG-0.35  N 
ATOM     46 H    VAL D   5       3.145  -0.107  -1.613  1.00 31.15 LIG 0.16  HD
ATOM     47 O    GLU D   4       5.965  -1.152  -2.004  1.00 28.00 LIG-0.27  OA
BRANCH 45 48
ATOM     48  CA  VAL D   5       3.712  -0.469  -3.472  1.00 31.02 LIG 0.18  C 
BRANCH 48 49
ATOM     49  C   VAL D   5       2.584   0.417  -3.993  1.00 31.80 LIG 0.24  C 
ATOM     50  N   TYR D   6       2.265   1.469  -3.243  1.00 29.63 LIG-0.35  N 
ATOM     51 H    TYR D   6       2.619   1.634  -2.477  1.00 29.63 LIG 0.16  HD
ATOM     52 O    VAL D   5       2.019   0.154  -5.055  1.00 32.83 LIG-0.27  OA
BRANCH 50 53
ATOM     53  CA  TYR D   6       1.273   2.448  -3.666  1.00 30.54 LIG 0.18  C 
BRANCH 53 54
ATOM     54  C   TYR D   6       1.889   3.404  -4.682  1.00 31.23 LIG 0.28  C 
ATOM     55  N   NH2 D   7       3.152   3.166  -5.022  1.00 33.55 LIG-0.11  N 
ATOM     56 O    TYR D   6       1.237   4.344  -5.138  1.00 28.81 LIG-0.27  OA
ENDBRANCH 53 54
BRANCH 53 57
ATOM     57  CB  TYR D   6       0.738   3.220  -2.455  1.00 30.33 LIG 0.07  C 
BRANCH 57 58
ATOM     58  CG  TYR D   6      -0.263   2.462  -1.604  1.00 31.81 LIG-0.06  A 
ATOM     59  CD1 TYR D   6      -1.017   3.113  -0.635  1.00 31.47 LIG 0.01  A 
ATOM     60  CE1 TYR D   6      -1.937   2.426   0.134  1.00 32.87 LIG 0.04  A 
ATOM     61  CZ  TYR D   6      -2.121   1.075  -0.066  1.00 33.71 LIG 0.07  A 
ATOM     62  CE2 TYR D   6      -1.392   0.407  -1.027  1.00 32.90 LIG 0.04  A 
ATOM     63  CD2 TYR D   6      -0.474   1.103  -1.793  1.00 31.58 LIG 0.01  A 
BRANCH 61 64
ATOM     64 OH   TYR D   6      -3.037   0.388   0.699  1.00 34.88 LIG-0.36  OA
ATOM     65 HH   TYR D   6      -3.269   0.863   1.352  1.00 34.88 LIG 0.22  HD
ENDBRANCH 61 64
ENDBRANCH 57 58
ENDBRANCH 53 57
ENDBRANCH 50 53
ENDBRANCH 48 49
BRANCH 48 66
ATOM     66  CB  VAL D   5       3.432  -1.910  -3.942  1.00 31.19 LIG 0.01  C 
ATOM     67  CG1 VAL D   5       4.734  -2.592  -4.349  1.00 32.10 LIG 0.01  C 
ATOM     68  CG2 VAL D   5       2.730  -2.699  -2.859  1.00 30.34 LIG 0.01  C 
ENDBRANCH 48 66
ENDBRANCH 45 48
ENDBRANCH 38 44
ENDBRANCH 3 38
TORSDOF 25
ENDMDL
MODEL 59
USER: ADFR SOLUTION from run 60
USER: SCORE 17.338572 LL:  -5.379 LR: -14.341 RR:   0.000 FEB:  -6.884
USER: RMSD 10.377336
USER: SEED 59
USER: STATUS no improvement in best in 6 clusters for 5 generations
USER: GENES 27
USER: genes 0 Translation |==|  0.53260 0.46731 0.54225
USER: genes 1 Rotation |==|  0.81536 0.81193 0.72232 0.56182
USER: genes 2 Torsion [N]-C--CA-[N] |==|  0.39932
USER: genes 3 Torsion [C]-CA--N-[C] |==|  0.60051
USER: genes 4 Torsion [N]-C--CA-[N] |==|  0.39603
USER: genes 5 Torsion [C]-CA--CB-[CG] |==|  0.27355
USER: genes 6 Torsion [CA]-CB--CG-[CD] |==|  0.31320
USER: genes 7 Torsion [CB]-CG--CD-[NE] |==|  0.66554
USER: genes 8 Torsion [CG]-CD--NE-[HE] |==|  0.12792
USER: genes 9 Torsion [C]-CA--N-[C] |==|  0.52903
USER: genes 10 Torsion [N]-C--CA-[N] |==|  0.10428
USER: genes 11 Torsion [C]-CA--N-[C] |==|  0.13561
USER: genes 12 Torsion [C]-CA--CB-[CG2] |==|  0.23825
USER: genes 13 Torsion [CA]-CB--OG1-[HG1] |==|  0.11530
USER: genes 14 Torsion [C]-N--CA-[CB] |==|  0.16016
USER: genes 15 Torsion [N]-CA--CB-[CG] |==|  0.17066
USER: genes 16 Torsion [CA]-CB--CG-[CD] |==|  0.70601
USER: genes 17 Torsion [CB]-CG--CD-[OE2] |==|  0.25443
USER: genes 18 Torsion [N]-CA--C-[N] |==|  0.45035
USER: genes 19 Torsion [C]-N--CA-[CB] |==|  0.82778
USER: genes 20 Torsion [N]-CA--C-[N] |==|  0.99702
USER: genes 21 Torsion [C]-N--CA-[C] |==|  0.81048
USER: genes 22 Torsion [N]-CA--C-[N] |==|  0.92411
USER: genes 23 Torsion [N]-CA--CB-[CG] |==|  0.19747
USER: genes 24 Torsion [CA]-CB--CG-[CD1] |==|  0.83173
USER: genes 25 Torsion [CE1]-CZ--OH-[HH] |==|  0.30906
USER: genes 26 Torsion [N]-CA--CB-[CG1] |==|  0.56179
ROOT
ATOM      1  C   THR D   3       4.895   3.137  -4.360  1.00 23.43 LIG 0.24  C 
ATOM      2 O    THR D   3       4.584   3.882  -5.289  1.00 24.39 LIG-0.27  OA
ATOM      3  N   GLU D   4       3.999   2.543  -3.577  1.00 25.01 LIG-0.35  N 
ATOM      4 H    GLU D   4       4.207   2.000  -2.943  1.00 25.01 LIG 0.16  HD
ENDROOT
BRANCH 1 5
ATOM      5  CA  THR D   3       6.367   2.851  -4.051  1.00 20.85 LIG 0.20  C 
BRANCH 5 6
ATOM      6  N   THR D   3       7.185   2.765  -5.254  1.00 20.16 LIG-0.34  N 
ATOM      7 H    THR D   3       6.955   3.312  -5.878  1.00 20.16 LIG 0.16  HD
ATOM      8  C   ARG D   2       8.195   1.908  -5.357  1.00 20.73 LIG 0.24  C 
ATOM      9 O    ARG D   2       8.481   1.094  -4.476  1.00 19.88 LIG-0.27  OA
BRANCH 8 10
ATOM     10  CA  ARG D   2       8.988   1.961  -6.658  1.00 21.07 LIG 0.18  C 
BRANCH 10 11
ATOM     11  CB  ARG D   2       8.432   0.949  -7.669  1.00 18.72 LIG 0.04  C 
BRANCH 11 12
ATOM     12  CG  ARG D   2       7.484   1.562  -8.705  1.00 17.25 LIG 0.02  C 
BRANCH 12 13
ATOM     13  CD  ARG D   2       8.081   1.529 -10.111  1.00 15.57 LIG 0.14  C 
BRANCH 13 14
ATOM     14  NE  ARG D   2       8.215   2.863 -10.687  1.00 16.78 LIG-0.23  N 
ATOM     15 HE   ARG D   2       8.552   3.482 -10.194  1.00 16.78 LIG 0.18  HD
ATOM     16  CZ  ARG D   2       7.851   3.183 -11.926  1.00 18.57 LIG 0.67  C 
ATOM     17  NH2 ARG D   2       8.009   4.425 -12.367  1.00 17.94 LIG-0.23  N 
ATOM     18  NH1 ARG D   2       7.333   2.261 -12.727  1.00 16.85 LIG-0.23  N 
ATOM     19 1HH2 ARG D   2       8.348   5.025 -11.851  1.00 17.94 LIG 0.17  HD
ATOM     20 2HH2 ARG D   2       7.773   4.630 -13.167  1.00 17.94 LIG 0.17  HD
ATOM     21 2HH1 ARG D   2       7.098   2.469 -13.528  1.00 16.85 LIG 0.17  HD
ATOM     22 1HH1 ARG D   2       7.232   1.455 -12.446  1.00 16.85 LIG 0.17  HD
ENDBRANCH 13 14
ENDBRANCH 12 13
ENDBRANCH 11 12
ENDBRANCH 10 11
BRANCH 10 23
ATOM     23  N   ARG D   2      10.418   1.746  -6.431  1.00 21.51 LIG-0.35  N 
ATOM     24  C   ALA D   1      11.306   1.956  -7.398  1.00 21.30 LIG 0.24  C 
ATOM     25 O    ALA D   1      10.993   2.397  -8.500  1.00 21.16 LIG-0.27  OA
ATOM     26 H    ARG D   2      10.619   1.480  -5.639  1.00 21.51 LIG 0.16  HD
BRANCH 24 27
ATOM     27  CA  ALA D   1      12.767   1.633  -7.079  1.00 21.78 LIG 0.17  C 
ATOM     28  CB  ALA D   1      13.568   1.481  -8.362  1.00 21.47 LIG 0.04  C 
BRANCH 27 29
ATOM     29  N   ALA D   1      12.910   0.442  -6.244  1.00 22.15 LIG-0.35  N 
ATOM     30 H    ALA D   1      13.428   0.556  -5.567  1.00 22.15 LIG 0.16  HD
ATOM     31  C   ACE D   0      12.299  -0.711  -6.506  1.00 22.99 LIG 0.21  C 
ATOM     32 O    ACE D   0      11.882  -1.044  -7.617  1.00 24.10 LIG-0.27  OA
ATOM     33  CH3 ACE D   0      12.531  -1.704  -5.406  1.00 21.14 LIG 0.12  C 
ENDBRANCH 27 29
ENDBRANCH 24 27
ENDBRANCH 10 23
ENDBRANCH 8 10
ENDBRANCH 5 6
BRANCH 5 34
ATOM     34  CB  THR D   3       6.915   3.920  -3.086  1.00 19.16 LIG 0.15  C 
ATOM     35  CG2 THR D   3       6.619   3.528  -1.649  1.00 17.08 LIG 0.04  C 
BRANCH 34 36
ATOM     36 OG1  THR D   3       8.334   4.041  -3.257  1.00 20.38 LIG-0.39  OA
ATOM     37 HG1  THR D   3       8.521   4.015  -4.075  1.00 20.38 LIG 0.21  HD
ENDBRANCH 34 36
ENDBRANCH 5 34
ENDBRANCH 1 5
BRANCH 3 38
ATOM     38  CA  GLU D   4       2.563   2.763  -3.727  1.00 28.82 LIG 0.18  C 
BRANCH 38 39
ATOM     39  CB  GLU D   4       2.107   2.393  -5.142  1.00 31.32 LIG 0.04  C 
BRANCH 39 40
ATOM     40  CG  GLU D   4       2.328   0.936  -5.516  1.00 34.96 LIG 0.12  C 
BRANCH 40 41
ATOM     41  CD  GLU D   4       3.485   0.751  -6.477  1.00 38.68 LIG 0.17  C 
ATOM     42 OE2  GLU D   4       4.622   0.535  -6.008  1.00 39.24 LIG-0.65  OA
ATOM     43 OE1  GLU D   4       3.259   0.827  -7.703  1.00 40.65 LIG-0.65  OA
ENDBRANCH 40 41
ENDBRANCH 39 40
ENDBRANCH 38 39
BRANCH 38 44
ATOM     44  C   GLU D   4       1.790   1.927  -2.711  1.00 29.37 LIG 0.24  C 
ATOM     45  N   VAL D   5       0.531   2.290  -2.480  1.00 31.15 LIG-0.35  N 
ATOM     46 H    VAL D   5       0.152   2.969  -2.846  1.00 31.15 LIG 0.16  HD
ATOM     47 O    GLU D   4       2.323   0.967  -2.155  1.00 28.00 LIG-0.27  OA
BRANCH 45 48
ATOM     48  CA  VAL D   5      -0.327   1.541  -1.565  1.00 31.02 LIG 0.18  C 
BRANCH 48 49
ATOM     49  C   VAL D   5       0.251   1.485  -0.154  1.00 31.80 LIG 0.24  C 
ATOM     50  N   TYR D   6       1.424   2.086   0.028  1.00 29.63 LIG-0.35  N 
ATOM     51 H    TYR D   6       1.880   2.444  -0.607  1.00 29.63 LIG 0.16  HD
ATOM     52 O    VAL D   5      -0.359   0.914   0.751  1.00 32.83 LIG-0.27  OA
BRANCH 50 53
ATOM     53  CA  TYR D   6       2.044   2.189   1.342  1.00 30.54 LIG 0.18  C 
BRANCH 53 54
ATOM     54  C   TYR D   6       1.228   3.124   2.228  1.00 31.23 LIG 0.28  C 
ATOM     55  N   NH2 D   7       0.528   4.064   1.601  1.00 33.55 LIG-0.11  N 
ATOM     56 O    TYR D   6       1.244   3.003   3.453  1.00 28.81 LIG-0.27  OA
ENDBRANCH 53 54
BRANCH 53 57
ATOM     57  CB  TYR D   6       3.486   2.692   1.211  1.00 30.33 LIG 0.07  C 
BRANCH 57 58
ATOM     58  CG  TYR D   6       3.622   4.150   0.815  1.00 31.81 LIG-0.06  A 
ATOM     59  CD1 TYR D   6       3.109   4.617  -0.389  1.00 31.47 LIG 0.01  A 
ATOM     60  CE1 TYR D   6       3.224   5.947  -0.745  1.00 32.87 LIG 0.04  A 
ATOM     61  CZ  TYR D   6       3.848   6.832   0.107  1.00 33.71 LIG 0.07  A 
ATOM     62  CE2 TYR D   6       4.359   6.395   1.311  1.00 32.90 LIG 0.04  A 
ATOM     63  CD2 TYR D   6       4.239   5.062   1.661  1.00 31.58 LIG 0.01  A 
BRANCH 61 64
ATOM     64 OH   TYR D   6       3.965   8.157  -0.247  1.00 34.88 LIG-0.36  OA
ATOM     65 HH   TYR D   6       3.478   8.624   0.254  1.00 34.88 LIG 0.22  HD
ENDBRANCH 61 64
ENDBRANCH 57 58
ENDBRANCH 53 57
ENDBRANCH 50 53
ENDBRANCH 48 49
BRANCH 48 66
ATOM     66  CB  VAL D   5      -0.545   0.091  -2.041  1.00 31.19 LIG 0.01  C 
ATOM     67  CG1 VAL D   5      -1.820  -0.477  -1.425  1.00 32.10 LIG 0.01  C 
ATOM     68  CG2 VAL D   5      -0.605   0.027  -3.551  1.00 30.34 LIG 0.01  C 
ENDBRANCH 48 66
ENDBRANCH 45 48
ENDBRANCH 38 44
ENDBRANCH 3 38
TORSDOF 25
ENDMDL
MODEL 60
USER: ADFR SOLUTION from run 7
USER: SCORE 18.866787 LL:  -6.328 LR: -14.329 RR:   0.000 FEB:  -6.872
USER: RMSD 6.861802
USER: SEED 657966
USER: STATUS no improvement in best in 5 clusters for 5 generations
USER: GENES 27
USER: genes 0 Translation |==|  0.64430 0.39517 0.56787
USER: genes 1 Rotation |==|  0.70452 0.13483 0.29318 0.67902
USER: genes 2 Torsion [N]-C--CA-[N] |==|  0.87871
USER: genes 3 Torsion [C]-CA--N-[C] |==|  0.79586
USER: genes 4 Torsion [N]-C--CA-[N] |==|  0.20717
USER: genes 5 Torsion [C]-CA--CB-[CG] |==|  0.45068
USER: genes 6 Torsion [CA]-CB--CG-[CD] |==|  0.62128
USER: genes 7 Torsion [CB]-CG--CD-[NE] |==|  0.30947
USER: genes 8 Torsion [CG]-CD--NE-[HE] |==|  0.81306
USER: genes 9 Torsion [C]-CA--N-[C] |==|  0.76577
USER: genes 10 Torsion [N]-C--CA-[N] |==|  0.57881
USER: genes 11 Torsion [C]-CA--N-[C] |==|  0.14817
USER: genes 12 Torsion [C]-CA--CB-[CG2] |==|  0.59873
USER: genes 13 Torsion [CA]-CB--OG1-[HG1] |==|  0.20007
USER: genes 14 Torsion [C]-N--CA-[CB] |==|  0.75996
USER: genes 15 Torsion [N]-CA--CB-[CG] |==|  0.58033
USER: genes 16 Torsion [CA]-CB--CG-[CD] |==|  0.38057
USER: genes 17 Torsion [CB]-CG--CD-[OE2] |==|  0.11830
USER: genes 18 Torsion [N]-CA--C-[N] |==|  0.15630
USER: genes 19 Torsion [C]-N--CA-[CB] |==|  0.77165
USER: genes 20 Torsion [N]-CA--C-[N] |==|  0.17778
USER: genes 21 Torsion [C]-N--CA-[C] |==|  0.71912
USER: genes 22 Torsion [N]-CA--C-[N] |==|  0.45212
USER: genes 23 Torsion [N]-CA--CB-[CG] |==|  0.82338
USER: genes 24 Torsion [CA]-CB--CG-[CD1] |==|  0.43446
USER: genes 25 Torsion [CE1]-CZ--OH-[HH] |==|  0.71468
USER: genes 26 Torsion [N]-CA--CB-[CG1] |==|  0.55252
ROOT
ATOM      1  C   THR D   3       7.073   1.460  -3.726  1.00 23.43 LIG 0.24  C 
ATOM      2 O    THR D   3       6.713   1.013  -4.815  1.00 24.39 LIG-0.27  OA
ATOM      3  N   GLU D   4       8.221   1.120  -3.147  1.00 25.01 LIG-0.35  N 
ATOM      4 H    GLU D   4       8.492   1.447  -2.399  1.00 25.01 LIG 0.16  HD
ENDROOT
BRANCH 1 5
ATOM      5  CA  THR D   3       6.192   2.452  -2.963  1.00 20.85 LIG 0.20  C 
BRANCH 5 6
ATOM      6  N   THR D   3       6.106   2.144  -1.540  1.00 20.16 LIG-0.34  N 
ATOM      7 H    THR D   3       6.552   2.678  -1.035  1.00 20.16 LIG 0.16  HD
ATOM      8  C   ARG D   2       5.391   1.119  -1.086  1.00 20.73 LIG 0.24  C 
ATOM      9 O    ARG D   2       4.799   0.330  -1.825  1.00 19.88 LIG-0.27  OA
BRANCH 8 10
ATOM     10  CA  ARG D   2       5.359   0.945   0.428  1.00 21.07 LIG 0.18  C 
BRANCH 10 11
ATOM     11  CB  ARG D   2       4.922  -0.480   0.797  1.00 18.72 LIG 0.04  C 
BRANCH 11 12
ATOM     12  CG  ARG D   2       5.265  -0.882   2.235  1.00 17.25 LIG 0.02  C 
BRANCH 12 13
ATOM     13  CD  ARG D   2       5.837  -2.297   2.307  1.00 15.57 LIG 0.14  C 
BRANCH 13 14
ATOM     14  NE  ARG D   2       7.249  -2.306   2.675  1.00 16.78 LIG-0.23  N 
ATOM     15 HE   ARG D   2       7.813  -1.979   2.114  1.00 16.78 LIG 0.18  HD
ATOM     16  CZ  ARG D   2       7.720  -2.787   3.822  1.00 18.57 LIG 0.67  C 
ATOM     17  NH2 ARG D   2       9.023  -2.756   4.072  1.00 17.94 LIG-0.23  N 
ATOM     18  NH1 ARG D   2       6.889  -3.296   4.723  1.00 16.85 LIG-0.23  N 
ATOM     19 1HH2 ARG D   2       9.565  -2.423   3.492  1.00 17.94 LIG 0.17  HD
ATOM     20 2HH2 ARG D   2       9.326  -3.067   4.814  1.00 17.94 LIG 0.17  HD
ATOM     21 2HH1 ARG D   2       7.196  -3.606   5.464  1.00 16.85 LIG 0.17  HD
ATOM     22 1HH1 ARG D   2       6.044  -3.315   4.566  1.00 16.85 LIG 0.17  HD
ENDBRANCH 13 14
ENDBRANCH 12 13
ENDBRANCH 11 12
ENDBRANCH 10 11
BRANCH 10 23
ATOM     23  N   ARG D   2       4.500   1.940   1.071  1.00 21.51 LIG-0.35  N 
ATOM     24  C   ALA D   1       4.958   3.152   1.372  1.00 21.30 LIG 0.24  C 
ATOM     25 O    ALA D   1       6.090   3.524   1.075  1.00 21.16 LIG-0.27  OA
ATOM     26 H    ARG D   2       3.698   1.673   1.229  1.00 21.51 LIG 0.16  HD
BRANCH 24 27
ATOM     27  CA  ALA D   1       4.001   4.092   2.106  1.00 21.78 LIG 0.17  C 
ATOM     28  CB  ALA D   1       2.559   3.751   1.766  1.00 21.47 LIG 0.04  C 
BRANCH 27 29
ATOM     29  N   ALA D   1       4.271   5.500   1.825  1.00 22.15 LIG-0.35  N 
ATOM     30 H    ALA D   1       4.377   5.979   2.533  1.00 22.15 LIG 0.16  HD
ATOM     31  C   ACE D   0       4.346   5.998   0.594  1.00 22.99 LIG 0.21  C 
ATOM     32 O    ACE D   0       3.839   5.478  -0.402  1.00 24.10 LIG-0.27  OA
ATOM     33  CH3 ACE D   0       4.765   7.438   0.621  1.00 21.14 LIG 0.12  C 
ENDBRANCH 27 29
ENDBRANCH 24 27
ENDBRANCH 10 23
ENDBRANCH 8 10
ENDBRANCH 5 6
BRANCH 5 34
ATOM     34  CB  THR D   3       6.706   3.887  -3.186  1.00 19.16 LIG 0.15  C 
ATOM     35  CG2 THR D   3       6.523   4.710  -1.922  1.00 17.08 LIG 0.04  C 
BRANCH 34 36
ATOM     36 OG1  THR D   3       8.098   3.853  -3.527  1.00 20.38 LIG-0.39  OA
ATOM     37 HG1  THR D   3       8.189   3.554  -4.306  1.00 20.38 LIG 0.21  HD
ENDBRANCH 34 36
ENDBRANCH 5 34
ENDBRANCH 1 5
BRANCH 3 38
ATOM     38  CA  GLU D   4       9.135   0.147  -3.739  1.00 28.82 LIG 0.18  C 
BRANCH 38 39
ATOM     39  CB  GLU D   4       8.750  -1.276  -3.324  1.00 31.32 LIG 0.04  C 
BRANCH 39 40
ATOM     40  CG  GLU D   4       9.913  -2.253  -3.265  1.00 34.96 LIG 0.12  C 
BRANCH 40 41
ATOM     41  CD  GLU D   4       9.862  -3.144  -2.039  1.00 38.68 LIG 0.17  C 
ATOM     42 OE2  GLU D   4       8.762  -3.628  -1.699  1.00 39.24 LIG-0.65  OA
ATOM     43 OE1  GLU D   4      10.921  -3.357  -1.413  1.00 40.65 LIG-0.65  OA
ENDBRANCH 40 41
ENDBRANCH 39 40
ENDBRANCH 38 39
BRANCH 38 44
ATOM     44  C   GLU D   4       9.112   0.255  -5.262  1.00 29.37 LIG 0.24  C 
ATOM     45  N   VAL D   5       9.389   1.450  -5.776  1.00 31.15 LIG-0.35  N 
ATOM     46 H    VAL D   5       9.549   2.151  -5.304  1.00 31.15 LIG 0.16  HD
ATOM     47 O    GLU D   4       8.856  -0.730  -5.954  1.00 28.00 LIG-0.27  OA
BRANCH 45 48
ATOM     48  CA  VAL D   5       9.444   1.669  -7.219  1.00 31.02 LIG 0.18  C 
BRANCH 48 49
ATOM     49  C   VAL D   5       8.357   0.895  -7.959  1.00 31.80 LIG 0.24  C 
ATOM     50  N   TYR D   6       7.101   1.238  -7.689  1.00 29.63 LIG-0.35  N 
ATOM     51 H    TYR D   6       6.882   1.820  -7.095  1.00 29.63 LIG 0.16  HD
ATOM     52 O    VAL D   5       8.654   0.010  -8.762  1.00 32.83 LIG-0.27  OA
BRANCH 50 53
ATOM     53  CA  TYR D   6       5.970   0.646  -8.392  1.00 30.54 LIG 0.18  C 
BRANCH 53 54
ATOM     54  C   TYR D   6       5.464   1.608  -9.461  1.00 31.23 LIG 0.28  C 
ATOM     55  N   NH2 D   7       4.688   1.083 -10.403  1.00 33.55 LIG-0.11  N 
ATOM     56 O    TYR D   6       5.783   2.798  -9.439  1.00 28.81 LIG-0.27  OA
ENDBRANCH 53 54
BRANCH 53 57
ATOM     57  CB  TYR D   6       4.851   0.303  -7.402  1.00 30.33 LIG 0.07  C 
BRANCH 57 58
ATOM     58  CG  TYR D   6       5.210  -0.746  -6.367  1.00 31.81 LIG-0.06  A 
ATOM     59  CD1 TYR D   6       4.534  -0.817  -5.155  1.00 31.47 LIG 0.01  A 
ATOM     60  CE1 TYR D   6       4.854  -1.779  -4.216  1.00 32.87 LIG 0.04  A 
ATOM     61  CZ  TYR D   6       5.851  -2.691  -4.484  1.00 33.71 LIG 0.07  A 
ATOM     62  CE2 TYR D   6       6.530  -2.648  -5.683  1.00 32.90 LIG 0.04  A 
ATOM     63  CD2 TYR D   6       6.203  -1.683  -6.618  1.00 31.58 LIG 0.01  A 
BRANCH 61 64
ATOM     64 OH   TYR D   6       6.171  -3.650  -3.549  1.00 34.88 LIG-0.36  OA
ATOM     65 HH   TYR D   6       6.879  -3.431  -3.155  1.00 34.88 LIG 0.22  HD
ENDBRANCH 61 64
ENDBRANCH 57 58
ENDBRANCH 53 57
ENDBRANCH 50 53
ENDBRANCH 48 49
BRANCH 48 66
ATOM     66  CB  VAL D   5      10.805   1.250  -7.810  1.00 31.19 LIG 0.01  C 
ATOM     67  CG1 VAL D   5      11.008   1.903  -9.174  1.00 32.10 LIG 0.01  C 
ATOM     68  CG2 VAL D   5      11.933   1.613  -6.869  1.00 30.34 LIG 0.01  C 
ENDBRANCH 48 66
ENDBRANCH 45 48
ENDBRANCH 38 44
ENDBRANCH 3 38
TORSDOF 25
ENDMDL
