MODEL 1
USER: ADFR SOLUTION from run 1
USER: SCORE 18.355680 LL:  -3.629 LR: -15.998 RR:   0.000 FEB: -10.927
USER: RMSD 1.399335
USER: SEED 970891
USER: STATUS 1 or 2 clusters left
USER: GENES 19
USER: genes 0 Translation |==|  0.48613 0.50001 0.53433
USER: genes 1 Rotation |==|  0.48504 0.46581 0.52308 0.99807
USER: genes 2 Torsion [C]-CA--CB-[CG] |==|  0.23373
USER: genes 3 Torsion [CA]-CB--CG-[CD] |==|  0.58689
USER: genes 4 Torsion [CB]-CG--CD-[NE] |==|  0.78730
USER: genes 5 Torsion [CG]-CD--NE-[CZ] |==|  0.35025
USER: genes 6 Torsion [N]-CA--C-[N] |==|  0.42804
USER: genes 7 Torsion [N]-CA--C-[O] |==|  0.95434
USER: genes 8 Torsion [C]-N--CA-[C] |==|  0.72543
USER: genes 9 Torsion [N]-CA--C-[N] |==|  0.40705
USER: genes 10 Torsion [N]-CA--C-[O] |==|  0.02031
USER: genes 11 Torsion [CB]-CA--N-[C] |==|  0.44164
USER: genes 12 Torsion [N]-C--CA-[N] |==|  0.41792
USER: genes 13 Torsion [C]-CA--CB-[OG1] |==|  0.11188
USER: genes 14 Torsion [CA]-CB--OG1-[HG1] |==|  0.22684
USER: genes 15 Torsion [C]-CA--N-[C] |==|  0.81213
USER: genes 16 Torsion [N]-C--CA-[N] |==|  0.51309
USER: genes 17 Torsion [C]-CA--CB-[CG] |==|  0.68181
USER: genes 18 Torsion [CA]-CB--CG-[OD1] |==|  0.20881
ROOT
ATOM      1  CA  ARG E   5     102.034 125.410   7.959  1.00 34.60 LIG 0.18  C 
ENDROOT
BRANCH 1 2
ATOM      2  CB  ARG E   5     101.160 124.167   8.007  1.00 32.17 LIG 0.04  C 
BRANCH 2 3
ATOM      3  CG  ARG E   5     101.182 123.423   6.699  1.00 30.87 LIG 0.02  C 
BRANCH 3 4
ATOM      4  CD  ARG E   5      99.878 122.732   6.454  1.00 28.77 LIG 0.14  C 
BRANCH 4 5
ATOM      5  NE  ARG E   5      99.773 121.525   7.266  1.00 27.14 LIG-0.23  N 
ATOM      6  CZ  ARG E   5      98.761 121.267   8.083  1.00 27.11 LIG 0.67  C 
ATOM      7  NH2 ARG E   5      98.746 120.143   8.790  1.00 28.81 LIG-0.23  N 
ATOM      8  NH1 ARG E   5      97.766 122.138   8.192  1.00 26.86 LIG-0.23  N 
ATOM      9 2HH2 ARG E   5      98.089 119.976   9.320  1.00 28.81 LIG 0.17  HD
ATOM     10 1HH2 ARG E   5      99.394 119.581   8.719  1.00 28.81 LIG 0.17  HD
ATOM     11 2HH1 ARG E   5      97.107 121.975   8.720  1.00 26.86 LIG 0.17  HD
ATOM     12 1HH1 ARG E   5      97.780 122.866   7.735  1.00 26.86 LIG 0.17  HD
ATOM     13 HE   ARG E   5     100.406 120.945   7.213  1.00 27.14 LIG 0.18  HD
ENDBRANCH 4 5
ENDBRANCH 3 4
ENDBRANCH 2 3
ENDBRANCH 1 2
BRANCH 1 14
ATOM     14  C   ARG E   5     101.256 126.574   7.351  1.00 36.20 LIG 0.24  C 
ATOM     15 O    ARG E   5     100.691 127.389   8.093  1.00 36.29 LIG-0.27  OA
ATOM     16  N   PRO E   6     101.194 126.689   6.025  1.00 37.19 LIG-0.34  N 
ATOM     17  CA  PRO E   6     100.458 127.804   5.428  1.00 38.47 LIG 0.18  C 
ATOM     18  CD  PRO E   6     101.810 125.848   4.988  1.00 36.10 LIG 0.13  C 
ATOM     19  CB  PRO E   6     100.777 127.679   3.932  1.00 37.25 LIG 0.04  C 
ATOM     20  CG  PRO E   6     101.986 126.811   3.863  1.00 36.76 LIG 0.02  C 
BRANCH 17 21
ATOM     21  C   PRO E   6      98.965 127.695   5.668  1.00 38.85 LIG 0.24  C 
ATOM     22 O    PRO E   6      98.438 126.638   6.027  1.00 38.06 LIG-0.27  OA
ATOM     23  N   ALA E   7      98.283 128.813   5.470  1.00 39.96 LIG-0.35  N 
ATOM     24 H    ALA E   7      98.635 129.575   5.286  1.00 39.96 LIG 0.16  HD
BRANCH 23 25
ATOM     25  CA  ALA E   7      96.840 128.807   5.560  1.00 39.26 LIG 0.17  C 
ATOM     26  CB  ALA E   7      96.344 130.061   6.270  1.00 41.08 LIG 0.04  C 
BRANCH 25 27
ATOM     27  C   ALA E   7      96.258 128.723   4.150  1.00 37.69 LIG 0.24  C 
ATOM     28 O    ALA E   7      96.841 129.251   3.200  1.00 38.21 LIG-0.27  OA
ATOM     29  N   PRO E   8      95.110 128.051   3.980  1.00 36.84 LIG-0.34  N 
ATOM     30  CD  PRO E   8      94.334 127.307   4.985  1.00 36.57 LIG 0.13  C 
ATOM     31  CA  PRO E   8      94.503 127.941   2.651  1.00 36.95 LIG 0.17  C 
ATOM     32  CG  PRO E   8      93.026 127.074   4.290  1.00 36.01 LIG 0.02  C 
ATOM     33  CB  PRO E   8      93.422 126.883   2.866  1.00 35.51 LIG 0.04  C 
BRANCH 31 34
ATOM     34  C   PRO E   8      93.902 129.249   2.151  1.00 39.03 LIG 0.22  C 
ATOM     35 O    PRO E   8      94.080 130.285   2.790  1.00 41.16 LIG-0.29  OA
ENDBRANCH 31 34
ENDBRANCH 25 27
ENDBRANCH 23 25
ENDBRANCH 17 21
ENDBRANCH 1 14
BRANCH 1 36
ATOM     36  N   ARG E   5     102.487 125.784   9.282  1.00 35.03 LIG-0.35  N 
ATOM     37 H    ARG E   5     102.014 125.475   9.931  1.00 35.03 LIG 0.16  HD
ATOM     38  C   THR E   4     103.554 126.549   9.426  1.00 36.29 LIG 0.24  C 
ATOM     39 O    THR E   4     104.193 126.997   8.470  1.00 35.32 LIG-0.27  OA
BRANCH 38 40
ATOM     40  CA  THR E   4     103.952 126.842  10.866  1.00 38.81 LIG 0.20  C 
BRANCH 40 41
ATOM     41  CB  THR E   4     103.206 128.069  11.373  1.00 37.77 LIG 0.15  C 
ATOM     42  CG2 THR E   4     103.889 129.318  10.878  1.00 32.08 LIG 0.04  C 
BRANCH 41 43
ATOM     43 OG1  THR E   4     101.854 128.035  10.904  1.00 38.27 LIG-0.39  OA
ATOM     44 HG1  THR E   4     101.397 127.534  11.401  1.00 38.27 LIG 0.21  HD
ENDBRANCH 41 43
ENDBRANCH 40 41
BRANCH 40 45
ATOM     45  N   THR E   4     105.387 127.044  10.959  1.00 43.44 LIG-0.34  N 
ATOM     46  C   ASP E   3     106.250 126.056  10.753  1.00 43.86 LIG 0.26  C 
ATOM     47 O    ASP E   3     105.911 124.873  10.653  1.00 40.64 LIG-0.27  OA
ATOM     48 H    THR E   4     105.619 127.848  11.157  1.00 43.44 LIG 0.16  HD
BRANCH 46 49
ATOM     49  CA  ASP E   3     107.716 126.473  10.682  1.00 46.95 LIG 0.41  C 
ATOM     50  N   ASP E   3     108.587 125.352  10.345  1.00 48.81 LIG 0.61  N 
BRANCH 49 51
ATOM     51  CB  ASP E   3     107.890 127.613   9.683  1.00 49.65 LIG 0.16  C 
BRANCH 51 52
ATOM     52  CG  ASP E   3     108.721 127.224   8.477  1.00 52.58 LIG 0.17  C 
ATOM     53 OD1  ASP E   3     108.201 126.502   7.598  1.00 53.20 LIG-0.65  OA
ATOM     54 OD2  ASP E   3     109.897 127.660   8.415  1.00 53.89 LIG-0.65  OA
ENDBRANCH 51 52
ENDBRANCH 49 51
ENDBRANCH 46 49
ENDBRANCH 40 45
ENDBRANCH 38 40
ENDBRANCH 1 36
TORSDOF 17
ENDMDL
MODEL 2
USER: ADFR SOLUTION from run 98
USER: SCORE 16.208692 LL:  -4.058 LR: -15.014 RR:   0.000 FEB:  -9.943
USER: RMSD 2.638648
USER: SEED 97
USER: STATUS searching
USER: GENES 19
USER: genes 0 Translation |==|  0.48554 0.52615 0.54920
USER: genes 1 Rotation |==|  0.59509 0.52728 0.70446 0.94543
USER: genes 2 Torsion [C]-CA--CB-[CG] |==|  0.20931
USER: genes 3 Torsion [CA]-CB--CG-[CD] |==|  0.71247
USER: genes 4 Torsion [CB]-CG--CD-[NE] |==|  0.85373
USER: genes 5 Torsion [CG]-CD--NE-[CZ] |==|  0.37197
USER: genes 6 Torsion [N]-CA--C-[N] |==|  0.18450
USER: genes 7 Torsion [N]-CA--C-[O] |==|  0.25203
USER: genes 8 Torsion [C]-N--CA-[C] |==|  0.17762
USER: genes 9 Torsion [N]-CA--C-[N] |==|  0.46234
USER: genes 10 Torsion [N]-CA--C-[O] |==|  0.45017
USER: genes 11 Torsion [CB]-CA--N-[C] |==|  0.31109
USER: genes 12 Torsion [N]-C--CA-[N] |==|  0.38485
USER: genes 13 Torsion [C]-CA--CB-[OG1] |==|  0.51416
USER: genes 14 Torsion [CA]-CB--OG1-[HG1] |==|  0.45726
USER: genes 15 Torsion [C]-CA--N-[C] |==|  0.81112
USER: genes 16 Torsion [N]-C--CA-[N] |==|  0.53567
USER: genes 17 Torsion [C]-CA--CB-[CG] |==|  0.69209
USER: genes 18 Torsion [CA]-CB--CG-[OD1] |==|  0.65127
ROOT
ATOM      1  CA  ARG E   5     102.019 125.920   8.249  1.00 34.60 LIG 0.18  C 
ENDROOT
BRANCH 1 2
ATOM      2  CB  ARG E   5     102.224 124.470   7.841  1.00 32.17 LIG 0.04  C 
BRANCH 2 3
ATOM      3  CG  ARG E   5     101.991 124.270   6.368  1.00 30.87 LIG 0.02  C 
BRANCH 3 4
ATOM      4  CD  ARG E   5     100.664 123.627   6.117  1.00 28.77 LIG 0.14  C 
BRANCH 4 5
ATOM      5  NE  ARG E   5     100.523 122.408   6.905  1.00 27.14 LIG-0.23  N 
ATOM      6  CZ  ARG E   5      99.441 122.099   7.606  1.00 27.11 LIG 0.67  C 
ATOM      7  NH2 ARG E   5      99.398 120.967   8.300  1.00 28.81 LIG-0.23  N 
ATOM      8  NH1 ARG E   5      98.405 122.927   7.613  1.00 26.86 LIG-0.23  N 
ATOM      9 2HH2 ARG E   5      98.696 120.768   8.754  1.00 28.81 LIG 0.17  HD
ATOM     10 1HH2 ARG E   5     100.072 120.434   8.295  1.00 28.81 LIG 0.17  HD
ATOM     11 2HH1 ARG E   5      97.700 122.731   8.066  1.00 26.86 LIG 0.17  HD
ATOM     12 1HH1 ARG E   5      98.437 123.661   7.165  1.00 26.86 LIG 0.17  HD
ATOM     13 HE   ARG E   5     101.182 121.855   6.916  1.00 27.14 LIG 0.18  HD
ENDBRANCH 4 5
ENDBRANCH 3 4
ENDBRANCH 2 3
ENDBRANCH 1 2
BRANCH 1 14
ATOM     14  C   ARG E   5     100.528 126.245   8.293  1.00 36.20 LIG 0.24  C 
ATOM     15 O    ARG E   5      99.697 125.334   8.170  1.00 36.29 LIG-0.27  OA
ATOM     16  N   PRO E   6     100.145 127.510   8.459  1.00 37.19 LIG-0.34  N 
ATOM     17  CA  PRO E   6      98.719 127.835   8.511  1.00 38.47 LIG 0.18  C 
ATOM     18  CD  PRO E   6     100.968 128.715   8.645  1.00 36.10 LIG 0.13  C 
ATOM     19  CB  PRO E   6      98.708 129.323   8.886  1.00 37.25 LIG 0.04  C 
ATOM     20  CG  PRO E   6     100.064 129.595   9.440  1.00 36.76 LIG 0.02  C 
BRANCH 17 21
ATOM     21  C   PRO E   6      98.036 127.614   7.175  1.00 38.85 LIG 0.24  C 
ATOM     22 O    PRO E   6      97.515 126.535   6.879  1.00 38.06 LIG-0.27  OA
ATOM     23  N   ALA E   7      98.039 128.663   6.366  1.00 39.96 LIG-0.35  N 
ATOM     24 H    ALA E   7      98.335 129.443   6.575  1.00 39.96 LIG 0.16  HD
BRANCH 23 25
ATOM     25  CA  ALA E   7      97.516 128.542   5.023  1.00 39.26 LIG 0.17  C 
ATOM     26  CB  ALA E   7      98.258 127.451   4.258  1.00 41.08 LIG 0.04  C 
BRANCH 25 27
ATOM     27  C   ALA E   7      96.025 128.223   5.100  1.00 37.69 LIG 0.24  C 
ATOM     28 O    ALA E   7      95.512 127.879   6.167  1.00 38.21 LIG-0.27  OA
ATOM     29  N   PRO E   8      95.296 128.343   3.981  1.00 36.84 LIG-0.34  N 
ATOM     30  CD  PRO E   8      95.732 128.811   2.655  1.00 36.57 LIG 0.13  C 
ATOM     31  CA  PRO E   8      93.861 128.047   3.992  1.00 36.95 LIG 0.17  C 
ATOM     32  CG  PRO E   8      94.593 128.410   1.767  1.00 36.01 LIG 0.02  C 
ATOM     33  CB  PRO E   8      93.398 128.587   2.640  1.00 35.51 LIG 0.04  C 
BRANCH 31 34
ATOM     34  C   PRO E   8      93.551 126.562   4.128  1.00 39.03 LIG 0.22  C 
ATOM     35 O    PRO E   8      92.428 126.203   4.480  1.00 41.16 LIG-0.29  OA
ENDBRANCH 31 34
ENDBRANCH 25 27
ENDBRANCH 23 25
ENDBRANCH 17 21
ENDBRANCH 1 14
BRANCH 1 36
ATOM     36  N   ARG E   5     102.599 126.187   9.548  1.00 35.03 LIG-0.35  N 
ATOM     37 H    ARG E   5     102.209 125.800  10.209  1.00 35.03 LIG 0.16  HD
ATOM     38  C   THR E   4     103.653 126.976   9.653  1.00 36.29 LIG 0.24  C 
ATOM     39 O    THR E   4     104.172 127.536   8.684  1.00 35.32 LIG-0.27  OA
BRANCH 38 40
ATOM     40  CA  THR E   4     104.195 127.150  11.065  1.00 38.81 LIG 0.20  C 
BRANCH 40 41
ATOM     41  CB  THR E   4     103.694 128.460  11.658  1.00 37.77 LIG 0.15  C 
ATOM     42  CG2 THR E   4     102.196 128.411  11.805  1.00 32.08 LIG 0.04  C 
BRANCH 41 43
ATOM     43 OG1  THR E   4     104.303 128.671  12.937  1.00 38.27 LIG-0.39  OA
ATOM     44 HG1  THR E   4     104.199 129.472  13.168  1.00 38.27 LIG 0.21  HD
ENDBRANCH 41 43
ENDBRANCH 40 41
BRANCH 40 45
ATOM     45  N   THR E   4     105.646 127.118  11.054  1.00 43.44 LIG-0.34  N 
ATOM     46  C   ASP E   3     106.322 126.012  10.765  1.00 43.86 LIG 0.26  C 
ATOM     47 O    ASP E   3     105.791 124.902  10.669  1.00 40.64 LIG-0.27  OA
ATOM     48 H    THR E   4     106.018 127.869  11.248  1.00 43.44 LIG 0.16  HD
BRANCH 46 49
ATOM     49  CA  ASP E   3     107.828 126.192  10.591  1.00 46.95 LIG 0.41  C 
ATOM     50  N   ASP E   3     108.453 125.019   9.990  1.00 48.81 LIG 0.61  N 
BRANCH 49 51
ATOM     51  CB  ASP E   3     108.115 127.443   9.766  1.00 49.65 LIG 0.16  C 
BRANCH 51 52
ATOM     52  CG  ASP E   3     108.673 127.132   8.392  1.00 52.58 LIG 0.17  C 
ATOM     53 OD1  ASP E   3     109.754 127.660   8.049  1.00 53.20 LIG-0.65  OA
ATOM     54 OD2  ASP E   3     108.023 126.341   7.665  1.00 53.89 LIG-0.65  OA
ENDBRANCH 51 52
ENDBRANCH 49 51
ENDBRANCH 46 49
ENDBRANCH 40 45
ENDBRANCH 38 40
ENDBRANCH 1 36
TORSDOF 17
ENDMDL
MODEL 3
USER: ADFR SOLUTION from run 97
USER: SCORE 16.778779 LL:  -3.872 LR: -14.904 RR:   0.000 FEB:  -9.833
USER: RMSD 2.209817
USER: SEED 96
USER: STATUS no improvement in best in 6 clusters for 5 generations
USER: GENES 19
USER: genes 0 Translation |==|  0.48357 0.50274 0.51020
USER: genes 1 Rotation |==|  0.47070 0.44746 0.56363 0.99227
USER: genes 2 Torsion [C]-CA--CB-[CG] |==|  0.15609
USER: genes 3 Torsion [CA]-CB--CG-[CD] |==|  0.59878
USER: genes 4 Torsion [CB]-CG--CD-[NE] |==|  0.83120
USER: genes 5 Torsion [CG]-CD--NE-[CZ] |==|  0.37821
USER: genes 6 Torsion [N]-CA--C-[N] |==|  0.27393
USER: genes 7 Torsion [N]-CA--C-[O] |==|  0.07955
USER: genes 8 Torsion [C]-N--CA-[C] |==|  0.17363
USER: genes 9 Torsion [N]-CA--C-[N] |==|  0.13298
USER: genes 10 Torsion [N]-CA--C-[O] |==|  0.77988
USER: genes 11 Torsion [CB]-CA--N-[C] |==|  0.39439
USER: genes 12 Torsion [N]-C--CA-[N] |==|  0.43462
USER: genes 13 Torsion [C]-CA--CB-[OG1] |==|  0.26312
USER: genes 14 Torsion [CA]-CB--OG1-[HG1] |==|  0.93392
USER: genes 15 Torsion [C]-CA--N-[C] |==|  0.80659
USER: genes 16 Torsion [N]-C--CA-[N] |==|  0.50522
USER: genes 17 Torsion [C]-CA--CB-[CG] |==|  0.68698
USER: genes 18 Torsion [CA]-CB--CG-[OD1] |==|  0.62074
ROOT
ATOM      1  CA  ARG E   5     101.967 125.463   7.489  1.00 34.60 LIG 0.18  C 
ENDROOT
BRANCH 1 2
ATOM      2  CB  ARG E   5     101.299 124.100   7.566  1.00 32.17 LIG 0.04  C 
BRANCH 2 3
ATOM      3  CG  ARG E   5     100.939 123.580   6.201  1.00 30.87 LIG 0.02  C 
BRANCH 3 4
ATOM      4  CD  ARG E   5      99.655 122.813   6.241  1.00 28.77 LIG 0.14  C 
BRANCH 4 5
ATOM      5  NE  ARG E   5      99.769 121.663   7.130  1.00 27.14 LIG-0.23  N 
ATOM      6  CZ  ARG E   5      98.838 121.308   8.005  1.00 27.11 LIG 0.67  C 
ATOM      7  NH2 ARG E   5      99.023 120.246   8.781  1.00 28.81 LIG-0.23  N 
ATOM      8  NH1 ARG E   5      97.723 122.021   8.104  1.00 26.86 LIG-0.23  N 
ATOM      9 2HH2 ARG E   5      98.419 120.017   9.349  1.00 28.81 LIG 0.17  HD
ATOM     10 1HH2 ARG E   5      99.748 119.788   8.716  1.00 28.81 LIG 0.17  HD
ATOM     11 2HH1 ARG E   5      97.117 121.795   8.670  1.00 26.86 LIG 0.17  HD
ATOM     12 1HH1 ARG E   5      97.607 122.710   7.603  1.00 26.86 LIG 0.17  HD
ATOM     13 HE   ARG E   5     100.482 121.185   7.084  1.00 27.14 LIG 0.18  HD
ENDBRANCH 4 5
ENDBRANCH 3 4
ENDBRANCH 2 3
ENDBRANCH 1 2
BRANCH 1 14
ATOM     14  C   ARG E   5     101.064 126.447   6.748  1.00 36.20 LIG 0.24  C 
ATOM     15 O    ARG E   5      99.843 126.436   6.957  1.00 36.29 LIG-0.27  OA
ATOM     16  N   PRO E   6     101.608 127.299   5.882  1.00 37.19 LIG-0.34  N 
ATOM     17  CA  PRO E   6     100.756 128.253   5.170  1.00 38.47 LIG 0.18  C 
ATOM     18  CD  PRO E   6     103.022 127.482   5.518  1.00 36.10 LIG 0.13  C 
ATOM     19  CB  PRO E   6     101.762 129.147   4.434  1.00 37.25 LIG 0.04  C 
ATOM     20  CG  PRO E   6     103.063 128.919   5.122  1.00 36.76 LIG 0.02  C 
BRANCH 17 21
ATOM     21  C   PRO E   6      99.829 127.565   4.187  1.00 38.85 LIG 0.24  C 
ATOM     22 O    PRO E   6      99.433 126.410   4.363  1.00 38.06 LIG-0.27  OA
ATOM     23  N   ALA E   7      99.481 128.298   3.140  1.00 39.96 LIG-0.35  N 
ATOM     24 H    ALA E   7      99.689 129.125   3.030  1.00 39.96 LIG 0.16  HD
BRANCH 23 25
ATOM     25  CA  ALA E   7      98.692 127.715   2.078  1.00 39.26 LIG 0.17  C 
ATOM     26  CB  ALA E   7      99.419 126.522   1.467  1.00 41.08 LIG 0.04  C 
BRANCH 25 27
ATOM     27  C   ALA E   7      97.340 127.286   2.646  1.00 37.69 LIG 0.24  C 
ATOM     28 O    ALA E   7      96.893 126.160   2.415  1.00 38.21 LIG-0.27  OA
ATOM     29  N   PRO E   8      96.670 128.162   3.409  1.00 36.84 LIG-0.34  N 
ATOM     30  CD  PRO E   8      97.092 129.504   3.839  1.00 36.57 LIG 0.13  C 
ATOM     31  CA  PRO E   8      95.367 127.808   3.978  1.00 36.95 LIG 0.17  C 
ATOM     32  CG  PRO E   8      95.822 130.102   4.365  1.00 36.01 LIG 0.02  C 
ATOM     33  CB  PRO E   8      95.122 128.937   4.978  1.00 35.51 LIG 0.04  C 
BRANCH 31 34
ATOM     34  C   PRO E   8      94.253 127.738   2.941  1.00 39.03 LIG 0.22  C 
ATOM     35 O    PRO E   8      93.729 128.777   2.538  1.00 41.16 LIG-0.29  OA
ENDBRANCH 31 34
ENDBRANCH 25 27
ENDBRANCH 23 25
ENDBRANCH 17 21
ENDBRANCH 1 14
BRANCH 1 36
ATOM     36  N   ARG E   5     102.251 125.984   8.809  1.00 35.03 LIG-0.35  N 
ATOM     37 H    ARG E   5     101.650 125.823   9.402  1.00 35.03 LIG 0.16  HD
ATOM     38  C   THR E   4     103.367 126.653   9.032  1.00 36.29 LIG 0.24  C 
ATOM     39 O    THR E   4     104.197 126.888   8.149  1.00 35.32 LIG-0.27  OA
BRANCH 38 40
ATOM     40  CA  THR E   4     103.571 127.117  10.468  1.00 38.81 LIG 0.20  C 
BRANCH 40 41
ATOM     41  CB  THR E   4     102.787 128.398  10.716  1.00 37.77 LIG 0.15  C 
ATOM     42  CG2 THR E   4     102.598 129.138   9.417  1.00 32.08 LIG 0.04  C 
BRANCH 41 43
ATOM     43 OG1  THR E   4     101.512 128.077  11.284  1.00 38.27 LIG-0.39  OA
ATOM     44 HG1  THR E   4     101.304 127.290  11.079  1.00 38.27 LIG 0.21  HD
ENDBRANCH 41 43
ENDBRANCH 40 41
BRANCH 40 45
ATOM     45  N   THR E   4     104.983 127.324  10.734  1.00 43.44 LIG-0.34  N 
ATOM     46  C   ASP E   3     105.839 126.312  10.807  1.00 43.86 LIG 0.26  C 
ATOM     47 O    ASP E   3     105.486 125.129  10.841  1.00 40.64 LIG-0.27  OA
ATOM     48 H    THR E   4     105.206 128.148  10.837  1.00 43.44 LIG 0.16  HD
BRANCH 46 49
ATOM     49  CA  ASP E   3     107.312 126.706  10.884  1.00 46.95 LIG 0.41  C 
ATOM     50  N   ASP E   3     108.188 125.540  10.918  1.00 48.81 LIG 0.61  N 
BRANCH 49 51
ATOM     51  CB  ASP E   3     107.673 127.622   9.718  1.00 49.65 LIG 0.16  C 
BRANCH 51 52
ATOM     52  CG  ASP E   3     108.631 126.980   8.735  1.00 52.58 LIG 0.17  C 
ATOM     53 OD1  ASP E   3     109.586 127.660   8.297  1.00 53.20 LIG-0.65  OA
ATOM     54 OD2  ASP E   3     108.423 125.784   8.416  1.00 53.89 LIG-0.65  OA
ENDBRANCH 51 52
ENDBRANCH 49 51
ENDBRANCH 46 49
ENDBRANCH 40 45
ENDBRANCH 38 40
ENDBRANCH 1 36
TORSDOF 17
ENDMDL
MODEL 4
USER: ADFR SOLUTION from run 22
USER: SCORE 17.265948 LL:  -3.765 LR: -14.894 RR:   0.000 FEB:  -9.823
USER: RMSD 2.458689
USER: SEED 21
USER: STATUS no improvement in best in 6 clusters for 5 generations
USER: GENES 19
USER: genes 0 Translation |==|  0.47374 0.52423 0.53816
USER: genes 1 Rotation |==|  0.34358 0.61119 0.41760 0.95429
USER: genes 2 Torsion [C]-CA--CB-[CG] |==|  0.36418
USER: genes 3 Torsion [CA]-CB--CG-[CD] |==|  0.85224
USER: genes 4 Torsion [CB]-CG--CD-[NE] |==|  0.51432
USER: genes 5 Torsion [CG]-CD--NE-[CZ] |==|  0.25737
USER: genes 6 Torsion [N]-CA--C-[N] |==|  0.30021
USER: genes 7 Torsion [N]-CA--C-[O] |==|  0.85352
USER: genes 8 Torsion [C]-N--CA-[C] |==|  0.81470
USER: genes 9 Torsion [N]-CA--C-[N] |==|  0.37740
USER: genes 10 Torsion [N]-CA--C-[O] |==|  0.95151
USER: genes 11 Torsion [CB]-CA--N-[C] |==|  0.26387
USER: genes 12 Torsion [N]-C--CA-[N] |==|  0.93889
USER: genes 13 Torsion [C]-CA--CB-[OG1] |==|  0.81636
USER: genes 14 Torsion [CA]-CB--OG1-[HG1] |==|  0.20047
USER: genes 15 Torsion [C]-CA--N-[C] |==|  0.70560
USER: genes 16 Torsion [N]-C--CA-[N] |==|  0.22036
USER: genes 17 Torsion [C]-CA--CB-[CG] |==|  0.78943
USER: genes 18 Torsion [CA]-CB--CG-[OD1] |==|  0.98787
ROOT
ATOM      1  CA  ARG E   5     101.709 125.883   8.034  1.00 34.60 LIG 0.18  C 
ENDROOT
BRANCH 1 2
ATOM      2  CB  ARG E   5     100.748 125.489   9.145  1.00 32.17 LIG 0.04  C 
BRANCH 2 3
ATOM      3  CG  ARG E   5     100.622 123.995   9.267  1.00 30.87 LIG 0.02  C 
BRANCH 3 4
ATOM      4  CD  ARG E   5     100.269 123.378   7.951  1.00 28.77 LIG 0.14  C 
BRANCH 4 5
ATOM      5  NE  ARG E   5     100.029 121.947   8.099  1.00 27.14 LIG-0.23  N 
ATOM      6  CZ  ARG E   5      98.834 121.415   8.317  1.00 27.11 LIG 0.67  C 
ATOM      7  NH2 ARG E   5      98.705 120.099   8.443  1.00 28.81 LIG-0.23  N 
ATOM      8  NH1 ARG E   5      97.771 122.203   8.411  1.00 26.86 LIG-0.23  N 
ATOM      9 2HH2 ARG E   5      97.930 119.754   8.585  1.00 28.81 LIG 0.17  HD
ATOM     10 1HH2 ARG E   5      99.397 119.591   8.384  1.00 28.81 LIG 0.17  HD
ATOM     11 2HH1 ARG E   5      96.994 121.862   8.551  1.00 26.86 LIG 0.17  HD
ATOM     12 1HH1 ARG E   5      97.859 123.055   8.331  1.00 26.86 LIG 0.17  HD
ATOM     13 HE   ARG E   5     100.703 121.416   8.042  1.00 27.14 LIG 0.18  HD
ENDBRANCH 4 5
ENDBRANCH 3 4
ENDBRANCH 2 3
ENDBRANCH 1 2
BRANCH 1 14
ATOM     14  C   ARG E   5     101.068 126.941   7.139  1.00 36.20 LIG 0.24  C 
ATOM     15 O    ARG E   5     100.554 127.946   7.649  1.00 36.29 LIG-0.27  OA
ATOM     16  N   PRO E   6     101.070 126.760   5.820  1.00 37.19 LIG-0.34  N 
ATOM     17  CA  PRO E   6     100.466 127.771   4.949  1.00 38.47 LIG 0.18  C 
ATOM     18  CD  PRO E   6     101.644 125.660   5.031  1.00 36.10 LIG 0.13  C 
ATOM     19  CB  PRO E   6     100.831 127.288   3.539  1.00 37.25 LIG 0.04  C 
ATOM     20  CG  PRO E   6     101.954 126.329   3.734  1.00 36.76 LIG 0.02  C 
BRANCH 17 21
ATOM     21  C   PRO E   6      98.961 127.842   5.119  1.00 38.85 LIG 0.24  C 
ATOM     22 O    PRO E   6      98.246 126.840   5.029  1.00 38.06 LIG-0.27  OA
ATOM     23  N   ALA E   7      98.484 129.051   5.375  1.00 39.96 LIG-0.35  N 
ATOM     24 H    ALA E   7      98.966 129.750   5.508  1.00 39.96 LIG 0.16  HD
BRANCH 23 25
ATOM     25  CA  ALA E   7      97.056 129.266   5.446  1.00 39.26 LIG 0.17  C 
ATOM     26  CB  ALA E   7      96.752 130.673   5.949  1.00 41.08 LIG 0.04  C 
BRANCH 25 27
ATOM     27  C   ALA E   7      96.454 129.051   4.059  1.00 37.69 LIG 0.24  C 
ATOM     28 O    ALA E   7      97.007 129.512   3.058  1.00 38.21 LIG-0.27  OA
ATOM     29  N   PRO E   8      95.322 128.338   3.967  1.00 36.84 LIG-0.34  N 
ATOM     30  CD  PRO E   8      94.582 127.660   5.044  1.00 36.57 LIG 0.13  C 
ATOM     31  CA  PRO E   8      94.696 128.102   2.663  1.00 36.95 LIG 0.17  C 
ATOM     32  CG  PRO E   8      93.270 127.337   4.395  1.00 36.01 LIG 0.02  C 
ATOM     33  CB  PRO E   8      93.647 127.038   2.985  1.00 35.51 LIG 0.04  C 
BRANCH 31 34
ATOM     34  C   PRO E   8      94.053 129.347   2.067  1.00 39.03 LIG 0.22  C 
ATOM     35 O    PRO E   8      93.808 130.313   2.790  1.00 41.16 LIG-0.29  OA
ENDBRANCH 31 34
ENDBRANCH 25 27
ENDBRANCH 23 25
ENDBRANCH 17 21
ENDBRANCH 1 14
BRANCH 1 36
ATOM     36  N   ARG E   5     102.948 126.404   8.571  1.00 35.03 LIG-0.35  N 
ATOM     37 H    ARG E   5     102.938 127.242   8.764  1.00 35.03 LIG 0.16  HD
ATOM     38  C   THR E   4     103.988 125.607   8.732  1.00 36.29 LIG 0.24  C 
ATOM     39 O    THR E   4     103.974 124.413   8.419  1.00 35.32 LIG-0.27  OA
BRANCH 38 40
ATOM     40  CA  THR E   4     105.220 126.262   9.339  1.00 38.81 LIG 0.20  C 
BRANCH 40 41
ATOM     41  CB  THR E   4     105.308 125.931  10.823  1.00 37.77 LIG 0.15  C 
ATOM     42  CG2 THR E   4     106.611 126.440  11.381  1.00 32.08 LIG 0.04  C 
BRANCH 41 43
ATOM     43 OG1  THR E   4     104.211 126.538  11.515  1.00 38.27 LIG-0.39  OA
ATOM     44 HG1  THR E   4     103.501 126.131  11.327  1.00 38.27 LIG 0.21  HD
ENDBRANCH 41 43
ENDBRANCH 40 41
BRANCH 40 45
ATOM     45  N   THR E   4     105.174 127.700   9.140  1.00 43.44 LIG-0.34  N 
ATOM     46  C   ASP E   3     105.947 128.311   8.250  1.00 43.86 LIG 0.26  C 
ATOM     47 O    ASP E   3     106.879 127.749   7.666  1.00 40.64 LIG-0.27  OA
ATOM     48 H    THR E   4     104.609 128.108   9.644  1.00 43.44 LIG 0.16  HD
BRANCH 46 49
ATOM     49  CA  ASP E   3     105.634 129.786   8.015  1.00 46.95 LIG 0.41  C 
ATOM     50  N   ASP E   3     106.184 130.635   9.065  1.00 48.81 LIG 0.61  N 
BRANCH 49 51
ATOM     51  CB  ASP E   3     106.145 130.219   6.644  1.00 49.65 LIG 0.16  C 
BRANCH 51 52
ATOM     52  CG  ASP E   3     107.648 130.411   6.605  1.00 52.58 LIG 0.17  C 
ATOM     53 OD1  ASP E   3     108.296 130.288   7.668  1.00 53.20 LIG-0.65  OA
ATOM     54 OD2  ASP E   3     108.172 130.674   5.495  1.00 53.89 LIG-0.65  OA
ENDBRANCH 51 52
ENDBRANCH 49 51
ENDBRANCH 46 49
ENDBRANCH 40 45
ENDBRANCH 38 40
ENDBRANCH 1 36
TORSDOF 17
ENDMDL
MODEL 5
USER: ADFR SOLUTION from run 45
USER: SCORE 17.632648 LL:  -4.245 LR: -14.698 RR:   0.000 FEB:  -9.627
USER: RMSD 2.458516
USER: SEED 44
USER: STATUS no improvement in best in 1 clusters for 5 generations
USER: GENES 19
USER: genes 0 Translation |==|  0.48178 0.49994 0.52892
USER: genes 1 Rotation |==|  0.48062 0.46885 0.54589 0.99654
USER: genes 2 Torsion [C]-CA--CB-[CG] |==|  0.21809
USER: genes 3 Torsion [CA]-CB--CG-[CD] |==|  0.60199
USER: genes 4 Torsion [CB]-CG--CD-[NE] |==|  0.79186
USER: genes 5 Torsion [CG]-CD--NE-[CZ] |==|  0.35036
USER: genes 6 Torsion [N]-CA--C-[N] |==|  0.36635
USER: genes 7 Torsion [N]-CA--C-[O] |==|  0.96300
USER: genes 8 Torsion [C]-N--CA-[C] |==|  0.78423
USER: genes 9 Torsion [N]-CA--C-[N] |==|  0.87279
USER: genes 10 Torsion [N]-CA--C-[O] |==|  0.06877
USER: genes 11 Torsion [CB]-CA--N-[C] |==|  0.47146
USER: genes 12 Torsion [N]-C--CA-[N] |==|  0.36294
USER: genes 13 Torsion [C]-CA--CB-[OG1] |==|  0.46767
USER: genes 14 Torsion [CA]-CB--OG1-[HG1] |==|  0.19056
USER: genes 15 Torsion [C]-CA--N-[C] |==|  0.81068
USER: genes 16 Torsion [N]-C--CA-[N] |==|  0.51054
USER: genes 17 Torsion [C]-CA--CB-[CG] |==|  0.67532
USER: genes 18 Torsion [CA]-CB--CG-[OD1] |==|  0.17505
ROOT
ATOM      1  CA  ARG E   5     101.920 125.409   7.854  1.00 34.60 LIG 0.18  C 
ENDROOT
BRANCH 1 2
ATOM      2  CB  ARG E   5     101.162 124.094   7.944  1.00 32.17 LIG 0.04  C 
BRANCH 2 3
ATOM      3  CG  ARG E   5     101.118 123.387   6.617  1.00 30.87 LIG 0.02  C 
BRANCH 3 4
ATOM      4  CD  ARG E   5      99.804 122.699   6.419  1.00 28.77 LIG 0.14  C 
BRANCH 4 5
ATOM      5  NE  ARG E   5      99.727 121.490   7.232  1.00 27.14 LIG-0.23  N 
ATOM      6  CZ  ARG E   5      98.745 121.232   8.084  1.00 27.11 LIG 0.67  C 
ATOM      7  NH2 ARG E   5      98.754 120.106   8.789  1.00 28.81 LIG-0.23  N 
ATOM      8  NH1 ARG E   5      97.757 122.104   8.232  1.00 26.86 LIG-0.23  N 
ATOM      9 2HH2 ARG E   5      98.117 119.939   9.342  1.00 28.81 LIG 0.17  HD
ATOM     10 1HH2 ARG E   5      99.398 119.544   8.693  1.00 28.81 LIG 0.17  HD
ATOM     11 2HH1 ARG E   5      97.118 121.941   8.784  1.00 26.86 LIG 0.17  HD
ATOM     12 1HH1 ARG E   5      97.755 122.834   7.777  1.00 26.86 LIG 0.17  HD
ATOM     13 HE   ARG E   5     100.357 120.909   7.153  1.00 27.14 LIG 0.18  HD
ENDBRANCH 4 5
ENDBRANCH 3 4
ENDBRANCH 2 3
ENDBRANCH 1 2
BRANCH 1 14
ATOM     14  C   ARG E   5     101.033 126.483   7.229  1.00 36.20 LIG 0.24  C 
ATOM     15 O    ARG E   5     100.111 126.979   7.891  1.00 36.29 LIG-0.27  OA
ATOM     16  N   PRO E   6     101.264 126.864   5.974  1.00 37.19 LIG-0.34  N 
ATOM     17  CA  PRO E   6     100.426 127.898   5.364  1.00 38.47 LIG 0.18  C 
ATOM     18  CD  PRO E   6     102.311 126.417   5.043  1.00 36.10 LIG 0.13  C 
ATOM     19  CB  PRO E   6     101.118 128.169   4.022  1.00 37.25 LIG 0.04  C 
ATOM     20  CG  PRO E   6     102.492 127.615   4.172  1.00 36.76 LIG 0.02  C 
BRANCH 17 21
ATOM     21  C   PRO E   6      99.003 127.423   5.148  1.00 38.85 LIG 0.24  C 
ATOM     22 O    PRO E   6      98.692 126.232   5.235  1.00 38.06 LIG-0.27  OA
ATOM     23  N   ALA E   7      98.131 128.380   4.869  1.00 39.96 LIG-0.35  N 
ATOM     24 H    ALA E   7      98.309 129.221   4.869  1.00 39.96 LIG 0.16  HD
BRANCH 23 25
ATOM     25  CA  ALA E   7      96.766 128.040   4.533  1.00 39.26 LIG 0.17  C 
ATOM     26  CB  ALA E   7      95.854 129.249   4.717  1.00 41.08 LIG 0.04  C 
BRANCH 25 27
ATOM     27  C   ALA E   7      96.721 127.550   3.087  1.00 37.69 LIG 0.24  C 
ATOM     28 O    ALA E   7      96.079 126.540   2.789  1.00 38.21 LIG-0.27  OA
ATOM     29  N   PRO E   8      97.384 128.256   2.161  1.00 36.84 LIG-0.34  N 
ATOM     30  CD  PRO E   8      98.128 129.514   2.335  1.00 36.57 LIG 0.13  C 
ATOM     31  CA  PRO E   8      97.380 127.832   0.758  1.00 36.95 LIG 0.17  C 
ATOM     32  CG  PRO E   8      98.904 129.623   1.057  1.00 36.01 LIG 0.02  C 
ATOM     33  CB  PRO E   8      97.980 129.041   0.042  1.00 35.51 LIG 0.04  C 
BRANCH 31 34
ATOM     34  C   PRO E   8      98.204 126.576   0.504  1.00 39.03 LIG 0.22  C 
ATOM     35 O    PRO E   8      98.403 125.781   1.422  1.00 41.16 LIG-0.29  OA
ENDBRANCH 31 34
ENDBRANCH 25 27
ENDBRANCH 23 25
ENDBRANCH 17 21
ENDBRANCH 1 14
BRANCH 1 36
ATOM     36  N   ARG E   5     102.354 125.855   9.160  1.00 35.03 LIG-0.35  N 
ATOM     37 H    ARG E   5     102.023 125.419   9.824  1.00 35.03 LIG 0.16  HD
ATOM     38  C   THR E   4     103.197 126.865   9.270  1.00 36.29 LIG 0.24  C 
ATOM     39 O    THR E   4     103.632 127.486   8.295  1.00 35.32 LIG-0.27  OA
BRANCH 38 40
ATOM     40  CA  THR E   4     103.608 127.217  10.693  1.00 38.81 LIG 0.20  C 
BRANCH 40 41
ATOM     41  CB  THR E   4     102.941 128.517  11.121  1.00 37.77 LIG 0.15  C 
ATOM     42  CG2 THR E   4     101.475 128.472  10.780  1.00 32.08 LIG 0.04  C 
BRANCH 41 43
ATOM     43 OG1  THR E   4     103.109 128.700  12.531  1.00 38.27 LIG-0.39  OA
ATOM     44 HG1  THR E   4     103.918 128.850  12.700  1.00 38.27 LIG 0.21  HD
ENDBRANCH 41 43
ENDBRANCH 40 41
BRANCH 40 45
ATOM     45  N   THR E   4     105.052 127.330  10.786  1.00 43.44 LIG-0.34  N 
ATOM     46  C   ASP E   3     105.849 126.276  10.656  1.00 43.86 LIG 0.26  C 
ATOM     47 O    ASP E   3     105.433 125.114  10.633  1.00 40.64 LIG-0.27  OA
ATOM     48 H    THR E   4     105.336 128.129  10.931  1.00 43.44 LIG 0.16  HD
BRANCH 46 49
ATOM     49  CA  ASP E   3     107.340 126.591  10.571  1.00 46.95 LIG 0.41  C 
ATOM     50  N   ASP E   3     108.139 125.392  10.340  1.00 48.81 LIG 0.61  N 
BRANCH 49 51
ATOM     51  CB  ASP E   3     107.597 127.630   9.483  1.00 49.65 LIG 0.16  C 
BRANCH 51 52
ATOM     52  CG  ASP E   3     108.458 127.105   8.352  1.00 52.58 LIG 0.17  C 
ATOM     53 OD1  ASP E   3     108.025 126.158   7.659  1.00 53.20 LIG-0.65  OA
ATOM     54 OD2  ASP E   3     109.567 127.660   8.159  1.00 53.89 LIG-0.65  OA
ENDBRANCH 51 52
ENDBRANCH 49 51
ENDBRANCH 46 49
ENDBRANCH 40 45
ENDBRANCH 38 40
ENDBRANCH 1 36
TORSDOF 17
ENDMDL
MODEL 6
USER: ADFR SOLUTION from run 43
USER: SCORE 16.035752 LL:  -3.853 LR: -14.502 RR:   0.000 FEB:  -9.431
USER: RMSD 3.507417
USER: SEED 42
USER: STATUS no improvement in best in 11 clusters for 5 generations
USER: GENES 19
USER: genes 0 Translation |==|  0.40296 0.57347 0.45067
USER: genes 1 Rotation |==|  0.64005 0.50914 0.68012 0.94481
USER: genes 2 Torsion [C]-CA--CB-[CG] |==|  0.73110
USER: genes 3 Torsion [CA]-CB--CG-[CD] |==|  0.43593
USER: genes 4 Torsion [CB]-CG--CD-[NE] |==|  0.48722
USER: genes 5 Torsion [CG]-CD--NE-[CZ] |==|  0.27011
USER: genes 6 Torsion [N]-CA--C-[N] |==|  0.28333
USER: genes 7 Torsion [N]-CA--C-[O] |==|  0.31134
USER: genes 8 Torsion [C]-N--CA-[C] |==|  0.54143
USER: genes 9 Torsion [N]-CA--C-[N] |==|  0.21302
USER: genes 10 Torsion [N]-CA--C-[O] |==|  0.67964
USER: genes 11 Torsion [CB]-CA--N-[C] |==|  0.25192
USER: genes 12 Torsion [N]-C--CA-[N] |==|  0.53157
USER: genes 13 Torsion [C]-CA--CB-[OG1] |==|  0.19299
USER: genes 14 Torsion [CA]-CB--OG1-[HG1] |==|  0.16130
USER: genes 15 Torsion [C]-CA--N-[C] |==|  0.63771
USER: genes 16 Torsion [N]-C--CA-[N] |==|  0.39605
USER: genes 17 Torsion [C]-CA--CB-[CG] |==|  0.58735
USER: genes 18 Torsion [CA]-CB--CG-[OD1] |==|  0.74418
ROOT
ATOM      1  CA  ARG E   5      99.851 126.843   6.328  1.00 34.60 LIG 0.18  C 
ENDROOT
BRANCH 1 2
ATOM      2  CB  ARG E   5      99.886 125.480   5.655  1.00 32.17 LIG 0.04  C 
BRANCH 2 3
ATOM      3  CG  ARG E   5     100.002 124.367   6.660  1.00 30.87 LIG 0.02  C 
BRANCH 3 4
ATOM      4  CD  ARG E   5      99.490 123.079   6.095  1.00 28.77 LIG 0.14  C 
BRANCH 4 5
ATOM      5  NE  ARG E   5      99.704 121.983   7.032  1.00 27.14 LIG-0.23  N 
ATOM      6  CZ  ARG E   5      98.778 121.530   7.866  1.00 27.11 LIG 0.67  C 
ATOM      7  NH2 ARG E   5      99.058 120.527   8.691  1.00 28.81 LIG-0.23  N 
ATOM      8  NH1 ARG E   5      97.573 122.084   7.874  1.00 26.86 LIG-0.23  N 
ATOM      9 2HH2 ARG E   5      98.457 120.234   9.232  1.00 28.81 LIG 0.17  HD
ATOM     10 1HH2 ARG E   5      99.841 120.172   8.685  1.00 28.81 LIG 0.17  HD
ATOM     11 2HH1 ARG E   5      96.969 121.794   8.413  1.00 26.86 LIG 0.17  HD
ATOM     12 1HH1 ARG E   5      97.395 122.736   7.341  1.00 26.86 LIG 0.17  HD
ATOM     13 HE   ARG E   5     100.477 121.608   7.046  1.00 27.14 LIG 0.18  HD
ENDBRANCH 4 5
ENDBRANCH 3 4
ENDBRANCH 2 3
ENDBRANCH 1 2
BRANCH 1 14
ATOM     14  C   ARG E   5      98.407 127.311   6.487  1.00 36.20 LIG 0.24  C 
ATOM     15 O    ARG E   5      97.544 126.515   6.885  1.00 36.29 LIG-0.27  OA
ATOM     16  N   PRO E   6      98.097 128.571   6.187  1.00 37.19 LIG-0.34  N 
ATOM     17  CA  PRO E   6      96.717 129.035   6.342  1.00 38.47 LIG 0.18  C 
ATOM     18  CD  PRO E   6      98.972 129.661   5.728  1.00 36.10 LIG 0.13  C 
ATOM     19  CB  PRO E   6      96.819 130.543   6.078  1.00 37.25 LIG 0.04  C 
ATOM     20  CG  PRO E   6      98.264 130.870   6.238  1.00 36.76 LIG 0.02  C 
BRANCH 17 21
ATOM     21  C   PRO E   6      95.781 128.379   5.346  1.00 38.85 LIG 0.24  C 
ATOM     22 O    PRO E   6      94.906 127.584   5.699  1.00 38.06 LIG-0.27  OA
ATOM     23  N   ALA E   7      95.973 128.730   4.083  1.00 39.96 LIG-0.35  N 
ATOM     24 H    ALA E   7      96.529 129.330   3.820  1.00 39.96 LIG 0.16  HD
BRANCH 23 25
ATOM     25  CA  ALA E   7      95.217 128.089   3.031  1.00 39.26 LIG 0.17  C 
ATOM     26  CB  ALA E   7      93.772 128.576   3.038  1.00 41.08 LIG 0.04  C 
BRANCH 25 27
ATOM     27  C   ALA E   7      95.880 128.396   1.689  1.00 37.69 LIG 0.24  C 
ATOM     28 O    ALA E   7      95.401 129.246   0.935  1.00 38.21 LIG-0.27  OA
ATOM     29  N   PRO E   8      96.997 127.726   1.369  1.00 36.84 LIG-0.34  N 
ATOM     30  CD  PRO E   8      97.733 126.744   2.181  1.00 36.57 LIG 0.13  C 
ATOM     31  CA  PRO E   8      97.674 127.975   0.094  1.00 36.95 LIG 0.17  C 
ATOM     32  CG  PRO E   8      98.663 126.118   1.186  1.00 36.01 LIG 0.02  C 
ATOM     33  CB  PRO E   8      99.006 127.248   0.277  1.00 35.51 LIG 0.04  C 
BRANCH 31 34
ATOM     34  C   PRO E   8      96.912 127.437  -1.110  1.00 39.03 LIG 0.22  C 
ATOM     35 O    PRO E   8      97.402 126.533  -1.787  1.00 41.16 LIG-0.29  OA
ENDBRANCH 31 34
ENDBRANCH 25 27
ENDBRANCH 23 25
ENDBRANCH 17 21
ENDBRANCH 1 14
BRANCH 1 36
ATOM     36  N   ARG E   5     100.480 126.801   7.631  1.00 35.03 LIG-0.35  N 
ATOM     37 H    ARG E   5      99.956 126.603   8.283  1.00 35.03 LIG 0.16  HD
ATOM     38  C   THR E   4     101.770 127.057   7.753  1.00 36.29 LIG 0.24  C 
ATOM     39 O    THR E   4     102.487 127.363   6.796  1.00 35.32 LIG-0.27  OA
BRANCH 38 40
ATOM     40  CA  THR E   4     102.323 126.945   9.166  1.00 38.81 LIG 0.20  C 
BRANCH 40 41
ATOM     41  CB  THR E   4     101.403 127.663  10.144  1.00 37.77 LIG 0.15  C 
ATOM     42  CG2 THR E   4     101.128 129.060   9.650  1.00 32.08 LIG 0.04  C 
BRANCH 41 43
ATOM     43 OG1  THR E   4     100.174 126.939  10.265  1.00 38.27 LIG-0.39  OA
ATOM     44 HG1  THR E   4     100.334 126.155  10.522  1.00 38.27 LIG 0.21  HD
ENDBRANCH 41 43
ENDBRANCH 40 41
BRANCH 40 45
ATOM     45  N   THR E   4     103.663 127.500   9.227  1.00 43.44 LIG-0.34  N 
ATOM     46  C   ASP E   3     104.674 126.839   9.779  1.00 43.86 LIG 0.26  C 
ATOM     47 O    ASP E   3     104.524 125.805  10.437  1.00 40.64 LIG-0.27  OA
ATOM     48 H    THR E   4     103.738 128.283   8.878  1.00 43.44 LIG 0.16  HD
BRANCH 46 49
ATOM     49  CA  ASP E   3     106.052 127.463   9.578  1.00 46.95 LIG 0.41  C 
ATOM     50  N   ASP E   3     106.894 127.318  10.761  1.00 48.81 LIG 0.61  N 
BRANCH 49 51
ATOM     51  CB  ASP E   3     106.729 126.858   8.352  1.00 49.65 LIG 0.16  C 
BRANCH 51 52
ATOM     52  CG  ASP E   3     108.238 126.797   8.478  1.00 52.58 LIG 0.17  C 
ATOM     53 OD1  ASP E   3     108.916 127.754   8.042  1.00 53.20 LIG-0.65  OA
ATOM     54 OD2  ASP E   3     108.736 125.785   9.030  1.00 53.89 LIG-0.65  OA
ENDBRANCH 51 52
ENDBRANCH 49 51
ENDBRANCH 46 49
ENDBRANCH 40 45
ENDBRANCH 38 40
ENDBRANCH 1 36
TORSDOF 17
ENDMDL
MODEL 7
USER: ADFR SOLUTION from run 87
USER: SCORE 17.650147 LL:  -4.270 LR: -14.388 RR:   0.000 FEB:  -9.317
USER: RMSD 4.234645
USER: SEED 86
USER: STATUS no improvement in best in 2 clusters for 5 generations
USER: GENES 19
USER: genes 0 Translation |==|  0.48114 0.52522 0.53682
USER: genes 1 Rotation |==|  0.42647 0.45439 0.51951 0.99207
USER: genes 2 Torsion [C]-CA--CB-[CG] |==|  0.26183
USER: genes 3 Torsion [CA]-CB--CG-[CD] |==|  0.61454
USER: genes 4 Torsion [CB]-CG--CD-[NE] |==|  0.69693
USER: genes 5 Torsion [CG]-CD--NE-[CZ] |==|  0.34793
USER: genes 6 Torsion [N]-CA--C-[N] |==|  0.42844
USER: genes 7 Torsion [N]-CA--C-[O] |==|  0.83892
USER: genes 8 Torsion [C]-N--CA-[C] |==|  0.81570
USER: genes 9 Torsion [N]-CA--C-[N] |==|  0.40206
USER: genes 10 Torsion [N]-CA--C-[O] |==|  0.93071
USER: genes 11 Torsion [CB]-CA--N-[C] |==|  0.47778
USER: genes 12 Torsion [N]-C--CA-[N] |==|  0.87922
USER: genes 13 Torsion [C]-CA--CB-[OG1] |==|  0.92131
USER: genes 14 Torsion [CA]-CB--OG1-[HG1] |==|  0.85344
USER: genes 15 Torsion [C]-CA--N-[C] |==|  0.76753
USER: genes 16 Torsion [N]-C--CA-[N] |==|  0.56514
USER: genes 17 Torsion [C]-CA--CB-[CG] |==|  0.78543
USER: genes 18 Torsion [CA]-CB--CG-[OD1] |==|  0.36646
ROOT
ATOM      1  CA  ARG E   5     101.903 125.902   8.008  1.00 34.60 LIG 0.18  C 
ENDROOT
BRANCH 1 2
ATOM      2  CB  ARG E   5     100.986 124.721   8.285  1.00 32.17 LIG 0.04  C 
BRANCH 2 3
ATOM      3  CG  ARG E   5     101.229 123.591   7.322  1.00 30.87 LIG 0.02  C 
BRANCH 3 4
ATOM      4  CD  ARG E   5      99.940 122.977   6.878  1.00 28.77 LIG 0.14  C 
BRANCH 4 5
ATOM      5  NE  ARG E   5      99.774 121.649   7.456  1.00 27.14 LIG-0.23  N 
ATOM      6  CZ  ARG E   5      98.717 121.274   8.162  1.00 27.11 LIG 0.67  C 
ATOM      7  NH2 ARG E   5      98.648 120.043   8.656  1.00 28.81 LIG-0.23  N 
ATOM      8  NH1 ARG E   5      97.731 122.135   8.376  1.00 26.86 LIG-0.23  N 
ATOM      9 2HH2 ARG E   5      97.962 119.801   9.115  1.00 28.81 LIG 0.17  HD
ATOM     10 1HH2 ARG E   5      99.290 119.488   8.518  1.00 28.81 LIG 0.17  HD
ATOM     11 2HH1 ARG E   5      97.043 121.897   8.834  1.00 26.86 LIG 0.17  HD
ATOM     12 1HH1 ARG E   5      97.779 122.933   8.058  1.00 26.86 LIG 0.17  HD
ATOM     13 HE   ARG E   5     100.400 121.073   7.331  1.00 27.14 LIG 0.18  HD
ENDBRANCH 4 5
ENDBRANCH 3 4
ENDBRANCH 2 3
ENDBRANCH 1 2
BRANCH 1 14
ATOM     14  C   ARG E   5     101.200 126.910   7.103  1.00 36.20 LIG 0.24  C 
ATOM     15 O    ARG E   5     100.625 127.887   7.603  1.00 36.29 LIG-0.27  OA
ATOM     16  N   PRO E   6     101.212 126.716   5.785  1.00 37.19 LIG-0.34  N 
ATOM     17  CA  PRO E   6     100.548 127.679   4.905  1.00 38.47 LIG 0.18  C 
ATOM     18  CD  PRO E   6     101.852 125.644   5.007  1.00 36.10 LIG 0.13  C 
ATOM     19  CB  PRO E   6     100.942 127.205   3.500  1.00 37.25 LIG 0.04  C 
ATOM     20  CG  PRO E   6     102.121 126.317   3.704  1.00 36.76 LIG 0.02  C 
BRANCH 17 21
ATOM     21  C   PRO E   6      99.041 127.662   5.075  1.00 38.85 LIG 0.24  C 
ATOM     22 O    PRO E   6      98.378 126.636   4.902  1.00 38.06 LIG-0.27  OA
ATOM     23  N   ALA E   7      98.505 128.821   5.426  1.00 39.96 LIG-0.35  N 
ATOM     24 H    ALA E   7      98.952 129.530   5.616  1.00 39.96 LIG 0.16  HD
BRANCH 23 25
ATOM     25  CA  ALA E   7      97.068 128.957   5.510  1.00 39.26 LIG 0.17  C 
ATOM     26  CB  ALA E   7      96.694 130.306   6.115  1.00 41.08 LIG 0.04  C 
BRANCH 25 27
ATOM     27  C   ALA E   7      96.476 128.816   4.109  1.00 37.69 LIG 0.24  C 
ATOM     28 O    ALA E   7      97.087 129.238   3.125  1.00 38.21 LIG-0.27  OA
ATOM     29  N   PRO E   8      95.286 128.210   3.986  1.00 36.84 LIG-0.34  N 
ATOM     30  CD  PRO E   8      94.467 127.588   5.039  1.00 36.57 LIG 0.13  C 
ATOM     31  CA  PRO E   8      94.666 128.049   2.668  1.00 36.95 LIG 0.17  C 
ATOM     32  CG  PRO E   8      93.143 127.394   4.362  1.00 36.01 LIG 0.02  C 
ATOM     33  CB  PRO E   8      93.519 127.081   2.955  1.00 35.51 LIG 0.04  C 
BRANCH 31 34
ATOM     34  C   PRO E   8      94.150 129.356   2.079  1.00 39.03 LIG 0.22  C 
ATOM     35 O    PRO E   8      93.849 130.285   2.827  1.00 41.16 LIG-0.29  OA
ENDBRANCH 31 34
ENDBRANCH 25 27
ENDBRANCH 23 25
ENDBRANCH 17 21
ENDBRANCH 1 14
BRANCH 1 36
ATOM     36  N   ARG E   5     102.295 126.561   9.235  1.00 35.03 LIG-0.35  N 
ATOM     37 H    ARG E   5     101.890 126.287   9.942  1.00 35.03 LIG 0.16  HD
ATOM     38  C   THR E   4     103.214 127.509   9.215  1.00 36.29 LIG 0.24  C 
ATOM     39 O    THR E   4     103.757 127.895   8.176  1.00 35.32 LIG-0.27  OA
BRANCH 38 40
ATOM     40  CA  THR E   4     103.568 128.100  10.572  1.00 38.81 LIG 0.20  C 
BRANCH 40 41
ATOM     41  CB  THR E   4     104.506 127.161  11.319  1.00 37.77 LIG 0.15  C 
ATOM     42  CG2 THR E   4     104.273 127.285  12.802  1.00 32.08 LIG 0.04  C 
BRANCH 41 43
ATOM     43 OG1  THR E   4     104.269 125.813  10.899  1.00 38.27 LIG-0.39  OA
ATOM     44 HG1  THR E   4     103.451 125.636  10.974  1.00 38.27 LIG 0.21  HD
ENDBRANCH 41 43
ENDBRANCH 40 41
BRANCH 40 45
ATOM     45  N   THR E   4     102.363 128.338  11.346  1.00 43.44 LIG-0.34  N 
ATOM     46  C   ASP E   3     101.639 129.440  11.198  1.00 43.86 LIG 0.26  C 
ATOM     47 O    ASP E   3     102.020 130.415  10.543  1.00 40.64 LIG-0.27  OA
ATOM     48 H    THR E   4     102.168 127.708  11.899  1.00 43.44 LIG 0.16  HD
BRANCH 46 49
ATOM     49  CA  ASP E   3     100.298 129.446  11.927  1.00 46.95 LIG 0.41  C 
ATOM     50  N   ASP E   3      99.350 130.373  11.320  1.00 48.81 LIG 0.61  N 
BRANCH 49 51
ATOM     51  CB  ASP E   3      99.721 128.034  11.976  1.00 49.65 LIG 0.16  C 
BRANCH 51 52
ATOM     52  CG  ASP E   3      99.101 127.601  10.663  1.00 52.58 LIG 0.17  C 
ATOM     53 OD1  ASP E   3      99.401 126.479  10.200  1.00 53.20 LIG-0.65  OA
ATOM     54 OD2  ASP E   3      98.300 128.393  10.108  1.00 53.89 LIG-0.65  OA
ENDBRANCH 51 52
ENDBRANCH 49 51
ENDBRANCH 46 49
ENDBRANCH 40 45
ENDBRANCH 38 40
ENDBRANCH 1 36
TORSDOF 17
ENDMDL
MODEL 8
USER: ADFR SOLUTION from run 199
USER: SCORE 17.312503 LL:  -3.965 LR: -14.281 RR:   0.000 FEB:  -9.210
USER: RMSD 3.556479
USER: SEED 198
USER: STATUS no improvement in best in 3 clusters for 5 generations
USER: GENES 19
USER: genes 0 Translation |==|  0.46680 0.53696 0.56144
USER: genes 1 Rotation |==|  0.51915 0.69468 0.56663 0.95529
USER: genes 2 Torsion [C]-CA--CB-[CG] |==|  0.18261
USER: genes 3 Torsion [CA]-CB--CG-[CD] |==|  0.28557
USER: genes 4 Torsion [CB]-CG--CD-[NE] |==|  0.28733
USER: genes 5 Torsion [CG]-CD--NE-[CZ] |==|  0.18950
USER: genes 6 Torsion [N]-CA--C-[N] |==|  0.15000
USER: genes 7 Torsion [N]-CA--C-[O] |==|  0.31002
USER: genes 8 Torsion [C]-N--CA-[C] |==|  0.59019
USER: genes 9 Torsion [N]-CA--C-[N] |==|  0.14410
USER: genes 10 Torsion [N]-CA--C-[O] |==|  0.57914
USER: genes 11 Torsion [CB]-CA--N-[C] |==|  0.14517
USER: genes 12 Torsion [N]-C--CA-[N] |==|  0.90557
USER: genes 13 Torsion [C]-CA--CB-[OG1] |==|  0.83090
USER: genes 14 Torsion [CA]-CB--OG1-[HG1] |==|  0.15688
USER: genes 15 Torsion [C]-CA--N-[C] |==|  0.70177
USER: genes 16 Torsion [N]-C--CA-[N] |==|  0.22709
USER: genes 17 Torsion [C]-CA--CB-[CG] |==|  0.78991
USER: genes 18 Torsion [CA]-CB--CG-[OD1] |==|  0.46982
ROOT
ATOM      1  CA  ARG E   5     101.526 126.131   8.488  1.00 34.60 LIG 0.18  C 
ENDROOT
BRANCH 1 2
ATOM      2  CB  ARG E   5     101.202 124.751   9.039  1.00 32.17 LIG 0.04  C 
BRANCH 2 3
ATOM      3  CG  ARG E   5      99.939 124.197   8.439  1.00 30.87 LIG 0.02  C 
BRANCH 3 4
ATOM      4  CD  ARG E   5     100.246 123.172   7.394  1.00 28.77 LIG 0.14  C 
BRANCH 4 5
ATOM      5  NE  ARG E   5     100.020 121.826   7.907  1.00 27.14 LIG-0.23  N 
ATOM      6  CZ  ARG E   5      98.824 121.338   8.205  1.00 27.11 LIG 0.67  C 
ATOM      7  NH2 ARG E   5      98.708 120.100   8.673  1.00 28.81 LIG-0.23  N 
ATOM      8  NH1 ARG E   5      97.746 122.092   8.038  1.00 26.86 LIG-0.23  N 
ATOM      9 2HH2 ARG E   5      97.932 119.783   8.866  1.00 28.81 LIG 0.17  HD
ATOM     10 1HH2 ARG E   5      99.410 119.614   8.782  1.00 28.81 LIG 0.17  HD
ATOM     11 2HH1 ARG E   5      96.968 121.780   8.230  1.00 26.86 LIG 0.17  HD
ATOM     12 1HH1 ARG E   5      97.824 122.894   7.738  1.00 26.86 LIG 0.17  HD
ATOM     13 HE   ARG E   5     100.704 121.318   8.024  1.00 27.14 LIG 0.18  HD
ENDBRANCH 4 5
ENDBRANCH 3 4
ENDBRANCH 2 3
ENDBRANCH 1 2
BRANCH 1 14
ATOM     14  C   ARG E   5     100.459 127.132   8.923  1.00 36.20 LIG 0.24  C 
ATOM     15 O    ARG E   5      99.473 126.738   9.562  1.00 36.29 LIG-0.27  OA
ATOM     16  N   PRO E   6     100.605 128.416   8.600  1.00 37.19 LIG-0.34  N 
ATOM     17  CA  PRO E   6      99.593 129.388   9.018  1.00 38.47 LIG 0.18  C 
ATOM     18  CD  PRO E   6     101.702 129.075   7.876  1.00 36.10 LIG 0.13  C 
ATOM     19  CB  PRO E   6     100.210 130.735   8.621  1.00 37.25 LIG 0.04  C 
ATOM     20  CG  PRO E   6     101.662 130.458   8.432  1.00 36.76 LIG 0.02  C 
BRANCH 17 21
ATOM     21  C   PRO E   6      98.271 129.173   8.307  1.00 38.85 LIG 0.24  C 
ATOM     22 O    PRO E   6      97.266 128.778   8.904  1.00 38.06 LIG-0.27  OA
ATOM     23  N   ALA E   7      98.282 129.448   7.011  1.00 39.96 LIG-0.35  N 
ATOM     24 H    ALA E   7      98.949 129.787   6.588  1.00 39.96 LIG 0.16  HD
BRANCH 23 25
ATOM     25  CA  ALA E   7      97.113 129.178   6.204  1.00 39.26 LIG 0.17  C 
ATOM     26  CB  ALA E   7      96.199 130.398   6.162  1.00 41.08 LIG 0.04  C 
BRANCH 25 27
ATOM     27  C   ALA E   7      97.563 128.797   4.795  1.00 37.69 LIG 0.24  C 
ATOM     28 O    ALA E   7      97.102 129.379   3.811  1.00 38.21 LIG-0.27  OA
ATOM     29  N   PRO E   8      98.480 127.826   4.667  1.00 36.84 LIG-0.34  N 
ATOM     30  CD  PRO E   8      99.181 127.089   5.731  1.00 36.57 LIG 0.13  C 
ATOM     31  CA  PRO E   8      98.947 127.414   3.341  1.00 36.95 LIG 0.17  C 
ATOM     32  CG  PRO E   8      99.801 125.942   4.991  1.00 36.01 LIG 0.02  C 
ATOM     33  CB  PRO E   8     100.153 126.536   3.670  1.00 35.51 LIG 0.04  C 
BRANCH 31 34
ATOM     34  C   PRO E   8      97.903 126.642   2.544  1.00 39.03 LIG 0.22  C 
ATOM     35 O    PRO E   8      98.263 125.814   1.708  1.00 41.16 LIG-0.29  OA
ENDBRANCH 31 34
ENDBRANCH 25 27
ENDBRANCH 23 25
ENDBRANCH 17 21
ENDBRANCH 1 14
BRANCH 1 36
ATOM     36  N   ARG E   5     102.820 126.589   8.948  1.00 35.03 LIG-0.35  N 
ATOM     37 H    ARG E   5     102.823 127.369   9.310  1.00 35.03 LIG 0.16  HD
ATOM     38  C   THR E   4     103.886 125.825   8.796  1.00 36.29 LIG 0.24  C 
ATOM     39 O    THR E   4     103.849 124.721   8.246  1.00 35.32 LIG-0.27  OA
BRANCH 38 40
ATOM     40  CA  THR E   4     105.181 126.400   9.353  1.00 38.81 LIG 0.20  C 
BRANCH 40 41
ATOM     41  CB  THR E   4     105.335 126.013  10.817  1.00 37.77 LIG 0.15  C 
ATOM     42  CG2 THR E   4     106.636 126.552  11.352  1.00 32.08 LIG 0.04  C 
BRANCH 41 43
ATOM     43 OG1  THR E   4     104.241 126.546  11.571  1.00 38.27 LIG-0.39  OA
ATOM     44 HG1  THR E   4     103.516 126.274  11.244  1.00 38.27 LIG 0.21  HD
ENDBRANCH 41 43
ENDBRANCH 40 41
BRANCH 40 45
ATOM     45  N   THR E   4     105.195 127.845   9.204  1.00 43.44 LIG-0.34  N 
ATOM     46  C   ASP E   3     105.966 128.452   8.310  1.00 43.86 LIG 0.26  C 
ATOM     47 O    ASP E   3     106.852 127.870   7.677  1.00 40.64 LIG-0.27  OA
ATOM     48 H    THR E   4     104.665 128.260   9.740  1.00 43.44 LIG 0.16  HD
BRANCH 46 49
ATOM     49  CA  ASP E   3     105.713 129.946   8.136  1.00 46.95 LIG 0.41  C 
ATOM     50  N   ASP E   3     106.382 130.738   9.163  1.00 48.81 LIG 0.61  N 
BRANCH 49 51
ATOM     51  CB  ASP E   3     106.144 130.393   6.741  1.00 49.65 LIG 0.16  C 
BRANCH 51 52
ATOM     52  CG  ASP E   3     107.648 130.507   6.594  1.00 52.58 LIG 0.17  C 
ATOM     53 OD1  ASP E   3     108.129 130.663   5.450  1.00 53.20 LIG-0.65  OA
ATOM     54 OD2  ASP E   3     108.341 130.451   7.639  1.00 53.89 LIG-0.65  OA
ENDBRANCH 51 52
ENDBRANCH 49 51
ENDBRANCH 46 49
ENDBRANCH 40 45
ENDBRANCH 38 40
ENDBRANCH 1 36
TORSDOF 17
ENDMDL
MODEL 9
USER: ADFR SOLUTION from run 70
USER: SCORE 15.654345 LL:  -3.498 LR: -14.128 RR:   0.000 FEB:  -9.057
USER: RMSD 3.569280
USER: SEED 69
USER: STATUS no improvement in best in 10 clusters for 5 generations
USER: GENES 19
USER: genes 0 Translation |==|  0.46080 0.55874 0.45962
USER: genes 1 Rotation |==|  0.32471 0.67936 0.64601 0.90717
USER: genes 2 Torsion [C]-CA--CB-[CG] |==|  0.09547
USER: genes 3 Torsion [CA]-CB--CG-[CD] |==|  0.17973
USER: genes 4 Torsion [CB]-CG--CD-[NE] |==|  0.38401
USER: genes 5 Torsion [CG]-CD--NE-[CZ] |==|  0.23892
USER: genes 6 Torsion [N]-CA--C-[N] |==|  0.84460
USER: genes 7 Torsion [N]-CA--C-[O] |==|  0.08251
USER: genes 8 Torsion [C]-N--CA-[C] |==|  0.15832
USER: genes 9 Torsion [N]-CA--C-[N] |==|  0.15233
USER: genes 10 Torsion [N]-CA--C-[O] |==|  0.37512
USER: genes 11 Torsion [CB]-CA--N-[C] |==|  0.35573
USER: genes 12 Torsion [N]-C--CA-[N] |==|  0.26828
USER: genes 13 Torsion [C]-CA--CB-[OG1] |==|  0.56529
USER: genes 14 Torsion [CA]-CB--OG1-[HG1] |==|  0.78146
USER: genes 15 Torsion [C]-CA--N-[C] |==|  0.72565
USER: genes 16 Torsion [N]-C--CA-[N] |==|  0.39254
USER: genes 17 Torsion [C]-CA--CB-[CG] |==|  0.44848
USER: genes 18 Torsion [CA]-CB--CG-[OD1] |==|  0.00491
ROOT
ATOM      1  CA  ARG E   5     101.369 126.555   6.503  1.00 34.60 LIG 0.18  C 
ENDROOT
BRANCH 1 2
ATOM      2  CB  ARG E   5     101.695 125.738   7.743  1.00 32.17 LIG 0.04  C 
BRANCH 2 3
ATOM      3  CG  ARG E   5     100.613 124.738   8.049  1.00 30.87 LIG 0.02  C 
BRANCH 3 4
ATOM      4  CD  ARG E   5     100.508 123.714   6.964  1.00 28.77 LIG 0.14  C 
BRANCH 4 5
ATOM      5  NE  ARG E   5     100.320 122.382   7.528  1.00 27.14 LIG-0.23  N 
ATOM      6  CZ  ARG E   5      99.139 121.876   7.857  1.00 27.11 LIG 0.67  C 
ATOM      7  NH2 ARG E   5      99.058 120.654   8.370  1.00 28.81 LIG-0.23  N 
ATOM      8  NH1 ARG E   5      98.042 122.599   7.676  1.00 26.86 LIG-0.23  N 
ATOM      9 2HH2 ARG E   5      98.292 120.326   8.584  1.00 28.81 LIG 0.17  HD
ATOM     10 1HH2 ARG E   5      99.772 120.189   8.488  1.00 28.81 LIG 0.17  HD
ATOM     11 2HH1 ARG E   5      97.274 122.275   7.888  1.00 26.86 LIG 0.17  HD
ATOM     12 1HH1 ARG E   5      98.098 123.392   7.347  1.00 26.86 LIG 0.17  HD
ATOM     13 HE   ARG E   5     101.017 121.895   7.655  1.00 27.14 LIG 0.18  HD
ENDBRANCH 4 5
ENDBRANCH 3 4
ENDBRANCH 2 3
ENDBRANCH 1 2
BRANCH 1 14
ATOM     14  C   ARG E   5      99.864 126.791   6.412  1.00 36.20 LIG 0.24  C 
ATOM     15 O    ARG E   5      99.217 126.282   5.486  1.00 36.29 LIG-0.27  OA
ATOM     16  N   PRO E   6      99.270 127.550   7.332  1.00 37.19 LIG-0.34  N 
ATOM     17  CA  PRO E   6      97.826 127.778   7.262  1.00 38.47 LIG 0.18  C 
ATOM     18  CD  PRO E   6      99.853 128.215   8.507  1.00 36.10 LIG 0.13  C 
ATOM     19  CB  PRO E   6      97.521 128.525   8.568  1.00 37.25 LIG 0.04  C 
ATOM     20  CG  PRO E   6      98.696 128.268   9.447  1.00 36.76 LIG 0.02  C 
BRANCH 17 21
ATOM     21  C   PRO E   6      97.440 128.619   6.061  1.00 38.85 LIG 0.24  C 
ATOM     22 O    PRO E   6      98.095 128.601   5.015  1.00 38.06 LIG-0.27  OA
ATOM     23  N   ALA E   7      96.354 129.359   6.223  1.00 39.96 LIG-0.35  N 
ATOM     24 H    ALA E   7      95.845 129.338   6.915  1.00 39.96 LIG 0.16  HD
BRANCH 23 25
ATOM     25  CA  ALA E   7      95.949 130.286   5.189  1.00 39.26 LIG 0.17  C 
ATOM     26  CB  ALA E   7      96.994 131.384   5.018  1.00 41.08 LIG 0.04  C 
BRANCH 25 27
ATOM     27  C   ALA E   7      95.761 129.517   3.883  1.00 37.69 LIG 0.24  C 
ATOM     28 O    ALA E   7      96.371 129.853   2.865  1.00 38.21 LIG-0.27  OA
ATOM     29  N   PRO E   8      94.928 128.467   3.884  1.00 36.84 LIG-0.34  N 
ATOM     30  CD  PRO E   8      94.187 127.893   5.019  1.00 36.57 LIG 0.13  C 
ATOM     31  CA  PRO E   8      94.704 127.693   2.659  1.00 36.95 LIG 0.17  C 
ATOM     32  CG  PRO E   8      93.200 126.984   4.349  1.00 36.01 LIG 0.02  C 
ATOM     33  CB  PRO E   8      93.954 126.465   3.173  1.00 35.51 LIG 0.04  C 
BRANCH 31 34
ATOM     34  C   PRO E   8      93.886 128.441   1.613  1.00 39.03 LIG 0.22  C 
ATOM     35 O    PRO E   8      94.244 128.427   0.436  1.00 41.16 LIG-0.29  OA
ENDBRANCH 31 34
ENDBRANCH 25 27
ENDBRANCH 23 25
ENDBRANCH 17 21
ENDBRANCH 1 14
BRANCH 1 36
ATOM     36  N   ARG E   5     102.048 127.833   6.523  1.00 35.03 LIG-0.35  N 
ATOM     37 H    ARG E   5     101.938 128.294   7.241  1.00 35.03 LIG 0.16  HD
ATOM     38  C   THR E   4     102.771 128.217   5.486  1.00 36.29 LIG 0.24  C 
ATOM     39 O    THR E   4     102.885 127.540   4.460  1.00 35.32 LIG-0.27  OA
BRANCH 38 40
ATOM     40  CA  THR E   4     103.466 129.562   5.641  1.00 38.81 LIG 0.20  C 
BRANCH 40 41
ATOM     41  CB  THR E   4     103.423 130.325   4.324  1.00 37.77 LIG 0.15  C 
ATOM     42  CG2 THR E   4     102.099 131.032   4.190  1.00 32.08 LIG 0.04  C 
BRANCH 41 43
ATOM     43 OG1  THR E   4     104.490 131.279   4.288  1.00 38.27 LIG-0.39  OA
ATOM     44 HG1  THR E   4     104.281 131.952   4.746  1.00 38.27 LIG 0.21  HD
ENDBRANCH 41 43
ENDBRANCH 40 41
BRANCH 40 45
ATOM     45  N   THR E   4     104.838 129.371   6.075  1.00 43.44 LIG-0.34  N 
ATOM     46  C   ASP E   3     105.197 129.496   7.347  1.00 43.86 LIG 0.26  C 
ATOM     47 O    ASP E   3     104.452 129.957   8.216  1.00 40.64 LIG-0.27  OA
ATOM     48 H    THR E   4     105.385 129.174   5.440  1.00 43.44 LIG 0.16  HD
BRANCH 46 49
ATOM     49  CA  ASP E   3     106.625 129.062   7.669  1.00 46.95 LIG 0.41  C 
ATOM     50  N   ASP E   3     107.256 129.944   8.644  1.00 48.81 LIG 0.61  N 
BRANCH 49 51
ATOM     51  CB  ASP E   3     106.636 127.617   8.159  1.00 49.65 LIG 0.16  C 
BRANCH 51 52
ATOM     52  CG  ASP E   3     108.005 126.973   8.073  1.00 52.58 LIG 0.17  C 
ATOM     53 OD1  ASP E   3     108.967 127.660   7.663  1.00 53.20 LIG-0.65  OA
ATOM     54 OD2  ASP E   3     108.109 125.775   8.435  1.00 53.89 LIG-0.65  OA
ENDBRANCH 51 52
ENDBRANCH 49 51
ENDBRANCH 46 49
ENDBRANCH 40 45
ENDBRANCH 38 40
ENDBRANCH 1 36
TORSDOF 17
ENDMDL
MODEL 10
USER: ADFR SOLUTION from run 148
USER: SCORE 16.356296 LL:  -3.910 LR: -14.083 RR:   0.000 FEB:  -9.012
USER: RMSD 3.601433
USER: SEED 147
USER: STATUS no improvement in best in 3 clusters for 5 generations
USER: GENES 19
USER: genes 0 Translation |==|  0.49440 0.53318 0.44946
USER: genes 1 Rotation |==|  0.27698 0.58593 0.61819 0.92298
USER: genes 2 Torsion [C]-CA--CB-[CG] |==|  0.18118
USER: genes 3 Torsion [CA]-CB--CG-[CD] |==|  0.66747
USER: genes 4 Torsion [CB]-CG--CD-[NE] |==|  0.55664
USER: genes 5 Torsion [CG]-CD--NE-[CZ] |==|  0.57078
USER: genes 6 Torsion [N]-CA--C-[N] |==|  0.86631
USER: genes 7 Torsion [N]-CA--C-[O] |==|  0.80752
USER: genes 8 Torsion [C]-N--CA-[C] |==|  0.83946
USER: genes 9 Torsion [N]-CA--C-[N] |==|  0.87778
USER: genes 10 Torsion [N]-CA--C-[O] |==|  0.57113
USER: genes 11 Torsion [CB]-CA--N-[C] |==|  0.47880
USER: genes 12 Torsion [N]-C--CA-[N] |==|  0.20735
USER: genes 13 Torsion [C]-CA--CB-[OG1] |==|  0.57938
USER: genes 14 Torsion [CA]-CB--OG1-[HG1] |==|  0.24469
USER: genes 15 Torsion [C]-CA--N-[C] |==|  0.75712
USER: genes 16 Torsion [N]-C--CA-[N] |==|  0.35187
USER: genes 17 Torsion [C]-CA--CB-[CG] |==|  0.44680
USER: genes 18 Torsion [CA]-CB--CG-[OD1] |==|  0.47849
ROOT
ATOM      1  CA  ARG E   5     102.251 126.057   6.304  1.00 34.60 LIG 0.18  C 
ENDROOT
BRANCH 1 2
ATOM      2  CB  ARG E   5     102.094 125.332   7.631  1.00 32.17 LIG 0.04  C 
BRANCH 2 3
ATOM      3  CG  ARG E   5     101.707 123.891   7.435  1.00 30.87 LIG 0.02  C 
BRANCH 3 4
ATOM      4  CD  ARG E   5     100.391 123.597   8.081  1.00 28.77 LIG 0.14  C 
BRANCH 4 5
ATOM      5  NE  ARG E   5     100.240 122.165   8.316  1.00 27.14 LIG-0.23  N 
ATOM      6  CZ  ARG E   5      99.070 121.548   8.407  1.00 27.11 LIG 0.67  C 
ATOM      7  NH2 ARG E   5      99.023 120.239   8.627  1.00 28.81 LIG-0.23  N 
ATOM      8  NH1 ARG E   5      97.948 122.245   8.282  1.00 26.86 LIG-0.23  N 
ATOM      9 2HH2 ARG E   5      98.264 119.839   8.686  1.00 28.81 LIG 0.17  HD
ATOM     10 1HH2 ARG E   5      99.752 119.791   8.710  1.00 28.81 LIG 0.17  HD
ATOM     11 2HH1 ARG E   5      97.187 121.849   8.340  1.00 26.86 LIG 0.17  HD
ATOM     12 1HH1 ARG E   5      97.982 123.093   8.143  1.00 26.86 LIG 0.17  HD
ATOM     13 HE   ARG E   5     100.953 121.692   8.401  1.00 27.14 LIG 0.18  HD
ENDBRANCH 4 5
ENDBRANCH 3 4
ENDBRANCH 2 3
ENDBRANCH 1 2
BRANCH 1 14
ATOM     14  C   ARG E   5     100.906 126.134   5.588  1.00 36.20 LIG 0.24  C 
ATOM     15 O    ARG E   5     100.691 125.411   4.605  1.00 36.29 LIG-0.27  OA
ATOM     16  N   PRO E   6      99.983 126.987   6.031  1.00 37.19 LIG-0.34  N 
ATOM     17  CA  PRO E   6      98.686 127.066   5.358  1.00 38.47 LIG 0.18  C 
ATOM     18  CD  PRO E   6     100.038 127.902   7.181  1.00 36.10 LIG 0.13  C 
ATOM     19  CB  PRO E   6      97.874 128.003   6.262  1.00 37.25 LIG 0.04  C 
ATOM     20  CG  PRO E   6      98.600 128.015   7.563  1.00 36.76 LIG 0.02  C 
BRANCH 17 21
ATOM     21  C   PRO E   6      98.804 127.641   3.959  1.00 38.85 LIG 0.24  C 
ATOM     22 O    PRO E   6      99.090 128.825   3.762  1.00 38.06 LIG-0.27  OA
ATOM     23  N   ALA E   7      98.585 126.776   2.980  1.00 39.96 LIG-0.35  N 
ATOM     24 H    ALA E   7      98.451 125.934   3.090  1.00 39.96 LIG 0.16  HD
BRANCH 23 25
ATOM     25  CA  ALA E   7      98.560 127.229   1.607  1.00 39.26 LIG 0.17  C 
ATOM     26  CB  ALA E   7      98.276 126.063   0.666  1.00 41.08 LIG 0.04  C 
BRANCH 25 27
ATOM     27  C   ALA E   7      97.488 128.307   1.462  1.00 37.69 LIG 0.24  C 
ATOM     28 O    ALA E   7      97.713 129.331   0.812  1.00 38.21 LIG-0.27  OA
ATOM     29  N   PRO E   8      96.300 128.098   2.049  1.00 36.84 LIG-0.34  N 
ATOM     30  CD  PRO E   8      95.847 126.910   2.790  1.00 36.57 LIG 0.13  C 
ATOM     31  CA  PRO E   8      95.234 129.099   1.949  1.00 36.95 LIG 0.17  C 
ATOM     32  CG  PRO E   8      94.602 127.396   3.471  1.00 36.01 LIG 0.02  C 
ATOM     33  CB  PRO E   8      94.017 128.345   2.482  1.00 35.51 LIG 0.04  C 
BRANCH 31 34
ATOM     34  C   PRO E   8      95.506 130.356   2.766  1.00 39.03 LIG 0.22  C 
ATOM     35 O    PRO E   8      94.564 131.042   3.161  1.00 41.16 LIG-0.29  OA
ENDBRANCH 31 34
ENDBRANCH 25 27
ENDBRANCH 23 25
ENDBRANCH 17 21
ENDBRANCH 1 14
BRANCH 1 36
ATOM     36  N   ARG E   5     102.763 127.397   6.496  1.00 35.03 LIG-0.35  N 
ATOM     37 H    ARG E   5     102.815 127.654   7.315  1.00 35.03 LIG 0.16  HD
ATOM     38  C   THR E   4     103.109 128.130   5.453  1.00 36.29 LIG 0.24  C 
ATOM     39 O    THR E   4     102.996 127.737   4.289  1.00 35.32 LIG-0.27  OA
BRANCH 38 40
ATOM     40  CA  THR E   4     103.669 129.507   5.785  1.00 38.81 LIG 0.20  C 
BRANCH 40 41
ATOM     41  CB  THR E   4     103.638 130.392   4.546  1.00 37.77 LIG 0.15  C 
ATOM     42  CG2 THR E   4     102.307 131.092   4.455  1.00 32.08 LIG 0.04  C 
BRANCH 41 43
ATOM     43 OG1  THR E   4     104.693 131.358   4.623  1.00 38.27 LIG-0.39  OA
ATOM     44 HG1  THR E   4     105.393 131.035   4.290  1.00 38.27 LIG 0.21  HD
ENDBRANCH 41 43
ENDBRANCH 40 41
BRANCH 40 45
ATOM     45  N   THR E   4     105.023 129.389   6.294  1.00 43.44 LIG-0.34  N 
ATOM     46  C   ASP E   3     105.275 129.194   7.583  1.00 43.86 LIG 0.26  C 
ATOM     47 O    ASP E   3     104.410 129.280   8.460  1.00 40.64 LIG-0.27  OA
ATOM     48 H    THR E   4     105.634 129.458   5.692  1.00 43.44 LIG 0.16  HD
BRANCH 46 49
ATOM     49  CA  ASP E   3     106.729 128.885   7.926  1.00 46.95 LIG 0.41  C 
ATOM     50  N   ASP E   3     107.250 129.780   8.953  1.00 48.81 LIG 0.61  N 
BRANCH 49 51
ATOM     51  CB  ASP E   3     106.870 127.427   8.355  1.00 49.65 LIG 0.16  C 
BRANCH 51 52
ATOM     52  CG  ASP E   3     108.294 126.918   8.267  1.00 52.58 LIG 0.17  C 
ATOM     53 OD1  ASP E   3     108.556 125.786   8.731  1.00 53.20 LIG-0.65  OA
ATOM     54 OD2  ASP E   3     109.145 127.659   7.717  1.00 53.89 LIG-0.65  OA
ENDBRANCH 51 52
ENDBRANCH 49 51
ENDBRANCH 46 49
ENDBRANCH 40 45
ENDBRANCH 38 40
ENDBRANCH 1 36
TORSDOF 17
ENDMDL
MODEL 11
USER: ADFR SOLUTION from run 130
USER: SCORE 16.694978 LL:  -3.487 LR: -14.046 RR:   0.000 FEB:  -8.975
USER: RMSD 3.112098
USER: SEED 129
USER: STATUS no improvement in best in 8 clusters for 5 generations
USER: GENES 19
USER: genes 0 Translation |==|  0.49337 0.53273 0.49264
USER: genes 1 Rotation |==|  0.37714 0.56694 0.51493 0.97979
USER: genes 2 Torsion [C]-CA--CB-[CG] |==|  0.29764
USER: genes 3 Torsion [CA]-CB--CG-[CD] |==|  0.66027
USER: genes 4 Torsion [CB]-CG--CD-[NE] |==|  0.63686
USER: genes 5 Torsion [CG]-CD--NE-[CZ] |==|  0.44289
USER: genes 6 Torsion [N]-CA--C-[N] |==|  0.17778
USER: genes 7 Torsion [N]-CA--C-[O] |==|  0.06017
USER: genes 8 Torsion [C]-N--CA-[C] |==|  0.17359
USER: genes 9 Torsion [N]-CA--C-[N] |==|  0.15287
USER: genes 10 Torsion [N]-CA--C-[O] |==|  0.44191
USER: genes 11 Torsion [CB]-CA--N-[C] |==|  0.15400
USER: genes 12 Torsion [N]-C--CA-[N] |==|  0.94563
USER: genes 13 Torsion [C]-CA--CB-[OG1] |==|  0.13723
USER: genes 14 Torsion [CA]-CB--OG1-[HG1] |==|  0.78333
USER: genes 15 Torsion [C]-CA--N-[C] |==|  0.75027
USER: genes 16 Torsion [N]-C--CA-[N] |==|  0.21562
USER: genes 17 Torsion [C]-CA--CB-[CG] |==|  0.78564
USER: genes 18 Torsion [CA]-CB--CG-[OD1] |==|  0.99884
ROOT
ATOM      1  CA  ARG E   5     102.224 126.048   7.147  1.00 34.60 LIG 0.18  C 
ENDROOT
BRANCH 1 2
ATOM      2  CB  ARG E   5     101.453 125.086   8.036  1.00 32.17 LIG 0.04  C 
BRANCH 2 3
ATOM      3  CG  ARG E   5     101.474 123.685   7.488  1.00 30.87 LIG 0.02  C 
BRANCH 3 4
ATOM      4  CD  ARG E   5     100.085 123.178   7.260  1.00 28.77 LIG 0.14  C 
BRANCH 4 5
ATOM      5  NE  ARG E   5      99.916 121.854   7.848  1.00 27.14 LIG-0.23  N 
ATOM      6  CZ  ARG E   5      98.740 121.324   8.153  1.00 27.11 LIG 0.67  C 
ATOM      7  NH2 ARG E   5      98.676 120.111   8.690  1.00 28.81 LIG-0.23  N 
ATOM      8  NH1 ARG E   5      97.629 122.012   7.924  1.00 26.86 LIG-0.23  N 
ATOM      9 2HH2 ARG E   5      97.913 119.767   8.889  1.00 28.81 LIG 0.17  HD
ATOM     10 1HH2 ARG E   5      99.398 119.668   8.840  1.00 28.81 LIG 0.17  HD
ATOM     11 2HH1 ARG E   5      96.864 121.672   8.120  1.00 26.86 LIG 0.17  HD
ATOM     12 1HH1 ARG E   5      97.674 122.799   7.579  1.00 26.86 LIG 0.17  HD
ATOM     13 HE   ARG E   5     100.622 121.389   8.006  1.00 27.14 LIG 0.18  HD
ENDBRANCH 4 5
ENDBRANCH 3 4
ENDBRANCH 2 3
ENDBRANCH 1 2
BRANCH 1 14
ATOM     14  C   ARG E   5     101.254 126.957   6.396  1.00 36.20 LIG 0.24  C 
ATOM     15 O    ARG E   5     100.043 126.909   6.654  1.00 36.29 LIG-0.27  OA
ATOM     16  N   PRO E   6     101.730 127.786   5.468  1.00 37.19 LIG-0.34  N 
ATOM     17  CA  PRO E   6     100.812 128.670   4.746  1.00 38.47 LIG 0.18  C 
ATOM     18  CD  PRO E   6     103.120 128.006   5.040  1.00 36.10 LIG 0.13  C 
ATOM     19  CB  PRO E   6     101.752 129.564   3.928  1.00 37.25 LIG 0.04  C 
ATOM     20  CG  PRO E   6     103.086 129.422   4.574  1.00 36.76 LIG 0.02  C 
BRANCH 17 21
ATOM     21  C   PRO E   6      99.878 127.897   3.835  1.00 38.85 LIG 0.24  C 
ATOM     22 O    PRO E   6      99.636 126.700   4.012  1.00 38.06 LIG-0.27  OA
ATOM     23  N   ALA E   7      99.346 128.606   2.850  1.00 39.96 LIG-0.35  N 
ATOM     24 H    ALA E   7      99.446 129.453   2.746  1.00 39.96 LIG 0.16  HD
BRANCH 23 25
ATOM     25  CA  ALA E   7      98.527 127.955   1.851  1.00 39.26 LIG 0.17  C 
ATOM     26  CB  ALA E   7      99.322 126.868   1.135  1.00 41.08 LIG 0.04  C 
BRANCH 25 27
ATOM     27  C   ALA E   7      97.297 127.359   2.532  1.00 37.69 LIG 0.24  C 
ATOM     28 O    ALA E   7      97.036 126.160   2.415  1.00 38.21 LIG-0.27  OA
ATOM     29  N   PRO E   8      96.526 128.174   3.267  1.00 36.84 LIG-0.34  N 
ATOM     30  CD  PRO E   8      96.737 129.600   3.569  1.00 36.57 LIG 0.13  C 
ATOM     31  CA  PRO E   8      95.331 127.661   3.941  1.00 36.95 LIG 0.17  C 
ATOM     32  CG  PRO E   8      95.410 130.022   4.126  1.00 36.01 LIG 0.02  C 
ATOM     33  CB  PRO E   8      94.948 128.814   4.866  1.00 35.51 LIG 0.04  C 
BRANCH 31 34
ATOM     34  C   PRO E   8      94.196 127.322   2.983  1.00 39.03 LIG 0.22  C 
ATOM     35 O    PRO E   8      93.310 126.545   3.338  1.00 41.16 LIG-0.29  OA
ENDBRANCH 31 34
ENDBRANCH 25 27
ENDBRANCH 23 25
ENDBRANCH 17 21
ENDBRANCH 1 14
BRANCH 1 36
ATOM     36  N   ARG E   5     103.134 126.864   7.921  1.00 35.03 LIG-0.35  N 
ATOM     37 H    ARG E   5     103.036 127.713   7.824  1.00 35.03 LIG 0.16  HD
ATOM     38  C   THR E   4     104.033 126.295   8.704  1.00 36.29 LIG 0.24  C 
ATOM     39 O    THR E   4     104.162 125.071   8.799  1.00 35.32 LIG-0.27  OA
BRANCH 38 40
ATOM     40  CA  THR E   4     104.907 127.258   9.495  1.00 38.81 LIG 0.20  C 
BRANCH 40 41
ATOM     41  CB  THR E   4     104.431 127.325  10.940  1.00 37.77 LIG 0.15  C 
ATOM     42  CG2 THR E   4     103.118 128.060  11.008  1.00 32.08 LIG 0.04  C 
BRANCH 41 43
ATOM     43 OG1  THR E   4     104.274 125.998  11.455  1.00 38.27 LIG-0.39  OA
ATOM     44 HG1  THR E   4     103.555 125.670  11.168  1.00 38.27 LIG 0.21  HD
ENDBRANCH 41 43
ENDBRANCH 40 41
BRANCH 40 45
ATOM     45  N   THR E   4     104.880 128.577   8.888  1.00 43.44 LIG-0.34  N 
ATOM     46  C   ASP E   3     105.750 128.937   7.952  1.00 43.86 LIG 0.26  C 
ATOM     47 O    ASP E   3     106.745 128.267   7.662  1.00 40.64 LIG-0.27  OA
ATOM     48 H    THR E   4     104.258 129.091   9.187  1.00 43.44 LIG 0.16  HD
BRANCH 46 49
ATOM     49  CA  ASP E   3     105.461 130.271   7.270  1.00 46.95 LIG 0.41  C 
ATOM     50  N   ASP E   3     105.845 131.405   8.103  1.00 48.81 LIG 0.61  N 
BRANCH 49 51
ATOM     51  CB  ASP E   3     106.163 130.331   5.916  1.00 49.65 LIG 0.16  C 
BRANCH 51 52
ATOM     52  CG  ASP E   3     107.648 130.612   6.030  1.00 52.58 LIG 0.17  C 
ATOM     53 OD1  ASP E   3     108.143 130.770   7.168  1.00 53.20 LIG-0.65  OA
ATOM     54 OD2  ASP E   3     108.315 130.659   4.967  1.00 53.89 LIG-0.65  OA
ENDBRANCH 51 52
ENDBRANCH 49 51
ENDBRANCH 46 49
ENDBRANCH 40 45
ENDBRANCH 38 40
ENDBRANCH 1 36
TORSDOF 17
ENDMDL
MODEL 12
USER: ADFR SOLUTION from run 84
USER: SCORE 17.000128 LL:  -3.639 LR: -14.053 RR:   0.000 FEB:  -8.982
USER: RMSD 3.316044
USER: SEED 83
USER: STATUS no improvement in best in 3 clusters for 5 generations
USER: GENES 19
USER: genes 0 Translation |==|  0.44718 0.46928 0.54545
USER: genes 1 Rotation |==|  0.34757 0.66741 0.39478 0.93321
USER: genes 2 Torsion [C]-CA--CB-[CG] |==|  0.33882
USER: genes 3 Torsion [CA]-CB--CG-[CD] |==|  0.89267
USER: genes 4 Torsion [CB]-CG--CD-[NE] |==|  0.22627
USER: genes 5 Torsion [CG]-CD--NE-[CZ] |==|  0.63796
USER: genes 6 Torsion [N]-CA--C-[N] |==|  0.16930
USER: genes 7 Torsion [N]-CA--C-[O] |==|  0.87361
USER: genes 8 Torsion [C]-N--CA-[C] |==|  0.86111
USER: genes 9 Torsion [N]-CA--C-[N] |==|  0.84566
USER: genes 10 Torsion [N]-CA--C-[O] |==|  0.13919
USER: genes 11 Torsion [CB]-CA--N-[C] |==|  0.78213
USER: genes 12 Torsion [N]-C--CA-[N] |==|  0.44871
USER: genes 13 Torsion [C]-CA--CB-[OG1] |==|  0.77852
USER: genes 14 Torsion [CA]-CB--OG1-[HG1] |==|  0.22003
USER: genes 15 Torsion [C]-CA--N-[C] |==|  0.63066
USER: genes 16 Torsion [N]-C--CA-[N] |==|  0.26001
USER: genes 17 Torsion [C]-CA--CB-[CG] |==|  0.78209
USER: genes 18 Torsion [CA]-CB--CG-[OD1] |==|  0.00677
ROOT
ATOM      1  CA  ARG E   5     101.012 124.811   8.176  1.00 34.60 LIG 0.18  C 
ENDROOT
BRANCH 1 2
ATOM      2  CB  ARG E   5     100.227 124.562   9.455  1.00 32.17 LIG 0.04  C 
BRANCH 2 3
ATOM      3  CG  ARG E   5      99.685 123.160   9.510  1.00 30.87 LIG 0.02  C 
BRANCH 3 4
ATOM      4  CD  ARG E   5      99.212 122.715   8.162  1.00 28.77 LIG 0.14  C 
BRANCH 4 5
ATOM      5  NE  ARG E   5     100.331 122.255   7.348  1.00 27.14 LIG-0.23  N 
ATOM      6  CZ  ARG E   5     100.557 122.657   6.105  1.00 27.11 LIG 0.67  C 
ATOM      7  NH2 ARG E   5     101.600 122.184   5.432  1.00 28.81 LIG-0.23  N 
ATOM      8  NH1 ARG E   5      99.736 123.531   5.537  1.00 26.86 LIG-0.23  N 
ATOM      9 2HH2 ARG E   5     101.747 122.446   4.625  1.00 28.81 LIG 0.17  HD
ATOM     10 1HH2 ARG E   5     102.129 121.617   5.802  1.00 28.81 LIG 0.17  HD
ATOM     11 2HH1 ARG E   5      99.879 123.795   4.731  1.00 26.86 LIG 0.17  HD
ATOM     12 1HH1 ARG E   5      99.060 123.833   5.974  1.00 26.86 LIG 0.17  HD
ATOM     13 HE   ARG E   5     100.877 121.688   7.694  1.00 27.14 LIG 0.18  HD
ENDBRANCH 4 5
ENDBRANCH 3 4
ENDBRANCH 2 3
ENDBRANCH 1 2
BRANCH 1 14
ATOM     14  C   ARG E   5     100.402 125.981   7.408  1.00 36.20 LIG 0.24  C 
ATOM     15 O    ARG E   5      99.444 126.600   7.892  1.00 36.29 LIG-0.27  OA
ATOM     16  N   PRO E   6     100.911 126.313   6.223  1.00 37.19 LIG-0.34  N 
ATOM     17  CA  PRO E   6     100.341 127.437   5.478  1.00 38.47 LIG 0.18  C 
ATOM     18  CD  PRO E   6     102.048 125.723   5.499  1.00 36.10 LIG 0.13  C 
ATOM     19  CB  PRO E   6     101.300 127.600   4.292  1.00 37.25 LIG 0.04  C 
ATOM     20  CG  PRO E   6     102.540 126.876   4.691  1.00 36.76 LIG 0.02  C 
BRANCH 17 21
ATOM     21  C   PRO E   6      98.934 127.145   4.994  1.00 38.85 LIG 0.24  C 
ATOM     22 O    PRO E   6      98.638 126.073   4.459  1.00 38.06 LIG-0.27  OA
ATOM     23  N   ALA E   7      98.060 128.120   5.197  1.00 39.96 LIG-0.35  N 
ATOM     24 H    ALA E   7      98.226 128.846   5.627  1.00 39.96 LIG 0.16  HD
BRANCH 23 25
ATOM     25  CA  ALA E   7      96.714 128.004   4.680  1.00 39.26 LIG 0.17  C 
ATOM     26  CB  ALA E   7      95.961 129.319   4.853  1.00 41.08 LIG 0.04  C 
BRANCH 25 27
ATOM     27  C   ALA E   7      96.784 127.616   3.205  1.00 37.69 LIG 0.24  C 
ATOM     28 O    ALA E   7      96.190 126.618   2.791  1.00 38.21 LIG-0.27  OA
ATOM     29  N   PRO E   8      97.495 128.398   2.380  1.00 36.84 LIG-0.34  N 
ATOM     30  CD  PRO E   8      98.195 129.654   2.694  1.00 36.57 LIG 0.13  C 
ATOM     31  CA  PRO E   8      97.602 128.074   0.955  1.00 36.95 LIG 0.17  C 
ATOM     32  CG  PRO E   8      99.058 129.867   1.487  1.00 36.01 LIG 0.02  C 
ATOM     33  CB  PRO E   8      98.223 129.342   0.370  1.00 35.51 LIG 0.04  C 
BRANCH 31 34
ATOM     34  C   PRO E   8      98.472 126.855   0.676  1.00 39.03 LIG 0.22  C 
ATOM     35 O    PRO E   8      98.275 125.811   1.297  1.00 41.16 LIG-0.29  OA
ENDBRANCH 31 34
ENDBRANCH 25 27
ENDBRANCH 23 25
ENDBRANCH 17 21
ENDBRANCH 1 14
BRANCH 1 36
ATOM     36  N   ARG E   5     102.400 125.104   8.461  1.00 35.03 LIG-0.35  N 
ATOM     37 H    ARG E   5     102.944 124.449   8.337  1.00 35.03 LIG 0.16  HD
ATOM     38  C   THR E   4     102.752 126.306   8.879  1.00 36.29 LIG 0.24  C 
ATOM     39 O    THR E   4     101.939 127.215   9.070  1.00 35.32 LIG-0.27  OA
BRANCH 38 40
ATOM     40  CA  THR E   4     104.244 126.502   9.108  1.00 38.81 LIG 0.20  C 
BRANCH 40 41
ATOM     41  CB  THR E   4     104.663 125.834  10.410  1.00 37.77 LIG 0.15  C 
ATOM     42  CG2 THR E   4     106.149 125.586  10.399  1.00 32.08 LIG 0.04  C 
BRANCH 41 43
ATOM     43 OG1  THR E   4     104.319 126.679  11.514  1.00 38.27 LIG-0.39  OA
ATOM     44 HG1  THR E   4     103.499 126.600  11.683  1.00 38.27 LIG 0.21  HD
ENDBRANCH 41 43
ENDBRANCH 40 41
BRANCH 40 45
ATOM     45  N   THR E   4     104.566 127.918   9.134  1.00 43.44 LIG-0.34  N 
ATOM     46  C   ASP E   3     105.588 128.419   8.451  1.00 43.86 LIG 0.26  C 
ATOM     47 O    ASP E   3     106.441 127.716   7.900  1.00 40.64 LIG-0.27  OA
ATOM     48 H    THR E   4     104.042 128.391   9.626  1.00 43.44 LIG 0.16  HD
BRANCH 46 49
ATOM     49  CA  ASP E   3     105.668 129.943   8.416  1.00 46.95 LIG 0.41  C 
ATOM     50  N   ASP E   3     106.522 130.469   9.475  1.00 48.81 LIG 0.61  N 
BRANCH 49 51
ATOM     51  CB  ASP E   3     106.150 130.412   7.047  1.00 49.65 LIG 0.16  C 
BRANCH 51 52
ATOM     52  CG  ASP E   3     107.648 130.272   6.865  1.00 52.58 LIG 0.17  C 
ATOM     53 OD1  ASP E   3     108.319 129.763   7.790  1.00 53.20 LIG-0.65  OA
ATOM     54 OD2  ASP E   3     108.143 130.666   5.780  1.00 53.89 LIG-0.65  OA
ENDBRANCH 51 52
ENDBRANCH 49 51
ENDBRANCH 46 49
ENDBRANCH 40 45
ENDBRANCH 38 40
ENDBRANCH 1 36
TORSDOF 17
ENDMDL
