MODEL 1
USER: ADFR SOLUTION from run 36
USER: SCORE 17.365812 LL:  -2.045 LR: -15.940 RR:   0.000 FEB: -11.466
USER: RMSD 9.986457
USER: SEED 35
USER: STATUS no improvement in best in 1 clusters for 5 generations
USER: GENES 17
USER: genes 0 Translation |==|  0.53280 0.57726 0.55343
USER: genes 1 Rotation |==|  0.09459 0.25473 0.55485 0.64991
USER: genes 2 Torsion [C]-CA--CB-[CG] |==|  0.84851
USER: genes 3 Torsion [CA]-CB--CG-[CD2] |==|  0.42708
USER: genes 4 Torsion [CE2]-CZ--OH-[HH] |==|  0.35842
USER: genes 5 Torsion [N]-CA--C-[N] |==|  0.36955
USER: genes 6 Torsion [C]-N--CA-[C] |==|  0.66792
USER: genes 7 Torsion [N]-CA--C-[O] |==|  0.52106
USER: genes 8 Torsion [N]-CA--CB-[CG] |==|  0.71750
USER: genes 9 Torsion [CA]-CB--CG-[CD2] |==|  0.35649
USER: genes 10 Torsion [CE2]-CZ--OH-[HH] |==|  0.93383
USER: genes 11 Torsion [CB]-CA--N-[C] |==|  0.51119
USER: genes 12 Torsion [N]-C--CA-[N] |==|  0.89718
USER: genes 13 Torsion [C]-CA--CB-[CG] |==|  0.77521
USER: genes 14 Torsion [CA]-CB--CG-[CD1] |==|  0.17700
USER: genes 15 Torsion [CE1]-CZ--OH-[HH] |==|  0.60999
USER: genes 16 Torsion [C]-CA--N-[H1] |==|  0.65734
ROOT
ATOM      1  CA  TYR B   2      61.132 150.959   3.361  1.00 28.44 LIG 0.18  C 
ENDROOT
BRANCH 1 2
ATOM      2  CB  TYR B   2      59.951 151.873   3.011  1.00 30.17 LIG 0.07  C 
BRANCH 2 3
ATOM      3  CG  TYR B   2      60.121 152.710   1.753  1.00 31.12 LIG-0.06  A 
ATOM      4  CD2 TYR B   2      59.008 153.145   1.020  1.00 31.81 LIG 0.01  A 
ATOM      5  CE2 TYR B   2      59.159 153.918  -0.129  1.00 33.15 LIG 0.04  A 
ATOM      6  CZ  TYR B   2      60.434 154.264  -0.559  1.00 33.29 LIG 0.07  A 
ATOM      7  CE1 TYR B   2      61.563 153.850   0.152  1.00 33.06 LIG 0.04  A 
ATOM      8  CD1 TYR B   2      61.400 153.079   1.301  1.00 32.67 LIG 0.01  A 
BRANCH 6 9
ATOM      9 OH   TYR B   2      60.580 155.020  -1.694  1.00 34.60 LIG-0.36  OA
ATOM     10 HH   TYR B   2      61.081 155.675  -1.532  1.00 34.60 LIG 0.22  HD
ENDBRANCH 6 9
ENDBRANCH 2 3
ENDBRANCH 1 2
BRANCH 1 11
ATOM     11  C   TYR B   2      61.469 150.066   2.185  1.00 30.52 LIG 0.24  C 
ATOM     12  N   TYR B   3      61.111 148.792   2.316  1.00 32.89 LIG-0.35  N 
ATOM     13 H    TYR B   3      60.746 148.473   3.027  1.00 32.89 LIG 0.16  HD
ATOM     14 O    TYR B   2      62.044 150.521   1.191  1.00 30.24 LIG-0.27  OA
BRANCH 12 15
ATOM     15  CA  TYR B   3      61.302 147.809   1.258  1.00 36.06 LIG 0.17  C 
BRANCH 15 16
ATOM     16  C   TYR B   3      59.967 147.211   0.814  1.00 37.31 LIG 0.22  C 
ATOM     17 O    TYR B   3      59.936 146.261   0.026  1.00 39.71 LIG-0.29  OA
ENDBRANCH 15 16
BRANCH 15 18
ATOM     18  CB  TYR B   3      62.260 146.709   1.725  1.00 37.43 LIG 0.07  C 
BRANCH 18 19
ATOM     19  CG  TYR B   3      63.663 146.858   1.187  1.00 38.24 LIG-0.06  A 
ATOM     20  CD2 TYR B   3      64.770 146.833   2.046  1.00 38.70 LIG 0.01  A 
ATOM     21  CE2 TYR B   3      66.063 146.966   1.549  1.00 39.79 LIG 0.04  A 
ATOM     22  CZ  TYR B   3      66.257 147.129   0.182  1.00 40.15 LIG 0.07  A 
ATOM     23  CE1 TYR B   3      65.174 147.159  -0.692  1.00 39.97 LIG 0.04  A 
ATOM     24  CD1 TYR B   3      63.889 147.024  -0.188  1.00 39.23 LIG 0.01  A 
BRANCH 22 25
ATOM     25 OH   TYR B   3      67.527 147.265  -0.331  1.00 40.04 LIG-0.36  OA
ATOM     26 HH   TYR B   3      68.041 147.553   0.268  1.00 40.04 LIG 0.22  HD
ENDBRANCH 22 25
ENDBRANCH 18 19
ENDBRANCH 15 18
ENDBRANCH 12 15
ENDBRANCH 1 11
BRANCH 1 27
ATOM     27  N   TYR B   2      62.295 151.763   3.698  1.00 25.33 LIG-0.35  N 
ATOM     28  C   TYR B   1      63.487 151.239   3.967  1.00 22.87 LIG 0.25  C 
ATOM     29 O    TYR B   1      63.743 150.036   3.863  1.00 21.86 LIG-0.27  OA
ATOM     30 H    TYR B   2      62.140 152.609   3.706  1.00 25.33 LIG 0.16  HD
BRANCH 28 31
ATOM     31  CA  TYR B   1      64.558 152.231   4.418  1.00 21.88 LIG 0.28  C 
BRANCH 31 32
ATOM     32  CB  TYR B   1      64.450 152.448   5.928  1.00 21.24 LIG 0.08  C 
BRANCH 32 33
ATOM     33  CG  TYR B   1      63.378 153.423   6.350  1.00 20.81 LIG-0.06  A 
ATOM     34  CD1 TYR B   1      62.025 153.153   6.106  1.00 20.37 LIG 0.01  A 
ATOM     35  CE1 TYR B   1      61.035 154.050   6.496  1.00 19.95 LIG 0.04  A 
ATOM     36  CZ  TYR B   1      61.402 155.234   7.138  1.00 20.32 LIG 0.07  A 
ATOM     37  CE2 TYR B   1      62.737 155.522   7.390  1.00 20.63 LIG 0.04  A 
ATOM     38  CD2 TYR B   1      63.715 154.620   6.996  1.00 20.57 LIG 0.01  A 
BRANCH 36 39
ATOM     39 OH   TYR B   1      60.448 156.138   7.539  1.00 20.56 LIG-0.36  OA
ATOM     40 HH   TYR B   1      60.723 156.918   7.394  1.00 20.56 LIG 0.22  HD
ENDBRANCH 36 39
ENDBRANCH 32 33
ENDBRANCH 31 32
BRANCH 31 41
ATOM     41  N   TYR B   1      64.451 153.536   3.696  1.00 21.11 LIG-0.07  N 
ATOM     42 H2   TYR B   1      63.803 153.488   3.088  1.00 21.11 LIG 0.28  HD
ATOM     43 H1   TYR B   1      65.224 153.716   3.292  1.00 21.11 LIG 0.28  HD
ATOM     44 H3   TYR B   1      64.263 154.183   4.278  1.00 21.11 LIG 0.28  HD
ENDBRANCH 31 41
ENDBRANCH 28 31
ENDBRANCH 1 27
TORSDOF 15
ENDMDL
MODEL 2
USER: ADFR SOLUTION from run 21
USER: SCORE 17.341088 LL:  -1.972 LR: -15.805 RR:   0.000 FEB: -11.331
USER: RMSD 9.845241
USER: SEED 20
USER: STATUS no improvement in best in 1 clusters for 5 generations
USER: GENES 17
USER: genes 0 Translation |==|  0.61815 0.52987 0.48945
USER: genes 1 Rotation |==|  0.63534 0.35192 0.89202 0.73680
USER: genes 2 Torsion [C]-CA--CB-[CG] |==|  0.54406
USER: genes 3 Torsion [CA]-CB--CG-[CD2] |==|  0.46078
USER: genes 4 Torsion [CE2]-CZ--OH-[HH] |==|  0.52956
USER: genes 5 Torsion [N]-CA--C-[N] |==|  0.26326
USER: genes 6 Torsion [C]-N--CA-[C] |==|  0.17796
USER: genes 7 Torsion [N]-CA--C-[O] |==|  0.57640
USER: genes 8 Torsion [N]-CA--CB-[CG] |==|  0.89606
USER: genes 9 Torsion [CA]-CB--CG-[CD2] |==|  0.33353
USER: genes 10 Torsion [CE2]-CZ--OH-[HH] |==|  0.80097
USER: genes 11 Torsion [CB]-CA--N-[C] |==|  0.79898
USER: genes 12 Torsion [N]-C--CA-[N] |==|  0.88778
USER: genes 13 Torsion [C]-CA--CB-[CG] |==|  0.76351
USER: genes 14 Torsion [CA]-CB--CG-[CD1] |==|  0.09443
USER: genes 15 Torsion [CE1]-CZ--OH-[HH] |==|  0.04840
USER: genes 16 Torsion [C]-CA--N-[H1] |==|  0.01783
ROOT
ATOM      1  CA  TYR B   2      63.244 150.000   2.353  1.00 28.44 LIG 0.18  C 
ENDROOT
BRANCH 1 2
ATOM      2  CB  TYR B   2      64.219 149.605   3.469  1.00 30.17 LIG 0.07  C 
BRANCH 2 3
ATOM      3  CG  TYR B   2      64.769 150.756   4.296  1.00 31.12 LIG-0.06  A 
ATOM      4  CD2 TYR B   2      65.425 150.522   5.512  1.00 31.81 LIG 0.01  A 
ATOM      5  CE2 TYR B   2      65.936 151.574   6.269  1.00 33.15 LIG 0.04  A 
ATOM      6  CZ  TYR B   2      65.794 152.879   5.813  1.00 33.29 LIG 0.07  A 
ATOM      7  CE1 TYR B   2      65.150 153.144   4.603  1.00 33.06 LIG 0.04  A 
ATOM      8  CD1 TYR B   2      64.644 152.085   3.853  1.00 32.67 LIG 0.01  A 
BRANCH 6 9
ATOM      9 OH   TYR B   2      66.293 153.913   6.563  1.00 34.60 LIG-0.36  OA
ATOM     10 HH   TYR B   2      66.016 154.643   6.254  1.00 34.60 LIG 0.22  HD
ENDBRANCH 6 9
ENDBRANCH 2 3
ENDBRANCH 1 2
BRANCH 1 11
ATOM     11  C   TYR B   2      62.480 148.785   1.869  1.00 30.52 LIG 0.24  C 
ATOM     12  N   TYR B   3      62.208 148.763   0.568  1.00 32.89 LIG-0.35  N 
ATOM     13 H    TYR B   3      62.410 149.404   0.031  1.00 32.89 LIG 0.16  HD
ATOM     14 O    TYR B   2      62.144 147.895   2.658  1.00 30.24 LIG-0.27  OA
BRANCH 12 15
ATOM     15  CA  TYR B   3      61.536 147.643  -0.077  1.00 36.06 LIG 0.17  C 
BRANCH 15 16
ATOM     16  C   TYR B   3      60.114 147.471   0.456  1.00 37.31 LIG 0.22  C 
ATOM     17 O    TYR B   3      59.570 146.364   0.450  1.00 39.71 LIG-0.29  OA
ENDBRANCH 15 16
BRANCH 15 18
ATOM     18  CB  TYR B   3      62.346 146.357   0.118  1.00 37.43 LIG 0.07  C 
BRANCH 18 19
ATOM     19  CG  TYR B   3      63.840 146.565   0.054  1.00 38.24 LIG-0.06  A 
ATOM     20  CD2 TYR B   3      64.660 146.245   1.144  1.00 38.70 LIG 0.01  A 
ATOM     21  CE2 TYR B   3      66.037 146.432   1.082  1.00 39.79 LIG 0.04  A 
ATOM     22  CZ  TYR B   3      66.606 146.948  -0.077  1.00 40.15 LIG 0.07  A 
ATOM     23  CE1 TYR B   3      65.814 147.276  -1.174  1.00 39.97 LIG 0.04  A 
ATOM     24  CD1 TYR B   3      64.442 147.083  -1.103  1.00 39.23 LIG 0.01  A 
BRANCH 22 25
ATOM     25 OH   TYR B   3      67.966 147.144  -0.159  1.00 40.04 LIG-0.36  OA
ATOM     26 HH   TYR B   3      68.184 147.794   0.325  1.00 40.04 LIG 0.22  HD
ENDBRANCH 22 25
ENDBRANCH 18 19
ENDBRANCH 15 18
ENDBRANCH 12 15
ENDBRANCH 1 11
BRANCH 1 27
ATOM     27  N   TYR B   2      62.302 150.989   2.848  1.00 25.33 LIG-0.35  N 
ATOM     28  C   TYR B   1      61.321 150.697   3.698  1.00 22.87 LIG 0.25  C 
ATOM     29 O    TYR B   1      61.178 149.587   4.220  1.00 21.86 LIG-0.27  OA
ATOM     30 H    TYR B   2      62.438 151.781   2.540  1.00 25.33 LIG 0.16  HD
BRANCH 28 31
ATOM     31  CA  TYR B   1      60.358 151.840   4.013  1.00 21.88 LIG 0.28  C 
BRANCH 31 32
ATOM     32  CB  TYR B   1      59.305 151.939   2.907  1.00 21.24 LIG 0.08  C 
BRANCH 32 33
ATOM     33  CG  TYR B   1      59.723 152.756   1.709  1.00 20.81 LIG-0.06  A 
ATOM     34  CD1 TYR B   1      61.057 152.769   1.279  1.00 20.37 LIG 0.01  A 
ATOM     35  CE1 TYR B   1      61.445 153.520   0.174  1.00 19.95 LIG 0.04  A 
ATOM     36  CZ  TYR B   1      60.487 154.270  -0.511  1.00 20.32 LIG 0.07  A 
ATOM     37  CE2 TYR B   1      59.160 154.272  -0.102  1.00 20.63 LIG 0.04  A 
ATOM     38  CD2 TYR B   1      58.785 153.519   1.002  1.00 20.57 LIG 0.01  A 
BRANCH 36 39
ATOM     39 OH   TYR B   1      60.837 155.019  -1.608  1.00 20.56 LIG-0.36  OA
ATOM     40 HH   TYR B   1      61.580 154.758  -1.900  1.00 20.56 LIG 0.22  HD
ENDBRANCH 36 39
ENDBRANCH 32 33
ENDBRANCH 31 32
BRANCH 31 41
ATOM     41  N   TYR B   1      61.070 153.145   4.171  1.00 21.11 LIG-0.07  N 
ATOM     42 H2   TYR B   1      60.704 153.751   3.632  1.00 21.11 LIG 0.28  HD
ATOM     43 H1   TYR B   1      61.929 153.042   3.962  1.00 21.11 LIG 0.28  HD
ATOM     44 H3   TYR B   1      61.001 153.420   5.015  1.00 21.11 LIG 0.28  HD
ENDBRANCH 31 41
ENDBRANCH 28 31
ENDBRANCH 1 27
TORSDOF 15
ENDMDL
MODEL 3
USER: ADFR SOLUTION from run 118
USER: SCORE 16.095068 LL:  -2.019 LR: -15.781 RR:   0.000 FEB: -11.306
USER: RMSD 10.695760
USER: SEED 117
USER: STATUS no improvement in best in 5 clusters for 5 generations
USER: GENES 17
USER: genes 0 Translation |==|  0.58394 0.53116 0.50588
USER: genes 1 Rotation |==|  0.57687 0.32555 0.91602 0.70146
USER: genes 2 Torsion [C]-CA--CB-[CG] |==|  0.45542
USER: genes 3 Torsion [CA]-CB--CG-[CD2] |==|  0.59236
USER: genes 4 Torsion [CE2]-CZ--OH-[HH] |==|  0.56957
USER: genes 5 Torsion [N]-CA--C-[N] |==|  0.28130
USER: genes 6 Torsion [C]-N--CA-[C] |==|  0.14569
USER: genes 7 Torsion [N]-CA--C-[O] |==|  0.50723
USER: genes 8 Torsion [N]-CA--CB-[CG] |==|  0.83934
USER: genes 9 Torsion [CA]-CB--CG-[CD2] |==|  0.32454
USER: genes 10 Torsion [CE2]-CZ--OH-[HH] |==|  0.93638
USER: genes 11 Torsion [CB]-CA--N-[C] |==|  0.37516
USER: genes 12 Torsion [N]-C--CA-[N] |==|  0.20518
USER: genes 13 Torsion [C]-CA--CB-[CG] |==|  0.46658
USER: genes 14 Torsion [CA]-CB--CG-[CD1] |==|  0.90385
USER: genes 15 Torsion [CE1]-CZ--OH-[HH] |==|  0.78767
USER: genes 16 Torsion [C]-CA--N-[H1] |==|  0.66017
ROOT
ATOM      1  CA  TYR B   2      62.398 150.026   2.612  1.00 28.44 LIG 0.18  C 
ENDROOT
BRANCH 1 2
ATOM      2  CB  TYR B   2      63.016 149.701   3.977  1.00 30.17 LIG 0.07  C 
BRANCH 2 3
ATOM      3  CG  TYR B   2      63.900 150.786   4.570  1.00 31.12 LIG-0.06  A 
ATOM      4  CD2 TYR B   2      65.015 150.459   5.356  1.00 31.81 LIG 0.01  A 
ATOM      5  CE2 TYR B   2      65.832 151.450   5.894  1.00 33.15 LIG 0.04  A 
ATOM      6  CZ  TYR B   2      65.540 152.787   5.651  1.00 33.29 LIG 0.07  A 
ATOM      7  CE1 TYR B   2      64.441 153.145   4.868  1.00 33.06 LIG 0.04  A 
ATOM      8  CD1 TYR B   2      63.631 152.145   4.333  1.00 32.67 LIG 0.01  A 
BRANCH 6 9
ATOM      9 OH   TYR B   2      66.343 153.760   6.188  1.00 34.60 LIG-0.36  OA
ATOM     10 HH   TYR B   2      65.905 154.472   6.269  1.00 34.60 LIG 0.22  HD
ENDBRANCH 6 9
ENDBRANCH 2 3
ENDBRANCH 1 2
BRANCH 1 11
ATOM     11  C   TYR B   2      61.881 148.763   1.956  1.00 30.52 LIG 0.24  C 
ATOM     12  N   TYR B   3      62.130 148.653   0.654  1.00 32.89 LIG-0.35  N 
ATOM     13 H    TYR B   3      62.523 149.264   0.194  1.00 32.89 LIG 0.16  HD
ATOM     14 O    TYR B   2      61.268 147.915   2.614  1.00 30.24 LIG-0.27  OA
BRANCH 12 15
ATOM     15  CA  TYR B   3      61.761 147.476  -0.121  1.00 36.06 LIG 0.17  C 
BRANCH 15 16
ATOM     16  C   TYR B   3      60.283 147.133   0.067  1.00 37.31 LIG 0.22  C 
ATOM     17 O    TYR B   3      59.796 146.137  -0.474  1.00 39.71 LIG-0.29  OA
ENDBRANCH 15 16
BRANCH 15 18
ATOM     18  CB  TYR B   3      62.646 146.287   0.266  1.00 37.43 LIG 0.07  C 
BRANCH 18 19
ATOM     19  CG  TYR B   3      64.122 146.543   0.077  1.00 38.24 LIG-0.06  A 
ATOM     20  CD2 TYR B   3      65.000 146.539   1.169  1.00 38.70 LIG 0.01  A 
ATOM     21  CE2 TYR B   3      66.361 146.770   0.993  1.00 39.79 LIG 0.04  A 
ATOM     22  CZ  TYR B   3      66.855 147.011  -0.284  1.00 40.15 LIG 0.07  A 
ATOM     23  CE1 TYR B   3      66.003 147.022  -1.386  1.00 39.97 LIG 0.04  A 
ATOM     24  CD1 TYR B   3      64.648 146.788  -1.201  1.00 39.23 LIG 0.01  A 
BRANCH 22 25
ATOM     25 OH   TYR B   3      68.196 147.244  -0.481  1.00 40.04 LIG-0.36  OA
ATOM     26 HH   TYR B   3      68.540 147.520   0.234  1.00 40.04 LIG 0.22  HD
ENDBRANCH 22 25
ENDBRANCH 18 19
ENDBRANCH 15 18
ENDBRANCH 12 15
ENDBRANCH 1 11
BRANCH 1 27
ATOM     27  N   TYR B   2      61.297 150.961   2.778  1.00 25.33 LIG-0.35  N 
ATOM     28  C   TYR B   1      61.124 152.026   1.999  1.00 22.87 LIG 0.25  C 
ATOM     29 O    TYR B   1      61.820 152.266   1.008  1.00 21.86 LIG-0.27  OA
ATOM     30 H    TYR B   2      60.769 150.761   3.426  1.00 25.33 LIG 0.16  HD
BRANCH 28 31
ATOM     31  CA  TYR B   1      59.983 152.958   2.400  1.00 21.88 LIG 0.28  C 
BRANCH 31 32
ATOM     32  CB  TYR B   1      59.638 153.876   1.226  1.00 21.24 LIG 0.08  C 
BRANCH 32 33
ATOM     33  CG  TYR B   1      58.349 154.646   1.386  1.00 20.81 LIG-0.06  A 
ATOM     34  CD1 TYR B   1      57.252 154.080   2.048  1.00 20.37 LIG 0.01  A 
ATOM     35  CE1 TYR B   1      56.064 154.789   2.198  1.00 19.95 LIG 0.04  A 
ATOM     36  CZ  TYR B   1      55.971 156.081   1.678  1.00 20.32 LIG 0.07  A 
ATOM     37  CE2 TYR B   1      57.046 156.661   1.018  1.00 20.63 LIG 0.04  A 
ATOM     38  CD2 TYR B   1      58.225 155.945   0.874  1.00 20.57 LIG 0.01  A 
BRANCH 36 39
ATOM     39 OH   TYR B   1      54.813 156.808   1.813  1.00 20.56 LIG-0.36  OA
ATOM     40 HH   TYR B   1      54.240 156.529   1.266  1.00 20.56 LIG 0.22  HD
ENDBRANCH 36 39
ENDBRANCH 32 33
ENDBRANCH 31 32
BRANCH 31 41
ATOM     41  N   TYR B   1      60.320 153.767   3.611  1.00 21.11 LIG-0.07  N 
ATOM     42 H2   TYR B   1      61.126 153.535   3.909  1.00 21.11 LIG 0.28  HD
ATOM     43 H1   TYR B   1      59.714 153.617   4.246  1.00 21.11 LIG 0.28  HD
ATOM     44 H3   TYR B   1      60.320 154.632   3.400  1.00 21.11 LIG 0.28  HD
ENDBRANCH 31 41
ENDBRANCH 28 31
ENDBRANCH 1 27
TORSDOF 15
ENDMDL
MODEL 4
USER: ADFR SOLUTION from run 98
USER: SCORE 17.696981 LL:  -2.365 LR: -15.720 RR:   0.000 FEB: -11.246
USER: RMSD 9.320473
USER: SEED 97
USER: STATUS no improvement in best in 3 clusters for 5 generations
USER: GENES 17
USER: genes 0 Translation |==|  0.53547 0.57412 0.54766
USER: genes 1 Rotation |==|  0.09129 0.26981 0.57446 0.65629
USER: genes 2 Torsion [C]-CA--CB-[CG] |==|  0.83961
USER: genes 3 Torsion [CA]-CB--CG-[CD2] |==|  0.92561
USER: genes 4 Torsion [CE2]-CZ--OH-[HH] |==|  0.62959
USER: genes 5 Torsion [N]-CA--C-[N] |==|  0.36012
USER: genes 6 Torsion [C]-N--CA-[C] |==|  0.67772
USER: genes 7 Torsion [N]-CA--C-[O] |==|  0.46572
USER: genes 8 Torsion [N]-CA--CB-[CG] |==|  0.74375
USER: genes 9 Torsion [CA]-CB--CG-[CD2] |==|  0.82753
USER: genes 10 Torsion [CE2]-CZ--OH-[HH] |==|  0.45637
USER: genes 11 Torsion [CB]-CA--N-[C] |==|  0.55872
USER: genes 12 Torsion [N]-C--CA-[N] |==|  0.91702
USER: genes 13 Torsion [C]-CA--CB-[CG] |==|  0.98174
USER: genes 14 Torsion [CA]-CB--CG-[CD1] |==|  0.24662
USER: genes 15 Torsion [CE1]-CZ--OH-[HH] |==|  0.15425
USER: genes 16 Torsion [C]-CA--N-[H1] |==|  0.63268
ROOT
ATOM      1  CA  TYR B   2      61.198 150.896   3.270  1.00 28.44 LIG 0.18  C 
ENDROOT
BRANCH 1 2
ATOM      2  CB  TYR B   2      60.020 151.842   3.003  1.00 30.17 LIG 0.07  C 
BRANCH 2 3
ATOM      3  CG  TYR B   2      60.137 152.694   1.749  1.00 31.12 LIG-0.06  A 
ATOM      4  CD2 TYR B   2      61.391 153.039   1.226  1.00 31.81 LIG 0.01  A 
ATOM      5  CE2 TYR B   2      61.501 153.813   0.073  1.00 33.15 LIG 0.04  A 
ATOM      6  CZ  TYR B   2      60.351 154.253  -0.571  1.00 33.29 LIG 0.07  A 
ATOM      7  CE1 TYR B   2      59.087 153.922  -0.077  1.00 33.06 LIG 0.04  A 
ATOM      8  CD1 TYR B   2      58.988 153.145   1.075  1.00 32.67 LIG 0.01  A 
BRANCH 6 9
ATOM      9 OH   TYR B   2      60.463 155.020  -1.702  1.00 34.60 LIG-0.36  OA
ATOM     10 HH   TYR B   2      59.946 155.679  -1.646  1.00 34.60 LIG 0.22  HD
ENDBRANCH 6 9
ENDBRANCH 2 3
ENDBRANCH 1 2
BRANCH 1 11
ATOM     11  C   TYR B   2      61.395 149.960   2.096  1.00 30.52 LIG 0.24  C 
ATOM     12  N   TYR B   3      61.073 148.689   2.320  1.00 32.89 LIG-0.35  N 
ATOM     13 H    TYR B   3      60.807 148.395   3.083  1.00 32.89 LIG 0.16  HD
ATOM     14 O    TYR B   2      61.831 150.381   1.019  1.00 30.24 LIG-0.27  OA
BRANCH 12 15
ATOM     15  CA  TYR B   3      61.141 147.667   1.284  1.00 36.06 LIG 0.17  C 
BRANCH 15 16
ATOM     16  C   TYR B   3      59.755 147.101   0.976  1.00 37.31 LIG 0.22  C 
ATOM     17 O    TYR B   3      59.571 146.395  -0.019  1.00 39.71 LIG-0.29  OA
ENDBRANCH 15 16
BRANCH 15 18
ATOM     18  CB  TYR B   3      62.101 146.549   1.705  1.00 37.43 LIG 0.07  C 
BRANCH 18 19
ATOM     19  CG  TYR B   3      63.518 146.756   1.227  1.00 38.24 LIG-0.06  A 
ATOM     20  CD2 TYR B   3      63.817 146.807  -0.141  1.00 38.70 LIG 0.01  A 
ATOM     21  CE2 TYR B   3      65.123 147.002  -0.580  1.00 39.79 LIG 0.04  A 
ATOM     22  CZ  TYR B   3      66.145 147.145   0.353  1.00 40.15 LIG 0.07  A 
ATOM     23  CE1 TYR B   3      65.874 147.096   1.717  1.00 39.97 LIG 0.04  A 
ATOM     24  CD1 TYR B   3      64.569 146.904   2.146  1.00 39.23 LIG 0.01  A 
BRANCH 22 25
ATOM     25 OH   TYR B   3      67.443 147.336  -0.060  1.00 40.04 LIG-0.36  OA
ATOM     26 HH   TYR B   3      67.903 147.616   0.585  1.00 40.04 LIG 0.22  HD
ENDBRANCH 22 25
ENDBRANCH 18 19
ENDBRANCH 15 18
ENDBRANCH 12 15
ENDBRANCH 1 11
BRANCH 1 27
ATOM     27  N   TYR B   2      62.413 151.666   3.474  1.00 25.33 LIG-0.35  N 
ATOM     28  C   TYR B   1      63.632 151.155   3.321  1.00 22.87 LIG 0.25  C 
ATOM     29 O    TYR B   1      63.845 150.015   2.900  1.00 21.86 LIG-0.27  OA
ATOM     30 H    TYR B   2      62.271 152.483   3.702  1.00 25.33 LIG 0.16  HD
BRANCH 28 31
ATOM     31  CA  TYR B   1      64.787 152.081   3.696  1.00 21.88 LIG 0.28  C 
BRANCH 31 32
ATOM     32  CB  TYR B   1      65.182 151.841   5.154  1.00 21.24 LIG 0.08  C 
BRANCH 32 33
ATOM     33  CG  TYR B   1      64.273 150.900   5.907  1.00 20.81 LIG-0.06  A 
ATOM     34  CD1 TYR B   1      64.510 149.518   5.905  1.00 20.37 LIG 0.01  A 
ATOM     35  CE1 TYR B   1      63.674 148.649   6.599  1.00 19.95 LIG 0.04  A 
ATOM     36  CZ  TYR B   1      62.585 149.167   7.304  1.00 20.32 LIG 0.07  A 
ATOM     37  CE2 TYR B   1      62.333 150.532   7.319  1.00 20.63 LIG 0.04  A 
ATOM     38  CD2 TYR B   1      63.173 151.389   6.623  1.00 20.57 LIG 0.01  A 
BRANCH 36 39
ATOM     39 OH   TYR B   1      61.744 148.335   8.003  1.00 20.56 LIG-0.36  OA
ATOM     40 HH   TYR B   1      62.191 147.878   8.548  1.00 20.56 LIG 0.22  HD
ENDBRANCH 36 39
ENDBRANCH 32 33
ENDBRANCH 31 32
BRANCH 31 41
ATOM     41  N   TYR B   1      64.445 153.520   3.480  1.00 21.11 LIG-0.07  N 
ATOM     42 H2   TYR B   1      63.694 153.579   3.006  1.00 21.11 LIG 0.28  HD
ATOM     43 H1   TYR B   1      65.107 153.920   3.038  1.00 21.11 LIG 0.28  HD
ATOM     44 H3   TYR B   1      64.330 153.920   4.267  1.00 21.11 LIG 0.28  HD
ENDBRANCH 31 41
ENDBRANCH 28 31
ENDBRANCH 1 27
TORSDOF 15
ENDMDL
MODEL 5
USER: ADFR SOLUTION from run 153
USER: SCORE 17.034815 LL:  -2.220 LR: -15.616 RR:   0.000 FEB: -11.141
USER: RMSD 9.196909
USER: SEED 152
USER: STATUS no improvement in best in 8 clusters for 5 generations
USER: GENES 17
USER: genes 0 Translation |==|  0.61384 0.50997 0.50323
USER: genes 1 Rotation |==|  0.63446 0.34607 0.91792 0.68322
USER: genes 2 Torsion [C]-CA--CB-[CG] |==|  0.76444
USER: genes 3 Torsion [CA]-CB--CG-[CD2] |==|  0.16476
USER: genes 4 Torsion [CE2]-CZ--OH-[HH] |==|  0.27688
USER: genes 5 Torsion [N]-CA--C-[N] |==|  0.22516
USER: genes 6 Torsion [C]-N--CA-[C] |==|  0.21792
USER: genes 7 Torsion [N]-CA--C-[O] |==|  0.43859
USER: genes 8 Torsion [N]-CA--CB-[CG] |==|  0.85291
USER: genes 9 Torsion [CA]-CB--CG-[CD2] |==|  0.82114
USER: genes 10 Torsion [CE2]-CZ--OH-[HH] |==|  0.40080
USER: genes 11 Torsion [CB]-CA--N-[C] |==|  0.15328
USER: genes 12 Torsion [N]-C--CA-[N] |==|  0.53778
USER: genes 13 Torsion [C]-CA--CB-[CG] |==|  0.81543
USER: genes 14 Torsion [CA]-CB--CG-[CD1] |==|  0.13125
USER: genes 15 Torsion [CE1]-CZ--OH-[HH] |==|  0.57733
USER: genes 16 Torsion [C]-CA--N-[H1] |==|  0.57858
ROOT
ATOM      1  CA  TYR B   2      63.138 149.597   2.570  1.00 28.44 LIG 0.18  C 
ENDROOT
BRANCH 1 2
ATOM      2  CB  TYR B   2      64.057 149.350   3.772  1.00 30.17 LIG 0.07  C 
BRANCH 2 3
ATOM      3  CG  TYR B   2      63.351 149.105   5.096  1.00 31.12 LIG-0.06  A 
ATOM      4  CD2 TYR B   2      62.458 148.036   5.250  1.00 31.81 LIG 0.01  A 
ATOM      5  CE2 TYR B   2      61.814 147.804   6.464  1.00 33.15 LIG 0.04  A 
ATOM      6  CZ  TYR B   2      62.060 148.645   7.542  1.00 33.29 LIG 0.07  A 
ATOM      7  CE1 TYR B   2      62.949 149.716   7.422  1.00 33.06 LIG 0.04  A 
ATOM      8  CD1 TYR B   2      63.588 149.938   6.205  1.00 32.67 LIG 0.01  A 
BRANCH 6 9
ATOM      9 OH   TYR B   2      61.420 148.417   8.734  1.00 34.60 LIG-0.36  OA
ATOM     10 HH   TYR B   2      61.939 148.014   9.257  1.00 34.60 LIG 0.22  HD
ENDBRANCH 6 9
ENDBRANCH 2 3
ENDBRANCH 1 2
BRANCH 1 11
ATOM     11  C   TYR B   2      62.699 148.279   1.967  1.00 30.52 LIG 0.24  C 
ATOM     12  N   TYR B   3      62.295 148.338   0.701  1.00 32.89 LIG-0.35  N 
ATOM     13 H    TYR B   3      62.244 149.070   0.254  1.00 32.89 LIG 0.16  HD
ATOM     14 O    TYR B   2      62.723 147.240   2.635  1.00 30.24 LIG-0.27  OA
BRANCH 12 15
ATOM     15  CA  TYR B   3      61.899 147.157  -0.054  1.00 36.06 LIG 0.17  C 
BRANCH 15 16
ATOM     16  C   TYR B   3      60.484 146.714   0.316  1.00 37.31 LIG 0.22  C 
ATOM     17 O    TYR B   3      59.819 146.020  -0.459  1.00 39.71 LIG-0.29  OA
ENDBRANCH 15 16
BRANCH 15 18
ATOM     18  CB  TYR B   3      62.900 146.020   0.177  1.00 37.43 LIG 0.07  C 
BRANCH 18 19
ATOM     19  CG  TYR B   3      64.334 146.412  -0.085  1.00 38.24 LIG-0.06  A 
ATOM     20  CD2 TYR B   3      64.758 146.775  -1.370  1.00 38.70 LIG 0.01  A 
ATOM     21  CE2 TYR B   3      66.079 147.142  -1.610  1.00 39.79 LIG 0.04  A 
ATOM     22  CZ  TYR B   3      66.991 147.143  -0.560  1.00 40.15 LIG 0.07  A 
ATOM     23  CE1 TYR B   3      66.595 146.785   0.726  1.00 39.97 LIG 0.04  A 
ATOM     24  CD1 TYR B   3      65.275 146.424   0.956  1.00 39.23 LIG 0.01  A 
BRANCH 22 25
ATOM     25 OH   TYR B   3      68.302 147.499  -0.775  1.00 40.04 LIG-0.36  OA
ATOM     26 HH   TYR B   3      68.592 147.916  -0.106  1.00 40.04 LIG 0.22  HD
ENDBRANCH 22 25
ENDBRANCH 18 19
ENDBRANCH 15 18
ENDBRANCH 12 15
ENDBRANCH 1 11
BRANCH 1 27
ATOM     27  N   TYR B   2      61.963 150.342   2.991  1.00 25.33 LIG-0.35  N 
ATOM     28  C   TYR B   1      62.032 151.509   3.626  1.00 22.87 LIG 0.25  C 
ATOM     29 O    TYR B   1      63.090 152.113   3.830  1.00 21.86 LIG-0.27  OA
ATOM     30 H    TYR B   2      61.220 149.959   2.792  1.00 25.33 LIG 0.16  HD
BRANCH 28 31
ATOM     31  CA  TYR B   1      60.698 152.085   4.096  1.00 21.88 LIG 0.28  C 
BRANCH 31 32
ATOM     32  CB  TYR B   1      59.656 151.928   2.987  1.00 21.24 LIG 0.08  C 
BRANCH 32 33
ATOM     33  CG  TYR B   1      59.924 152.749   1.749  1.00 20.81 LIG-0.06  A 
ATOM     34  CD1 TYR B   1      61.196 152.766   1.161  1.00 20.37 LIG 0.01  A 
ATOM     35  CE1 TYR B   1      61.445 153.520   0.019  1.00 19.95 LIG 0.04  A 
ATOM     36  CZ  TYR B   1      60.409 154.269  -0.544  1.00 20.32 LIG 0.07  A 
ATOM     37  CE2 TYR B   1      59.141 154.266   0.022  1.00 20.63 LIG 0.04  A 
ATOM     38  CD2 TYR B   1      58.905 153.510   1.162  1.00 20.57 LIG 0.01  A 
BRANCH 36 39
ATOM     39 OH   TYR B   1      60.622 155.020  -1.674  1.00 20.56 LIG-0.36  OA
ATOM     40 HH   TYR B   1      60.092 155.672  -1.682  1.00 20.56 LIG 0.22  HD
ENDBRANCH 36 39
ENDBRANCH 32 33
ENDBRANCH 31 32
BRANCH 31 41
ATOM     41  N   TYR B   1      60.818 153.520   4.499  1.00 21.11 LIG-0.07  N 
ATOM     42 H2   TYR B   1      61.630 153.668   4.833  1.00 21.11 LIG 0.28  HD
ATOM     43 H1   TYR B   1      60.204 153.707   5.116  1.00 21.11 LIG 0.28  HD
ATOM     44 H3   TYR B   1      60.691 154.040   3.787  1.00 21.11 LIG 0.28  HD
ENDBRANCH 31 41
ENDBRANCH 28 31
ENDBRANCH 1 27
TORSDOF 15
ENDMDL
MODEL 6
USER: ADFR SOLUTION from run 58
USER: SCORE 17.203157 LL:  -1.993 LR: -15.551 RR:   0.000 FEB: -11.076
USER: RMSD 8.402370
USER: SEED 57
USER: STATUS no improvement in best in 2 clusters for 5 generations
USER: GENES 17
USER: genes 0 Translation |==|  0.47628 0.46543 0.55000
USER: genes 1 Rotation |==|  0.23289 0.10316 0.58905 0.61509
USER: genes 2 Torsion [C]-CA--CB-[CG] |==|  0.27054
USER: genes 3 Torsion [CA]-CB--CG-[CD2] |==|  0.37360
USER: genes 4 Torsion [CE2]-CZ--OH-[HH] |==|  0.24983
USER: genes 5 Torsion [N]-CA--C-[N] |==|  0.42480
USER: genes 6 Torsion [C]-N--CA-[C] |==|  0.69674
USER: genes 7 Torsion [N]-CA--C-[O] |==|  0.06724
USER: genes 8 Torsion [N]-CA--CB-[CG] |==|  0.62505
USER: genes 9 Torsion [CA]-CB--CG-[CD2] |==|  0.89099
USER: genes 10 Torsion [CE2]-CZ--OH-[HH] |==|  0.42622
USER: genes 11 Torsion [CB]-CA--N-[C] |==|  0.52779
USER: genes 12 Torsion [N]-C--CA-[N] |==|  0.56070
USER: genes 13 Torsion [C]-CA--CB-[CG] |==|  0.78821
USER: genes 14 Torsion [CA]-CB--CG-[CD1] |==|  0.03074
USER: genes 15 Torsion [CE1]-CZ--OH-[HH] |==|  0.56571
USER: genes 16 Torsion [C]-CA--N-[H1] |==|  0.51190
ROOT
ATOM      1  CA  TYR B   2      59.733 148.695   3.307  1.00 28.44 LIG 0.18  C 
ENDROOT
BRANCH 1 2
ATOM      2  CB  TYR B   2      58.285 148.450   2.863  1.00 30.17 LIG 0.07  C 
BRANCH 2 3
ATOM      3  CG  TYR B   2      57.719 147.081   3.205  1.00 31.12 LIG-0.06  A 
ATOM      4  CD2 TYR B   2      56.438 146.948   3.758  1.00 31.81 LIG 0.01  A 
ATOM      5  CE2 TYR B   2      55.913 145.695   4.066  1.00 33.15 LIG 0.04  A 
ATOM      6  CZ  TYR B   2      56.671 144.555   3.823  1.00 33.29 LIG 0.07  A 
ATOM      7  CE1 TYR B   2      57.948 144.654   3.269  1.00 33.06 LIG 0.04  A 
ATOM      8  CD1 TYR B   2      58.463 145.912   2.963  1.00 32.67 LIG 0.01  A 
BRANCH 6 9
ATOM      9 OH   TYR B   2      56.153 143.323   4.133  1.00 34.60 LIG-0.36  OA
ATOM     10 HH   TYR B   2      55.736 143.020   3.471  1.00 34.60 LIG 0.22  HD
ENDBRANCH 6 9
ENDBRANCH 2 3
ENDBRANCH 1 2
BRANCH 1 11
ATOM     11  C   TYR B   2      60.684 148.448   2.154  1.00 30.52 LIG 0.24  C 
ATOM     12  N   TYR B   3      61.077 147.187   2.000  1.00 32.89 LIG-0.35  N 
ATOM     13 H    TYR B   3      60.848 146.551   2.532  1.00 32.89 LIG 0.16  HD
ATOM     14 O    TYR B   2      61.052 149.378   1.429  1.00 30.24 LIG-0.27  OA
BRANCH 12 15
ATOM     15  CA  TYR B   3      61.940 146.760   0.907  1.00 36.06 LIG 0.17  C 
BRANCH 15 16
ATOM     16  C   TYR B   3      61.170 145.914  -0.106  1.00 37.31 LIG 0.22  C 
ATOM     17 O    TYR B   3      59.945 146.022  -0.213  1.00 39.71 LIG-0.29  OA
ENDBRANCH 15 16
BRANCH 15 18
ATOM     18  CB  TYR B   3      63.145 145.988   1.453  1.00 37.43 LIG 0.07  C 
BRANCH 18 19
ATOM     19  CG  TYR B   3      64.459 146.394   0.830  1.00 38.24 LIG-0.06  A 
ATOM     20  CD2 TYR B   3      64.549 146.683  -0.538  1.00 38.70 LIG 0.01  A 
ATOM     21  CE2 TYR B   3      65.760 147.062  -1.110  1.00 39.79 LIG 0.04  A 
ATOM     22  CZ  TYR B   3      66.895 147.152  -0.312  1.00 40.15 LIG 0.07  A 
ATOM     23  CE1 TYR B   3      66.833 146.869   1.049  1.00 39.97 LIG 0.04  A 
ATOM     24  CD1 TYR B   3      65.621 146.494   1.611  1.00 39.23 LIG 0.01  A 
BRANCH 22 25
ATOM     25 OH   TYR B   3      68.103 147.523  -0.857  1.00 40.04 LIG-0.36  OA
ATOM     26 HH   TYR B   3      68.580 147.879  -0.265  1.00 40.04 LIG 0.22  HD
ENDBRANCH 22 25
ENDBRANCH 18 19
ENDBRANCH 15 18
ENDBRANCH 12 15
ENDBRANCH 1 11
BRANCH 1 27
ATOM     27  N   TYR B   2      59.883 150.067   3.763  1.00 25.33 LIG-0.35  N 
ATOM     28  C   TYR B   1      61.064 150.620   4.024  1.00 22.87 LIG 0.25  C 
ATOM     29 O    TYR B   1      62.143 150.058   3.813  1.00 21.86 LIG-0.27  OA
ATOM     30 H    TYR B   2      59.138 150.487   3.847  1.00 25.33 LIG 0.16  HD
BRANCH 28 31
ATOM     31  CA  TYR B   1      61.018 152.031   4.607  1.00 21.88 LIG 0.28  C 
BRANCH 31 32
ATOM     32  CB  TYR B   1      59.848 152.800   3.991  1.00 21.24 LIG 0.08  C 
BRANCH 32 33
ATOM     33  CG  TYR B   1      60.086 153.286   2.582  1.00 20.81 LIG-0.06  A 
ATOM     34  CD1 TYR B   1      61.192 152.841   1.845  1.00 20.37 LIG 0.01  A 
ATOM     35  CE1 TYR B   1      61.413 153.286   0.546  1.00 19.95 LIG 0.04  A 
ATOM     36  CZ  TYR B   1      60.515 154.190  -0.027  1.00 20.32 LIG 0.07  A 
ATOM     37  CE2 TYR B   1      59.413 154.644   0.685  1.00 20.63 LIG 0.04  A 
ATOM     38  CD2 TYR B   1      59.203 154.193   1.980  1.00 20.57 LIG 0.01  A 
BRANCH 36 39
ATOM     39 OH   TYR B   1      60.703 154.645  -1.309  1.00 20.56 LIG-0.36  OA
ATOM     40 HH   TYR B   1      60.314 155.383  -1.404  1.00 20.56 LIG 0.22  HD
ENDBRANCH 36 39
ENDBRANCH 32 33
ENDBRANCH 31 32
BRANCH 31 41
ATOM     41  N   TYR B   1      62.299 152.770   4.390  1.00 21.11 LIG-0.07  N 
ATOM     42 H2   TYR B   1      62.975 152.299   4.727  1.00 21.11 LIG 0.28  HD
ATOM     43 H1   TYR B   1      62.257 153.562   4.795  1.00 21.11 LIG 0.28  HD
ATOM     44 H3   TYR B   1      62.428 152.890   3.517  1.00 21.11 LIG 0.28  HD
ENDBRANCH 31 41
ENDBRANCH 28 31
ENDBRANCH 1 27
TORSDOF 15
ENDMDL
MODEL 7
USER: ADFR SOLUTION from run 122
USER: SCORE 16.661909 LL:  -2.262 LR: -15.203 RR:   0.000 FEB: -10.729
USER: RMSD 6.617630
USER: SEED 121
USER: STATUS no improvement in best in 12 clusters for 5 generations
USER: GENES 17
USER: genes 0 Translation |==|  0.57317 0.59237 0.49232
USER: genes 1 Rotation |==|  0.61036 0.28392 0.60380 0.92468
USER: genes 2 Torsion [C]-CA--CB-[CG] |==|  0.20110
USER: genes 3 Torsion [CA]-CB--CG-[CD2] |==|  0.68800
USER: genes 4 Torsion [CE2]-CZ--OH-[HH] |==|  0.67405
USER: genes 5 Torsion [N]-CA--C-[N] |==|  0.22777
USER: genes 6 Torsion [C]-N--CA-[C] |==|  0.50896
USER: genes 7 Torsion [N]-CA--C-[O] |==|  0.11340
USER: genes 8 Torsion [N]-CA--CB-[CG] |==|  0.43945
USER: genes 9 Torsion [CA]-CB--CG-[CD2] |==|  0.11139
USER: genes 10 Torsion [CE2]-CZ--OH-[HH] |==|  0.75774
USER: genes 11 Torsion [CB]-CA--N-[C] |==|  0.16448
USER: genes 12 Torsion [N]-C--CA-[N] |==|  0.97526
USER: genes 13 Torsion [C]-CA--CB-[CG] |==|  0.93128
USER: genes 14 Torsion [CA]-CB--CG-[CD1] |==|  0.76954
USER: genes 15 Torsion [CE1]-CZ--OH-[HH] |==|  0.77900
USER: genes 16 Torsion [C]-CA--N-[H1] |==|  0.13742
ROOT
ATOM      1  CA  TYR B   2      62.131 151.265   2.398  1.00 28.44 LIG 0.18  C 
ENDROOT
BRANCH 1 2
ATOM      2  CB  TYR B   2      61.983 149.849   2.969  1.00 30.17 LIG 0.07  C 
BRANCH 2 3
ATOM      3  CG  TYR B   2      61.398 148.818   2.017  1.00 31.12 LIG-0.06  A 
ATOM      4  CD2 TYR B   2      60.132 148.261   2.247  1.00 31.81 LIG 0.01  A 
ATOM      5  CE2 TYR B   2      59.590 147.321   1.373  1.00 33.15 LIG 0.04  A 
ATOM      6  CZ  TYR B   2      60.314 146.928   0.254  1.00 33.29 LIG 0.07  A 
ATOM      7  CE1 TYR B   2      61.575 147.468  -0.006  1.00 33.06 LIG 0.04  A 
ATOM      8  CD1 TYR B   2      62.107 148.408   0.874  1.00 32.67 LIG 0.01  A 
BRANCH 6 9
ATOM      9 OH   TYR B   2      59.779 145.998  -0.602  1.00 34.60 LIG-0.36  OA
ATOM     10 HH   TYR B   2      60.266 145.313  -0.610  1.00 34.60 LIG 0.22  HD
ENDBRANCH 6 9
ENDBRANCH 2 3
ENDBRANCH 1 2
BRANCH 1 11
ATOM     11  C   TYR B   2      60.773 151.921   2.263  1.00 30.52 LIG 0.24  C 
ATOM     12  N   TYR B   3      60.703 152.912   1.379  1.00 32.89 LIG-0.35  N 
ATOM     13 H    TYR B   3      61.381 153.198   0.934  1.00 32.89 LIG 0.16  HD
ATOM     14 O    TYR B   2      59.817 151.540   2.948  1.00 30.24 LIG-0.27  OA
BRANCH 12 15
ATOM     15  CA  TYR B   3      59.461 153.610   1.077  1.00 36.06 LIG 0.17  C 
BRANCH 15 16
ATOM     16  C   TYR B   3      59.664 154.644  -0.031  1.00 37.31 LIG 0.22  C 
ATOM     17 O    TYR B   3      60.370 154.385  -1.010  1.00 39.71 LIG-0.29  OA
ENDBRANCH 15 16
BRANCH 15 18
ATOM     18  CB  TYR B   3      58.905 154.274   2.341  1.00 37.43 LIG 0.07  C 
BRANCH 18 19
ATOM     19  CG  TYR B   3      57.956 155.414   2.060  1.00 38.24 LIG-0.06  A 
ATOM     20  CD2 TYR B   3      57.019 155.332   1.022  1.00 38.70 LIG 0.01  A 
ATOM     21  CE2 TYR B   3      56.141 156.382   0.768  1.00 39.79 LIG 0.04  A 
ATOM     22  CZ  TYR B   3      56.197 157.527   1.554  1.00 40.15 LIG 0.07  A 
ATOM     23  CE1 TYR B   3      57.120 157.634   2.590  1.00 39.97 LIG 0.04  A 
ATOM     24  CD1 TYR B   3      57.990 156.581   2.838  1.00 39.23 LIG 0.01  A 
BRANCH 22 25
ATOM     25 OH   TYR B   3      55.341 158.578   1.318  1.00 40.04 LIG-0.36  OA
ATOM     26 HH   TYR B   3      55.676 159.089   0.742  1.00 40.04 LIG 0.22  HD
ENDBRANCH 22 25
ENDBRANCH 18 19
ENDBRANCH 15 18
ENDBRANCH 12 15
ENDBRANCH 1 11
BRANCH 1 27
ATOM     27  N   TYR B   2      62.962 152.068   3.280  1.00 25.33 LIG-0.35  N 
ATOM     28  C   TYR B   1      64.216 151.748   3.587  1.00 22.87 LIG 0.25  C 
ATOM     29 O    TYR B   1      64.821 150.798   3.082  1.00 21.86 LIG-0.27  OA
ATOM     30 H    TYR B   2      62.568 152.770   3.583  1.00 25.33 LIG 0.16  HD
BRANCH 28 31
ATOM     31  CA  TYR B   1      64.892 152.645   4.622  1.00 21.88 LIG 0.28  C 
BRANCH 31 32
ATOM     32  CB  TYR B   1      65.166 151.841   5.894  1.00 21.24 LIG 0.08  C 
BRANCH 32 33
ATOM     33  CG  TYR B   1      64.259 150.651   6.096  1.00 20.81 LIG-0.06  A 
ATOM     34  CD1 TYR B   1      62.988 150.805   6.667  1.00 20.37 LIG 0.01  A 
ATOM     35  CE1 TYR B   1      62.150 149.710   6.852  1.00 19.95 LIG 0.04  A 
ATOM     36  CZ  TYR B   1      62.588 148.443   6.463  1.00 20.32 LIG 0.07  A 
ATOM     37  CE2 TYR B   1      63.843 148.268   5.895  1.00 20.63 LIG 0.04  A 
ATOM     38  CD2 TYR B   1      64.670 149.367   5.716  1.00 20.57 LIG 0.01  A 
BRANCH 36 39
ATOM     39 OH   TYR B   1      61.782 147.343   6.629  1.00 20.56 LIG-0.36  OA
ATOM     40 HH   TYR B   1      61.817 147.087   7.428  1.00 20.56 LIG 0.22  HD
ENDBRANCH 36 39
ENDBRANCH 32 33
ENDBRANCH 31 32
BRANCH 31 41
ATOM     41  N   TYR B   1      64.070 153.853   4.937  1.00 21.11 LIG-0.07  N 
ATOM     42 H2   TYR B   1      64.414 154.270   5.645  1.00 21.11 LIG 0.28  HD
ATOM     43 H1   TYR B   1      63.234 153.605   5.116  1.00 21.11 LIG 0.28  HD
ATOM     44 H3   TYR B   1      64.073 154.405   4.239  1.00 21.11 LIG 0.28  HD
ENDBRANCH 31 41
ENDBRANCH 28 31
ENDBRANCH 1 27
TORSDOF 15
ENDMDL
MODEL 8
USER: ADFR SOLUTION from run 8
USER: SCORE 17.066830 LL:  -2.269 LR: -15.053 RR:   0.000 FEB: -10.578
USER: RMSD 10.209299
USER: SEED 43141
USER: STATUS no improvement in best in 7 clusters for 5 generations
USER: GENES 17
USER: genes 0 Translation |==|  0.58268 0.49462 0.53350
USER: genes 1 Rotation |==|  0.88446 0.42369 0.80246 0.56989
USER: genes 2 Torsion [C]-CA--CB-[CG] |==|  0.53649
USER: genes 3 Torsion [CA]-CB--CG-[CD2] |==|  0.28777
USER: genes 4 Torsion [CE2]-CZ--OH-[HH] |==|  0.49036
USER: genes 5 Torsion [N]-CA--C-[N] |==|  0.44962
USER: genes 6 Torsion [C]-N--CA-[C] |==|  0.19621
USER: genes 7 Torsion [N]-CA--C-[O] |==|  0.37114
USER: genes 8 Torsion [N]-CA--CB-[CG] |==|  0.82479
USER: genes 9 Torsion [CA]-CB--CG-[CD2] |==|  0.33487
USER: genes 10 Torsion [CE2]-CZ--OH-[HH] |==|  0.95725
USER: genes 11 Torsion [CB]-CA--N-[C] |==|  0.83889
USER: genes 12 Torsion [N]-C--CA-[N] |==|  0.77142
USER: genes 13 Torsion [C]-CA--CB-[CG] |==|  0.36672
USER: genes 14 Torsion [CA]-CB--CG-[CD1] |==|  0.17004
USER: genes 15 Torsion [CE1]-CZ--OH-[HH] |==|  0.81974
USER: genes 16 Torsion [C]-CA--N-[H1] |==|  0.30614
ROOT
ATOM      1  CA  TYR B   2      62.366 149.286   3.047  1.00 28.44 LIG 0.18  C 
ENDROOT
BRANCH 1 2
ATOM      2  CB  TYR B   2      63.841 149.684   2.904  1.00 30.17 LIG 0.07  C 
BRANCH 2 3
ATOM      3  CG  TYR B   2      64.328 150.747   3.876  1.00 31.12 LIG-0.06  A 
ATOM      4  CD2 TYR B   2      65.116 150.405   4.984  1.00 31.81 LIG 0.01  A 
ATOM      5  CE2 TYR B   2      65.570 151.376   5.873  1.00 33.15 LIG 0.04  A 
ATOM      6  CZ  TYR B   2      65.237 152.709   5.660  1.00 33.29 LIG 0.07  A 
ATOM      7  CE1 TYR B   2      64.459 153.083   4.563  1.00 33.06 LIG 0.04  A 
ATOM      8  CD1 TYR B   2      64.011 152.103   3.680  1.00 32.67 LIG 0.01  A 
BRANCH 6 9
ATOM      9 OH   TYR B   2      65.681 153.663   6.541  1.00 34.60 LIG-0.36  OA
ATOM     10 HH   TYR B   2      65.450 154.423   6.269  1.00 34.60 LIG 0.22  HD
ENDBRANCH 6 9
ENDBRANCH 2 3
ENDBRANCH 1 2
BRANCH 1 11
ATOM     11  C   TYR B   2      62.088 148.019   2.265  1.00 30.52 LIG 0.24  C 
ATOM     12  N   TYR B   3      61.969 148.175   0.950  1.00 32.89 LIG-0.35  N 
ATOM     13 H    TYR B   3      62.007 148.940   0.558  1.00 32.89 LIG 0.16  HD
ATOM     14 O    TYR B   2      61.979 146.932   2.842  1.00 30.24 LIG-0.27  OA
BRANCH 12 15
ATOM     15  CA  TYR B   3      61.763 147.056   0.040  1.00 36.06 LIG 0.17  C 
BRANCH 15 16
ATOM     16  C   TYR B   3      60.362 146.468   0.198  1.00 37.31 LIG 0.22  C 
ATOM     17 O    TYR B   3      59.671 146.215  -0.794  1.00 39.71 LIG-0.29  OA
ENDBRANCH 15 16
BRANCH 15 18
ATOM     18  CB  TYR B   3      62.831 145.982   0.272  1.00 37.43 LIG 0.07  C 
BRANCH 18 19
ATOM     19  CG  TYR B   3      64.236 146.451  -0.018  1.00 38.24 LIG-0.06  A 
ATOM     20  CD2 TYR B   3      65.222 146.434   0.978  1.00 38.70 LIG 0.01  A 
ATOM     21  CE2 TYR B   3      66.518 146.862   0.708  1.00 39.79 LIG 0.04  A 
ATOM     22  CZ  TYR B   3      66.838 147.315  -0.568  1.00 40.15 LIG 0.07  A 
ATOM     23  CE1 TYR B   3      65.877 147.343  -1.574  1.00 39.97 LIG 0.04  A 
ATOM     24  CD1 TYR B   3      64.588 146.912  -1.296  1.00 39.23 LIG 0.01  A 
BRANCH 22 25
ATOM     25 OH   TYR B   3      68.113 147.745  -0.856  1.00 40.04 LIG-0.36  OA
ATOM     26 HH   TYR B   3      68.531 147.879  -0.141  1.00 40.04 LIG 0.22  HD
ENDBRANCH 22 25
ENDBRANCH 18 19
ENDBRANCH 15 18
ENDBRANCH 12 15
ENDBRANCH 1 11
BRANCH 1 27
ATOM     27  N   TYR B   2      62.049 149.061   4.447  1.00 25.33 LIG-0.35  N 
ATOM     28  C   TYR B   1      62.684 148.169   5.202  1.00 22.87 LIG 0.25  C 
ATOM     29 O    TYR B   1      63.661 147.521   4.816  1.00 21.86 LIG-0.27  OA
ATOM     30 H    TYR B   2      61.412 149.559   4.742  1.00 25.33 LIG 0.16  HD
BRANCH 28 31
ATOM     31  CA  TYR B   1      62.133 147.989   6.615  1.00 21.88 LIG 0.28  C 
BRANCH 31 32
ATOM     32  CB  TYR B   1      60.603 148.011   6.573  1.00 21.24 LIG 0.08  C 
BRANCH 32 33
ATOM     33  CG  TYR B   1      59.936 146.890   7.332  1.00 20.81 LIG-0.06  A 
ATOM     34  CD1 TYR B   1      60.122 146.748   8.714  1.00 20.37 LIG 0.01  A 
ATOM     35  CE1 TYR B   1      59.507 145.717   9.416  1.00 19.95 LIG 0.04  A 
ATOM     36  CZ  TYR B   1      58.693 144.814   8.728  1.00 20.32 LIG 0.07  A 
ATOM     37  CE2 TYR B   1      58.494 144.937   7.360  1.00 20.63 LIG 0.04  A 
ATOM     38  CD2 TYR B   1      59.114 145.969   6.670  1.00 20.57 LIG 0.01  A 
BRANCH 36 39
ATOM     39 OH   TYR B   1      58.068 143.787   9.393  1.00 20.56 LIG-0.36  OA
ATOM     40 HH   TYR B   1      58.645 143.260   9.701  1.00 20.56 LIG 0.22  HD
ENDBRANCH 36 39
ENDBRANCH 32 33
ENDBRANCH 31 32
BRANCH 31 41
ATOM     41  N   TYR B   1      62.642 149.035   7.553  1.00 21.11 LIG-0.07  N 
ATOM     42 H2   TYR B   1      62.963 148.646   8.287  1.00 21.11 LIG 0.28  HD
ATOM     43 H1   TYR B   1      61.978 149.584   7.775  1.00 21.11 LIG 0.28  HD
ATOM     44 H3   TYR B   1      63.291 149.499   7.157  1.00 21.11 LIG 0.28  HD
ENDBRANCH 31 41
ENDBRANCH 28 31
ENDBRANCH 1 27
TORSDOF 15
ENDMDL
MODEL 9
USER: ADFR SOLUTION from run 126
USER: SCORE 17.386246 LL:  -2.671 LR: -15.040 RR:   0.000 FEB: -10.565
USER: RMSD 8.970156
USER: SEED 125
USER: STATUS no improvement in best in 5 clusters for 5 generations
USER: GENES 17
USER: genes 0 Translation |==|  0.54612 0.43181 0.52093
USER: genes 1 Rotation |==|  0.76840 0.90191 0.59183 0.58944
USER: genes 2 Torsion [C]-CA--CB-[CG] |==|  0.02537
USER: genes 3 Torsion [CA]-CB--CG-[CD2] |==|  0.16530
USER: genes 4 Torsion [CE2]-CZ--OH-[HH] |==|  0.65961
USER: genes 5 Torsion [N]-CA--C-[N] |==|  0.85000
USER: genes 6 Torsion [C]-N--CA-[C] |==|  0.14899
USER: genes 7 Torsion [N]-CA--C-[O] |==|  0.25994
USER: genes 8 Torsion [N]-CA--CB-[CG] |==|  0.82859
USER: genes 9 Torsion [CA]-CB--CG-[CD2] |==|  0.80266
USER: genes 10 Torsion [CE2]-CZ--OH-[HH] |==|  0.95923
USER: genes 11 Torsion [CB]-CA--N-[C] |==|  0.86012
USER: genes 12 Torsion [N]-C--CA-[N] |==|  0.38737
USER: genes 13 Torsion [C]-CA--CB-[CG] |==|  0.78873
USER: genes 14 Torsion [CA]-CB--CG-[CD1] |==|  0.51369
USER: genes 15 Torsion [CE1]-CZ--OH-[HH] |==|  0.41988
USER: genes 16 Torsion [C]-CA--N-[H1] |==|  0.01224
ROOT
ATOM      1  CA  TYR B   2      61.461 148.014   2.849  1.00 28.44 LIG 0.18  C 
ENDROOT
BRANCH 1 2
ATOM      2  CB  TYR B   2      61.207 147.943   1.338  1.00 30.17 LIG 0.07  C 
BRANCH 2 3
ATOM      3  CG  TYR B   2      62.389 147.487   0.497  1.00 31.12 LIG-0.06  A 
ATOM      4  CD2 TYR B   2      62.977 146.231   0.701  1.00 31.81 LIG 0.01  A 
ATOM      5  CE2 TYR B   2      64.055 145.806  -0.072  1.00 33.15 LIG 0.04  A 
ATOM      6  CZ  TYR B   2      64.559 146.640  -1.064  1.00 33.29 LIG 0.07  A 
ATOM      7  CE1 TYR B   2      63.992 147.895  -1.295  1.00 33.06 LIG 0.04  A 
ATOM      8  CD1 TYR B   2      62.913 148.309  -0.517  1.00 32.67 LIG 0.01  A 
BRANCH 6 9
ATOM      9 OH   TYR B   2      65.624 146.221  -1.819  1.00 34.60 LIG-0.36  OA
ATOM     10 HH   TYR B   2      66.253 146.774  -1.748  1.00 34.60 LIG 0.22  HD
ENDBRANCH 6 9
ENDBRANCH 2 3
ENDBRANCH 1 2
BRANCH 1 11
ATOM     11  C   TYR B   2      62.934 147.817   3.143  1.00 30.52 LIG 0.24  C 
ATOM     12  N   TYR B   3      63.736 148.786   2.711  1.00 32.89 LIG-0.35  N 
ATOM     13 H    TYR B   3      63.459 149.465   2.261  1.00 32.89 LIG 0.16  HD
ATOM     14 O    TYR B   2      63.329 146.811   3.740  1.00 30.24 LIG-0.27  OA
BRANCH 12 15
ATOM     15  CA  TYR B   3      65.171 148.790   2.962  1.00 36.06 LIG 0.17  C 
BRANCH 15 16
ATOM     16  C   TYR B   3      65.815 147.483   2.500  1.00 37.31 LIG 0.22  C 
ATOM     17 O    TYR B   3      66.306 147.389   1.372  1.00 39.71 LIG-0.29  OA
ENDBRANCH 15 16
BRANCH 15 18
ATOM     18  CB  TYR B   3      65.448 149.034   4.449  1.00 37.43 LIG 0.07  C 
BRANCH 18 19
ATOM     19  CG  TYR B   3      64.946 150.367   4.948  1.00 38.24 LIG-0.06  A 
ATOM     20  CD2 TYR B   3      65.570 151.562   4.566  1.00 38.70 LIG 0.01  A 
ATOM     21  CE2 TYR B   3      65.103 152.791   5.022  1.00 39.79 LIG 0.04  A 
ATOM     22  CZ  TYR B   3      64.004 152.832   5.873  1.00 40.15 LIG 0.07  A 
ATOM     23  CE1 TYR B   3      63.366 151.660   6.269  1.00 39.97 LIG 0.04  A 
ATOM     24  CD1 TYR B   3      63.838 150.439   5.807  1.00 39.23 LIG 0.01  A 
BRANCH 22 25
ATOM     25 OH   TYR B   3      63.527 154.036   6.338  1.00 40.04 LIG-0.36  OA
ATOM     26 HH   TYR B   3      64.099 154.635   6.201  1.00 40.04 LIG 0.22  HD
ENDBRANCH 22 25
ENDBRANCH 18 19
ENDBRANCH 15 18
ENDBRANCH 12 15
ENDBRANCH 1 11
BRANCH 1 27
ATOM     27  N   TYR B   2      61.042 149.309   3.359  1.00 25.33 LIG-0.35  N 
ATOM     28  C   TYR B   1      61.419 150.462   2.813  1.00 22.87 LIG 0.25  C 
ATOM     29 O    TYR B   1      62.076 150.541   1.771  1.00 21.86 LIG-0.27  OA
ATOM     30 H    TYR B   2      60.528 149.259   4.047  1.00 25.33 LIG 0.16  HD
BRANCH 28 31
ATOM     31  CA  TYR B   1      60.978 151.720   3.558  1.00 21.88 LIG 0.28  C 
BRANCH 31 32
ATOM     32  CB  TYR B   1      59.714 152.282   2.906  1.00 21.24 LIG 0.08  C 
BRANCH 32 33
ATOM     33  CG  TYR B   1      59.946 153.011   1.605  1.00 20.81 LIG-0.06  A 
ATOM     34  CD1 TYR B   1      58.894 153.666   0.950  1.00 20.37 LIG 0.01  A 
ATOM     35  CE1 TYR B   1      59.106 154.340  -0.248  1.00 19.95 LIG 0.04  A 
ATOM     36  CZ  TYR B   1      60.388 154.360  -0.802  1.00 20.32 LIG 0.07  A 
ATOM     37  CE2 TYR B   1      61.445 153.718  -0.170  1.00 20.63 LIG 0.04  A 
ATOM     38  CD2 TYR B   1      61.221 153.049   1.025  1.00 20.57 LIG 0.01  A 
BRANCH 36 39
ATOM     39 OH   TYR B   1      60.631 155.020  -1.981  1.00 20.56 LIG-0.36  OA
ATOM     40 HH   TYR B   1      61.427 155.288  -1.994  1.00 20.56 LIG 0.22  HD
ENDBRANCH 36 39
ENDBRANCH 32 33
ENDBRANCH 31 32
BRANCH 31 41
ATOM     41  N   TYR B   1      62.053 152.758   3.590  1.00 21.11 LIG-0.07  N 
ATOM     42 H2   TYR B   1      61.741 153.520   3.249  1.00 21.11 LIG 0.28  HD
ATOM     43 H1   TYR B   1      62.748 152.481   3.108  1.00 21.11 LIG 0.28  HD
ATOM     44 H3   TYR B   1      62.311 152.894   4.431  1.00 21.11 LIG 0.28  HD
ENDBRANCH 31 41
ENDBRANCH 28 31
ENDBRANCH 1 27
TORSDOF 15
ENDMDL
MODEL 10
USER: ADFR SOLUTION from run 122
USER: SCORE 16.909879 LL:  -2.009 LR: -14.947 RR:   0.000 FEB: -10.473
USER: RMSD 8.104185
USER: SEED 121
USER: STATUS no improvement in best in 12 clusters for 5 generations
USER: GENES 17
USER: genes 0 Translation |==|  0.60186 0.60043 0.52404
USER: genes 1 Rotation |==|  0.61265 0.18176 0.68705 0.81787
USER: genes 2 Torsion [C]-CA--CB-[CG] |==|  0.30933
USER: genes 3 Torsion [CA]-CB--CG-[CD2] |==|  0.72905
USER: genes 4 Torsion [CE2]-CZ--OH-[HH] |==|  0.37864
USER: genes 5 Torsion [N]-CA--C-[N] |==|  0.11169
USER: genes 6 Torsion [C]-N--CA-[C] |==|  0.73602
USER: genes 7 Torsion [N]-CA--C-[O] |==|  0.53335
USER: genes 8 Torsion [N]-CA--CB-[CG] |==|  0.63949
USER: genes 9 Torsion [CA]-CB--CG-[CD2] |==|  0.15995
USER: genes 10 Torsion [CE2]-CZ--OH-[HH] |==|  0.51992
USER: genes 11 Torsion [CB]-CA--N-[C] |==|  0.15238
USER: genes 12 Torsion [N]-C--CA-[N] |==|  0.82457
USER: genes 13 Torsion [C]-CA--CB-[CG] |==|  0.20790
USER: genes 14 Torsion [CA]-CB--CG-[CD1] |==|  0.83039
USER: genes 15 Torsion [CE1]-CZ--OH-[HH] |==|  0.09836
USER: genes 16 Torsion [C]-CA--N-[H1] |==|  0.30626
ROOT
ATOM      1  CA  TYR B   2      62.841 151.429   2.898  1.00 28.44 LIG 0.18  C 
ENDROOT
BRANCH 1 2
ATOM      2  CB  TYR B   2      62.804 149.961   3.343  1.00 30.17 LIG 0.07  C 
BRANCH 2 3
ATOM      3  CG  TYR B   2      63.917 149.083   2.795  1.00 31.12 LIG-0.06  A 
ATOM      4  CD2 TYR B   2      63.708 148.273   1.669  1.00 31.81 LIG 0.01  A 
ATOM      5  CE2 TYR B   2      64.728 147.473   1.159  1.00 33.15 LIG 0.04  A 
ATOM      6  CZ  TYR B   2      65.974 147.474   1.775  1.00 33.29 LIG 0.07  A 
ATOM      7  CE1 TYR B   2      66.215 148.273   2.894  1.00 33.06 LIG 0.04  A 
ATOM      8  CD1 TYR B   2      65.189 149.072   3.395  1.00 32.67 LIG 0.01  A 
BRANCH 6 9
ATOM      9 OH   TYR B   2      66.973 146.680   1.274  1.00 34.60 LIG-0.36  OA
ATOM     10 HH   TYR B   2      67.692 147.113   1.254  1.00 34.60 LIG 0.22  HD
ENDBRANCH 6 9
ENDBRANCH 2 3
ENDBRANCH 1 2
BRANCH 1 11
ATOM     11  C   TYR B   2      61.676 151.726   1.977  1.00 30.52 LIG 0.24  C 
ATOM     12  N   TYR B   3      61.370 153.013   1.843  1.00 32.89 LIG-0.35  N 
ATOM     13 H    TYR B   3      61.770 153.643   2.271  1.00 32.89 LIG 0.16  HD
ATOM     14 O    TYR B   2      61.070 150.811   1.409  1.00 30.24 LIG-0.27  OA
BRANCH 12 15
ATOM     15  CA  TYR B   3      60.320 153.483   0.950  1.00 36.06 LIG 0.17  C 
BRANCH 15 16
ATOM     16  C   TYR B   3      60.892 153.895  -0.407  1.00 37.31 LIG 0.22  C 
ATOM     17 O    TYR B   3      60.202 154.521  -1.216  1.00 39.71 LIG-0.29  OA
ENDBRANCH 15 16
BRANCH 15 18
ATOM     18  CB  TYR B   3      59.559 154.647   1.592  1.00 37.43 LIG 0.07  C 
BRANCH 18 19
ATOM     19  CG  TYR B   3      58.059 154.477   1.571  1.00 38.24 LIG-0.06  A 
ATOM     20  CD2 TYR B   3      57.452 153.360   2.159  1.00 38.70 LIG 0.01  A 
ATOM     21  CE2 TYR B   3      56.069 153.207   2.144  1.00 39.79 LIG 0.04  A 
ATOM     22  CZ  TYR B   3      55.280 154.175   1.532  1.00 40.15 LIG 0.07  A 
ATOM     23  CE1 TYR B   3      55.858 155.293   0.938  1.00 39.97 LIG 0.04  A 
ATOM     24  CD1 TYR B   3      57.238 155.438   0.961  1.00 39.23 LIG 0.01  A 
BRANCH 22 25
ATOM     25 OH   TYR B   3      53.911 154.042   1.502  1.00 40.04 LIG-0.36  OA
ATOM     26 HH   TYR B   3      53.581 154.645   1.019  1.00 40.04 LIG 0.22  HD
ENDBRANCH 22 25
ENDBRANCH 18 19
ENDBRANCH 15 18
ENDBRANCH 12 15
ENDBRANCH 1 11
BRANCH 1 27
ATOM     27  N   TYR B   2      62.765 152.299   4.059  1.00 25.33 LIG-0.35  N 
ATOM     28  C   TYR B   1      63.608 152.217   5.085  1.00 22.87 LIG 0.25  C 
ATOM     29 O    TYR B   1      64.586 151.465   5.106  1.00 21.86 LIG-0.27  OA
ATOM     30 H    TYR B   2      62.125 152.872   4.020  1.00 25.33 LIG 0.16  HD
BRANCH 28 31
ATOM     31  CA  TYR B   1      63.299 153.133   6.267  1.00 21.88 LIG 0.28  C 
BRANCH 31 32
ATOM     32  CB  TYR B   1      61.909 152.808   6.816  1.00 21.24 LIG 0.08  C 
BRANCH 32 33
ATOM     33  CG  TYR B   1      61.831 151.532   7.620  1.00 20.81 LIG-0.06  A 
ATOM     34  CD1 TYR B   1      62.142 150.296   7.037  1.00 20.37 LIG 0.01  A 
ATOM     35  CE1 TYR B   1      62.072 149.120   7.776  1.00 19.95 LIG 0.04  A 
ATOM     36  CZ  TYR B   1      61.685 149.178   9.116  1.00 20.32 LIG 0.07  A 
ATOM     37  CE2 TYR B   1      61.372 150.392   9.713  1.00 20.63 LIG 0.04  A 
ATOM     38  CD2 TYR B   1      61.445 151.559   8.966  1.00 20.57 LIG 0.01  A 
BRANCH 36 39
ATOM     39 OH   TYR B   1      61.611 148.034   9.874  1.00 20.56 LIG-0.36  OA
ATOM     40 HH   TYR B   1      62.221 147.505   9.643  1.00 20.56 LIG 0.22  HD
ENDBRANCH 36 39
ENDBRANCH 32 33
ENDBRANCH 31 32
BRANCH 31 41
ATOM     41  N   TYR B   1      63.386 154.578   5.894  1.00 21.11 LIG-0.07  N 
ATOM     42 H2   TYR B   1      63.899 155.007   6.482  1.00 21.11 LIG 0.28  HD
ATOM     43 H1   TYR B   1      62.570 154.935   5.896  1.00 21.11 LIG 0.28  HD
ATOM     44 H3   TYR B   1      63.741 154.654   5.081  1.00 21.11 LIG 0.28  HD
ENDBRANCH 31 41
ENDBRANCH 28 31
ENDBRANCH 1 27
TORSDOF 15
ENDMDL
MODEL 11
USER: ADFR SOLUTION from run 72
USER: SCORE 16.165554 LL:  -2.386 LR: -14.929 RR:   0.000 FEB: -10.455
USER: RMSD 10.719358
USER: SEED 71
USER: STATUS no improvement in best in 6 clusters for 5 generations
USER: GENES 17
USER: genes 0 Translation |==|  0.55488 0.60641 0.47238
USER: genes 1 Rotation |==|  0.54967 0.43898 0.96333 0.67070
USER: genes 2 Torsion [C]-CA--CB-[CG] |==|  0.08986
USER: genes 3 Torsion [CA]-CB--CG-[CD2] |==|  0.18337
USER: genes 4 Torsion [CE2]-CZ--OH-[HH] |==|  0.99931
USER: genes 5 Torsion [N]-CA--C-[N] |==|  0.29895
USER: genes 6 Torsion [C]-N--CA-[C] |==|  0.13756
USER: genes 7 Torsion [N]-CA--C-[O] |==|  0.33824
USER: genes 8 Torsion [N]-CA--CB-[CG] |==|  0.77288
USER: genes 9 Torsion [CA]-CB--CG-[CD2] |==|  0.44048
USER: genes 10 Torsion [CE2]-CZ--OH-[HH] |==|  0.88798
USER: genes 11 Torsion [CB]-CA--N-[C] |==|  0.25489
USER: genes 12 Torsion [N]-C--CA-[N] |==|  0.92689
USER: genes 13 Torsion [C]-CA--CB-[CG] |==|  0.42548
USER: genes 14 Torsion [CA]-CB--CG-[CD1] |==|  0.89473
USER: genes 15 Torsion [CE1]-CZ--OH-[HH] |==|  0.94743
USER: genes 16 Torsion [C]-CA--N-[H1] |==|  0.49916
ROOT
ATOM      1  CA  TYR B   2      61.678 151.550   2.084  1.00 28.44 LIG 0.18  C 
ENDROOT
BRANCH 1 2
ATOM      2  CB  TYR B   2      62.310 152.011   3.403  1.00 30.17 LIG 0.07  C 
BRANCH 2 3
ATOM      3  CG  TYR B   2      63.242 151.011   4.067  1.00 31.12 LIG-0.06  A 
ATOM      4  CD2 TYR B   2      64.453 150.644   3.464  1.00 31.81 LIG 0.01  A 
ATOM      5  CE2 TYR B   2      65.314 149.733   4.072  1.00 33.15 LIG 0.04  A 
ATOM      6  CZ  TYR B   2      64.969 149.177   5.298  1.00 33.29 LIG 0.07  A 
ATOM      7  CE1 TYR B   2      63.772 149.526   5.927  1.00 33.06 LIG 0.04  A 
ATOM      8  CD1 TYR B   2      62.919 150.439   5.311  1.00 32.67 LIG 0.01  A 
BRANCH 6 9
ATOM      9 OH   TYR B   2      65.816 148.276   5.892  1.00 34.60 LIG-0.36  OA
ATOM     10 HH   TYR B   2      66.489 148.160   5.403  1.00 34.60 LIG 0.22  HD
ENDBRANCH 6 9
ENDBRANCH 2 3
ENDBRANCH 1 2
BRANCH 1 11
ATOM     11  C   TYR B   2      61.455 150.052   2.105  1.00 30.52 LIG 0.24  C 
ATOM     12  N   TYR B   3      61.883 149.397   1.030  1.00 32.89 LIG-0.35  N 
ATOM     13 H    TYR B   3      62.229 149.785   0.345  1.00 32.89 LIG 0.16  HD
ATOM     14 O    TYR B   2      60.906 149.509   3.069  1.00 30.24 LIG-0.27  OA
BRANCH 12 15
ATOM     15  CA  TYR B   3      61.806 147.947   0.910  1.00 36.06 LIG 0.17  C 
BRANCH 15 16
ATOM     16  C   TYR B   3      60.407 147.438   1.259  1.00 37.31 LIG 0.22  C 
ATOM     17 O    TYR B   3      59.752 146.789   0.439  1.00 39.71 LIG-0.29  OA
ENDBRANCH 15 16
BRANCH 15 18
ATOM     18  CB  TYR B   3      62.861 147.285   1.801  1.00 37.43 LIG 0.07  C 
BRANCH 18 19
ATOM     19  CG  TYR B   3      64.236 147.239   1.181  1.00 38.24 LIG-0.06  A 
ATOM     20  CD2 TYR B   3      65.381 147.093   1.976  1.00 38.70 LIG 0.01  A 
ATOM     21  CE2 TYR B   3      66.648 147.046   1.403  1.00 39.79 LIG 0.04  A 
ATOM     22  CZ  TYR B   3      66.779 147.147   0.022  1.00 40.15 LIG 0.07  A 
ATOM     23  CE1 TYR B   3      65.658 147.294  -0.790  1.00 39.97 LIG 0.04  A 
ATOM     24  CD1 TYR B   3      64.398 147.338  -0.209  1.00 39.23 LIG 0.01  A 
BRANCH 22 25
ATOM     25 OH   TYR B   3      68.022 147.105  -0.565  1.00 40.04 LIG-0.36  OA
ATOM     26 HH   TYR B   3      68.567 147.544  -0.100  1.00 40.04 LIG 0.22  HD
ENDBRANCH 22 25
ENDBRANCH 18 19
ENDBRANCH 15 18
ENDBRANCH 12 15
ENDBRANCH 1 11
BRANCH 1 27
ATOM     27  N   TYR B   2      60.403 152.219   1.886  1.00 25.33 LIG-0.35  N 
ATOM     28  C   TYR B   1      60.278 153.364   1.221  1.00 22.87 LIG 0.25  C 
ATOM     29 O    TYR B   1      61.212 153.914   0.629  1.00 21.86 LIG-0.27  OA
ATOM     30 H    TYR B   2      59.737 151.805   2.240  1.00 25.33 LIG 0.16  HD
BRANCH 28 31
ATOM     31  CA  TYR B   1      58.880 153.977   1.219  1.00 21.88 LIG 0.28  C 
BRANCH 31 32
ATOM     32  CB  TYR B   1      58.785 155.034   2.322  1.00 21.24 LIG 0.08  C 
BRANCH 32 33
ATOM     33  CG  TYR B   1      57.774 156.125   2.064  1.00 20.81 LIG-0.06  A 
ATOM     34  CD1 TYR B   1      57.586 156.639   0.774  1.00 20.37 LIG 0.01  A 
ATOM     35  CE1 TYR B   1      56.654 157.644   0.534  1.00 19.95 LIG 0.04  A 
ATOM     36  CZ  TYR B   1      55.900 158.143   1.598  1.00 20.32 LIG 0.07  A 
ATOM     37  CE2 TYR B   1      56.070 157.648   2.884  1.00 20.63 LIG 0.04  A 
ATOM     38  CD2 TYR B   1      57.003 156.646   3.111  1.00 20.57 LIG 0.01  A 
BRANCH 36 39
ATOM     39 OH   TYR B   1      54.968 159.132   1.392  1.00 20.56 LIG-0.36  OA
ATOM     40 HH   TYR B   1      55.127 159.520   0.665  1.00 20.56 LIG 0.22  HD
ENDBRANCH 36 39
ENDBRANCH 32 33
ENDBRANCH 31 32
BRANCH 31 41
ATOM     41  N   TYR B   1      57.814 152.944   1.396  1.00 21.11 LIG-0.07  N 
ATOM     42 H2   TYR B   1      57.857 152.356   0.728  1.00 21.11 LIG 0.28  HD
ATOM     43 H1   TYR B   1      57.016 153.338   1.394  1.00 21.11 LIG 0.28  HD
ATOM     44 H3   TYR B   1      57.935 152.521   2.170  1.00 21.11 LIG 0.28  HD
ENDBRANCH 31 41
ENDBRANCH 28 31
ENDBRANCH 1 27
TORSDOF 15
ENDMDL
MODEL 12
USER: ADFR SOLUTION from run 124
USER: SCORE 16.152584 LL:  -1.958 LR: -14.746 RR:   0.000 FEB: -10.272
USER: RMSD 8.798280
USER: SEED 123
USER: STATUS no improvement in best in 13 clusters for 5 generations
USER: GENES 17
USER: genes 0 Translation |==|  0.52660 0.43969 0.61657
USER: genes 1 Rotation |==|  0.23560 0.19744 0.76736 0.63063
USER: genes 2 Torsion [C]-CA--CB-[CG] |==|  0.24402
USER: genes 3 Torsion [CA]-CB--CG-[CD2] |==|  0.14659
USER: genes 4 Torsion [CE2]-CZ--OH-[HH] |==|  0.85488
USER: genes 5 Torsion [N]-CA--C-[N] |==|  0.02061
USER: genes 6 Torsion [C]-N--CA-[C] |==|  0.16311
USER: genes 7 Torsion [N]-CA--C-[O] |==|  0.15052
USER: genes 8 Torsion [N]-CA--CB-[CG] |==|  0.70478
USER: genes 9 Torsion [CA]-CB--CG-[CD2] |==|  0.36479
USER: genes 10 Torsion [CE2]-CZ--OH-[HH] |==|  0.93583
USER: genes 11 Torsion [CB]-CA--N-[C] |==|  0.23889
USER: genes 12 Torsion [N]-C--CA-[N] |==|  0.66095
USER: genes 13 Torsion [C]-CA--CB-[CG] |==|  0.39939
USER: genes 14 Torsion [CA]-CB--CG-[CD1] |==|  0.33887
USER: genes 15 Torsion [CE1]-CZ--OH-[HH] |==|  0.92332
USER: genes 16 Torsion [C]-CA--N-[H1] |==|  0.39306
ROOT
ATOM      1  CA  TYR B   2      60.978 148.174   4.355  1.00 28.44 LIG 0.18  C 
ENDROOT
BRANCH 1 2
ATOM      2  CB  TYR B   2      59.539 148.011   4.860  1.00 30.17 LIG 0.07  C 
BRANCH 2 3
ATOM      3  CG  TYR B   2      59.350 147.003   5.982  1.00 31.12 LIG-0.06  A 
ATOM      4  CD2 TYR B   2      60.122 147.071   7.151  1.00 31.81 LIG 0.01  A 
ATOM      5  CE2 TYR B   2      59.947 146.154   8.184  1.00 33.15 LIG 0.04  A 
ATOM      6  CZ  TYR B   2      58.992 145.152   8.057  1.00 33.29 LIG 0.07  A 
ATOM      7  CE1 TYR B   2      58.204 145.060   6.908  1.00 33.06 LIG 0.04  A 
ATOM      8  CD1 TYR B   2      58.386 145.984   5.881  1.00 32.67 LIG 0.01  A 
BRANCH 6 9
ATOM      9 OH   TYR B   2      58.826 144.246   9.074  1.00 34.60 LIG-0.36  OA
ATOM     10 HH   TYR B   2      59.569 143.908   9.272  1.00 34.60 LIG 0.22  HD
ENDBRANCH 6 9
ENDBRANCH 2 3
ENDBRANCH 1 2
BRANCH 1 11
ATOM     11  C   TYR B   2      61.267 147.168   3.260  1.00 30.52 LIG 0.24  C 
ATOM     12  N   TYR B   3      61.768 147.676   2.138  1.00 32.89 LIG-0.35  N 
ATOM     13 H    TYR B   3      61.890 148.518   2.011  1.00 32.89 LIG 0.16  HD
ATOM     14 O    TYR B   2      61.035 145.967   3.429  1.00 30.24 LIG-0.27  OA
BRANCH 12 15
ATOM     15  CA  TYR B   3      62.162 146.847   1.007  1.00 36.06 LIG 0.17  C 
BRANCH 15 16
ATOM     16  C   TYR B   3      60.984 146.020   0.492  1.00 37.31 LIG 0.22  C 
ATOM     17 O    TYR B   3      59.923 146.566   0.176  1.00 39.71 LIG-0.29  OA
ENDBRANCH 15 16
BRANCH 15 18
ATOM     18  CB  TYR B   3      63.331 145.937   1.398  1.00 37.43 LIG 0.07  C 
BRANCH 18 19
ATOM     19  CG  TYR B   3      64.654 146.363   0.808  1.00 38.24 LIG-0.06  A 
ATOM     20  CD2 TYR B   3      65.799 146.468   1.608  1.00 38.70 LIG 0.01  A 
ATOM     21  CE2 TYR B   3      67.019 146.856   1.062  1.00 39.79 LIG 0.04  A 
ATOM     22  CZ  TYR B   3      67.101 147.145  -0.296  1.00 40.15 LIG 0.07  A 
ATOM     23  CE1 TYR B   3      65.977 147.050  -1.112  1.00 39.97 LIG 0.04  A 
ATOM     24  CD1 TYR B   3      64.765 146.660  -0.559  1.00 39.23 LIG 0.01  A 
BRANCH 22 25
ATOM     25 OH   TYR B   3      68.296 147.532  -0.856  1.00 40.04 LIG-0.36  OA
ATOM     26 HH   TYR B   3      68.793 147.853  -0.260  1.00 40.04 LIG 0.22  HD
ENDBRANCH 22 25
ENDBRANCH 18 19
ENDBRANCH 15 18
ENDBRANCH 12 15
ENDBRANCH 1 11
BRANCH 1 27
ATOM     27  N   TYR B   2      61.169 149.516   3.832  1.00 25.33 LIG-0.35  N 
ATOM     28  C   TYR B   1      61.504 150.553   4.594  1.00 22.87 LIG 0.25  C 
ATOM     29 O    TYR B   1      61.779 150.456   5.794  1.00 21.86 LIG-0.27  OA
ATOM     30 H    TYR B   2      61.044 149.577   2.983  1.00 25.33 LIG 0.16  HD
BRANCH 28 31
ATOM     31  CA  TYR B   1      61.541 151.907   3.889  1.00 21.88 LIG 0.28  C 
BRANCH 31 32
ATOM     32  CB  TYR B   1      61.150 151.729   2.421  1.00 21.24 LIG 0.08  C 
BRANCH 32 33
ATOM     33  CG  TYR B   1      60.340 152.863   1.842  1.00 20.81 LIG-0.06  A 
ATOM     34  CD1 TYR B   1      60.793 153.569   0.719  1.00 20.37 LIG 0.01  A 
ATOM     35  CE1 TYR B   1      60.047 154.614   0.183  1.00 19.95 LIG 0.04  A 
ATOM     36  CZ  TYR B   1      58.832 154.960   0.777  1.00 20.32 LIG 0.07  A 
ATOM     37  CE2 TYR B   1      58.364 154.273   1.890  1.00 20.63 LIG 0.04  A 
ATOM     38  CD2 TYR B   1      59.117 153.233   2.416  1.00 20.57 LIG 0.01  A 
BRANCH 36 39
ATOM     39 OH   TYR B   1      58.070 155.984   0.269  1.00 20.56 LIG-0.36  OA
ATOM     40 HH   TYR B   1      58.568 156.539  -0.117  1.00 20.56 LIG 0.22  HD
ENDBRANCH 36 39
ENDBRANCH 32 33
ENDBRANCH 31 32
BRANCH 31 41
ATOM     41  N   TYR B   1      62.883 152.557   3.994  1.00 21.11 LIG-0.07  N 
ATOM     42 H2   TYR B   1      62.873 153.156   4.653  1.00 21.11 LIG 0.28  HD
ATOM     43 H1   TYR B   1      63.077 152.964   3.227  1.00 21.11 LIG 0.28  HD
ATOM     44 H3   TYR B   1      63.500 151.939   4.166  1.00 21.11 LIG 0.28  HD
ENDBRANCH 31 41
ENDBRANCH 28 31
ENDBRANCH 1 27
TORSDOF 15
ENDMDL
MODEL 13
USER: ADFR SOLUTION from run 176
USER: SCORE 16.227303 LL:  -2.275 LR: -14.739 RR:   0.000 FEB: -10.264
USER: RMSD 9.218004
USER: SEED 175
USER: STATUS no improvement in best in 7 clusters for 5 generations
USER: GENES 17
USER: genes 0 Translation |==|  0.54293 0.47391 0.69054
USER: genes 1 Rotation |==|  0.75579 0.86677 0.28541 0.56326
USER: genes 2 Torsion [C]-CA--CB-[CG] |==|  0.85743
USER: genes 3 Torsion [CA]-CB--CG-[CD2] |==|  0.29104
USER: genes 4 Torsion [CE2]-CZ--OH-[HH] |==|  0.99537
USER: genes 5 Torsion [N]-CA--C-[N] |==|  0.90321
USER: genes 6 Torsion [C]-N--CA-[C] |==|  0.70953
USER: genes 7 Torsion [N]-CA--C-[O] |==|  0.02227
USER: genes 8 Torsion [N]-CA--CB-[CG] |==|  0.42637
USER: genes 9 Torsion [CA]-CB--CG-[CD2] |==|  0.13297
USER: genes 10 Torsion [CE2]-CZ--OH-[HH] |==|  0.91853
USER: genes 11 Torsion [CB]-CA--N-[C] |==|  0.19863
USER: genes 12 Torsion [N]-C--CA-[N] |==|  0.87965
USER: genes 13 Torsion [C]-CA--CB-[CG] |==|  0.57163
USER: genes 14 Torsion [CA]-CB--CG-[CD1] |==|  0.16378
USER: genes 15 Torsion [CE1]-CZ--OH-[HH] |==|  0.56225
USER: genes 16 Torsion [C]-CA--N-[H1] |==|  0.15597
ROOT
ATOM      1  CA  TYR B   2      61.383 148.867   5.520  1.00 28.44 LIG 0.18  C 
ENDROOT
BRANCH 1 2
ATOM      2  CB  TYR B   2      60.183 147.969   5.192  1.00 30.17 LIG 0.07  C 
BRANCH 2 3
ATOM      3  CG  TYR B   2      60.122 147.454   3.763  1.00 31.12 LIG-0.06  A 
ATOM      4  CD2 TYR B   2      60.449 146.124   3.462  1.00 31.81 LIG 0.01  A 
ATOM      5  CE2 TYR B   2      60.388 145.646   2.155  1.00 33.15 LIG 0.04  A 
ATOM      6  CZ  TYR B   2      59.998 146.500   1.130  1.00 33.29 LIG 0.07  A 
ATOM      7  CE1 TYR B   2      59.662 147.828   1.399  1.00 33.06 LIG 0.04  A 
ATOM      8  CD1 TYR B   2      59.724 148.296   2.709  1.00 32.67 LIG 0.01  A 
BRANCH 6 9
ATOM      9 OH   TYR B   2      59.945 146.028  -0.157  1.00 34.60 LIG-0.36  OA
ATOM     10 HH   TYR B   2      60.194 145.225  -0.171  1.00 34.60 LIG 0.22  HD
ENDBRANCH 6 9
ENDBRANCH 2 3
ENDBRANCH 1 2
BRANCH 1 11
ATOM     11  C   TYR B   2      62.671 148.195   5.095  1.00 30.52 LIG 0.24  C 
ATOM     12  N   TYR B   3      63.023 148.387   3.827  1.00 32.89 LIG-0.35  N 
ATOM     13 H    TYR B   3      62.545 148.826   3.264  1.00 32.89 LIG 0.16  HD
ATOM     14 O    TYR B   2      63.324 147.517   5.896  1.00 30.24 LIG-0.27  OA
BRANCH 12 15
ATOM     15  CA  TYR B   3      64.264 147.866   3.268  1.00 36.06 LIG 0.17  C 
BRANCH 15 16
ATOM     16  C   TYR B   3      65.300 148.976   3.095  1.00 37.31 LIG 0.22  C 
ATOM     17 O    TYR B   3      65.092 150.106   3.547  1.00 39.71 LIG-0.29  OA
ENDBRANCH 15 16
BRANCH 15 18
ATOM     18  CB  TYR B   3      63.991 147.167   1.933  1.00 37.43 LIG 0.07  C 
BRANCH 18 19
ATOM     19  CG  TYR B   3      65.176 147.161   0.998  1.00 38.24 LIG-0.06  A 
ATOM     20  CD2 TYR B   3      66.448 146.784   1.449  1.00 38.70 LIG 0.01  A 
ATOM     21  CE2 TYR B   3      67.539 146.773   0.585  1.00 39.79 LIG 0.04  A 
ATOM     22  CZ  TYR B   3      67.364 147.145  -0.743  1.00 40.15 LIG 0.07  A 
ATOM     23  CE1 TYR B   3      66.111 147.525  -1.216  1.00 39.97 LIG 0.04  A 
ATOM     24  CD1 TYR B   3      65.029 147.530  -0.348  1.00 39.23 LIG 0.01  A 
BRANCH 22 25
ATOM     25 OH   TYR B   3      68.429 147.144  -1.614  1.00 40.04 LIG-0.36  OA
ATOM     26 HH   TYR B   3      69.137 147.298  -1.190  1.00 40.04 LIG 0.22  HD
ENDBRANCH 22 25
ENDBRANCH 18 19
ENDBRANCH 15 18
ENDBRANCH 12 15
ENDBRANCH 1 11
BRANCH 1 27
ATOM     27  N   TYR B   2      61.255 150.136   4.823  1.00 25.33 LIG-0.35  N 
ATOM     28  C   TYR B   1      60.361 151.062   5.158  1.00 22.87 LIG 0.25  C 
ATOM     29 O    TYR B   1      59.626 150.975   6.146  1.00 21.86 LIG-0.27  OA
ATOM     30 H    TYR B   2      61.811 150.231   4.174  1.00 25.33 LIG 0.16  HD
BRANCH 28 31
ATOM     31  CA  TYR B   1      60.294 152.278   4.237  1.00 21.88 LIG 0.28  C 
BRANCH 31 32
ATOM     32  CB  TYR B   1      59.487 151.927   2.985  1.00 21.24 LIG 0.08  C 
BRANCH 32 33
ATOM     33  CG  TYR B   1      59.827 152.748   1.765  1.00 20.81 LIG-0.06  A 
ATOM     34  CD1 TYR B   1      61.129 152.756   1.246  1.00 20.37 LIG 0.01  A 
ATOM     35  CE1 TYR B   1      61.445 153.511   0.121  1.00 19.95 LIG 0.04  A 
ATOM     36  CZ  TYR B   1      60.446 154.268  -0.495  1.00 20.32 LIG 0.07  A 
ATOM     37  CE2 TYR B   1      59.150 154.274   0.003  1.00 20.63 LIG 0.04  A 
ATOM     38  CD2 TYR B   1      58.847 153.518   1.126  1.00 20.57 LIG 0.01  A 
BRANCH 36 39
ATOM     39 OH   TYR B   1      60.725 155.020  -1.610  1.00 20.56 LIG-0.36  OA
ATOM     40 HH   TYR B   1      60.156 155.633  -1.685  1.00 20.56 LIG 0.22  HD
ENDBRANCH 36 39
ENDBRANCH 32 33
ENDBRANCH 31 32
BRANCH 31 41
ATOM     41  N   TYR B   1      61.654 152.770   3.859  1.00 21.11 LIG-0.07  N 
ATOM     42 H2   TYR B   1      61.576 153.442   3.280  1.00 21.11 LIG 0.28  HD
ATOM     43 H1   TYR B   1      62.115 152.107   3.484  1.00 21.11 LIG 0.28  HD
ATOM     44 H3   TYR B   1      62.080 153.054   4.586  1.00 21.11 LIG 0.28  HD
ENDBRANCH 31 41
ENDBRANCH 28 31
ENDBRANCH 1 27
TORSDOF 15
ENDMDL
MODEL 14
USER: ADFR SOLUTION from run 130
USER: SCORE 17.390254 LL:  -2.773 LR: -14.717 RR:   0.000 FEB: -10.243
USER: RMSD 9.197284
USER: SEED 129
USER: STATUS no improvement in best in 2 clusters for 5 generations
USER: GENES 17
USER: genes 0 Translation |==|  0.55895 0.56389 0.52306
USER: genes 1 Rotation |==|  0.04873 0.38137 0.32752 0.55029
USER: genes 2 Torsion [C]-CA--CB-[CG] |==|  0.31134
USER: genes 3 Torsion [CA]-CB--CG-[CD2] |==|  0.06260
USER: genes 4 Torsion [CE2]-CZ--OH-[HH] |==|  0.83175
USER: genes 5 Torsion [N]-CA--C-[N] |==|  0.34444
USER: genes 6 Torsion [C]-N--CA-[C] |==|  0.50627
USER: genes 7 Torsion [N]-CA--C-[O] |==|  0.46651
USER: genes 8 Torsion [N]-CA--CB-[CG] |==|  0.73429
USER: genes 9 Torsion [CA]-CB--CG-[CD2] |==|  0.38585
USER: genes 10 Torsion [CE2]-CZ--OH-[HH] |==|  0.92561
USER: genes 11 Torsion [CB]-CA--N-[C] |==|  0.85196
USER: genes 12 Torsion [N]-C--CA-[N] |==|  0.86707
USER: genes 13 Torsion [C]-CA--CB-[CG] |==|  0.84679
USER: genes 14 Torsion [CA]-CB--CG-[CD1] |==|  0.30106
USER: genes 15 Torsion [CE1]-CZ--OH-[HH] |==|  0.92029
USER: genes 16 Torsion [C]-CA--N-[H1] |==|  0.73200
ROOT
ATOM      1  CA  TYR B   2      61.779 150.689   2.882  1.00 28.44 LIG 0.18  C 
ENDROOT
BRANCH 1 2
ATOM      2  CB  TYR B   2      62.084 151.991   2.131  1.00 30.17 LIG 0.07  C 
BRANCH 2 3
ATOM      3  CG  TYR B   2      60.869 152.797   1.699  1.00 31.12 LIG-0.06  A 
ATOM      4  CD2 TYR B   2      59.635 152.643   2.346  1.00 31.81 LIG 0.01  A 
ATOM      5  CE2 TYR B   2      58.521 153.385   1.958  1.00 33.15 LIG 0.04  A 
ATOM      6  CZ  TYR B   2      58.633 154.293   0.911  1.00 33.29 LIG 0.07  A 
ATOM      7  CE1 TYR B   2      59.850 154.472   0.250  1.00 33.06 LIG 0.04  A 
ATOM      8  CD1 TYR B   2      60.958 153.726   0.648  1.00 32.67 LIG 0.01  A 
BRANCH 6 9
ATOM      9 OH   TYR B   2      57.533 155.017   0.528  1.00 34.60 LIG-0.36  OA
ATOM     10 HH   TYR B   2      56.927 154.493   0.276  1.00 34.60 LIG 0.22  HD
ENDBRANCH 6 9
ENDBRANCH 2 3
ENDBRANCH 1 2
BRANCH 1 11
ATOM     11  C   TYR B   2      62.172 149.493   2.039  1.00 30.52 LIG 0.24  C 
ATOM     12  N   TYR B   3      61.167 148.710   1.658  1.00 32.89 LIG-0.35  N 
ATOM     13 H    TYR B   3      60.350 148.837   1.897  1.00 32.89 LIG 0.16  HD
ATOM     14 O    TYR B   2      63.355 149.287   1.749  1.00 30.24 LIG-0.27  OA
BRANCH 12 15
ATOM     15  CA  TYR B   3      61.356 147.553   0.793  1.00 36.06 LIG 0.17  C 
BRANCH 15 16
ATOM     16  C   TYR B   3      60.023 146.876   0.478  1.00 37.31 LIG 0.22  C 
ATOM     17 O    TYR B   3      59.946 146.021  -0.409  1.00 39.71 LIG-0.29  OA
ENDBRANCH 15 16
BRANCH 15 18
ATOM     18  CB  TYR B   3      62.328 146.561   1.439  1.00 37.43 LIG 0.07  C 
BRANCH 18 19
ATOM     19  CG  TYR B   3      63.755 146.718   0.973  1.00 38.24 LIG-0.06  A 
ATOM     20  CD2 TYR B   3      64.823 146.625   1.875  1.00 38.70 LIG 0.01  A 
ATOM     21  CE2 TYR B   3      66.138 146.765   1.443  1.00 39.79 LIG 0.04  A 
ATOM     22  CZ  TYR B   3      66.395 147.004   0.097  1.00 40.15 LIG 0.07  A 
ATOM     23  CE1 TYR B   3      65.352 147.103  -0.819  1.00 39.97 LIG 0.04  A 
ATOM     24  CD1 TYR B   3      64.044 146.959  -0.379  1.00 39.23 LIG 0.01  A 
BRANCH 22 25
ATOM     25 OH   TYR B   3      67.687 147.148  -0.351  1.00 40.04 LIG-0.36  OA
ATOM     26 HH   TYR B   3      68.171 147.431   0.274  1.00 40.04 LIG 0.22  HD
ENDBRANCH 22 25
ENDBRANCH 18 19
ENDBRANCH 15 18
ENDBRANCH 12 15
ENDBRANCH 1 11
BRANCH 1 27
ATOM     27  N   TYR B   2      62.520 150.655   4.132  1.00 25.33 LIG-0.35  N 
ATOM     28  C   TYR B   1      63.836 150.834   4.202  1.00 22.87 LIG 0.25  C 
ATOM     29 O    TYR B   1      64.535 151.140   3.232  1.00 21.86 LIG-0.27  OA
ATOM     30 H    TYR B   2      62.028 150.508   4.822  1.00 25.33 LIG 0.16  HD
BRANCH 28 31
ATOM     31  CA  TYR B   1      64.456 150.644   5.585  1.00 21.88 LIG 0.28  C 
BRANCH 31 32
ATOM     32  CB  TYR B   1      64.522 149.151   5.914  1.00 21.24 LIG 0.08  C 
BRANCH 32 33
ATOM     33  CG  TYR B   1      63.202 148.426   5.823  1.00 20.81 LIG-0.06  A 
ATOM     34  CD1 TYR B   1      62.948 147.524   4.780  1.00 20.37 LIG 0.01  A 
ATOM     35  CE1 TYR B   1      61.732 146.853   4.695  1.00 19.95 LIG 0.04  A 
ATOM     36  CZ  TYR B   1      60.754 147.088   5.665  1.00 20.32 LIG 0.07  A 
ATOM     37  CE2 TYR B   1      60.985 147.977   6.705  1.00 20.63 LIG 0.04  A 
ATOM     38  CD2 TYR B   1      62.201 148.640   6.780  1.00 20.57 LIG 0.01  A 
BRANCH 36 39
ATOM     39 OH   TYR B   1      59.545 146.438   5.611  1.00 20.56 LIG-0.36  OA
ATOM     40 HH   TYR B   1      59.359 146.257   4.812  1.00 20.56 LIG 0.22  HD
ENDBRANCH 36 39
ENDBRANCH 32 33
ENDBRANCH 31 32
BRANCH 31 41
ATOM     41  N   TYR B   1      63.697 151.377   6.644  1.00 21.11 LIG-0.07  N 
ATOM     42 H2   TYR B   1      62.859 151.508   6.373  1.00 21.11 LIG 0.28  HD
ATOM     43 H1   TYR B   1      64.086 152.163   6.798  1.00 21.11 LIG 0.28  HD
ATOM     44 H3   TYR B   1      63.693 150.896   7.393  1.00 21.11 LIG 0.28  HD
ENDBRANCH 31 41
ENDBRANCH 28 31
ENDBRANCH 1 27
TORSDOF 15
ENDMDL
MODEL 15
USER: ADFR SOLUTION from run 101
USER: SCORE 17.251028 LL:  -3.232 LR: -14.682 RR:   0.000 FEB: -10.207
USER: RMSD 7.070746
USER: SEED 100
USER: STATUS 1 or 2 clusters left
USER: GENES 17
USER: genes 0 Translation |==|  0.67666 0.42856 0.54757
USER: genes 1 Rotation |==|  0.27368 0.62510 0.66299 0.89568
USER: genes 2 Torsion [C]-CA--CB-[CG] |==|  0.95434
USER: genes 3 Torsion [CA]-CB--CG-[CD2] |==|  0.74271
USER: genes 4 Torsion [CE2]-CZ--OH-[HH] |==|  0.17312
USER: genes 5 Torsion [N]-CA--C-[N] |==|  0.84987
USER: genes 6 Torsion [C]-N--CA-[C] |==|  0.82570
USER: genes 7 Torsion [N]-CA--C-[O] |==|  0.24497
USER: genes 8 Torsion [N]-CA--CB-[CG] |==|  0.46383
USER: genes 9 Torsion [CA]-CB--CG-[CD2] |==|  0.62880
USER: genes 10 Torsion [CE2]-CZ--OH-[HH] |==|  0.28359
USER: genes 11 Torsion [CB]-CA--N-[C] |==|  0.21836
USER: genes 12 Torsion [N]-C--CA-[N] |==|  0.42677
USER: genes 13 Torsion [C]-CA--CB-[CG] |==|  0.11632
USER: genes 14 Torsion [CA]-CB--CG-[CD1] |==|  0.25179
USER: genes 15 Torsion [CE1]-CZ--OH-[HH] |==|  0.81008
USER: genes 16 Torsion [C]-CA--N-[H1] |==|  0.63669
ROOT
ATOM      1  CA  TYR B   2      64.692 147.948   3.268  1.00 28.44 LIG 0.18  C 
ENDROOT
BRANCH 1 2
ATOM      2  CB  TYR B   2      65.635 148.671   4.239  1.00 30.17 LIG 0.07  C 
BRANCH 2 3
ATOM      3  CG  TYR B   2      65.172 150.044   4.699  1.00 31.12 LIG-0.06  A 
ATOM      4  CD2 TYR B   2      65.570 151.204   4.019  1.00 31.81 LIG 0.01  A 
ATOM      5  CE2 TYR B   2      65.143 152.464   4.433  1.00 33.15 LIG 0.04  A 
ATOM      6  CZ  TYR B   2      64.309 152.576   5.539  1.00 33.29 LIG 0.07  A 
ATOM      7  CE1 TYR B   2      63.891 151.439   6.234  1.00 33.06 LIG 0.04  A 
ATOM      8  CD1 TYR B   2      64.323 150.184   5.811  1.00 32.67 LIG 0.01  A 
BRANCH 6 9
ATOM      9 OH   TYR B   2      63.895 153.818   5.948  1.00 34.60 LIG-0.36  OA
ATOM     10 HH   TYR B   2      63.440 154.176   5.339  1.00 34.60 LIG 0.22  HD
ENDBRANCH 6 9
ENDBRANCH 2 3
ENDBRANCH 1 2
BRANCH 1 11
ATOM     11  C   TYR B   2      63.321 148.591   3.293  1.00 30.52 LIG 0.24  C 
ATOM     12  N   TYR B   3      63.264 149.831   2.817  1.00 32.89 LIG-0.35  N 
ATOM     13 H    TYR B   3      63.954 150.267   2.547  1.00 32.89 LIG 0.16  HD
ATOM     14 O    TYR B   2      62.344 147.977   3.736  1.00 30.24 LIG-0.27  OA
BRANCH 12 15
ATOM     15  CA  TYR B   3      62.017 150.575   2.708  1.00 36.06 LIG 0.17  C 
BRANCH 15 16
ATOM     16  C   TYR B   3      61.049 149.892   1.743  1.00 37.31 LIG 0.22  C 
ATOM     17 O    TYR B   3      60.268 149.025   2.145  1.00 39.71 LIG-0.29  OA
ENDBRANCH 15 16
BRANCH 15 18
ATOM     18  CB  TYR B   3      62.296 152.015   2.266  1.00 37.43 LIG 0.07  C 
BRANCH 18 19
ATOM     19  CG  TYR B   3      61.060 152.766   1.829  1.00 38.24 LIG-0.06  A 
ATOM     20  CD2 TYR B   3      61.056 153.520   0.648  1.00 38.70 LIG 0.01  A 
ATOM     21  CE2 TYR B   3      59.915 154.207   0.243  1.00 39.79 LIG 0.04  A 
ATOM     22  CZ  TYR B   3      58.766 154.145   1.024  1.00 40.15 LIG 0.07  A 
ATOM     23  CE1 TYR B   3      58.745 153.404   2.202  1.00 39.97 LIG 0.04  A 
ATOM     24  CD1 TYR B   3      59.886 152.721   2.596  1.00 39.23 LIG 0.01  A 
BRANCH 22 25
ATOM     25 OH   TYR B   3      57.628 154.819   0.644  1.00 40.04 LIG-0.36  OA
ATOM     26 HH   TYR B   3      57.082 154.278   0.306  1.00 40.04 LIG 0.22  HD
ENDBRANCH 22 25
ENDBRANCH 18 19
ENDBRANCH 15 18
ENDBRANCH 12 15
ENDBRANCH 1 11
BRANCH 1 27
ATOM     27  N   TYR B   2      65.227 148.017   1.918  1.00 25.33 LIG-0.35  N 
ATOM     28  C   TYR B   1      66.210 147.233   1.485  1.00 22.87 LIG 0.25  C 
ATOM     29 O    TYR B   1      66.692 146.313   2.151  1.00 21.86 LIG-0.27  OA
ATOM     30 H    TYR B   2      64.848 148.613   1.426  1.00 25.33 LIG 0.16  HD
BRANCH 28 31
ATOM     31  CA  TYR B   1      66.721 147.532   0.077  1.00 21.88 LIG 0.28  C 
BRANCH 31 32
ATOM     32  CB  TYR B   1      65.820 146.842  -0.950  1.00 21.24 LIG 0.08  C 
BRANCH 32 33
ATOM     33  CG  TYR B   1      64.343 146.928  -0.652  1.00 20.81 LIG-0.06  A 
ATOM     34  CD1 TYR B   1      63.570 147.987  -1.149  1.00 20.37 LIG 0.01  A 
ATOM     35  CE1 TYR B   1      62.209 148.067  -0.877  1.00 19.95 LIG 0.04  A 
ATOM     36  CZ  TYR B   1      61.610 147.077  -0.095  1.00 20.32 LIG 0.07  A 
ATOM     37  CE2 TYR B   1      62.356 146.020   0.408  1.00 20.63 LIG 0.04  A 
ATOM     38  CD2 TYR B   1      63.714 145.951   0.130  1.00 20.57 LIG 0.01  A 
BRANCH 36 39
ATOM     39 OH   TYR B   1      60.266 147.125   0.188  1.00 20.56 LIG-0.36  OA
ATOM     40 HH   TYR B   1      60.110 147.775   0.697  1.00 20.56 LIG 0.22  HD
ENDBRANCH 36 39
ENDBRANCH 32 33
ENDBRANCH 31 32
BRANCH 31 41
ATOM     41  N   TYR B   1      68.141 147.104  -0.106  1.00 21.11 LIG-0.07  N 
ATOM     42 H2   TYR B   1      68.492 146.891   0.684  1.00 21.11 LIG 0.28  HD
ATOM     43 H1   TYR B   1      68.608 147.770  -0.467  1.00 21.11 LIG 0.28  HD
ATOM     44 H3   TYR B   1      68.171 146.395  -0.644  1.00 21.11 LIG 0.28  HD
ENDBRANCH 31 41
ENDBRANCH 28 31
ENDBRANCH 1 27
TORSDOF 15
ENDMDL
MODEL 16
USER: ADFR SOLUTION from run 3
USER: SCORE 16.345521 LL:  -1.921 LR: -14.621 RR:   0.000 FEB: -10.147
USER: RMSD 8.883735
USER: SEED 504974
USER: STATUS no improvement in best in 7 clusters for 5 generations
USER: GENES 17
USER: genes 0 Translation |==|  0.70153 0.49719 0.61497
USER: genes 1 Rotation |==|  0.45274 0.25018 0.89329 0.67514
USER: genes 2 Torsion [C]-CA--CB-[CG] |==|  0.77838
USER: genes 3 Torsion [CA]-CB--CG-[CD2] |==|  0.74369
USER: genes 4 Torsion [CE2]-CZ--OH-[HH] |==|  0.72498
USER: genes 5 Torsion [N]-CA--C-[N] |==|  0.28405
USER: genes 6 Torsion [C]-N--CA-[C] |==|  0.59871
USER: genes 7 Torsion [N]-CA--C-[O] |==|  0.19551
USER: genes 8 Torsion [N]-CA--CB-[CG] |==|  0.75475
USER: genes 9 Torsion [CA]-CB--CG-[CD2] |==|  0.42542
USER: genes 10 Torsion [CE2]-CZ--OH-[HH] |==|  0.88507
USER: genes 11 Torsion [CB]-CA--N-[C] |==|  0.76505
USER: genes 12 Torsion [N]-C--CA-[N] |==|  0.02609
USER: genes 13 Torsion [C]-CA--CB-[CG] |==|  0.47883
USER: genes 14 Torsion [CA]-CB--CG-[CD1] |==|  0.29818
USER: genes 15 Torsion [CE1]-CZ--OH-[HH] |==|  0.90390
USER: genes 16 Torsion [C]-CA--N-[H1] |==|  0.76215
ROOT
ATOM      1  CA  TYR B   2      65.308 149.338   4.330  1.00 28.44 LIG 0.18  C 
ENDROOT
BRANCH 1 2
ATOM      2  CB  TYR B   2      65.039 148.838   5.755  1.00 30.17 LIG 0.07  C 
BRANCH 2 3
ATOM      3  CG  TYR B   2      63.576 148.787   6.165  1.00 31.12 LIG-0.06  A 
ATOM      4  CD2 TYR B   2      62.970 149.873   6.812  1.00 31.81 LIG 0.01  A 
ATOM      5  CE2 TYR B   2      61.628 149.833   7.183  1.00 33.15 LIG 0.04  A 
ATOM      6  CZ  TYR B   2      60.875 148.697   6.909  1.00 33.29 LIG 0.07  A 
ATOM      7  CE1 TYR B   2      61.448 147.601   6.261  1.00 33.06 LIG 0.04  A 
ATOM      8  CD1 TYR B   2      62.790 147.652   5.893  1.00 32.67 LIG 0.01  A 
BRANCH 6 9
ATOM      9 OH   TYR B   2      59.555 148.658   7.281  1.00 34.60 LIG-0.36  OA
ATOM     10 HH   TYR B   2      59.480 148.234   8.002  1.00 34.60 LIG 0.22  HD
ENDBRANCH 6 9
ENDBRANCH 2 3
ENDBRANCH 1 2
BRANCH 1 11
ATOM     11  C   TYR B   2      65.064 148.227   3.330  1.00 30.52 LIG 0.24  C 
ATOM     12  N   TYR B   3      65.972 148.121   2.364  1.00 32.89 LIG-0.35  N 
ATOM     13 H    TYR B   3      66.636 148.661   2.276  1.00 32.89 LIG 0.16  HD
ATOM     14 O    TYR B   2      64.077 147.492   3.431  1.00 30.24 LIG-0.27  OA
BRANCH 12 15
ATOM     15  CA  TYR B   3      65.928 147.071   1.355  1.00 36.06 LIG 0.17  C 
BRANCH 15 16
ATOM     16  C   TYR B   3      67.335 146.612   0.974  1.00 37.31 LIG 0.22  C 
ATOM     17 O    TYR B   3      68.022 145.966   1.769  1.00 39.71 LIG-0.29  OA
ENDBRANCH 15 16
BRANCH 15 18
ATOM     18  CB  TYR B   3      65.163 147.555   0.119  1.00 37.43 LIG 0.07  C 
BRANCH 18 19
ATOM     19  CG  TYR B   3      63.675 147.310   0.193  1.00 38.24 LIG-0.06  A 
ATOM     20  CD2 TYR B   3      62.775 148.125  -0.507  1.00 38.70 LIG 0.01  A 
ATOM     21  CE2 TYR B   3      61.404 147.894  -0.443  1.00 39.79 LIG 0.04  A 
ATOM     22  CZ  TYR B   3      60.922 146.843   0.329  1.00 40.15 LIG 0.07  A 
ATOM     23  CE1 TYR B   3      61.795 146.020   1.035  1.00 39.97 LIG 0.04  A 
ATOM     24  CD1 TYR B   3      63.160 146.256   0.963  1.00 39.23 LIG 0.01  A 
BRANCH 22 25
ATOM     25 OH   TYR B   3      59.570 146.599   0.409  1.00 40.04 LIG-0.36  OA
ATOM     26 HH   TYR B   3      59.158 147.328   0.476  1.00 40.04 LIG 0.22  HD
ENDBRANCH 22 25
ENDBRANCH 18 19
ENDBRANCH 15 18
ENDBRANCH 12 15
ENDBRANCH 1 11
BRANCH 1 27
ATOM     27  N   TYR B   2      64.429 150.455   4.025  1.00 25.33 LIG-0.35  N 
ATOM     28  C   TYR B   1      63.186 150.301   3.577  1.00 22.87 LIG 0.25  C 
ATOM     29 O    TYR B   1      62.631 149.203   3.471  1.00 21.86 LIG-0.27  OA
ATOM     30 H    TYR B   2      64.788 151.225   4.161  1.00 25.33 LIG 0.16  HD
BRANCH 28 31
ATOM     31  CA  TYR B   1      62.457 151.587   3.198  1.00 21.88 LIG 0.28  C 
BRANCH 31 32
ATOM     32  CB  TYR B   1      61.801 151.418   1.825  1.00 21.24 LIG 0.08  C 
BRANCH 32 33
ATOM     33  CG  TYR B   1      60.898 152.554   1.413  1.00 20.81 LIG-0.06  A 
ATOM     34  CD1 TYR B   1      61.289 153.458   0.417  1.00 20.37 LIG 0.01  A 
ATOM     35  CE1 TYR B   1      60.457 154.505   0.034  1.00 19.95 LIG 0.04  A 
ATOM     36  CZ  TYR B   1      59.216 154.653   0.657  1.00 20.32 LIG 0.07  A 
ATOM     37  CE2 TYR B   1      58.808 153.768   1.647  1.00 20.63 LIG 0.04  A 
ATOM     38  CD2 TYR B   1      59.647 152.728   2.020  1.00 20.57 LIG 0.01  A 
BRANCH 36 39
ATOM     39 OH   TYR B   1      58.370 155.674   0.299  1.00 20.56 LIG-0.36  OA
ATOM     40 HH   TYR B   1      58.820 156.354   0.098  1.00 20.56 LIG 0.22  HD
ENDBRANCH 36 39
ENDBRANCH 32 33
ENDBRANCH 31 32
BRANCH 31 41
ATOM     41  N   TYR B   1      63.371 152.770   3.195  1.00 21.11 LIG-0.07  N 
ATOM     42 H2   TYR B   1      64.181 152.519   2.923  1.00 21.11 LIG 0.28  HD
ATOM     43 H1   TYR B   1      63.426 153.105   4.018  1.00 21.11 LIG 0.28  HD
ATOM     44 H3   TYR B   1      63.052 153.391   2.642  1.00 21.11 LIG 0.28  HD
ENDBRANCH 31 41
ENDBRANCH 28 31
ENDBRANCH 1 27
TORSDOF 15
ENDMDL
MODEL 17
USER: ADFR SOLUTION from run 78
USER: SCORE 16.489437 LL:  -2.331 LR: -14.560 RR:   0.000 FEB: -10.086
USER: RMSD 8.795403
USER: SEED 77
USER: STATUS no improvement in best in 7 clusters for 5 generations
USER: GENES 17
USER: genes 0 Translation |==|  0.50255 0.45388 0.58826
USER: genes 1 Rotation |==|  0.26796 0.11317 0.64237 0.66200
USER: genes 2 Torsion [C]-CA--CB-[CG] |==|  0.79029
USER: genes 3 Torsion [CA]-CB--CG-[CD2] |==|  0.33120
USER: genes 4 Torsion [CE2]-CZ--OH-[HH] |==|  0.60421
USER: genes 5 Torsion [N]-CA--C-[N] |==|  0.40846
USER: genes 6 Torsion [C]-N--CA-[C] |==|  0.75455
USER: genes 7 Torsion [N]-CA--C-[O] |==|  0.10684
USER: genes 8 Torsion [N]-CA--CB-[CG] |==|  0.66783
USER: genes 9 Torsion [CA]-CB--CG-[CD2] |==|  0.34537
USER: genes 10 Torsion [CE2]-CZ--OH-[HH] |==|  0.96939
USER: genes 11 Torsion [CB]-CA--N-[C] |==|  0.52953
USER: genes 12 Torsion [N]-C--CA-[N] |==|  0.53581
USER: genes 13 Torsion [C]-CA--CB-[CG] |==|  0.78275
USER: genes 14 Torsion [CA]-CB--CG-[CD1] |==|  0.53771
USER: genes 15 Torsion [CE1]-CZ--OH-[HH] |==|  0.06570
USER: genes 16 Torsion [C]-CA--N-[H1] |==|  0.56964
ROOT
ATOM      1  CA  TYR B   2      60.383 148.461   3.909  1.00 28.44 LIG 0.18  C 
ENDROOT
BRANCH 1 2
ATOM      2  CB  TYR B   2      58.906 148.049   3.920  1.00 30.17 LIG 0.07  C 
BRANCH 2 3
ATOM      3  CG  TYR B   2      57.951 149.021   3.245  1.00 31.12 LIG-0.06  A 
ATOM      4  CD2 TYR B   2      57.181 148.626   2.142  1.00 31.81 LIG 0.01  A 
ATOM      5  CE2 TYR B   2      56.299 149.511   1.525  1.00 33.15 LIG 0.04  A 
ATOM      6  CZ  TYR B   2      56.180 150.809   2.008  1.00 33.29 LIG 0.07  A 
ATOM      7  CE1 TYR B   2      56.930 151.231   3.107  1.00 33.06 LIG 0.04  A 
ATOM      8  CD1 TYR B   2      57.807 150.337   3.718  1.00 32.67 LIG 0.01  A 
BRANCH 6 9
ATOM      9 OH   TYR B   2      55.317 151.680   1.394  1.00 34.60 LIG-0.36  OA
ATOM     10 HH   TYR B   2      55.655 152.448   1.382  1.00 34.60 LIG 0.22  HD
ENDBRANCH 6 9
ENDBRANCH 2 3
ENDBRANCH 1 2
BRANCH 1 11
ATOM     11  C   TYR B   2      60.979 148.240   2.534  1.00 30.52 LIG 0.24  C 
ATOM     12  N   TYR B   3      61.557 147.058   2.347  1.00 32.89 LIG-0.35  N 
ATOM     13 H    TYR B   3      61.630 146.463   2.963  1.00 32.89 LIG 0.16  HD
ATOM     14 O    TYR B   2      60.918 149.122   1.671  1.00 30.24 LIG-0.27  OA
BRANCH 12 15
ATOM     15  CA  TYR B   3      62.124 146.654   1.067  1.00 36.06 LIG 0.17  C 
BRANCH 15 16
ATOM     16  C   TYR B   3      61.073 145.983   0.184  1.00 37.31 LIG 0.22  C 
ATOM     17 O    TYR B   3      59.912 146.402   0.162  1.00 39.71 LIG-0.29  OA
ENDBRANCH 15 16
BRANCH 15 18
ATOM     18  CB  TYR B   3      63.319 145.721   1.289  1.00 37.43 LIG 0.07  C 
BRANCH 18 19
ATOM     19  CG  TYR B   3      64.616 146.254   0.728  1.00 38.24 LIG-0.06  A 
ATOM     20  CD2 TYR B   3      65.747 146.401   1.542  1.00 38.70 LIG 0.01  A 
ATOM     21  CE2 TYR B   3      66.943 146.887   1.022  1.00 39.79 LIG 0.04  A 
ATOM     22  CZ  TYR B   3      67.015 147.234  -0.322  1.00 40.15 LIG 0.07  A 
ATOM     23  CE1 TYR B   3      65.905 147.098  -1.152  1.00 39.97 LIG 0.04  A 
ATOM     24  CD1 TYR B   3      64.718 146.611  -0.626  1.00 39.23 LIG 0.01  A 
BRANCH 22 25
ATOM     25 OH   TYR B   3      68.186 147.719  -0.856  1.00 40.04 LIG-0.36  OA
ATOM     26 HH   TYR B   3      68.725 147.895  -0.236  1.00 40.04 LIG 0.22  HD
ENDBRANCH 22 25
ENDBRANCH 18 19
ENDBRANCH 15 18
ENDBRANCH 12 15
ENDBRANCH 1 11
BRANCH 1 27
ATOM     27  N   TYR B   2      60.507 149.866   4.262  1.00 25.33 LIG-0.35  N 
ATOM     28  C   TYR B   1      61.641 150.549   4.136  1.00 22.87 LIG 0.25  C 
ATOM     29 O    TYR B   1      62.662 150.087   3.620  1.00 21.86 LIG-0.27  OA
ATOM     30 H    TYR B   2      59.779 150.213   4.560  1.00 25.33 LIG 0.16  HD
BRANCH 28 31
ATOM     31  CA  TYR B   1      61.612 151.980   4.670  1.00 21.88 LIG 0.28  C 
BRANCH 31 32
ATOM     32  CB  TYR B   1      60.317 152.664   4.226  1.00 21.24 LIG 0.08  C 
BRANCH 32 33
ATOM     33  CG  TYR B   1      60.315 153.141   2.794  1.00 20.81 LIG-0.06  A 
ATOM     34  CD1 TYR B   1      59.329 154.024   2.332  1.00 20.37 LIG 0.01  A 
ATOM     35  CE1 TYR B   1      59.326 154.465   1.013  1.00 19.95 LIG 0.04  A 
ATOM     36  CZ  TYR B   1      60.322 154.019   0.142  1.00 20.32 LIG 0.07  A 
ATOM     37  CE2 TYR B   1      61.309 153.145   0.578  1.00 20.63 LIG 0.04  A 
ATOM     38  CD2 TYR B   1      61.301 152.711   1.896  1.00 20.57 LIG 0.01  A 
BRANCH 36 39
ATOM     39 OH   TYR B   1      60.349 154.441  -1.165  1.00 20.56 LIG-0.36  OA
ATOM     40 HH   TYR B   1      59.945 155.174  -1.232  1.00 20.56 LIG 0.22  HD
ENDBRANCH 36 39
ENDBRANCH 32 33
ENDBRANCH 31 32
BRANCH 31 41
ATOM     41  N   TYR B   1      62.798 152.770   4.220  1.00 21.11 LIG-0.07  N 
ATOM     42 H2   TYR B   1      63.511 152.238   4.178  1.00 21.11 LIG 0.28  HD
ATOM     43 H1   TYR B   1      62.953 153.428   4.799  1.00 21.11 LIG 0.28  HD
ATOM     44 H3   TYR B   1      62.638 153.114   3.415  1.00 21.11 LIG 0.28  HD
ENDBRANCH 31 41
ENDBRANCH 28 31
ENDBRANCH 1 27
TORSDOF 15
ENDMDL
MODEL 18
USER: ADFR SOLUTION from run 154
USER: SCORE 16.134313 LL:  -2.290 LR: -14.535 RR:   0.000 FEB: -10.061
USER: RMSD 7.771228
USER: SEED 153
USER: STATUS no improvement in best in 6 clusters for 5 generations
USER: GENES 17
USER: genes 0 Translation |==|  0.53047 0.43916 0.61055
USER: genes 1 Rotation |==|  0.77084 0.91822 0.49417 0.54124
USER: genes 2 Torsion [C]-CA--CB-[CG] |==|  0.36585
USER: genes 3 Torsion [CA]-CB--CG-[CD2] |==|  0.23474
USER: genes 4 Torsion [CE2]-CZ--OH-[HH] |==|  0.39983
USER: genes 5 Torsion [N]-CA--C-[N] |==|  0.81731
USER: genes 6 Torsion [C]-N--CA-[C] |==|  0.21055
USER: genes 7 Torsion [N]-CA--C-[O] |==|  0.05115
USER: genes 8 Torsion [N]-CA--CB-[CG] |==|  0.83788
USER: genes 9 Torsion [CA]-CB--CG-[CD2] |==|  0.77622
USER: genes 10 Torsion [CE2]-CZ--OH-[HH] |==|  0.95903
USER: genes 11 Torsion [CB]-CA--N-[C] |==|  0.86426
USER: genes 12 Torsion [N]-C--CA-[N] |==|  0.32066
USER: genes 13 Torsion [C]-CA--CB-[CG] |==|  0.78127
USER: genes 14 Torsion [CA]-CB--CG-[CD1] |==|  0.00255
USER: genes 15 Torsion [CE1]-CZ--OH-[HH] |==|  0.64560
USER: genes 16 Torsion [C]-CA--N-[H1] |==|  0.00179
ROOT
ATOM      1  CA  TYR B   2      61.074 148.163   4.260  1.00 28.44 LIG 0.18  C 
ENDROOT
BRANCH 1 2
ATOM      2  CB  TYR B   2      60.282 147.783   3.003  1.00 30.17 LIG 0.07  C 
BRANCH 2 3
ATOM      3  CG  TYR B   2      59.088 146.870   3.233  1.00 31.12 LIG-0.06  A 
ATOM      4  CD2 TYR B   2      57.843 147.393   3.608  1.00 31.81 LIG 0.01  A 
ATOM      5  CE2 TYR B   2      56.744 146.560   3.813  1.00 33.15 LIG 0.04  A 
ATOM      6  CZ  TYR B   2      56.884 145.188   3.644  1.00 33.29 LIG 0.07  A 
ATOM      7  CE1 TYR B   2      58.110 144.637   3.266  1.00 33.06 LIG 0.04  A 
ATOM      8  CD1 TYR B   2      59.201 145.479   3.062  1.00 32.67 LIG 0.01  A 
BRANCH 6 9
ATOM      9 OH   TYR B   2      55.802 144.370   3.852  1.00 34.60 LIG-0.36  OA
ATOM     10 HH   TYR B   2      55.820 143.736   3.302  1.00 34.60 LIG 0.22  HD
ENDBRANCH 6 9
ENDBRANCH 2 3
ENDBRANCH 1 2
BRANCH 1 11
ATOM     11  C   TYR B   2      62.557 147.962   4.027  1.00 30.52 LIG 0.24  C 
ATOM     12  N   TYR B   3      63.059 148.595   2.971  1.00 32.89 LIG-0.35  N 
ATOM     13 H    TYR B   3      62.582 149.059   2.426  1.00 32.89 LIG 0.16  HD
ATOM     14 O    TYR B   2      63.224 147.247   4.782  1.00 30.24 LIG-0.27  OA
BRANCH 12 15
ATOM     15  CA  TYR B   3      64.476 148.563   2.634  1.00 36.06 LIG 0.17  C 
BRANCH 15 16
ATOM     16  C   TYR B   3      64.865 147.223   2.011  1.00 37.31 LIG 0.22  C 
ATOM     17 O    TYR B   3      64.003 146.476   1.540  1.00 39.71 LIG-0.29  OA
ENDBRANCH 15 16
BRANCH 15 18
ATOM     18  CB  TYR B   3      65.322 148.848   3.879  1.00 37.43 LIG 0.07  C 
BRANCH 18 19
ATOM     19  CG  TYR B   3      65.022 150.178   4.526  1.00 38.24 LIG-0.06  A 
ATOM     20  CD2 TYR B   3      65.567 151.365   4.019  1.00 38.70 LIG 0.01  A 
ATOM     21  CE2 TYR B   3      65.285 152.592   4.613  1.00 39.79 LIG 0.04  A 
ATOM     22  CZ  TYR B   3      64.454 152.638   5.727  1.00 40.15 LIG 0.07  A 
ATOM     23  CE1 TYR B   3      63.901 151.473   6.251  1.00 39.97 LIG 0.04  A 
ATOM     24  CD1 TYR B   3      64.186 150.255   5.651  1.00 39.23 LIG 0.01  A 
BRANCH 22 25
ATOM     25 OH   TYR B   3      64.164 153.840   6.331  1.00 40.04 LIG-0.36  OA
ATOM     26 HH   TYR B   3      64.701 154.426   6.061  1.00 40.04 LIG 0.22  HD
ENDBRANCH 22 25
ENDBRANCH 18 19
ENDBRANCH 15 18
ENDBRANCH 12 15
ENDBRANCH 1 11
BRANCH 1 27
ATOM     27  N   TYR B   2      60.829 149.556   4.595  1.00 25.33 LIG-0.35  N 
ATOM     28  C   TYR B   1      60.910 150.542   3.707  1.00 22.87 LIG 0.25  C 
ATOM     29 O    TYR B   1      61.103 150.360   2.501  1.00 21.86 LIG-0.27  OA
ATOM     30 H    TYR B   2      60.627 149.682   5.422  1.00 25.33 LIG 0.16  HD
BRANCH 28 31
ATOM     31  CA  TYR B   1      60.737 151.952   4.268  1.00 21.88 LIG 0.28  C 
BRANCH 31 32
ATOM     32  CB  TYR B   1      59.563 152.640   3.569  1.00 21.24 LIG 0.08  C 
BRANCH 32 33
ATOM     33  CG  TYR B   1      59.875 153.180   2.195  1.00 20.81 LIG-0.06  A 
ATOM     34  CD1 TYR B   1      61.150 153.022   1.634  1.00 20.37 LIG 0.01  A 
ATOM     35  CE1 TYR B   1      61.440 153.518   0.367  1.00 19.95 LIG 0.04  A 
ATOM     36  CZ  TYR B   1      60.442 154.181  -0.351  1.00 20.32 LIG 0.07  A 
ATOM     37  CE2 TYR B   1      59.172 154.348   0.186  1.00 20.63 LIG 0.04  A 
ATOM     38  CD2 TYR B   1      58.895 153.850   1.451  1.00 20.57 LIG 0.01  A 
BRANCH 36 39
ATOM     39 OH   TYR B   1      60.695 154.678  -1.606  1.00 20.56 LIG-0.36  OA
ATOM     40 HH   TYR B   1      60.474 155.488  -1.637  1.00 20.56 LIG 0.22  HD
ENDBRANCH 36 39
ENDBRANCH 32 33
ENDBRANCH 31 32
BRANCH 31 41
ATOM     41  N   TYR B   1      61.980 152.769   4.121  1.00 21.11 LIG-0.07  N 
ATOM     42 H2   TYR B   1      61.805 153.493   3.633  1.00 21.11 LIG 0.28  HD
ATOM     43 H1   TYR B   1      62.609 152.284   3.718  1.00 21.11 LIG 0.28  HD
ATOM     44 H3   TYR B   1      62.269 153.018   4.926  1.00 21.11 LIG 0.28  HD
ENDBRANCH 31 41
ENDBRANCH 28 31
ENDBRANCH 1 27
TORSDOF 15
ENDMDL
MODEL 19
USER: ADFR SOLUTION from run 179
USER: SCORE 16.392687 LL:  -2.312 LR: -14.543 RR:   0.000 FEB: -10.069
USER: RMSD 9.207925
USER: SEED 178
USER: STATUS no improvement in best in 4 clusters for 5 generations
USER: GENES 17
USER: genes 0 Translation |==|  0.54570 0.53279 0.50838
USER: genes 1 Rotation |==|  0.09714 0.39711 0.22716 0.55173
USER: genes 2 Torsion [C]-CA--CB-[CG] |==|  0.34078
USER: genes 3 Torsion [CA]-CB--CG-[CD2] |==|  0.61130
USER: genes 4 Torsion [CE2]-CZ--OH-[HH] |==|  0.90091
USER: genes 5 Torsion [N]-CA--C-[N] |==|  0.28599
USER: genes 6 Torsion [C]-N--CA-[C] |==|  0.48677
USER: genes 7 Torsion [N]-CA--C-[O] |==|  0.13934
USER: genes 8 Torsion [N]-CA--CB-[CG] |==|  0.71223
USER: genes 9 Torsion [CA]-CB--CG-[CD2] |==|  0.91186
USER: genes 10 Torsion [CE2]-CZ--OH-[HH] |==|  0.42925
USER: genes 11 Torsion [CB]-CA--N-[C] |==|  0.57222
USER: genes 12 Torsion [N]-C--CA-[N] |==|  0.46493
USER: genes 13 Torsion [C]-CA--CB-[CG] |==|  0.10819
USER: genes 14 Torsion [CA]-CB--CG-[CD1] |==|  0.72285
USER: genes 15 Torsion [CE1]-CZ--OH-[HH] |==|  0.38793
USER: genes 16 Torsion [C]-CA--N-[H1] |==|  0.76513
ROOT
ATOM      1  CA  TYR B   2      61.451 150.059   2.651  1.00 28.44 LIG 0.18  C 
ENDROOT
BRANCH 1 2
ATOM      2  CB  TYR B   2      62.064 151.419   2.292  1.00 30.17 LIG 0.07  C 
BRANCH 2 3
ATOM      3  CG  TYR B   2      61.088 152.454   1.756  1.00 31.12 LIG-0.06  A 
ATOM      4  CD2 TYR B   2      61.445 153.301   0.697  1.00 31.81 LIG 0.01  A 
ATOM      5  CE2 TYR B   2      60.551 154.246   0.198  1.00 33.15 LIG 0.04  A 
ATOM      6  CZ  TYR B   2      59.284 154.355   0.758  1.00 33.29 LIG 0.07  A 
ATOM      7  CE1 TYR B   2      58.897 153.523   1.811  1.00 33.06 LIG 0.04  A 
ATOM      8  CD1 TYR B   2      59.798 152.579   2.301  1.00 32.67 LIG 0.01  A 
BRANCH 6 9
ATOM      9 OH   TYR B   2      58.409 155.290   0.269  1.00 34.60 LIG-0.36  OA
ATOM     10 HH   TYR B   2      58.833 155.980   0.045  1.00 34.60 LIG 0.22  HD
ENDBRANCH 6 9
ENDBRANCH 2 3
ENDBRANCH 1 2
BRANCH 1 11
ATOM     11  C   TYR B   2      62.136 148.954   1.874  1.00 30.52 LIG 0.24  C 
ATOM     12  N   TYR B   3      61.325 148.039   1.351  1.00 32.89 LIG-0.35  N 
ATOM     13 H    TYR B   3      60.473 148.038   1.468  1.00 32.89 LIG 0.16  HD
ATOM     14 O    TYR B   2      63.366 148.932   1.758  1.00 30.24 LIG-0.27  OA
BRANCH 12 15
ATOM     15  CA  TYR B   3      61.808 146.943   0.522  1.00 36.06 LIG 0.17  C 
BRANCH 15 16
ATOM     16  C   TYR B   3      60.674 145.984   0.158  1.00 37.31 LIG 0.22  C 
ATOM     17 O    TYR B   3      59.615 146.413  -0.309  1.00 39.71 LIG-0.29  OA
ENDBRANCH 15 16
BRANCH 15 18
ATOM     18  CB  TYR B   3      62.939 146.197   1.236  1.00 37.43 LIG 0.07  C 
BRANCH 18 19
ATOM     19  CG  TYR B   3      64.313 146.522   0.701  1.00 38.24 LIG-0.06  A 
ATOM     20  CD2 TYR B   3      64.503 146.844  -0.649  1.00 38.70 LIG 0.01  A 
ATOM     21  CE2 TYR B   3      65.769 147.149  -1.139  1.00 39.79 LIG 0.04  A 
ATOM     22  CZ  TYR B   3      66.861 147.130  -0.278  1.00 40.15 LIG 0.07  A 
ATOM     23  CE1 TYR B   3      66.699 146.812   1.068  1.00 39.97 LIG 0.04  A 
ATOM     24  CD1 TYR B   3      65.432 146.512   1.548  1.00 39.23 LIG 0.01  A 
BRANCH 22 25
ATOM     25 OH   TYR B   3      68.121 147.426  -0.742  1.00 40.04 LIG-0.36  OA
ATOM     26 HH   TYR B   3      68.593 147.714  -0.109  1.00 40.04 LIG 0.22  HD
ENDBRANCH 22 25
ENDBRANCH 18 19
ENDBRANCH 15 18
ENDBRANCH 12 15
ENDBRANCH 1 11
BRANCH 1 27
ATOM     27  N   TYR B   2      61.607 149.808   4.074  1.00 25.33 LIG-0.35  N 
ATOM     28  C   TYR B   1      61.651 148.585   4.596  1.00 22.87 LIG 0.25  C 
ATOM     29 O    TYR B   1      61.661 147.554   3.917  1.00 21.86 LIG-0.27  OA
ATOM     30 H    TYR B   2      61.668 150.524   4.547  1.00 25.33 LIG 0.16  HD
BRANCH 28 31
ATOM     31  CA  TYR B   1      61.698 148.520   6.121  1.00 21.88 LIG 0.28  C 
BRANCH 31 32
ATOM     32  CB  TYR B   1      63.056 149.025   6.612  1.00 21.24 LIG 0.08  C 
BRANCH 32 33
ATOM     33  CG  TYR B   1      63.601 150.208   5.850  1.00 20.81 LIG-0.06  A 
ATOM     34  CD1 TYR B   1      64.573 150.036   4.855  1.00 20.37 LIG 0.01  A 
ATOM     35  CE1 TYR B   1      65.076 151.124   4.151  1.00 19.95 LIG 0.04  A 
ATOM     36  CZ  TYR B   1      64.603 152.405   4.445  1.00 20.32 LIG 0.07  A 
ATOM     37  CE2 TYR B   1      63.640 152.599   5.427  1.00 20.63 LIG 0.04  A 
ATOM     38  CD2 TYR B   1      63.146 151.505   6.123  1.00 20.57 LIG 0.01  A 
BRANCH 36 39
ATOM     39 OH   TYR B   1      65.077 153.500   3.764  1.00 20.56 LIG-0.36  OA
ATOM     40 HH   TYR B   1      64.442 154.025   3.600  1.00 20.56 LIG 0.22  HD
ENDBRANCH 36 39
ENDBRANCH 32 33
ENDBRANCH 31 32
BRANCH 31 41
ATOM     41  N   TYR B   1      61.442 147.138   6.630  1.00 21.11 LIG-0.07  N 
ATOM     42 H2   TYR B   1      61.798 146.544   6.071  1.00 21.11 LIG 0.28  HD
ATOM     43 H1   TYR B   1      60.564 147.001   6.689  1.00 21.11 LIG 0.28  HD
ATOM     44 H3   TYR B   1      61.811 147.045   7.435  1.00 21.11 LIG 0.28  HD
ENDBRANCH 31 41
ENDBRANCH 28 31
ENDBRANCH 1 27
TORSDOF 15
ENDMDL
MODEL 20
USER: ADFR SOLUTION from run 183
USER: SCORE 16.093357 LL:  -2.184 LR: -14.542 RR:   0.000 FEB: -10.068
USER: RMSD 6.507405
USER: SEED 182
USER: STATUS no improvement in best in 2 clusters for 5 generations
USER: GENES 17
USER: genes 0 Translation |==|  0.57781 0.53337 0.54702
USER: genes 1 Rotation |==|  0.13693 0.77462 0.50171 0.70679
USER: genes 2 Torsion [C]-CA--CB-[CG] |==|  0.26759
USER: genes 3 Torsion [CA]-CB--CG-[CD2] |==|  0.93388
USER: genes 4 Torsion [CE2]-CZ--OH-[HH] |==|  0.82684
USER: genes 5 Torsion [N]-CA--C-[N] |==|  0.63036
USER: genes 6 Torsion [C]-N--CA-[C] |==|  0.60180
USER: genes 7 Torsion [N]-CA--C-[O] |==|  0.40985
USER: genes 8 Torsion [N]-CA--CB-[CG] |==|  0.61611
USER: genes 9 Torsion [CA]-CB--CG-[CD2] |==|  0.22026
USER: genes 10 Torsion [CE2]-CZ--OH-[HH] |==|  0.41455
USER: genes 11 Torsion [CB]-CA--N-[C] |==|  0.17575
USER: genes 12 Torsion [N]-C--CA-[N] |==|  0.79601
USER: genes 13 Torsion [C]-CA--CB-[CG] |==|  0.22442
USER: genes 14 Torsion [CA]-CB--CG-[CD1] |==|  0.01696
USER: genes 15 Torsion [CE1]-CZ--OH-[HH] |==|  0.90124
USER: genes 16 Torsion [C]-CA--N-[H1] |==|  0.16474
ROOT
ATOM      1  CA  TYR B   2      62.246 150.071   3.259  1.00 28.44 LIG 0.18  C 
ENDROOT
BRANCH 1 2
ATOM      2  CB  TYR B   2      63.613 150.709   2.983  1.00 30.17 LIG 0.07  C 
BRANCH 2 3
ATOM      3  CG  TYR B   2      64.121 151.657   4.057  1.00 31.12 LIG-0.06  A 
ATOM      4  CD2 TYR B   2      63.233 152.297   4.933  1.00 31.81 LIG 0.01  A 
ATOM      5  CE2 TYR B   2      63.696 153.161   5.923  1.00 33.15 LIG 0.04  A 
ATOM      6  CZ  TYR B   2      65.060 153.394   6.047  1.00 33.29 LIG 0.07  A 
ATOM      7  CE1 TYR B   2      65.971 152.768   5.193  1.00 33.06 LIG 0.04  A 
ATOM      8  CD1 TYR B   2      65.498 151.904   4.207  1.00 32.67 LIG 0.01  A 
BRANCH 6 9
ATOM      9 OH   TYR B   2      65.512 154.250   7.019  1.00 34.60 LIG-0.36  OA
ATOM     10 HH   TYR B   2      65.207 155.020   6.878  1.00 34.60 LIG 0.22  HD
ENDBRANCH 6 9
ENDBRANCH 2 3
ENDBRANCH 1 2
BRANCH 1 11
ATOM     11  C   TYR B   2      61.151 150.855   2.566  1.00 30.52 LIG 0.24  C 
ATOM     12  N   TYR B   3      61.515 152.042   2.090  1.00 32.89 LIG-0.35  N 
ATOM     13 H    TYR B   3      62.301 152.373   2.193  1.00 32.89 LIG 0.16  HD
ATOM     14 O    TYR B   2      60.008 150.395   2.472  1.00 30.24 LIG-0.27  OA
BRANCH 12 15
ATOM     15  CA  TYR B   3      60.607 152.900   1.341  1.00 36.06 LIG 0.17  C 
BRANCH 15 16
ATOM     16  C   TYR B   3      61.341 153.639   0.223  1.00 37.31 LIG 0.22  C 
ATOM     17 O    TYR B   3      60.766 153.911  -0.834  1.00 39.71 LIG-0.29  OA
ENDBRANCH 15 16
BRANCH 15 18
ATOM     18  CB  TYR B   3      59.918 153.893   2.283  1.00 37.43 LIG 0.07  C 
BRANCH 18 19
ATOM     19  CG  TYR B   3      58.448 154.083   1.995  1.00 38.24 LIG-0.06  A 
ATOM     20  CD2 TYR B   3      57.501 153.146   2.428  1.00 38.70 LIG 0.01  A 
ATOM     21  CE2 TYR B   3      56.146 153.326   2.165  1.00 39.79 LIG 0.04  A 
ATOM     22  CZ  TYR B   3      55.728 154.449   1.461  1.00 40.15 LIG 0.07  A 
ATOM     23  CE1 TYR B   3      56.649 155.394   1.018  1.00 39.97 LIG 0.04  A 
ATOM     24  CD1 TYR B   3      57.998 155.208   1.287  1.00 39.23 LIG 0.01  A 
BRANCH 22 25
ATOM     25 OH   TYR B   3      54.394 154.645   1.188  1.00 40.04 LIG-0.36  OA
ATOM     26 HH   TYR B   3      54.232 155.468   1.160  1.00 40.04 LIG 0.22  HD
ENDBRANCH 22 25
ENDBRANCH 18 19
ENDBRANCH 15 18
ENDBRANCH 12 15
ENDBRANCH 1 11
BRANCH 1 27
ATOM     27  N   TYR B   2      62.233 148.701   2.772  1.00 25.33 LIG-0.35  N 
ATOM     28  C   TYR B   1      63.027 147.750   3.256  1.00 22.87 LIG 0.25  C 
ATOM     29 O    TYR B   1      63.776 147.914   4.224  1.00 21.86 LIG-0.27  OA
ATOM     30 H    TYR B   2      61.664 148.564   2.142  1.00 25.33 LIG 0.16  HD
BRANCH 28 31
ATOM     31  CA  TYR B   1      62.957 146.404   2.539  1.00 21.88 LIG 0.28  C 
BRANCH 31 32
ATOM     32  CB  TYR B   1      63.087 146.622   1.030  1.00 21.24 LIG 0.08  C 
BRANCH 32 33
ATOM     33  CG  TYR B   1      64.502 146.805   0.540  1.00 20.81 LIG-0.06  A 
ATOM     34  CD1 TYR B   1      65.590 146.646   1.409  1.00 20.37 LIG 0.01  A 
ATOM     35  CE1 TYR B   1      66.896 146.813   0.959  1.00 19.95 LIG 0.04  A 
ATOM     36  CZ  TYR B   1      67.119 147.145  -0.379  1.00 20.32 LIG 0.07  A 
ATOM     37  CE2 TYR B   1      66.055 147.308  -1.258  1.00 20.63 LIG 0.04  A 
ATOM     38  CD2 TYR B   1      64.758 147.139  -0.797  1.00 20.57 LIG 0.01  A 
BRANCH 36 39
ATOM     39 OH   TYR B   1      68.396 147.313  -0.856  1.00 20.56 LIG-0.36  OA
ATOM     40 HH   TYR B   1      68.874 147.662  -0.260  1.00 20.56 LIG 0.22  HD
ENDBRANCH 36 39
ENDBRANCH 32 33
ENDBRANCH 31 32
BRANCH 31 41
ATOM     41  N   TYR B   1      61.693 145.668   2.851  1.00 21.11 LIG-0.07  N 
ATOM     42 H2   TYR B   1      61.683 144.895   2.410  1.00 21.11 LIG 0.28  HD
ATOM     43 H1   TYR B   1      60.994 146.160   2.604  1.00 21.11 LIG 0.28  HD
ATOM     44 H3   TYR B   1      61.650 145.509   3.726  1.00 21.11 LIG 0.28  HD
ENDBRANCH 31 41
ENDBRANCH 28 31
ENDBRANCH 1 27
TORSDOF 15
ENDMDL
MODEL 21
USER: ADFR SOLUTION from run 9
USER: SCORE 16.270178 LL:  -2.102 LR: -14.489 RR:   0.000 FEB: -10.014
USER: RMSD 7.817224
USER: SEED 923462
USER: STATUS no improvement in best in 7 clusters for 5 generations
USER: GENES 17
USER: genes 0 Translation |==|  0.54116 0.45241 0.47511
USER: genes 1 Rotation |==|  0.67156 0.36518 0.77587 0.85536
USER: genes 2 Torsion [C]-CA--CB-[CG] |==|  0.38350
USER: genes 3 Torsion [CA]-CB--CG-[CD2] |==|  0.79875
USER: genes 4 Torsion [CE2]-CZ--OH-[HH] |==|  0.46101
USER: genes 5 Torsion [N]-CA--C-[N] |==|  0.02222
USER: genes 6 Torsion [C]-N--CA-[C] |==|  0.63899
USER: genes 7 Torsion [N]-CA--C-[O] |==|  0.47929
USER: genes 8 Torsion [N]-CA--CB-[CG] |==|  0.67318
USER: genes 9 Torsion [CA]-CB--CG-[CD2] |==|  0.14621
USER: genes 10 Torsion [CE2]-CZ--OH-[HH] |==|  0.85506
USER: genes 11 Torsion [CB]-CA--N-[C] |==|  0.20417
USER: genes 12 Torsion [N]-C--CA-[N] |==|  0.51636
USER: genes 13 Torsion [C]-CA--CB-[CG] |==|  0.82242
USER: genes 14 Torsion [CA]-CB--CG-[CD1] |==|  0.47697
USER: genes 15 Torsion [CE1]-CZ--OH-[HH] |==|  0.29788
USER: genes 16 Torsion [C]-CA--N-[H1] |==|  0.24629
ROOT
ATOM      1  CA  TYR B   2      61.339 148.431   2.127  1.00 28.44 LIG 0.18  C 
ENDROOT
BRANCH 1 2
ATOM      2  CB  TYR B   2      62.307 147.450   2.799  1.00 30.17 LIG 0.07  C 
BRANCH 2 3
ATOM      3  CG  TYR B   2      63.673 147.327   2.143  1.00 31.12 LIG-0.06  A 
ATOM      4  CD2 TYR B   2      63.827 146.666   0.916  1.00 31.81 LIG 0.01  A 
ATOM      5  CE2 TYR B   2      65.076 146.557   0.308  1.00 33.15 LIG 0.04  A 
ATOM      6  CZ  TYR B   2      66.190 147.112   0.926  1.00 33.29 LIG 0.07  A 
ATOM      7  CE1 TYR B   2      66.069 147.781   2.146  1.00 33.06 LIG 0.04  A 
ATOM      8  CD1 TYR B   2      64.815 147.886   2.744  1.00 32.67 LIG 0.01  A 
BRANCH 6 9
ATOM      9 OH   TYR B   2      67.419 146.998   0.328  1.00 34.60 LIG-0.36  OA
ATOM     10 HH   TYR B   2      67.958 147.528   0.694  1.00 34.60 LIG 0.22  HD
ENDBRANCH 6 9
ENDBRANCH 2 3
ENDBRANCH 1 2
BRANCH 1 11
ATOM     11  C   TYR B   2      59.946 147.839   2.072  1.00 30.52 LIG 0.24  C 
ATOM     12  N   TYR B   3      58.977 148.616   2.545  1.00 32.89 LIG-0.35  N 
ATOM     13 H    TYR B   3      59.117 149.388   2.896  1.00 32.89 LIG 0.16  HD
ATOM     14 O    TYR B   2      59.760 146.705   1.618  1.00 30.24 LIG-0.27  OA
BRANCH 12 15
ATOM     15  CA  TYR B   3      57.572 148.230   2.512  1.00 36.06 LIG 0.17  C 
BRANCH 15 16
ATOM     16  C   TYR B   3      56.709 149.342   1.917  1.00 37.31 LIG 0.22  C 
ATOM     17 O    TYR B   3      55.513 149.150   1.679  1.00 39.71 LIG-0.29  OA
ENDBRANCH 15 16
BRANCH 15 18
ATOM     18  CB  TYR B   3      57.090 147.864   3.919  1.00 37.43 LIG 0.07  C 
BRANCH 18 19
ATOM     19  CG  TYR B   3      56.639 146.429   4.051  1.00 38.24 LIG-0.06  A 
ATOM     20  CD2 TYR B   3      57.467 145.374   3.648  1.00 38.70 LIG 0.01  A 
ATOM     21  CE2 TYR B   3      57.052 144.051   3.775  1.00 39.79 LIG 0.04  A 
ATOM     22  CZ  TYR B   3      55.797 143.776   4.307  1.00 40.15 LIG 0.07  A 
ATOM     23  CE1 TYR B   3      54.954 144.807   4.713  1.00 39.97 LIG 0.04  A 
ATOM     24  CD1 TYR B   3      55.378 146.122   4.585  1.00 39.23 LIG 0.01  A 
BRANCH 22 25
ATOM     25 OH   TYR B   3      55.365 142.476   4.439  1.00 40.04 LIG-0.36  OA
ATOM     26 HH   TYR B   3      55.448 142.077   3.705  1.00 40.04 LIG 0.22  HD
ENDBRANCH 22 25
ENDBRANCH 18 19
ENDBRANCH 15 18
ENDBRANCH 12 15
ENDBRANCH 1 11
BRANCH 1 27
ATOM     27  N   TYR B   2      61.298 149.676   2.877  1.00 25.33 LIG-0.35  N 
ATOM     28  C   TYR B   1      62.287 150.565   2.864  1.00 22.87 LIG 0.25  C 
ATOM     29 O    TYR B   1      63.285 150.465   2.144  1.00 21.86 LIG-0.27  OA
ATOM     30 H    TYR B   2      60.574 149.784   3.329  1.00 25.33 LIG 0.16  HD
BRANCH 28 31
ATOM     31  CA  TYR B   1      62.118 151.754   3.806  1.00 21.88 LIG 0.28  C 
BRANCH 31 32
ATOM     32  CB  TYR B   1      60.746 152.393   3.581  1.00 21.24 LIG 0.08  C 
BRANCH 32 33
ATOM     33  CG  TYR B   1      60.546 152.991   2.210  1.00 20.81 LIG-0.06  A 
ATOM     34  CD1 TYR B   1      59.287 153.454   1.805  1.00 20.37 LIG 0.01  A 
ATOM     35  CE1 TYR B   1      59.101 154.008   0.542  1.00 19.95 LIG 0.04  A 
ATOM     36  CZ  TYR B   1      60.189 154.100  -0.329  1.00 20.32 LIG 0.07  A 
ATOM     37  CE2 TYR B   1      61.445 153.647   0.052  1.00 20.63 LIG 0.04  A 
ATOM     38  CD2 TYR B   1      61.618 153.097   1.314  1.00 20.57 LIG 0.01  A 
BRANCH 36 39
ATOM     39 OH   TYR B   1      60.039 154.645  -1.581  1.00 20.56 LIG-0.36  OA
ATOM     40 HH   TYR B   1      60.401 155.403  -1.602  1.00 20.56 LIG 0.22  HD
ENDBRANCH 36 39
ENDBRANCH 32 33
ENDBRANCH 31 32
BRANCH 31 41
ATOM     41  N   TYR B   1      63.200 152.770   3.627  1.00 21.11 LIG-0.07  N 
ATOM     42 H2   TYR B   1      63.334 153.200   4.395  1.00 21.11 LIG 0.28  HD
ATOM     43 H1   TYR B   1      62.959 153.353   2.999  1.00 21.11 LIG 0.28  HD
ATOM     44 H3   TYR B   1      63.952 152.363   3.381  1.00 21.11 LIG 0.28  HD
ENDBRANCH 31 41
ENDBRANCH 28 31
ENDBRANCH 1 27
TORSDOF 15
ENDMDL
MODEL 22
USER: ADFR SOLUTION from run 106
USER: SCORE 16.170726 LL:  -2.423 LR: -14.478 RR:   0.000 FEB: -10.003
USER: RMSD 8.011590
USER: SEED 105
USER: STATUS no improvement in best in 17 clusters for 5 generations
USER: GENES 17
USER: genes 0 Translation |==|  0.56687 0.49090 0.49787
USER: genes 1 Rotation |==|  0.66454 0.42129 0.61413 0.95134
USER: genes 2 Torsion [C]-CA--CB-[CG] |==|  0.52009
USER: genes 3 Torsion [CA]-CB--CG-[CD2] |==|  0.67785
USER: genes 4 Torsion [CE2]-CZ--OH-[HH] |==|  0.38745
USER: genes 5 Torsion [N]-CA--C-[N] |==|  0.12693
USER: genes 6 Torsion [C]-N--CA-[C] |==|  0.83246
USER: genes 7 Torsion [N]-CA--C-[O] |==|  0.29733
USER: genes 8 Torsion [N]-CA--CB-[CG] |==|  0.11427
USER: genes 9 Torsion [CA]-CB--CG-[CD2] |==|  0.30013
USER: genes 10 Torsion [CE2]-CZ--OH-[HH] |==|  0.10370
USER: genes 11 Torsion [CB]-CA--N-[C] |==|  0.80556
USER: genes 12 Torsion [N]-C--CA-[N] |==|  0.14415
USER: genes 13 Torsion [C]-CA--CB-[CG] |==|  0.74565
USER: genes 14 Torsion [CA]-CB--CG-[CD1] |==|  0.15857
USER: genes 15 Torsion [CE1]-CZ--OH-[HH] |==|  0.57706
USER: genes 16 Torsion [C]-CA--N-[H1] |==|  0.71746
ROOT
ATOM      1  CA  TYR B   2      61.975 149.211   2.485  1.00 28.44 LIG 0.18  C 
ENDROOT
BRANCH 1 2
ATOM      2  CB  TYR B   2      62.451 147.819   2.920  1.00 30.17 LIG 0.07  C 
BRANCH 2 3
ATOM      3  CG  TYR B   2      63.853 147.438   2.472  1.00 31.12 LIG-0.06  A 
ATOM      4  CD2 TYR B   2      64.063 146.368   1.590  1.00 31.81 LIG 0.01  A 
ATOM      5  CE2 TYR B   2      65.345 146.021   1.172  1.00 33.15 LIG 0.04  A 
ATOM      6  CZ  TYR B   2      66.438 146.744   1.636  1.00 33.29 LIG 0.07  A 
ATOM      7  CE1 TYR B   2      66.261 147.817   2.512  1.00 33.06 LIG 0.04  A 
ATOM      8  CD1 TYR B   2      64.974 148.158   2.922  1.00 32.67 LIG 0.01  A 
BRANCH 6 9
ATOM      9 OH   TYR B   2      67.700 146.395   1.227  1.00 34.60 LIG-0.36  OA
ATOM     10 HH   TYR B   2      68.147 147.090   1.075  1.00 34.60 LIG 0.22  HD
ENDBRANCH 6 9
ENDBRANCH 2 3
ENDBRANCH 1 2
BRANCH 1 11
ATOM     11  C   TYR B   2      60.648 149.538   3.137  1.00 30.52 LIG 0.24  C 
ATOM     12  N   TYR B   3      60.275 150.812   3.063  1.00 32.89 LIG-0.35  N 
ATOM     13 H    TYR B   3      60.760 151.428   2.708  1.00 32.89 LIG 0.16  HD
ATOM     14 O    TYR B   2      59.984 148.658   3.695  1.00 30.24 LIG-0.27  OA
BRANCH 12 15
ATOM     15  CA  TYR B   3      59.000 151.290   3.581  1.00 36.06 LIG 0.17  C 
BRANCH 15 16
ATOM     16  C   TYR B   3      57.828 150.599   2.886  1.00 37.31 LIG 0.22  C 
ATOM     17 O    TYR B   3      57.159 149.748   3.479  1.00 39.71 LIG-0.29  OA
ENDBRANCH 15 16
BRANCH 15 18
ATOM     18  CB  TYR B   3      58.902 152.811   3.424  1.00 37.43 LIG 0.07  C 
BRANCH 18 19
ATOM     19  CG  TYR B   3      59.435 153.321   2.107  1.00 38.24 LIG-0.06  A 
ATOM     20  CD2 TYR B   3      58.568 153.798   1.114  1.00 38.70 LIG 0.01  A 
ATOM     21  CE2 TYR B   3      59.061 154.272  -0.097  1.00 39.79 LIG 0.04  A 
ATOM     22  CZ  TYR B   3      60.432 154.270  -0.327  1.00 40.15 LIG 0.07  A 
ATOM     23  CE1 TYR B   3      61.315 153.800   0.642  1.00 39.97 LIG 0.04  A 
ATOM     24  CD1 TYR B   3      60.814 153.331   1.848  1.00 39.23 LIG 0.01  A 
BRANCH 22 25
ATOM     25 OH   TYR B   3      60.941 154.732  -1.519  1.00 40.04 LIG-0.36  OA
ATOM     26 HH   TYR B   3      60.493 155.394  -1.777  1.00 40.04 LIG 0.22  HD
ENDBRANCH 22 25
ENDBRANCH 18 19
ENDBRANCH 15 18
ENDBRANCH 12 15
ENDBRANCH 1 11
BRANCH 1 27
ATOM     27  N   TYR B   2      62.956 150.211   2.873  1.00 25.33 LIG-0.35  N 
ATOM     28  C   TYR B   1      63.179 150.559   4.138  1.00 22.87 LIG 0.25  C 
ATOM     29 O    TYR B   1      62.647 150.000   5.102  1.00 21.86 LIG-0.27  OA
ATOM     30 H    TYR B   2      63.379 150.556   2.209  1.00 25.33 LIG 0.16  HD
BRANCH 28 31
ATOM     31  CA  TYR B   1      64.159 151.711   4.342  1.00 21.88 LIG 0.28  C 
BRANCH 31 32
ATOM     32  CB  TYR B   1      64.210 152.081   5.826  1.00 21.24 LIG 0.08  C 
BRANCH 32 33
ATOM     33  CG  TYR B   1      63.239 153.159   6.241  1.00 20.81 LIG-0.06  A 
ATOM     34  CD1 TYR B   1      61.863 153.009   6.022  1.00 20.37 LIG 0.01  A 
ATOM     35  CE1 TYR B   1      60.966 154.001   6.405  1.00 19.95 LIG 0.04  A 
ATOM     36  CZ  TYR B   1      61.450 155.161   7.014  1.00 20.32 LIG 0.07  A 
ATOM     37  CE2 TYR B   1      62.810 155.330   7.240  1.00 20.63 LIG 0.04  A 
ATOM     38  CD2 TYR B   1      63.695 154.334   6.854  1.00 20.57 LIG 0.01  A 
BRANCH 36 39
ATOM     39 OH   TYR B   1      60.590 156.157   7.408  1.00 20.56 LIG-0.36  OA
ATOM     40 HH   TYR B   1      60.990 156.895   7.394  1.00 20.56 LIG 0.22  HD
ENDBRANCH 36 39
ENDBRANCH 32 33
ENDBRANCH 31 32
BRANCH 31 41
ATOM     41  N   TYR B   1      63.799 152.907   3.520  1.00 21.11 LIG-0.07  N 
ATOM     42 H2   TYR B   1      62.949 152.844   3.262  1.00 21.11 LIG 0.28  HD
ATOM     43 H1   TYR B   1      64.325 152.943   2.803  1.00 21.11 LIG 0.28  HD
ATOM     44 H3   TYR B   1      63.907 153.645   4.006  1.00 21.11 LIG 0.28  HD
ENDBRANCH 31 41
ENDBRANCH 28 31
ENDBRANCH 1 27
TORSDOF 15
ENDMDL
MODEL 23
USER: ADFR SOLUTION from run 175
USER: SCORE 17.285971 LL:  -3.018 LR: -14.443 RR:   0.000 FEB:  -9.968
USER: RMSD 8.515762
USER: SEED 174
USER: STATUS no improvement in best in 4 clusters for 5 generations
USER: GENES 17
USER: genes 0 Translation |==|  0.52667 0.45236 0.47227
USER: genes 1 Rotation |==|  0.77084 0.73112 0.77103 0.72309
USER: genes 2 Torsion [C]-CA--CB-[CG] |==|  0.01453
USER: genes 3 Torsion [CA]-CB--CG-[CD2] |==|  0.25026
USER: genes 4 Torsion [CE2]-CZ--OH-[HH] |==|  0.55948
USER: genes 5 Torsion [N]-CA--C-[N] |==|  0.89812
USER: genes 6 Torsion [C]-N--CA-[C] |==|  0.73026
USER: genes 7 Torsion [N]-CA--C-[O] |==|  0.29990
USER: genes 8 Torsion [N]-CA--CB-[CG] |==|  0.10184
USER: genes 9 Torsion [CA]-CB--CG-[CD2] |==|  0.15693
USER: genes 10 Torsion [CE2]-CZ--OH-[HH] |==|  0.83247
USER: genes 11 Torsion [CB]-CA--N-[C] |==|  0.86667
USER: genes 12 Torsion [N]-C--CA-[N] |==|  0.53867
USER: genes 13 Torsion [C]-CA--CB-[CG] |==|  0.80285
USER: genes 14 Torsion [CA]-CB--CG-[CD1] |==|  0.53593
USER: genes 15 Torsion [CE1]-CZ--OH-[HH] |==|  0.06177
USER: genes 16 Torsion [C]-CA--N-[H1] |==|  0.34461
ROOT
ATOM      1  CA  TYR B   2      60.980 148.430   2.082  1.00 28.44 LIG 0.18  C 
ENDROOT
BRANCH 1 2
ATOM      2  CB  TYR B   2      62.143 148.779   1.145  1.00 30.17 LIG 0.07  C 
BRANCH 2 3
ATOM      3  CG  TYR B   2      63.445 148.042   1.416  1.00 31.12 LIG-0.06  A 
ATOM      4  CD2 TYR B   2      63.723 146.817   0.794  1.00 31.81 LIG 0.01  A 
ATOM      5  CE2 TYR B   2      64.918 146.142   1.034  1.00 33.15 LIG 0.04  A 
ATOM      6  CZ  TYR B   2      65.852 146.690   1.904  1.00 33.29 LIG 0.07  A 
ATOM      7  CE1 TYR B   2      65.607 147.912   2.535  1.00 33.06 LIG 0.04  A 
ATOM      8  CD1 TYR B   2      64.409 148.579   2.287  1.00 32.67 LIG 0.01  A 
BRANCH 6 9
ATOM      9 OH   TYR B   2      67.025 146.021   2.143  1.00 34.60 LIG-0.36  OA
ATOM     10 HH   TYR B   2      67.353 146.282   2.871  1.00 34.60 LIG 0.22  HD
ENDBRANCH 6 9
ENDBRANCH 2 3
ENDBRANCH 1 2
BRANCH 1 11
ATOM     11  C   TYR B   2      61.450 147.493   3.175  1.00 30.52 LIG 0.24  C 
ATOM     12  N   TYR B   3      62.015 148.080   4.226  1.00 32.89 LIG-0.35  N 
ATOM     13 H    TYR B   3      62.147 148.928   4.281  1.00 32.89 LIG 0.16  HD
ATOM     14 O    TYR B   2      61.308 146.271   3.062  1.00 30.24 LIG-0.27  OA
BRANCH 12 15
ATOM     15  CA  TYR B   3      62.467 147.336   5.394  1.00 36.06 LIG 0.17  C 
BRANCH 15 16
ATOM     16  C   TYR B   3      61.419 147.364   6.506  1.00 37.31 LIG 0.22  C 
ATOM     17 O    TYR B   3      60.765 146.354   6.779  1.00 39.71 LIG-0.29  OA
ENDBRANCH 15 16
BRANCH 15 18
ATOM     18  CB  TYR B   3      63.802 147.895   5.894  1.00 37.43 LIG 0.07  C 
BRANCH 18 19
ATOM     19  CG  TYR B   3      63.917 149.395   5.769  1.00 38.24 LIG-0.06  A 
ATOM     20  CD2 TYR B   3      62.974 150.242   6.367  1.00 38.70 LIG 0.01  A 
ATOM     21  CE2 TYR B   3      63.083 151.625   6.256  1.00 39.79 LIG 0.04  A 
ATOM     22  CZ  TYR B   3      64.141 152.173   5.539  1.00 40.15 LIG 0.07  A 
ATOM     23  CE1 TYR B   3      65.091 151.353   4.934  1.00 39.97 LIG 0.04  A 
ATOM     24  CD1 TYR B   3      64.975 149.976   5.053  1.00 39.23 LIG 0.01  A 
BRANCH 22 25
ATOM     25 OH   TYR B   3      64.267 153.537   5.414  1.00 40.04 LIG-0.36  OA
ATOM     26 HH   TYR B   3      63.588 153.847   5.029  1.00 40.04 LIG 0.22  HD
ENDBRANCH 22 25
ENDBRANCH 18 19
ENDBRANCH 15 18
ENDBRANCH 12 15
ENDBRANCH 1 11
BRANCH 1 27
ATOM     27  N   TYR B   2      60.454 149.642   2.688  1.00 25.33 LIG-0.35  N 
ATOM     28  C   TYR B   1      61.227 150.569   3.248  1.00 22.87 LIG 0.25  C 
ATOM     29 O    TYR B   1      62.460 150.537   3.220  1.00 21.86 LIG-0.27  OA
ATOM     30 H    TYR B   2      59.597 149.704   2.651  1.00 25.33 LIG 0.16  HD
BRANCH 28 31
ATOM     31  CA  TYR B   1      60.489 151.714   3.939  1.00 21.88 LIG 0.28  C 
BRANCH 31 32
ATOM     32  CB  TYR B   1      59.323 152.174   3.061  1.00 21.24 LIG 0.08  C 
BRANCH 32 33
ATOM     33  CG  TYR B   1      59.730 152.911   1.808  1.00 20.81 LIG-0.06  A 
ATOM     34  CD1 TYR B   1      58.785 153.620   1.053  1.00 20.37 LIG 0.01  A 
ATOM     35  CE1 TYR B   1      59.158 154.301  -0.101  1.00 19.95 LIG 0.04  A 
ATOM     36  CZ  TYR B   1      60.494 154.273  -0.508  1.00 20.32 LIG 0.07  A 
ATOM     37  CE2 TYR B   1      61.446 153.577   0.225  1.00 20.63 LIG 0.04  A 
ATOM     38  CD2 TYR B   1      61.062 152.901   1.374  1.00 20.57 LIG 0.01  A 
BRANCH 36 39
ATOM     39 OH   TYR B   1      60.894 154.939  -1.641  1.00 20.56 LIG-0.36  OA
ATOM     40 HH   TYR B   1      60.343 155.548  -1.818  1.00 20.56 LIG 0.22  HD
ENDBRANCH 36 39
ENDBRANCH 32 33
ENDBRANCH 31 32
BRANCH 31 41
ATOM     41  N   TYR B   1      61.396 152.863   4.243  1.00 21.11 LIG-0.07  N 
ATOM     42 H2   TYR B   1      61.454 152.971   5.124  1.00 21.11 LIG 0.28  HD
ATOM     43 H1   TYR B   1      61.069 153.605   3.874  1.00 21.11 LIG 0.28  HD
ATOM     44 H3   TYR B   1      62.205 152.698   3.911  1.00 21.11 LIG 0.28  HD
ENDBRANCH 31 41
ENDBRANCH 28 31
ENDBRANCH 1 27
TORSDOF 15
ENDMDL
MODEL 24
USER: ADFR SOLUTION from run 200
USER: SCORE 16.254248 LL:  -2.187 LR: -14.426 RR:   0.000 FEB:  -9.952
USER: RMSD 10.197138
USER: SEED 199
USER: STATUS no improvement in best in 6 clusters for 5 generations
USER: GENES 17
USER: genes 0 Translation |==|  0.61833 0.59391 0.52216
USER: genes 1 Rotation |==|  0.54337 0.45074 0.90847 0.78079
USER: genes 2 Torsion [C]-CA--CB-[CG] |==|  0.93776
USER: genes 3 Torsion [CA]-CB--CG-[CD2] |==|  0.28740
USER: genes 4 Torsion [CE2]-CZ--OH-[HH] |==|  0.98188
USER: genes 5 Torsion [N]-CA--C-[N] |==|  0.37904
USER: genes 6 Torsion [C]-N--CA-[C] |==|  0.78867
USER: genes 7 Torsion [N]-CA--C-[O] |==|  0.95574
USER: genes 8 Torsion [N]-CA--CB-[CG] |==|  0.10578
USER: genes 9 Torsion [CA]-CB--CG-[CD2] |==|  0.14405
USER: genes 10 Torsion [CE2]-CZ--OH-[HH] |==|  0.91313
USER: genes 11 Torsion [CB]-CA--N-[C] |==|  0.55153
USER: genes 12 Torsion [N]-C--CA-[N] |==|  0.27341
USER: genes 13 Torsion [C]-CA--CB-[CG] |==|  0.48015
USER: genes 14 Torsion [CA]-CB--CG-[CD1] |==|  0.74518
USER: genes 15 Torsion [CE1]-CZ--OH-[HH] |==|  0.46516
USER: genes 16 Torsion [C]-CA--N-[H1] |==|  0.42214
ROOT
ATOM      1  CA  TYR B   2      63.249 151.297   2.868  1.00 28.44 LIG 0.18  C 
ENDROOT
BRANCH 1 2
ATOM      2  CB  TYR B   2      64.129 151.474   4.111  1.00 30.17 LIG 0.07  C 
BRANCH 2 3
ATOM      3  CG  TYR B   2      63.609 150.818   5.380  1.00 31.12 LIG-0.06  A 
ATOM      4  CD2 TYR B   2      64.164 149.621   5.853  1.00 31.81 LIG 0.01  A 
ATOM      5  CE2 TYR B   2      63.695 149.020   7.019  1.00 33.15 LIG 0.04  A 
ATOM      6  CZ  TYR B   2      62.659 149.616   7.728  1.00 33.29 LIG 0.07  A 
ATOM      7  CE1 TYR B   2      62.088 150.811   7.286  1.00 33.06 LIG 0.04  A 
ATOM      8  CD1 TYR B   2      62.566 151.404   6.119  1.00 32.67 LIG 0.01  A 
BRANCH 6 9
ATOM      9 OH   TYR B   2      62.195 149.019   8.872  1.00 34.60 LIG-0.36  OA
ATOM     10 HH   TYR B   2      62.564 148.270   8.967  1.00 34.60 LIG 0.22  HD
ENDBRANCH 6 9
ENDBRANCH 2 3
ENDBRANCH 1 2
BRANCH 1 11
ATOM     11  C   TYR B   2      62.358 150.082   3.025  1.00 30.52 LIG 0.24  C 
ATOM     12  N   TYR B   3      62.745 149.001   2.354  1.00 32.89 LIG-0.35  N 
ATOM     13 H    TYR B   3      63.429 148.986   1.832  1.00 32.89 LIG 0.16  HD
ATOM     14 O    TYR B   2      61.346 150.128   3.732  1.00 30.24 LIG-0.27  OA
BRANCH 12 15
ATOM     15  CA  TYR B   3      62.042 147.728   2.441  1.00 36.06 LIG 0.17  C 
BRANCH 15 16
ATOM     16  C   TYR B   3      62.355 147.013   3.755  1.00 37.31 LIG 0.22  C 
ATOM     17 O    TYR B   3      63.320 147.357   4.443  1.00 39.71 LIG-0.29  OA
ENDBRANCH 15 16
BRANCH 15 18
ATOM     18  CB  TYR B   3      62.401 146.842   1.243  1.00 37.43 LIG 0.07  C 
BRANCH 18 19
ATOM     19  CG  TYR B   3      63.849 146.943   0.826  1.00 38.24 LIG-0.06  A 
ATOM     20  CD2 TYR B   3      64.881 146.775   1.759  1.00 38.70 LIG 0.01  A 
ATOM     21  CE2 TYR B   3      66.215 146.863   1.372  1.00 39.79 LIG 0.04  A 
ATOM     22  CZ  TYR B   3      66.526 147.124   0.042  1.00 40.15 LIG 0.07  A 
ATOM     23  CE1 TYR B   3      65.519 147.297  -0.903  1.00 39.97 LIG 0.04  A 
ATOM     24  CD1 TYR B   3      64.192 147.205  -0.509  1.00 39.23 LIG 0.01  A 
BRANCH 22 25
ATOM     25 OH   TYR B   3      67.838 147.218  -0.361  1.00 40.04 LIG-0.36  OA
ATOM     26 HH   TYR B   3      68.304 147.520   0.269  1.00 40.04 LIG 0.22  HD
ENDBRANCH 22 25
ENDBRANCH 18 19
ENDBRANCH 15 18
ENDBRANCH 12 15
ENDBRANCH 1 11
BRANCH 1 27
ATOM     27  N   TYR B   2      62.418 152.475   2.679  1.00 25.33 LIG-0.35  N 
ATOM     28  C   TYR B   1      61.323 152.478   1.924  1.00 22.87 LIG 0.25  C 
ATOM     29 O    TYR B   1      60.857 151.465   1.394  1.00 21.86 LIG-0.27  OA
ATOM     30 H    TYR B   2      62.701 153.168   3.100  1.00 25.33 LIG 0.16  HD
BRANCH 28 31
ATOM     31  CA  TYR B   1      60.648 153.836   1.747  1.00 21.88 LIG 0.28  C 
BRANCH 31 32
ATOM     32  CB  TYR B   1      59.130 153.667   1.835  1.00 21.24 LIG 0.08  C 
BRANCH 32 33
ATOM     33  CG  TYR B   1      58.351 154.960   1.845  1.00 20.81 LIG-0.06  A 
ATOM     34  CD1 TYR B   1      58.015 155.587   3.052  1.00 20.37 LIG 0.01  A 
ATOM     35  CE1 TYR B   1      57.299 156.779   3.064  1.00 19.95 LIG 0.04  A 
ATOM     36  CZ  TYR B   1      56.911 157.353   1.851  1.00 20.32 LIG 0.07  A 
ATOM     37  CE2 TYR B   1      57.233 156.749   0.644  1.00 20.63 LIG 0.04  A 
ATOM     38  CD2 TYR B   1      57.947 155.560   0.645  1.00 20.57 LIG 0.01  A 
BRANCH 36 39
ATOM     39 OH   TYR B   1      56.206 158.532   1.829  1.00 20.56 LIG-0.36  OA
ATOM     40 HH   TYR B   1      56.195 158.838   1.047  1.00 20.56 LIG 0.22  HD
ENDBRANCH 36 39
ENDBRANCH 32 33
ENDBRANCH 31 32
BRANCH 31 41
ATOM     41  N   TYR B   1      61.025 154.485   0.454  1.00 21.11 LIG-0.07  N 
ATOM     42 H2   TYR B   1      61.767 154.964   0.567  1.00 21.11 LIG 0.28  HD
ATOM     43 H1   TYR B   1      60.365 155.020   0.186  1.00 21.11 LIG 0.28  HD
ATOM     44 H3   TYR B   1      61.168 153.859  -0.163  1.00 21.11 LIG 0.28  HD
ENDBRANCH 31 41
ENDBRANCH 28 31
ENDBRANCH 1 27
TORSDOF 15
ENDMDL
MODEL 25
USER: ADFR SOLUTION from run 60
USER: SCORE 16.764216 LL:  -3.320 LR: -14.402 RR:   0.000 FEB:  -9.928
USER: RMSD 8.515445
USER: SEED 59
USER: STATUS no improvement in best in 6 clusters for 5 generations
USER: GENES 17
USER: genes 0 Translation |==|  0.52787 0.60161 0.59519
USER: genes 1 Rotation |==|  0.06324 0.32423 0.57423 0.65113
USER: genes 2 Torsion [C]-CA--CB-[CG] |==|  0.86767
USER: genes 3 Torsion [CA]-CB--CG-[CD2] |==|  0.89481
USER: genes 4 Torsion [CE2]-CZ--OH-[HH] |==|  0.68302
USER: genes 5 Torsion [N]-CA--C-[N] |==|  0.41199
USER: genes 6 Torsion [C]-N--CA-[C] |==|  0.58442
USER: genes 7 Torsion [N]-CA--C-[O] |==|  0.67105
USER: genes 8 Torsion [N]-CA--CB-[CG] |==|  0.70671
USER: genes 9 Torsion [CA]-CB--CG-[CD2] |==|  0.98484
USER: genes 10 Torsion [CE2]-CZ--OH-[HH] |==|  0.41143
USER: genes 11 Torsion [CB]-CA--N-[C] |==|  0.23333
USER: genes 12 Torsion [N]-C--CA-[N] |==|  0.46100
USER: genes 13 Torsion [C]-CA--CB-[CG] |==|  0.01765
USER: genes 14 Torsion [CA]-CB--CG-[CD1] |==|  0.28117
USER: genes 15 Torsion [CE1]-CZ--OH-[HH] |==|  0.58333
USER: genes 16 Torsion [C]-CA--N-[H1] |==|  0.17004
ROOT
ATOM      1  CA  TYR B   2      61.010 151.453   4.018  1.00 28.44 LIG 0.18  C 
ENDROOT
BRANCH 1 2
ATOM      2  CB  TYR B   2      60.061 152.617   3.706  1.00 30.17 LIG 0.07  C 
BRANCH 2 3
ATOM      3  CG  TYR B   2      60.140 153.163   2.290  1.00 31.12 LIG-0.06  A 
ATOM      4  CD2 TYR B   2      61.369 153.266   1.624  1.00 31.81 LIG 0.01  A 
ATOM      5  CE2 TYR B   2      61.445 153.759   0.323  1.00 33.15 LIG 0.04  A 
ATOM      6  CZ  TYR B   2      60.283 154.157  -0.328  1.00 33.29 LIG 0.07  A 
ATOM      7  CE1 TYR B   2      59.043 154.063   0.307  1.00 33.06 LIG 0.04  A 
ATOM      8  CD1 TYR B   2      58.978 153.566   1.607  1.00 32.67 LIG 0.01  A 
BRANCH 6 9
ATOM      9 OH   TYR B   2      60.362 154.648  -1.606  1.00 34.60 LIG-0.36  OA
ATOM     10 HH   TYR B   2      60.139 155.458  -1.609  1.00 34.60 LIG 0.22  HD
ENDBRANCH 6 9
ENDBRANCH 2 3
ENDBRANCH 1 2
BRANCH 1 11
ATOM     11  C   TYR B   2      60.933 150.407   2.926  1.00 30.52 LIG 0.24  C 
ATOM     12  N   TYR B   3      60.036 149.444   3.119  1.00 32.89 LIG-0.35  N 
ATOM     13 H    TYR B   3      59.553 149.383   3.828  1.00 32.89 LIG 0.16  HD
ATOM     14 O    TYR B   2      61.672 150.471   1.937  1.00 30.24 LIG-0.27  OA
BRANCH 12 15
ATOM     15  CA  TYR B   3      59.786 148.394   2.142  1.00 36.06 LIG 0.17  C 
BRANCH 15 16
ATOM     16  C   TYR B   3      58.336 147.917   2.204  1.00 37.31 LIG 0.22  C 
ATOM     17 O    TYR B   3      58.071 146.745   2.489  1.00 39.71 LIG-0.29  OA
ENDBRANCH 15 16
BRANCH 15 18
ATOM     18  CB  TYR B   3      60.751 147.225   2.361  1.00 37.43 LIG 0.07  C 
BRANCH 18 19
ATOM     19  CG  TYR B   3      61.853 147.146   1.332  1.00 38.24 LIG-0.06  A 
ATOM     20  CD2 TYR B   3      61.873 148.012   0.230  1.00 38.70 LIG 0.01  A 
ATOM     21  CE2 TYR B   3      62.892 147.942  -0.715  1.00 39.79 LIG 0.04  A 
ATOM     22  CZ  TYR B   3      63.901 146.997  -0.565  1.00 40.15 LIG 0.07  A 
ATOM     23  CE1 TYR B   3      63.903 146.125   0.520  1.00 39.97 LIG 0.04  A 
ATOM     24  CD1 TYR B   3      62.885 146.204   1.458  1.00 39.23 LIG 0.01  A 
BRANCH 22 25
ATOM     25 OH   TYR B   3      64.917 146.909  -1.489  1.00 40.04 LIG-0.36  OA
ATOM     26 HH   TYR B   3      65.622 146.662  -1.107  1.00 40.04 LIG 0.22  HD
ENDBRANCH 22 25
ENDBRANCH 18 19
ENDBRANCH 15 18
ENDBRANCH 12 15
ENDBRANCH 1 11
BRANCH 1 27
ATOM     27  N   TYR B   2      62.375 151.941   4.116  1.00 25.33 LIG-0.35  N 
ATOM     28  C   TYR B   1      62.880 152.469   5.227  1.00 22.87 LIG 0.25  C 
ATOM     29 O    TYR B   1      62.274 152.506   6.302  1.00 21.86 LIG-0.27  OA
ATOM     30 H    TYR B   2      62.826 151.856   3.388  1.00 25.33 LIG 0.16  HD
BRANCH 28 31
ATOM     31  CA  TYR B   1      64.293 153.037   5.105  1.00 21.88 LIG 0.28  C 
BRANCH 31 32
ATOM     32  CB  TYR B   1      65.294 151.888   4.960  1.00 21.24 LIG 0.08  C 
BRANCH 32 33
ATOM     33  CG  TYR B   1      64.669 150.522   4.820  1.00 20.81 LIG-0.06  A 
ATOM     34  CD1 TYR B   1      64.565 149.905   3.565  1.00 20.37 LIG 0.01  A 
ATOM     35  CE1 TYR B   1      63.991 148.645   3.433  1.00 19.95 LIG 0.04  A 
ATOM     36  CZ  TYR B   1      63.513 147.991   4.571  1.00 20.32 LIG 0.07  A 
ATOM     37  CE2 TYR B   1      63.607 148.583   5.823  1.00 20.63 LIG 0.04  A 
ATOM     38  CD2 TYR B   1      64.181 149.840   5.942  1.00 20.57 LIG 0.01  A 
BRANCH 36 39
ATOM     39 OH   TYR B   1      62.945 146.744   4.475  1.00 20.56 LIG-0.36  OA
ATOM     40 HH   TYR B   1      62.369 146.650   5.079  1.00 20.56 LIG 0.22  HD
ENDBRANCH 36 39
ENDBRANCH 32 33
ENDBRANCH 31 32
BRANCH 31 41
ATOM     41  N   TYR B   1      64.654 153.897   6.273  1.00 21.11 LIG-0.07  N 
ATOM     42 H2   TYR B   1      65.474 154.224   6.160  1.00 21.11 LIG 0.28  HD
ATOM     43 H1   TYR B   1      64.629 153.411   7.019  1.00 21.11 LIG 0.28  HD
ATOM     44 H3   TYR B   1      64.074 154.570   6.337  1.00 21.11 LIG 0.28  HD
ENDBRANCH 31 41
ENDBRANCH 28 31
ENDBRANCH 1 27
TORSDOF 15
ENDMDL
MODEL 26
USER: ADFR SOLUTION from run 106
USER: SCORE 16.146727 LL:  -2.396 LR: -14.344 RR:   0.000 FEB:  -9.870
USER: RMSD 7.492990
USER: SEED 105
USER: STATUS no improvement in best in 17 clusters for 5 generations
USER: GENES 17
USER: genes 0 Translation |==|  0.58358 0.50605 0.48605
USER: genes 1 Rotation |==|  0.73782 0.40889 0.57042 0.92448
USER: genes 2 Torsion [C]-CA--CB-[CG] |==|  0.52982
USER: genes 3 Torsion [CA]-CB--CG-[CD2] |==|  0.24634
USER: genes 4 Torsion [CE2]-CZ--OH-[HH] |==|  0.85046
USER: genes 5 Torsion [N]-CA--C-[N] |==|  0.26421
USER: genes 6 Torsion [C]-N--CA-[C] |==|  0.75785
USER: genes 7 Torsion [N]-CA--C-[O] |==|  0.10769
USER: genes 8 Torsion [N]-CA--CB-[CG] |==|  0.08722
USER: genes 9 Torsion [CA]-CB--CG-[CD2] |==|  0.32088
USER: genes 10 Torsion [CE2]-CZ--OH-[HH] |==|  0.10798
USER: genes 11 Torsion [CB]-CA--N-[C] |==|  0.55200
USER: genes 12 Torsion [N]-C--CA-[N] |==|  0.47628
USER: genes 13 Torsion [C]-CA--CB-[CG] |==|  0.95043
USER: genes 14 Torsion [CA]-CB--CG-[CD1] |==|  0.28773
USER: genes 15 Torsion [CE1]-CZ--OH-[HH] |==|  0.23416
USER: genes 16 Torsion [C]-CA--N-[H1] |==|  0.77875
ROOT
ATOM      1  CA  TYR B   2      62.389 149.517   2.299  1.00 28.44 LIG 0.18  C 
ENDROOT
BRANCH 1 2
ATOM      2  CB  TYR B   2      62.724 148.023   2.211  1.00 30.17 LIG 0.07  C 
BRANCH 2 3
ATOM      3  CG  TYR B   2      64.089 147.692   1.629  1.00 31.12 LIG-0.06  A 
ATOM      4  CD2 TYR B   2      65.221 147.605   2.451  1.00 31.81 LIG 0.01  A 
ATOM      5  CE2 TYR B   2      66.472 147.295   1.923  1.00 33.15 LIG 0.04  A 
ATOM      6  CZ  TYR B   2      66.603 147.069   0.558  1.00 33.29 LIG 0.07  A 
ATOM      7  CE1 TYR B   2      65.494 147.144  -0.287  1.00 33.06 LIG 0.04  A 
ATOM      8  CD1 TYR B   2      64.247 147.453   0.252  1.00 32.67 LIG 0.01  A 
BRANCH 6 9
ATOM      9 OH   TYR B   2      67.838 146.770   0.040  1.00 34.60 LIG-0.36  OA
ATOM     10 HH   TYR B   2      68.388 147.361   0.269  1.00 34.60 LIG 0.22  HD
ENDBRANCH 6 9
ENDBRANCH 2 3
ENDBRANCH 1 2
BRANCH 1 11
ATOM     11  C   TYR B   2      61.137 149.726   3.125  1.00 30.52 LIG 0.24  C 
ATOM     12  N   TYR B   3      60.343 150.712   2.719  1.00 32.89 LIG-0.35  N 
ATOM     13 H    TYR B   3      60.531 151.230   2.058  1.00 32.89 LIG 0.16  HD
ATOM     14 O    TYR B   2      60.902 149.013   4.107  1.00 30.24 LIG-0.27  OA
BRANCH 12 15
ATOM     15  CA  TYR B   3      59.069 151.011   3.358  1.00 36.06 LIG 0.17  C 
BRANCH 15 16
ATOM     16  C   TYR B   3      57.940 150.176   2.756  1.00 37.31 LIG 0.22  C 
ATOM     17 O    TYR B   3      58.129 148.998   2.441  1.00 39.71 LIG-0.29  OA
ENDBRANCH 15 16
BRANCH 15 18
ATOM     18  CB  TYR B   3      58.756 152.506   3.244  1.00 37.43 LIG 0.07  C 
BRANCH 18 19
ATOM     19  CG  TYR B   3      59.303 153.146   1.991  1.00 38.24 LIG-0.06  A 
ATOM     20  CD2 TYR B   3      58.445 153.675   1.018  1.00 38.70 LIG 0.01  A 
ATOM     21  CE2 TYR B   3      58.951 154.270  -0.134  1.00 39.79 LIG 0.04  A 
ATOM     22  CZ  TYR B   3      60.327 154.336  -0.323  1.00 40.15 LIG 0.07  A 
ATOM     23  CE1 TYR B   3      61.201 153.817   0.628  1.00 39.97 LIG 0.04  A 
ATOM     24  CD1 TYR B   3      60.688 153.229   1.775  1.00 39.23 LIG 0.01  A 
BRANCH 22 25
ATOM     25 OH   TYR B   3      60.848 154.917  -1.456  1.00 40.04 LIG-0.36  OA
ATOM     26 HH   TYR B   3      60.394 155.594  -1.657  1.00 40.04 LIG 0.22  HD
ENDBRANCH 22 25
ENDBRANCH 18 19
ENDBRANCH 15 18
ENDBRANCH 12 15
ENDBRANCH 1 11
BRANCH 1 27
ATOM     27  N   TYR B   2      63.492 150.235   2.916  1.00 25.33 LIG-0.35  N 
ATOM     28  C   TYR B   1      63.363 151.447   3.450  1.00 22.87 LIG 0.25  C 
ATOM     29 O    TYR B   1      62.282 152.032   3.558  1.00 21.86 LIG-0.27  OA
ATOM     30 H    TYR B   2      64.235 149.803   2.904  1.00 25.33 LIG 0.16  HD
BRANCH 28 31
ATOM     31  CA  TYR B   1      64.656 152.092   3.943  1.00 21.88 LIG 0.28  C 
BRANCH 31 32
ATOM     32  CB  TYR B   1      65.210 151.288   5.122  1.00 21.24 LIG 0.08  C 
BRANCH 32 33
ATOM     33  CG  TYR B   1      64.213 150.368   5.782  1.00 20.81 LIG-0.06  A 
ATOM     34  CD1 TYR B   1      64.245 148.986   5.548  1.00 20.37 LIG 0.01  A 
ATOM     35  CE1 TYR B   1      63.327 148.136   6.156  1.00 19.95 LIG 0.04  A 
ATOM     36  CZ  TYR B   1      62.362 148.674   7.011  1.00 20.32 LIG 0.07  A 
ATOM     37  CE2 TYR B   1      62.313 150.039   7.257  1.00 20.63 LIG 0.04  A 
ATOM     38  CD2 TYR B   1      63.233 150.877   6.644  1.00 20.57 LIG 0.01  A 
BRANCH 36 39
ATOM     39 OH   TYR B   1      61.445 147.860   7.631  1.00 20.56 LIG-0.36  OA
ATOM     40 HH   TYR B   1      61.781 147.543   8.332  1.00 20.56 LIG 0.22  HD
ENDBRANCH 36 39
ENDBRANCH 32 33
ENDBRANCH 31 32
BRANCH 31 41
ATOM     41  N   TYR B   1      64.455 153.520   4.336  1.00 21.11 LIG-0.07  N 
ATOM     42 H2   TYR B   1      63.681 153.604   4.767  1.00 21.11 LIG 0.28  HD
ATOM     43 H1   TYR B   1      64.446 154.030   3.607  1.00 21.11 LIG 0.28  HD
ATOM     44 H3   TYR B   1      65.120 153.778   4.870  1.00 21.11 LIG 0.28  HD
ENDBRANCH 31 41
ENDBRANCH 28 31
ENDBRANCH 1 27
TORSDOF 15
ENDMDL
MODEL 27
USER: ADFR SOLUTION from run 115
USER: SCORE 15.359054 LL:  -2.095 LR: -14.317 RR:   0.000 FEB:  -9.843
USER: RMSD 10.291374
USER: SEED 114
USER: STATUS no improvement in best in 9 clusters for 5 generations
USER: GENES 17
USER: genes 0 Translation |==|  0.67898 0.51728 0.56608
USER: genes 1 Rotation |==|  0.53316 0.37768 0.96935 0.61683
USER: genes 2 Torsion [C]-CA--CB-[CG] |==|  0.54737
USER: genes 3 Torsion [CA]-CB--CG-[CD2] |==|  0.22398
USER: genes 4 Torsion [CE2]-CZ--OH-[HH] |==|  0.55365
USER: genes 5 Torsion [N]-CA--C-[N] |==|  0.36162
USER: genes 6 Torsion [C]-N--CA-[C] |==|  0.49088
USER: genes 7 Torsion [N]-CA--C-[O] |==|  0.87792
USER: genes 8 Torsion [N]-CA--CB-[CG] |==|  0.13911
USER: genes 9 Torsion [CA]-CB--CG-[CD2] |==|  0.71181
USER: genes 10 Torsion [CE2]-CZ--OH-[HH] |==|  0.79950
USER: genes 11 Torsion [CB]-CA--N-[C] |==|  0.22993
USER: genes 12 Torsion [N]-C--CA-[N] |==|  0.32485
USER: genes 13 Torsion [C]-CA--CB-[CG] |==|  0.54884
USER: genes 14 Torsion [CA]-CB--CG-[CD1] |==|  0.40803
USER: genes 15 Torsion [CE1]-CZ--OH-[HH] |==|  0.30300
USER: genes 16 Torsion [C]-CA--N-[H1] |==|  0.01307
ROOT
ATOM      1  CA  TYR B   2      64.750 149.745   3.560  1.00 28.44 LIG 0.18  C 
ENDROOT
BRANCH 1 2
ATOM      2  CB  TYR B   2      65.073 149.975   5.041  1.00 30.17 LIG 0.07  C 
BRANCH 2 3
ATOM      3  CG  TYR B   2      64.655 151.325   5.600  1.00 31.12 LIG-0.06  A 
ATOM      4  CD2 TYR B   2      63.330 151.565   5.991  1.00 31.81 LIG 0.01  A 
ATOM      5  CE2 TYR B   2      62.945 152.799   6.510  1.00 33.15 LIG 0.04  A 
ATOM      6  CZ  TYR B   2      63.888 153.811   6.644  1.00 33.29 LIG 0.07  A 
ATOM      7  CE1 TYR B   2      65.216 153.602   6.269  1.00 33.06 LIG 0.04  A 
ATOM      8  CD1 TYR B   2      65.592 152.363   5.752  1.00 32.67 LIG 0.01  A 
BRANCH 6 9
ATOM      9 OH   TYR B   2      63.504 155.027   7.150  1.00 34.60 LIG-0.36  OA
ATOM     10 HH   TYR B   2      64.070 155.610   6.938  1.00 34.60 LIG 0.22  HD
ENDBRANCH 6 9
ENDBRANCH 2 3
ENDBRANCH 1 2
BRANCH 1 11
ATOM     11  C   TYR B   2      64.818 148.268   3.231  1.00 30.52 LIG 0.24  C 
ATOM     12  N   TYR B   3      65.850 147.900   2.477  1.00 32.89 LIG-0.35  N 
ATOM     13 H    TYR B   3      66.426 148.453   2.158  1.00 32.89 LIG 0.16  HD
ATOM     14 O    TYR B   2      63.955 147.488   3.646  1.00 30.24 LIG-0.27  OA
BRANCH 12 15
ATOM     15  CA  TYR B   3      66.105 146.511   2.118  1.00 36.06 LIG 0.17  C 
BRANCH 15 16
ATOM     16  C   TYR B   3      67.308 146.395   1.182  1.00 37.31 LIG 0.22  C 
ATOM     17 O    TYR B   3      67.445 147.175   0.236  1.00 39.71 LIG-0.29  OA
ENDBRANCH 15 16
BRANCH 15 18
ATOM     18  CB  TYR B   3      64.859 145.892   1.478  1.00 37.43 LIG 0.07  C 
BRANCH 18 19
ATOM     19  CG  TYR B   3      64.272 146.725   0.365  1.00 38.24 LIG-0.06  A 
ATOM     20  CD2 TYR B   3      63.112 147.485   0.568  1.00 38.70 LIG 0.01  A 
ATOM     21  CE2 TYR B   3      62.574 148.256  -0.458  1.00 39.79 LIG 0.04  A 
ATOM     22  CZ  TYR B   3      63.195 148.270  -1.702  1.00 40.15 LIG 0.07  A 
ATOM     23  CE1 TYR B   3      64.347 147.523  -1.930  1.00 39.97 LIG 0.04  A 
ATOM     24  CD1 TYR B   3      64.878 146.758  -0.901  1.00 39.23 LIG 0.01  A 
BRANCH 22 25
ATOM     25 OH   TYR B   3      62.679 149.024  -2.731  1.00 40.04 LIG-0.36  OA
ATOM     26 HH   TYR B   3      61.973 148.667  -3.012  1.00 40.04 LIG 0.22  HD
ENDBRANCH 22 25
ENDBRANCH 18 19
ENDBRANCH 15 18
ENDBRANCH 12 15
ENDBRANCH 1 11
BRANCH 1 27
ATOM     27  N   TYR B   2      63.415 150.237   3.264  1.00 25.33 LIG-0.35  N 
ATOM     28  C   TYR B   1      63.152 151.515   3.004  1.00 22.87 LIG 0.25  C 
ATOM     29 O    TYR B   1      64.025 152.382   2.894  1.00 21.86 LIG-0.27  OA
ATOM     30 H    TYR B   2      62.811 149.625   3.272  1.00 25.33 LIG 0.16  HD
BRANCH 28 31
ATOM     31  CA  TYR B   1      61.676 151.865   2.835  1.00 21.88 LIG 0.28  C 
BRANCH 31 32
ATOM     32  CB  TYR B   1      61.445 152.446   1.439  1.00 21.24 LIG 0.08  C 
BRANCH 32 33
ATOM     33  CG  TYR B   1      60.152 153.208   1.278  1.00 20.81 LIG-0.06  A 
ATOM     34  CD1 TYR B   1      60.070 154.312   0.419  1.00 20.37 LIG 0.01  A 
ATOM     35  CE1 TYR B   1      58.879 155.015   0.269  1.00 19.95 LIG 0.04  A 
ATOM     36  CZ  TYR B   1      57.752 154.609   0.988  1.00 20.32 LIG 0.07  A 
ATOM     37  CE2 TYR B   1      57.811 153.518   1.845  1.00 20.63 LIG 0.04  A 
ATOM     38  CD2 TYR B   1      59.005 152.825   1.987  1.00 20.57 LIG 0.01  A 
BRANCH 36 39
ATOM     39 OH   TYR B   1      56.561 155.279   0.858  1.00 20.56 LIG-0.36  OA
ATOM     40 HH   TYR B   1      56.013 154.799   0.440  1.00 20.56 LIG 0.22  HD
ENDBRANCH 36 39
ENDBRANCH 32 33
ENDBRANCH 31 32
BRANCH 31 41
ATOM     41  N   TYR B   1      61.203 152.822   3.881  1.00 21.11 LIG-0.07  N 
ATOM     42 H2   TYR B   1      60.844 153.537   3.490  1.00 21.11 LIG 0.28  HD
ATOM     43 H1   TYR B   1      61.892 153.075   4.385  1.00 21.11 LIG 0.28  HD
ATOM     44 H3   TYR B   1      60.592 152.426   4.393  1.00 21.11 LIG 0.28  HD
ENDBRANCH 31 41
ENDBRANCH 28 31
ENDBRANCH 1 27
TORSDOF 15
ENDMDL
MODEL 28
USER: ADFR SOLUTION from run 143
USER: SCORE 15.455872 LL:  -2.939 LR: -14.222 RR:   0.000 FEB:  -9.747
USER: RMSD 8.362159
USER: SEED 142
USER: STATUS no improvement in best in 9 clusters for 5 generations
USER: GENES 17
USER: genes 0 Translation |==|  0.57746 0.43848 0.46216
USER: genes 1 Rotation |==|  0.74050 0.46357 0.63912 0.91410
USER: genes 2 Torsion [C]-CA--CB-[CG] |==|  0.52504
USER: genes 3 Torsion [CA]-CB--CG-[CD2] |==|  0.29653
USER: genes 4 Torsion [CE2]-CZ--OH-[HH] |==|  0.93887
USER: genes 5 Torsion [N]-CA--C-[N] |==|  0.61533
USER: genes 6 Torsion [C]-N--CA-[C] |==|  0.18588
USER: genes 7 Torsion [N]-CA--C-[O] |==|  0.05648
USER: genes 8 Torsion [N]-CA--CB-[CG] |==|  0.59687
USER: genes 9 Torsion [CA]-CB--CG-[CD2] |==|  0.89162
USER: genes 10 Torsion [CE2]-CZ--OH-[HH] |==|  0.20695
USER: genes 11 Torsion [CB]-CA--N-[C] |==|  0.47093
USER: genes 12 Torsion [N]-C--CA-[N] |==|  0.57201
USER: genes 13 Torsion [C]-CA--CB-[CG] |==|  0.85433
USER: genes 14 Torsion [CA]-CB--CG-[CD1] |==|  0.79794
USER: genes 15 Torsion [CE1]-CZ--OH-[HH] |==|  0.65724
USER: genes 16 Torsion [C]-CA--N-[H1] |==|  0.83555
ROOT
ATOM      1  CA  TYR B   2      62.237 148.149   1.923  1.00 28.44 LIG 0.18  C 
ENDROOT
BRANCH 1 2
ATOM      2  CB  TYR B   2      63.058 146.854   1.879  1.00 30.17 LIG 0.07  C 
BRANCH 2 3
ATOM      3  CG  TYR B   2      64.413 146.961   1.199  1.00 31.12 LIG-0.06  A 
ATOM      4  CD2 TYR B   2      65.599 146.950   1.947  1.00 31.81 LIG 0.01  A 
ATOM      5  CE2 TYR B   2      66.843 147.040   1.327  1.00 33.15 LIG 0.04  A 
ATOM      6  CZ  TYR B   2      66.913 147.145  -0.057  1.00 33.29 LIG 0.07  A 
ATOM      7  CE1 TYR B   2      65.750 147.154  -0.831  1.00 33.06 LIG 0.04  A 
ATOM      8  CD1 TYR B   2      64.511 147.061  -0.200  1.00 32.67 LIG 0.01  A 
BRANCH 6 9
ATOM      9 OH   TYR B   2      68.139 147.240  -0.665  1.00 34.60 LIG-0.36  OA
ATOM     10 HH   TYR B   2      68.705 147.521  -0.111  1.00 34.60 LIG 0.22  HD
ENDBRANCH 6 9
ENDBRANCH 2 3
ENDBRANCH 1 2
BRANCH 1 11
ATOM     11  C   TYR B   2      61.023 147.971   2.810  1.00 30.52 LIG 0.24  C 
ATOM     12  N   TYR B   3      60.685 146.710   3.067  1.00 32.89 LIG-0.35  N 
ATOM     13 H    TYR B   3      61.094 146.032   2.731  1.00 32.89 LIG 0.16  HD
ATOM     14 O    TYR B   2      60.407 148.951   3.243  1.00 30.24 LIG-0.27  OA
BRANCH 12 15
ATOM     15  CA  TYR B   3      59.583 146.356   3.952  1.00 36.06 LIG 0.17  C 
BRANCH 15 16
ATOM     16  C   TYR B   3      58.240 146.776   3.355  1.00 37.31 LIG 0.22  C 
ATOM     17 O    TYR B   3      58.129 146.986   2.144  1.00 39.71 LIG-0.29  OA
ENDBRANCH 15 16
BRANCH 15 18
ATOM     18  CB  TYR B   3      59.785 146.992   5.331  1.00 37.43 LIG 0.07  C 
BRANCH 18 19
ATOM     19  CG  TYR B   3      59.292 146.135   6.472  1.00 38.24 LIG-0.06  A 
ATOM     20  CD2 TYR B   3      58.107 145.396   6.358  1.00 38.70 LIG 0.01  A 
ATOM     21  CE2 TYR B   3      57.656 144.602   7.409  1.00 39.79 LIG 0.04  A 
ATOM     22  CZ  TYR B   3      58.391 144.546   8.588  1.00 40.15 LIG 0.07  A 
ATOM     23  CE1 TYR B   3      59.570 145.272   8.727  1.00 39.97 LIG 0.04  A 
ATOM     24  CD1 TYR B   3      60.013 146.059   7.673  1.00 39.23 LIG 0.01  A 
BRANCH 22 25
ATOM     25 OH   TYR B   3      57.962 143.770   9.640  1.00 40.04 LIG-0.36  OA
ATOM     26 HH   TYR B   3      58.102 142.961   9.467  1.00 40.04 LIG 0.22  HD
ENDBRANCH 22 25
ENDBRANCH 18 19
ENDBRANCH 15 18
ENDBRANCH 12 15
ENDBRANCH 1 11
BRANCH 1 27
ATOM     27  N   TYR B   2      63.053 149.233   2.445  1.00 25.33 LIG-0.35  N 
ATOM     28  C   TYR B   1      62.676 150.508   2.409  1.00 22.87 LIG 0.25  C 
ATOM     29 O    TYR B   1      61.565 150.881   2.021  1.00 21.86 LIG-0.27  OA
ATOM     30 H    TYR B   2      63.801 148.973   2.779  1.00 25.33 LIG 0.16  HD
BRANCH 28 31
ATOM     31  CA  TYR B   1      63.715 151.517   2.894  1.00 21.88 LIG 0.28  C 
BRANCH 31 32
ATOM     32  CB  TYR B   1      64.583 150.875   3.978  1.00 21.24 LIG 0.08  C 
BRANCH 32 33
ATOM     33  CG  TYR B   1      63.812 150.249   5.114  1.00 20.81 LIG-0.06  A 
ATOM     34  CD1 TYR B   1      63.165 151.045   6.069  1.00 20.37 LIG 0.01  A 
ATOM     35  CE1 TYR B   1      62.453 150.470   7.116  1.00 19.95 LIG 0.04  A 
ATOM     36  CZ  TYR B   1      62.385 149.078   7.212  1.00 20.32 LIG 0.07  A 
ATOM     37  CE2 TYR B   1      63.018 148.270   6.277  1.00 20.63 LIG 0.04  A 
ATOM     38  CD2 TYR B   1      63.726 148.856   5.237  1.00 20.57 LIG 0.01  A 
BRANCH 36 39
ATOM     39 OH   TYR B   1      61.686 148.479   8.231  1.00 20.56 LIG-0.36  OA
ATOM     40 HH   TYR B   1      62.196 147.964   8.656  1.00 20.56 LIG 0.22  HD
ENDBRANCH 36 39
ENDBRANCH 32 33
ENDBRANCH 31 32
BRANCH 31 41
ATOM     41  N   TYR B   1      63.081 152.770   3.409  1.00 21.11 LIG-0.07  N 
ATOM     42 H2   TYR B   1      62.554 152.575   4.099  1.00 21.11 LIG 0.28  HD
ATOM     43 H1   TYR B   1      62.597 153.145   2.763  1.00 21.11 LIG 0.28  HD
ATOM     44 H3   TYR B   1      63.715 153.337   3.671  1.00 21.11 LIG 0.28  HD
ENDBRANCH 31 41
ENDBRANCH 28 31
ENDBRANCH 1 27
TORSDOF 15
ENDMDL
MODEL 29
USER: ADFR SOLUTION from run 122
USER: SCORE 16.651083 LL:  -2.509 LR: -14.196 RR:   0.000 FEB:  -9.721
USER: RMSD 8.545298
USER: SEED 121
USER: STATUS no improvement in best in 12 clusters for 5 generations
USER: GENES 17
USER: genes 0 Translation |==|  0.60392 0.59626 0.51981
USER: genes 1 Rotation |==|  0.61802 0.18438 0.68194 0.82148
USER: genes 2 Torsion [C]-CA--CB-[CG] |==|  0.31802
USER: genes 3 Torsion [CA]-CB--CG-[CD2] |==|  0.72255
USER: genes 4 Torsion [CE2]-CZ--OH-[HH] |==|  0.36933
USER: genes 5 Torsion [N]-CA--C-[N] |==|  0.11400
USER: genes 6 Torsion [C]-N--CA-[C] |==|  0.73166
USER: genes 7 Torsion [N]-CA--C-[O] |==|  0.50417
USER: genes 8 Torsion [N]-CA--CB-[CG] |==|  0.63330
USER: genes 9 Torsion [CA]-CB--CG-[CD2] |==|  0.16183
USER: genes 10 Torsion [CE2]-CZ--OH-[HH] |==|  0.52914
USER: genes 11 Torsion [CB]-CA--N-[C] |==|  0.14513
USER: genes 12 Torsion [N]-C--CA-[N] |==|  0.80873
USER: genes 13 Torsion [C]-CA--CB-[CG] |==|  0.71366
USER: genes 14 Torsion [CA]-CB--CG-[CD1] |==|  0.79313
USER: genes 15 Torsion [CE1]-CZ--OH-[HH] |==|  0.38459
USER: genes 16 Torsion [C]-CA--N-[H1] |==|  0.14664
ROOT
ATOM      1  CA  TYR B   2      62.892 151.344   2.831  1.00 28.44 LIG 0.18  C 
ENDROOT
BRANCH 1 2
ATOM      2  CB  TYR B   2      62.864 149.869   3.249  1.00 30.17 LIG 0.07  C 
BRANCH 2 3
ATOM      3  CG  TYR B   2      64.001 149.015   2.711  1.00 31.12 LIG-0.06  A 
ATOM      4  CD2 TYR B   2      63.816 148.186   1.596  1.00 31.81 LIG 0.01  A 
ATOM      5  CE2 TYR B   2      64.857 147.408   1.095  1.00 33.15 LIG 0.04  A 
ATOM      6  CZ  TYR B   2      66.102 147.451   1.711  1.00 33.29 LIG 0.07  A 
ATOM      7  CE1 TYR B   2      66.320 148.270   2.821  1.00 33.06 LIG 0.04  A 
ATOM      8  CD1 TYR B   2      65.272 149.046   3.312  1.00 32.67 LIG 0.01  A 
BRANCH 6 9
ATOM      9 OH   TYR B   2      67.124 146.679   1.220  1.00 34.60 LIG-0.36  OA
ATOM     10 HH   TYR B   2      67.819 147.145   1.153  1.00 34.60 LIG 0.22  HD
ENDBRANCH 6 9
ENDBRANCH 2 3
ENDBRANCH 1 2
BRANCH 1 11
ATOM     11  C   TYR B   2      61.702 151.662   1.950  1.00 30.52 LIG 0.24  C 
ATOM     12  N   TYR B   3      61.406 152.954   1.836  1.00 32.89 LIG-0.35  N 
ATOM     13 H    TYR B   3      61.826 153.575   2.257  1.00 32.89 LIG 0.16  HD
ATOM     14 O    TYR B   2      61.069 150.759   1.394  1.00 30.24 LIG-0.27  OA
BRANCH 12 15
ATOM     15  CA  TYR B   3      60.334 153.442   0.980  1.00 36.06 LIG 0.17  C 
BRANCH 15 16
ATOM     16  C   TYR B   3      60.873 153.895  -0.377  1.00 37.31 LIG 0.22  C 
ATOM     17 O    TYR B   3      60.115 154.367  -1.229  1.00 39.71 LIG-0.29  OA
ENDBRANCH 15 16
BRANCH 15 18
ATOM     18  CB  TYR B   3      59.582 154.583   1.672  1.00 37.43 LIG 0.07  C 
BRANCH 18 19
ATOM     19  CG  TYR B   3      58.080 154.432   1.632  1.00 38.24 LIG-0.06  A 
ATOM     20  CD2 TYR B   3      57.455 153.302   2.176  1.00 38.70 LIG 0.01  A 
ATOM     21  CE2 TYR B   3      56.071 153.166   2.144  1.00 39.79 LIG 0.04  A 
ATOM     22  CZ  TYR B   3      55.298 154.164   1.561  1.00 40.15 LIG 0.07  A 
ATOM     23  CE1 TYR B   3      55.894 155.296   1.012  1.00 39.97 LIG 0.04  A 
ATOM     24  CD1 TYR B   3      57.275 155.424   1.051  1.00 39.23 LIG 0.01  A 
BRANCH 22 25
ATOM     25 OH   TYR B   3      53.928 154.049   1.516  1.00 40.04 LIG-0.36  OA
ATOM     26 HH   TYR B   3      53.613 154.645   1.015  1.00 40.04 LIG 0.22  HD
ENDBRANCH 22 25
ENDBRANCH 18 19
ENDBRANCH 15 18
ENDBRANCH 12 15
ENDBRANCH 1 11
BRANCH 1 27
ATOM     27  N   TYR B   2      62.852 152.192   4.011  1.00 25.33 LIG-0.35  N 
ATOM     28  C   TYR B   1      63.691 152.055   5.033  1.00 22.87 LIG 0.25  C 
ATOM     29 O    TYR B   1      64.640 151.265   5.036  1.00 21.86 LIG-0.27  OA
ATOM     30 H    TYR B   2      62.234 152.790   3.986  1.00 25.33 LIG 0.16  HD
BRANCH 28 31
ATOM     31  CA  TYR B   1      63.420 152.957   6.235  1.00 21.88 LIG 0.28  C 
BRANCH 31 32
ATOM     32  CB  TYR B   1      61.971 152.778   6.692  1.00 21.24 LIG 0.08  C 
BRANCH 32 33
ATOM     33  CG  TYR B   1      61.039 153.892   6.284  1.00 20.81 LIG-0.06  A 
ATOM     34  CD1 TYR B   1      61.080 155.136   6.930  1.00 20.37 LIG 0.01  A 
ATOM     35  CE1 TYR B   1      60.223 156.165   6.555  1.00 19.95 LIG 0.04  A 
ATOM     36  CZ  TYR B   1      59.309 155.949   5.520  1.00 20.32 LIG 0.07  A 
ATOM     37  CE2 TYR B   1      59.252 154.725   4.867  1.00 20.63 LIG 0.04  A 
ATOM     38  CD2 TYR B   1      60.112 153.706   5.251  1.00 20.57 LIG 0.01  A 
BRANCH 36 39
ATOM     39 OH   TYR B   1      58.453 156.947   5.124  1.00 20.56 LIG-0.36  OA
ATOM     40 HH   TYR B   1      58.402 156.956   4.285  1.00 20.56 LIG 0.22  HD
ENDBRANCH 36 39
ENDBRANCH 32 33
ENDBRANCH 31 32
BRANCH 31 41
ATOM     41  N   TYR B   1      63.695 154.395   5.930  1.00 21.11 LIG-0.07  N 
ATOM     42 H2   TYR B   1      63.429 154.900   6.614  1.00 21.11 LIG 0.28  HD
ATOM     43 H1   TYR B   1      63.252 154.633   5.196  1.00 21.11 LIG 0.28  HD
ATOM     44 H3   TYR B   1      64.568 154.510   5.801  1.00 21.11 LIG 0.28  HD
ENDBRANCH 31 41
ENDBRANCH 28 31
ENDBRANCH 1 27
TORSDOF 15
ENDMDL
MODEL 30
USER: ADFR SOLUTION from run 200
USER: SCORE 15.568279 LL:  -1.881 LR: -14.194 RR:   0.000 FEB:  -9.719
USER: RMSD 10.481742
USER: SEED 199
USER: STATUS no improvement in best in 6 clusters for 5 generations
USER: GENES 17
USER: genes 0 Translation |==|  0.61665 0.59088 0.56735
USER: genes 1 Rotation |==|  0.50427 0.45298 0.92093 0.76568
USER: genes 2 Torsion [C]-CA--CB-[CG] |==|  0.71923
USER: genes 3 Torsion [CA]-CB--CG-[CD2] |==|  0.12996
USER: genes 4 Torsion [CE2]-CZ--OH-[HH] |==|  0.17161
USER: genes 5 Torsion [N]-CA--C-[N] |==|  0.33889
USER: genes 6 Torsion [C]-N--CA-[C] |==|  0.78274
USER: genes 7 Torsion [N]-CA--C-[O] |==|  0.01760
USER: genes 8 Torsion [N]-CA--CB-[CG] |==|  0.11717
USER: genes 9 Torsion [CA]-CB--CG-[CD2] |==|  0.12884
USER: genes 10 Torsion [CE2]-CZ--OH-[HH] |==|  0.92476
USER: genes 11 Torsion [CB]-CA--N-[C] |==|  0.54006
USER: genes 12 Torsion [N]-C--CA-[N] |==|  0.20919
USER: genes 13 Torsion [C]-CA--CB-[CG] |==|  0.43346
USER: genes 14 Torsion [CA]-CB--CG-[CD1] |==|  0.17028
USER: genes 15 Torsion [CE1]-CZ--OH-[HH] |==|  0.33278
USER: genes 16 Torsion [C]-CA--N-[H1] |==|  0.46906
ROOT
ATOM      1  CA  TYR B   2      63.207 151.235   3.580  1.00 28.44 LIG 0.18  C 
ENDROOT
BRANCH 1 2
ATOM      2  CB  TYR B   2      63.899 151.585   4.903  1.00 30.17 LIG 0.07  C 
BRANCH 2 3
ATOM      3  CG  TYR B   2      63.245 152.694   5.711  1.00 31.12 LIG-0.06  A 
ATOM      4  CD2 TYR B   2      61.860 152.706   5.930  1.00 31.81 LIG 0.01  A 
ATOM      5  CE2 TYR B   2      61.258 153.717   6.675  1.00 33.15 LIG 0.04  A 
ATOM      6  CZ  TYR B   2      62.040 154.733   7.211  1.00 33.29 LIG 0.07  A 
ATOM      7  CE1 TYR B   2      63.423 154.747   7.014  1.00 33.06 LIG 0.04  A 
ATOM      8  CD1 TYR B   2      64.016 153.730   6.269  1.00 32.67 LIG 0.01  A 
BRANCH 6 9
ATOM      9 OH   TYR B   2      61.444 155.730   7.939  1.00 34.60 LIG-0.36  OA
ATOM     10 HH   TYR B   2      61.074 155.400   8.617  1.00 34.60 LIG 0.22  HD
ENDBRANCH 6 9
ENDBRANCH 2 3
ENDBRANCH 1 2
BRANCH 1 11
ATOM     11  C   TYR B   2      62.373 149.981   3.739  1.00 30.52 LIG 0.24  C 
ATOM     12  N   TYR B   3      62.747 148.949   2.989  1.00 32.89 LIG-0.35  N 
ATOM     13 H    TYR B   3      63.391 148.985   2.420  1.00 32.89 LIG 0.16  HD
ATOM     14 O    TYR B   2      61.415 149.955   4.519  1.00 30.24 LIG-0.27  OA
BRANCH 12 15
ATOM     15  CA  TYR B   3      62.097 147.647   3.062  1.00 36.06 LIG 0.17  C 
BRANCH 15 16
ATOM     16  C   TYR B   3      62.570 146.862   4.285  1.00 37.31 LIG 0.22  C 
ATOM     17 O    TYR B   3      63.310 147.387   5.122  1.00 39.71 LIG-0.29  OA
ENDBRANCH 15 16
BRANCH 15 18
ATOM     18  CB  TYR B   3      62.354 146.854   1.777  1.00 37.43 LIG 0.07  C 
BRANCH 18 19
ATOM     19  CG  TYR B   3      63.773 146.958   1.273  1.00 38.24 LIG-0.06  A 
ATOM     20  CD2 TYR B   3      64.860 146.805   2.144  1.00 38.70 LIG 0.01  A 
ATOM     21  CE2 TYR B   3      66.168 146.896   1.677  1.00 39.79 LIG 0.04  A 
ATOM     22  CZ  TYR B   3      66.398 147.145   0.329  1.00 40.15 LIG 0.07  A 
ATOM     23  CE1 TYR B   3      65.336 147.302  -0.557  1.00 39.97 LIG 0.04  A 
ATOM     24  CD1 TYR B   3      64.035 147.208  -0.083  1.00 39.23 LIG 0.01  A 
BRANCH 22 25
ATOM     25 OH   TYR B   3      67.683 147.241  -0.153  1.00 40.04 LIG-0.36  OA
ATOM     26 HH   TYR B   3      68.194 147.498   0.461  1.00 40.04 LIG 0.22  HD
ENDBRANCH 22 25
ENDBRANCH 18 19
ENDBRANCH 15 18
ENDBRANCH 12 15
ENDBRANCH 1 11
BRANCH 1 27
ATOM     27  N   TYR B   2      62.345 152.331   3.169  1.00 25.33 LIG-0.35  N 
ATOM     28  C   TYR B   1      61.417 152.211   2.225  1.00 22.87 LIG 0.25  C 
ATOM     29 O    TYR B   1      61.134 151.141   1.679  1.00 21.86 LIG-0.27  OA
ATOM     30 H    TYR B   2      62.492 153.064   3.594  1.00 25.33 LIG 0.16  HD
BRANCH 28 31
ATOM     31  CA  TYR B   1      60.691 153.500   1.844  1.00 21.88 LIG 0.28  C 
BRANCH 31 32
ATOM     32  CB  TYR B   1      59.390 153.157   1.115  1.00 21.24 LIG 0.08  C 
BRANCH 32 33
ATOM     33  CG  TYR B   1      58.329 154.229   1.181  1.00 20.81 LIG-0.06  A 
ATOM     34  CD1 TYR B   1      58.560 155.503   0.644  1.00 20.37 LIG 0.01  A 
ATOM     35  CE1 TYR B   1      57.583 156.491   0.703  1.00 19.95 LIG 0.04  A 
ATOM     36  CZ  TYR B   1      56.358 156.204   1.308  1.00 20.32 LIG 0.07  A 
ATOM     37  CE2 TYR B   1      56.108 154.949   1.846  1.00 20.63 LIG 0.04  A 
ATOM     38  CD2 TYR B   1      57.090 153.971   1.782  1.00 20.57 LIG 0.01  A 
BRANCH 36 39
ATOM     39 OH   TYR B   1      55.371 157.157   1.378  1.00 20.56 LIG-0.36  OA
ATOM     40 HH   TYR B   1      54.688 156.884   0.974  1.00 20.56 LIG 0.22  HD
ENDBRANCH 36 39
ENDBRANCH 32 33
ENDBRANCH 31 32
BRANCH 31 41
ATOM     41  N   TYR B   1      61.542 154.393   1.000  1.00 21.11 LIG-0.07  N 
ATOM     42 H2   TYR B   1      62.193 154.741   1.497  1.00 21.11 LIG 0.28  HD
ATOM     43 H1   TYR B   1      61.042 155.050   0.665  1.00 21.11 LIG 0.28  HD
ATOM     44 H3   TYR B   1      61.897 153.922   0.334  1.00 21.11 LIG 0.28  HD
ENDBRANCH 31 41
ENDBRANCH 28 31
ENDBRANCH 1 27
TORSDOF 15
ENDMDL
MODEL 31
USER: ADFR SOLUTION from run 29
USER: SCORE 15.824076 LL:  -2.899 LR: -14.177 RR:   0.000 FEB:  -9.703
USER: RMSD 7.735127
USER: SEED 28
USER: STATUS no improvement in best in 10 clusters for 5 generations
USER: GENES 17
USER: genes 0 Translation |==|  0.52969 0.44813 0.67602
USER: genes 1 Rotation |==|  0.70829 0.90936 0.30845 0.54845
USER: genes 2 Torsion [C]-CA--CB-[CG] |==|  0.31976
USER: genes 3 Torsion [CA]-CB--CG-[CD2] |==|  0.43604
USER: genes 4 Torsion [CE2]-CZ--OH-[HH] |==|  0.18640
USER: genes 5 Torsion [N]-CA--C-[N] |==|  0.88893
USER: genes 6 Torsion [C]-N--CA-[C] |==|  0.21777
USER: genes 7 Torsion [N]-CA--C-[O] |==|  0.04858
USER: genes 8 Torsion [N]-CA--CB-[CG] |==|  0.85839
USER: genes 9 Torsion [CA]-CB--CG-[CD2] |==|  0.88309
USER: genes 10 Torsion [CE2]-CZ--OH-[HH] |==|  0.00491
USER: genes 11 Torsion [CB]-CA--N-[C] |==|  0.43277
USER: genes 12 Torsion [N]-C--CA-[N] |==|  0.63049
USER: genes 13 Torsion [C]-CA--CB-[CG] |==|  0.65397
USER: genes 14 Torsion [CA]-CB--CG-[CD1] |==|  0.67186
USER: genes 15 Torsion [CE1]-CZ--OH-[HH] |==|  0.04441
USER: genes 16 Torsion [C]-CA--N-[H1] |==|  0.16623
ROOT
ATOM      1  CA  TYR B   2      61.055 148.345   5.291  1.00 28.44 LIG 0.18  C 
ENDROOT
BRANCH 1 2
ATOM      2  CB  TYR B   2      60.033 147.260   4.928  1.00 30.17 LIG 0.07  C 
BRANCH 2 3
ATOM      3  CG  TYR B   2      59.516 146.432   6.093  1.00 31.12 LIG-0.06  A 
ATOM      4  CD2 TYR B   2      58.284 145.767   6.015  1.00 31.81 LIG 0.01  A 
ATOM      5  CE2 TYR B   2      57.809 145.002   7.078  1.00 33.15 LIG 0.04  A 
ATOM      6  CZ  TYR B   2      58.568 144.894   8.237  1.00 33.29 LIG 0.07  A 
ATOM      7  CE1 TYR B   2      59.801 145.540   8.344  1.00 33.06 LIG 0.04  A 
ATOM      8  CD1 TYR B   2      60.267 146.301   7.275  1.00 32.67 LIG 0.01  A 
BRANCH 6 9
ATOM      9 OH   TYR B   2      58.095 144.145   9.284  1.00 34.60 LIG-0.36  OA
ATOM     10 HH   TYR B   2      58.078 143.335   9.063  1.00 34.60 LIG 0.22  HD
ENDBRANCH 6 9
ENDBRANCH 2 3
ENDBRANCH 1 2
BRANCH 1 11
ATOM     11  C   TYR B   2      62.396 148.033   4.662  1.00 30.52 LIG 0.24  C 
ATOM     12  N   TYR B   3      62.517 148.371   3.381  1.00 32.89 LIG-0.35  N 
ATOM     13 H    TYR B   3      61.876 148.709   2.918  1.00 32.89 LIG 0.16  HD
ATOM     14 O    TYR B   2      63.294 147.497   5.320  1.00 30.24 LIG-0.27  OA
BRANCH 12 15
ATOM     15  CA  TYR B   3      63.758 148.202   2.637  1.00 36.06 LIG 0.17  C 
BRANCH 15 16
ATOM     16  C   TYR B   3      63.952 146.747   2.212  1.00 37.31 LIG 0.22  C 
ATOM     17 O    TYR B   3      63.001 145.960   2.211  1.00 39.71 LIG-0.29  OA
ENDBRANCH 15 16
BRANCH 15 18
ATOM     18  CB  TYR B   3      64.947 148.686   3.472  1.00 37.43 LIG 0.07  C 
BRANCH 18 19
ATOM     19  CG  TYR B   3      64.765 150.072   4.041  1.00 38.24 LIG-0.06  A 
ATOM     20  CD2 TYR B   3      64.211 151.101   3.268  1.00 38.70 LIG 0.01  A 
ATOM     21  CE2 TYR B   3      64.039 152.378   3.795  1.00 39.79 LIG 0.04  A 
ATOM     22  CZ  TYR B   3      64.426 152.635   5.106  1.00 40.15 LIG 0.07  A 
ATOM     23  CE1 TYR B   3      64.980 151.631   5.894  1.00 39.97 LIG 0.04  A 
ATOM     24  CD1 TYR B   3      65.146 150.360   5.361  1.00 39.23 LIG 0.01  A 
BRANCH 22 25
ATOM     25 OH   TYR B   3      64.267 153.890   5.646  1.00 40.04 LIG-0.36  OA
ATOM     26 HH   TYR B   3      63.904 154.394   5.081  1.00 40.04 LIG 0.22  HD
ENDBRANCH 22 25
ENDBRANCH 18 19
ENDBRANCH 15 18
ENDBRANCH 12 15
ENDBRANCH 1 11
BRANCH 1 27
ATOM     27  N   TYR B   2      60.593 149.637   4.814  1.00 25.33 LIG-0.35  N 
ATOM     28  C   TYR B   1      60.983 150.791   5.349  1.00 22.87 LIG 0.25  C 
ATOM     29 O    TYR B   1      61.842 150.878   6.230  1.00 21.86 LIG-0.27  OA
ATOM     30 H    TYR B   2      60.044 149.586   4.154  1.00 25.33 LIG 0.16  HD
BRANCH 28 31
ATOM     31  CA  TYR B   1      60.300 152.040   4.795  1.00 21.88 LIG 0.28  C 
BRANCH 31 32
ATOM     32  CB  TYR B   1      59.489 151.669   3.551  1.00 21.24 LIG 0.08  C 
BRANCH 32 33
ATOM     33  CG  TYR B   1      59.833 152.463   2.314  1.00 20.81 LIG-0.06  A 
ATOM     34  CD1 TYR B   1      58.875 153.276   1.693  1.00 20.37 LIG 0.01  A 
ATOM     35  CE1 TYR B   1      59.190 154.009   0.554  1.00 19.95 LIG 0.04  A 
ATOM     36  CZ  TYR B   1      60.481 153.929   0.027  1.00 20.32 LIG 0.07  A 
ATOM     37  CE2 TYR B   1      61.445 153.131   0.626  1.00 20.63 LIG 0.04  A 
ATOM     38  CD2 TYR B   1      61.119 152.403   1.762  1.00 20.57 LIG 0.01  A 
BRANCH 36 39
ATOM     39 OH   TYR B   1      60.824 154.645  -1.094  1.00 20.56 LIG-0.36  OA
ATOM     40 HH   TYR B   1      60.251 155.244  -1.231  1.00 20.56 LIG 0.22  HD
ENDBRANCH 36 39
ENDBRANCH 32 33
ENDBRANCH 31 32
BRANCH 31 41
ATOM     41  N   TYR B   1      61.282 153.119   4.472  1.00 21.11 LIG-0.07  N 
ATOM     42 H2   TYR B   1      60.850 153.828   4.151  1.00 21.11 LIG 0.28  HD
ATOM     43 H1   TYR B   1      61.860 152.823   3.863  1.00 21.11 LIG 0.28  HD
ATOM     44 H3   TYR B   1      61.722 153.351   5.210  1.00 21.11 LIG 0.28  HD
ENDBRANCH 31 41
ENDBRANCH 28 31
ENDBRANCH 1 27
TORSDOF 15
ENDMDL
MODEL 32
USER: ADFR SOLUTION from run 46
USER: SCORE 15.704727 LL:  -2.067 LR: -14.172 RR:   0.000 FEB:  -9.698
USER: RMSD 7.706424
USER: SEED 45
USER: STATUS no improvement in best in 5 clusters for 5 generations
USER: GENES 17
USER: genes 0 Translation |==|  0.56648 0.58729 0.50482
USER: genes 1 Rotation |==|  0.62325 0.24887 0.62390 0.89547
USER: genes 2 Torsion [C]-CA--CB-[CG] |==|  0.16756
USER: genes 3 Torsion [CA]-CB--CG-[CD2] |==|  0.16006
USER: genes 4 Torsion [CE2]-CZ--OH-[HH] |==|  0.57638
USER: genes 5 Torsion [N]-CA--C-[N] |==|  0.18850
USER: genes 6 Torsion [C]-N--CA-[C] |==|  0.55822
USER: genes 7 Torsion [N]-CA--C-[O] |==|  0.17637
USER: genes 8 Torsion [N]-CA--CB-[CG] |==|  0.42519
USER: genes 9 Torsion [CA]-CB--CG-[CD2] |==|  0.13270
USER: genes 10 Torsion [CE2]-CZ--OH-[HH] |==|  0.75577
USER: genes 11 Torsion [CB]-CA--N-[C] |==|  0.11697
USER: genes 12 Torsion [N]-C--CA-[N] |==|  0.85924
USER: genes 13 Torsion [C]-CA--CB-[CG] |==|  0.70667
USER: genes 14 Torsion [CA]-CB--CG-[CD1] |==|  0.23468
USER: genes 15 Torsion [CE1]-CZ--OH-[HH] |==|  0.10244
USER: genes 16 Torsion [C]-CA--N-[H1] |==|  0.92211
ROOT
ATOM      1  CA  TYR B   2      61.965 151.163   2.595  1.00 28.44 LIG 0.18  C 
ENDROOT
BRANCH 1 2
ATOM      2  CB  TYR B   2      61.848 149.702   3.049  1.00 30.17 LIG 0.07  C 
BRANCH 2 3
ATOM      3  CG  TYR B   2      61.256 148.745   2.028  1.00 31.12 LIG-0.06  A 
ATOM      4  CD2 TYR B   2      61.840 148.589   0.763  1.00 31.81 LIG 0.01  A 
ATOM      5  CE2 TYR B   2      61.305 147.707  -0.174  1.00 33.15 LIG 0.04  A 
ATOM      6  CZ  TYR B   2      60.172 146.969   0.148  1.00 33.29 LIG 0.07  A 
ATOM      7  CE1 TYR B   2      59.570 147.099   1.401  1.00 33.06 LIG 0.04  A 
ATOM      8  CD1 TYR B   2      60.114 147.982   2.331  1.00 32.67 LIG 0.01  A 
BRANCH 6 9
ATOM      9 OH   TYR B   2      59.644 146.107  -0.779  1.00 34.60 LIG-0.36  OA
ATOM     10 HH   TYR B   2      58.820 146.020  -0.643  1.00 34.60 LIG 0.22  HD
ENDBRANCH 6 9
ENDBRANCH 2 3
ENDBRANCH 1 2
BRANCH 1 11
ATOM     11  C   TYR B   2      60.598 151.718   2.257  1.00 30.52 LIG 0.24  C 
ATOM     12  N   TYR B   3      60.596 152.918   1.682  1.00 32.89 LIG-0.35  N 
ATOM     13 H    TYR B   3      61.309 153.376   1.540  1.00 32.89 LIG 0.16  HD
ATOM     14 O    TYR B   2      59.574 151.077   2.516  1.00 30.24 LIG-0.27  OA
BRANCH 12 15
ATOM     15  CA  TYR B   3      59.375 153.573   1.235  1.00 36.06 LIG 0.17  C 
BRANCH 15 16
ATOM     16  C   TYR B   3      59.675 154.644   0.186  1.00 37.31 LIG 0.22  C 
ATOM     17 O    TYR B   3      60.166 154.336  -0.903  1.00 39.71 LIG-0.29  OA
ENDBRANCH 15 16
BRANCH 15 18
ATOM     18  CB  TYR B   3      58.630 154.178   2.429  1.00 37.43 LIG 0.07  C 
BRANCH 18 19
ATOM     19  CG  TYR B   3      57.769 155.366   2.068  1.00 38.24 LIG-0.06  A 
ATOM     20  CD2 TYR B   3      56.899 155.318   0.972  1.00 38.70 LIG 0.01  A 
ATOM     21  CE2 TYR B   3      56.102 156.412   0.644  1.00 39.79 LIG 0.04  A 
ATOM     22  CZ  TYR B   3      56.175 157.567   1.414  1.00 40.15 LIG 0.07  A 
ATOM     23  CE1 TYR B   3      57.033 157.640   2.508  1.00 39.97 LIG 0.04  A 
ATOM     24  CD1 TYR B   3      57.822 156.544   2.828  1.00 39.23 LIG 0.01  A 
BRANCH 22 25
ATOM     25 OH   TYR B   3      55.399 158.661   1.106  1.00 40.04 LIG-0.36  OA
ATOM     26 HH   TYR B   3      55.804 159.145   0.553  1.00 40.04 LIG 0.22  HD
ENDBRANCH 22 25
ENDBRANCH 18 19
ENDBRANCH 15 18
ENDBRANCH 12 15
ENDBRANCH 1 11
BRANCH 1 27
ATOM     27  N   TYR B   2      62.557 151.963   3.654  1.00 25.33 LIG-0.35  N 
ATOM     28  C   TYR B   1      63.587 151.551   4.388  1.00 22.87 LIG 0.25  C 
ATOM     29 O    TYR B   1      64.197 150.499   4.176  1.00 21.86 LIG-0.27  OA
ATOM     30 H    TYR B   2      62.178 152.728   3.762  1.00 25.33 LIG 0.16  HD
BRANCH 28 31
ATOM     31  CA  TYR B   1      63.995 152.476   5.532  1.00 21.88 LIG 0.28  C 
BRANCH 31 32
ATOM     32  CB  TYR B   1      62.945 152.407   6.643  1.00 21.24 LIG 0.08  C 
BRANCH 32 33
ATOM     33  CG  TYR B   1      62.043 153.614   6.734  1.00 20.81 LIG-0.06  A 
ATOM     34  CD1 TYR B   1      60.900 153.718   5.929  1.00 20.37 LIG 0.01  A 
ATOM     35  CE1 TYR B   1      60.066 154.828   6.012  1.00 19.95 LIG 0.04  A 
ATOM     36  CZ  TYR B   1      60.378 155.850   6.911  1.00 20.32 LIG 0.07  A 
ATOM     37  CE2 TYR B   1      61.505 155.767   7.717  1.00 20.63 LIG 0.04  A 
ATOM     38  CD2 TYR B   1      62.330 154.655   7.626  1.00 20.57 LIG 0.01  A 
BRANCH 36 39
ATOM     39 OH   TYR B   1      59.572 156.957   7.019  1.00 20.56 LIG-0.36  OA
ATOM     40 HH   TYR B   1      58.769 156.729   6.934  1.00 20.56 LIG 0.22  HD
ENDBRANCH 36 39
ENDBRANCH 32 33
ENDBRANCH 31 32
BRANCH 31 41
ATOM     41  N   TYR B   1      64.175 153.888   5.074  1.00 21.11 LIG-0.07  N 
ATOM     42 H2   TYR B   1      63.410 154.332   5.172  1.00 21.11 LIG 0.28  HD
ATOM     43 H1   TYR B   1      64.414 153.893   4.216  1.00 21.11 LIG 0.28  HD
ATOM     44 H3   TYR B   1      64.809 154.279   5.561  1.00 21.11 LIG 0.28  HD
ENDBRANCH 31 41
ENDBRANCH 28 31
ENDBRANCH 1 27
TORSDOF 15
ENDMDL
MODEL 33
USER: ADFR SOLUTION from run 71
USER: SCORE 16.484424 LL:  -2.717 LR: -14.166 RR:   0.000 FEB:  -9.692
USER: RMSD 8.717880
USER: SEED 70
USER: STATUS no improvement in best in 10 clusters for 5 generations
USER: GENES 17
USER: genes 0 Translation |==|  0.58368 0.43193 0.59583
USER: genes 1 Rotation |==|  0.31190 0.21183 0.80796 0.69167
USER: genes 2 Torsion [C]-CA--CB-[CG] |==|  0.87200
USER: genes 3 Torsion [CA]-CB--CG-[CD2] |==|  0.83107
USER: genes 4 Torsion [CE2]-CZ--OH-[HH] |==|  0.86769
USER: genes 5 Torsion [N]-CA--C-[N] |==|  0.01284
USER: genes 6 Torsion [C]-N--CA-[C] |==|  0.21320
USER: genes 7 Torsion [N]-CA--C-[O] |==|  0.10236
USER: genes 8 Torsion [N]-CA--CB-[CG] |==|  0.77859
USER: genes 9 Torsion [CA]-CB--CG-[CD2] |==|  0.80512
USER: genes 10 Torsion [CE2]-CZ--OH-[HH] |==|  0.45945
USER: genes 11 Torsion [CB]-CA--N-[C] |==|  0.21183
USER: genes 12 Torsion [N]-C--CA-[N] |==|  0.60865
USER: genes 13 Torsion [C]-CA--CB-[CG] |==|  0.41021
USER: genes 14 Torsion [CA]-CB--CG-[CD1] |==|  0.85363
USER: genes 15 Torsion [CE1]-CZ--OH-[HH] |==|  0.41307
USER: genes 16 Torsion [C]-CA--N-[H1] |==|  0.03659
ROOT
ATOM      1  CA  TYR B   2      62.391 148.017   4.028  1.00 28.44 LIG 0.18  C 
ENDROOT
BRANCH 1 2
ATOM      2  CB  TYR B   2      61.290 147.705   5.050  1.00 30.17 LIG 0.07  C 
BRANCH 2 3
ATOM      3  CG  TYR B   2      59.889 147.558   4.477  1.00 31.12 LIG-0.06  A 
ATOM      4  CD2 TYR B   2      59.270 148.621   3.803  1.00 31.81 LIG 0.01  A 
ATOM      5  CE2 TYR B   2      57.990 148.487   3.270  1.00 33.15 LIG 0.04  A 
ATOM      6  CZ  TYR B   2      57.312 147.282   3.408  1.00 33.29 LIG 0.07  A 
ATOM      7  CE1 TYR B   2      57.904 146.203   4.068  1.00 33.06 LIG 0.04  A 
ATOM      8  CD1 TYR B   2      59.185 146.346   4.596  1.00 32.67 LIG 0.01  A 
BRANCH 6 9
ATOM      9 OH   TYR B   2      56.049 147.155   2.887  1.00 34.60 LIG-0.36  OA
ATOM     10 HH   TYR B   2      55.586 147.819   3.113  1.00 34.60 LIG 0.22  HD
ENDBRANCH 6 9
ENDBRANCH 2 3
ENDBRANCH 1 2
BRANCH 1 11
ATOM     11  C   TYR B   2      62.259 147.110   2.822  1.00 30.52 LIG 0.24  C 
ATOM     12  N   TYR B   3      62.179 147.731   1.649  1.00 32.89 LIG-0.35  N 
ATOM     13 H    TYR B   3      62.163 148.587   1.566  1.00 32.89 LIG 0.16  HD
ATOM     14 O    TYR B   2      62.226 145.882   2.956  1.00 30.24 LIG-0.27  OA
BRANCH 12 15
ATOM     15  CA  TYR B   3      62.111 147.014   0.383  1.00 36.06 LIG 0.17  C 
BRANCH 15 16
ATOM     16  C   TYR B   3      60.715 146.439   0.148  1.00 37.31 LIG 0.22  C 
ATOM     17 O    TYR B   3      59.711 147.066   0.498  1.00 39.71 LIG-0.29  OA
ENDBRANCH 15 16
BRANCH 15 18
ATOM     18  CB  TYR B   3      63.167 145.904   0.345  1.00 37.43 LIG 0.07  C 
BRANCH 18 19
ATOM     19  CG  TYR B   3      64.555 146.398   0.017  1.00 38.24 LIG-0.06  A 
ATOM     20  CD2 TYR B   3      64.871 146.857  -1.269  1.00 38.70 LIG 0.01  A 
ATOM     21  CE2 TYR B   3      66.150 147.317  -1.569  1.00 39.79 LIG 0.04  A 
ATOM     22  CZ  TYR B   3      67.127 147.317  -0.580  1.00 40.15 LIG 0.07  A 
ATOM     23  CE1 TYR B   3      66.839 146.864   0.704  1.00 39.97 LIG 0.04  A 
ATOM     24  CD1 TYR B   3      65.561 146.410   0.995  1.00 39.23 LIG 0.01  A 
BRANCH 22 25
ATOM     25 OH   TYR B   3      68.398 147.764  -0.856  1.00 40.04 LIG-0.36  OA
ATOM     26 HH   TYR B   3      68.812 147.894  -0.137  1.00 40.04 LIG 0.22  HD
ENDBRANCH 22 25
ENDBRANCH 18 19
ENDBRANCH 15 18
ENDBRANCH 12 15
ENDBRANCH 1 11
BRANCH 1 27
ATOM     27  N   TYR B   2      62.288 149.401   3.598  1.00 25.33 LIG-0.35  N 
ATOM     28  C   TYR B   1      62.688 150.426   4.345  1.00 22.87 LIG 0.25  C 
ATOM     29 O    TYR B   1      63.270 150.296   5.426  1.00 21.86 LIG-0.27  OA
ATOM     30 H    TYR B   2      61.945 149.495   2.815  1.00 25.33 LIG 0.16  HD
BRANCH 28 31
ATOM     31  CA  TYR B   1      62.390 151.812   3.778  1.00 21.88 LIG 0.28  C 
BRANCH 31 32
ATOM     32  CB  TYR B   1      62.101 151.699   2.279  1.00 21.24 LIG 0.08  C 
BRANCH 32 33
ATOM     33  CG  TYR B   1      61.107 152.705   1.752  1.00 20.81 LIG-0.06  A 
ATOM     34  CD1 TYR B   1      59.851 152.856   2.353  1.00 20.37 LIG 0.01  A 
ATOM     35  CE1 TYR B   1      58.933 153.784   1.869  1.00 19.95 LIG 0.04  A 
ATOM     36  CZ  TYR B   1      59.276 154.571   0.768  1.00 20.32 LIG 0.07  A 
ATOM     37  CE2 TYR B   1      60.516 154.438   0.157  1.00 20.63 LIG 0.04  A 
ATOM     38  CD2 TYR B   1      61.422 153.509   0.648  1.00 20.57 LIG 0.01  A 
BRANCH 36 39
ATOM     39 OH   TYR B   1      58.394 155.499   0.269  1.00 20.56 LIG-0.36  OA
ATOM     40 HH   TYR B   1      58.821 156.146  -0.055  1.00 20.56 LIG 0.22  HD
ENDBRANCH 36 39
ENDBRANCH 32 33
ENDBRANCH 31 32
BRANCH 31 41
ATOM     41  N   TYR B   1      63.512 152.770   4.020  1.00 21.11 LIG-0.07  N 
ATOM     42 H2   TYR B   1      63.695 153.211   3.269  1.00 21.11 LIG 0.28  HD
ATOM     43 H1   TYR B   1      64.235 152.321   4.283  1.00 21.11 LIG 0.28  HD
ATOM     44 H3   TYR B   1      63.277 153.350   4.653  1.00 21.11 LIG 0.28  HD
ENDBRANCH 31 41
ENDBRANCH 28 31
ENDBRANCH 1 27
TORSDOF 15
ENDMDL
MODEL 34
USER: ADFR SOLUTION from run 51
USER: SCORE 15.856649 LL:  -2.656 LR: -14.155 RR:   0.000 FEB:  -9.681
USER: RMSD 10.582673
USER: SEED 50
USER: STATUS no improvement in best in 10 clusters for 5 generations
USER: GENES 17
USER: genes 0 Translation |==|  0.56627 0.51939 0.53610
USER: genes 1 Rotation |==|  0.90290 0.51636 0.78768 0.56814
USER: genes 2 Torsion [C]-CA--CB-[CG] |==|  0.65660
USER: genes 3 Torsion [CA]-CB--CG-[CD2] |==|  0.20186
USER: genes 4 Torsion [CE2]-CZ--OH-[HH] |==|  0.78360
USER: genes 5 Torsion [N]-CA--C-[N] |==|  0.48294
USER: genes 6 Torsion [C]-N--CA-[C] |==|  0.21160
USER: genes 7 Torsion [N]-CA--C-[O] |==|  0.29240
USER: genes 8 Torsion [N]-CA--CB-[CG] |==|  0.77732
USER: genes 9 Torsion [CA]-CB--CG-[CD2] |==|  0.88649
USER: genes 10 Torsion [CE2]-CZ--OH-[HH] |==|  0.45221
USER: genes 11 Torsion [CB]-CA--N-[C] |==|  0.21957
USER: genes 12 Torsion [N]-C--CA-[N] |==|  0.21877
USER: genes 13 Torsion [C]-CA--CB-[CG] |==|  0.72361
USER: genes 14 Torsion [CA]-CB--CG-[CD1] |==|  0.16448
USER: genes 15 Torsion [CE1]-CZ--OH-[HH] |==|  0.91024
USER: genes 16 Torsion [C]-CA--N-[H1] |==|  0.49137
ROOT
ATOM      1  CA  TYR B   2      61.960 149.788   3.088  1.00 28.44 LIG 0.18  C 
ENDROOT
BRANCH 1 2
ATOM      2  CB  TYR B   2      63.221 150.533   2.633  1.00 30.17 LIG 0.07  C 
BRANCH 2 3
ATOM      3  CG  TYR B   2      64.045 151.164   3.744  1.00 31.12 LIG-0.06  A 
ATOM      4  CD2 TYR B   2      64.809 150.374   4.614  1.00 31.81 LIG 0.01  A 
ATOM      5  CE2 TYR B   2      65.570 150.949   5.629  1.00 33.15 LIG 0.04  A 
ATOM      6  CZ  TYR B   2      65.573 152.330   5.785  1.00 33.29 LIG 0.07  A 
ATOM      7  CE1 TYR B   2      64.826 153.145   4.932  1.00 33.06 LIG 0.04  A 
ATOM      8  CD1 TYR B   2      64.070 152.559   3.919  1.00 32.67 LIG 0.01  A 
BRANCH 6 9
ATOM      9 OH   TYR B   2      66.319 152.893   6.789  1.00 34.60 LIG-0.36  OA
ATOM     10 HH   TYR B   2      65.916 152.804   7.521  1.00 34.60 LIG 0.22  HD
ENDBRANCH 6 9
ENDBRANCH 2 3
ENDBRANCH 1 2
BRANCH 1 11
ATOM     11  C   TYR B   2      61.992 148.355   2.598  1.00 30.52 LIG 0.24  C 
ATOM     12  N   TYR B   3      61.937 148.202   1.278  1.00 32.89 LIG-0.35  N 
ATOM     13 H    TYR B   3      61.850 148.858   0.728  1.00 32.89 LIG 0.16  HD
ATOM     14 O    TYR B   2      62.060 147.416   3.398  1.00 30.24 LIG-0.27  OA
BRANCH 12 15
ATOM     15  CA  TYR B   3      62.020 146.899   0.633  1.00 36.06 LIG 0.17  C 
BRANCH 15 16
ATOM     16  C   TYR B   3      60.705 146.133   0.765  1.00 37.31 LIG 0.22  C 
ATOM     17 O    TYR B   3      59.945 146.017  -0.201  1.00 39.71 LIG-0.29  OA
ENDBRANCH 15 16
BRANCH 15 18
ATOM     18  CB  TYR B   3      63.180 146.089   1.222  1.00 37.43 LIG 0.07  C 
BRANCH 18 19
ATOM     19  CG  TYR B   3      64.530 146.466   0.661  1.00 38.24 LIG-0.06  A 
ATOM     20  CD2 TYR B   3      64.693 146.733  -0.705  1.00 38.70 LIG 0.01  A 
ATOM     21  CE2 TYR B   3      65.937 147.086  -1.220  1.00 39.79 LIG 0.04  A 
ATOM     22  CZ  TYR B   3      67.032 147.170  -0.367  1.00 40.15 LIG 0.07  A 
ATOM     23  CE1 TYR B   3      66.897 146.908   0.993  1.00 39.97 LIG 0.04  A 
ATOM     24  CD1 TYR B   3      65.652 146.560   1.498  1.00 39.23 LIG 0.01  A 
BRANCH 22 25
ATOM     25 OH   TYR B   3      68.272 147.514  -0.856  1.00 40.04 LIG-0.36  OA
ATOM     26 HH   TYR B   3      68.767 147.753  -0.221  1.00 40.04 LIG 0.22  HD
ENDBRANCH 22 25
ENDBRANCH 18 19
ENDBRANCH 15 18
ENDBRANCH 12 15
ENDBRANCH 1 11
BRANCH 1 27
ATOM     27  N   TYR B   2      61.880 149.794   4.539  1.00 25.33 LIG-0.35  N 
ATOM     28  C   TYR B   1      61.455 150.842   5.239  1.00 22.87 LIG 0.25  C 
ATOM     29 O    TYR B   1      61.000 151.867   4.723  1.00 21.86 LIG-0.27  OA
ATOM     30 H    TYR B   2      62.132 149.056   4.902  1.00 25.33 LIG 0.16  HD
BRANCH 28 31
ATOM     31  CA  TYR B   1      61.553 150.706   6.757  1.00 21.88 LIG 0.28  C 
BRANCH 31 32
ATOM     32  CB  TYR B   1      60.582 151.684   7.421  1.00 21.24 LIG 0.08  C 
BRANCH 32 33
ATOM     33  CG  TYR B   1      61.216 152.960   7.921  1.00 20.81 LIG-0.06  A 
ATOM     34  CD1 TYR B   1      61.890 153.819   7.042  1.00 20.37 LIG 0.01  A 
ATOM     35  CE1 TYR B   1      62.473 154.996   7.500  1.00 19.95 LIG 0.04  A 
ATOM     36  CZ  TYR B   1      62.383 155.319   8.856  1.00 20.32 LIG 0.07  A 
ATOM     37  CE2 TYR B   1      61.720 154.482   9.744  1.00 20.63 LIG 0.04  A 
ATOM     38  CD2 TYR B   1      61.143 153.311   9.275  1.00 20.57 LIG 0.01  A 
BRANCH 36 39
ATOM     39 OH   TYR B   1      62.945 156.476   9.339  1.00 20.56 LIG-0.36  OA
ATOM     40 HH   TYR B   1      63.634 156.660   8.895  1.00 20.56 LIG 0.22  HD
ENDBRANCH 36 39
ENDBRANCH 32 33
ENDBRANCH 31 32
BRANCH 31 41
ATOM     41  N   TYR B   1      62.945 150.938   7.251  1.00 21.11 LIG-0.07  N 
ATOM     42 H2   TYR B   1      63.487 150.315   6.918  1.00 21.11 LIG 0.28  HD
ATOM     43 H1   TYR B   1      62.955 150.895   8.140  1.00 21.11 LIG 0.28  HD
ATOM     44 H3   TYR B   1      63.223 151.742   6.989  1.00 21.11 LIG 0.28  HD
ENDBRANCH 31 41
ENDBRANCH 28 31
ENDBRANCH 1 27
TORSDOF 15
ENDMDL
MODEL 35
USER: ADFR SOLUTION from run 171
USER: SCORE 16.178375 LL:  -2.836 LR: -14.153 RR:   0.000 FEB:  -9.679
USER: RMSD 7.808969
USER: SEED 170
USER: STATUS no improvement in best in 4 clusters for 5 generations
USER: GENES 17
USER: genes 0 Translation |==|  0.49635 0.44654 0.55833
USER: genes 1 Rotation |==|  0.16745 0.18824 0.69690 0.55869
USER: genes 2 Torsion [C]-CA--CB-[CG] |==|  0.16806
USER: genes 3 Torsion [CA]-CB--CG-[CD2] |==|  0.31811
USER: genes 4 Torsion [CE2]-CZ--OH-[HH] |==|  0.39754
USER: genes 5 Torsion [N]-CA--C-[N] |==|  0.91254
USER: genes 6 Torsion [C]-N--CA-[C] |==|  0.21245
USER: genes 7 Torsion [N]-CA--C-[O] |==|  0.11493
USER: genes 8 Torsion [N]-CA--CB-[CG] |==|  0.67652
USER: genes 9 Torsion [CA]-CB--CG-[CD2] |==|  0.91061
USER: genes 10 Torsion [CE2]-CZ--OH-[HH] |==|  0.45232
USER: genes 11 Torsion [CB]-CA--N-[C] |==|  0.21667
USER: genes 12 Torsion [N]-C--CA-[N] |==|  0.51805
USER: genes 13 Torsion [C]-CA--CB-[CG] |==|  0.89235
USER: genes 14 Torsion [CA]-CB--CG-[CD1] |==|  0.29995
USER: genes 15 Torsion [CE1]-CZ--OH-[HH] |==|  0.35102
USER: genes 16 Torsion [C]-CA--N-[H1] |==|  0.95846
ROOT
ATOM      1  CA  TYR B   2      60.230 148.312   3.438  1.00 28.44 LIG 0.18  C 
ENDROOT
BRANCH 1 2
ATOM      2  CB  TYR B   2      58.713 148.254   3.218  1.00 30.17 LIG 0.07  C 
BRANCH 2 3
ATOM      3  CG  TYR B   2      58.045 146.946   3.612  1.00 31.12 LIG-0.06  A 
ATOM      4  CD2 TYR B   2      57.124 146.896   4.668  1.00 31.81 LIG 0.01  A 
ATOM      5  CE2 TYR B   2      56.505 145.701   5.027  1.00 33.15 LIG 0.04  A 
ATOM      6  CZ  TYR B   2      56.803 144.537   4.329  1.00 33.29 LIG 0.07  A 
ATOM      7  CE1 TYR B   2      57.712 144.555   3.269  1.00 33.06 LIG 0.04  A 
ATOM      8  CD1 TYR B   2      58.324 145.756   2.917  1.00 32.67 LIG 0.01  A 
BRANCH 6 9
ATOM      9 OH   TYR B   2      56.196 143.361   4.689  1.00 34.60 LIG-0.36  OA
ATOM     10 HH   TYR B   2      56.031 142.909   4.001  1.00 34.60 LIG 0.22  HD
ENDBRANCH 6 9
ENDBRANCH 2 3
ENDBRANCH 1 2
BRANCH 1 11
ATOM     11  C   TYR B   2      60.920 147.242   2.619  1.00 30.52 LIG 0.24  C 
ATOM     12  N   TYR B   3      61.269 147.602   1.388  1.00 32.89 LIG-0.35  N 
ATOM     13 H    TYR B   3      61.089 148.372   1.050  1.00 32.89 LIG 0.16  HD
ATOM     14 O    TYR B   2      61.124 146.119   3.093  1.00 30.24 LIG-0.27  OA
BRANCH 12 15
ATOM     15  CA  TYR B   3      61.997 146.718   0.487  1.00 36.06 LIG 0.17  C 
BRANCH 15 16
ATOM     16  C   TYR B   3      61.075 145.653  -0.105  1.00 37.31 LIG 0.22  C 
ATOM     17 O    TYR B   3      59.935 145.945  -0.478  1.00 39.71 LIG-0.29  OA
ENDBRANCH 15 16
BRANCH 15 18
ATOM     18  CB  TYR B   3      63.175 146.068   1.219  1.00 37.43 LIG 0.07  C 
BRANCH 18 19
ATOM     19  CG  TYR B   3      64.524 146.452   0.659  1.00 38.24 LIG-0.06  A 
ATOM     20  CD2 TYR B   3      64.687 146.721  -0.707  1.00 38.70 LIG 0.01  A 
ATOM     21  CE2 TYR B   3      65.929 147.080  -1.221  1.00 39.79 LIG 0.04  A 
ATOM     22  CZ  TYR B   3      67.024 147.168  -0.368  1.00 40.15 LIG 0.07  A 
ATOM     23  CE1 TYR B   3      66.889 146.904   0.992  1.00 39.97 LIG 0.04  A 
ATOM     24  CD1 TYR B   3      65.646 146.549   1.496  1.00 39.23 LIG 0.01  A 
BRANCH 22 25
ATOM     25 OH   TYR B   3      68.262 147.518  -0.856  1.00 40.04 LIG-0.36  OA
ATOM     26 HH   TYR B   3      68.756 147.757  -0.221  1.00 40.04 LIG 0.22  HD
ENDBRANCH 22 25
ENDBRANCH 18 19
ENDBRANCH 15 18
ENDBRANCH 12 15
ENDBRANCH 1 11
BRANCH 1 27
ATOM     27  N   TYR B   2      60.736 149.616   3.041  1.00 25.33 LIG-0.35  N 
ATOM     28  C   TYR B   1      60.613 150.704   3.796  1.00 22.87 LIG 0.25  C 
ATOM     29 O    TYR B   1      60.149 150.692   4.940  1.00 21.86 LIG-0.27  OA
ATOM     30 H    TYR B   2      61.122 149.617   2.272  1.00 25.33 LIG 0.16  HD
BRANCH 28 31
ATOM     31  CA  TYR B   1      61.099 152.006   3.162  1.00 21.88 LIG 0.28  C 
BRANCH 31 32
ATOM     32  CB  TYR B   1      62.513 151.810   2.613  1.00 21.24 LIG 0.08  C 
BRANCH 32 33
ATOM     33  CG  TYR B   1      63.413 150.959   3.476  1.00 20.81 LIG-0.06  A 
ATOM     34  CD1 TYR B   1      63.770 149.662   3.082  1.00 20.37 LIG 0.01  A 
ATOM     35  CE1 TYR B   1      64.600 148.877   3.875  1.00 19.95 LIG 0.04  A 
ATOM     36  CZ  TYR B   1      65.080 149.394   5.081  1.00 20.32 LIG 0.07  A 
ATOM     37  CE2 TYR B   1      64.739 150.676   5.490  1.00 20.63 LIG 0.04  A 
ATOM     38  CD2 TYR B   1      63.910 151.450   4.690  1.00 20.57 LIG 0.01  A 
BRANCH 36 39
ATOM     39 OH   TYR B   1      65.905 148.645   5.884  1.00 20.56 LIG-0.36  OA
ATOM     40 HH   TYR B   1      66.603 149.081   6.053  1.00 20.56 LIG 0.22  HD
ENDBRANCH 36 39
ENDBRANCH 32 33
ENDBRANCH 31 32
BRANCH 31 41
ATOM     41  N   TYR B   1      61.070 153.145   4.130  1.00 21.11 LIG-0.07  N 
ATOM     42 H2   TYR B   1      61.899 153.332   4.393  1.00 21.11 LIG 0.28  HD
ATOM     43 H1   TYR B   1      60.577 152.922   4.836  1.00 21.11 LIG 0.28  HD
ATOM     44 H3   TYR B   1      60.716 153.861   3.735  1.00 21.11 LIG 0.28  HD
ENDBRANCH 31 41
ENDBRANCH 28 31
ENDBRANCH 1 27
TORSDOF 15
ENDMDL
MODEL 36
USER: ADFR SOLUTION from run 170
USER: SCORE 15.704910 LL:  -2.251 LR: -14.139 RR:   0.000 FEB:  -9.664
USER: RMSD 8.010092
USER: SEED 169
USER: STATUS no improvement in best in 14 clusters for 5 generations
USER: GENES 17
USER: genes 0 Translation |==|  0.53777 0.44510 0.49312
USER: genes 1 Rotation |==|  0.67704 0.37636 0.78564 0.84897
USER: genes 2 Torsion [C]-CA--CB-[CG] |==|  0.37759
USER: genes 3 Torsion [CA]-CB--CG-[CD2] |==|  0.28727
USER: genes 4 Torsion [CE2]-CZ--OH-[HH] |==|  0.00588
USER: genes 5 Torsion [N]-CA--C-[N] |==|  0.94444
USER: genes 6 Torsion [C]-N--CA-[C] |==|  0.52761
USER: genes 7 Torsion [N]-CA--C-[O] |==|  0.04012
USER: genes 8 Torsion [N]-CA--CB-[CG] |==|  0.20217
USER: genes 9 Torsion [CA]-CB--CG-[CD2] |==|  0.86778
USER: genes 10 Torsion [CE2]-CZ--OH-[HH] |==|  0.88800
USER: genes 11 Torsion [CB]-CA--N-[C] |==|  0.22144
USER: genes 12 Torsion [N]-C--CA-[N] |==|  0.47844
USER: genes 13 Torsion [C]-CA--CB-[CG] |==|  0.82520
USER: genes 14 Torsion [CA]-CB--CG-[CD1] |==|  0.96492
USER: genes 15 Torsion [CE1]-CZ--OH-[HH] |==|  0.68557
USER: genes 16 Torsion [C]-CA--N-[H1] |==|  0.53126
ROOT
ATOM      1  CA  TYR B   2      61.255 148.283   2.411  1.00 28.44 LIG 0.18  C 
ENDROOT
BRANCH 1 2
ATOM      2  CB  TYR B   2      62.299 147.373   3.069  1.00 30.17 LIG 0.07  C 
BRANCH 2 3
ATOM      3  CG  TYR B   2      63.638 147.289   2.354  1.00 31.12 LIG-0.06  A 
ATOM      4  CD2 TYR B   2      64.759 147.978   2.839  1.00 31.81 LIG 0.01  A 
ATOM      5  CE2 TYR B   2      65.989 147.899   2.190  1.00 33.15 LIG 0.04  A 
ATOM      6  CZ  TYR B   2      66.111 147.124   1.042  1.00 33.29 LIG 0.07  A 
ATOM      7  CE1 TYR B   2      65.014 146.422   0.538  1.00 33.06 LIG 0.04  A 
ATOM      8  CD1 TYR B   2      63.789 146.507   1.195  1.00 32.67 LIG 0.01  A 
BRANCH 6 9
ATOM      9 OH   TYR B   2      67.322 147.053   0.403  1.00 34.60 LIG-0.36  OA
ATOM     10 HH   TYR B   2      67.891 147.498   0.831  1.00 34.60 LIG 0.22  HD
ENDBRANCH 6 9
ENDBRANCH 2 3
ENDBRANCH 1 2
BRANCH 1 11
ATOM     11  C   TYR B   2      59.902 147.604   2.395  1.00 30.52 LIG 0.24  C 
ATOM     12  N   TYR B   3      59.054 148.000   3.339  1.00 32.89 LIG-0.35  N 
ATOM     13 H    TYR B   3      59.256 148.573   3.948  1.00 32.89 LIG 0.16  HD
ATOM     14 O    TYR B   2      59.639 146.740   1.552  1.00 30.24 LIG-0.27  OA
BRANCH 12 15
ATOM     15  CA  TYR B   3      57.690 147.498   3.433  1.00 36.06 LIG 0.17  C 
BRANCH 15 16
ATOM     16  C   TYR B   3      56.875 148.298   4.449  1.00 37.31 LIG 0.22  C 
ATOM     17 O    TYR B   3      57.286 149.383   4.869  1.00 39.71 LIG-0.29  OA
ENDBRANCH 15 16
BRANCH 15 18
ATOM     18  CB  TYR B   3      57.697 146.010   3.796  1.00 37.43 LIG 0.07  C 
BRANCH 18 19
ATOM     19  CG  TYR B   3      58.082 145.737   5.231  1.00 38.24 LIG-0.06  A 
ATOM     20  CD2 TYR B   3      59.204 146.349   5.804  1.00 38.70 LIG 0.01  A 
ATOM     21  CE2 TYR B   3      59.555 146.101   7.128  1.00 39.79 LIG 0.04  A 
ATOM     22  CZ  TYR B   3      58.782 145.232   7.890  1.00 40.15 LIG 0.07  A 
ATOM     23  CE1 TYR B   3      57.662 144.611   7.343  1.00 39.97 LIG 0.04  A 
ATOM     24  CD1 TYR B   3      57.319 144.866   6.023  1.00 39.23 LIG 0.01  A 
BRANCH 22 25
ATOM     25 OH   TYR B   3      59.112 144.971   9.200  1.00 40.04 LIG-0.36  OA
ATOM     26 HH   TYR B   3      59.945 144.895   9.269  1.00 40.04 LIG 0.22  HD
ENDBRANCH 22 25
ENDBRANCH 18 19
ENDBRANCH 15 18
ENDBRANCH 12 15
ENDBRANCH 1 11
BRANCH 1 27
ATOM     27  N   TYR B   2      61.153 149.531   3.148  1.00 25.33 LIG-0.35  N 
ATOM     28  C   TYR B   1      62.021 150.530   3.012  1.00 22.87 LIG 0.25  C 
ATOM     29 O    TYR B   1      62.934 150.530   2.181  1.00 21.86 LIG-0.27  OA
ATOM     30 H    TYR B   2      60.478 149.564   3.681  1.00 25.33 LIG 0.16  HD
BRANCH 28 31
ATOM     31  CA  TYR B   1      61.821 151.712   3.957  1.00 21.88 LIG 0.28  C 
BRANCH 31 32
ATOM     32  CB  TYR B   1      60.486 152.393   3.647  1.00 21.24 LIG 0.08  C 
BRANCH 32 33
ATOM     33  CG  TYR B   1      60.390 152.993   2.265  1.00 20.81 LIG-0.06  A 
ATOM     34  CD1 TYR B   1      61.532 153.145   1.467  1.00 20.37 LIG 0.01  A 
ATOM     35  CE1 TYR B   1      61.445 153.696   0.193  1.00 19.95 LIG 0.04  A 
ATOM     36  CZ  TYR B   1      60.200 154.102  -0.292  1.00 20.32 LIG 0.07  A 
ATOM     37  CE2 TYR B   1      59.056 153.960   0.482  1.00 20.63 LIG 0.04  A 
ATOM     38  CD2 TYR B   1      59.155 153.409   1.752  1.00 20.57 LIG 0.01  A 
BRANCH 36 39
ATOM     39 OH   TYR B   1      60.080 154.645  -1.548  1.00 20.56 LIG-0.36  OA
ATOM     40 HH   TYR B   1      59.857 155.452  -1.484  1.00 20.56 LIG 0.22  HD
ENDBRANCH 36 39
ENDBRANCH 32 33
ENDBRANCH 31 32
BRANCH 31 41
ATOM     41  N   TYR B   1      62.941 152.698   3.865  1.00 21.11 LIG-0.07  N 
ATOM     42 H2   TYR B   1      63.720 152.270   3.918  1.00 21.11 LIG 0.28  HD
ATOM     43 H1   TYR B   1      62.879 153.282   4.535  1.00 21.11 LIG 0.28  HD
ATOM     44 H3   TYR B   1      62.894 153.131   3.089  1.00 21.11 LIG 0.28  HD
ENDBRANCH 31 41
ENDBRANCH 28 31
ENDBRANCH 1 27
TORSDOF 15
ENDMDL
MODEL 37
USER: ADFR SOLUTION from run 160
USER: SCORE 15.977250 LL:  -2.585 LR: -14.133 RR:   0.000 FEB:  -9.659
USER: RMSD 7.007223
USER: SEED 159
USER: STATUS no improvement in best in 9 clusters for 5 generations
USER: GENES 17
USER: genes 0 Translation |==|  0.54705 0.44663 0.49308
USER: genes 1 Rotation |==|  0.67404 0.38191 0.79028 0.84857
USER: genes 2 Torsion [C]-CA--CB-[CG] |==|  0.37102
USER: genes 3 Torsion [CA]-CB--CG-[CD2] |==|  0.29962
USER: genes 4 Torsion [CE2]-CZ--OH-[HH] |==|  0.97494
USER: genes 5 Torsion [N]-CA--C-[N] |==|  0.88333
USER: genes 6 Torsion [C]-N--CA-[C] |==|  0.21663
USER: genes 7 Torsion [N]-CA--C-[O] |==|  0.78520
USER: genes 8 Torsion [N]-CA--CB-[CG] |==|  0.81708
USER: genes 9 Torsion [CA]-CB--CG-[CD2] |==|  0.01211
USER: genes 10 Torsion [CE2]-CZ--OH-[HH] |==|  0.36701
USER: genes 11 Torsion [CB]-CA--N-[C] |==|  0.18535
USER: genes 12 Torsion [N]-C--CA-[N] |==|  0.52523
USER: genes 13 Torsion [C]-CA--CB-[CG] |==|  0.80957
USER: genes 14 Torsion [CA]-CB--CG-[CD1] |==|  0.00148
USER: genes 15 Torsion [CE1]-CZ--OH-[HH] |==|  0.79198
USER: genes 16 Torsion [C]-CA--N-[H1] |==|  0.19941
ROOT
ATOM      1  CA  TYR B   2      61.485 148.314   2.410  1.00 28.44 LIG 0.18  C 
ENDROOT
BRANCH 1 2
ATOM      2  CB  TYR B   2      62.547 147.440   3.089  1.00 30.17 LIG 0.07  C 
BRANCH 2 3
ATOM      3  CG  TYR B   2      63.867 147.319   2.345  1.00 31.12 LIG-0.06  A 
ATOM      4  CD2 TYR B   2      65.022 147.959   2.816  1.00 31.81 LIG 0.01  A 
ATOM      5  CE2 TYR B   2      66.235 147.845   2.142  1.00 33.15 LIG 0.04  A 
ATOM      6  CZ  TYR B   2      66.305 147.083   0.981  1.00 33.29 LIG 0.07  A 
ATOM      7  CE1 TYR B   2      65.173 146.429   0.489  1.00 33.06 LIG 0.04  A 
ATOM      8  CD1 TYR B   2      63.965 146.549   1.172  1.00 32.67 LIG 0.01  A 
BRANCH 6 9
ATOM      9 OH   TYR B   2      67.499 146.977   0.316  1.00 34.60 LIG-0.36  OA
ATOM     10 HH   TYR B   2      68.054 147.514   0.648  1.00 34.60 LIG 0.22  HD
ENDBRANCH 6 9
ENDBRANCH 2 3
ENDBRANCH 1 2
BRANCH 1 11
ATOM     11  C   TYR B   2      60.144 147.609   2.414  1.00 30.52 LIG 0.24  C 
ATOM     12  N   TYR B   3      59.479 147.655   3.565  1.00 32.89 LIG-0.35  N 
ATOM     13 H    TYR B   3      59.791 148.022   4.278  1.00 32.89 LIG 0.16  HD
ATOM     14 O    TYR B   2      59.730 147.035   1.402  1.00 30.24 LIG-0.27  OA
BRANCH 12 15
ATOM     15  CA  TYR B   3      58.149 147.085   3.728  1.00 36.06 LIG 0.17  C 
BRANCH 15 16
ATOM     16  C   TYR B   3      58.216 145.566   3.883  1.00 37.31 LIG 0.22  C 
ATOM     17 O    TYR B   3      58.396 144.841   2.901  1.00 39.71 LIG-0.29  OA
ENDBRANCH 15 16
BRANCH 15 18
ATOM     18  CB  TYR B   3      57.259 147.469   2.542  1.00 37.43 LIG 0.07  C 
BRANCH 18 19
ATOM     19  CG  TYR B   3      56.965 148.948   2.459  1.00 38.24 LIG-0.06  A 
ATOM     20  CD2 TYR B   3      57.558 149.852   3.350  1.00 38.70 LIG 0.01  A 
ATOM     21  CE2 TYR B   3      57.291 151.215   3.269  1.00 39.79 LIG 0.04  A 
ATOM     22  CZ  TYR B   3      56.421 151.685   2.291  1.00 40.15 LIG 0.07  A 
ATOM     23  CE1 TYR B   3      55.818 150.808   1.394  1.00 39.97 LIG 0.04  A 
ATOM     24  CD1 TYR B   3      56.092 149.450   1.481  1.00 39.23 LIG 0.01  A 
BRANCH 22 25
ATOM     25 OH   TYR B   3      56.141 153.029   2.194  1.00 40.04 LIG-0.36  OA
ATOM     26 HH   TYR B   3      56.214 153.273   1.394  1.00 40.04 LIG 0.22  HD
ENDBRANCH 22 25
ENDBRANCH 18 19
ENDBRANCH 15 18
ENDBRANCH 12 15
ENDBRANCH 1 11
BRANCH 1 27
ATOM     27  N   TYR B   2      61.360 149.578   3.117  1.00 25.33 LIG-0.35  N 
ATOM     28  C   TYR B   1      62.329 150.489   3.152  1.00 22.87 LIG 0.25  C 
ATOM     29 O    TYR B   1      63.380 150.392   2.513  1.00 21.86 LIG-0.27  OA
ATOM     30 H    TYR B   2      60.602 149.682   3.509  1.00 25.33 LIG 0.16  HD
BRANCH 28 31
ATOM     31  CA  TYR B   1      62.062 151.701   4.043  1.00 21.88 LIG 0.28  C 
BRANCH 31 32
ATOM     32  CB  TYR B   1      60.665 152.253   3.750  1.00 21.24 LIG 0.08  C 
BRANCH 32 33
ATOM     33  CG  TYR B   1      60.510 152.888   2.390  1.00 20.81 LIG-0.06  A 
ATOM     34  CD1 TYR B   1      61.586 152.936   1.493  1.00 20.37 LIG 0.01  A 
ATOM     35  CE1 TYR B   1      61.445 153.519   0.238  1.00 19.95 LIG 0.04  A 
ATOM     36  CZ  TYR B   1      60.212 154.064  -0.126  1.00 20.32 LIG 0.07  A 
ATOM     37  CE2 TYR B   1      59.133 154.028   0.747  1.00 20.63 LIG 0.04  A 
ATOM     38  CD2 TYR B   1      59.286 153.443   1.996  1.00 20.57 LIG 0.01  A 
BRANCH 36 39
ATOM     39 OH   TYR B   1      60.039 154.643  -1.360  1.00 20.56 LIG-0.36  OA
ATOM     40 HH   TYR B   1      60.414 155.395  -1.372  1.00 20.56 LIG 0.22  HD
ENDBRANCH 36 39
ENDBRANCH 32 33
ENDBRANCH 31 32
BRANCH 31 41
ATOM     41  N   TYR B   1      63.092 152.769   3.858  1.00 21.11 LIG-0.07  N 
ATOM     42 H2   TYR B   1      63.009 153.377   4.503  1.00 21.11 LIG 0.28  HD
ATOM     43 H1   TYR B   1      62.977 153.159   3.066  1.00 21.11 LIG 0.28  HD
ATOM     44 H3   TYR B   1      63.905 152.408   3.895  1.00 21.11 LIG 0.28  HD
ENDBRANCH 31 41
ENDBRANCH 28 31
ENDBRANCH 1 27
TORSDOF 15
ENDMDL
MODEL 38
USER: ADFR SOLUTION from run 48
USER: SCORE 15.715442 LL:  -2.735 LR: -14.062 RR:   0.000 FEB:  -9.588
USER: RMSD 10.096562
USER: SEED 47
USER: STATUS no improvement in best in 4 clusters for 5 generations
USER: GENES 17
USER: genes 0 Translation |==|  0.55002 0.59319 0.58101
USER: genes 1 Rotation |==|  0.91248 0.72098 0.62659 0.62250
USER: genes 2 Torsion [C]-CA--CB-[CG] |==|  0.45488
USER: genes 3 Torsion [CA]-CB--CG-[CD2] |==|  0.42737
USER: genes 4 Torsion [CE2]-CZ--OH-[HH] |==|  0.93997
USER: genes 5 Torsion [N]-CA--C-[N] |==|  0.78140
USER: genes 6 Torsion [C]-N--CA-[C] |==|  0.67039
USER: genes 7 Torsion [N]-CA--C-[O] |==|  0.18532
USER: genes 8 Torsion [N]-CA--CB-[CG] |==|  0.82773
USER: genes 9 Torsion [CA]-CB--CG-[CD2] |==|  0.83563
USER: genes 10 Torsion [CE2]-CZ--OH-[HH] |==|  0.67546
USER: genes 11 Torsion [CB]-CA--N-[C] |==|  0.52222
USER: genes 12 Torsion [N]-C--CA-[N] |==|  0.94914
USER: genes 13 Torsion [C]-CA--CB-[CG] |==|  0.77651
USER: genes 14 Torsion [CA]-CB--CG-[CD1] |==|  0.70994
USER: genes 15 Torsion [CE1]-CZ--OH-[HH] |==|  0.10078
USER: genes 16 Torsion [C]-CA--N-[H1] |==|  0.28770
ROOT
ATOM      1  CA  TYR B   2      61.558 151.282   3.795  1.00 28.44 LIG 0.18  C 
ENDROOT
BRANCH 1 2
ATOM      2  CB  TYR B   2      61.802 151.679   2.333  1.00 30.17 LIG 0.07  C 
BRANCH 2 3
ATOM      3  CG  TYR B   2      60.883 152.759   1.786  1.00 31.12 LIG-0.06  A 
ATOM      4  CD2 TYR B   2      61.291 153.587   0.731  1.00 31.81 LIG 0.01  A 
ATOM      5  CE2 TYR B   2      60.449 154.573   0.222  1.00 33.15 LIG 0.04  A 
ATOM      6  CZ  TYR B   2      59.182 154.741   0.768  1.00 33.29 LIG 0.07  A 
ATOM      7  CE1 TYR B   2      58.744 153.929   1.817  1.00 33.06 LIG 0.04  A 
ATOM      8  CD1 TYR B   2      59.594 152.945   2.317  1.00 32.67 LIG 0.01  A 
BRANCH 6 9
ATOM      9 OH   TYR B   2      58.357 155.717   0.269  1.00 34.60 LIG-0.36  OA
ATOM     10 HH   TYR B   2      58.818 156.299  -0.124  1.00 34.60 LIG 0.22  HD
ENDBRANCH 6 9
ENDBRANCH 2 3
ENDBRANCH 1 2
BRANCH 1 11
ATOM     11  C   TYR B   2      62.235 149.962   4.100  1.00 30.52 LIG 0.24  C 
ATOM     12  N   TYR B   3      63.456 149.817   3.594  1.00 32.89 LIG-0.35  N 
ATOM     13 H    TYR B   3      63.834 150.405   3.093  1.00 32.89 LIG 0.16  HD
ATOM     14 O    TYR B   2      61.661 149.099   4.773  1.00 30.24 LIG-0.27  OA
BRANCH 12 15
ATOM     15  CA  TYR B   3      64.275 148.638   3.841  1.00 36.06 LIG 0.17  C 
BRANCH 15 16
ATOM     16  C   TYR B   3      65.570 149.008   4.564  1.00 37.31 LIG 0.22  C 
ATOM     17 O    TYR B   3      65.543 149.435   5.721  1.00 39.71 LIG-0.29  OA
ENDBRANCH 15 16
BRANCH 15 18
ATOM     18  CB  TYR B   3      64.577 147.917   2.523  1.00 37.43 LIG 0.07  C 
BRANCH 18 19
ATOM     19  CG  TYR B   3      63.345 147.406   1.816  1.00 38.24 LIG-0.06  A 
ATOM     20  CD2 TYR B   3      62.484 146.492   2.437  1.00 38.70 LIG 0.01  A 
ATOM     21  CE2 TYR B   3      61.346 146.026   1.786  1.00 39.79 LIG 0.04  A 
ATOM     22  CZ  TYR B   3      61.063 146.470   0.499  1.00 40.15 LIG 0.07  A 
ATOM     23  CE1 TYR B   3      61.903 147.377  -0.141  1.00 39.97 LIG 0.04  A 
ATOM     24  CD1 TYR B   3      63.034 147.838   0.517  1.00 39.23 LIG 0.01  A 
BRANCH 22 25
ATOM     25 OH   TYR B   3      59.945 146.020  -0.164  1.00 40.04 LIG-0.36  OA
ATOM     26 HH   TYR B   3      60.179 145.594  -0.849  1.00 40.04 LIG 0.22  HD
ENDBRANCH 22 25
ENDBRANCH 18 19
ENDBRANCH 15 18
ENDBRANCH 12 15
ENDBRANCH 1 11
BRANCH 1 27
ATOM     27  N   TYR B   2      62.089 152.306   4.680  1.00 25.33 LIG-0.35  N 
ATOM     28  C   TYR B   1      62.159 152.160   6.000  1.00 22.87 LIG 0.25  C 
ATOM     29 O    TYR B   1      61.872 151.113   6.587  1.00 21.86 LIG-0.27  OA
ATOM     30 H    TYR B   2      62.354 153.014   4.269  1.00 25.33 LIG 0.16  HD
BRANCH 28 31
ATOM     31  CA  TYR B   1      62.633 153.388   6.775  1.00 21.88 LIG 0.28  C 
BRANCH 31 32
ATOM     32  CB  TYR B   1      61.438 154.052   7.461  1.00 21.24 LIG 0.08  C 
BRANCH 32 33
ATOM     33  CG  TYR B   1      60.607 154.936   6.562  1.00 20.81 LIG-0.06  A 
ATOM     34  CD1 TYR B   1      60.698 156.332   6.645  1.00 20.37 LIG 0.01  A 
ATOM     35  CE1 TYR B   1      59.934 157.148   5.817  1.00 19.95 LIG 0.04  A 
ATOM     36  CZ  TYR B   1      59.066 156.562   4.893  1.00 20.32 LIG 0.07  A 
ATOM     37  CE2 TYR B   1      58.960 155.181   4.795  1.00 20.63 LIG 0.04  A 
ATOM     38  CD2 TYR B   1      59.727 154.377   5.627  1.00 20.57 LIG 0.01  A 
BRANCH 36 39
ATOM     39 OH   TYR B   1      58.301 157.341   4.059  1.00 20.56 LIG-0.36  OA
ATOM     40 HH   TYR B   1      58.739 158.020   3.830  1.00 20.56 LIG 0.22  HD
ENDBRANCH 36 39
ENDBRANCH 32 33
ENDBRANCH 31 32
BRANCH 31 41
ATOM     41  N   TYR B   1      63.339 154.368   5.894  1.00 21.11 LIG-0.07  N 
ATOM     42 H2   TYR B   1      64.070 154.665   6.306  1.00 21.11 LIG 0.28  HD
ATOM     43 H1   TYR B   1      62.798 155.053   5.719  1.00 21.11 LIG 0.28  HD
ATOM     44 H3   TYR B   1      63.570 153.970   5.132  1.00 21.11 LIG 0.28  HD
ENDBRANCH 31 41
ENDBRANCH 28 31
ENDBRANCH 1 27
TORSDOF 15
ENDMDL
MODEL 39
USER: ADFR SOLUTION from run 149
USER: SCORE 17.001777 LL:  -3.848 LR: -14.021 RR:   0.000 FEB:  -9.547
USER: RMSD 7.674627
USER: SEED 148
USER: STATUS no improvement in best in 9 clusters for 5 generations
USER: GENES 17
USER: genes 0 Translation |==|  0.71094 0.49299 0.61944
USER: genes 1 Rotation |==|  0.11935 0.64422 0.78374 0.56163
USER: genes 2 Torsion [C]-CA--CB-[CG] |==|  0.17457
USER: genes 3 Torsion [CA]-CB--CG-[CD2] |==|  0.22475
USER: genes 4 Torsion [CE2]-CZ--OH-[HH] |==|  0.15521
USER: genes 5 Torsion [N]-CA--C-[N] |==|  0.79040
USER: genes 6 Torsion [C]-N--CA-[C] |==|  0.82580
USER: genes 7 Torsion [N]-CA--C-[O] |==|  0.42348
USER: genes 8 Torsion [N]-CA--CB-[CG] |==|  0.89678
USER: genes 9 Torsion [CA]-CB--CG-[CD2] |==|  0.72867
USER: genes 10 Torsion [CE2]-CZ--OH-[HH] |==|  0.19417
USER: genes 11 Torsion [CB]-CA--N-[C] |==|  0.86394
USER: genes 12 Torsion [N]-C--CA-[N] |==|  0.95453
USER: genes 13 Torsion [C]-CA--CB-[CG] |==|  0.14030
USER: genes 14 Torsion [CA]-CB--CG-[CD1] |==|  0.15726
USER: genes 15 Torsion [CE1]-CZ--OH-[HH] |==|  0.73284
USER: genes 16 Torsion [C]-CA--N-[H1] |==|  0.77377
ROOT
ATOM      1  CA  TYR B   2      65.541 149.253   4.400  1.00 28.44 LIG 0.18  C 
ENDROOT
BRANCH 1 2
ATOM      2  CB  TYR B   2      65.192 150.588   3.729  1.00 30.17 LIG 0.07  C 
BRANCH 2 3
ATOM      3  CG  TYR B   2      64.790 151.709   4.674  1.00 31.12 LIG-0.06  A 
ATOM      4  CD2 TYR B   2      65.758 152.462   5.352  1.00 31.81 LIG 0.01  A 
ATOM      5  CE2 TYR B   2      65.394 153.496   6.213  1.00 33.15 LIG 0.04  A 
ATOM      6  CZ  TYR B   2      64.048 153.786   6.404  1.00 33.29 LIG 0.07  A 
ATOM      7  CE1 TYR B   2      63.060 153.057   5.739  1.00 33.06 LIG 0.04  A 
ATOM      8  CD1 TYR B   2      63.436 152.027   4.879  1.00 32.67 LIG 0.01  A 
BRANCH 6 9
ATOM      9 OH   TYR B   2      63.693 154.800   7.257  1.00 34.60 LIG-0.36  OA
ATOM     10 HH   TYR B   2      64.070 155.511   7.019  1.00 34.60 LIG 0.22  HD
ENDBRANCH 6 9
ENDBRANCH 2 3
ENDBRANCH 1 2
BRANCH 1 11
ATOM     11  C   TYR B   2      64.331 148.698   5.123  1.00 30.52 LIG 0.24  C 
ATOM     12  N   TYR B   3      63.190 148.742   4.442  1.00 32.89 LIG-0.35  N 
ATOM     13 H    TYR B   3      63.118 149.093   3.660  1.00 32.89 LIG 0.16  HD
ATOM     14 O    TYR B   2      64.432 148.248   6.269  1.00 30.24 LIG-0.27  OA
BRANCH 12 15
ATOM     15  CA  TYR B   3      61.943 148.195   4.959  1.00 36.06 LIG 0.17  C 
BRANCH 15 16
ATOM     16  C   TYR B   3      62.050 146.686   5.175  1.00 37.31 LIG 0.22  C 
ATOM     17 O    TYR B   3      61.361 146.123   6.030  1.00 39.71 LIG-0.29  OA
ENDBRANCH 15 16
BRANCH 15 18
ATOM     18  CB  TYR B   3      60.786 148.527   4.012  1.00 37.43 LIG 0.07  C 
BRANCH 18 19
ATOM     19  CG  TYR B   3      60.887 149.897   3.386  1.00 38.24 LIG-0.06  A 
ATOM     20  CD2 TYR B   3      60.186 150.986   3.918  1.00 38.70 LIG 0.01  A 
ATOM     21  CE2 TYR B   3      60.285 152.250   3.343  1.00 39.79 LIG 0.04  A 
ATOM     22  CZ  TYR B   3      61.088 152.431   2.223  1.00 40.15 LIG 0.07  A 
ATOM     23  CE1 TYR B   3      61.794 151.365   1.674  1.00 39.97 LIG 0.04  A 
ATOM     24  CD1 TYR B   3      61.691 150.109   2.256  1.00 39.23 LIG 0.01  A 
BRANCH 22 25
ATOM     25 OH   TYR B   3      61.198 153.671   1.637  1.00 40.04 LIG-0.36  OA
ATOM     26 HH   TYR B   3      61.629 154.183   2.144  1.00 40.04 LIG 0.22  HD
ENDBRANCH 22 25
ENDBRANCH 18 19
ENDBRANCH 15 18
ENDBRANCH 12 15
ENDBRANCH 1 11
BRANCH 1 27
ATOM     27  N   TYR B   2      65.977 148.296   3.397  1.00 25.33 LIG-0.35  N 
ATOM     28  C   TYR B   1      65.305 148.062   2.274  1.00 22.87 LIG 0.25  C 
ATOM     29 O    TYR B   1      64.305 148.701   1.932  1.00 21.86 LIG-0.27  OA
ATOM     30 H    TYR B   2      66.711 147.895   3.599  1.00 25.33 LIG 0.16  HD
BRANCH 28 31
ATOM     31  CA  TYR B   1      65.852 146.937   1.399  1.00 21.88 LIG 0.28  C 
BRANCH 31 32
ATOM     32  CB  TYR B   1      64.937 145.716   1.505  1.00 21.24 LIG 0.08  C 
BRANCH 32 33
ATOM     33  CG  TYR B   1      63.472 146.005   1.284  1.00 20.81 LIG-0.06  A 
ATOM     34  CD1 TYR B   1      63.030 146.611   0.100  1.00 20.37 LIG 0.01  A 
ATOM     35  CE1 TYR B   1      61.680 146.877  -0.106  1.00 19.95 LIG 0.04  A 
ATOM     36  CZ  TYR B   1      60.758 146.534   0.885  1.00 20.32 LIG 0.07  A 
ATOM     37  CE2 TYR B   1      61.174 145.932   2.065  1.00 20.63 LIG 0.04  A 
ATOM     38  CD2 TYR B   1      62.523 145.672   2.259  1.00 20.57 LIG 0.01  A 
BRANCH 36 39
ATOM     39 OH   TYR B   1      59.418 146.779   0.709  1.00 20.56 LIG-0.36  OA
ATOM     40 HH   TYR B   1      59.215 147.506   1.078  1.00 20.56 LIG 0.22  HD
ENDBRANCH 36 39
ENDBRANCH 32 33
ENDBRANCH 31 32
BRANCH 31 41
ATOM     41  N   TYR B   1      67.254 146.570   1.769  1.00 21.11 LIG-0.07  N 
ATOM     42 H2   TYR B   1      67.345 146.601   2.654  1.00 21.11 LIG 0.28  HD
ATOM     43 H1   TYR B   1      67.820 147.145   1.393  1.00 21.11 LIG 0.28  HD
ATOM     44 H3   TYR B   1      67.431 145.747   1.481  1.00 21.11 LIG 0.28  HD
ENDBRANCH 31 41
ENDBRANCH 28 31
ENDBRANCH 1 27
TORSDOF 15
ENDMDL
MODEL 40
USER: ADFR SOLUTION from run 63
USER: SCORE 15.687864 LL:  -2.793 LR: -13.977 RR:   0.000 FEB:  -9.503
USER: RMSD 9.374971
USER: SEED 62
USER: STATUS no improvement in best in 2 clusters for 5 generations
USER: GENES 17
USER: genes 0 Translation |==|  0.55928 0.53200 0.47906
USER: genes 1 Rotation |==|  0.77756 0.51652 0.82603 0.75767
USER: genes 2 Torsion [C]-CA--CB-[CG] |==|  0.71561
USER: genes 3 Torsion [CA]-CB--CG-[CD2] |==|  0.28454
USER: genes 4 Torsion [CE2]-CZ--OH-[HH] |==|  0.70127
USER: genes 5 Torsion [N]-CA--C-[N] |==|  0.76463
USER: genes 6 Torsion [C]-N--CA-[C] |==|  0.55682
USER: genes 7 Torsion [N]-CA--C-[O] |==|  0.94918
USER: genes 8 Torsion [N]-CA--CB-[CG] |==|  0.03848
USER: genes 9 Torsion [CA]-CB--CG-[CD2] |==|  0.22148
USER: genes 10 Torsion [CE2]-CZ--OH-[HH] |==|  0.40104
USER: genes 11 Torsion [CB]-CA--N-[C] |==|  0.52778
USER: genes 12 Torsion [N]-C--CA-[N] |==|  0.97692
USER: genes 13 Torsion [C]-CA--CB-[CG] |==|  0.86542
USER: genes 14 Torsion [CA]-CB--CG-[CD1] |==|  0.42469
USER: genes 15 Torsion [CE1]-CZ--OH-[HH] |==|  0.32549
USER: genes 16 Torsion [C]-CA--N-[H1] |==|  0.45425
ROOT
ATOM      1  CA  TYR B   2      61.787 150.043   2.189  1.00 28.44 LIG 0.18  C 
ENDROOT
BRANCH 1 2
ATOM      2  CB  TYR B   2      63.320 149.982   2.159  1.00 30.17 LIG 0.07  C 
BRANCH 2 3
ATOM      3  CG  TYR B   2      64.023 150.627   3.342  1.00 31.12 LIG-0.06  A 
ATOM      4  CD2 TYR B   2      64.557 149.846   4.377  1.00 31.81 LIG 0.01  A 
ATOM      5  CE2 TYR B   2      65.209 150.433   5.459  1.00 33.15 LIG 0.04  A 
ATOM      6  CZ  TYR B   2      65.333 151.816   5.517  1.00 33.29 LIG 0.07  A 
ATOM      7  CE1 TYR B   2      64.816 152.621   4.500  1.00 33.06 LIG 0.04  A 
ATOM      8  CD1 TYR B   2      64.168 152.024   3.421  1.00 32.67 LIG 0.01  A 
BRANCH 6 9
ATOM      9 OH   TYR B   2      65.970 152.391   6.588  1.00 34.60 LIG-0.36  OA
ATOM     10 HH   TYR B   2      65.404 152.768   7.081  1.00 34.60 LIG 0.22  HD
ENDBRANCH 6 9
ENDBRANCH 2 3
ENDBRANCH 1 2
BRANCH 1 11
ATOM     11  C   TYR B   2      61.218 148.706   2.614  1.00 30.52 LIG 0.24  C 
ATOM     12  N   TYR B   3      61.925 148.050   3.529  1.00 32.89 LIG-0.35  N 
ATOM     13 H    TYR B   3      62.675 148.332   3.841  1.00 32.89 LIG 0.16  HD
ATOM     14 O    TYR B   2      60.168 148.280   2.119  1.00 30.24 LIG-0.27  OA
BRANCH 12 15
ATOM     15  CA  TYR B   3      61.492 146.779   4.096  1.00 36.06 LIG 0.17  C 
BRANCH 15 16
ATOM     16  C   TYR B   3      62.185 146.506   5.431  1.00 37.31 LIG 0.22  C 
ATOM     17 O    TYR B   3      63.215 147.111   5.739  1.00 39.71 LIG-0.29  OA
ENDBRANCH 15 16
BRANCH 15 18
ATOM     18  CB  TYR B   3      61.755 145.640   3.106  1.00 37.43 LIG 0.07  C 
BRANCH 18 19
ATOM     19  CG  TYR B   3      62.670 146.024   1.968  1.00 38.24 LIG-0.06  A 
ATOM     20  CD2 TYR B   3      64.059 146.067   2.144  1.00 38.70 LIG 0.01  A 
ATOM     21  CE2 TYR B   3      64.902 146.416   1.093  1.00 39.79 LIG 0.04  A 
ATOM     22  CZ  TYR B   3      64.356 146.730  -0.147  1.00 40.15 LIG 0.07  A 
ATOM     23  CE1 TYR B   3      62.979 146.697  -0.347  1.00 39.97 LIG 0.04  A 
ATOM     24  CD1 TYR B   3      62.147 146.345   0.706  1.00 39.23 LIG 0.01  A 
BRANCH 22 25
ATOM     25 OH   TYR B   3      65.171 147.080  -1.199  1.00 40.04 LIG-0.36  OA
ATOM     26 HH   TYR B   3      64.849 146.781  -1.914  1.00 40.04 LIG 0.22  HD
ENDBRANCH 22 25
ENDBRANCH 18 19
ENDBRANCH 15 18
ENDBRANCH 12 15
ENDBRANCH 1 11
BRANCH 1 27
ATOM     27  N   TYR B   2      61.352 151.065   3.127  1.00 25.33 LIG-0.35  N 
ATOM     28  C   TYR B   1      60.086 151.213   3.505  1.00 22.87 LIG 0.25  C 
ATOM     29 O    TYR B   1      59.181 150.440   3.175  1.00 21.86 LIG-0.27  OA
ATOM     30 H    TYR B   2      61.990 151.565   3.413  1.00 25.33 LIG 0.16  HD
BRANCH 28 31
ATOM     31  CA  TYR B   1      59.800 152.415   4.402  1.00 21.88 LIG 0.28  C 
BRANCH 31 32
ATOM     32  CB  TYR B   1      58.896 153.402   3.660  1.00 21.24 LIG 0.08  C 
BRANCH 32 33
ATOM     33  CG  TYR B   1      59.342 153.733   2.256  1.00 20.81 LIG-0.06  A 
ATOM     34  CD1 TYR B   1      58.413 154.125   1.282  1.00 20.37 LIG 0.01  A 
ATOM     35  CE1 TYR B   1      58.822 154.431  -0.012  1.00 19.95 LIG 0.04  A 
ATOM     36  CZ  TYR B   1      60.177 154.344  -0.338  1.00 20.32 LIG 0.07  A 
ATOM     37  CE2 TYR B   1      61.113 153.959   0.612  1.00 20.63 LIG 0.04  A 
ATOM     38  CD2 TYR B   1      60.694 153.655   1.899  1.00 20.57 LIG 0.01  A 
BRANCH 36 39
ATOM     39 OH   TYR B   1      60.613 154.645  -1.606  1.00 20.56 LIG-0.36  OA
ATOM     40 HH   TYR B   1      61.130 155.306  -1.576  1.00 20.56 LIG 0.22  HD
ENDBRANCH 36 39
ENDBRANCH 32 33
ENDBRANCH 31 32
BRANCH 31 41
ATOM     41  N   TYR B   1      61.056 153.093   4.846  1.00 21.11 LIG-0.07  N 
ATOM     42 H2   TYR B   1      61.441 152.614   5.490  1.00 21.11 LIG 0.28  HD
ATOM     43 H1   TYR B   1      60.862 153.905   5.156  1.00 21.11 LIG 0.28  HD
ATOM     44 H3   TYR B   1      61.615 153.165   4.157  1.00 21.11 LIG 0.28  HD
ENDBRANCH 31 41
ENDBRANCH 28 31
ENDBRANCH 1 27
TORSDOF 15
ENDMDL
MODEL 41
USER: ADFR SOLUTION from run 159
USER: SCORE 15.412464 LL:  -2.424 LR: -13.960 RR:   0.000 FEB:  -9.485
USER: RMSD 10.510786
USER: SEED 158
USER: STATUS no improvement in best in 8 clusters for 5 generations
USER: GENES 17
USER: genes 0 Translation |==|  0.57292 0.60005 0.47542
USER: genes 1 Rotation |==|  0.55549 0.48896 0.95215 0.70582
USER: genes 2 Torsion [C]-CA--CB-[CG] |==|  0.07499
USER: genes 3 Torsion [CA]-CB--CG-[CD2] |==|  0.69238
USER: genes 4 Torsion [CE2]-CZ--OH-[HH] |==|  0.58407
USER: genes 5 Torsion [N]-CA--C-[N] |==|  0.40635
USER: genes 6 Torsion [C]-N--CA-[C] |==|  0.73283
USER: genes 7 Torsion [N]-CA--C-[O] |==|  0.20487
USER: genes 8 Torsion [N]-CA--CB-[CG] |==|  0.16526
USER: genes 9 Torsion [CA]-CB--CG-[CD2] |==|  0.14908
USER: genes 10 Torsion [CE2]-CZ--OH-[HH] |==|  0.94615
USER: genes 11 Torsion [CB]-CA--N-[C] |==|  0.23889
USER: genes 12 Torsion [N]-C--CA-[N] |==|  0.69845
USER: genes 13 Torsion [C]-CA--CB-[CG] |==|  0.58136
USER: genes 14 Torsion [CA]-CB--CG-[CD1] |==|  0.84515
USER: genes 15 Torsion [CE1]-CZ--OH-[HH] |==|  0.00427
USER: genes 16 Torsion [C]-CA--N-[H1] |==|  0.51271
ROOT
ATOM      1  CA  TYR B   2      62.125 151.421   2.132  1.00 28.44 LIG 0.18  C 
ENDROOT
BRANCH 1 2
ATOM      2  CB  TYR B   2      62.960 152.022   3.270  1.00 30.17 LIG 0.07  C 
BRANCH 2 3
ATOM      3  CG  TYR B   2      63.752 151.023   4.098  1.00 31.12 LIG-0.06  A 
ATOM      4  CD2 TYR B   2      63.405 150.756   5.430  1.00 31.81 LIG 0.01  A 
ATOM      5  CE2 TYR B   2      64.124 149.836   6.190  1.00 33.15 LIG 0.04  A 
ATOM      6  CZ  TYR B   2      65.203 149.170   5.621  1.00 33.29 LIG 0.07  A 
ATOM      7  CE1 TYR B   2      65.570 149.411   4.296  1.00 33.06 LIG 0.04  A 
ATOM      8  CD1 TYR B   2      64.844 150.332   3.544  1.00 32.67 LIG 0.01  A 
BRANCH 6 9
ATOM      9 OH   TYR B   2      65.912 148.270   6.374  1.00 34.60 LIG-0.36  OA
ATOM     10 HH   TYR B   2      66.711 148.256   6.115  1.00 34.60 LIG 0.22  HD
ENDBRANCH 6 9
ENDBRANCH 2 3
ENDBRANCH 1 2
BRANCH 1 11
ATOM     11  C   TYR B   2      61.741 149.994   2.461  1.00 30.52 LIG 0.24  C 
ATOM     12  N   TYR B   3      62.568 149.060   2.002  1.00 32.89 LIG-0.35  N 
ATOM     13 H    TYR B   3      63.257 149.234   1.517  1.00 32.89 LIG 0.16  HD
ATOM     14 O    TYR B   2      60.718 149.749   3.110  1.00 30.24 LIG-0.27  OA
BRANCH 12 15
ATOM     15  CA  TYR B   3      62.386 147.642   2.279  1.00 36.06 LIG 0.17  C 
BRANCH 15 16
ATOM     16  C   TYR B   3      63.233 147.198   3.471  1.00 37.31 LIG 0.22  C 
ATOM     17 O    TYR B   3      62.916 147.515   4.620  1.00 39.71 LIG-0.29  OA
ENDBRANCH 15 16
BRANCH 15 18
ATOM     18  CB  TYR B   3      62.723 146.812   1.036  1.00 37.43 LIG 0.07  C 
BRANCH 18 19
ATOM     19  CG  TYR B   3      64.141 146.995   0.550  1.00 38.24 LIG-0.06  A 
ATOM     20  CD2 TYR B   3      65.228 146.811   1.415  1.00 38.70 LIG 0.01  A 
ATOM     21  CE2 TYR B   3      66.535 146.976   0.964  1.00 39.79 LIG 0.04  A 
ATOM     22  CZ  TYR B   3      66.763 147.330  -0.361  1.00 40.15 LIG 0.07  A 
ATOM     23  CE1 TYR B   3      65.699 147.520  -1.239  1.00 39.97 LIG 0.04  A 
ATOM     24  CD1 TYR B   3      64.400 147.351  -0.782  1.00 39.23 LIG 0.01  A 
BRANCH 22 25
ATOM     25 OH   TYR B   3      68.046 147.500  -0.826  1.00 40.04 LIG-0.36  OA
ATOM     26 HH   TYR B   3      68.565 147.623  -0.178  1.00 40.04 LIG 0.22  HD
ENDBRANCH 22 25
ENDBRANCH 18 19
ENDBRANCH 15 18
ENDBRANCH 12 15
ENDBRANCH 1 11
BRANCH 1 27
ATOM     27  N   TYR B   2      60.917 152.207   1.937  1.00 25.33 LIG-0.35  N 
ATOM     28  C   TYR B   1      60.871 153.289   1.165  1.00 22.87 LIG 0.25  C 
ATOM     29 O    TYR B   1      61.816 153.671   0.469  1.00 21.86 LIG-0.27  OA
ATOM     30 H    TYR B   2      60.236 151.906   2.368  1.00 25.33 LIG 0.16  HD
BRANCH 28 31
ATOM     31  CA  TYR B   1      59.549 154.053   1.178  1.00 21.88 LIG 0.28  C 
BRANCH 31 32
ATOM     32  CB  TYR B   1      58.697 153.579   2.358  1.00 21.24 LIG 0.08  C 
BRANCH 32 33
ATOM     33  CG  TYR B   1      57.207 153.678   2.139  1.00 20.81 LIG-0.06  A 
ATOM     34  CD1 TYR B   1      56.612 154.898   1.789  1.00 20.37 LIG 0.01  A 
ATOM     35  CE1 TYR B   1      55.239 154.991   1.586  1.00 19.95 LIG 0.04  A 
ATOM     36  CZ  TYR B   1      54.448 153.849   1.735  1.00 20.32 LIG 0.07  A 
ATOM     37  CE2 TYR B   1      55.017 152.631   2.080  1.00 20.63 LIG 0.04  A 
ATOM     38  CD2 TYR B   1      56.388 152.550   2.281  1.00 20.57 LIG 0.01  A 
BRANCH 36 39
ATOM     39 OH   TYR B   1      53.090 153.907   1.536  1.00 20.56 LIG-0.36  OA
ATOM     40 HH   TYR B   1      52.873 154.686   1.309  1.00 20.56 LIG 0.22  HD
ENDBRANCH 36 39
ENDBRANCH 32 33
ENDBRANCH 31 32
BRANCH 31 41
ATOM     41  N   TYR B   1      58.797 153.893  -0.104  1.00 21.11 LIG-0.07  N 
ATOM     42 H2   TYR B   1      59.314 154.140  -0.785  1.00 21.11 LIG 0.28  HD
ATOM     43 H1   TYR B   1      58.067 154.402  -0.086  1.00 21.11 LIG 0.28  HD
ATOM     44 H3   TYR B   1      58.561 153.040  -0.206  1.00 21.11 LIG 0.28  HD
ENDBRANCH 31 41
ENDBRANCH 28 31
ENDBRANCH 1 27
TORSDOF 15
ENDMDL
