MODEL 1
USER: ADFR SOLUTION from run 87
USER: SCORE 15.985221 LL:  -2.784 LR: -13.959 RR:   0.000 FEB:  -9.484
USER: RMSD 5.715809
USER: SEED 86
USER: STATUS 1 or 2 clusters left
USER: GENES 17
USER: genes 0 Translation |==|  0.73436 0.45416 0.44367
USER: genes 1 Rotation |==|  0.78607 0.49097 0.30028 0.85804
USER: genes 2 Torsion [N]-C--CA-[N] |==|  0.42764
USER: genes 3 Torsion [C]-CA--CB-[OG] |==|  0.25250
USER: genes 4 Torsion [CA]-CB--OG-[HG] |==|  0.86275
USER: genes 5 Torsion [C]-CA--N-[C] |==|  0.78712
USER: genes 6 Torsion [N]-C--CA-[N] |==|  0.92452
USER: genes 7 Torsion [C]-CA--N-[C] |==|  0.68889
USER: genes 8 Torsion [N]-C--CA-[N] |==|  0.47902
USER: genes 9 Torsion [C]-CA--CB-[CG] |==|  0.44181
USER: genes 10 Torsion [CA]-CB--CG-[ND2] |==|  0.75997
USER: genes 11 Torsion [C]-N--CA-[CB] |==|  0.79996
USER: genes 12 Torsion [N]-CA--C-[N] |==|  0.18209
USER: genes 13 Torsion [N]-CA--C-[N] |==|  0.82511
USER: genes 14 Torsion [C]-N--CA-[C] |==|  0.14089
USER: genes 15 Torsion [N]-CA--C-[O] |==|  0.70194
USER: genes 16 Torsion [N]-CA--CB-[CG2] |==|  0.90106
ROOT
ATOM      1  C   SER E1029      86.499  -4.374 162.551  1.00 13.48 LIG 0.24  C 
ATOM      2 O    SER E1029      85.962  -3.345 162.178  1.00 12.15 LIG-0.27  OA
ATOM      3  N   ALA E1030      86.243  -4.933 163.747  1.00 12.52 LIG-0.35  N 
ATOM      4 H    ALA E1030      86.659  -5.619 164.058  1.00 12.52 LIG 0.16  HD
ENDROOT
BRANCH 1 5
ATOM      5  CA  SER E1029      87.519  -5.075 161.685  1.00 13.36 LIG 0.20  C 
BRANCH 5 6
ATOM      6  CB  SER E1029      88.918  -4.595 162.051  1.00 14.53 LIG 0.20  C 
BRANCH 6 7
ATOM      7 OG   SER E1029      89.462  -5.446 163.067  1.00 16.05 LIG-0.40  OA
ATOM      8 HG   SER E1029      88.902  -5.536 163.687  1.00 16.05 LIG 0.21  HD
ENDBRANCH 6 7
ENDBRANCH 5 6
BRANCH 5 9
ATOM      9  N   SER E1029      87.281  -4.791 160.270  1.00 13.57 LIG-0.34  N 
ATOM     10 H    SER E1029      87.819  -4.217 159.925  1.00 13.57 LIG 0.16  HD
ATOM     11  C   ALA E1028      86.297  -5.392 159.600  1.00 13.26 LIG 0.24  C 
ATOM     12 O    ALA E1028      85.448  -6.075 160.134  1.00 11.29 LIG-0.27  OA
BRANCH 11 13
ATOM     13  CA  ALA E1028      86.281  -5.190 158.081  1.00 14.25 LIG 0.17  C 
ATOM     14  CB  ALA E1028      86.975  -6.364 157.394  1.00 14.71 LIG 0.04  C 
BRANCH 13 15
ATOM     15  N   ALA E1028      86.916  -3.918 157.727  1.00 14.53 LIG-0.35  N 
ATOM     16 H    ALA E1028      87.763  -3.890 157.874  1.00 14.53 LIG 0.16  HD
ATOM     17  C   ASN E1027      86.220  -2.913 157.226  1.00 16.30 LIG 0.26  C 
ATOM     18 O    ASN E1027      84.970  -2.975 157.078  1.00 15.77 LIG-0.27  OA
BRANCH 17 19
ATOM     19  CA  ASN E1027      87.034  -1.657 156.863  1.00 16.82 LIG 0.41  C 
ATOM     20  N   ASN E1027      86.232  -0.624 156.138  1.00 18.81 LIG 0.61  N 
BRANCH 19 21
ATOM     21  CB  ASN E1027      87.631  -0.955 158.120  1.00 15.29 LIG 0.15  C 
BRANCH 21 22
ATOM     22  CG  ASN E1027      88.819  -0.050 157.792  1.00 13.40 LIG 0.22  C 
ATOM     23 OD1  ASN E1027      88.686   1.170 157.643  1.00 12.35 LIG-0.27  OA
ATOM     24  ND2 ASN E1027      90.003  -0.652 157.757  1.00 11.10 LIG-0.37  N 
ATOM     25 22HD ASN E1027      90.056  -1.504 157.865  1.00 11.10 LIG 0.16  HD
ATOM     26 21HD ASN E1027      90.717  -0.190 157.627  1.00 11.10 LIG 0.16  HD
ENDBRANCH 21 22
ENDBRANCH 19 21
ENDBRANCH 17 19
ENDBRANCH 13 15
ENDBRANCH 11 13
ENDBRANCH 5 9
ENDBRANCH 1 5
BRANCH 3 27
ATOM     27  CA  ALA E1030      85.214  -4.400 164.622  1.00 12.56 LIG 0.17  C 
ATOM     28  CB  ALA E1030      85.719  -3.069 165.197  1.00 12.51 LIG 0.04  C 
BRANCH 27 29
ATOM     29  C   ALA E1030      83.890  -4.170 163.809  1.00 13.31 LIG 0.24  C 
ATOM     30  N   PRO E1031      83.261  -5.211 163.317  1.00 14.65 LIG-0.34  N 
ATOM     31  CD  PRO E1031      83.726  -6.608 163.349  1.00 15.56 LIG 0.13  C 
ATOM     32  CA  PRO E1031      81.921  -5.086 162.663  1.00 16.02 LIG 0.18  C 
ATOM     33  CG  PRO E1031      82.637  -7.346 162.651  1.00 15.81 LIG 0.02  C 
ATOM     34  CB  PRO E1031      81.864  -6.331 161.834  1.00 15.56 LIG 0.04  C 
ATOM     35 O    ALA E1030      83.423  -3.059 163.764  1.00 13.62 LIG-0.27  OA
BRANCH 32 36
ATOM     36  C   PRO E1031      80.752  -5.032 163.706  1.00 15.62 LIG 0.24  C 
ATOM     37  N   VAL E1032      80.620  -6.116 164.444  1.00 15.06 LIG-0.35  N 
ATOM     38 H    VAL E1032      81.180  -6.769 164.455  1.00 15.06 LIG 0.16  HD
ATOM     39 O    PRO E1031      80.007  -4.052 163.798  1.00 15.42 LIG-0.27  OA
BRANCH 37 40
ATOM     40  CA  VAL E1032      79.491  -6.277 165.305  1.00 17.90 LIG 0.17  C 
BRANCH 40 41
ATOM     41  C   VAL E1032      78.183  -6.010 164.490  1.00 17.55 LIG 0.22  C 
ATOM     42 O    VAL E1032      77.584  -4.943 164.729  1.00 19.34 LIG-0.29  OA
ENDBRANCH 40 41
BRANCH 40 43
ATOM     43  CB  VAL E1032      79.626  -5.384 166.549  1.00 18.34 LIG 0.01  C 
ATOM     44  CG2 VAL E1032      81.083  -5.293 166.991  1.00 18.91 LIG 0.01  C 
ATOM     45  CG1 VAL E1032      78.818  -5.918 167.704  1.00 20.19 LIG 0.01  C 
ENDBRANCH 40 43
ENDBRANCH 37 40
ENDBRANCH 32 36
ENDBRANCH 27 29
ENDBRANCH 3 27
TORSDOF 15
ENDMDL
MODEL 2
USER: ADFR SOLUTION from run 53
USER: SCORE 15.278685 LL:  -2.543 LR: -13.748 RR:   0.000 FEB:  -9.274
USER: RMSD 2.545909
USER: SEED 52
USER: STATUS no improvement in best in 4 clusters for 5 generations
USER: GENES 17
USER: genes 0 Translation |==|  0.38057 0.49640 0.42803
USER: genes 1 Rotation |==|  0.84863 0.60632 0.33263 0.79856
USER: genes 2 Torsion [N]-C--CA-[N] |==|  0.96667
USER: genes 3 Torsion [C]-CA--CB-[OG] |==|  0.79930
USER: genes 4 Torsion [CA]-CB--OG-[HG] |==|  0.86014
USER: genes 5 Torsion [C]-CA--N-[C] |==|  0.80025
USER: genes 6 Torsion [N]-C--CA-[N] |==|  0.31385
USER: genes 7 Torsion [C]-CA--N-[C] |==|  0.61510
USER: genes 8 Torsion [N]-C--CA-[N] |==|  0.24949
USER: genes 9 Torsion [C]-CA--CB-[CG] |==|  0.05689
USER: genes 10 Torsion [CA]-CB--CG-[ND2] |==|  0.72989
USER: genes 11 Torsion [C]-N--CA-[CB] |==|  0.53409
USER: genes 12 Torsion [N]-CA--C-[N] |==|  0.30463
USER: genes 13 Torsion [N]-CA--C-[N] |==|  0.17277
USER: genes 14 Torsion [C]-N--CA-[C] |==|  0.78684
USER: genes 15 Torsion [N]-CA--C-[O] |==|  0.18077
USER: genes 16 Torsion [N]-CA--CB-[CG2] |==|  0.27970
ROOT
ATOM      1  C   SER E1029      79.335  -3.709 162.211  1.00 13.48 LIG 0.24  C 
ATOM      2 O    SER E1029      78.521  -2.830 162.441  1.00 12.15 LIG-0.27  OA
ATOM      3  N   ALA E1030      79.466  -4.799 162.988  1.00 12.52 LIG-0.35  N 
ATOM      4 H    ALA E1030      80.076  -5.395 162.884  1.00 12.52 LIG 0.16  HD
ENDROOT
BRANCH 1 5
ATOM      5  CA  SER E1029      80.275  -3.606 161.033  1.00 13.36 LIG 0.20  C 
BRANCH 5 6
ATOM      6  CB  SER E1029      79.507  -3.849 159.740  1.00 14.53 LIG 0.20  C 
BRANCH 6 7
ATOM      7 OG   SER E1029      79.170  -5.239 159.643  1.00 16.05 LIG-0.40  OA
ATOM      8 HG   SER E1029      79.857  -5.704 159.774  1.00 16.05 LIG 0.21  HD
ENDBRANCH 6 7
ENDBRANCH 5 6
BRANCH 5 9
ATOM      9  N   SER E1029      81.346  -4.597 161.137  1.00 13.57 LIG-0.34  N 
ATOM     10 H    SER E1029      81.286  -5.248 160.578  1.00 13.57 LIG 0.16  HD
ATOM     11  C   ALA E1028      82.321  -4.471 162.037  1.00 13.26 LIG 0.24  C 
ATOM     12 O    ALA E1028      82.307  -3.639 162.920  1.00 11.29 LIG-0.27  OA
BRANCH 11 13
ATOM     13  CA  ALA E1028      83.501  -5.439 161.907  1.00 14.25 LIG 0.17  C 
ATOM     14  CB  ALA E1028      83.690  -6.204 163.216  1.00 14.71 LIG 0.04  C 
BRANCH 13 15
ATOM     15  N   ALA E1028      84.720  -4.716 161.535  1.00 14.53 LIG-0.35  N 
ATOM     16 H    ALA E1028      84.827  -3.967 161.943  1.00 14.53 LIG 0.16  HD
ATOM     17  C   ASN E1027      85.565  -5.200 160.643  1.00 16.30 LIG 0.26  C 
ATOM     18 O    ASN E1027      85.342  -6.276 160.026  1.00 15.77 LIG-0.27  OA
BRANCH 17 19
ATOM     19  CA  ASN E1027      86.822  -4.347 160.388  1.00 16.82 LIG 0.41  C 
ATOM     20  N   ASN E1027      87.964  -4.695 161.288  1.00 18.81 LIG 0.61  N 
BRANCH 19 21
ATOM     21  CB  ASN E1027      87.348  -4.488 158.928  1.00 15.29 LIG 0.15  C 
BRANCH 21 22
ATOM     22  CG  ASN E1027      86.287  -5.003 157.956  1.00 13.40 LIG 0.22  C 
ATOM     23 OD1  ASN E1027      85.498  -4.238 157.388  1.00 12.35 LIG-0.27  OA
ATOM     24  ND2 ASN E1027      86.324  -6.307 157.708  1.00 11.10 LIG-0.37  N 
ATOM     25 22HD ASN E1027      86.887  -6.808 158.122  1.00 11.10 LIG 0.16  HD
ATOM     26 21HD ASN E1027      85.785  -6.652 157.132  1.00 11.10 LIG 0.16  HD
ENDBRANCH 21 22
ENDBRANCH 19 21
ENDBRANCH 17 19
ENDBRANCH 13 15
ENDBRANCH 11 13
ENDBRANCH 5 9
ENDBRANCH 1 5
BRANCH 3 27
ATOM     27  CA  ALA E1030      78.554  -5.050 164.091  1.00 12.56 LIG 0.17  C 
ATOM     28  CB  ALA E1030      79.146  -6.176 164.952  1.00 12.51 LIG 0.04  C 
BRANCH 27 29
ATOM     29  C   ALA E1030      78.384  -3.746 164.950  1.00 13.31 LIG 0.24  C 
ATOM     30  N   PRO E1031      77.239  -3.108 164.911  1.00 14.65 LIG-0.34  N 
ATOM     31  CD  PRO E1031      76.091  -3.424 164.044  1.00 15.56 LIG 0.13  C 
ATOM     32  CA  PRO E1031      76.950  -1.949 165.812  1.00 16.02 LIG 0.18  C 
ATOM     33  CG  PRO E1031      75.088  -2.388 164.413  1.00 15.81 LIG 0.02  C 
ATOM     34  CB  PRO E1031      75.842  -1.257 165.082  1.00 15.56 LIG 0.04  C 
ATOM     35 O    ALA E1030      79.265  -3.437 165.714  1.00 13.62 LIG-0.27  OA
BRANCH 32 36
ATOM     36  C   PRO E1031      76.503  -2.405 167.244  1.00 15.62 LIG 0.24  C 
ATOM     37  N   VAL E1032      77.407  -3.094 167.911  1.00 15.06 LIG-0.35  N 
ATOM     38 H    VAL E1032      78.221  -3.204 167.656  1.00 15.06 LIG 0.16  HD
ATOM     39 O    PRO E1031      75.378  -2.152 167.686  1.00 15.42 LIG-0.27  OA
BRANCH 37 40
ATOM     40  CA  VAL E1032      77.072  -3.726 169.148  1.00 17.90 LIG 0.17  C 
BRANCH 40 41
ATOM     41  C   VAL E1032      77.018  -2.646 170.277  1.00 17.55 LIG 0.22  C 
ATOM     42 O    VAL E1032      76.128  -1.779 170.179  1.00 19.34 LIG-0.29  OA
ENDBRANCH 40 41
BRANCH 40 43
ATOM     43  CB  VAL E1032      78.047  -4.875 169.451  1.00 18.34 LIG 0.01  C 
ATOM     44  CG2 VAL E1032      79.100  -4.438 170.464  1.00 18.91 LIG 0.01  C 
ATOM     45  CG1 VAL E1032      78.760  -5.339 168.206  1.00 20.19 LIG 0.01  C 
ENDBRANCH 40 43
ENDBRANCH 37 40
ENDBRANCH 32 36
ENDBRANCH 27 29
ENDBRANCH 3 27
TORSDOF 15
ENDMDL
MODEL 3
USER: ADFR SOLUTION from run 173
USER: SCORE 14.538601 LL:  -2.908 LR: -13.307 RR:   0.000 FEB:  -8.833
USER: RMSD 5.994536
USER: SEED 172
USER: STATUS no improvement in best in 3 clusters for 5 generations
USER: GENES 17
USER: genes 0 Translation |==|  0.73819 0.45281 0.44006
USER: genes 1 Rotation |==|  0.90374 0.39922 0.28055 0.66935
USER: genes 2 Torsion [N]-C--CA-[N] |==|  0.27137
USER: genes 3 Torsion [C]-CA--CB-[OG] |==|  0.23115
USER: genes 4 Torsion [CA]-CB--OG-[HG] |==|  0.89770
USER: genes 5 Torsion [C]-CA--N-[C] |==|  0.77125
USER: genes 6 Torsion [N]-C--CA-[N] |==|  0.93889
USER: genes 7 Torsion [C]-CA--N-[C] |==|  0.70734
USER: genes 8 Torsion [N]-C--CA-[N] |==|  0.45494
USER: genes 9 Torsion [C]-CA--CB-[CG] |==|  0.44579
USER: genes 10 Torsion [CA]-CB--CG-[ND2] |==|  0.75723
USER: genes 11 Torsion [C]-N--CA-[CB] |==|  0.16507
USER: genes 12 Torsion [N]-CA--C-[N] |==|  0.44850
USER: genes 13 Torsion [N]-CA--C-[N] |==|  0.00470
USER: genes 14 Torsion [C]-N--CA-[C] |==|  0.60080
USER: genes 15 Torsion [N]-CA--C-[O] |==|  0.28845
USER: genes 16 Torsion [N]-CA--CB-[CG2] |==|  0.07673
ROOT
ATOM      1  C   SER E1029      86.576  -4.395 162.472  1.00 13.48 LIG 0.24  C 
ATOM      2 O    SER E1029      86.748  -3.230 162.787  1.00 12.15 LIG-0.27  OA
ATOM      3  N   ALA E1030      85.528  -5.118 162.907  1.00 12.52 LIG-0.35  N 
ATOM      4 H    ALA E1030      85.424  -5.957 162.754  1.00 12.52 LIG 0.16  HD
ENDROOT
BRANCH 1 5
ATOM      5  CA  SER E1029      87.564  -5.112 161.582  1.00 13.36 LIG 0.20  C 
BRANCH 5 6
ATOM      6  CB  SER E1029      88.978  -4.649 161.910  1.00 14.53 LIG 0.20  C 
BRANCH 6 7
ATOM      7 OG   SER E1029      89.471  -5.387 163.035  1.00 16.05 LIG-0.40  OA
ATOM      8 HG   SER E1029      88.845  -5.520 163.579  1.00 16.05 LIG 0.21  HD
ENDBRANCH 6 7
ENDBRANCH 5 6
BRANCH 5 9
ATOM      9  N   SER E1029      87.292  -4.830 160.174  1.00 13.57 LIG-0.34  N 
ATOM     10 H    SER E1029      87.779  -4.208 159.833  1.00 13.57 LIG 0.16  HD
ATOM     11  C   ALA E1028      86.357  -5.502 159.501  1.00 13.26 LIG 0.24  C 
ATOM     12 O    ALA E1028      85.572  -6.260 160.031  1.00 11.29 LIG-0.27  OA
BRANCH 11 13
ATOM     13  CA  ALA E1028      86.313  -5.281 157.986  1.00 14.25 LIG 0.17  C 
ATOM     14  CB  ALA E1028      86.986  -6.451 157.271  1.00 14.71 LIG 0.04  C 
BRANCH 13 15
ATOM     15  N   ALA E1028      86.949  -4.008 157.635  1.00 14.53 LIG-0.35  N 
ATOM     16 H    ALA E1028      87.807  -4.016 157.679  1.00 14.53 LIG 0.16  HD
ATOM     17  C   ASN E1027      86.236  -2.953 157.282  1.00 16.30 LIG 0.26  C 
ATOM     18 O    ASN E1027      84.976  -2.968 157.284  1.00 15.77 LIG-0.27  OA
BRANCH 17 19
ATOM     19  CA  ASN E1027      87.048  -1.701 156.901  1.00 16.82 LIG 0.41  C 
ATOM     20  N   ASN E1027      86.246  -0.683 156.155  1.00 18.81 LIG 0.61  N 
BRANCH 19 21
ATOM     21  CB  ASN E1027      87.640  -0.976 158.146  1.00 15.29 LIG 0.15  C 
BRANCH 21 22
ATOM     22  CG  ASN E1027      88.804  -0.047 157.801  1.00 13.40 LIG 0.22  C 
ATOM     23 OD1  ASN E1027      88.639   1.166 157.626  1.00 12.35 LIG-0.27  OA
ATOM     24  ND2 ASN E1027      90.003  -0.618 157.781  1.00 11.10 LIG-0.37  N 
ATOM     25 22HD ASN E1027      90.079  -1.465 157.907  1.00 11.10 LIG 0.16  HD
ATOM     26 21HD ASN E1027      90.705  -0.140 157.642  1.00 11.10 LIG 0.16  HD
ENDBRANCH 21 22
ENDBRANCH 19 21
ENDBRANCH 17 19
ENDBRANCH 13 15
ENDBRANCH 11 13
ENDBRANCH 5 9
ENDBRANCH 1 5
BRANCH 3 27
ATOM     27  CA  ALA E1030      84.467  -4.508 163.689  1.00 12.56 LIG 0.17  C 
ATOM     28  CB  ALA E1030      83.842  -3.383 162.851  1.00 12.51 LIG 0.04  C 
BRANCH 27 29
ATOM     29  C   ALA E1030      83.379  -5.584 164.043  1.00 13.31 LIG 0.24  C 
ATOM     30  N   PRO E1031      82.548  -5.342 165.028  1.00 14.65 LIG-0.34  N 
ATOM     31  CD  PRO E1031      82.585  -4.186 165.940  1.00 15.56 LIG 0.13  C 
ATOM     32  CA  PRO E1031      81.394  -6.247 165.327  1.00 16.02 LIG 0.18  C 
ATOM     33  CG  PRO E1031      81.429  -4.429 166.847  1.00 15.81 LIG 0.02  C 
ATOM     34  CB  PRO E1031      81.090  -5.902 166.751  1.00 15.56 LIG 0.04  C 
ATOM     35 O    ALA E1030      83.260  -6.545 163.324  1.00 13.62 LIG-0.27  OA
BRANCH 32 36
ATOM     36  C   PRO E1031      80.166  -5.975 164.391  1.00 15.62 LIG 0.24  C 
ATOM     37  N   VAL E1032      80.359  -5.036 163.487  1.00 15.06 LIG-0.35  N 
ATOM     38 H    VAL E1032      81.117  -4.665 163.324  1.00 15.06 LIG 0.16  HD
ATOM     39 O    PRO E1031      79.100  -6.585 164.522  1.00 15.42 LIG-0.27  OA
BRANCH 37 40
ATOM     40  CA  VAL E1032      79.272  -4.560 162.691  1.00 17.90 LIG 0.17  C 
BRANCH 40 41
ATOM     41  C   VAL E1032      79.790  -4.251 161.248  1.00 17.55 LIG 0.22  C 
ATOM     42 O    VAL E1032      79.504  -5.079 160.363  1.00 19.34 LIG-0.29  OA
ENDBRANCH 40 41
BRANCH 40 43
ATOM     43  CB  VAL E1032      78.593  -3.357 163.365  1.00 18.34 LIG 0.01  C 
ATOM     44  CG2 VAL E1032      79.582  -2.603 164.247  1.00 18.91 LIG 0.01  C 
ATOM     45  CG1 VAL E1032      77.432  -3.787 164.225  1.00 20.19 LIG 0.01  C 
ENDBRANCH 40 43
ENDBRANCH 37 40
ENDBRANCH 32 36
ENDBRANCH 27 29
ENDBRANCH 3 27
TORSDOF 15
ENDMDL
MODEL 4
USER: ADFR SOLUTION from run 168
USER: SCORE 14.814409 LL:  -2.503 LR: -13.225 RR:   0.000 FEB:  -8.750
USER: RMSD 6.982119
USER: SEED 167
USER: STATUS no improvement in best in 6 clusters for 5 generations
USER: GENES 17
USER: genes 0 Translation |==|  0.52668 0.44224 0.39700
USER: genes 1 Rotation |==|  0.95215 0.33207 0.41552 0.60113
USER: genes 2 Torsion [N]-C--CA-[N] |==|  0.37282
USER: genes 3 Torsion [C]-CA--CB-[OG] |==|  0.22839
USER: genes 4 Torsion [CA]-CB--OG-[HG] |==|  0.24967
USER: genes 5 Torsion [C]-CA--N-[C] |==|  0.58551
USER: genes 6 Torsion [N]-C--CA-[N] |==|  0.86667
USER: genes 7 Torsion [C]-CA--N-[C] |==|  0.80526
USER: genes 8 Torsion [N]-C--CA-[N] |==|  0.90615
USER: genes 9 Torsion [C]-CA--CB-[CG] |==|  0.81794
USER: genes 10 Torsion [CA]-CB--CG-[ND2] |==|  0.25413
USER: genes 11 Torsion [C]-N--CA-[CB] |==|  0.82529
USER: genes 12 Torsion [N]-CA--C-[N] |==|  0.24969
USER: genes 13 Torsion [N]-CA--C-[N] |==|  0.68491
USER: genes 14 Torsion [C]-N--CA-[C] |==|  0.82075
USER: genes 15 Torsion [N]-CA--C-[O] |==|  0.43334
USER: genes 16 Torsion [N]-CA--CB-[CG2] |==|  0.61485
ROOT
ATOM      1  C   SER E1029      82.293  -4.562 161.536  1.00 13.48 LIG 0.24  C 
ATOM      2 O    SER E1029      82.330  -3.434 161.997  1.00 12.15 LIG-0.27  OA
ATOM      3  N   ALA E1030      81.147  -5.152 161.151  1.00 12.52 LIG-0.35  N 
ATOM      4 H    ALA E1030      81.089  -5.969 160.888  1.00 12.52 LIG 0.16  HD
ENDROOT
BRANCH 1 5
ATOM      5  CA  SER E1029      83.553  -5.383 161.394  1.00 13.36 LIG 0.20  C 
BRANCH 5 6
ATOM      6  CB  SER E1029      84.014  -5.856 162.768  1.00 14.53 LIG 0.20  C 
BRANCH 6 7
ATOM      7 OG   SER E1029      83.276  -7.027 163.139  1.00 16.05 LIG-0.40  OA
ATOM      8 HG   SER E1029      83.682  -7.711 162.869  1.00 16.05 LIG 0.21  HD
ENDBRANCH 6 7
ENDBRANCH 5 6
BRANCH 5 9
ATOM      9  N   SER E1029      84.623  -4.592 160.787  1.00 13.57 LIG-0.34  N 
ATOM     10 H    SER E1029      84.590  -3.751 160.963  1.00 13.57 LIG 0.16  HD
ATOM     11  C   ALA E1028      85.558  -5.161 160.026  1.00 13.26 LIG 0.24  C 
ATOM     12 O    ALA E1028      85.503  -6.314 159.656  1.00 11.29 LIG-0.27  OA
BRANCH 11 13
ATOM     13  CA  ALA E1028      86.747  -4.279 159.630  1.00 14.25 LIG 0.17  C 
ATOM     14  CB  ALA E1028      87.683  -4.103 160.824  1.00 14.71 LIG 0.04  C 
BRANCH 13 15
ATOM     15  N   ALA E1028      86.280  -2.985 159.127  1.00 14.53 LIG-0.35  N 
ATOM     16 H    ALA E1028      86.443  -2.321 159.649  1.00 14.53 LIG 0.16  HD
ATOM     17  C   ASN E1027      85.662  -2.876 157.965  1.00 16.30 LIG 0.26  C 
ATOM     18 O    ASN E1027      85.392  -3.883 157.255  1.00 15.77 LIG-0.27  OA
BRANCH 17 19
ATOM     19  CA  ASN E1027      85.269  -1.446 157.552  1.00 16.82 LIG 0.41  C 
ATOM     20  N   ASN E1027      84.897  -0.578 158.712  1.00 18.81 LIG 0.61  N 
BRANCH 19 21
ATOM     21  CB  ASN E1027      86.417  -0.710 156.797  1.00 15.29 LIG 0.15  C 
BRANCH 21 22
ATOM     22  CG  ASN E1027      87.643  -0.455 157.672  1.00 13.40 LIG 0.22  C 
ATOM     23 OD1  ASN E1027      87.721   0.534 158.411  1.00 12.35 LIG-0.27  OA
ATOM     24  ND2 ASN E1027      88.574  -1.402 157.643  1.00 11.10 LIG-0.37  N 
ATOM     25 22HD ASN E1027      88.485  -2.076 157.116  1.00 11.10 LIG 0.16  HD
ATOM     26 21HD ASN E1027      89.265  -1.342 158.151  1.00 11.10 LIG 0.16  HD
ENDBRANCH 21 22
ENDBRANCH 19 21
ENDBRANCH 17 19
ENDBRANCH 13 15
ENDBRANCH 11 13
ENDBRANCH 5 9
ENDBRANCH 1 5
BRANCH 3 27
ATOM     27  CA  ALA E1030      79.889  -4.425 161.153  1.00 12.56 LIG 0.17  C 
ATOM     28  CB  ALA E1030      79.574  -4.022 162.601  1.00 12.51 LIG 0.04  C 
BRANCH 27 29
ATOM     29  C   ALA E1030      80.012  -3.145 160.252  1.00 13.31 LIG 0.24  C 
ATOM     30  N   PRO E1031      79.710  -3.238 158.979  1.00 14.65 LIG-0.34  N 
ATOM     31  CD  PRO E1031      79.361  -4.469 158.250  1.00 15.56 LIG 0.13  C 
ATOM     32  CA  PRO E1031      79.657  -2.034 158.090  1.00 16.02 LIG 0.18  C 
ATOM     33  CG  PRO E1031      79.126  -3.990 156.860  1.00 15.81 LIG 0.02  C 
ATOM     34  CB  PRO E1031      79.810  -2.644 156.732  1.00 15.56 LIG 0.04  C 
ATOM     35 O    ALA E1030      80.260  -2.088 160.776  1.00 13.62 LIG-0.27  OA
BRANCH 32 36
ATOM     36  C   PRO E1031      78.303  -1.255 158.225  1.00 15.62 LIG 0.24  C 
ATOM     37  N   VAL E1032      77.545  -1.276 157.148  1.00 15.06 LIG-0.35  N 
ATOM     38 H    VAL E1032      77.698  -1.760 156.453  1.00 15.06 LIG 0.16  HD
ATOM     39 O    PRO E1031      78.000  -0.652 159.258  1.00 15.42 LIG-0.27  OA
BRANCH 37 40
ATOM     40  CA  VAL E1032      76.374  -0.460 157.066  1.00 17.90 LIG 0.17  C 
BRANCH 40 41
ATOM     41  C   VAL E1032      75.347  -0.929 158.148  1.00 17.55 LIG 0.22  C 
ATOM     42 O    VAL E1032      74.511  -0.086 158.526  1.00 19.34 LIG-0.29  OA
ENDBRANCH 40 41
BRANCH 40 43
ATOM     43  CB  VAL E1032      75.804  -0.472 155.639  1.00 18.34 LIG 0.01  C 
ATOM     44  CG2 VAL E1032      75.349   0.925 155.228  1.00 18.91 LIG 0.01  C 
ATOM     45  CG1 VAL E1032      74.623  -1.402 155.521  1.00 20.19 LIG 0.01  C 
ENDBRANCH 40 43
ENDBRANCH 37 40
ENDBRANCH 32 36
ENDBRANCH 27 29
ENDBRANCH 3 27
TORSDOF 15
ENDMDL
MODEL 5
USER: ADFR SOLUTION from run 59
USER: SCORE 15.475554 LL:  -2.904 LR: -13.158 RR:   0.000 FEB:  -8.684
USER: RMSD 6.417376
USER: SEED 58
USER: STATUS no improvement in best in 4 clusters for 5 generations
USER: GENES 17
USER: genes 0 Translation |==|  0.69446 0.43959 0.43285
USER: genes 1 Rotation |==|  0.82244 0.49247 0.37007 0.85929
USER: genes 2 Torsion [N]-C--CA-[N] |==|  0.40590
USER: genes 3 Torsion [C]-CA--CB-[OG] |==|  0.31208
USER: genes 4 Torsion [CA]-CB--OG-[HG] |==|  0.88832
USER: genes 5 Torsion [C]-CA--N-[C] |==|  0.82222
USER: genes 6 Torsion [N]-C--CA-[N] |==|  0.93410
USER: genes 7 Torsion [C]-CA--N-[C] |==|  0.72456
USER: genes 8 Torsion [N]-C--CA-[N] |==|  0.45634
USER: genes 9 Torsion [C]-CA--CB-[CG] |==|  0.44886
USER: genes 10 Torsion [CA]-CB--CG-[ND2] |==|  0.76435
USER: genes 11 Torsion [C]-N--CA-[CB] |==|  0.85979
USER: genes 12 Torsion [N]-CA--C-[N] |==|  0.46003
USER: genes 13 Torsion [N]-CA--C-[N] |==|  0.26226
USER: genes 14 Torsion [C]-N--CA-[C] |==|  0.63887
USER: genes 15 Torsion [N]-CA--C-[O] |==|  0.04064
USER: genes 16 Torsion [N]-CA--CB-[CG2] |==|  0.93266
ROOT
ATOM      1  C   SER E1029      85.691  -4.603 162.315  1.00 13.48 LIG 0.24  C 
ATOM      2 O    SER E1029      85.031  -3.661 161.911  1.00 12.15 LIG-0.27  OA
ATOM      3  N   ALA E1030      85.328  -5.341 163.380  1.00 12.52 LIG-0.35  N 
ATOM      4 H    ALA E1030      85.811  -5.964 163.723  1.00 12.52 LIG 0.16  HD
ENDROOT
BRANCH 1 5
ATOM      5  CA  SER E1029      86.991  -4.983 161.646  1.00 13.36 LIG 0.20  C 
BRANCH 5 6
ATOM      6  CB  SER E1029      88.126  -4.143 162.217  1.00 14.53 LIG 0.20  C 
BRANCH 6 7
ATOM      7 OG   SER E1029      89.012  -4.986 162.964  1.00 16.05 LIG-0.40  OA
ATOM      8 HG   SER E1029      88.564  -5.545 163.403  1.00 16.05 LIG 0.21  HD
ENDBRANCH 6 7
ENDBRANCH 5 6
BRANCH 5 9
ATOM      9  N   SER E1029      86.917  -4.755 160.204  1.00 13.57 LIG-0.34  N 
ATOM     10 H    SER E1029      87.459  -4.156 159.908  1.00 13.57 LIG 0.16  HD
ATOM     11  C   ALA E1028      86.065  -5.437 159.437  1.00 13.26 LIG 0.24  C 
ATOM     12 O    ALA E1028      85.199  -6.158 159.885  1.00 11.29 LIG-0.27  OA
BRANCH 11 13
ATOM     13  CA  ALA E1028      86.230  -5.277 157.923  1.00 14.25 LIG 0.17  C 
ATOM     14  CB  ALA E1028      87.003  -6.467 157.357  1.00 14.71 LIG 0.04  C 
BRANCH 13 15
ATOM     15  N   ALA E1028      86.901  -4.013 157.610  1.00 14.53 LIG-0.35  N 
ATOM     16 H    ALA E1028      87.756  -4.034 157.693  1.00 14.53 LIG 0.16  HD
ATOM     17  C   ASN E1027      86.222  -2.944 157.234  1.00 16.30 LIG 0.26  C 
ATOM     18 O    ASN E1027      84.962  -2.938 157.178  1.00 15.77 LIG-0.27  OA
BRANCH 17 19
ATOM     19  CA  ASN E1027      87.068  -1.702 156.899  1.00 16.82 LIG 0.41  C 
ATOM     20  N   ASN E1027      86.313  -0.661 156.136  1.00 18.81 LIG 0.61  N 
BRANCH 19 21
ATOM     21  CB  ASN E1027      87.625  -1.002 158.175  1.00 15.29 LIG 0.15  C 
BRANCH 21 22
ATOM     22  CG  ASN E1027      88.800  -0.070 157.882  1.00 13.40 LIG 0.22  C 
ATOM     23 OD1  ASN E1027      88.650   1.153 157.772  1.00 12.35 LIG-0.27  OA
ATOM     24  ND2 ASN E1027      89.993  -0.652 157.834  1.00 11.10 LIG-0.37  N 
ATOM     25 22HD ASN E1027      90.059  -1.506 157.915  1.00 11.10 LIG 0.16  HD
ATOM     26 21HD ASN E1027      90.701  -0.175 157.722  1.00 11.10 LIG 0.16  HD
ENDBRANCH 21 22
ENDBRANCH 19 21
ENDBRANCH 17 19
ENDBRANCH 13 15
ENDBRANCH 11 13
ENDBRANCH 5 9
ENDBRANCH 1 5
BRANCH 3 27
ATOM     27  CA  ALA E1030      84.053  -5.127 164.044  1.00 12.56 LIG 0.17  C 
ATOM     28  CB  ALA E1030      83.917  -3.627 164.344  1.00 12.51 LIG 0.04  C 
BRANCH 27 29
ATOM     29  C   ALA E1030      82.881  -5.599 163.111  1.00 13.31 LIG 0.24  C 
ATOM     30  N   PRO E1031      81.686  -5.756 163.628  1.00 14.65 LIG-0.34  N 
ATOM     31  CD  PRO E1031      81.327  -5.639 165.051  1.00 15.56 LIG 0.13  C 
ATOM     32  CA  PRO E1031      80.491  -6.056 162.778  1.00 16.02 LIG 0.18  C 
ATOM     33  CG  PRO E1031      79.864  -5.919 165.059  1.00 15.81 LIG 0.02  C 
ATOM     34  CB  PRO E1031      79.544  -6.650 163.772  1.00 15.56 LIG 0.04  C 
ATOM     35 O    ALA E1030      83.083  -5.685 161.925  1.00 13.62 LIG-0.27  OA
BRANCH 32 36
ATOM     36  C   PRO E1031      79.896  -4.767 162.112  1.00 15.62 LIG 0.24  C 
ATOM     37  N   VAL E1032      80.333  -4.524 160.893  1.00 15.06 LIG-0.35  N 
ATOM     38 H    VAL E1032      80.816  -5.066 160.431  1.00 15.06 LIG 0.16  HD
ATOM     39 O    PRO E1031      79.101  -4.035 162.708  1.00 15.42 LIG-0.27  OA
BRANCH 37 40
ATOM     40  CA  VAL E1032      80.017  -3.293 160.239  1.00 17.90 LIG 0.17  C 
BRANCH 40 41
ATOM     41  C   VAL E1032      79.457  -3.600 158.811  1.00 17.55 LIG 0.22  C 
ATOM     42 O    VAL E1032      79.115  -4.777 158.587  1.00 19.34 LIG-0.29  OA
ENDBRANCH 40 41
BRANCH 40 43
ATOM     43  CB  VAL E1032      81.236  -2.357 160.227  1.00 18.34 LIG 0.01  C 
ATOM     44  CG2 VAL E1032      82.190  -2.699 161.368  1.00 18.91 LIG 0.01  C 
ATOM     45  CG1 VAL E1032      80.828  -0.914 160.375  1.00 20.19 LIG 0.01  C 
ENDBRANCH 40 43
ENDBRANCH 37 40
ENDBRANCH 32 36
ENDBRANCH 27 29
ENDBRANCH 3 27
TORSDOF 15
ENDMDL
MODEL 6
USER: ADFR SOLUTION from run 27
USER: SCORE 14.654254 LL:  -3.196 LR: -13.126 RR:   0.000 FEB:  -8.651
USER: RMSD 1.711518
USER: SEED 26
USER: STATUS no improvement in best in 9 clusters for 5 generations
USER: GENES 17
USER: genes 0 Translation |==|  0.44394 0.34899 0.44746
USER: genes 1 Rotation |==|  0.49848 0.48806 0.51648 0.99958
USER: genes 2 Torsion [N]-C--CA-[N] |==|  0.86822
USER: genes 3 Torsion [C]-CA--CB-[OG] |==|  0.75216
USER: genes 4 Torsion [CA]-CB--OG-[HG] |==|  0.58661
USER: genes 5 Torsion [C]-CA--N-[C] |==|  0.83694
USER: genes 6 Torsion [N]-C--CA-[N] |==|  0.26889
USER: genes 7 Torsion [C]-CA--N-[C] |==|  0.81499
USER: genes 8 Torsion [N]-C--CA-[N] |==|  0.40391
USER: genes 9 Torsion [C]-CA--CB-[CG] |==|  0.76351
USER: genes 10 Torsion [CA]-CB--CG-[ND2] |==|  0.12089
USER: genes 11 Torsion [C]-N--CA-[CB] |==|  0.23047
USER: genes 12 Torsion [N]-CA--C-[N] |==|  0.44152
USER: genes 13 Torsion [N]-CA--C-[N] |==|  0.16949
USER: genes 14 Torsion [C]-N--CA-[C] |==|  0.78538
USER: genes 15 Torsion [N]-CA--C-[O] |==|  0.27242
USER: genes 16 Torsion [N]-CA--CB-[CG2] |==|  0.82825
ROOT
ATOM      1  C   SER E1029      80.618  -6.030 162.633  1.00 13.48 LIG 0.24  C 
ATOM      2 O    SER E1029      79.878  -6.666 161.902  1.00 12.15 LIG-0.27  OA
ATOM      3  N   ALA E1030      80.158  -5.209 163.595  1.00 12.52 LIG-0.35  N 
ATOM      4 H    ALA E1030      80.659  -4.701 164.075  1.00 12.52 LIG 0.16  HD
ENDROOT
BRANCH 1 5
ATOM      5  CA  SER E1029      82.118  -6.111 162.478  1.00 13.36 LIG 0.20  C 
BRANCH 5 6
ATOM      6  CB  SER E1029      82.713  -6.888 163.646  1.00 14.53 LIG 0.20  C 
BRANCH 6 7
ATOM      7 OG   SER E1029      83.015  -5.982 164.715  1.00 16.05 LIG-0.40  OA
ATOM      8 HG   SER E1029      83.680  -6.265 165.143  1.00 16.05 LIG 0.21  HD
ENDBRANCH 6 7
ENDBRANCH 5 6
BRANCH 5 9
ATOM      9  N   SER E1029      82.710  -4.774 162.455  1.00 13.57 LIG-0.34  N 
ATOM     10 H    SER E1029      83.291  -4.629 163.071  1.00 13.57 LIG 0.16  HD
ATOM     11  C   ALA E1028      82.353  -3.875 161.536  1.00 13.26 LIG 0.24  C 
ATOM     12 O    ALA E1028      81.422  -4.036 160.776  1.00 11.29 LIG-0.27  OA
BRANCH 11 13
ATOM     13  CA  ALA E1028      83.192  -2.596 161.470  1.00 14.25 LIG 0.17  C 
ATOM     14  CB  ALA E1028      82.284  -1.391 161.232  1.00 14.71 LIG 0.04  C 
BRANCH 13 15
ATOM     15  N   ALA E1028      84.211  -2.705 160.423  1.00 14.53 LIG-0.35  N 
ATOM     16 H    ALA E1028      84.100  -2.169 159.760  1.00 14.53 LIG 0.16  HD
ATOM     17  C   ASN E1027      85.209  -3.566 160.516  1.00 16.30 LIG 0.26  C 
ATOM     18 O    ASN E1027      85.306  -4.374 161.479  1.00 15.77 LIG-0.27  OA
BRANCH 17 19
ATOM     19  CA  ASN E1027      86.224  -3.534 159.358  1.00 16.82 LIG 0.41  C 
ATOM     20  N   ASN E1027      87.625  -3.819 159.795  1.00 18.81 LIG 0.61  N 
BRANCH 19 21
ATOM     21  CB  ASN E1027      85.886  -4.571 158.245  1.00 15.29 LIG 0.15  C 
BRANCH 21 22
ATOM     22  CG  ASN E1027      86.440  -5.965 158.536  1.00 13.40 LIG 0.22  C 
ATOM     23 OD1  ASN E1027      87.051  -6.615 157.680  1.00 12.35 LIG-0.27  OA
ATOM     24  ND2 ASN E1027      86.287  -6.391 159.785  1.00 11.10 LIG-0.37  N 
ATOM     25 22HD ASN E1027      85.855  -5.912 160.354  1.00 11.10 LIG 0.16  HD
ATOM     26 21HD ASN E1027      86.621  -7.147 160.026  1.00 11.10 LIG 0.16  HD
ENDBRANCH 21 22
ENDBRANCH 19 21
ENDBRANCH 17 19
ENDBRANCH 13 15
ENDBRANCH 11 13
ENDBRANCH 5 9
ENDBRANCH 1 5
BRANCH 3 27
ATOM     27  CA  ALA E1030      78.740  -5.124 163.897  1.00 12.56 LIG 0.17  C 
ATOM     28  CB  ALA E1030      78.384  -6.279 164.844  1.00 12.51 LIG 0.04  C 
BRANCH 27 29
ATOM     29  C   ALA E1030      78.422  -3.747 164.581  1.00 13.31 LIG 0.24  C 
ATOM     30  N   PRO E1031      77.191  -3.297 164.555  1.00 14.65 LIG-0.34  N 
ATOM     31  CD  PRO E1031      76.054  -3.903 163.841  1.00 15.56 LIG 0.13  C 
ATOM     32  CA  PRO E1031      76.781  -2.072 165.312  1.00 16.02 LIG 0.18  C 
ATOM     33  CG  PRO E1031      74.926  -2.982 164.151  1.00 15.81 LIG 0.02  C 
ATOM     34  CB  PRO E1031      75.533  -1.666 164.593  1.00 15.56 LIG 0.04  C 
ATOM     35 O    ALA E1030      79.291  -3.202 165.217  1.00 13.62 LIG-0.27  OA
BRANCH 32 36
ATOM     36  C   PRO E1031      76.506  -2.372 166.825  1.00 15.62 LIG 0.24  C 
ATOM     37  N   VAL E1032      77.541  -2.838 167.493  1.00 15.06 LIG-0.35  N 
ATOM     38 H    VAL E1032      78.343  -2.878 167.183  1.00 15.06 LIG 0.16  HD
ATOM     39 O    PRO E1031      75.391  -2.204 167.329  1.00 15.42 LIG-0.27  OA
BRANCH 37 40
ATOM     40  CA  VAL E1032      77.387  -3.324 168.828  1.00 17.90 LIG 0.17  C 
BRANCH 40 41
ATOM     41  C   VAL E1032      77.277  -2.109 169.807  1.00 17.55 LIG 0.22  C 
ATOM     42 O    VAL E1032      76.128  -1.771 170.151  1.00 19.34 LIG-0.29  OA
ENDBRANCH 40 41
BRANCH 40 43
ATOM     43  CB  VAL E1032      78.523  -4.294 169.187  1.00 18.34 LIG 0.01  C 
ATOM     44  CG2 VAL E1032      78.502  -5.513 168.270  1.00 18.91 LIG 0.01  C 
ATOM     45  CG1 VAL E1032      78.412  -4.777 170.610  1.00 20.19 LIG 0.01  C 
ENDBRANCH 40 43
ENDBRANCH 37 40
ENDBRANCH 32 36
ENDBRANCH 27 29
ENDBRANCH 3 27
TORSDOF 15
ENDMDL
MODEL 7
USER: ADFR SOLUTION from run 141
USER: SCORE 14.681866 LL:  -2.518 LR: -13.079 RR:   0.000 FEB:  -8.604
USER: RMSD 4.298282
USER: SEED 140
USER: STATUS no improvement in best in 6 clusters for 5 generations
USER: GENES 17
USER: genes 0 Translation |==|  0.54584 0.45016 0.41728
USER: genes 1 Rotation |==|  0.80696 0.40011 0.45138 0.87872
USER: genes 2 Torsion [N]-C--CA-[N] |==|  0.48325
USER: genes 3 Torsion [C]-CA--CB-[OG] |==|  0.42837
USER: genes 4 Torsion [CA]-CB--OG-[HG] |==|  0.97933
USER: genes 5 Torsion [C]-CA--N-[C] |==|  0.66869
USER: genes 6 Torsion [N]-C--CA-[N] |==|  0.24128
USER: genes 7 Torsion [C]-CA--N-[C] |==|  0.81014
USER: genes 8 Torsion [N]-C--CA-[N] |==|  0.30309
USER: genes 9 Torsion [C]-CA--CB-[CG] |==|  0.20879
USER: genes 10 Torsion [CA]-CB--CG-[ND2] |==|  0.79448
USER: genes 11 Torsion [C]-N--CA-[CB] |==|  0.16320
USER: genes 12 Torsion [N]-CA--C-[N] |==|  0.15413
USER: genes 13 Torsion [N]-CA--C-[N] |==|  0.65816
USER: genes 14 Torsion [C]-N--CA-[C] |==|  0.78402
USER: genes 15 Torsion [N]-CA--C-[O] |==|  0.38108
USER: genes 16 Torsion [N]-CA--CB-[CG2] |==|  0.35566
ROOT
ATOM      1  C   SER E1029      82.681  -4.437 161.977  1.00 13.48 LIG 0.24  C 
ATOM      2 O    SER E1029      82.299  -3.627 161.150  1.00 12.15 LIG-0.27  OA
ATOM      3  N   ALA E1030      81.860  -4.984 162.891  1.00 12.52 LIG-0.35  N 
ATOM      4 H    ALA E1030      82.121  -5.503 163.525  1.00 12.52 LIG 0.16  HD
ENDROOT
BRANCH 1 5
ATOM      5  CA  SER E1029      84.131  -4.857 162.038  1.00 13.36 LIG 0.20  C 
BRANCH 5 6
ATOM      6  CB  SER E1029      84.756  -4.353 163.333  1.00 14.53 LIG 0.20  C 
BRANCH 6 7
ATOM      7 OG   SER E1029      85.857  -5.199 163.690  1.00 16.05 LIG-0.40  OA
ATOM      8 HG   SER E1029      85.880  -5.862 163.175  1.00 16.05 LIG 0.21  HD
ENDBRANCH 6 7
ENDBRANCH 5 6
BRANCH 5 9
ATOM      9  N   SER E1029      84.879  -4.305 160.910  1.00 13.57 LIG-0.34  N 
ATOM     10 H    SER E1029      84.889  -3.446 160.874  1.00 13.57 LIG 0.16  HD
ATOM     11  C   ALA E1028      85.485  -5.099 160.026  1.00 13.26 LIG 0.24  C 
ATOM     12 O    ALA E1028      85.331  -6.301 159.997  1.00 11.29 LIG-0.27  OA
BRANCH 11 13
ATOM     13  CA  ALA E1028      86.419  -4.416 159.022  1.00 14.25 LIG 0.17  C 
ATOM     14  CB  ALA E1028      86.440  -5.205 157.714  1.00 14.71 LIG 0.04  C 
BRANCH 13 15
ATOM     15  N   ALA E1028      87.766  -4.283 159.582  1.00 14.53 LIG-0.35  N 
ATOM     16 H    ALA E1028      88.361  -4.773 159.200  1.00 14.53 LIG 0.16  HD
ATOM     17  C   ASN E1027      88.018  -3.470 160.593  1.00 16.30 LIG 0.26  C 
ATOM     18 O    ASN E1027      87.106  -2.811 161.163  1.00 15.77 LIG-0.27  OA
BRANCH 17 19
ATOM     19  CA  ASN E1027      89.489  -3.406 161.044  1.00 16.82 LIG 0.41  C 
ATOM     20  N   ASN E1027      90.156  -2.113 160.701  1.00 18.81 LIG 0.61  N 
BRANCH 19 21
ATOM     21  CB  ASN E1027      89.645  -3.592 162.584  1.00 15.29 LIG 0.15  C 
BRANCH 21 22
ATOM     22  CG  ASN E1027      89.460  -5.041 163.034  1.00 13.40 LIG 0.22  C 
ATOM     23 OD1  ASN E1027      90.407  -5.721 163.445  1.00 12.35 LIG-0.27  OA
ATOM     24  ND2 ASN E1027      88.209  -5.486 163.026  1.00 11.10 LIG-0.37  N 
ATOM     25 22HD ASN E1027      87.575  -4.984 162.732  1.00 11.10 LIG 0.16  HD
ATOM     26 21HD ASN E1027      88.031  -6.277 163.315  1.00 11.10 LIG 0.16  HD
ENDBRANCH 21 22
ENDBRANCH 19 21
ENDBRANCH 17 19
ENDBRANCH 13 15
ENDBRANCH 11 13
ENDBRANCH 5 9
ENDBRANCH 1 5
BRANCH 3 27
ATOM     27  CA  ALA E1030      80.430  -4.726 162.868  1.00 12.56 LIG 0.17  C 
ATOM     28  CB  ALA E1030      79.884  -5.191 161.509  1.00 12.51 LIG 0.04  C 
BRANCH 27 29
ATOM     29  C   ALA E1030      79.728  -5.515 164.030  1.00 13.31 LIG 0.24  C 
ATOM     30  N   PRO E1031      80.145  -5.332 165.260  1.00 14.65 LIG-0.34  N 
ATOM     31  CD  PRO E1031      81.304  -4.527 165.679  1.00 15.56 LIG 0.13  C 
ATOM     32  CA  PRO E1031      79.431  -5.929 166.433  1.00 16.02 LIG 0.18  C 
ATOM     33  CG  PRO E1031      81.309  -4.679 167.160  1.00 15.81 LIG 0.02  C 
ATOM     34  CB  PRO E1031      80.497  -5.916 167.483  1.00 15.56 LIG 0.04  C 
ATOM     35 O    ALA E1030      78.748  -6.170 163.776  1.00 13.62 LIG-0.27  OA
BRANCH 32 36
ATOM     36  C   PRO E1031      78.184  -5.084 166.864  1.00 15.62 LIG 0.24  C 
ATOM     37  N   VAL E1032      78.198  -4.678 168.117  1.00 15.06 LIG-0.35  N 
ATOM     38 H    VAL E1032      78.872  -4.757 168.647  1.00 15.06 LIG 0.16  HD
ATOM     39 O    PRO E1031      77.257  -4.848 166.084  1.00 15.42 LIG-0.27  OA
BRANCH 37 40
ATOM     40  CA  VAL E1032      77.048  -4.057 168.694  1.00 17.90 LIG 0.17  C 
BRANCH 40 41
ATOM     41  C   VAL E1032      76.967  -2.574 168.206  1.00 17.55 LIG 0.22  C 
ATOM     42 O    VAL E1032      75.840  -2.156 167.876  1.00 19.34 LIG-0.29  OA
ENDBRANCH 40 41
BRANCH 40 43
ATOM     43  CB  VAL E1032      77.068  -4.195 170.225  1.00 18.34 LIG 0.01  C 
ATOM     44  CG2 VAL E1032      76.878  -2.836 170.892  1.00 18.91 LIG 0.01  C 
ATOM     45  CG1 VAL E1032      78.371  -4.777 170.712  1.00 20.19 LIG 0.01  C 
ENDBRANCH 40 43
ENDBRANCH 37 40
ENDBRANCH 32 36
ENDBRANCH 27 29
ENDBRANCH 3 27
TORSDOF 15
ENDMDL
MODEL 8
USER: ADFR SOLUTION from run 115
USER: SCORE 14.561158 LL:  -2.874 LR: -13.058 RR:   0.000 FEB:  -8.584
USER: RMSD 7.421856
USER: SEED 114
USER: STATUS no improvement in best in 6 clusters for 5 generations
USER: GENES 17
USER: genes 0 Translation |==|  0.53249 0.47098 0.40794
USER: genes 1 Rotation |==|  0.97608 0.36843 0.45853 0.56568
USER: genes 2 Torsion [N]-C--CA-[N] |==|  0.24877
USER: genes 3 Torsion [C]-CA--CB-[OG] |==|  0.43844
USER: genes 4 Torsion [CA]-CB--OG-[HG] |==|  0.07037
USER: genes 5 Torsion [C]-CA--N-[C] |==|  0.62013
USER: genes 6 Torsion [N]-C--CA-[N] |==|  0.26087
USER: genes 7 Torsion [C]-CA--N-[C] |==|  0.81111
USER: genes 8 Torsion [N]-C--CA-[N] |==|  0.48495
USER: genes 9 Torsion [C]-CA--CB-[CG] |==|  0.80137
USER: genes 10 Torsion [CA]-CB--CG-[ND2] |==|  0.25805
USER: genes 11 Torsion [C]-N--CA-[CB] |==|  0.84139
USER: genes 12 Torsion [N]-CA--C-[N] |==|  0.28486
USER: genes 13 Torsion [N]-CA--C-[N] |==|  0.67169
USER: genes 14 Torsion [C]-N--CA-[C] |==|  0.80061
USER: genes 15 Torsion [N]-CA--C-[O] |==|  0.42820
USER: genes 16 Torsion [N]-CA--CB-[CG2] |==|  0.82163
ROOT
ATOM      1  C   SER E1029      82.411  -4.109 161.774  1.00 13.48 LIG 0.24  C 
ATOM      2 O    SER E1029      82.157  -3.060 162.340  1.00 12.15 LIG-0.27  OA
ATOM      3  N   ALA E1030      81.480  -4.822 161.114  1.00 12.52 LIG-0.35  N 
ATOM      4 H    ALA E1030      81.621  -5.596 160.768  1.00 12.52 LIG 0.16  HD
ENDROOT
BRANCH 1 5
ATOM      5  CA  SER E1029      83.805  -4.691 161.806  1.00 13.36 LIG 0.20  C 
BRANCH 5 6
ATOM      6  CB  SER E1029      84.512  -4.256 163.084  1.00 14.53 LIG 0.20  C 
BRANCH 6 7
ATOM      7 OG   SER E1029      85.574  -5.173 163.374  1.00 16.05 LIG-0.40  OA
ATOM      8 HG   SER E1029      85.830  -5.541 162.664  1.00 16.05 LIG 0.21  HD
ENDBRANCH 6 7
ENDBRANCH 5 6
BRANCH 5 9
ATOM      9  N   SER E1029      84.585  -4.230 160.658  1.00 13.57 LIG-0.34  N 
ATOM     10 H    SER E1029      84.498  -3.394 160.478  1.00 13.57 LIG 0.16  HD
ATOM     11  C   ALA E1028      85.359  -5.067 159.966  1.00 13.26 LIG 0.24  C 
ATOM     12 O    ALA E1028      85.349  -6.269 160.128  1.00 11.29 LIG-0.27  OA
BRANCH 11 13
ATOM     13  CA  ALA E1028      86.296  -4.436 158.932  1.00 14.25 LIG 0.17  C 
ATOM     14  CB  ALA E1028      86.392  -5.335 157.701  1.00 14.71 LIG 0.04  C 
BRANCH 13 15
ATOM     15  N   ALA E1028      87.618  -4.195 159.516  1.00 14.53 LIG-0.35  N 
ATOM     16 H    ALA E1028      88.245  -4.687 159.193  1.00 14.53 LIG 0.16  HD
ATOM     17  C   ASN E1027      87.802  -3.291 160.462  1.00 16.30 LIG 0.26  C 
ATOM     18 O    ASN E1027      86.845  -2.629 160.948  1.00 15.77 LIG-0.27  OA
BRANCH 17 19
ATOM     19  CA  ASN E1027      89.253  -3.122 160.946  1.00 16.82 LIG 0.41  C 
ATOM     20  N   ASN E1027      89.424  -2.001 161.920  1.00 18.81 LIG 0.61  N 
BRANCH 19 21
ATOM     21  CB  ASN E1027      89.798  -4.405 161.645  1.00 15.29 LIG 0.15  C 
BRANCH 21 22
ATOM     22  CG  ASN E1027      89.172  -4.650 163.018  1.00 13.40 LIG 0.22  C 
ATOM     23 OD1  ASN E1027      89.595  -4.089 164.036  1.00 12.35 LIG-0.27  OA
ATOM     24  ND2 ASN E1027      88.103  -5.439 163.026  1.00 11.10 LIG-0.37  N 
ATOM     25 22HD ASN E1027      87.839  -5.812 162.298  1.00 11.10 LIG 0.16  HD
ATOM     26 21HD ASN E1027      87.676  -5.576 163.760  1.00 11.10 LIG 0.16  HD
ENDBRANCH 21 22
ENDBRANCH 19 21
ENDBRANCH 17 19
ENDBRANCH 13 15
ENDBRANCH 11 13
ENDBRANCH 5 9
ENDBRANCH 1 5
BRANCH 3 27
ATOM     27  CA  ALA E1030      80.130  -4.315 160.938  1.00 12.56 LIG 0.17  C 
ATOM     28  CB  ALA E1030      79.545  -4.022 162.327  1.00 12.51 LIG 0.04  C 
BRANCH 27 29
ATOM     29  C   ALA E1030      80.162  -3.001 160.078  1.00 13.31 LIG 0.24  C 
ATOM     30  N   PRO E1031      79.820  -3.065 158.813  1.00 14.65 LIG-0.34  N 
ATOM     31  CD  PRO E1031      79.500  -4.286 158.055  1.00 15.56 LIG 0.13  C 
ATOM     32  CA  PRO E1031      79.681  -1.836 157.970  1.00 16.02 LIG 0.18  C 
ATOM     33  CG  PRO E1031      79.195  -3.772 156.691  1.00 15.81 LIG 0.02  C 
ATOM     34  CB  PRO E1031      79.812  -2.393 156.587  1.00 15.56 LIG 0.04  C 
ATOM     35 O    ALA E1030      80.381  -1.952 160.630  1.00 13.62 LIG-0.27  OA
BRANCH 32 36
ATOM     36  C   PRO E1031      78.299  -1.125 158.178  1.00 15.62 LIG 0.24  C 
ATOM     37  N   VAL E1032      77.545  -1.058 157.100  1.00 15.06 LIG-0.35  N 
ATOM     38 H    VAL E1032      77.717  -1.460 156.359  1.00 15.06 LIG 0.16  HD
ATOM     39 O    PRO E1031      77.971  -0.647 159.268  1.00 15.42 LIG-0.27  OA
BRANCH 37 40
ATOM     40  CA  VAL E1032      76.345  -0.282 157.099  1.00 17.90 LIG 0.17  C 
BRANCH 40 41
ATOM     41  C   VAL E1032      75.268  -1.001 157.975  1.00 17.55 LIG 0.22  C 
ATOM     42 O    VAL E1032      74.388  -0.278 158.482  1.00 19.34 LIG-0.29  OA
ENDBRANCH 40 41
BRANCH 40 43
ATOM     43  CB  VAL E1032      75.878  -0.009 155.660  1.00 18.34 LIG 0.01  C 
ATOM     44  CG2 VAL E1032      76.897   0.846 154.914  1.00 18.91 LIG 0.01  C 
ATOM     45  CG1 VAL E1032      74.554   0.711 155.634  1.00 20.19 LIG 0.01  C 
ENDBRANCH 40 43
ENDBRANCH 37 40
ENDBRANCH 32 36
ENDBRANCH 27 29
ENDBRANCH 3 27
TORSDOF 15
ENDMDL
MODEL 9
USER: ADFR SOLUTION from run 102
USER: SCORE 14.954783 LL:  -2.672 LR: -13.040 RR:   0.000 FEB:  -8.566
USER: RMSD 9.540040
USER: SEED 101
USER: STATUS no improvement in best in 12 clusters for 5 generations
USER: GENES 17
USER: genes 0 Translation |==|  0.73317 0.46779 0.24071
USER: genes 1 Rotation |==|  0.33234 0.41565 0.28027 0.90804
USER: genes 2 Torsion [N]-C--CA-[N] |==|  0.17305
USER: genes 3 Torsion [C]-CA--CB-[OG] |==|  0.30842
USER: genes 4 Torsion [CA]-CB--OG-[HG] |==|  0.55529
USER: genes 5 Torsion [C]-CA--N-[C] |==|  0.77933
USER: genes 6 Torsion [N]-C--CA-[N] |==|  0.94141
USER: genes 7 Torsion [C]-CA--N-[C] |==|  0.74740
USER: genes 8 Torsion [N]-C--CA-[N] |==|  0.37793
USER: genes 9 Torsion [C]-CA--CB-[CG] |==|  0.23999
USER: genes 10 Torsion [CA]-CB--CG-[ND2] |==|  0.24167
USER: genes 11 Torsion [C]-N--CA-[CB] |==|  0.76028
USER: genes 12 Torsion [N]-CA--C-[N] |==|  0.27090
USER: genes 13 Torsion [N]-CA--C-[N] |==|  0.15464
USER: genes 14 Torsion [C]-N--CA-[C] |==|  0.81988
USER: genes 15 Torsion [N]-CA--C-[O] |==|  0.52234
USER: genes 16 Torsion [N]-CA--CB-[CG2] |==|  0.53925
ROOT
ATOM      1  C   SER E1029      86.475  -4.159 158.136  1.00 13.48 LIG 0.24  C 
ATOM      2 O    SER E1029      85.526  -4.379 157.403  1.00 12.15 LIG-0.27  OA
ATOM      3  N   ALA E1030      86.994  -2.930 158.305  1.00 12.52 LIG-0.35  N 
ATOM      4 H    ALA E1030      87.703  -2.763 158.762  1.00 12.52 LIG 0.16  HD
ENDROOT
BRANCH 1 5
ATOM      5  CA  SER E1029      87.148  -5.282 158.890  1.00 13.36 LIG 0.20  C 
BRANCH 5 6
ATOM      6  CB  SER E1029      86.476  -6.606 158.545  1.00 14.53 LIG 0.20  C 
BRANCH 6 7
ATOM      7 OG   SER E1029      87.378  -7.410 157.776  1.00 16.05 LIG-0.40  OA
ATOM      8 HG   SER E1029      86.945  -7.998 157.360  1.00 16.05 LIG 0.21  HD
ENDBRANCH 6 7
ENDBRANCH 5 6
BRANCH 5 9
ATOM      9  N   SER E1029      87.052  -5.069 160.333  1.00 13.57 LIG-0.34  N 
ATOM     10 H    SER E1029      86.437  -5.527 160.723  1.00 13.57 LIG 0.16  HD
ATOM     11  C   ALA E1028      87.869  -4.223 160.964  1.00 13.26 LIG 0.24  C 
ATOM     12 O    ALA E1028      88.620  -3.468 160.384  1.00 11.29 LIG-0.27  OA
BRANCH 11 13
ATOM     13  CA  ALA E1028      87.827  -4.247 162.495  1.00 14.25 LIG 0.17  C 
ATOM     14  CB  ALA E1028      89.027  -5.023 163.034  1.00 14.71 LIG 0.04  C 
BRANCH 13 15
ATOM     15  N   ALA E1028      86.566  -4.827 162.965  1.00 14.53 LIG-0.35  N 
ATOM     16 H    ALA E1028      86.583  -5.681 163.065  1.00 14.53 LIG 0.16  HD
ATOM     17  C   ASN E1027      85.507  -4.076 163.207  1.00 16.30 LIG 0.26  C 
ATOM     18 O    ASN E1027      85.507  -2.833 162.995  1.00 15.77 LIG-0.27  OA
BRANCH 17 19
ATOM     19  CA  ASN E1027      84.270  -4.823 163.737  1.00 16.82 LIG 0.41  C 
ATOM     20  N   ASN E1027      83.597  -4.121 164.872  1.00 18.81 LIG 0.61  N 
BRANCH 19 21
ATOM     21  CB  ASN E1027      83.185  -5.027 162.636  1.00 15.29 LIG 0.15  C 
BRANCH 21 22
ATOM     22  CG  ASN E1027      83.408  -6.289 161.802  1.00 13.40 LIG 0.22  C 
ATOM     23 OD1  ASN E1027      84.099  -6.277 160.777  1.00 12.35 LIG-0.27  OA
ATOM     24  ND2 ASN E1027      82.878  -7.402 162.297  1.00 11.10 LIG-0.37  N 
ATOM     25 22HD ASN E1027      82.403  -7.371 163.013  1.00 11.10 LIG 0.16  HD
ATOM     26 21HD ASN E1027      83.010  -8.154 161.901  1.00 11.10 LIG 0.16  HD
ENDBRANCH 21 22
ENDBRANCH 19 21
ENDBRANCH 17 19
ENDBRANCH 13 15
ENDBRANCH 11 13
ENDBRANCH 5 9
ENDBRANCH 1 5
BRANCH 3 27
ATOM     27  CA  ALA E1030      86.371  -1.762 157.705  1.00 12.56 LIG 0.17  C 
ATOM     28  CB  ALA E1030      86.912  -1.613 156.276  1.00 12.51 LIG 0.04  C 
BRANCH 27 29
ATOM     29  C   ALA E1030      84.811  -1.946 157.675  1.00 13.31 LIG 0.24  C 
ATOM     30  N   PRO E1031      84.092  -1.399 158.626  1.00 14.65 LIG-0.34  N 
ATOM     31  CD  PRO E1031      84.603  -0.698 159.816  1.00 15.56 LIG 0.13  C 
ATOM     32  CA  PRO E1031      82.596  -1.402 158.584  1.00 16.02 LIG 0.18  C 
ATOM     33  CG  PRO E1031      83.363  -0.299 160.537  1.00 15.81 LIG 0.02  C 
ATOM     34  CB  PRO E1031      82.246  -1.183 160.023  1.00 15.56 LIG 0.04  C 
ATOM     35 O    ALA E1030      84.309  -2.478 156.717  1.00 13.62 LIG-0.27  OA
BRANCH 32 36
ATOM     36  C   PRO E1031      82.023  -0.265 157.670  1.00 15.62 LIG 0.24  C 
ATOM     37  N   VAL E1032      82.472  -0.274 156.431  1.00 15.06 LIG-0.35  N 
ATOM     38 H    VAL E1032      82.951  -0.903 156.091  1.00 15.06 LIG 0.16  HD
ATOM     39 O    PRO E1031      81.234   0.581 158.101  1.00 15.42 LIG-0.27  OA
BRANCH 37 40
ATOM     40  CA  VAL E1032      82.178   0.806 155.543  1.00 17.90 LIG 0.17  C 
BRANCH 40 41
ATOM     41  C   VAL E1032      80.637   0.849 155.281  1.00 17.55 LIG 0.22  C 
ATOM     42 O    VAL E1032      80.241   1.641 154.403  1.00 19.34 LIG-0.29  OA
ENDBRANCH 40 41
BRANCH 40 43
ATOM     43  CB  VAL E1032      83.011   0.691 154.256  1.00 18.34 LIG 0.01  C 
ATOM     44  CG2 VAL E1032      82.969   1.997 153.468  1.00 18.91 LIG 0.01  C 
ATOM     45  CG1 VAL E1032      82.503  -0.412 153.363  1.00 20.19 LIG 0.01  C 
ENDBRANCH 40 43
ENDBRANCH 37 40
ENDBRANCH 32 36
ENDBRANCH 27 29
ENDBRANCH 3 27
TORSDOF 15
ENDMDL
MODEL 10
USER: ADFR SOLUTION from run 65
USER: SCORE 14.350039 LL:  -2.676 LR: -13.005 RR:   0.000 FEB:  -8.530
USER: RMSD 2.493105
USER: SEED 64
USER: STATUS no improvement in best in 3 clusters for 5 generations
USER: GENES 17
USER: genes 0 Translation |==|  0.50879 0.34440 0.51402
USER: genes 1 Rotation |==|  0.24568 0.67020 0.72738 0.82350
USER: genes 2 Torsion [N]-C--CA-[N] |==|  0.34548
USER: genes 3 Torsion [C]-CA--CB-[OG] |==|  0.07345
USER: genes 4 Torsion [CA]-CB--OG-[HG] |==|  0.65876
USER: genes 5 Torsion [C]-CA--N-[C] |==|  0.83805
USER: genes 6 Torsion [N]-C--CA-[N] |==|  0.15495
USER: genes 7 Torsion [C]-CA--N-[C] |==|  0.16139
USER: genes 8 Torsion [N]-C--CA-[N] |==|  0.70544
USER: genes 9 Torsion [C]-CA--CB-[CG] |==|  0.22808
USER: genes 10 Torsion [CA]-CB--CG-[ND2] |==|  0.40240
USER: genes 11 Torsion [C]-N--CA-[CB] |==|  0.13448
USER: genes 12 Torsion [N]-CA--C-[N] |==|  0.23889
USER: genes 13 Torsion [N]-CA--C-[N] |==|  0.08545
USER: genes 14 Torsion [C]-N--CA-[C] |==|  0.75477
USER: genes 15 Torsion [N]-CA--C-[O] |==|  0.27166
USER: genes 16 Torsion [N]-CA--CB-[CG2] |==|  0.39246
ROOT
ATOM      1  C   SER E1029      81.931  -6.103 164.081  1.00 13.48 LIG 0.24  C 
ATOM      2 O    SER E1029      82.200  -7.015 164.843  1.00 12.15 LIG-0.27  OA
ATOM      3  N   ALA E1030      80.995  -5.177 164.358  1.00 12.52 LIG-0.35  N 
ATOM      4 H    ALA E1030      80.742  -4.567 163.808  1.00 12.52 LIG 0.16  HD
ENDROOT
BRANCH 1 5
ATOM      5  CA  SER E1029      82.628  -5.975 162.747  1.00 13.36 LIG 0.20  C 
BRANCH 5 6
ATOM      6  CB  SER E1029      82.302  -7.186 161.881  1.00 14.53 LIG 0.20  C 
BRANCH 6 7
ATOM      7 OG   SER E1029      81.035  -7.726 162.278  1.00 16.05 LIG-0.40  OA
ATOM      8 HG   SER E1029      81.129  -8.532 162.493  1.00 16.05 LIG 0.21  HD
ENDBRANCH 6 7
ENDBRANCH 5 6
BRANCH 5 9
ATOM      9  N   SER E1029      84.078  -5.903 162.924  1.00 13.57 LIG-0.34  N 
ATOM     10 H    SER E1029      84.520  -6.519 162.518  1.00 13.57 LIG 0.16  HD
ATOM     11  C   ALA E1028      84.638  -4.945 163.665  1.00 13.26 LIG 0.24  C 
ATOM     12 O    ALA E1028      83.999  -4.183 164.359  1.00 11.29 LIG-0.27  OA
BRANCH 11 13
ATOM     13  CA  ALA E1028      86.164  -4.834 163.599  1.00 14.25 LIG 0.17  C 
ATOM     14  CB  ALA E1028      86.638  -3.677 164.476  1.00 14.71 LIG 0.04  C 
BRANCH 13 15
ATOM     15  N   ALA E1028      86.606  -4.664 162.212  1.00 14.53 LIG-0.35  N 
ATOM     16 H    ALA E1028      87.152  -5.268 161.936  1.00 14.53 LIG 0.16  HD
ATOM     17  C   ASN E1027      86.185  -3.655 161.470  1.00 16.30 LIG 0.26  C 
ATOM     18 O    ASN E1027      85.427  -2.759 161.931  1.00 15.77 LIG-0.27  OA
BRANCH 17 19
ATOM     19  CA  ASN E1027      86.704  -3.635 160.021  1.00 16.82 LIG 0.41  C 
ATOM     20  N   ASN E1027      87.748  -2.591 159.783  1.00 18.81 LIG 0.61  N 
BRANCH 19 21
ATOM     21  CB  ASN E1027      87.332  -4.996 159.596  1.00 15.29 LIG 0.15  C 
BRANCH 21 22
ATOM     22  CG  ASN E1027      86.290  -6.025 159.156  1.00 13.40 LIG 0.22  C 
ATOM     23 OD1  ASN E1027      85.153  -6.047 159.640  1.00 12.35 LIG-0.27  OA
ATOM     24  ND2 ASN E1027      86.666  -6.833 158.171  1.00 11.10 LIG-0.37  N 
ATOM     25 22HD ASN E1027      87.466  -6.789 157.860  1.00 11.10 LIG 0.16  HD
ATOM     26 21HD ASN E1027      86.109  -7.401 157.844  1.00 11.10 LIG 0.16  HD
ENDBRANCH 21 22
ENDBRANCH 19 21
ENDBRANCH 17 19
ENDBRANCH 13 15
ENDBRANCH 11 13
ENDBRANCH 5 9
ENDBRANCH 1 5
BRANCH 3 27
ATOM     27  CA  ALA E1030      80.328  -5.144 165.648  1.00 12.56 LIG 0.17  C 
ATOM     28  CB  ALA E1030      81.402  -5.232 166.743  1.00 12.51 LIG 0.04  C 
BRANCH 27 29
ATOM     29  C   ALA E1030      79.516  -3.808 165.795  1.00 13.31 LIG 0.24  C 
ATOM     30  N   PRO E1031      78.295  -3.755 165.319  1.00 14.65 LIG-0.34  N 
ATOM     31  CD  PRO E1031      77.613  -4.805 164.543  1.00 15.56 LIG 0.13  C 
ATOM     32  CA  PRO E1031      77.408  -2.573 165.552  1.00 16.02 LIG 0.18  C 
ATOM     33  CG  PRO E1031      76.276  -4.211 164.267  1.00 15.81 LIG 0.02  C 
ATOM     34  CB  PRO E1031      76.408  -2.713 164.448  1.00 15.56 LIG 0.04  C 
ATOM     35 O    ALA E1030      79.990  -2.911 166.447  1.00 13.62 LIG-0.27  OA
BRANCH 32 36
ATOM     36  C   PRO E1031      76.722  -2.612 166.961  1.00 15.62 LIG 0.24  C 
ATOM     37  N   VAL E1032      77.427  -3.206 167.902  1.00 15.06 LIG-0.35  N 
ATOM     38 H    VAL E1032      78.244  -3.461 167.811  1.00 15.06 LIG 0.16  HD
ATOM     39 O    PRO E1031      75.597  -2.140 167.151  1.00 15.42 LIG-0.27  OA
BRANCH 37 40
ATOM     40  CA  VAL E1032      76.852  -3.474 169.183  1.00 17.90 LIG 0.17  C 
BRANCH 40 41
ATOM     41  C   VAL E1032      77.072  -2.237 170.113  1.00 17.55 LIG 0.22  C 
ATOM     42 O    VAL E1032      76.119  -1.440 170.216  1.00 19.34 LIG-0.29  OA
ENDBRANCH 40 41
BRANCH 40 43
ATOM     43  CB  VAL E1032      77.413  -4.782 169.765  1.00 18.34 LIG 0.01  C 
ATOM     44  CG2 VAL E1032      77.637  -4.650 171.269  1.00 18.91 LIG 0.01  C 
ATOM     45  CG1 VAL E1032      78.727  -5.154 169.127  1.00 20.19 LIG 0.01  C 
ENDBRANCH 40 43
ENDBRANCH 37 40
ENDBRANCH 32 36
ENDBRANCH 27 29
ENDBRANCH 3 27
TORSDOF 15
ENDMDL
MODEL 11
USER: ADFR SOLUTION from run 79
USER: SCORE 13.744393 LL:  -2.809 LR: -12.944 RR:   0.000 FEB:  -8.469
USER: RMSD 5.063499
USER: SEED 78
USER: STATUS no improvement in best in 1 clusters for 5 generations
USER: GENES 17
USER: genes 0 Translation |==|  0.65171 0.43915 0.42224
USER: genes 1 Rotation |==|  0.90800 0.48620 0.41659 0.77638
USER: genes 2 Torsion [N]-C--CA-[N] |==|  0.32222
USER: genes 3 Torsion [C]-CA--CB-[OG] |==|  0.20786
USER: genes 4 Torsion [CA]-CB--OG-[HG] |==|  0.15174
USER: genes 5 Torsion [C]-CA--N-[C] |==|  0.81969
USER: genes 6 Torsion [N]-C--CA-[N] |==|  0.98191
USER: genes 7 Torsion [C]-CA--N-[C] |==|  0.74519
USER: genes 8 Torsion [N]-C--CA-[N] |==|  0.43651
USER: genes 9 Torsion [C]-CA--CB-[CG] |==|  0.37275
USER: genes 10 Torsion [CA]-CB--CG-[ND2] |==|  0.68463
USER: genes 11 Torsion [C]-N--CA-[CB] |==|  0.35091
USER: genes 12 Torsion [N]-CA--C-[N] |==|  0.21919
USER: genes 13 Torsion [N]-CA--C-[N] |==|  0.31050
USER: genes 14 Torsion [C]-N--CA-[C] |==|  0.18441
USER: genes 15 Torsion [N]-CA--C-[O] |==|  0.08572
USER: genes 16 Torsion [N]-CA--CB-[CG2] |==|  0.80036
ROOT
ATOM      1  C   SER E1029      84.825  -4.610 162.085  1.00 13.48 LIG 0.24  C 
ATOM      2 O    SER E1029      84.188  -3.576 161.986  1.00 12.15 LIG-0.27  OA
ATOM      3  N   ALA E1030      84.306  -5.735 162.610  1.00 12.52 LIG-0.35  N 
ATOM      4 H    ALA E1030      84.757  -6.454 162.753  1.00 12.52 LIG 0.16  HD
ENDROOT
BRANCH 1 5
ATOM      5  CA  SER E1029      86.267  -4.679 161.640  1.00 13.36 LIG 0.20  C 
BRANCH 5 6
ATOM      6  CB  SER E1029      87.071  -3.590 162.339  1.00 14.53 LIG 0.20  C 
BRANCH 6 7
ATOM      7 OG   SER E1029      87.293  -3.967 163.705  1.00 16.05 LIG-0.40  OA
ATOM      8 HG   SER E1029      87.653  -4.725 163.732  1.00 16.05 LIG 0.21  HD
ENDBRANCH 6 7
ENDBRANCH 5 6
BRANCH 5 9
ATOM      9  N   SER E1029      86.373  -4.485 160.194  1.00 13.57 LIG-0.34  N 
ATOM     10 H    SER E1029      86.792  -3.772 159.959  1.00 13.57 LIG 0.16  HD
ATOM     11  C   ALA E1028      85.851  -5.364 159.338  1.00 13.26 LIG 0.24  C 
ATOM     12 O    ALA E1028      85.128  -6.276 159.679  1.00 11.29 LIG-0.27  OA
BRANCH 11 13
ATOM     13  CA  ALA E1028      86.213  -5.178 157.861  1.00 14.25 LIG 0.17  C 
ATOM     14  CB  ALA E1028      87.003  -6.387 157.365  1.00 14.71 LIG 0.04  C 
BRANCH 13 15
ATOM     15  N   ALA E1028      86.969  -3.937 157.671  1.00 14.53 LIG-0.35  N 
ATOM     16 H    ALA E1028      87.819  -4.021 157.763  1.00 14.53 LIG 0.16  HD
ATOM     17  C   ASN E1027      86.366  -2.797 157.382  1.00 16.30 LIG 0.26  C 
ATOM     18 O    ASN E1027      85.110  -2.706 157.311  1.00 15.77 LIG-0.27  OA
BRANCH 17 19
ATOM     19  CA  ASN E1027      87.296  -1.589 157.170  1.00 16.82 LIG 0.41  C 
ATOM     20  N   ASN E1027      86.678  -0.506 156.345  1.00 18.81 LIG 0.61  N 
BRANCH 19 21
ATOM     21  CB  ASN E1027      87.730  -0.931 158.514  1.00 15.29 LIG 0.15  C 
BRANCH 21 22
ATOM     22  CG  ASN E1027      89.226  -0.627 158.577  1.00 13.40 LIG 0.22  C 
ATOM     23 OD1  ASN E1027      89.738   0.266 157.891  1.00 12.35 LIG-0.27  OA
ATOM     24  ND2 ASN E1027      89.916  -1.329 159.468  1.00 11.10 LIG-0.37  N 
ATOM     25 22HD ASN E1027      89.526  -1.943 159.928  1.00 11.10 LIG 0.16  HD
ATOM     26 21HD ASN E1027      90.753  -1.171 159.588  1.00 11.10 LIG 0.16  HD
ENDBRANCH 21 22
ENDBRANCH 19 21
ENDBRANCH 17 19
ENDBRANCH 13 15
ENDBRANCH 11 13
ENDBRANCH 5 9
ENDBRANCH 1 5
BRANCH 3 27
ATOM     27  CA  ALA E1030      82.905  -5.814 162.984  1.00 12.56 LIG 0.17  C 
ATOM     28  CB  ALA E1030      82.293  -7.038 162.287  1.00 12.51 LIG 0.04  C 
BRANCH 27 29
ATOM     29  C   ALA E1030      82.776  -5.960 164.543  1.00 13.31 LIG 0.24  C 
ATOM     30  N   PRO E1031      82.909  -4.891 165.291  1.00 14.65 LIG-0.34  N 
ATOM     31  CD  PRO E1031      83.283  -3.543 164.831  1.00 15.56 LIG 0.13  C 
ATOM     32  CA  PRO E1031      82.652  -4.923 166.765  1.00 16.02 LIG 0.18  C 
ATOM     33  CG  PRO E1031      83.287  -2.742 166.086  1.00 15.81 LIG 0.02  C 
ATOM     34  CB  PRO E1031      83.407  -3.720 167.237  1.00 15.56 LIG 0.04  C 
ATOM     35 O    ALA E1030      82.439  -7.024 164.999  1.00 13.62 LIG-0.27  OA
BRANCH 32 36
ATOM     36  C   PRO E1031      81.126  -4.817 167.105  1.00 15.62 LIG 0.24  C 
ATOM     37  N   VAL E1032      80.598  -5.910 167.620  1.00 15.06 LIG-0.35  N 
ATOM     38 H    VAL E1032      81.049  -6.600 167.866  1.00 15.06 LIG 0.16  HD
ATOM     39 O    PRO E1031      80.478  -3.791 166.878  1.00 15.42 LIG-0.27  OA
BRANCH 37 40
ATOM     40  CA  VAL E1032      79.185  -6.016 167.808  1.00 17.90 LIG 0.17  C 
BRANCH 40 41
ATOM     41  C   VAL E1032      78.482  -6.035 166.412  1.00 17.55 LIG 0.22  C 
ATOM     42 O    VAL E1032      79.124  -6.540 165.470  1.00 19.34 LIG-0.29  OA
ENDBRANCH 40 41
BRANCH 40 43
ATOM     43  CB  VAL E1032      78.676  -4.898 168.732  1.00 18.34 LIG 0.01  C 
ATOM     44  CG2 VAL E1032      79.114  -5.146 170.172  1.00 18.91 LIG 0.01  C 
ATOM     45  CG1 VAL E1032      77.172  -4.803 168.710  1.00 20.19 LIG 0.01  C 
ENDBRANCH 40 43
ENDBRANCH 37 40
ENDBRANCH 32 36
ENDBRANCH 27 29
ENDBRANCH 3 27
TORSDOF 15
ENDMDL
MODEL 12
USER: ADFR SOLUTION from run 3
USER: SCORE 14.955684 LL:  -3.221 LR: -12.797 RR:   0.000 FEB:  -8.322
USER: RMSD 8.413178
USER: SEED 907254
USER: STATUS no improvement in best in 8 clusters for 5 generations
USER: GENES 17
USER: genes 0 Translation |==|  0.70749 0.51677 0.20729
USER: genes 1 Rotation |==|  0.35045 0.47671 0.32588 0.94360
USER: genes 2 Torsion [N]-C--CA-[N] |==|  0.14983
USER: genes 3 Torsion [C]-CA--CB-[OG] |==|  0.44805
USER: genes 4 Torsion [CA]-CB--OG-[HG] |==|  0.47592
USER: genes 5 Torsion [C]-CA--N-[C] |==|  0.16667
USER: genes 6 Torsion [N]-C--CA-[N] |==|  0.55936
USER: genes 7 Torsion [C]-CA--N-[C] |==|  0.77580
USER: genes 8 Torsion [N]-C--CA-[N] |==|  0.52776
USER: genes 9 Torsion [C]-CA--CB-[CG] |==|  0.82741
USER: genes 10 Torsion [CA]-CB--CG-[ND2] |==|  0.68360
USER: genes 11 Torsion [C]-N--CA-[CB] |==|  0.85426
USER: genes 12 Torsion [N]-CA--C-[N] |==|  0.44752
USER: genes 13 Torsion [N]-CA--C-[N] |==|  0.22152
USER: genes 14 Torsion [C]-N--CA-[C] |==|  0.67588
USER: genes 15 Torsion [N]-CA--C-[O] |==|  0.83464
USER: genes 16 Torsion [N]-CA--CB-[CG2] |==|  0.79010
ROOT
ATOM      1  C   SER E1029      85.955  -3.388 157.410  1.00 13.48 LIG 0.24  C 
ATOM      2 O    SER E1029      84.879  -3.636 156.892  1.00 12.15 LIG-0.27  OA
ATOM      3  N   ALA E1030      86.353  -2.134 157.691  1.00 12.52 LIG-0.35  N 
ATOM      4 H    ALA E1030      87.132  -1.931 157.992  1.00 12.52 LIG 0.16  HD
ENDROOT
BRANCH 1 5
ATOM      5  CA  SER E1029      86.928  -4.494 157.744  1.00 13.36 LIG 0.20  C 
BRANCH 5 6
ATOM      6  CB  SER E1029      86.268  -5.846 157.506  1.00 14.53 LIG 0.20  C 
BRANCH 6 7
ATOM      7 OG   SER E1029      87.280  -6.855 157.395  1.00 16.05 LIG-0.40  OA
ATOM      8 HG   SER E1029      86.920  -7.614 157.383  1.00 16.05 LIG 0.21  HD
ENDBRANCH 6 7
ENDBRANCH 5 6
BRANCH 5 9
ATOM      9  N   SER E1029      87.342  -4.414 159.145  1.00 13.57 LIG-0.34  N 
ATOM     10 H    SER E1029      88.187  -4.307 159.263  1.00 13.57 LIG 0.16  HD
ATOM     11  C   ALA E1028      86.453  -4.503 160.135  1.00 13.26 LIG 0.24  C 
ATOM     12 O    ALA E1028      85.293  -4.812 159.962  1.00 11.29 LIG-0.27  OA
BRANCH 11 13
ATOM     13  CA  ALA E1028      86.964  -4.184 161.543  1.00 14.25 LIG 0.17  C 
ATOM     14  CB  ALA E1028      88.404  -4.671 161.695  1.00 14.71 LIG 0.04  C 
BRANCH 13 15
ATOM     15  N   ALA E1028      86.092  -4.787 162.555  1.00 14.53 LIG-0.35  N 
ATOM     16 H    ALA E1028      86.384  -5.527 162.881  1.00 14.53 LIG 0.16  HD
ATOM     17  C   ASN E1027      84.956  -4.217 162.917  1.00 16.30 LIG 0.26  C 
ATOM     18 O    ASN E1027      84.537  -3.159 162.374  1.00 15.77 LIG-0.27  OA
BRANCH 17 19
ATOM     19  CA  ASN E1027      84.170  -4.947 164.021  1.00 16.82 LIG 0.41  C 
ATOM     20  N   ASN E1027      82.794  -4.399 164.225  1.00 18.81 LIG 0.61  N 
BRANCH 19 21
ATOM     21  CB  ASN E1027      84.003  -6.468 163.724  1.00 15.29 LIG 0.15  C 
BRANCH 21 22
ATOM     22  CG  ASN E1027      83.212  -6.746 162.447  1.00 13.40 LIG 0.22  C 
ATOM     23 OD1  ASN E1027      83.675  -6.498 161.327  1.00 12.35 LIG-0.27  OA
ATOM     24  ND2 ASN E1027      82.036  -7.339 162.620  1.00 11.10 LIG-0.37  N 
ATOM     25 22HD ASN E1027      81.746  -7.495 163.415  1.00 11.10 LIG 0.16  HD
ATOM     26 21HD ASN E1027      81.564  -7.567 161.938  1.00 11.10 LIG 0.16  HD
ENDBRANCH 21 22
ENDBRANCH 19 21
ENDBRANCH 17 19
ENDBRANCH 13 15
ENDBRANCH 11 13
ENDBRANCH 5 9
ENDBRANCH 1 5
BRANCH 3 27
ATOM     27  CA  ALA E1030      85.463  -1.002 157.500  1.00 12.56 LIG 0.17  C 
ATOM     28  CB  ALA E1030      84.920  -1.058 156.064  1.00 12.51 LIG 0.04  C 
BRANCH 27 29
ATOM     29  C   ALA E1030      84.278  -1.075 158.528  1.00 13.31 LIG 0.24  C 
ATOM     30  N   PRO E1031      83.589   0.012 158.777  1.00 14.65 LIG-0.34  N 
ATOM     31  CD  PRO E1031      83.874   1.364 158.267  1.00 15.56 LIG 0.13  C 
ATOM     32  CA  PRO E1031      82.356  -0.011 159.626  1.00 16.02 LIG 0.18  C 
ATOM     33  CG  PRO E1031      82.791   2.191 158.866  1.00 15.81 LIG 0.02  C 
ATOM     34  CB  PRO E1031      82.244   1.420 160.049  1.00 15.56 LIG 0.04  C 
ATOM     35 O    ALA E1030      83.957  -2.152 158.966  1.00 13.62 LIG-0.27  OA
BRANCH 32 36
ATOM     36  C   PRO E1031      81.091  -0.478 158.826  1.00 15.62 LIG 0.24  C 
ATOM     37  N   VAL E1032      80.990  -1.782 158.665  1.00 15.06 LIG-0.35  N 
ATOM     38 H    VAL E1032      81.497  -2.361 159.051  1.00 15.06 LIG 0.16  HD
ATOM     39 O    PRO E1031      80.277   0.328 158.366  1.00 15.42 LIG-0.27  OA
BRANCH 37 40
ATOM     40  CA  VAL E1032      79.991  -2.334 157.805  1.00 17.90 LIG 0.17  C 
BRANCH 40 41
ATOM     41  C   VAL E1032      79.007  -3.203 158.654  1.00 17.55 LIG 0.22  C 
ATOM     42 O    VAL E1032      79.503  -4.162 159.276  1.00 19.34 LIG-0.29  OA
ENDBRANCH 40 41
BRANCH 40 43
ATOM     43  CB  VAL E1032      80.640  -3.106 156.646  1.00 18.34 LIG 0.01  C 
ATOM     44  CG2 VAL E1032      81.207  -2.144 155.607  1.00 18.91 LIG 0.01  C 
ATOM     45  CG1 VAL E1032      79.649  -4.009 155.957  1.00 20.19 LIG 0.01  C 
ENDBRANCH 40 43
ENDBRANCH 37 40
ENDBRANCH 32 36
ENDBRANCH 27 29
ENDBRANCH 3 27
TORSDOF 15
ENDMDL
MODEL 13
USER: ADFR SOLUTION from run 98
USER: SCORE 14.360067 LL:  -3.125 LR: -12.750 RR:   0.000 FEB:  -8.275
USER: RMSD 7.047180
USER: SEED 97
USER: STATUS no improvement in best in 9 clusters for 5 generations
USER: GENES 17
USER: genes 0 Translation |==|  0.51203 0.42220 0.38877
USER: genes 1 Rotation |==|  0.87070 0.22763 0.40985 0.67397
USER: genes 2 Torsion [N]-C--CA-[N] |==|  0.55000
USER: genes 3 Torsion [C]-CA--CB-[OG] |==|  0.34032
USER: genes 4 Torsion [CA]-CB--OG-[HG] |==|  0.54693
USER: genes 5 Torsion [C]-CA--N-[C] |==|  0.15964
USER: genes 6 Torsion [N]-C--CA-[N] |==|  0.07098
USER: genes 7 Torsion [C]-CA--N-[C] |==|  0.17110
USER: genes 8 Torsion [N]-C--CA-[N] |==|  0.99055
USER: genes 9 Torsion [C]-CA--CB-[CG] |==|  0.78622
USER: genes 10 Torsion [CA]-CB--CG-[ND2] |==|  0.64197
USER: genes 11 Torsion [C]-N--CA-[CB] |==|  0.81282
USER: genes 12 Torsion [N]-CA--C-[N] |==|  0.24051
USER: genes 13 Torsion [N]-CA--C-[N] |==|  0.93764
USER: genes 14 Torsion [C]-N--CA-[C] |==|  0.54920
USER: genes 15 Torsion [N]-CA--C-[O] |==|  0.23128
USER: genes 16 Torsion [N]-CA--CB-[CG2] |==|  0.64159
ROOT
ATOM      1  C   SER E1029      81.997  -4.877 161.357  1.00 13.48 LIG 0.24  C 
ATOM      2 O    SER E1029      82.565  -3.799 161.336  1.00 12.15 LIG-0.27  OA
ATOM      3  N   ALA E1030      80.662  -4.997 161.233  1.00 12.52 LIG-0.35  N 
ATOM      4 H    ALA E1030      80.235  -5.738 161.314  1.00 12.52 LIG 0.16  HD
ENDROOT
BRANCH 1 5
ATOM      5  CA  SER E1029      82.771  -6.160 161.553  1.00 13.36 LIG 0.20  C 
BRANCH 5 6
ATOM      6  CB  SER E1029      82.029  -7.062 162.531  1.00 14.53 LIG 0.20  C 
BRANCH 6 7
ATOM      7 OG   SER E1029      81.753  -8.319 161.901  1.00 16.05 LIG-0.40  OA
ATOM      8 HG   SER E1029      81.158  -8.725 162.333  1.00 16.05 LIG 0.21  HD
ENDBRANCH 6 7
ENDBRANCH 5 6
BRANCH 5 9
ATOM      9  N   SER E1029      84.104  -5.883 162.088  1.00 13.57 LIG-0.34  N 
ATOM     10 H    SER E1029      84.751  -6.179 161.606  1.00 13.57 LIG 0.16  HD
ATOM     11  C   ALA E1028      84.266  -5.223 163.236  1.00 13.26 LIG 0.24  C 
ATOM     12 O    ALA E1028      83.349  -4.955 163.983  1.00 11.29 LIG-0.27  OA
BRANCH 11 13
ATOM     13  CA  ALA E1028      85.695  -4.798 163.584  1.00 14.25 LIG 0.17  C 
ATOM     14  CB  ALA E1028      85.669  -3.497 164.384  1.00 14.71 LIG 0.04  C 
BRANCH 13 15
ATOM     15  N   ALA E1028      86.498  -4.655 162.367  1.00 14.53 LIG-0.35  N 
ATOM     16 H    ALA E1028      87.174  -5.185 162.322  1.00 14.53 LIG 0.16  HD
ATOM     17  C   ASN E1027      86.187  -3.776 161.431  1.00 16.30 LIG 0.26  C 
ATOM     18 O    ASN E1027      85.219  -2.979 161.560  1.00 15.77 LIG-0.27  OA
BRANCH 17 19
ATOM     19  CA  ASN E1027      87.100  -3.773 160.192  1.00 16.82 LIG 0.41  C 
ATOM     20  N   ASN E1027      88.246  -4.726 160.301  1.00 18.81 LIG 0.61  N 
BRANCH 19 21
ATOM     21  CB  ASN E1027      86.332  -4.148 158.888  1.00 15.29 LIG 0.15  C 
BRANCH 21 22
ATOM     22  CG  ASN E1027      86.060  -5.647 158.764  1.00 13.40 LIG 0.22  C 
ATOM     23 OD1  ASN E1027      85.473  -6.277 159.652  1.00 12.35 LIG-0.27  OA
ATOM     24  ND2 ASN E1027      86.424  -6.201 157.613  1.00 11.10 LIG-0.37  N 
ATOM     25 22HD ASN E1027      86.831  -5.731 157.019  1.00 11.10 LIG 0.16  HD
ATOM     26 21HD ASN E1027      86.253  -7.030 157.462  1.00 11.10 LIG 0.16  HD
ENDBRANCH 21 22
ENDBRANCH 19 21
ENDBRANCH 17 19
ENDBRANCH 13 15
ENDBRANCH 11 13
ENDBRANCH 5 9
ENDBRANCH 1 5
BRANCH 3 27
ATOM     27  CA  ALA E1030      79.827  -3.843 160.947  1.00 12.56 LIG 0.17  C 
ATOM     28  CB  ALA E1030      79.866  -2.911 162.167  1.00 12.51 LIG 0.04  C 
BRANCH 27 29
ATOM     29  C   ALA E1030      80.370  -3.094 159.678  1.00 13.31 LIG 0.24  C 
ATOM     30  N   PRO E1031      79.972  -3.488 158.492  1.00 14.65 LIG-0.34  N 
ATOM     31  CD  PRO E1031      79.128  -4.659 158.198  1.00 15.56 LIG 0.13  C 
ATOM     32  CA  PRO E1031      80.324  -2.733 157.249  1.00 16.02 LIG 0.18  C 
ATOM     33  CG  PRO E1031      79.002  -4.626 156.715  1.00 15.81 LIG 0.02  C 
ATOM     34  CB  PRO E1031      80.140  -3.775 156.191  1.00 15.56 LIG 0.04  C 
ATOM     35 O    ALA E1030      81.040  -2.103 159.832  1.00 13.62 LIG-0.27  OA
BRANCH 32 36
ATOM     36  C   PRO E1031      79.386  -1.499 157.016  1.00 15.62 LIG 0.24  C 
ATOM     37  N   VAL E1032      78.217  -1.573 157.618  1.00 15.06 LIG-0.35  N 
ATOM     38 H    VAL E1032      78.000  -2.180 158.188  1.00 15.06 LIG 0.16  HD
ATOM     39 O    PRO E1031      79.723  -0.552 156.299  1.00 15.42 LIG-0.27  OA
BRANCH 37 40
ATOM     40  CA  VAL E1032      77.197  -0.610 157.347  1.00 17.90 LIG 0.17  C 
BRANCH 40 41
ATOM     41  C   VAL E1032      76.129  -0.658 158.488  1.00 17.55 LIG 0.22  C 
ATOM     42 O    VAL E1032      76.385  -0.009 159.520  1.00 19.34 LIG-0.29  OA
ENDBRANCH 40 41
BRANCH 40 43
ATOM     43  CB  VAL E1032      76.603  -0.829 155.946  1.00 18.34 LIG 0.01  C 
ATOM     44  CG2 VAL E1032      76.599   0.473 155.151  1.00 18.91 LIG 0.01  C 
ATOM     45  CG1 VAL E1032      75.185  -1.337 156.019  1.00 20.19 LIG 0.01  C 
ENDBRANCH 40 43
ENDBRANCH 37 40
ENDBRANCH 32 36
ENDBRANCH 27 29
ENDBRANCH 3 27
TORSDOF 15
ENDMDL
MODEL 14
USER: ADFR SOLUTION from run 103
USER: SCORE 15.097609 LL:  -2.703 LR: -12.680 RR:   0.000 FEB:  -8.206
USER: RMSD 10.430543
USER: SEED 102
USER: STATUS no improvement in best in 3 clusters for 5 generations
USER: GENES 17
USER: genes 0 Translation |==|  0.74142 0.50148 0.23978
USER: genes 1 Rotation |==|  0.62956 0.23464 0.33294 0.86728
USER: genes 2 Torsion [N]-C--CA-[N] |==|  0.93384
USER: genes 3 Torsion [C]-CA--CB-[OG] |==|  0.29621
USER: genes 4 Torsion [CA]-CB--OG-[HG] |==|  0.42608
USER: genes 5 Torsion [C]-CA--N-[C] |==|  0.79023
USER: genes 6 Torsion [N]-C--CA-[N] |==|  0.95709
USER: genes 7 Torsion [C]-CA--N-[C] |==|  0.71667
USER: genes 8 Torsion [N]-C--CA-[N] |==|  0.56135
USER: genes 9 Torsion [C]-CA--CB-[CG] |==|  0.51103
USER: genes 10 Torsion [CA]-CB--CG-[ND2] |==|  0.86197
USER: genes 11 Torsion [C]-N--CA-[CB] |==|  0.85168
USER: genes 12 Torsion [N]-CA--C-[N] |==|  0.38708
USER: genes 13 Torsion [N]-CA--C-[N] |==|  0.91490
USER: genes 14 Torsion [C]-N--CA-[C] |==|  0.72440
USER: genes 15 Torsion [N]-CA--C-[O] |==|  0.99223
USER: genes 16 Torsion [N]-CA--CB-[CG2] |==|  0.83932
ROOT
ATOM      1  C   SER E1029      86.642  -3.629 158.116  1.00 13.48 LIG 0.24  C 
ATOM      2 O    SER E1029      87.008  -3.360 156.985  1.00 12.15 LIG-0.27  OA
ATOM      3  N   ALA E1030      85.807  -2.839 158.816  1.00 12.52 LIG-0.35  N 
ATOM      4 H    ALA E1030      85.591  -2.974 159.638  1.00 12.52 LIG 0.16  HD
ENDROOT
BRANCH 1 5
ATOM      5  CA  SER E1029      87.136  -4.873 158.816  1.00 13.36 LIG 0.20  C 
BRANCH 5 6
ATOM      6  CB  SER E1029      86.269  -6.062 158.421  1.00 14.53 LIG 0.20  C 
BRANCH 6 7
ATOM      7 OG   SER E1029      87.003  -6.909 157.528  1.00 16.05 LIG-0.40  OA
ATOM      8 HG   SER E1029      86.718  -7.696 157.590  1.00 16.05 LIG 0.21  HD
ENDBRANCH 6 7
ENDBRANCH 5 6
BRANCH 5 9
ATOM      9  N   SER E1029      87.075  -4.710 160.268  1.00 13.57 LIG-0.34  N 
ATOM     10 H    SER E1029      86.427  -5.129 160.648  1.00 13.57 LIG 0.16  HD
ATOM     11  C   ALA E1028      87.968  -3.963 160.919  1.00 13.26 LIG 0.24  C 
ATOM     12 O    ALA E1028      88.774  -3.252 160.358  1.00 11.29 LIG-0.27  OA
BRANCH 11 13
ATOM     13  CA  ALA E1028      87.941  -4.044 162.448  1.00 14.25 LIG 0.17  C 
ATOM     14  CB  ALA E1028      89.156  -4.824 162.948  1.00 14.71 LIG 0.04  C 
BRANCH 13 15
ATOM     15  N   ALA E1028      86.693  -4.657 162.908  1.00 14.53 LIG-0.35  N 
ATOM     16 H    ALA E1028      86.669  -5.514 162.834  1.00 14.53 LIG 0.16  HD
ATOM     17  C   ASN E1027      85.702  -3.930 163.392  1.00 16.30 LIG 0.26  C 
ATOM     18 O    ASN E1027      85.755  -2.671 163.431  1.00 15.77 LIG-0.27  OA
BRANCH 17 19
ATOM     19  CA  ASN E1027      84.471  -4.720 163.874  1.00 16.82 LIG 0.41  C 
ATOM     20  N   ASN E1027      83.222  -3.900 163.912  1.00 18.81 LIG 0.61  N 
BRANCH 19 21
ATOM     21  CB  ASN E1027      84.167  -5.952 162.970  1.00 15.29 LIG 0.15  C 
BRANCH 21 22
ATOM     22  CG  ASN E1027      82.893  -6.693 163.376  1.00 13.40 LIG 0.22  C 
ATOM     23 OD1  ASN E1027      82.051  -7.046 162.542  1.00 12.35 LIG-0.27  OA
ATOM     24  ND2 ASN E1027      82.794  -6.995 164.666  1.00 11.10 LIG-0.37  N 
ATOM     25 22HD ASN E1027      83.399  -6.731 165.217  1.00 11.10 LIG 0.16  HD
ATOM     26 21HD ASN E1027      82.125  -7.454 164.951  1.00 11.10 LIG 0.16  HD
ENDBRANCH 21 22
ENDBRANCH 19 21
ENDBRANCH 17 19
ENDBRANCH 13 15
ENDBRANCH 11 13
ENDBRANCH 5 9
ENDBRANCH 1 5
BRANCH 3 27
ATOM     27  CA  ALA E1030      85.195  -1.668 158.212  1.00 12.56 LIG 0.17  C 
ATOM     28  CB  ALA E1030      86.313  -0.803 157.611  1.00 12.51 LIG 0.04  C 
BRANCH 27 29
ATOM     29  C   ALA E1030      84.192  -2.111 157.088  1.00 13.31 LIG 0.24  C 
ATOM     30  N   PRO E1031      83.046  -1.482 156.980  1.00 14.65 LIG-0.34  N 
ATOM     31  CD  PRO E1031      82.530  -0.444 157.888  1.00 15.56 LIG 0.13  C 
ATOM     32  CA  PRO E1031      82.106  -1.744 155.845  1.00 16.02 LIG 0.18  C 
ATOM     33  CG  PRO E1031      81.209  -0.098 157.295  1.00 15.81 LIG 0.02  C 
ATOM     34  CB  PRO E1031      80.807  -1.251 156.399  1.00 15.56 LIG 0.04  C 
ATOM     35 O    ALA E1030      84.552  -2.932 156.281  1.00 13.62 LIG-0.27  OA
BRANCH 32 36
ATOM     36  C   PRO E1031      82.512  -0.968 154.545  1.00 15.62 LIG 0.24  C 
ATOM     37  N   VAL E1032      83.120   0.182 154.755  1.00 15.06 LIG-0.35  N 
ATOM     38 H    VAL E1032      83.388   0.458 155.525  1.00 15.06 LIG 0.16  HD
ATOM     39 O    PRO E1031      82.250  -1.403 153.419  1.00 15.42 LIG-0.27  OA
BRANCH 37 40
ATOM     40  CA  VAL E1032      83.382   1.075 153.671  1.00 17.90 LIG 0.17  C 
BRANCH 40 41
ATOM     41  C   VAL E1032      84.867   0.906 153.214  1.00 17.55 LIG 0.22  C 
ATOM     42 O    VAL E1032      85.565   0.105 153.867  1.00 19.34 LIG-0.29  OA
ENDBRANCH 40 41
BRANCH 40 43
ATOM     43  CB  VAL E1032      83.025   2.519 154.061  1.00 18.34 LIG 0.01  C 
ATOM     44  CG2 VAL E1032      81.561   2.620 154.476  1.00 18.91 LIG 0.01  C 
ATOM     45  CG1 VAL E1032      83.255   3.474 152.917  1.00 20.19 LIG 0.01  C 
ENDBRANCH 40 43
ENDBRANCH 37 40
ENDBRANCH 32 36
ENDBRANCH 27 29
ENDBRANCH 3 27
TORSDOF 15
ENDMDL
MODEL 15
USER: ADFR SOLUTION from run 138
USER: SCORE 14.226265 LL:  -2.610 LR: -12.666 RR:   0.000 FEB:  -8.191
USER: RMSD 2.578268
USER: SEED 137
USER: STATUS no improvement in best in 8 clusters for 5 generations
USER: GENES 17
USER: genes 0 Translation |==|  0.48937 0.41627 0.51727
USER: genes 1 Rotation |==|  0.87570 0.49008 0.19379 0.62240
USER: genes 2 Torsion [N]-C--CA-[N] |==|  0.67742
USER: genes 3 Torsion [C]-CA--CB-[OG] |==|  0.25252
USER: genes 4 Torsion [CA]-CB--OG-[HG] |==|  0.23076
USER: genes 5 Torsion [C]-CA--N-[C] |==|  0.67460
USER: genes 6 Torsion [N]-C--CA-[N] |==|  0.41651
USER: genes 7 Torsion [C]-CA--N-[C] |==|  0.77878
USER: genes 8 Torsion [N]-C--CA-[N] |==|  0.44743
USER: genes 9 Torsion [C]-CA--CB-[CG] |==|  0.38203
USER: genes 10 Torsion [CA]-CB--CG-[ND2] |==|  0.34623
USER: genes 11 Torsion [C]-N--CA-[CB] |==|  0.79202
USER: genes 12 Torsion [N]-CA--C-[N] |==|  0.23359
USER: genes 13 Torsion [N]-CA--C-[N] |==|  0.08521
USER: genes 14 Torsion [C]-N--CA-[C] |==|  0.78414
USER: genes 15 Torsion [N]-CA--C-[O] |==|  0.24528
USER: genes 16 Torsion [N]-CA--CB-[CG2] |==|  0.42570
ROOT
ATOM      1  C   SER E1029      81.538  -4.971 164.152  1.00 13.48 LIG 0.24  C 
ATOM      2 O    SER E1029      81.828  -3.952 164.756  1.00 12.15 LIG-0.27  OA
ATOM      3  N   ALA E1030      80.759  -5.932 164.680  1.00 12.52 LIG-0.35  N 
ATOM      4 H    ALA E1030      80.598  -6.686 164.299  1.00 12.52 LIG 0.16  HD
ENDROOT
BRANCH 1 5
ATOM      5  CA  SER E1029      82.070  -5.225 162.761  1.00 13.36 LIG 0.20  C 
BRANCH 5 6
ATOM      6  CB  SER E1029      81.498  -6.531 162.224  1.00 14.53 LIG 0.20  C 
BRANCH 6 7
ATOM      7 OG   SER E1029      80.282  -6.261 161.514  1.00 16.05 LIG-0.40  OA
ATOM      8 HG   SER E1029      80.463  -6.021 160.730  1.00 16.05 LIG 0.21  HD
ENDBRANCH 6 7
ENDBRANCH 5 6
BRANCH 5 9
ATOM      9  N   SER E1029      83.529  -5.322 162.774  1.00 13.57 LIG-0.34  N 
ATOM     10 H    SER E1029      83.840  -5.977 163.238  1.00 13.57 LIG 0.16  HD
ATOM     11  C   ALA E1028      84.288  -4.449 162.110  1.00 13.26 LIG 0.24  C 
ATOM     12 O    ALA E1028      83.847  -3.443 161.596  1.00 11.29 LIG-0.27  OA
BRANCH 11 13
ATOM     13  CA  ALA E1028      85.781  -4.777 162.011  1.00 14.25 LIG 0.17  C 
ATOM     14  CB  ALA E1028      86.514  -4.232 163.235  1.00 14.71 LIG 0.04  C 
BRANCH 13 15
ATOM     15  N   ALA E1028      86.344  -4.236 160.772  1.00 14.53 LIG-0.35  N 
ATOM     16 H    ALA E1028      86.775  -3.498 160.869  1.00 14.53 LIG 0.16  HD
ATOM     17  C   ASN E1027      86.186  -4.851 159.613  1.00 16.30 LIG 0.26  C 
ATOM     18 O    ASN E1027      85.498  -5.902 159.504  1.00 15.77 LIG-0.27  OA
BRANCH 17 19
ATOM     19  CA  ASN E1027      86.871  -4.183 158.407  1.00 16.82 LIG 0.41  C 
ATOM     20  N   ASN E1027      87.053  -5.106 157.246  1.00 18.81 LIG 0.61  N 
BRANCH 19 21
ATOM     21  CB  ASN E1027      86.072  -2.954 157.877  1.00 15.29 LIG 0.15  C 
BRANCH 21 22
ATOM     22  CG  ASN E1027      86.966  -1.764 157.528  1.00 13.40 LIG 0.22  C 
ATOM     23 OD1  ASN E1027      87.797  -1.318 158.328  1.00 12.35 LIG-0.27  OA
ATOM     24  ND2 ASN E1027      86.842  -1.300 156.290  1.00 11.10 LIG-0.37  N 
ATOM     25 22HD ASN E1027      86.252  -1.635 155.762  1.00 11.10 LIG 0.16  HD
ATOM     26 21HD ASN E1027      87.352  -0.663 156.016  1.00 11.10 LIG 0.16  HD
ENDBRANCH 21 22
ENDBRANCH 19 21
ENDBRANCH 17 19
ENDBRANCH 13 15
ENDBRANCH 11 13
ENDBRANCH 5 9
ENDBRANCH 1 5
BRANCH 3 27
ATOM     27  CA  ALA E1030      80.115  -5.754 165.970  1.00 12.56 LIG 0.17  C 
ATOM     28  CB  ALA E1030      81.184  -5.910 167.062  1.00 12.51 LIG 0.04  C 
BRANCH 27 29
ATOM     29  C   ALA E1030      79.467  -4.326 166.050  1.00 13.31 LIG 0.24  C 
ATOM     30  N   PRO E1031      78.270  -4.146 165.544  1.00 14.65 LIG-0.34  N 
ATOM     31  CD  PRO E1031      77.481  -5.136 164.791  1.00 15.56 LIG 0.13  C 
ATOM     32  CA  PRO E1031      77.526  -2.859 165.715  1.00 16.02 LIG 0.18  C 
ATOM     33  CG  PRO E1031      76.230  -4.399 164.463  1.00 15.81 LIG 0.02  C 
ATOM     34  CB  PRO E1031      76.537  -2.922 164.593  1.00 15.56 LIG 0.04  C 
ATOM     35 O    ALA E1030      80.032  -3.467 166.680  1.00 13.62 LIG-0.27  OA
BRANCH 32 36
ATOM     36  C   PRO E1031      76.815  -2.762 167.108  1.00 15.62 LIG 0.24  C 
ATOM     37  N   VAL E1032      77.425  -3.402 168.085  1.00 15.06 LIG-0.35  N 
ATOM     38 H    VAL E1032      78.206  -3.756 168.022  1.00 15.06 LIG 0.16  HD
ATOM     39 O    PRO E1031      75.751  -2.152 167.255  1.00 15.42 LIG-0.27  OA
BRANCH 37 40
ATOM     40  CA  VAL E1032      76.798  -3.550 169.361  1.00 17.90 LIG 0.17  C 
BRANCH 40 41
ATOM     41  C   VAL E1032      76.919  -2.207 170.151  1.00 17.55 LIG 0.22  C 
ATOM     42 O    VAL E1032      76.012  -1.370 169.973  1.00 19.34 LIG-0.29  OA
ENDBRANCH 40 41
BRANCH 40 43
ATOM     43  CB  VAL E1032      77.382  -4.755 170.114  1.00 18.34 LIG 0.01  C 
ATOM     44  CG2 VAL E1032      77.253  -4.564 171.622  1.00 18.91 LIG 0.01  C 
ATOM     45  CG1 VAL E1032      78.841  -4.957 169.791  1.00 20.19 LIG 0.01  C 
ENDBRANCH 40 43
ENDBRANCH 37 40
ENDBRANCH 32 36
ENDBRANCH 27 29
ENDBRANCH 3 27
TORSDOF 15
ENDMDL
MODEL 16
USER: ADFR SOLUTION from run 2
USER: SCORE 15.127727 LL:  -2.995 LR: -12.655 RR:   0.000 FEB:  -8.180
USER: RMSD 3.661668
USER: SEED 887473
USER: STATUS 1 or 2 clusters left
USER: GENES 17
USER: genes 0 Translation |==|  0.38523 0.49684 0.42716
USER: genes 1 Rotation |==|  0.39349 0.61140 0.59625 0.96581
USER: genes 2 Torsion [N]-C--CA-[N] |==|  0.38591
USER: genes 3 Torsion [C]-CA--CB-[OG] |==|  0.82748
USER: genes 4 Torsion [CA]-CB--OG-[HG] |==|  0.81212
USER: genes 5 Torsion [C]-CA--N-[C] |==|  0.83698
USER: genes 6 Torsion [N]-C--CA-[N] |==|  0.14141
USER: genes 7 Torsion [C]-CA--N-[C] |==|  0.16407
USER: genes 8 Torsion [N]-C--CA-[N] |==|  0.71642
USER: genes 9 Torsion [C]-CA--CB-[CG] |==|  0.54457
USER: genes 10 Torsion [CA]-CB--CG-[ND2] |==|  0.86833
USER: genes 11 Torsion [C]-N--CA-[CB] |==|  0.77580
USER: genes 12 Torsion [N]-CA--C-[N] |==|  0.20497
USER: genes 13 Torsion [N]-CA--C-[N] |==|  0.90615
USER: genes 14 Torsion [C]-N--CA-[C] |==|  0.61650
USER: genes 15 Torsion [N]-CA--C-[O] |==|  0.08288
USER: genes 16 Torsion [N]-CA--CB-[CG2] |==|  0.00920
ROOT
ATOM      1  C   SER E1029      79.429  -3.702 162.192  1.00 13.48 LIG 0.24  C 
ATOM      2 O    SER E1029      78.787  -4.738 162.211  1.00 12.15 LIG-0.27  OA
ATOM      3  N   ALA E1030      79.079  -2.617 162.906  1.00 12.52 LIG-0.35  N 
ATOM      4 H    ALA E1030      79.477  -1.856 162.855  1.00 12.52 LIG 0.16  HD
ENDROOT
BRANCH 1 5
ATOM      5  CA  SER E1029      80.660  -3.569 161.326  1.00 13.36 LIG 0.20  C 
BRANCH 5 6
ATOM      6  CB  SER E1029      80.245  -3.338 159.878  1.00 14.53 LIG 0.20  C 
BRANCH 6 7
ATOM      7 OG   SER E1029      79.503  -4.471 159.410  1.00 16.05 LIG-0.40  OA
ATOM      8 HG   SER E1029      80.011  -5.138 159.360  1.00 16.05 LIG 0.21  HD
ENDBRANCH 6 7
ENDBRANCH 5 6
BRANCH 5 9
ATOM      9  N   SER E1029      81.474  -4.782 161.393  1.00 13.57 LIG-0.34  N 
ATOM     10 H    SER E1029      81.605  -5.167 160.636  1.00 13.57 LIG 0.16  HD
ATOM     11  C   ALA E1028      81.959  -5.227 162.553  1.00 13.26 LIG 0.24  C 
ATOM     12 O    ALA E1028      81.636  -4.767 163.628  1.00 11.29 LIG-0.27  OA
BRANCH 11 13
ATOM     13  CA  ALA E1028      82.976  -6.369 162.476  1.00 14.25 LIG 0.17  C 
ATOM     14  CB  ALA E1028      83.540  -6.657 163.866  1.00 14.71 LIG 0.04  C 
BRANCH 13 15
ATOM     15  N   ALA E1028      84.044  -6.043 161.527  1.00 14.53 LIG-0.35  N 
ATOM     16 H    ALA E1028      84.124  -6.599 160.877  1.00 14.53 LIG 0.16  HD
ATOM     17  C   ASN E1027      84.805  -4.974 161.684  1.00 16.30 LIG 0.26  C 
ATOM     18 O    ASN E1027      84.691  -4.214 162.683  1.00 15.77 LIG-0.27  OA
BRANCH 17 19
ATOM     19  CA  ASN E1027      85.856  -4.740 160.583  1.00 16.82 LIG 0.41  C 
ATOM     20  N   ASN E1027      87.236  -5.148 160.989  1.00 18.81 LIG 0.61  N 
BRANCH 19 21
ATOM     21  CB  ASN E1027      85.529  -5.522 159.275  1.00 15.29 LIG 0.15  C 
BRANCH 21 22
ATOM     22  CG  ASN E1027      86.722  -5.625 158.325  1.00 13.40 LIG 0.22  C 
ATOM     23 OD1  ASN E1027      87.004  -6.681 157.748  1.00 12.35 LIG-0.27  OA
ATOM     24  ND2 ASN E1027      87.378  -4.491 158.107  1.00 11.10 LIG-0.37  N 
ATOM     25 22HD ASN E1027      87.153  -3.775 158.527  1.00 11.10 LIG 0.16  HD
ATOM     26 21HD ASN E1027      88.028  -4.471 157.544  1.00 11.10 LIG 0.16  HD
ENDBRANCH 21 22
ENDBRANCH 19 21
ENDBRANCH 17 19
ENDBRANCH 13 15
ENDBRANCH 11 13
ENDBRANCH 5 9
ENDBRANCH 1 5
BRANCH 3 27
ATOM     27  CA  ALA E1030      77.971  -2.659 163.844  1.00 12.56 LIG 0.17  C 
ATOM     28  CB  ALA E1030      76.667  -2.499 163.049  1.00 12.51 LIG 0.04  C 
BRANCH 27 29
ATOM     29  C   ALA E1030      77.971  -4.031 164.609  1.00 13.31 LIG 0.24  C 
ATOM     30  N   PRO E1031      78.876  -4.238 165.535  1.00 14.65 LIG-0.34  N 
ATOM     31  CD  PRO E1031      79.996  -3.345 165.878  1.00 15.56 LIG 0.13  C 
ATOM     32  CA  PRO E1031      78.849  -5.454 166.408  1.00 16.02 LIG 0.18  C 
ATOM     33  CG  PRO E1031      80.690  -4.073 166.975  1.00 15.81 LIG 0.02  C 
ATOM     34  CB  PRO E1031      80.266  -5.525 166.885  1.00 15.56 LIG 0.04  C 
ATOM     35 O    ALA E1030      77.068  -4.805 164.411  1.00 13.62 LIG-0.27  OA
BRANCH 32 36
ATOM     36  C   PRO E1031      77.844  -5.307 167.601  1.00 15.62 LIG 0.24  C 
ATOM     37  N   VAL E1032      77.731  -4.085 168.081  1.00 15.06 LIG-0.35  N 
ATOM     38 H    VAL E1032      78.079  -3.386 167.721  1.00 15.06 LIG 0.16  HD
ATOM     39 O    PRO E1031      77.233  -6.277 168.060  1.00 15.42 LIG-0.27  OA
BRANCH 37 40
ATOM     40  CA  VAL E1032      76.993  -3.840 169.280  1.00 17.90 LIG 0.17  C 
BRANCH 40 41
ATOM     41  C   VAL E1032      76.134  -2.546 169.098  1.00 17.55 LIG 0.22  C 
ATOM     42 O    VAL E1032      75.753  -2.287 167.940  1.00 19.34 LIG-0.29  OA
ENDBRANCH 40 41
BRANCH 40 43
ATOM     43  CB  VAL E1032      77.934  -3.781 170.493  1.00 18.34 LIG 0.01  C 
ATOM     44  CG2 VAL E1032      79.389  -3.919 170.056  1.00 18.91 LIG 0.01  C 
ATOM     45  CG1 VAL E1032      77.635  -4.880 171.481  1.00 20.19 LIG 0.01  C 
ENDBRANCH 40 43
ENDBRANCH 37 40
ENDBRANCH 32 36
ENDBRANCH 27 29
ENDBRANCH 3 27
TORSDOF 15
ENDMDL
MODEL 17
USER: ADFR SOLUTION from run 5
USER: SCORE 14.432878 LL:  -2.552 LR: -12.582 RR:   0.000 FEB:  -8.107
USER: RMSD 3.456818
USER: SEED 25338
USER: STATUS no improvement in best in 8 clusters for 5 generations
USER: GENES 17
USER: genes 0 Translation |==|  0.51530 0.39837 0.57121
USER: genes 1 Rotation |==|  0.05301 0.54338 0.71126 0.56074
USER: genes 2 Torsion [N]-C--CA-[N] |==|  0.48856
USER: genes 3 Torsion [C]-CA--CB-[OG] |==|  0.18587
USER: genes 4 Torsion [CA]-CB--OG-[HG] |==|  0.73948
USER: genes 5 Torsion [C]-CA--N-[C] |==|  0.55258
USER: genes 6 Torsion [N]-C--CA-[N] |==|  0.42161
USER: genes 7 Torsion [C]-CA--N-[C] |==|  0.51667
USER: genes 8 Torsion [N]-C--CA-[N] |==|  0.87902
USER: genes 9 Torsion [C]-CA--CB-[CG] |==|  0.73163
USER: genes 10 Torsion [CA]-CB--CG-[ND2] |==|  0.58927
USER: genes 11 Torsion [C]-N--CA-[CB] |==|  0.85734
USER: genes 12 Torsion [N]-CA--C-[N] |==|  0.33043
USER: genes 13 Torsion [N]-CA--C-[N] |==|  0.08018
USER: genes 14 Torsion [C]-N--CA-[C] |==|  0.81233
USER: genes 15 Torsion [N]-CA--C-[O] |==|  0.27075
USER: genes 16 Torsion [N]-CA--CB-[CG2] |==|  0.43318
ROOT
ATOM      1  C   SER E1029      82.063  -5.253 165.325  1.00 13.48 LIG 0.24  C 
ATOM      2 O    SER E1029      82.214  -4.859 166.468  1.00 12.15 LIG-0.27  OA
ATOM      3  N   ALA E1030      80.897  -5.752 164.877  1.00 12.52 LIG-0.35  N 
ATOM      4 H    ALA E1030      80.788  -6.098 164.097  1.00 12.52 LIG 0.16  HD
ENDROOT
BRANCH 1 5
ATOM      5  CA  SER E1029      83.207  -5.226 164.338  1.00 13.36 LIG 0.20  C 
BRANCH 5 6
ATOM      6  CB  SER E1029      83.582  -6.651 163.951  1.00 14.53 LIG 0.20  C 
BRANCH 6 7
ATOM      7 OG   SER E1029      82.506  -7.241 163.209  1.00 16.05 LIG-0.40  OA
ATOM      8 HG   SER E1029      82.005  -7.667 163.732  1.00 16.05 LIG 0.21  HD
ENDBRANCH 6 7
ENDBRANCH 5 6
BRANCH 5 9
ATOM      9  N   SER E1029      84.379  -4.574 164.920  1.00 13.57 LIG-0.34  N 
ATOM     10 H    SER E1029      84.372  -4.527 165.779  1.00 13.57 LIG 0.16  HD
ATOM     11  C   ALA E1028      85.361  -4.101 164.152  1.00 13.26 LIG 0.24  C 
ATOM     12 O    ALA E1028      85.284  -4.030 162.944  1.00 11.29 LIG-0.27  OA
BRANCH 11 13
ATOM     13  CA  ALA E1028      86.632  -3.643 164.874  1.00 14.25 LIG 0.17  C 
ATOM     14  CB  ALA E1028      86.471  -2.198 165.343  1.00 14.71 LIG 0.04  C 
BRANCH 13 15
ATOM     15  N   ALA E1028      87.799  -3.789 163.999  1.00 14.53 LIG-0.35  N 
ATOM     16 H    ALA E1028      87.612  -4.026 163.194  1.00 14.53 LIG 0.16  HD
ATOM     17  C   ASN E1027      89.025  -3.568 164.439  1.00 16.30 LIG 0.26  C 
ATOM     18 O    ASN E1027      89.260  -3.276 165.643  1.00 15.77 LIG-0.27  OA
BRANCH 17 19
ATOM     19  CA  ASN E1027      90.144  -3.721 163.392  1.00 16.82 LIG 0.41  C 
ATOM     20  N   ASN E1027      89.979  -4.926 162.523  1.00 18.81 LIG 0.61  N 
BRANCH 19 21
ATOM     21  CB  ASN E1027      90.232  -2.493 162.436  1.00 15.29 LIG 0.15  C 
BRANCH 21 22
ATOM     22  CG  ASN E1027      89.489  -2.706 161.117  1.00 13.40 LIG 0.22  C 
ATOM     23 OD1  ASN E1027      88.431  -3.344 161.062  1.00 12.35 LIG-0.27  OA
ATOM     24  ND2 ASN E1027      90.015  -2.097 160.060  1.00 11.10 LIG-0.37  N 
ATOM     25 22HD ASN E1027      90.753  -1.663 160.137  1.00 11.10 LIG 0.16  HD
ATOM     26 21HD ASN E1027      89.617  -2.137 159.299  1.00 11.10 LIG 0.16  HD
ENDBRANCH 21 22
ENDBRANCH 19 21
ENDBRANCH 17 19
ENDBRANCH 13 15
ENDBRANCH 11 13
ENDBRANCH 5 9
ENDBRANCH 1 5
BRANCH 3 27
ATOM     27  CA  ALA E1030      79.705  -5.739 165.707  1.00 12.56 LIG 0.17  C 
ATOM     28  CB  ALA E1030      80.063  -6.359 167.065  1.00 12.51 LIG 0.04  C 
BRANCH 27 29
ATOM     29  C   ALA E1030      79.207  -4.263 165.902  1.00 13.31 LIG 0.24  C 
ATOM     30  N   PRO E1031      78.011  -3.937 165.472  1.00 14.65 LIG-0.34  N 
ATOM     31  CD  PRO E1031      77.093  -4.797 164.706  1.00 15.56 LIG 0.13  C 
ATOM     32  CA  PRO E1031      77.409  -2.596 165.754  1.00 16.02 LIG 0.18  C 
ATOM     33  CG  PRO E1031      75.908  -3.923 164.487  1.00 15.81 LIG 0.02  C 
ATOM     34  CB  PRO E1031      76.367  -2.493 164.685  1.00 15.56 LIG 0.04  C 
ATOM     35 O    ALA E1030      79.884  -3.503 166.549  1.00 13.62 LIG-0.27  OA
BRANCH 32 36
ATOM     36  C   PRO E1031      76.777  -2.517 167.187  1.00 15.62 LIG 0.24  C 
ATOM     37  N   VAL E1032      77.342  -3.300 168.083  1.00 15.06 LIG-0.35  N 
ATOM     38 H    VAL E1032      78.068  -3.744 167.954  1.00 15.06 LIG 0.16  HD
ATOM     39 O    PRO E1031      75.809  -1.792 167.432  1.00 15.42 LIG-0.27  OA
BRANCH 37 40
ATOM     40  CA  VAL E1032      76.758  -3.465 169.377  1.00 17.90 LIG 0.17  C 
BRANCH 40 41
ATOM     41  C   VAL E1032      76.859  -2.117 170.161  1.00 17.55 LIG 0.22  C 
ATOM     42 O    VAL E1032      75.848  -1.388 170.151  1.00 19.34 LIG-0.29  OA
ENDBRANCH 40 41
BRANCH 40 43
ATOM     43  CB  VAL E1032      77.402  -4.650 170.115  1.00 18.34 LIG 0.01  C 
ATOM     44  CG2 VAL E1032      77.252  -4.491 171.625  1.00 18.91 LIG 0.01  C 
ATOM     45  CG1 VAL E1032      78.871  -4.766 169.800  1.00 20.19 LIG 0.01  C 
ENDBRANCH 40 43
ENDBRANCH 37 40
ENDBRANCH 32 36
ENDBRANCH 27 29
ENDBRANCH 3 27
TORSDOF 15
ENDMDL
MODEL 18
USER: ADFR SOLUTION from run 72
USER: SCORE 13.320432 LL:  -2.050 LR: -12.548 RR:   0.000 FEB:  -8.074
USER: RMSD 4.071823
USER: SEED 71
USER: STATUS no improvement in best in 4 clusters for 5 generations
USER: GENES 17
USER: genes 0 Translation |==|  0.52361 0.39679 0.51619
USER: genes 1 Rotation |==|  0.77967 0.59940 0.28613 0.84082
USER: genes 2 Torsion [N]-C--CA-[N] |==|  0.85332
USER: genes 3 Torsion [C]-CA--CB-[OG] |==|  0.23018
USER: genes 4 Torsion [CA]-CB--OG-[HG] |==|  0.28991
USER: genes 5 Torsion [C]-CA--N-[C] |==|  0.87222
USER: genes 6 Torsion [N]-C--CA-[N] |==|  0.16446
USER: genes 7 Torsion [C]-CA--N-[C] |==|  0.14416
USER: genes 8 Torsion [N]-C--CA-[N] |==|  0.74080
USER: genes 9 Torsion [C]-CA--CB-[CG] |==|  0.21864
USER: genes 10 Torsion [CA]-CB--CG-[ND2] |==|  0.37497
USER: genes 11 Torsion [C]-N--CA-[CB] |==|  0.79973
USER: genes 12 Torsion [N]-CA--C-[N] |==|  0.53698
USER: genes 13 Torsion [N]-CA--C-[N] |==|  0.51474
USER: genes 14 Torsion [C]-N--CA-[C] |==|  0.74222
USER: genes 15 Torsion [N]-CA--C-[O] |==|  0.99225
USER: genes 16 Torsion [N]-CA--CB-[CG2] |==|  0.90154
ROOT
ATOM      1  C   SER E1029      82.231  -5.278 164.128  1.00 13.48 LIG 0.24  C 
ATOM      2 O    SER E1029      81.457  -4.338 164.189  1.00 12.15 LIG-0.27  OA
ATOM      3  N   ALA E1030      82.506  -6.061 165.186  1.00 12.52 LIG-0.35  N 
ATOM      4 H    ALA E1030      83.099  -6.684 165.185  1.00 12.52 LIG 0.16  HD
ENDROOT
BRANCH 1 5
ATOM      5  CA  SER E1029      82.958  -5.602 162.844  1.00 13.36 LIG 0.20  C 
BRANCH 5 6
ATOM      6  CB  SER E1029      82.484  -6.950 162.314  1.00 14.53 LIG 0.20  C 
BRANCH 6 7
ATOM      7 OG   SER E1029      81.267  -6.769 161.578  1.00 16.05 LIG-0.40  OA
ATOM      8 HG   SER E1029      81.427  -6.816 160.755  1.00 16.05 LIG 0.21  HD
ENDBRANCH 6 7
ENDBRANCH 5 6
BRANCH 5 9
ATOM      9  N   SER E1029      84.401  -5.668 163.068  1.00 13.57 LIG-0.34  N 
ATOM     10 H    SER E1029      84.788  -6.349 162.712  1.00 13.57 LIG 0.16  HD
ATOM     11  C   ALA E1028      85.036  -4.730 163.773  1.00 13.26 LIG 0.24  C 
ATOM     12 O    ALA E1028      84.460  -3.867 164.400  1.00 11.29 LIG-0.27  OA
BRANCH 11 13
ATOM     13  CA  ALA E1028      86.567  -4.780 163.754  1.00 14.25 LIG 0.17  C 
ATOM     14  CB  ALA E1028      87.133  -3.679 164.649  1.00 14.71 LIG 0.04  C 
BRANCH 13 15
ATOM     15  N   ALA E1028      87.067  -4.656 162.382  1.00 14.53 LIG-0.35  N 
ATOM     16 H    ALA E1028      87.622  -5.271 162.149  1.00 14.53 LIG 0.16  HD
ATOM     17  C   ASN E1027      86.681  -3.672 161.591  1.00 16.30 LIG 0.26  C 
ATOM     18 O    ASN E1027      85.908  -2.759 161.989  1.00 15.77 LIG-0.27  OA
BRANCH 17 19
ATOM     19  CA  ASN E1027      87.260  -3.700 160.164  1.00 16.82 LIG 0.41  C 
ATOM     20  N   ASN E1027      88.508  -2.890 160.018  1.00 18.81 LIG 0.61  N 
BRANCH 19 21
ATOM     21  CB  ASN E1027      87.610  -5.144 159.695  1.00 15.29 LIG 0.15  C 
BRANCH 21 22
ATOM     22  CG  ASN E1027      86.386  -5.940 159.242  1.00 13.40 LIG 0.22  C 
ATOM     23 OD1  ASN E1027      85.314  -5.890 159.856  1.00 12.35 LIG-0.27  OA
ATOM     24  ND2 ASN E1027      86.533  -6.620 158.110  1.00 11.10 LIG-0.37  N 
ATOM     25 22HD ASN E1027      87.294  -6.631 157.711  1.00 11.10 LIG 0.16  HD
ATOM     26 21HD ASN E1027      85.866  -7.048 157.776  1.00 11.10 LIG 0.16  HD
ENDBRANCH 21 22
ENDBRANCH 19 21
ENDBRANCH 17 19
ENDBRANCH 13 15
ENDBRANCH 11 13
ENDBRANCH 5 9
ENDBRANCH 1 5
BRANCH 3 27
ATOM     27  CA  ALA E1030      81.797  -5.902 166.445  1.00 12.56 LIG 0.17  C 
ATOM     28  CB  ALA E1030      82.284  -4.603 167.105  1.00 12.51 LIG 0.04  C 
BRANCH 27 29
ATOM     29  C   ALA E1030      80.251  -5.825 166.180  1.00 13.31 LIG 0.24  C 
ATOM     30  N   PRO E1031      79.464  -5.421 167.147  1.00 14.65 LIG-0.34  N 
ATOM     31  CD  PRO E1031      79.863  -5.121 168.532  1.00 15.56 LIG 0.13  C 
ATOM     32  CA  PRO E1031      78.003  -5.178 166.927  1.00 16.02 LIG 0.18  C 
ATOM     33  CG  PRO E1031      78.583  -4.720 169.179  1.00 15.81 LIG 0.02  C 
ATOM     34  CB  PRO E1031      77.461  -5.264 168.319  1.00 15.56 LIG 0.04  C 
ATOM     35 O    ALA E1030      79.845  -6.022 165.062  1.00 13.62 LIG-0.27  OA
BRANCH 32 36
ATOM     36  C   PRO E1031      77.723  -3.777 166.283  1.00 15.62 LIG 0.24  C 
ATOM     37  N   VAL E1032      76.448  -3.467 166.168  1.00 15.06 LIG-0.35  N 
ATOM     38 H    VAL E1032      75.803  -3.923 166.510  1.00 15.06 LIG 0.16  HD
ATOM     39 O    PRO E1031      78.638  -3.045 165.894  1.00 15.42 LIG-0.27  OA
BRANCH 37 40
ATOM     40  CA  VAL E1032      76.044  -2.307 165.437  1.00 17.90 LIG 0.17  C 
BRANCH 40 41
ATOM     41  C   VAL E1032      75.915  -1.100 166.422  1.00 17.55 LIG 0.22  C 
ATOM     42 O    VAL E1032      76.118  -1.339 167.628  1.00 19.34 LIG-0.29  OA
ENDBRANCH 40 41
BRANCH 40 43
ATOM     43  CB  VAL E1032      74.757  -2.587 164.645  1.00 18.34 LIG 0.01  C 
ATOM     44  CG2 VAL E1032      74.741  -4.023 164.129  1.00 18.91 LIG 0.01  C 
ATOM     45  CG1 VAL E1032      74.623  -1.664 163.461  1.00 20.19 LIG 0.01  C 
ENDBRANCH 40 43
ENDBRANCH 37 40
ENDBRANCH 32 36
ENDBRANCH 27 29
ENDBRANCH 3 27
TORSDOF 15
ENDMDL
MODEL 19
USER: ADFR SOLUTION from run 102
USER: SCORE 14.147333 LL:  -2.694 LR: -12.510 RR:   0.000 FEB:  -8.035
USER: RMSD 8.399519
USER: SEED 101
USER: STATUS no improvement in best in 12 clusters for 5 generations
USER: GENES 17
USER: genes 0 Translation |==|  0.70747 0.51439 0.20715
USER: genes 1 Rotation |==|  0.34847 0.48282 0.32362 0.94231
USER: genes 2 Torsion [N]-C--CA-[N] |==|  0.16107
USER: genes 3 Torsion [C]-CA--CB-[OG] |==|  0.46261
USER: genes 4 Torsion [CA]-CB--OG-[HG] |==|  0.48570
USER: genes 5 Torsion [C]-CA--N-[C] |==|  0.19328
USER: genes 6 Torsion [N]-C--CA-[N] |==|  0.05899
USER: genes 7 Torsion [C]-CA--N-[C] |==|  0.73203
USER: genes 8 Torsion [N]-C--CA-[N] |==|  0.98010
USER: genes 9 Torsion [C]-CA--CB-[CG] |==|  0.96043
USER: genes 10 Torsion [CA]-CB--CG-[ND2] |==|  0.19809
USER: genes 11 Torsion [C]-N--CA-[CB] |==|  0.85230
USER: genes 12 Torsion [N]-CA--C-[N] |==|  0.44745
USER: genes 13 Torsion [N]-CA--C-[N] |==|  0.21163
USER: genes 14 Torsion [C]-N--CA-[C] |==|  0.68892
USER: genes 15 Torsion [N]-CA--C-[O] |==|  0.84366
USER: genes 16 Torsion [N]-CA--CB-[CG2] |==|  0.79584
ROOT
ATOM      1  C   SER E1029      85.954  -3.425 157.406  1.00 13.48 LIG 0.24  C 
ATOM      2 O    SER E1029      84.864  -3.655 156.912  1.00 12.15 LIG-0.27  OA
ATOM      3  N   ALA E1030      86.380  -2.179 157.680  1.00 12.52 LIG-0.35  N 
ATOM      4 H    ALA E1030      87.170  -1.990 157.964  1.00 12.52 LIG 0.16  HD
ENDROOT
BRANCH 1 5
ATOM      5  CA  SER E1029      86.915  -4.548 157.720  1.00 13.36 LIG 0.20  C 
BRANCH 5 6
ATOM      6  CB  SER E1029      86.261  -5.887 157.400  1.00 14.53 LIG 0.20  C 
BRANCH 6 7
ATOM      7 OG   SER E1029      87.260  -6.914 157.395  1.00 16.05 LIG-0.40  OA
ATOM      8 HG   SER E1029      86.892  -7.662 157.289  1.00 16.05 LIG 0.21  HD
ENDBRANCH 6 7
ENDBRANCH 5 6
BRANCH 5 9
ATOM      9  N   SER E1029      87.286  -4.533 159.134  1.00 13.57 LIG-0.34  N 
ATOM     10 H    SER E1029      88.101  -4.307 159.289  1.00 13.57 LIG 0.16  HD
ATOM     11  C   ALA E1028      86.405  -4.851 160.084  1.00 13.26 LIG 0.24  C 
ATOM     12 O    ALA E1028      85.312  -5.321 159.847  1.00 11.29 LIG-0.27  OA
BRANCH 11 13
ATOM     13  CA  ALA E1028      86.834  -4.587 161.531  1.00 14.25 LIG 0.17  C 
ATOM     14  CB  ALA E1028      85.629  -4.137 162.355  1.00 14.71 LIG 0.04  C 
BRANCH 13 15
ATOM     15  N   ALA E1028      87.907  -3.590 161.573  1.00 14.53 LIG-0.35  N 
ATOM     16 H    ALA E1028      87.636  -2.774 161.549  1.00 14.53 LIG 0.16  HD
ATOM     17  C   ASN E1027      89.178  -3.943 161.643  1.00 16.30 LIG 0.26  C 
ATOM     18 O    ASN E1027      89.537  -5.152 161.621  1.00 15.77 LIG-0.27  OA
BRANCH 17 19
ATOM     19  CA  ASN E1027      90.187  -2.784 161.724  1.00 16.82 LIG 0.41  C 
ATOM     20  N   ASN E1027      89.558  -1.440 161.538  1.00 18.81 LIG 0.61  N 
BRANCH 19 21
ATOM     21  CB  ASN E1027      90.932  -2.739 163.092  1.00 15.29 LIG 0.15  C 
BRANCH 21 22
ATOM     22  CG  ASN E1027      90.274  -3.611 164.161  1.00 13.40 LIG 0.22  C 
ATOM     23 OD1  ASN E1027      89.609  -3.121 165.081  1.00 12.35 LIG-0.27  OA
ATOM     24  ND2 ASN E1027      90.400  -4.922 163.987  1.00 11.10 LIG-0.37  N 
ATOM     25 22HD ASN E1027      90.871  -5.226 163.335  1.00 11.10 LIG 0.16  HD
ATOM     26 21HD ASN E1027      90.010  -5.467 164.526  1.00 11.10 LIG 0.16  HD
ENDBRANCH 21 22
ENDBRANCH 19 21
ENDBRANCH 17 19
ENDBRANCH 13 15
ENDBRANCH 11 13
ENDBRANCH 5 9
ENDBRANCH 1 5
BRANCH 3 27
ATOM     27  CA  ALA E1030      85.506  -1.031 157.508  1.00 12.56 LIG 0.17  C 
ATOM     28  CB  ALA E1030      84.946  -1.068 156.078  1.00 12.51 LIG 0.04  C 
BRANCH 27 29
ATOM     29  C   ALA E1030      84.333  -1.094 158.549  1.00 13.31 LIG 0.24  C 
ATOM     30  N   PRO E1031      83.664   0.003 158.815  1.00 14.65 LIG-0.34  N 
ATOM     31  CD  PRO E1031      83.966   1.354 158.312  1.00 15.56 LIG 0.13  C 
ATOM     32  CA  PRO E1031      82.441  -0.008 159.678  1.00 16.02 LIG 0.18  C 
ATOM     33  CG  PRO E1031      82.903   2.194 158.931  1.00 15.81 LIG 0.02  C 
ATOM     34  CB  PRO E1031      82.358   1.421 160.114  1.00 15.56 LIG 0.04  C 
ATOM     35 O    ALA E1030      83.999  -2.169 158.983  1.00 13.62 LIG-0.27  OA
BRANCH 32 36
ATOM     36  C   PRO E1031      81.160  -0.448 158.890  1.00 15.62 LIG 0.24  C 
ATOM     37  N   VAL E1032      81.073  -1.741 158.656  1.00 15.06 LIG-0.35  N 
ATOM     38 H    VAL E1032      81.599  -2.334 158.992  1.00 15.06 LIG 0.16  HD
ATOM     39 O    PRO E1031      80.321   0.371 158.503  1.00 15.42 LIG-0.27  OA
BRANCH 37 40
ATOM     40  CA  VAL E1032      80.056  -2.258 157.795  1.00 17.90 LIG 0.17  C 
BRANCH 40 41
ATOM     41  C   VAL E1032      79.042  -3.094 158.643  1.00 17.55 LIG 0.22  C 
ATOM     42 O    VAL E1032      79.515  -4.032 159.313  1.00 19.34 LIG-0.29  OA
ENDBRANCH 40 41
BRANCH 40 43
ATOM     43  CB  VAL E1032      80.680  -3.051 156.636  1.00 18.34 LIG 0.01  C 
ATOM     44  CG2 VAL E1032      81.325  -2.110 155.623  1.00 18.91 LIG 0.01  C 
ATOM     45  CG1 VAL E1032      79.648  -3.881 155.913  1.00 20.19 LIG 0.01  C 
ENDBRANCH 40 43
ENDBRANCH 37 40
ENDBRANCH 32 36
ENDBRANCH 27 29
ENDBRANCH 3 27
TORSDOF 15
ENDMDL
MODEL 20
USER: ADFR SOLUTION from run 63
USER: SCORE 12.937832 LL:  -2.988 LR: -12.438 RR:   0.000 FEB:  -7.964
USER: RMSD 5.491288
USER: SEED 62
USER: STATUS no improvement in best in 7 clusters for 5 generations
USER: GENES 17
USER: genes 0 Translation |==|  0.53354 0.36244 0.39656
USER: genes 1 Rotation |==|  0.27289 0.47458 0.52504 0.94401
USER: genes 2 Torsion [N]-C--CA-[N] |==|  0.88305
USER: genes 3 Torsion [C]-CA--CB-[OG] |==|  0.57559
USER: genes 4 Torsion [CA]-CB--OG-[HG] |==|  0.84264
USER: genes 5 Torsion [C]-CA--N-[C] |==|  0.64116
USER: genes 6 Torsion [N]-C--CA-[N] |==|  0.30233
USER: genes 7 Torsion [C]-CA--N-[C] |==|  0.78838
USER: genes 8 Torsion [N]-C--CA-[N] |==|  0.26607
USER: genes 9 Torsion [C]-CA--CB-[CG] |==|  0.20899
USER: genes 10 Torsion [CA]-CB--CG-[ND2] |==|  0.80210
USER: genes 11 Torsion [C]-N--CA-[CB] |==|  0.19534
USER: genes 12 Torsion [N]-CA--C-[N] |==|  0.29151
USER: genes 13 Torsion [N]-CA--C-[N] |==|  0.14229
USER: genes 14 Torsion [C]-N--CA-[C] |==|  0.78623
USER: genes 15 Torsion [N]-CA--C-[O] |==|  0.05098
USER: genes 16 Torsion [N]-CA--CB-[CG2] |==|  0.26178
ROOT
ATOM      1  C   SER E1029      82.432  -5.819 161.526  1.00 13.48 LIG 0.24  C 
ATOM      2 O    SER E1029      81.746  -6.826 161.554  1.00 12.15 LIG-0.27  OA
ATOM      3  N   ALA E1030      81.908  -4.586 161.401  1.00 12.52 LIG-0.35  N 
ATOM      4 H    ALA E1030      82.375  -3.870 161.310  1.00 12.52 LIG 0.16  HD
ENDROOT
BRANCH 1 5
ATOM      5  CA  SER E1029      83.939  -5.904 161.605  1.00 13.36 LIG 0.20  C 
BRANCH 5 6
ATOM      6  CB  SER E1029      84.401  -5.519 163.005  1.00 14.53 LIG 0.20  C 
BRANCH 6 7
ATOM      7 OG   SER E1029      85.730  -4.988 162.937  1.00 16.05 LIG-0.40  OA
ATOM      8 HG   SER E1029      86.239  -5.552 162.578  1.00 16.05 LIG 0.21  HD
ENDBRANCH 6 7
ENDBRANCH 5 6
BRANCH 5 9
ATOM      9  N   SER E1029      84.560  -4.998 160.640  1.00 13.57 LIG-0.34  N 
ATOM     10 H    SER E1029      84.268  -4.190 160.668  1.00 13.57 LIG 0.16  HD
ATOM     11  C   ALA E1028      85.502  -5.424 159.797  1.00 13.26 LIG 0.24  C 
ATOM     12 O    ALA E1028      85.788  -6.595 159.658  1.00 11.29 LIG-0.27  OA
BRANCH 11 13
ATOM     13  CA  ALA E1028      86.235  -4.348 158.991  1.00 14.25 LIG 0.17  C 
ATOM     14  CB  ALA E1028      86.198  -4.698 157.504  1.00 14.71 LIG 0.04  C 
BRANCH 13 15
ATOM     15  N   ALA E1028      87.613  -4.202 159.466  1.00 14.53 LIG-0.35  N 
ATOM     16 H    ALA E1028      88.206  -4.561 158.956  1.00 14.53 LIG 0.16  HD
ATOM     17  C   ASN E1027      87.894  -3.565 160.589  1.00 16.30 LIG 0.26  C 
ATOM     18 O    ASN E1027      86.991  -3.101 161.337  1.00 15.77 LIG-0.27  OA
BRANCH 17 19
ATOM     19  CA  ASN E1027      89.390  -3.456 160.935  1.00 16.82 LIG 0.41  C 
ATOM     20  N   ASN E1027      90.005  -2.166 160.497  1.00 18.81 LIG 0.61  N 
BRANCH 19 21
ATOM     21  CB  ASN E1027      89.655  -3.577 162.466  1.00 15.29 LIG 0.15  C 
BRANCH 21 22
ATOM     22  CG  ASN E1027      89.533  -5.010 162.984  1.00 13.40 LIG 0.22  C 
ATOM     23 OD1  ASN E1027      90.514  -5.636 163.402  1.00 12.35 LIG-0.27  OA
ATOM     24  ND2 ASN E1027      88.299  -5.499 163.026  1.00 11.10 LIG-0.37  N 
ATOM     25 22HD ASN E1027      87.641  -5.034 162.726  1.00 11.10 LIG 0.16  HD
ATOM     26 21HD ASN E1027      88.157  -6.282 163.354  1.00 11.10 LIG 0.16  HD
ENDBRANCH 21 22
ENDBRANCH 19 21
ENDBRANCH 17 19
ENDBRANCH 13 15
ENDBRANCH 11 13
ENDBRANCH 5 9
ENDBRANCH 1 5
BRANCH 3 27
ATOM     27  CA  ALA E1030      80.470  -4.375 161.411  1.00 12.56 LIG 0.17  C 
ATOM     28  CB  ALA E1030      79.960  -4.637 162.836  1.00 12.51 LIG 0.04  C 
BRANCH 27 29
ATOM     29  C   ALA E1030      80.145  -2.900 160.983  1.00 13.31 LIG 0.24  C 
ATOM     30  N   PRO E1031      79.670  -2.680 159.781  1.00 14.65 LIG-0.34  N 
ATOM     31  CD  PRO E1031      79.501  -3.679 158.712  1.00 15.56 LIG 0.13  C 
ATOM     32  CA  PRO E1031      79.196  -1.326 159.354  1.00 16.02 LIG 0.18  C 
ATOM     33  CG  PRO E1031      78.939  -2.883 157.586  1.00 15.81 LIG 0.02  C 
ATOM     34  CB  PRO E1031      79.263  -1.430 157.863  1.00 15.56 LIG 0.04  C 
ATOM     35 O    ALA E1030      80.224  -2.026 161.811  1.00 13.62 LIG-0.27  OA
BRANCH 32 36
ATOM     36  C   PRO E1031      77.740  -1.022 159.848  1.00 15.62 LIG 0.24  C 
ATOM     37  N   VAL E1032      77.541  -1.221 161.135  1.00 15.06 LIG-0.35  N 
ATOM     38 H    VAL E1032      78.163  -1.393 161.704  1.00 15.06 LIG 0.16  HD
ATOM     39 O    PRO E1031      76.854  -0.652 159.072  1.00 15.42 LIG-0.27  OA
BRANCH 37 40
ATOM     40  CA  VAL E1032      76.223  -1.160 161.685  1.00 17.90 LIG 0.17  C 
BRANCH 40 41
ATOM     41  C   VAL E1032      75.794   0.337 161.824  1.00 17.55 LIG 0.22  C 
ATOM     42 O    VAL E1032      76.437   1.167 161.151  1.00 19.34 LIG-0.29  OA
ENDBRANCH 40 41
BRANCH 40 43
ATOM     43  CB  VAL E1032      76.152  -1.939 163.008  1.00 18.34 LIG 0.01  C 
ATOM     44  CG2 VAL E1032      76.378  -1.008 164.196  1.00 18.91 LIG 0.01  C 
ATOM     45  CG1 VAL E1032      77.190  -3.031 163.065  1.00 20.19 LIG 0.01  C 
ENDBRANCH 40 43
ENDBRANCH 37 40
ENDBRANCH 32 36
ENDBRANCH 27 29
ENDBRANCH 3 27
TORSDOF 15
ENDMDL
MODEL 21
USER: ADFR SOLUTION from run 98
USER: SCORE 12.995746 LL:  -2.935 LR: -12.437 RR:   0.000 FEB:  -7.962
USER: RMSD 3.523473
USER: SEED 97
USER: STATUS no improvement in best in 9 clusters for 5 generations
USER: GENES 17
USER: genes 0 Translation |==|  0.45217 0.34639 0.45624
USER: genes 1 Rotation |==|  0.57914 0.41819 0.46402 0.98554
USER: genes 2 Torsion [N]-C--CA-[N] |==|  0.73515
USER: genes 3 Torsion [C]-CA--CB-[OG] |==|  0.71170
USER: genes 4 Torsion [CA]-CB--OG-[HG] |==|  0.51281
USER: genes 5 Torsion [C]-CA--N-[C] |==|  0.67522
USER: genes 6 Torsion [N]-C--CA-[N] |==|  0.20902
USER: genes 7 Torsion [C]-CA--N-[C] |==|  0.67179
USER: genes 8 Torsion [N]-C--CA-[N] |==|  0.27039
USER: genes 9 Torsion [C]-CA--CB-[CG] |==|  0.64246
USER: genes 10 Torsion [CA]-CB--CG-[ND2] |==|  0.25282
USER: genes 11 Torsion [C]-N--CA-[CB] |==|  0.26540
USER: genes 12 Torsion [N]-CA--C-[N] |==|  0.46507
USER: genes 13 Torsion [N]-CA--C-[N] |==|  0.16317
USER: genes 14 Torsion [C]-N--CA-[C] |==|  0.77329
USER: genes 15 Torsion [N]-CA--C-[O] |==|  0.21422
USER: genes 16 Torsion [N]-CA--CB-[CG2] |==|  0.25577
ROOT
ATOM      1  C   SER E1029      80.785  -6.071 162.824  1.00 13.48 LIG 0.24  C 
ATOM      2 O    SER E1029      80.209  -6.262 161.766  1.00 12.15 LIG-0.27  OA
ATOM      3  N   ALA E1030      80.188  -5.492 163.881  1.00 12.52 LIG-0.35  N 
ATOM      4 H    ALA E1030      80.593  -5.285 164.611  1.00 12.52 LIG 0.16  HD
ENDROOT
BRANCH 1 5
ATOM      5  CA  SER E1029      82.234  -6.458 162.999  1.00 13.36 LIG 0.20  C 
BRANCH 5 6
ATOM      6  CB  SER E1029      82.534  -6.666 164.479  1.00 14.53 LIG 0.20  C 
BRANCH 6 7
ATOM      7 OG   SER E1029      83.258  -5.534 164.980  1.00 16.05 LIG-0.40  OA
ATOM      8 HG   SER E1029      83.479  -5.674 165.778  1.00 16.05 LIG 0.21  HD
ENDBRANCH 6 7
ENDBRANCH 5 6
BRANCH 5 9
ATOM      9  N   SER E1029      83.116  -5.412 162.484  1.00 13.57 LIG-0.34  N 
ATOM     10 H    SER E1029      83.055  -4.658 162.894  1.00 13.57 LIG 0.16  HD
ATOM     11  C   ALA E1028      83.937  -5.641 161.458  1.00 13.26 LIG 0.24  C 
ATOM     12 O    ALA E1028      83.899  -6.652 160.790  1.00 11.29 LIG-0.27  OA
BRANCH 11 13
ATOM     13  CA  ALA E1028      84.967  -4.550 161.150  1.00 14.25 LIG 0.17  C 
ATOM     14  CB  ALA E1028      85.503  -4.728 159.731  1.00 14.71 LIG 0.04  C 
BRANCH 13 15
ATOM     15  N   ALA E1028      86.052  -4.576 162.134  1.00 14.53 LIG-0.35  N 
ATOM     16 H    ALA E1028      86.503  -5.308 162.147  1.00 14.53 LIG 0.16  HD
ATOM     17  C   ASN E1027      86.296  -3.545 162.923  1.00 16.30 LIG 0.26  C 
ATOM     18 O    ASN E1027      85.576  -2.510 162.910  1.00 15.77 LIG-0.27  OA
BRANCH 17 19
ATOM     19  CA  ASN E1027      87.495  -3.705 163.875  1.00 16.82 LIG 0.41  C 
ATOM     20  N   ASN E1027      88.748  -3.076 163.357  1.00 18.81 LIG 0.61  N 
BRANCH 19 21
ATOM     21  CB  ASN E1027      87.229  -3.077 165.276  1.00 15.29 LIG 0.15  C 
BRANCH 21 22
ATOM     22  CG  ASN E1027      88.336  -2.124 165.725  1.00 13.40 LIG 0.22  C 
ATOM     23 OD1  ASN E1027      89.354  -2.533 166.296  1.00 12.35 LIG-0.27  OA
ATOM     24  ND2 ASN E1027      88.165  -0.850 165.391  1.00 11.10 LIG-0.37  N 
ATOM     25 22HD ASN E1027      87.443  -0.603 164.995  1.00 11.10 LIG 0.16  HD
ATOM     26 21HD ASN E1027      88.776  -0.271 165.571  1.00 11.10 LIG 0.16  HD
ENDBRANCH 21 22
ENDBRANCH 19 21
ENDBRANCH 17 19
ENDBRANCH 13 15
ENDBRANCH 11 13
ENDBRANCH 5 9
ENDBRANCH 1 5
BRANCH 3 27
ATOM     27  CA  ALA E1030      78.772  -5.164 163.860  1.00 12.56 LIG 0.17  C 
ATOM     28  CB  ALA E1030      78.006  -6.316 164.527  1.00 12.51 LIG 0.04  C 
BRANCH 27 29
ATOM     29  C   ALA E1030      78.523  -3.826 164.642  1.00 13.31 LIG 0.24  C 
ATOM     30  N   PRO E1031      77.358  -3.233 164.527  1.00 14.65 LIG-0.34  N 
ATOM     31  CD  PRO E1031      76.258  -3.636 163.635  1.00 15.56 LIG 0.13  C 
ATOM     32  CA  PRO E1031      76.993  -2.041 165.355  1.00 16.02 LIG 0.18  C 
ATOM     33  CG  PRO E1031      75.205  -2.621 163.912  1.00 15.81 LIG 0.02  C 
ATOM     34  CB  PRO E1031      75.891  -1.430 164.549  1.00 15.56 LIG 0.04  C 
ATOM     35 O    ALA E1030      79.361  -3.445 165.421  1.00 13.62 LIG-0.27  OA
BRANCH 32 36
ATOM     36  C   PRO E1031      76.507  -2.440 166.791  1.00 15.62 LIG 0.24  C 
ATOM     37  N   VAL E1032      77.382  -3.123 167.500  1.00 15.06 LIG-0.35  N 
ATOM     38 H    VAL E1032      78.200  -3.257 167.268  1.00 15.06 LIG 0.16  HD
ATOM     39 O    PRO E1031      75.378  -2.152 167.199  1.00 15.42 LIG-0.27  OA
BRANCH 37 40
ATOM     40  CA  VAL E1032      77.009  -3.706 168.751  1.00 17.90 LIG 0.17  C 
BRANCH 40 41
ATOM     41  C   VAL E1032      77.072  -2.612 169.866  1.00 17.55 LIG 0.22  C 
ATOM     42 O    VAL E1032      76.128  -1.799 169.904  1.00 19.34 LIG-0.29  OA
ENDBRANCH 40 41
BRANCH 40 43
ATOM     43  CB  VAL E1032      77.878  -4.937 169.055  1.00 18.34 LIG 0.01  C 
ATOM     44  CG2 VAL E1032      79.102  -4.545 169.876  1.00 18.91 LIG 0.01  C 
ATOM     45  CG1 VAL E1032      78.357  -5.604 167.790  1.00 20.19 LIG 0.01  C 
ENDBRANCH 40 43
ENDBRANCH 37 40
ENDBRANCH 32 36
ENDBRANCH 27 29
ENDBRANCH 3 27
TORSDOF 15
ENDMDL
MODEL 22
USER: ADFR SOLUTION from run 152
USER: SCORE 13.601747 LL:  -2.873 LR: -12.430 RR:   0.000 FEB:  -7.956
USER: RMSD 5.716446
USER: SEED 151
USER: STATUS no improvement in best in 4 clusters for 5 generations
USER: GENES 17
USER: genes 0 Translation |==|  0.71295 0.48696 0.38395
USER: genes 1 Rotation |==|  0.81338 0.56739 0.26710 0.80498
USER: genes 2 Torsion [N]-C--CA-[N] |==|  0.75947
USER: genes 3 Torsion [C]-CA--CB-[OG] |==|  0.11566
USER: genes 4 Torsion [CA]-CB--OG-[HG] |==|  0.69278
USER: genes 5 Torsion [C]-CA--N-[C] |==|  0.15590
USER: genes 6 Torsion [N]-C--CA-[N] |==|  0.07206
USER: genes 7 Torsion [C]-CA--N-[C] |==|  0.15580
USER: genes 8 Torsion [N]-C--CA-[N] |==|  0.79478
USER: genes 9 Torsion [C]-CA--CB-[CG] |==|  0.23087
USER: genes 10 Torsion [CA]-CB--CG-[ND2] |==|  0.69403
USER: genes 11 Torsion [C]-N--CA-[CB] |==|  0.81111
USER: genes 12 Torsion [N]-CA--C-[N] |==|  0.22375
USER: genes 13 Torsion [N]-CA--C-[N] |==|  0.78297
USER: genes 14 Torsion [C]-N--CA-[C] |==|  0.15917
USER: genes 15 Torsion [N]-CA--C-[O] |==|  0.11222
USER: genes 16 Torsion [N]-CA--CB-[CG2] |==|  0.88942
ROOT
ATOM      1  C   SER E1029      86.065  -3.857 161.252  1.00 13.48 LIG 0.24  C 
ATOM      2 O    SER E1029      85.499  -2.784 161.366  1.00 12.15 LIG-0.27  OA
ATOM      3  N   ALA E1030      86.083  -4.777 162.233  1.00 12.52 LIG-0.35  N 
ATOM      4 H    ALA E1030      86.532  -5.510 162.201  1.00 12.52 LIG 0.16  HD
ENDROOT
BRANCH 1 5
ATOM      5  CA  SER E1029      86.815  -4.208 159.988  1.00 13.36 LIG 0.20  C 
BRANCH 5 6
ATOM      6  CB  SER E1029      86.728  -5.709 159.741  1.00 14.53 LIG 0.20  C 
BRANCH 6 7
ATOM      7 OG   SER E1029      85.397  -6.161 160.025  1.00 16.05 LIG-0.40  OA
ATOM      8 HG   SER E1029      85.404  -6.636 160.717  1.00 16.05 LIG 0.21  HD
ENDBRANCH 6 7
ENDBRANCH 5 6
BRANCH 5 9
ATOM      9  N   SER E1029      88.223  -3.832 160.099  1.00 13.57 LIG-0.34  N 
ATOM     10 H    SER E1029      88.503  -3.305 159.480  1.00 13.57 LIG 0.16  HD
ATOM     11  C   ALA E1028      88.985  -4.288 161.095  1.00 13.26 LIG 0.24  C 
ATOM     12 O    ALA E1028      88.625  -5.152 161.866  1.00 11.29 LIG-0.27  OA
BRANCH 11 13
ATOM     13  CA  ALA E1028      90.373  -3.655 161.238  1.00 14.25 LIG 0.17  C 
ATOM     14  CB  ALA E1028      90.792  -3.650 162.707  1.00 14.71 LIG 0.04  C 
BRANCH 13 15
ATOM     15  N   ALA E1028      90.380  -2.301 160.680  1.00 14.53 LIG-0.35  N 
ATOM     16 H    ALA E1028      90.972  -2.170 160.071  1.00 14.53 LIG 0.16  HD
ATOM     17  C   ASN E1027      89.534  -1.376 161.098  1.00 16.30 LIG 0.26  C 
ATOM     18 O    ASN E1027      88.717  -1.593 162.034  1.00 15.77 LIG-0.27  OA
BRANCH 17 19
ATOM     19  CA  ASN E1027      89.633  -0.014 160.388  1.00 16.82 LIG 0.41  C 
ATOM     20  N   ASN E1027      90.836   0.776 160.793  1.00 18.81 LIG 0.61  N 
BRANCH 19 21
ATOM     21  CB  ASN E1027      89.698  -0.157 158.837  1.00 15.29 LIG 0.15  C 
BRANCH 21 22
ATOM     22  CG  ASN E1027      88.320  -0.311 158.193  1.00 13.40 LIG 0.22  C 
ATOM     23 OD1  ASN E1027      87.540   0.643 158.091  1.00 12.35 LIG-0.27  OA
ATOM     24  ND2 ASN E1027      88.058  -1.510 157.685  1.00 11.10 LIG-0.37  N 
ATOM     25 22HD ASN E1027      88.625  -2.149 157.776  1.00 11.10 LIG 0.16  HD
ATOM     26 21HD ASN E1027      87.320  -1.647 157.265  1.00 11.10 LIG 0.16  HD
ENDBRANCH 21 22
ENDBRANCH 19 21
ENDBRANCH 17 19
ENDBRANCH 13 15
ENDBRANCH 11 13
ENDBRANCH 5 9
ENDBRANCH 1 5
BRANCH 3 27
ATOM     27  CA  ALA E1030      85.319  -4.588 163.455  1.00 12.56 LIG 0.17  C 
ATOM     28  CB  ALA E1030      85.945  -3.422 164.234  1.00 12.51 LIG 0.04  C 
BRANCH 27 29
ATOM     29  C   ALA E1030      83.824  -4.261 163.103  1.00 13.31 LIG 0.24  C 
ATOM     30  N   PRO E1031      83.017  -5.248 162.795  1.00 14.65 LIG-0.34  N 
ATOM     31  CD  PRO E1031      83.389  -6.663 162.632  1.00 15.56 LIG 0.13  C 
ATOM     32  CA  PRO E1031      81.548  -5.034 162.596  1.00 16.02 LIG 0.18  C 
ATOM     33  CG  PRO E1031      82.098  -7.319 162.282  1.00 15.81 LIG 0.02  C 
ATOM     34  CB  PRO E1031      81.169  -6.232 161.783  1.00 15.56 LIG 0.04  C 
ATOM     35 O    ALA E1030      83.429  -3.131 163.245  1.00 13.62 LIG-0.27  OA
BRANCH 32 36
ATOM     36  C   PRO E1031      80.765  -4.984 163.953  1.00 15.62 LIG 0.24  C 
ATOM     37  N   VAL E1032      80.538  -6.159 164.503  1.00 15.06 LIG-0.35  N 
ATOM     38 H    VAL E1032      80.875  -6.901 164.225  1.00 15.06 LIG 0.16  HD
ATOM     39 O    PRO E1031      80.376  -3.919 164.440  1.00 15.42 LIG-0.27  OA
BRANCH 37 40
ATOM     40  CA  VAL E1032      79.682  -6.276 165.641  1.00 17.90 LIG 0.17  C 
BRANCH 40 41
ATOM     41  C   VAL E1032      78.275  -5.693 165.287  1.00 17.55 LIG 0.22  C 
ATOM     42 O    VAL E1032      77.833  -5.953 164.151  1.00 19.34 LIG-0.29  OA
ENDBRANCH 40 41
BRANCH 40 43
ATOM     43  CB  VAL E1032      80.323  -5.616 166.872  1.00 18.34 LIG 0.01  C 
ATOM     44  CG2 VAL E1032      81.821  -5.903 166.920  1.00 18.91 LIG 0.01  C 
ATOM     45  CG1 VAL E1032      79.709  -6.117 168.154  1.00 20.19 LIG 0.01  C 
ENDBRANCH 40 43
ENDBRANCH 37 40
ENDBRANCH 32 36
ENDBRANCH 27 29
ENDBRANCH 3 27
TORSDOF 15
ENDMDL
MODEL 23
USER: ADFR SOLUTION from run 24
USER: SCORE 14.368734 LL:  -3.009 LR: -12.349 RR:   0.000 FEB:  -7.875
USER: RMSD 4.095591
USER: SEED 23
USER: STATUS no improvement in best in 5 clusters for 5 generations
USER: GENES 17
USER: genes 0 Translation |==|  0.39277 0.40030 0.56125
USER: genes 1 Rotation |==|  0.71076 0.60698 0.18300 0.80601
USER: genes 2 Torsion [N]-C--CA-[N] |==|  0.84539
USER: genes 3 Torsion [C]-CA--CB-[OG] |==|  0.55458
USER: genes 4 Torsion [CA]-CB--OG-[HG] |==|  0.18776
USER: genes 5 Torsion [C]-CA--N-[C] |==|  0.78229
USER: genes 6 Torsion [N]-C--CA-[N] |==|  0.47715
USER: genes 7 Torsion [C]-CA--N-[C] |==|  0.57933
USER: genes 8 Torsion [N]-C--CA-[N] |==|  0.14618
USER: genes 9 Torsion [C]-CA--CB-[CG] |==|  0.18067
USER: genes 10 Torsion [CA]-CB--CG-[ND2] |==|  0.67356
USER: genes 11 Torsion [C]-N--CA-[CB] |==|  0.82778
USER: genes 12 Torsion [N]-CA--C-[N] |==|  0.49590
USER: genes 13 Torsion [N]-CA--C-[N] |==|  0.13698
USER: genes 14 Torsion [C]-N--CA-[C] |==|  0.63659
USER: genes 15 Torsion [N]-CA--C-[O] |==|  0.18076
USER: genes 16 Torsion [N]-CA--CB-[CG2] |==|  0.24625
ROOT
ATOM      1  C   SER E1029      79.582  -5.222 165.108  1.00 13.48 LIG 0.24  C 
ATOM      2 O    SER E1029      79.132  -4.095 165.229  1.00 12.15 LIG-0.27  OA
ATOM      3  N   ALA E1030      80.081  -5.919 166.145  1.00 12.52 LIG-0.35  N 
ATOM      4 H    ALA E1030      80.464  -6.686 166.071  1.00 12.52 LIG 0.16  HD
ENDROOT
BRANCH 1 5
ATOM      5  CA  SER E1029      79.628  -5.899 163.758  1.00 13.36 LIG 0.20  C 
BRANCH 5 6
ATOM      6  CB  SER E1029      78.744  -7.139 163.776  1.00 14.53 LIG 0.20  C 
BRANCH 6 7
ATOM      7 OG   SER E1029      79.128  -8.012 162.705  1.00 16.05 LIG-0.40  OA
ATOM      8 HG   SER E1029      79.895  -8.320 162.856  1.00 16.05 LIG 0.21  HD
ENDBRANCH 6 7
ENDBRANCH 5 6
BRANCH 5 9
ATOM      9  N   SER E1029      80.995  -6.301 163.427  1.00 13.57 LIG-0.34  N 
ATOM     10 H    SER E1029      81.160  -7.136 163.544  1.00 13.57 LIG 0.16  HD
ATOM     11  C   ALA E1028      81.888  -5.416 162.980  1.00 13.26 LIG 0.24  C 
ATOM     12 O    ALA E1028      81.690  -4.219 162.971  1.00 11.29 LIG-0.27  OA
BRANCH 11 13
ATOM     13  CA  ALA E1028      83.210  -5.985 162.456  1.00 14.25 LIG 0.17  C 
ATOM     14  CB  ALA E1028      83.978  -6.649 163.598  1.00 14.71 LIG 0.04  C 
BRANCH 13 15
ATOM     15  N   ALA E1028      84.007  -4.930 161.824  1.00 14.53 LIG-0.35  N 
ATOM     16 H    ALA E1028      83.869  -4.142 162.140  1.00 14.53 LIG 0.16  HD
ATOM     17  C   ASN E1027      84.860  -5.197 160.851  1.00 16.30 LIG 0.26  C 
ATOM     18 O    ASN E1027      84.992  -6.358 160.379  1.00 15.77 LIG-0.27  OA
BRANCH 17 19
ATOM     19  CA  ASN E1027      85.656  -3.992 160.317  1.00 16.82 LIG 0.41  C 
ATOM     20  N   ASN E1027      86.352  -3.221 161.392  1.00 18.81 LIG 0.61  N 
BRANCH 19 21
ATOM     21  CB  ASN E1027      86.751  -4.413 159.291  1.00 15.29 LIG 0.15  C 
BRANCH 21 22
ATOM     22  CG  ASN E1027      86.173  -5.010 158.009  1.00 13.40 LIG 0.22  C 
ATOM     23 OD1  ASN E1027      85.503  -4.333 157.220  1.00 12.35 LIG-0.27  OA
ATOM     24  ND2 ASN E1027      86.504  -6.273 157.766  1.00 11.10 LIG-0.37  N 
ATOM     25 22HD ASN E1027      86.972  -6.713 158.339  1.00 11.10 LIG 0.16  HD
ATOM     26 21HD ASN E1027      86.252  -6.652 157.036  1.00 11.10 LIG 0.16  HD
ENDBRANCH 21 22
ENDBRANCH 19 21
ENDBRANCH 17 19
ENDBRANCH 13 15
ENDBRANCH 11 13
ENDBRANCH 5 9
ENDBRANCH 1 5
BRANCH 3 27
ATOM     27  CA  ALA E1030      80.003  -5.408 167.503  1.00 12.56 LIG 0.17  C 
ATOM     28  CB  ALA E1030      80.795  -4.095 167.564  1.00 12.51 LIG 0.04  C 
BRANCH 27 29
ATOM     29  C   ALA E1030      78.502  -5.152 167.890  1.00 13.31 LIG 0.24  C 
ATOM     30  N   PRO E1031      78.227  -4.714 169.095  1.00 14.65 LIG-0.34  N 
ATOM     31  CD  PRO E1031      79.185  -4.531 170.199  1.00 15.56 LIG 0.13  C 
ATOM     32  CA  PRO E1031      76.842  -4.304 169.489  1.00 16.02 LIG 0.18  C 
ATOM     33  CG  PRO E1031      78.333  -4.027 171.311  1.00 15.81 LIG 0.02  C 
ATOM     34  CB  PRO E1031      76.903  -4.402 170.981  1.00 15.56 LIG 0.04  C 
ATOM     35 O    ALA E1030      77.658  -5.246 167.034  1.00 13.62 LIG-0.27  OA
BRANCH 32 36
ATOM     36  C   PRO E1031      76.496  -2.850 169.018  1.00 15.62 LIG 0.24  C 
ATOM     37  N   VAL E1032      76.762  -2.601 167.752  1.00 15.06 LIG-0.35  N 
ATOM     38 H    VAL E1032      77.001  -3.196 167.178  1.00 15.06 LIG 0.16  HD
ATOM     39 O    PRO E1031      76.033  -2.008 169.794  1.00 15.42 LIG-0.27  OA
BRANCH 37 40
ATOM     40  CA  VAL E1032      76.668  -1.272 167.236  1.00 17.90 LIG 0.17  C 
BRANCH 40 41
ATOM     41  C   VAL E1032      75.827  -1.292 165.918  1.00 17.55 LIG 0.22  C 
ATOM     42 O    VAL E1032      74.628  -1.615 166.026  1.00 19.34 LIG-0.29  OA
ENDBRANCH 40 41
BRANCH 40 43
ATOM     43  CB  VAL E1032      78.066  -0.659 167.058  1.00 18.34 LIG 0.01  C 
ATOM     44  CG2 VAL E1032      78.626  -0.984 165.677  1.00 18.91 LIG 0.01  C 
ATOM     45  CG1 VAL E1032      79.035  -1.179 168.090  1.00 20.19 LIG 0.01  C 
ENDBRANCH 40 43
ENDBRANCH 37 40
ENDBRANCH 32 36
ENDBRANCH 27 29
ENDBRANCH 3 27
TORSDOF 15
ENDMDL
MODEL 24
USER: ADFR SOLUTION from run 154
USER: SCORE 13.891670 LL:  -2.599 LR: -12.337 RR:   0.000 FEB:  -7.863
USER: RMSD 10.629417
USER: SEED 153
USER: STATUS no improvement in best in 5 clusters for 5 generations
USER: GENES 17
USER: genes 0 Translation |==|  0.46741 0.41066 0.54128
USER: genes 1 Rotation |==|  0.84390 0.40296 0.83488 0.60085
USER: genes 2 Torsion [N]-C--CA-[N] |==|  0.65859
USER: genes 3 Torsion [C]-CA--CB-[OG] |==|  0.62709
USER: genes 4 Torsion [CA]-CB--OG-[HG] |==|  0.44186
USER: genes 5 Torsion [C]-CA--N-[C] |==|  0.12801
USER: genes 6 Torsion [N]-C--CA-[N] |==|  0.86798
USER: genes 7 Torsion [C]-CA--N-[C] |==|  0.83476
USER: genes 8 Torsion [N]-C--CA-[N] |==|  0.55079
USER: genes 9 Torsion [C]-CA--CB-[CG] |==|  0.25357
USER: genes 10 Torsion [CA]-CB--CG-[ND2] |==|  0.50080
USER: genes 11 Torsion [C]-N--CA-[CB] |==|  0.78156
USER: genes 12 Torsion [N]-CA--C-[N] |==|  0.18515
USER: genes 13 Torsion [N]-CA--C-[N] |==|  0.46573
USER: genes 14 Torsion [C]-N--CA-[C] |==|  0.84136
USER: genes 15 Torsion [N]-CA--C-[O] |==|  0.40715
USER: genes 16 Torsion [N]-CA--CB-[CG2] |==|  0.12218
ROOT
ATOM      1  C   SER E1029      81.093  -5.059 164.674  1.00 13.48 LIG 0.24  C 
ATOM      2 O    SER E1029      80.794  -4.198 163.865  1.00 12.15 LIG-0.27  OA
ATOM      3  N   ALA E1030      81.462  -6.300 164.310  1.00 12.52 LIG-0.35  N 
ATOM      4 H    ALA E1030      81.611  -6.942 164.863  1.00 12.52 LIG 0.16  HD
ENDROOT
BRANCH 1 5
ATOM      5  CA  SER E1029      81.038  -4.782 166.158  1.00 13.36 LIG 0.20  C 
BRANCH 5 6
ATOM      6  CB  SER E1029      81.363  -6.056 166.929  1.00 14.53 LIG 0.20  C 
BRANCH 6 7
ATOM      7 OG   SER E1029      80.416  -6.222 167.992  1.00 16.05 LIG-0.40  OA
ATOM      8 HG   SER E1029      80.401  -7.027 168.231  1.00 16.05 LIG 0.21  HD
ENDBRANCH 6 7
ENDBRANCH 5 6
BRANCH 5 9
ATOM      9  N   SER E1029      79.707  -4.323 166.551  1.00 13.57 LIG-0.34  N 
ATOM     10 H    SER E1029      79.703  -3.636 167.068  1.00 13.57 LIG 0.16  HD
ATOM     11  C   ALA E1028      78.606  -4.943 166.123  1.00 13.26 LIG 0.24  C 
ATOM     12 O    ALA E1028      78.627  -6.000 165.528  1.00 11.29 LIG-0.27  OA
BRANCH 11 13
ATOM     13  CA  ALA E1028      77.273  -4.246 166.412  1.00 14.25 LIG 0.17  C 
ATOM     14  CB  ALA E1028      77.087  -3.066 165.459  1.00 14.71 LIG 0.04  C 
BRANCH 13 15
ATOM     15  N   ALA E1028      77.213  -3.813 167.810  1.00 14.53 LIG-0.35  N 
ATOM     16 H    ALA E1028      77.108  -2.966 167.916  1.00 14.53 LIG 0.16  HD
ATOM     17  C   ASN E1027      77.315  -4.674 168.806  1.00 16.30 LIG 0.26  C 
ATOM     18 O    ASN E1027      77.525  -5.902 168.608  1.00 15.77 LIG-0.27  OA
BRANCH 17 19
ATOM     19  CA  ASN E1027      77.191  -4.075 170.218  1.00 16.82 LIG 0.41  C 
ATOM     20  N   ASN E1027      77.731  -4.968 171.288  1.00 18.81 LIG 0.61  N 
BRANCH 19 21
ATOM     21  CB  ASN E1027      77.941  -2.715 170.354  1.00 15.29 LIG 0.15  C 
BRANCH 21 22
ATOM     22  CG  ASN E1027      77.054  -1.509 170.044  1.00 13.40 LIG 0.22  C 
ATOM     23 OD1  ASN E1027      75.850  -1.634 169.794  1.00 12.35 LIG-0.27  OA
ATOM     24  ND2 ASN E1027      77.648  -0.325 170.139  1.00 11.10 LIG-0.37  N 
ATOM     25 22HD ASN E1027      78.488  -0.277 170.315  1.00 11.10 LIG 0.16  HD
ATOM     26 21HD ASN E1027      77.191   0.396 170.026  1.00 11.10 LIG 0.16  HD
ENDBRANCH 21 22
ENDBRANCH 19 21
ENDBRANCH 17 19
ENDBRANCH 13 15
ENDBRANCH 11 13
ENDBRANCH 5 9
ENDBRANCH 1 5
BRANCH 3 27
ATOM     27  CA  ALA E1030      81.641  -6.652 162.911  1.00 12.56 LIG 0.17  C 
ATOM     28  CB  ALA E1030      80.253  -6.885 162.297  1.00 12.51 LIG 0.04  C 
BRANCH 27 29
ATOM     29  C   ALA E1030      82.376  -5.486 162.158  1.00 13.31 LIG 0.24  C 
ATOM     30  N   PRO E1031      83.620  -5.216 162.472  1.00 14.65 LIG-0.34  N 
ATOM     31  CD  PRO E1031      84.401  -5.831 163.559  1.00 15.56 LIG 0.13  C 
ATOM     32  CA  PRO E1031      84.432  -4.224 161.698  1.00 16.02 LIG 0.18  C 
ATOM     33  CG  PRO E1031      85.722  -5.152 163.457  1.00 15.81 LIG 0.02  C 
ATOM     34  CB  PRO E1031      85.505  -3.871 162.679  1.00 15.56 LIG 0.04  C 
ATOM     35 O    ALA E1030      81.818  -4.953 161.231  1.00 13.62 LIG-0.27  OA
BRANCH 32 36
ATOM     36  C   PRO E1031      85.028  -4.838 160.385  1.00 15.62 LIG 0.24  C 
ATOM     37  N   VAL E1032      85.532  -3.959 159.543  1.00 15.06 LIG-0.35  N 
ATOM     38 H    VAL E1032      85.642  -3.124 159.719  1.00 15.06 LIG 0.16  HD
ATOM     39 O    PRO E1031      84.996  -6.052 160.162  1.00 15.42 LIG-0.27  OA
BRANCH 37 40
ATOM     40  CA  VAL E1032      85.942  -4.357 158.234  1.00 17.90 LIG 0.17  C 
BRANCH 40 41
ATOM     41  C   VAL E1032      87.007  -5.495 158.354  1.00 17.55 LIG 0.22  C 
ATOM     42 O    VAL E1032      87.003  -6.361 157.457  1.00 19.34 LIG-0.29  OA
ENDBRANCH 40 41
BRANCH 40 43
ATOM     43  CB  VAL E1032      86.434  -3.144 157.428  1.00 18.34 LIG 0.01  C 
ATOM     44  CG2 VAL E1032      87.336  -2.258 158.281  1.00 18.91 LIG 0.01  C 
ATOM     45  CG1 VAL E1032      85.284  -2.304 156.934  1.00 20.19 LIG 0.01  C 
ENDBRANCH 40 43
ENDBRANCH 37 40
ENDBRANCH 32 36
ENDBRANCH 27 29
ENDBRANCH 3 27
TORSDOF 15
ENDMDL
MODEL 25
USER: ADFR SOLUTION from run 54
USER: SCORE 13.524738 LL:  -2.950 LR: -12.290 RR:   0.000 FEB:  -7.815
USER: RMSD 7.039717
USER: SEED 53
USER: STATUS no improvement in best in 6 clusters for 5 generations
USER: GENES 17
USER: genes 0 Translation |==|  0.55910 0.32488 0.41537
USER: genes 1 Rotation |==|  0.27480 0.41475 0.59427 0.92794
USER: genes 2 Torsion [N]-C--CA-[N] |==|  0.86371
USER: genes 3 Torsion [C]-CA--CB-[OG] |==|  0.41129
USER: genes 4 Torsion [CA]-CB--OG-[HG] |==|  0.99804
USER: genes 5 Torsion [C]-CA--N-[C] |==|  0.72925
USER: genes 6 Torsion [N]-C--CA-[N] |==|  0.26914
USER: genes 7 Torsion [C]-CA--N-[C] |==|  0.81199
USER: genes 8 Torsion [N]-C--CA-[N] |==|  0.24080
USER: genes 9 Torsion [C]-CA--CB-[CG] |==|  0.14789
USER: genes 10 Torsion [CA]-CB--CG-[ND2] |==|  0.73100
USER: genes 11 Torsion [C]-N--CA-[CB] |==|  0.21984
USER: genes 12 Torsion [N]-CA--C-[N] |==|  0.86491
USER: genes 13 Torsion [N]-CA--C-[N] |==|  0.37698
USER: genes 14 Torsion [C]-N--CA-[C] |==|  0.69986
USER: genes 15 Torsion [N]-CA--C-[O] |==|  0.07480
USER: genes 16 Torsion [N]-CA--CB-[CG2] |==|  0.12233
ROOT
ATOM      1  C   SER E1029      82.950  -6.410 161.935  1.00 13.48 LIG 0.24  C 
ATOM      2 O    SER E1029      82.661  -7.595 161.946  1.00 12.15 LIG-0.27  OA
ATOM      3  N   ALA E1030      82.040  -5.443 161.717  1.00 12.52 LIG-0.35  N 
ATOM      4 H    ALA E1030      82.233  -4.609 161.637  1.00 12.52 LIG 0.16  HD
ENDROOT
BRANCH 1 5
ATOM      5  CA  SER E1029      84.376  -5.957 162.143  1.00 13.36 LIG 0.20  C 
BRANCH 5 6
ATOM      6  CB  SER E1029      84.502  -5.266 163.495  1.00 14.53 LIG 0.20  C 
BRANCH 6 7
ATOM      7 OG   SER E1029      85.812  -5.499 164.027  1.00 16.05 LIG-0.40  OA
ATOM      8 HG   SER E1029      86.250  -5.978 163.495  1.00 16.05 LIG 0.21  HD
ENDBRANCH 6 7
ENDBRANCH 5 6
BRANCH 5 9
ATOM      9  N   SER E1029      84.779  -5.019 161.097  1.00 13.57 LIG-0.34  N 
ATOM     10 H    SER E1029      84.535  -4.206 161.232  1.00 13.57 LIG 0.16  HD
ATOM     11  C   ALA E1028      85.471  -5.425 160.031  1.00 13.26 LIG 0.24  C 
ATOM     12 O    ALA E1028      85.669  -6.594 159.774  1.00 11.29 LIG-0.27  OA
BRANCH 11 13
ATOM     13  CA  ALA E1028      86.028  -4.329 159.119  1.00 14.25 LIG 0.17  C 
ATOM     14  CB  ALA E1028      85.878  -4.744 157.657  1.00 14.71 LIG 0.04  C 
BRANCH 13 15
ATOM     15  N   ALA E1028      87.428  -4.049 159.449  1.00 14.53 LIG-0.35  N 
ATOM     16 H    ALA E1028      87.990  -4.279 158.840  1.00 14.53 LIG 0.16  HD
ATOM     17  C   ASN E1027      87.770  -3.490 160.596  1.00 16.30 LIG 0.26  C 
ATOM     18 O    ASN E1027      86.919  -3.219 161.487  1.00 15.77 LIG-0.27  OA
BRANCH 17 19
ATOM     19  CA  ASN E1027      89.274  -3.220 160.782  1.00 16.82 LIG 0.41  C 
ATOM     20  N   ASN E1027      89.711  -1.905 160.221  1.00 18.81 LIG 0.61  N 
BRANCH 19 21
ATOM     21  CB  ASN E1027      89.698  -3.226 162.282  1.00 15.29 LIG 0.15  C 
BRANCH 21 22
ATOM     22  CG  ASN E1027      89.271  -4.495 163.019  1.00 13.40 LIG 0.22  C 
ATOM     23 OD1  ASN E1027      89.976  -5.511 163.027  1.00 12.35 LIG-0.27  OA
ATOM     24  ND2 ASN E1027      88.139  -4.403 163.708  1.00 11.10 LIG-0.37  N 
ATOM     25 22HD ASN E1027      87.675  -3.679 163.678  1.00 11.10 LIG 0.16  HD
ATOM     26 21HD ASN E1027      87.870  -5.066 164.185  1.00 11.10 LIG 0.16  HD
ENDBRANCH 21 22
ENDBRANCH 19 21
ENDBRANCH 17 19
ENDBRANCH 13 15
ENDBRANCH 11 13
ENDBRANCH 5 9
ENDBRANCH 1 5
BRANCH 3 27
ATOM     27  CA  ALA E1030      80.626  -5.754 161.598  1.00 12.56 LIG 0.17  C 
ATOM     28  CB  ALA E1030      80.061  -5.950 163.013  1.00 12.51 LIG 0.04  C 
BRANCH 27 29
ATOM     29  C   ALA E1030      79.880  -4.574 160.878  1.00 13.31 LIG 0.24  C 
ATOM     30  N   PRO E1031      80.090  -3.348 161.291  1.00 14.65 LIG-0.34  N 
ATOM     31  CD  PRO E1031      80.889  -2.944 162.461  1.00 15.56 LIG 0.13  C 
ATOM     32  CA  PRO E1031      79.536  -2.163 160.563  1.00 16.02 LIG 0.18  C 
ATOM     33  CG  PRO E1031      80.777  -1.459 162.456  1.00 15.81 LIG 0.02  C 
ATOM     34  CB  PRO E1031      79.561  -1.108 161.623  1.00 15.56 LIG 0.04  C 
ATOM     35 O    ALA E1030      79.233  -4.816 159.889  1.00 13.62 LIG-0.27  OA
BRANCH 32 36
ATOM     36  C   PRO E1031      80.412  -1.762 159.326  1.00 15.62 LIG 0.24  C 
ATOM     37  N   VAL E1032      79.730  -1.487 158.233  1.00 15.06 LIG-0.35  N 
ATOM     38 H    VAL E1032      78.874  -1.415 158.198  1.00 15.06 LIG 0.16  HD
ATOM     39 O    PRO E1031      81.645  -1.736 159.383  1.00 15.42 LIG-0.27  OA
BRANCH 37 40
ATOM     40  CA  VAL E1032      80.403  -1.285 156.988  1.00 17.90 LIG 0.17  C 
BRANCH 40 41
ATOM     41  C   VAL E1032      80.347   0.232 156.615  1.00 17.55 LIG 0.22  C 
ATOM     42 O    VAL E1032      80.253   1.037 157.562  1.00 19.34 LIG-0.29  OA
ENDBRANCH 40 41
BRANCH 40 43
ATOM     43  CB  VAL E1032      79.818  -2.202 155.901  1.00 18.34 LIG 0.01  C 
ATOM     44  CG2 VAL E1032      78.294  -2.206 155.961  1.00 18.91 LIG 0.01  C 
ATOM     45  CG1 VAL E1032      80.296  -3.623 156.059  1.00 20.19 LIG 0.01  C 
ENDBRANCH 40 43
ENDBRANCH 37 40
ENDBRANCH 32 36
ENDBRANCH 27 29
ENDBRANCH 3 27
TORSDOF 15
ENDMDL
MODEL 26
USER: ADFR SOLUTION from run 194
USER: SCORE 14.059941 LL:  -3.015 LR: -12.225 RR:   0.000 FEB:  -7.751
USER: RMSD 4.456415
USER: SEED 193
USER: STATUS no improvement in best in 15 clusters for 5 generations
USER: GENES 17
USER: genes 0 Translation |==|  0.53895 0.38259 0.41320
USER: genes 1 Rotation |==|  0.31691 0.48101 0.52371 0.96428
USER: genes 2 Torsion [N]-C--CA-[N] |==|  0.85556
USER: genes 3 Torsion [C]-CA--CB-[OG] |==|  0.53991
USER: genes 4 Torsion [CA]-CB--OG-[HG] |==|  0.91054
USER: genes 5 Torsion [C]-CA--N-[C] |==|  0.65766
USER: genes 6 Torsion [N]-C--CA-[N] |==|  0.29481
USER: genes 7 Torsion [C]-CA--N-[C] |==|  0.80421
USER: genes 8 Torsion [N]-C--CA-[N] |==|  0.24115
USER: genes 9 Torsion [C]-CA--CB-[CG] |==|  0.21047
USER: genes 10 Torsion [CA]-CB--CG-[ND2] |==|  0.81476
USER: genes 11 Torsion [C]-N--CA-[CB] |==|  0.81556
USER: genes 12 Torsion [N]-CA--C-[N] |==|  0.19769
USER: genes 13 Torsion [N]-CA--C-[N] |==|  0.94205
USER: genes 14 Torsion [C]-N--CA-[C] |==|  0.14636
USER: genes 15 Torsion [N]-CA--C-[O] |==|  0.40302
USER: genes 16 Torsion [N]-CA--CB-[CG2] |==|  0.86665
ROOT
ATOM      1  C   SER E1029      82.542  -5.501 161.888  1.00 13.48 LIG 0.24  C 
ATOM      2 O    SER E1029      81.842  -6.490 161.747  1.00 12.15 LIG-0.27  OA
ATOM      3  N   ALA E1030      82.032  -4.263 162.018  1.00 12.52 LIG-0.35  N 
ATOM      4 H    ALA E1030      82.506  -3.547 162.050  1.00 12.52 LIG 0.16  HD
ENDROOT
BRANCH 1 5
ATOM      5  CA  SER E1029      84.048  -5.612 161.897  1.00 13.36 LIG 0.20  C 
BRANCH 5 6
ATOM      6  CB  SER E1029      84.579  -5.264 163.282  1.00 14.53 LIG 0.20  C 
BRANCH 6 7
ATOM      7 OG   SER E1029      85.993  -5.042 163.207  1.00 16.05 LIG-0.40  OA
ATOM      8 HG   SER E1029      86.323  -5.534 162.612  1.00 16.05 LIG 0.21  HD
ENDBRANCH 6 7
ENDBRANCH 5 6
BRANCH 5 9
ATOM      9  N   SER E1029      84.641  -4.697 160.923  1.00 13.57 LIG-0.34  N 
ATOM     10 H    SER E1029      84.427  -3.871 161.031  1.00 13.57 LIG 0.16  HD
ATOM     11  C   ALA E1028      85.447  -5.141 159.957  1.00 13.26 LIG 0.24  C 
ATOM     12 O    ALA E1028      85.613  -6.319 159.719  1.00 11.29 LIG-0.27  OA
BRANCH 11 13
ATOM     13  CA  ALA E1028      86.183  -4.076 159.138  1.00 14.25 LIG 0.17  C 
ATOM     14  CB  ALA E1028      86.013  -4.360 157.647  1.00 14.71 LIG 0.04  C 
BRANCH 13 15
ATOM     15  N   ALA E1028      87.599  -4.031 159.511  1.00 14.53 LIG-0.35  N 
ATOM     16 H    ALA E1028      88.135  -4.333 158.909  1.00 14.53 LIG 0.16  HD
ATOM     17  C   ASN E1027      87.992  -3.561 160.681  1.00 16.30 LIG 0.26  C 
ATOM     18 O    ASN E1027      87.170  -3.180 161.558  1.00 15.77 LIG-0.27  OA
BRANCH 17 19
ATOM     19  CA  ASN E1027      89.515  -3.539 160.911  1.00 16.82 LIG 0.41  C 
ATOM     20  N   ASN E1027      90.170  -2.296 160.401  1.00 18.81 LIG 0.61  N 
BRANCH 19 21
ATOM     21  CB  ASN E1027      89.888  -3.651 162.420  1.00 15.29 LIG 0.15  C 
BRANCH 21 22
ATOM     22  CG  ASN E1027      89.733  -5.068 162.971  1.00 13.40 LIG 0.22  C 
ATOM     23 OD1  ASN E1027      90.699  -5.708 163.403  1.00 12.35 LIG-0.27  OA
ATOM     24  ND2 ASN E1027      88.487  -5.527 163.026  1.00 11.10 LIG-0.37  N 
ATOM     25 22HD ASN E1027      87.840  -5.053 162.716  1.00 11.10 LIG 0.16  HD
ATOM     26 21HD ASN E1027      88.327  -6.298 163.372  1.00 11.10 LIG 0.16  HD
ENDBRANCH 21 22
ENDBRANCH 19 21
ENDBRANCH 17 19
ENDBRANCH 13 15
ENDBRANCH 11 13
ENDBRANCH 5 9
ENDBRANCH 1 5
BRANCH 3 27
ATOM     27  CA  ALA E1030      80.599  -4.047 162.118  1.00 12.56 LIG 0.17  C 
ATOM     28  CB  ALA E1030      79.962  -4.443 160.777  1.00 12.51 LIG 0.04  C 
BRANCH 27 29
ATOM     29  C   ALA E1030      80.006  -4.925 163.277  1.00 13.31 LIG 0.24  C 
ATOM     30  N   PRO E1031      80.278  -4.600 164.518  1.00 14.65 LIG-0.34  N 
ATOM     31  CD  PRO E1031      81.191  -3.534 164.963  1.00 15.56 LIG 0.13  C 
ATOM     32  CA  PRO E1031      79.630  -5.294 165.676  1.00 16.02 LIG 0.18  C 
ATOM     33  CG  PRO E1031      81.118  -3.619 166.448  1.00 15.81 LIG 0.02  C 
ATOM     34  CB  PRO E1031      80.584  -4.994 166.789  1.00 15.56 LIG 0.04  C 
ATOM     35 O    ALA E1030      79.221  -5.797 163.000  1.00 13.62 LIG-0.27  OA
BRANCH 32 36
ATOM     36  C   PRO E1031      78.196  -4.739 165.976  1.00 15.62 LIG 0.24  C 
ATOM     37  N   VAL E1032      77.960  -3.532 165.502  1.00 15.06 LIG-0.35  N 
ATOM     38 H    VAL E1032      78.487  -3.106 164.972  1.00 15.06 LIG 0.16  HD
ATOM     39 O    PRO E1031      77.372  -5.384 166.631  1.00 15.42 LIG-0.27  OA
BRANCH 37 40
ATOM     40  CA  VAL E1032      76.766  -2.832 165.855  1.00 17.90 LIG 0.17  C 
BRANCH 40 41
ATOM     41  C   VAL E1032      76.629  -2.803 167.412  1.00 17.55 LIG 0.22  C 
ATOM     42 O    VAL E1032      76.126  -1.777 167.910  1.00 19.34 LIG-0.29  OA
ENDBRANCH 40 41
BRANCH 40 43
ATOM     43  CB  VAL E1032      75.548  -3.449 165.149  1.00 18.34 LIG 0.01  C 
ATOM     44  CG2 VAL E1032      75.830  -3.652 163.663  1.00 18.91 LIG 0.01  C 
ATOM     45  CG1 VAL E1032      74.329  -2.571 165.277  1.00 20.19 LIG 0.01  C 
ENDBRANCH 40 43
ENDBRANCH 37 40
ENDBRANCH 32 36
ENDBRANCH 27 29
ENDBRANCH 3 27
TORSDOF 15
ENDMDL
MODEL 27
USER: ADFR SOLUTION from run 94
USER: SCORE 12.937676 LL:  -2.623 LR: -12.199 RR:   0.000 FEB:  -7.724
USER: RMSD 3.556813
USER: SEED 93
USER: STATUS no improvement in best in 7 clusters for 5 generations
USER: GENES 17
USER: genes 0 Translation |==|  0.52935 0.42793 0.40240
USER: genes 1 Rotation |==|  0.81912 0.35993 0.32374 0.81221
USER: genes 2 Torsion [N]-C--CA-[N] |==|  0.64188
USER: genes 3 Torsion [C]-CA--CB-[OG] |==|  0.75326
USER: genes 4 Torsion [CA]-CB--OG-[HG] |==|  0.56634
USER: genes 5 Torsion [C]-CA--N-[C] |==|  0.66169
USER: genes 6 Torsion [N]-C--CA-[N] |==|  0.64949
USER: genes 7 Torsion [C]-CA--N-[C] |==|  0.16850
USER: genes 8 Torsion [N]-C--CA-[N] |==|  0.84060
USER: genes 9 Torsion [C]-CA--CB-[CG] |==|  0.02082
USER: genes 10 Torsion [CA]-CB--CG-[ND2] |==|  0.75078
USER: genes 11 Torsion [C]-N--CA-[CB] |==|  0.17164
USER: genes 12 Torsion [N]-CA--C-[N] |==|  0.17222
USER: genes 13 Torsion [N]-CA--C-[N] |==|  0.16849
USER: genes 14 Torsion [C]-N--CA-[C] |==|  0.82944
USER: genes 15 Torsion [N]-CA--C-[O] |==|  0.43452
USER: genes 16 Torsion [N]-CA--CB-[CG2] |==|  0.54471
ROOT
ATOM      1  C   SER E1029      82.347  -4.787 161.653  1.00 13.48 LIG 0.24  C 
ATOM      2 O    SER E1029      82.374  -3.682 161.138  1.00 12.15 LIG-0.27  OA
ATOM      3  N   ALA E1030      81.416  -5.146 162.554  1.00 12.52 LIG-0.35  N 
ATOM      4 H    ALA E1030      81.418  -5.893 162.980  1.00 12.52 LIG 0.16  HD
ENDROOT
BRANCH 1 5
ATOM      5  CA  SER E1029      83.396  -5.823 161.321  1.00 13.36 LIG 0.20  C 
BRANCH 5 6
ATOM      6  CB  SER E1029      83.273  -7.002 162.279  1.00 14.53 LIG 0.20  C 
BRANCH 6 7
ATOM      7 OG   SER E1029      84.076  -6.756 163.440  1.00 16.05 LIG-0.40  OA
ATOM      8 HG   SER E1029      84.278  -7.487 163.802  1.00 16.05 LIG 0.21  HD
ENDBRANCH 6 7
ENDBRANCH 5 6
BRANCH 5 9
ATOM      9  N   SER E1029      84.739  -5.258 161.443  1.00 13.57 LIG-0.34  N 
ATOM     10 H    SER E1029      84.925  -4.942 162.220  1.00 13.57 LIG 0.16  HD
ATOM     11  C   ALA E1028      85.583  -5.250 160.410  1.00 13.26 LIG 0.24  C 
ATOM     12 O    ALA E1028      85.255  -5.551 159.281  1.00 11.29 LIG-0.27  OA
BRANCH 11 13
ATOM     13  CA  ALA E1028      87.028  -4.841 160.710  1.00 14.25 LIG 0.17  C 
ATOM     14  CB  ALA E1028      87.160  -4.446 162.180  1.00 14.71 LIG 0.04  C 
BRANCH 13 15
ATOM     15  N   ALA E1028      87.446  -3.748 159.829  1.00 14.53 LIG-0.35  N 
ATOM     16 H    ALA E1028      88.117  -3.935 159.324  1.00 14.53 LIG 0.16  HD
ATOM     17  C   ASN E1027      86.825  -2.582 159.830  1.00 16.30 LIG 0.26  C 
ATOM     18 O    ASN E1027      85.880  -2.330 160.625  1.00 15.77 LIG-0.27  OA
BRANCH 17 19
ATOM     19  CA  ASN E1027      87.351  -1.548 158.818  1.00 16.82 LIG 0.41  C 
ATOM     20  N   ASN E1027      88.805  -1.242 158.990  1.00 18.81 LIG 0.61  N 
BRANCH 19 21
ATOM     21  CB  ASN E1027      87.166  -2.014 157.343  1.00 15.29 LIG 0.15  C 
BRANCH 21 22
ATOM     22  CG  ASN E1027      86.346  -3.297 157.218  1.00 13.40 LIG 0.22  C 
ATOM     23 OD1  ASN E1027      85.126  -3.273 157.022  1.00 12.35 LIG-0.27  OA
ATOM     24  ND2 ASN E1027      87.044  -4.427 157.257  1.00 11.10 LIG-0.37  N 
ATOM     25 22HD ASN E1027      87.893  -4.404 157.396  1.00 11.10 LIG 0.16  HD
ATOM     26 21HD ASN E1027      86.648  -5.182 157.143  1.00 11.10 LIG 0.16  HD
ENDBRANCH 21 22
ENDBRANCH 19 21
ENDBRANCH 17 19
ENDBRANCH 13 15
ENDBRANCH 11 13
ENDBRANCH 5 9
ENDBRANCH 1 5
BRANCH 3 27
ATOM     27  CA  ALA E1030      80.305  -4.267 162.880  1.00 12.56 LIG 0.17  C 
ATOM     28  CB  ALA E1030      79.481  -4.047 161.602  1.00 12.51 LIG 0.04  C 
BRANCH 27 29
ATOM     29  C   ALA E1030      79.412  -4.925 163.991  1.00 13.31 LIG 0.24  C 
ATOM     30  N   PRO E1031      79.944  -5.172 165.165  1.00 14.65 LIG-0.34  N 
ATOM     31  CD  PRO E1031      81.357  -4.995 165.539  1.00 15.56 LIG 0.13  C 
ATOM     32  CA  PRO E1031      79.121  -5.656 166.318  1.00 16.02 LIG 0.18  C 
ATOM     33  CG  PRO E1031      81.391  -5.428 166.963  1.00 15.81 LIG 0.02  C 
ATOM     34  CB  PRO E1031      80.159  -6.277 167.199  1.00 15.56 LIG 0.04  C 
ATOM     35 O    ALA E1030      78.235  -5.071 163.777  1.00 13.62 LIG-0.27  OA
BRANCH 32 36
ATOM     36  C   PRO E1031      78.370  -4.488 167.044  1.00 15.62 LIG 0.24  C 
ATOM     37  N   VAL E1032      77.522  -3.822 166.287  1.00 15.06 LIG-0.35  N 
ATOM     38 H    VAL E1032      77.293  -4.054 165.491  1.00 15.06 LIG 0.16  HD
ATOM     39 O    PRO E1031      78.587  -4.211 168.228  1.00 15.42 LIG-0.27  OA
BRANCH 37 40
ATOM     40  CA  VAL E1032      76.905  -2.624 166.765  1.00 17.90 LIG 0.17  C 
BRANCH 40 41
ATOM     41  C   VAL E1032      76.053  -2.957 168.033  1.00 17.55 LIG 0.22  C 
ATOM     42 O    VAL E1032      75.829  -2.015 168.818  1.00 19.34 LIG-0.29  OA
ENDBRANCH 40 41
BRANCH 40 43
ATOM     43  CB  VAL E1032      76.097  -1.948 165.647  1.00 18.34 LIG 0.01  C 
ATOM     44  CG2 VAL E1032      75.772  -0.503 166.013  1.00 18.91 LIG 0.01  C 
ATOM     45  CG1 VAL E1032      74.798  -2.668 165.389  1.00 20.19 LIG 0.01  C 
ENDBRANCH 40 43
ENDBRANCH 37 40
ENDBRANCH 32 36
ENDBRANCH 27 29
ENDBRANCH 3 27
TORSDOF 15
ENDMDL
MODEL 28
USER: ADFR SOLUTION from run 188
USER: SCORE 13.161255 LL:  -3.165 LR: -12.169 RR:   0.000 FEB:  -7.694
USER: RMSD 7.557696
USER: SEED 187
USER: STATUS no improvement in best in 6 clusters for 5 generations
USER: GENES 17
USER: genes 0 Translation |==|  0.72598 0.39482 0.28656
USER: genes 1 Rotation |==|  0.54365 0.82801 0.51859 0.87438
USER: genes 2 Torsion [N]-C--CA-[N] |==|  0.90633
USER: genes 3 Torsion [C]-CA--CB-[OG] |==|  0.08899
USER: genes 4 Torsion [CA]-CB--OG-[HG] |==|  0.24846
USER: genes 5 Torsion [C]-CA--N-[C] |==|  0.76373
USER: genes 6 Torsion [N]-C--CA-[N] |==|  0.47685
USER: genes 7 Torsion [C]-CA--N-[C] |==|  0.62495
USER: genes 8 Torsion [N]-C--CA-[N] |==|  0.31981
USER: genes 9 Torsion [C]-CA--CB-[CG] |==|  0.14535
USER: genes 10 Torsion [CA]-CB--CG-[ND2] |==|  0.13350
USER: genes 11 Torsion [C]-N--CA-[CB] |==|  0.48388
USER: genes 12 Torsion [N]-CA--C-[N] |==|  0.88701
USER: genes 13 Torsion [N]-CA--C-[N] |==|  0.23384
USER: genes 14 Torsion [C]-N--CA-[C] |==|  0.82178
USER: genes 15 Torsion [N]-CA--C-[O] |==|  0.48589
USER: genes 16 Torsion [N]-CA--CB-[CG2] |==|  0.20810
ROOT
ATOM      1  C   SER E1029      86.329  -5.309 159.134  1.00 13.48 LIG 0.24  C 
ATOM      2 O    SER E1029      85.494  -5.959 159.737  1.00 12.15 LIG-0.27  OA
ATOM      3  N   ALA E1030      87.305  -4.623 159.757  1.00 12.52 LIG-0.35  N 
ATOM      4 H    ALA E1030      87.861  -4.104 159.356  1.00 12.52 LIG 0.16  HD
ENDROOT
BRANCH 1 5
ATOM      5  CA  SER E1029      86.297  -5.212 157.626  1.00 13.36 LIG 0.20  C 
BRANCH 5 6
ATOM      6  CB  SER E1029      87.220  -6.265 157.026  1.00 14.53 LIG 0.20  C 
BRANCH 6 7
ATOM      7 OG   SER E1029      87.238  -7.420 157.874  1.00 16.05 LIG-0.40  OA
ATOM      8 HG   SER E1029      86.627  -7.948 157.642  1.00 16.05 LIG 0.21  HD
ENDBRANCH 6 7
ENDBRANCH 5 6
BRANCH 5 9
ATOM      9  N   SER E1029      86.739  -3.891 157.182  1.00 13.57 LIG-0.34  N 
ATOM     10 H    SER E1029      87.573  -3.843 156.977  1.00 13.57 LIG 0.16  HD
ATOM     11  C   ALA E1028      85.891  -2.864 157.112  1.00 13.26 LIG 0.24  C 
ATOM     12 O    ALA E1028      84.762  -2.904 157.553  1.00 11.29 LIG-0.27  OA
BRANCH 11 13
ATOM     13  CA  ALA E1028      86.407  -1.596 156.425  1.00 14.25 LIG 0.17  C 
ATOM     14  CB  ALA E1028      87.550  -0.994 157.241  1.00 14.71 LIG 0.04  C 
BRANCH 13 15
ATOM     15  N   ALA E1028      85.320  -0.632 156.244  1.00 14.53 LIG-0.35  N 
ATOM     16 H    ALA E1028      84.817  -0.529 156.934  1.00 14.53 LIG 0.16  HD
ATOM     17  C   ASN E1027      85.150   0.014 155.104  1.00 16.30 LIG 0.26  C 
ATOM     18 O    ASN E1027      85.877  -0.206 154.098  1.00 15.77 LIG-0.27  OA
BRANCH 17 19
ATOM     19  CA  ASN E1027      83.991   1.026 155.080  1.00 16.82 LIG 0.41  C 
ATOM     20  N   ASN E1027      84.446   2.440 154.908  1.00 18.81 LIG 0.61  N 
BRANCH 19 21
ATOM     21  CB  ASN E1027      82.978   0.742 153.930  1.00 15.29 LIG 0.15  C 
BRANCH 21 22
ATOM     22  CG  ASN E1027      82.472  -0.700 153.921  1.00 13.40 LIG 0.22  C 
ATOM     23 OD1  ASN E1027      82.514  -1.398 152.901  1.00 12.35 LIG-0.27  OA
ATOM     24  ND2 ASN E1027      82.061  -1.169 155.094  1.00 11.10 LIG-0.37  N 
ATOM     25 22HD ASN E1027      82.046  -0.653 155.782  1.00 11.10 LIG 0.16  HD
ATOM     26 21HD ASN E1027      81.811  -1.989 155.166  1.00 11.10 LIG 0.16  HD
ENDBRANCH 21 22
ENDBRANCH 19 21
ENDBRANCH 17 19
ENDBRANCH 13 15
ENDBRANCH 11 13
ENDBRANCH 5 9
ENDBRANCH 1 5
BRANCH 3 27
ATOM     27  CA  ALA E1030      87.491  -4.718 161.194  1.00 12.56 LIG 0.17  C 
ATOM     28  CB  ALA E1030      88.763  -3.941 161.563  1.00 12.51 LIG 0.04  C 
BRANCH 27 29
ATOM     29  C   ALA E1030      86.249  -4.103 161.934  1.00 13.31 LIG 0.24  C 
ATOM     30  N   PRO E1031      85.716  -3.001 161.464  1.00 14.65 LIG-0.34  N 
ATOM     31  CD  PRO E1031      86.228  -2.189 160.347  1.00 15.56 LIG 0.13  C 
ATOM     32  CA  PRO E1031      84.445  -2.439 162.021  1.00 16.02 LIG 0.18  C 
ATOM     33  CG  PRO E1031      85.247  -1.073 160.257  1.00 15.81 LIG 0.02  C 
ATOM     34  CB  PRO E1031      84.522  -1.009 161.586  1.00 15.56 LIG 0.04  C 
ATOM     35 O    ALA E1030      85.747  -4.724 162.837  1.00 13.62 LIG-0.27  OA
BRANCH 32 36
ATOM     36  C   PRO E1031      83.175  -3.152 161.442  1.00 15.62 LIG 0.24  C 
ATOM     37  N   VAL E1032      82.838  -4.266 162.060  1.00 15.06 LIG-0.35  N 
ATOM     38 H    VAL E1032      83.195  -4.545 162.791  1.00 15.06 LIG 0.16  HD
ATOM     39 O    PRO E1031      82.565  -2.704 160.467  1.00 15.42 LIG-0.27  OA
BRANCH 37 40
ATOM     40  CA  VAL E1032      81.815  -5.111 161.529  1.00 17.90 LIG 0.17  C 
BRANCH 40 41
ATOM     41  C   VAL E1032      80.454  -4.342 161.547  1.00 17.55 LIG 0.22  C 
ATOM     42 O    VAL E1032      79.481  -4.918 161.021  1.00 19.34 LIG-0.29  OA
ENDBRANCH 40 41
BRANCH 40 43
ATOM     43  CB  VAL E1032      81.770  -6.448 162.285  1.00 18.34 LIG 0.01  C 
ATOM     44  CG2 VAL E1032      81.130  -6.270 163.658  1.00 18.91 LIG 0.01  C 
ATOM     45  CG1 VAL E1032      83.151  -7.020 162.483  1.00 20.19 LIG 0.01  C 
ENDBRANCH 40 43
ENDBRANCH 37 40
ENDBRANCH 32 36
ENDBRANCH 27 29
ENDBRANCH 3 27
TORSDOF 15
ENDMDL
MODEL 29
USER: ADFR SOLUTION from run 168
USER: SCORE 13.694569 LL:  -2.715 LR: -12.158 RR:   0.000 FEB:  -7.683
USER: RMSD 3.669844
USER: SEED 167
USER: STATUS no improvement in best in 6 clusters for 5 generations
USER: GENES 17
USER: genes 0 Translation |==|  0.55166 0.41731 0.41534
USER: genes 1 Rotation |==|  0.81007 0.38321 0.42480 0.86683
USER: genes 2 Torsion [N]-C--CA-[N] |==|  0.52686
USER: genes 3 Torsion [C]-CA--CB-[OG] |==|  0.62035
USER: genes 4 Torsion [CA]-CB--OG-[HG] |==|  0.82032
USER: genes 5 Torsion [C]-CA--N-[C] |==|  0.66335
USER: genes 6 Torsion [N]-C--CA-[N] |==|  0.85608
USER: genes 7 Torsion [C]-CA--N-[C] |==|  0.77367
USER: genes 8 Torsion [N]-C--CA-[N] |==|  0.88607
USER: genes 9 Torsion [C]-CA--CB-[CG] |==|  0.82523
USER: genes 10 Torsion [CA]-CB--CG-[ND2] |==|  0.26862
USER: genes 11 Torsion [C]-N--CA-[CB] |==|  0.17350
USER: genes 12 Torsion [N]-CA--C-[N] |==|  0.17152
USER: genes 13 Torsion [N]-CA--C-[N] |==|  0.66318
USER: genes 14 Torsion [C]-N--CA-[C] |==|  0.77735
USER: genes 15 Torsion [N]-CA--C-[O] |==|  0.42430
USER: genes 16 Torsion [N]-CA--CB-[CG2] |==|  0.31313
ROOT
ATOM      1  C   SER E1029      82.799  -4.954 161.935  1.00 13.48 LIG 0.24  C 
ATOM      2 O    SER E1029      82.520  -4.060 161.154  1.00 12.15 LIG-0.27  OA
ATOM      3  N   ALA E1030      81.917  -5.443 162.824  1.00 12.52 LIG-0.35  N 
ATOM      4 H    ALA E1030      82.111  -6.024 163.428  1.00 12.52 LIG 0.16  HD
ENDROOT
BRANCH 1 5
ATOM      5  CA  SER E1029      84.186  -5.554 161.964  1.00 13.36 LIG 0.20  C 
BRANCH 5 6
ATOM      6  CB  SER E1029      84.717  -5.544 163.392  1.00 14.53 LIG 0.20  C 
BRANCH 6 7
ATOM      7 OG   SER E1029      86.085  -5.117 163.387  1.00 16.05 LIG-0.40  OA
ATOM      8 HG   SER E1029      86.553  -5.680 162.974  1.00 16.05 LIG 0.21  HD
ENDBRANCH 6 7
ENDBRANCH 5 6
BRANCH 5 9
ATOM      9  N   SER E1029      85.100  -4.787 161.118  1.00 13.57 LIG-0.34  N 
ATOM     10 H    SER E1029      85.179  -3.959 161.335  1.00 13.57 LIG 0.16  HD
ATOM     11  C   ALA E1028      85.743  -5.359 160.099  1.00 13.26 LIG 0.24  C 
ATOM     12 O    ALA E1028      85.503  -6.481 159.707  1.00 11.29 LIG-0.27  OA
BRANCH 11 13
ATOM     13  CA  ALA E1028      86.836  -4.523 159.426  1.00 14.25 LIG 0.17  C 
ATOM     14  CB  ALA E1028      88.042  -4.399 160.357  1.00 14.71 LIG 0.04  C 
BRANCH 13 15
ATOM     15  N   ALA E1028      86.318  -3.205 159.053  1.00 14.53 LIG-0.35  N 
ATOM     16 H    ALA E1028      86.507  -2.577 159.610  1.00 14.53 LIG 0.16  HD
ATOM     17  C   ASN E1027      85.619  -3.023 157.947  1.00 16.30 LIG 0.26  C 
ATOM     18 O    ASN E1027      85.314  -3.981 157.185  1.00 15.77 LIG-0.27  OA
BRANCH 17 19
ATOM     19  CA  ASN E1027      85.178  -1.575 157.669  1.00 16.82 LIG 0.41  C 
ATOM     20  N   ASN E1027      84.712  -0.854 158.893  1.00 18.81 LIG 0.61  N 
BRANCH 19 21
ATOM     21  CB  ASN E1027      86.323  -0.714 157.056  1.00 15.29 LIG 0.15  C 
BRANCH 21 22
ATOM     22  CG  ASN E1027      87.521  -0.557 157.991  1.00 13.40 LIG 0.22  C 
ATOM     23 OD1  ASN E1027      87.517   0.256 158.923  1.00 12.35 LIG-0.27  OA
ATOM     24  ND2 ASN E1027      88.525  -1.402 157.782  1.00 11.10 LIG-0.37  N 
ATOM     25 22HD ASN E1027      88.492  -1.954 157.123  1.00 11.10 LIG 0.16  HD
ATOM     26 21HD ASN E1027      89.207  -1.398 158.306  1.00 11.10 LIG 0.16  HD
ENDBRANCH 21 22
ENDBRANCH 19 21
ENDBRANCH 17 19
ENDBRANCH 13 15
ENDBRANCH 11 13
ENDBRANCH 5 9
ENDBRANCH 1 5
BRANCH 3 27
ATOM     27  CA  ALA E1030      80.530  -5.010 162.824  1.00 12.56 LIG 0.17  C 
ATOM     28  CB  ALA E1030      79.904  -5.414 161.481  1.00 12.51 LIG 0.04  C 
BRANCH 27 29
ATOM     29  C   ALA E1030      79.757  -5.695 164.007  1.00 13.31 LIG 0.24  C 
ATOM     30  N   PRO E1031      80.143  -5.455 165.237  1.00 14.65 LIG-0.34  N 
ATOM     31  CD  PRO E1031      81.324  -4.675 165.646  1.00 15.56 LIG 0.13  C 
ATOM     32  CA  PRO E1031      79.368  -5.948 166.419  1.00 16.02 LIG 0.18  C 
ATOM     33  CG  PRO E1031      81.276  -4.735 167.133  1.00 15.81 LIG 0.02  C 
ATOM     34  CB  PRO E1031      80.400  -5.915 167.502  1.00 15.56 LIG 0.04  C 
ATOM     35 O    ALA E1030      78.758  -6.323 163.760  1.00 13.62 LIG-0.27  OA
BRANCH 32 36
ATOM     36  C   PRO E1031      78.146  -5.025 166.756  1.00 15.62 LIG 0.24  C 
ATOM     37  N   VAL E1032      78.159  -4.514 167.970  1.00 15.06 LIG-0.35  N 
ATOM     38 H    VAL E1032      78.822  -4.570 168.516  1.00 15.06 LIG 0.16  HD
ATOM     39 O    PRO E1031      77.239  -4.825 165.944  1.00 15.42 LIG-0.27  OA
BRANCH 37 40
ATOM     40  CA  VAL E1032      77.024  -3.806 168.473  1.00 17.90 LIG 0.17  C 
BRANCH 40 41
ATOM     41  C   VAL E1032      77.036  -2.349 167.907  1.00 17.55 LIG 0.22  C 
ATOM     42 O    VAL E1032      75.931  -1.783 167.797  1.00 19.34 LIG-0.29  OA
ENDBRANCH 40 41
BRANCH 40 43
ATOM     43  CB  VAL E1032      76.987  -3.863 170.009  1.00 18.34 LIG 0.01  C 
ATOM     44  CG2 VAL E1032      77.226  -2.480 170.607  1.00 18.91 LIG 0.01  C 
ATOM     45  CG1 VAL E1032      78.038  -4.796 170.554  1.00 20.19 LIG 0.01  C 
ENDBRANCH 40 43
ENDBRANCH 37 40
ENDBRANCH 32 36
ENDBRANCH 27 29
ENDBRANCH 3 27
TORSDOF 15
ENDMDL
MODEL 30
USER: ADFR SOLUTION from run 107
USER: SCORE 13.686395 LL:  -2.467 LR: -12.145 RR:   0.000 FEB:  -7.670
USER: RMSD 4.697610
USER: SEED 106
USER: STATUS no improvement in best in 7 clusters for 5 generations
USER: GENES 17
USER: genes 0 Translation |==|  0.55467 0.43099 0.51472
USER: genes 1 Rotation |==|  0.77673 0.59214 0.34541 0.87555
USER: genes 2 Torsion [N]-C--CA-[N] |==|  0.88681
USER: genes 3 Torsion [C]-CA--CB-[OG] |==|  0.45523
USER: genes 4 Torsion [CA]-CB--OG-[HG] |==|  0.18430
USER: genes 5 Torsion [C]-CA--N-[C] |==|  0.84315
USER: genes 6 Torsion [N]-C--CA-[N] |==|  0.10722
USER: genes 7 Torsion [C]-CA--N-[C] |==|  0.18724
USER: genes 8 Torsion [N]-C--CA-[N] |==|  0.37717
USER: genes 9 Torsion [C]-CA--CB-[CG] |==|  0.09794
USER: genes 10 Torsion [CA]-CB--CG-[ND2] |==|  0.63088
USER: genes 11 Torsion [C]-N--CA-[CB] |==|  0.82591
USER: genes 12 Torsion [N]-CA--C-[N] |==|  0.53209
USER: genes 13 Torsion [N]-CA--C-[N] |==|  0.76289
USER: genes 14 Torsion [C]-N--CA-[C] |==|  0.51487
USER: genes 15 Torsion [N]-CA--C-[O] |==|  0.90740
USER: genes 16 Torsion [N]-CA--CB-[CG2] |==|  0.67053
ROOT
ATOM      1  C   SER E1029      82.860  -4.739 164.096  1.00 13.48 LIG 0.24  C 
ATOM      2 O    SER E1029      81.915  -3.981 163.961  1.00 12.15 LIG-0.27  OA
ATOM      3  N   ALA E1030      83.093  -5.413 165.237  1.00 12.52 LIG-0.35  N 
ATOM      4 H    ALA E1030      83.789  -5.898 165.377  1.00 12.52 LIG 0.16  HD
ENDROOT
BRANCH 1 5
ATOM      5  CA  SER E1029      83.855  -4.946 162.978  1.00 13.36 LIG 0.20  C 
BRANCH 5 6
ATOM      6  CB  SER E1029      83.565  -6.265 162.272  1.00 14.53 LIG 0.20  C 
BRANCH 6 7
ATOM      7 OG   SER E1029      84.241  -6.285 161.009  1.00 16.05 LIG-0.40  OA
ATOM      8 HG   SER E1029      85.072  -6.296 161.135  1.00 16.05 LIG 0.21  HD
ENDBRANCH 6 7
ENDBRANCH 5 6
BRANCH 5 9
ATOM      9  N   SER E1029      85.220  -4.982 163.499  1.00 13.57 LIG-0.34  N 
ATOM     10 H    SER E1029      85.659  -5.695 163.304  1.00 13.57 LIG 0.16  HD
ATOM     11  C   ALA E1028      85.715  -3.972 164.216  1.00 13.26 LIG 0.24  C 
ATOM     12 O    ALA E1028      85.039  -3.049 164.618  1.00 11.29 LIG-0.27  OA
BRANCH 11 13
ATOM     13  CA  ALA E1028      87.216  -4.018 164.518  1.00 14.25 LIG 0.17  C 
ATOM     14  CB  ALA E1028      87.706  -2.630 164.925  1.00 14.71 LIG 0.04  C 
BRANCH 13 15
ATOM     15  N   ALA E1028      87.956  -4.523 163.359  1.00 14.53 LIG-0.35  N 
ATOM     16 H    ALA E1028      88.324  -5.291 163.478  1.00 14.53 LIG 0.16  HD
ATOM     17  C   ASN E1027      88.037  -3.832 162.235  1.00 16.30 LIG 0.26  C 
ATOM     18 O    ASN E1027      87.531  -2.683 162.120  1.00 15.77 LIG-0.27  OA
BRANCH 17 19
ATOM     19  CA  ASN E1027      88.813  -4.512 161.092  1.00 16.82 LIG 0.41  C 
ATOM     20  N   ASN E1027      88.129  -4.401 159.767  1.00 18.81 LIG 0.61  N 
BRANCH 19 21
ATOM     21  CB  ASN E1027      90.240  -3.913 160.907  1.00 15.29 LIG 0.15  C 
BRANCH 21 22
ATOM     22  CG  ASN E1027      90.892  -3.498 162.226  1.00 13.40 LIG 0.22  C 
ATOM     23 OD1  ASN E1027      90.952  -4.267 163.192  1.00 12.35 LIG-0.27  OA
ATOM     24  ND2 ASN E1027      91.452  -2.293 162.232  1.00 11.10 LIG-0.37  N 
ATOM     25 22HD ASN E1027      91.389  -1.786 161.541  1.00 11.10 LIG 0.16  HD
ATOM     26 21HD ASN E1027      91.878  -2.021 162.928  1.00 11.10 LIG 0.16  HD
ENDBRANCH 21 22
ENDBRANCH 19 21
ENDBRANCH 17 19
ENDBRANCH 13 15
ENDBRANCH 11 13
ENDBRANCH 5 9
ENDBRANCH 1 5
BRANCH 3 27
ATOM     27  CA  ALA E1030      82.154  -5.365 166.344  1.00 12.56 LIG 0.17  C 
ATOM     28  CB  ALA E1030      82.068  -3.912 166.835  1.00 12.51 LIG 0.04  C 
BRANCH 27 29
ATOM     29  C   ALA E1030      80.741  -5.857 165.866  1.00 13.31 LIG 0.24  C 
ATOM     30  N   PRO E1031      79.708  -5.672 166.653  1.00 14.65 LIG-0.34  N 
ATOM     31  CD  PRO E1031      79.738  -5.134 168.024  1.00 15.56 LIG 0.13  C 
ATOM     32  CA  PRO E1031      78.312  -5.975 166.207  1.00 16.02 LIG 0.18  C 
ATOM     33  CG  PRO E1031      78.306  -5.152 168.430  1.00 15.81 LIG 0.02  C 
ATOM     34  CB  PRO E1031      77.595  -6.126 167.512  1.00 15.56 LIG 0.04  C 
ATOM     35 O    ALA E1030      80.624  -6.278 164.742  1.00 13.62 LIG-0.27  OA
BRANCH 32 36
ATOM     36  C   PRO E1031      77.700  -4.821 165.341  1.00 15.62 LIG 0.24  C 
ATOM     37  N   VAL E1032      77.139  -3.850 166.033  1.00 15.06 LIG-0.35  N 
ATOM     38 H    VAL E1032      77.188  -3.770 166.888  1.00 15.06 LIG 0.16  HD
ATOM     39 O    PRO E1031      77.726  -4.849 164.107  1.00 15.42 LIG-0.27  OA
BRANCH 37 40
ATOM     40  CA  VAL E1032      76.386  -2.829 165.375  1.00 17.90 LIG 0.17  C 
BRANCH 40 41
ATOM     41  C   VAL E1032      75.961  -1.749 166.422  1.00 17.55 LIG 0.22  C 
ATOM     42 O    VAL E1032      75.725  -2.153 167.577  1.00 19.34 LIG-0.29  OA
ENDBRANCH 40 41
BRANCH 40 43
ATOM     43  CB  VAL E1032      75.198  -3.439 164.613  1.00 18.34 LIG 0.01  C 
ATOM     44  CG2 VAL E1032      75.313  -3.156 163.118  1.00 18.91 LIG 0.01  C 
ATOM     45  CG1 VAL E1032      73.884  -2.879 165.096  1.00 20.19 LIG 0.01  C 
ENDBRANCH 40 43
ENDBRANCH 37 40
ENDBRANCH 32 36
ENDBRANCH 27 29
ENDBRANCH 3 27
TORSDOF 15
ENDMDL
MODEL 31
USER: ADFR SOLUTION from run 138
USER: SCORE 14.401609 LL:  -2.836 LR: -12.125 RR:   0.000 FEB:  -7.650
USER: RMSD 3.272352
USER: SEED 137
USER: STATUS no improvement in best in 8 clusters for 5 generations
USER: GENES 17
USER: genes 0 Translation |==|  0.44559 0.54544 0.45240
USER: genes 1 Rotation |==|  0.78490 0.57073 0.16949 0.73365
USER: genes 2 Torsion [N]-C--CA-[N] |==|  0.91393
USER: genes 3 Torsion [C]-CA--CB-[OG] |==|  0.58193
USER: genes 4 Torsion [CA]-CB--OG-[HG] |==|  0.13527
USER: genes 5 Torsion [C]-CA--N-[C] |==|  0.84550
USER: genes 6 Torsion [N]-C--CA-[N] |==|  0.41429
USER: genes 7 Torsion [C]-CA--N-[C] |==|  0.70557
USER: genes 8 Torsion [N]-C--CA-[N] |==|  0.59201
USER: genes 9 Torsion [C]-CA--CB-[CG] |==|  0.44259
USER: genes 10 Torsion [CA]-CB--CG-[ND2] |==|  0.19896
USER: genes 11 Torsion [C]-N--CA-[CB] |==|  0.79143
USER: genes 12 Torsion [N]-CA--C-[N] |==|  0.19011
USER: genes 13 Torsion [N]-CA--C-[N] |==|  0.99564
USER: genes 14 Torsion [C]-N--CA-[C] |==|  0.78581
USER: genes 15 Torsion [N]-CA--C-[O] |==|  0.24377
USER: genes 16 Torsion [N]-CA--CB-[CG2] |==|  0.40467
ROOT
ATOM      1  C   SER E1029      80.651  -2.936 162.741  1.00 13.48 LIG 0.24  C 
ATOM      2 O    SER E1029      80.563  -1.759 163.044  1.00 12.15 LIG-0.27  OA
ATOM      3  N   ALA E1030      80.664  -3.923 163.655  1.00 12.52 LIG-0.35  N 
ATOM      4 H    ALA E1030      80.794  -4.752 163.469  1.00 12.52 LIG 0.16  HD
ENDROOT
BRANCH 1 5
ATOM      5  CA  SER E1029      80.781  -3.357 161.296  1.00 13.36 LIG 0.20  C 
BRANCH 5 6
ATOM      6  CB  SER E1029      79.399  -3.632 160.716  1.00 14.53 LIG 0.20  C 
BRANCH 6 7
ATOM      7 OG   SER E1029      79.504  -4.626 159.689  1.00 16.05 LIG-0.40  OA
ATOM      8 HG   SER E1029      79.955  -5.276 159.972  1.00 16.05 LIG 0.21  HD
ENDBRANCH 6 7
ENDBRANCH 5 6
BRANCH 5 9
ATOM      9  N   SER E1029      81.589  -4.571 161.180  1.00 13.57 LIG-0.34  N 
ATOM     10 H    SER E1029      81.202  -5.220 160.770  1.00 13.57 LIG 0.16  HD
ATOM     11  C   ALA E1028      82.823  -4.632 161.681  1.00 13.26 LIG 0.24  C 
ATOM     12 O    ALA E1028      83.294  -3.770 162.393  1.00 11.29 LIG-0.27  OA
BRANCH 11 13
ATOM     13  CA  ALA E1028      83.652  -5.864 161.308  1.00 14.25 LIG 0.17  C 
ATOM     14  CB  ALA E1028      83.388  -6.989 162.308  1.00 14.71 LIG 0.04  C 
BRANCH 13 15
ATOM     15  N   ALA E1028      85.077  -5.527 161.255  1.00 14.53 LIG-0.35  N 
ATOM     16 H    ALA E1028      85.445  -5.415 162.025  1.00 14.53 LIG 0.16  HD
ATOM     17  C   ASN E1027      85.718  -5.410 160.106  1.00 16.30 LIG 0.26  C 
ATOM     18 O    ASN E1027      85.128  -5.527 158.998  1.00 15.77 LIG-0.27  OA
BRANCH 17 19
ATOM     19  CA  ASN E1027      87.221  -5.094 160.213  1.00 16.82 LIG 0.41  C 
ATOM     20  N   ASN E1027      87.724  -4.239 159.095  1.00 18.81 LIG 0.61  N 
BRANCH 19 21
ATOM     21  CB  ASN E1027      87.579  -4.352 161.536  1.00 15.29 LIG 0.15  C 
BRANCH 21 22
ATOM     22  CG  ASN E1027      89.056  -4.469 161.907  1.00 13.40 LIG 0.22  C 
ATOM     23 OD1  ASN E1027      89.443  -5.219 162.811  1.00 12.35 LIG-0.27  OA
ATOM     24  ND2 ASN E1027      89.894  -3.774 161.145  1.00 11.10 LIG-0.37  N 
ATOM     25 22HD ASN E1027      89.588  -3.262 160.525  1.00 11.10 LIG 0.16  HD
ATOM     26 21HD ASN E1027      90.743  -3.836 161.271  1.00 11.10 LIG 0.16  HD
ENDBRANCH 21 22
ENDBRANCH 19 21
ENDBRANCH 17 19
ENDBRANCH 13 15
ENDBRANCH 11 13
ENDBRANCH 5 9
ENDBRANCH 1 5
BRANCH 3 27
ATOM     27  CA  ALA E1030      80.451  -3.645 165.065  1.00 12.56 LIG 0.17  C 
ATOM     28  CB  ALA E1030      81.732  -3.009 165.624  1.00 12.51 LIG 0.04  C 
BRANCH 27 29
ATOM     29  C   ALA E1030      79.240  -2.660 165.237  1.00 13.31 LIG 0.24  C 
ATOM     30  N   PRO E1031      78.033  -3.086 164.951  1.00 14.65 LIG-0.34  N 
ATOM     31  CD  PRO E1031      77.683  -4.392 164.366  1.00 15.56 LIG 0.13  C 
ATOM     32  CA  PRO E1031      76.817  -2.260 165.231  1.00 16.02 LIG 0.18  C 
ATOM     33  CG  PRO E1031      76.200  -4.330 164.256  1.00 15.81 LIG 0.02  C 
ATOM     34  CB  PRO E1031      75.810  -2.867 164.306  1.00 15.56 LIG 0.04  C 
ATOM     35 O    ALA E1030      79.436  -1.583 165.742  1.00 13.62 LIG-0.27  OA
BRANCH 32 36
ATOM     36  C   PRO E1031      76.361  -2.360 166.728  1.00 15.62 LIG 0.24  C 
ATOM     37  N   VAL E1032      77.089  -3.166 167.474  1.00 15.06 LIG-0.35  N 
ATOM     38 H    VAL E1032      77.826  -3.532 167.220  1.00 15.06 LIG 0.16  HD
ATOM     39 O    PRO E1031      75.378  -1.745 167.151  1.00 15.42 LIG-0.27  OA
BRANCH 37 40
ATOM     40  CA  VAL E1032      76.682  -3.492 168.804  1.00 17.90 LIG 0.17  C 
BRANCH 40 41
ATOM     41  C   VAL E1032      77.004  -2.289 169.749  1.00 17.55 LIG 0.22  C 
ATOM     42 O    VAL E1032      76.128  -1.408 169.849  1.00 19.34 LIG-0.29  OA
ENDBRANCH 40 41
BRANCH 40 43
ATOM     43  CB  VAL E1032      77.323  -4.813 169.259  1.00 18.34 LIG 0.01  C 
ATOM     44  CG2 VAL E1032      77.633  -4.777 170.752  1.00 18.91 LIG 0.01  C 
ATOM     45  CG1 VAL E1032      78.608  -5.088 168.520  1.00 20.19 LIG 0.01  C 
ENDBRANCH 40 43
ENDBRANCH 37 40
ENDBRANCH 32 36
ENDBRANCH 27 29
ENDBRANCH 3 27
TORSDOF 15
ENDMDL
MODEL 32
USER: ADFR SOLUTION from run 105
USER: SCORE 13.598280 LL:  -3.711 LR: -12.087 RR:   0.000 FEB:  -7.613
USER: RMSD 6.696110
USER: SEED 104
USER: STATUS no improvement in best in 7 clusters for 5 generations
USER: GENES 17
USER: genes 0 Translation |==|  0.73419 0.50146 0.43904
USER: genes 1 Rotation |==|  0.19578 0.75964 0.51011 0.79990
USER: genes 2 Torsion [N]-C--CA-[N] |==|  0.92778
USER: genes 3 Torsion [C]-CA--CB-[OG] |==|  0.26756
USER: genes 4 Torsion [CA]-CB--OG-[HG] |==|  0.94661
USER: genes 5 Torsion [C]-CA--N-[C] |==|  0.69702
USER: genes 6 Torsion [N]-C--CA-[N] |==|  0.95118
USER: genes 7 Torsion [C]-CA--N-[C] |==|  0.71219
USER: genes 8 Torsion [N]-C--CA-[N] |==|  0.46158
USER: genes 9 Torsion [C]-CA--CB-[CG] |==|  0.43786
USER: genes 10 Torsion [CA]-CB--CG-[ND2] |==|  0.75850
USER: genes 11 Torsion [C]-N--CA-[CB] |==|  0.41985
USER: genes 12 Torsion [N]-CA--C-[N] |==|  0.83724
USER: genes 13 Torsion [N]-CA--C-[N] |==|  0.11478
USER: genes 14 Torsion [C]-N--CA-[C] |==|  0.80268
USER: genes 15 Torsion [N]-CA--C-[O] |==|  0.30471
USER: genes 16 Torsion [N]-CA--CB-[CG2] |==|  0.60780
ROOT
ATOM      1  C   SER E1029      86.495  -3.629 162.450  1.00 13.48 LIG 0.24  C 
ATOM      2 O    SER E1029      86.084  -3.809 163.584  1.00 12.15 LIG-0.27  OA
ATOM      3  N   ALA E1030      86.368  -2.453 161.809  1.00 12.52 LIG-0.35  N 
ATOM      4 H    ALA E1030      86.588  -2.325 160.988  1.00 12.52 LIG 0.16  HD
ENDROOT
BRANCH 1 5
ATOM      5  CA  SER E1029      87.158  -4.747 161.680  1.00 13.36 LIG 0.20  C 
BRANCH 5 6
ATOM      6  CB  SER E1029      88.648  -4.775 161.998  1.00 14.53 LIG 0.20  C 
BRANCH 6 7
ATOM      7 OG   SER E1029      88.896  -5.742 163.026  1.00 16.05 LIG-0.40  OA
ATOM      8 HG   SER E1029      88.179  -5.910 163.432  1.00 16.05 LIG 0.21  HD
ENDBRANCH 6 7
ENDBRANCH 5 6
BRANCH 5 9
ATOM      9  N   SER E1029      86.990  -4.554 160.240  1.00 13.57 LIG-0.34  N 
ATOM     10 H    SER E1029      87.446  -3.905 159.910  1.00 13.57 LIG 0.16  HD
ATOM     11  C   ALA E1028      86.185  -5.342 159.526  1.00 13.26 LIG 0.24  C 
ATOM     12 O    ALA E1028      85.428  -6.148 160.026  1.00 11.29 LIG-0.27  OA
BRANCH 11 13
ATOM     13  CA  ALA E1028      86.257  -5.193 158.003  1.00 14.25 LIG 0.17  C 
ATOM     14  CB  ALA E1028      87.003  -6.383 157.400  1.00 14.71 LIG 0.04  C 
BRANCH 13 15
ATOM     15  N   ALA E1028      86.899  -3.927 157.641  1.00 14.53 LIG-0.35  N 
ATOM     16 H    ALA E1028      87.754  -3.923 157.731  1.00 14.53 LIG 0.16  HD
ATOM     17  C   ASN E1027      86.196  -2.892 157.216  1.00 16.30 LIG 0.26  C 
ATOM     18 O    ASN E1027      84.937  -2.921 157.152  1.00 15.77 LIG-0.27  OA
BRANCH 17 19
ATOM     19  CA  ASN E1027      87.015  -1.645 156.834  1.00 16.82 LIG 0.41  C 
ATOM     20  N   ASN E1027      86.227  -0.637 156.061  1.00 18.81 LIG 0.61  N 
BRANCH 19 21
ATOM     21  CB  ASN E1027      87.584  -0.904 158.081  1.00 15.29 LIG 0.15  C 
BRANCH 21 22
ATOM     22  CG  ASN E1027      88.798  -0.034 157.758  1.00 13.40 LIG 0.22  C 
ATOM     23 OD1  ASN E1027      88.691   1.180 157.548  1.00 12.35 LIG-0.27  OA
ATOM     24  ND2 ASN E1027      89.972  -0.654 157.797  1.00 11.10 LIG-0.37  N 
ATOM     25 22HD ASN E1027      90.007  -1.500 157.947  1.00 11.10 LIG 0.16  HD
ATOM     26 21HD ASN E1027      90.698  -0.209 157.674  1.00 11.10 LIG 0.16  HD
ENDBRANCH 21 22
ENDBRANCH 19 21
ENDBRANCH 17 19
ENDBRANCH 13 15
ENDBRANCH 11 13
ENDBRANCH 5 9
ENDBRANCH 1 5
BRANCH 3 27
ATOM     27  CA  ALA E1030      85.833  -1.283 162.484  1.00 12.56 LIG 0.17  C 
ATOM     28  CB  ALA E1030      86.451  -0.035 161.836  1.00 12.51 LIG 0.04  C 
BRANCH 27 29
ATOM     29  C   ALA E1030      84.270  -1.250 162.334  1.00 13.31 LIG 0.24  C 
ATOM     30  N   PRO E1031      83.751  -1.227 161.130  1.00 14.65 LIG-0.34  N 
ATOM     31  CD  PRO E1031      84.490  -1.118 159.861  1.00 15.56 LIG 0.13  C 
ATOM     32  CA  PRO E1031      82.276  -1.347 160.904  1.00 16.02 LIG 0.18  C 
ATOM     33  CG  PRO E1031      83.411  -1.133 158.835  1.00 15.81 LIG 0.02  C 
ATOM     34  CB  PRO E1031      82.123  -0.758 159.537  1.00 15.56 LIG 0.04  C 
ATOM     35 O    ALA E1030      83.591  -1.370 163.323  1.00 13.62 LIG-0.27  OA
BRANCH 32 36
ATOM     36  C   PRO E1031      81.785  -2.835 160.951  1.00 15.62 LIG 0.24  C 
ATOM     37  N   VAL E1032      82.330  -3.566 161.902  1.00 15.06 LIG-0.35  N 
ATOM     38 H    VAL E1032      82.829  -3.255 162.531  1.00 15.06 LIG 0.16  HD
ATOM     39 O    PRO E1031      80.971  -3.277 160.135  1.00 15.42 LIG-0.27  OA
BRANCH 37 40
ATOM     40  CA  VAL E1032      82.113  -4.978 161.948  1.00 17.90 LIG 0.17  C 
BRANCH 40 41
ATOM     41  C   VAL E1032      80.634  -5.257 162.370  1.00 17.55 LIG 0.22  C 
ATOM     42 O    VAL E1032      79.880  -5.714 161.490  1.00 19.34 LIG-0.29  OA
ENDBRANCH 40 41
BRANCH 40 43
ATOM     43  CB  VAL E1032      83.146  -5.654 162.864  1.00 18.34 LIG 0.01  C 
ATOM     44  CG2 VAL E1032      83.597  -6.988 162.277  1.00 18.91 LIG 0.01  C 
ATOM     45  CG1 VAL E1032      82.582  -5.914 164.238  1.00 20.19 LIG 0.01  C 
ENDBRANCH 40 43
ENDBRANCH 37 40
ENDBRANCH 32 36
ENDBRANCH 27 29
ENDBRANCH 3 27
TORSDOF 15
ENDMDL
MODEL 33
USER: ADFR SOLUTION from run 170
USER: SCORE 14.373650 LL:  -2.646 LR: -12.093 RR:   0.000 FEB:  -7.618
USER: RMSD 5.552078
USER: SEED 169
USER: STATUS 1 or 2 clusters left
USER: GENES 17
USER: genes 0 Translation |==|  0.40352 0.53142 0.24123
USER: genes 1 Rotation |==|  0.59092 0.76273 0.50243 0.91558
USER: genes 2 Torsion [N]-C--CA-[N] |==|  0.01667
USER: genes 3 Torsion [C]-CA--CB-[OG] |==|  0.08416
USER: genes 4 Torsion [CA]-CB--OG-[HG] |==|  0.41242
USER: genes 5 Torsion [C]-CA--N-[C] |==|  0.76019
USER: genes 6 Torsion [N]-C--CA-[N] |==|  0.95158
USER: genes 7 Torsion [C]-CA--N-[C] |==|  0.74784
USER: genes 8 Torsion [N]-C--CA-[N] |==|  0.22626
USER: genes 9 Torsion [C]-CA--CB-[CG] |==|  0.43716
USER: genes 10 Torsion [CA]-CB--CG-[ND2] |==|  0.55408
USER: genes 11 Torsion [C]-N--CA-[CB] |==|  0.83302
USER: genes 12 Torsion [N]-CA--C-[N] |==|  0.33113
USER: genes 13 Torsion [N]-CA--C-[N] |==|  0.88057
USER: genes 14 Torsion [C]-N--CA-[C] |==|  0.72536
USER: genes 15 Torsion [N]-CA--C-[O] |==|  0.12644
USER: genes 16 Torsion [N]-CA--CB-[CG2] |==|  0.91299
ROOT
ATOM      1  C   SER E1029      79.799  -3.157 158.148  1.00 13.48 LIG 0.24  C 
ATOM      2 O    SER E1029      78.718  -3.653 158.413  1.00 12.15 LIG-0.27  OA
ATOM      3  N   ALA E1030      80.656  -2.735 159.095  1.00 12.52 LIG-0.35  N 
ATOM      4 H    ALA E1030      81.392  -2.321 158.931  1.00 12.52 LIG 0.16  HD
ENDROOT
BRANCH 1 5
ATOM      5  CA  SER E1029      80.232  -2.960 156.714  1.00 13.36 LIG 0.20  C 
BRANCH 5 6
ATOM      6  CB  SER E1029      80.164  -4.289 155.971  1.00 14.53 LIG 0.20  C 
BRANCH 6 7
ATOM      7 OG   SER E1029      79.123  -5.096 156.537  1.00 16.05 LIG-0.40  OA
ATOM      8 HG   SER E1029      78.788  -5.582 155.939  1.00 16.05 LIG 0.21  HD
ENDBRANCH 6 7
ENDBRANCH 5 6
BRANCH 5 9
ATOM      9  N   SER E1029      81.603  -2.457 156.651  1.00 13.57 LIG-0.34  N 
ATOM     10 H    SER E1029      82.205  -3.066 156.566  1.00 13.57 LIG 0.16  HD
ATOM     11  C   ALA E1028      81.866  -1.152 156.722  1.00 13.26 LIG 0.24  C 
ATOM     12 O    ALA E1028      81.029  -0.320 157.001  1.00 11.29 LIG-0.27  OA
BRANCH 11 13
ATOM     13  CA  ALA E1028      83.307  -0.727 156.423  1.00 14.25 LIG 0.17  C 
ATOM     14  CB  ALA E1028      83.379  -0.075 155.043  1.00 14.71 LIG 0.04  C 
BRANCH 13 15
ATOM     15  N   ALA E1028      84.210  -1.876 156.514  1.00 14.53 LIG-0.35  N 
ATOM     16 H    ALA E1028      84.307  -2.312 155.779  1.00 14.53 LIG 0.16  HD
ATOM     17  C   ASN E1027      84.812  -2.195 157.646  1.00 16.30 LIG 0.26  C 
ATOM     18 O    ASN E1027      84.599  -1.563 158.716  1.00 15.77 LIG-0.27  OA
BRANCH 17 19
ATOM     19  CA  ASN E1027      85.765  -3.403 157.575  1.00 16.82 LIG 0.41  C 
ATOM     20  N   ASN E1027      87.116  -3.058 157.035  1.00 18.81 LIG 0.61  N 
BRANCH 19 21
ATOM     21  CB  ASN E1027      85.997  -4.057 158.970  1.00 15.29 LIG 0.15  C 
BRANCH 21 22
ATOM     22  CG  ASN E1027      86.453  -5.513 158.879  1.00 13.40 LIG 0.22  C 
ATOM     23 OD1  ASN E1027      87.008  -5.960 157.869  1.00 12.35 LIG-0.27  OA
ATOM     24  ND2 ASN E1027      86.282  -6.235 159.981  1.00 11.10 LIG-0.37  N 
ATOM     25 22HD ASN E1027      85.890  -5.890 160.665  1.00 11.10 LIG 0.16  HD
ATOM     26 21HD ASN E1027      86.563  -7.048 160.012  1.00 11.10 LIG 0.16  HD
ENDBRANCH 21 22
ENDBRANCH 19 21
ENDBRANCH 17 19
ENDBRANCH 13 15
ENDBRANCH 11 13
ENDBRANCH 5 9
ENDBRANCH 1 5
BRANCH 3 27
ATOM     27  CA  ALA E1030      80.388  -2.958 160.505  1.00 12.56 LIG 0.17  C 
ATOM     28  CB  ALA E1030      79.066  -2.259 160.856  1.00 12.51 LIG 0.04  C 
BRANCH 27 29
ATOM     29  C   ALA E1030      80.275  -4.499 160.789  1.00 13.31 LIG 0.24  C 
ATOM     30  N   PRO E1031      81.120  -5.051 161.627  1.00 14.65 LIG-0.34  N 
ATOM     31  CD  PRO E1031      82.267  -4.391 162.272  1.00 15.56 LIG 0.13  C 
ATOM     32  CA  PRO E1031      80.982  -6.476 162.062  1.00 16.02 LIG 0.18  C 
ATOM     33  CG  PRO E1031      82.865  -5.476 163.099  1.00 15.81 LIG 0.02  C 
ATOM     34  CB  PRO E1031      82.367  -6.791 162.534  1.00 15.56 LIG 0.04  C 
ATOM     35 O    ALA E1030      79.342  -5.107 160.326  1.00 13.62 LIG-0.27  OA
BRANCH 32 36
ATOM     36  C   PRO E1031      79.928  -6.649 163.209  1.00 15.62 LIG 0.24  C 
ATOM     37  N   VAL E1032      79.987  -5.735 164.156  1.00 15.06 LIG-0.35  N 
ATOM     38 H    VAL E1032      80.475  -5.028 164.121  1.00 15.06 LIG 0.16  HD
ATOM     39 O    PRO E1031      79.128  -7.590 163.220  1.00 15.42 LIG-0.27  OA
BRANCH 37 40
ATOM     40  CA  VAL E1032      79.211  -5.872 165.348  1.00 17.90 LIG 0.17  C 
BRANCH 40 41
ATOM     41  C   VAL E1032      77.920  -4.999 165.223  1.00 17.55 LIG 0.22  C 
ATOM     42 O    VAL E1032      77.298  -5.073 164.145  1.00 19.34 LIG-0.29  OA
ENDBRANCH 40 41
BRANCH 40 43
ATOM     43  CB  VAL E1032      80.056  -5.535 166.587  1.00 18.34 LIG 0.01  C 
ATOM     44  CG2 VAL E1032      81.519  -5.902 166.358  1.00 18.91 LIG 0.01  C 
ATOM     45  CG1 VAL E1032      79.572  -6.277 167.807  1.00 20.19 LIG 0.01  C 
ENDBRANCH 40 43
ENDBRANCH 37 40
ENDBRANCH 32 36
ENDBRANCH 27 29
ENDBRANCH 3 27
TORSDOF 15
ENDMDL
MODEL 34
USER: ADFR SOLUTION from run 105
USER: SCORE 13.236993 LL:  -3.102 LR: -12.073 RR:   0.000 FEB:  -7.598
USER: RMSD 5.618896
USER: SEED 104
USER: STATUS no improvement in best in 7 clusters for 5 generations
USER: GENES 17
USER: genes 0 Translation |==|  0.69322 0.46819 0.43348
USER: genes 1 Rotation |==|  0.09154 0.65590 0.59354 0.72385
USER: genes 2 Torsion [N]-C--CA-[N] |==|  0.99857
USER: genes 3 Torsion [C]-CA--CB-[OG] |==|  0.33399
USER: genes 4 Torsion [CA]-CB--OG-[HG] |==|  0.83972
USER: genes 5 Torsion [C]-CA--N-[C] |==|  0.79443
USER: genes 6 Torsion [N]-C--CA-[N] |==|  0.93971
USER: genes 7 Torsion [C]-CA--N-[C] |==|  0.75788
USER: genes 8 Torsion [N]-C--CA-[N] |==|  0.40947
USER: genes 9 Torsion [C]-CA--CB-[CG] |==|  0.35075
USER: genes 10 Torsion [CA]-CB--CG-[ND2] |==|  0.16630
USER: genes 11 Torsion [C]-N--CA-[CB] |==|  0.34553
USER: genes 12 Torsion [N]-CA--C-[N] |==|  0.20042
USER: genes 13 Torsion [N]-CA--C-[N] |==|  0.16442
USER: genes 14 Torsion [C]-N--CA-[C] |==|  0.15900
USER: genes 15 Torsion [N]-CA--C-[O] |==|  0.10413
USER: genes 16 Torsion [N]-CA--CB-[CG2] |==|  0.65651
ROOT
ATOM      1  C   SER E1029      85.666  -4.153 162.329  1.00 13.48 LIG 0.24  C 
ATOM      2 O    SER E1029      85.478  -4.232 163.531  1.00 12.15 LIG-0.27  OA
ATOM      3  N   ALA E1030      84.806  -3.535 161.499  1.00 12.52 LIG-0.35  N 
ATOM      4 H    ALA E1030      84.883  -3.527 160.643  1.00 12.52 LIG 0.16  HD
ENDROOT
BRANCH 1 5
ATOM      5  CA  SER E1029      86.883  -4.781 161.691  1.00 13.36 LIG 0.20  C 
BRANCH 5 6
ATOM      6  CB  SER E1029      88.145  -4.140 162.256  1.00 14.53 LIG 0.20  C 
BRANCH 6 7
ATOM      7 OG   SER E1029      88.949  -5.146 162.884  1.00 16.05 LIG-0.40  OA
ATOM      8 HG   SER E1029      88.503  -5.527 163.486  1.00 16.05 LIG 0.21  HD
ENDBRANCH 6 7
ENDBRANCH 5 6
BRANCH 5 9
ATOM      9  N   SER E1029      86.866  -4.587 160.242  1.00 13.57 LIG-0.34  N 
ATOM     10 H    SER E1029      87.425  -4.001 159.953  1.00 13.57 LIG 0.16  HD
ATOM     11  C   ALA E1028      86.039  -5.282 159.460  1.00 13.26 LIG 0.24  C 
ATOM     12 O    ALA E1028      85.150  -5.985 159.892  1.00 11.29 LIG-0.27  OA
BRANCH 11 13
ATOM     13  CA  ALA E1028      86.263  -5.161 157.950  1.00 14.25 LIG 0.17  C 
ATOM     14  CB  ALA E1028      87.003  -6.395 157.435  1.00 14.71 LIG 0.04  C 
BRANCH 13 15
ATOM     15  N   ALA E1028      86.997  -3.933 157.637  1.00 14.53 LIG-0.35  N 
ATOM     16 H    ALA E1028      87.851  -4.031 157.592  1.00 14.53 LIG 0.16  HD
ATOM     17  C   ASN E1027      86.374  -2.784 157.443  1.00 16.30 LIG 0.26  C 
ATOM     18 O    ASN E1027      85.125  -2.673 157.572  1.00 15.77 LIG-0.27  OA
BRANCH 17 19
ATOM     19  CA  ASN E1027      87.277  -1.592 157.080  1.00 16.82 LIG 0.41  C 
ATOM     20  N   ASN E1027      86.619  -0.610 156.166  1.00 18.81 LIG 0.61  N 
BRANCH 19 21
ATOM     21  CB  ASN E1027      87.736  -0.791 158.337  1.00 15.29 LIG 0.15  C 
BRANCH 21 22
ATOM     22  CG  ASN E1027      89.253  -0.626 158.422  1.00 13.40 LIG 0.22  C 
ATOM     23 OD1  ASN E1027      89.910  -1.120 159.346  1.00 12.35 LIG-0.27  OA
ATOM     24  ND2 ASN E1027      89.817   0.010 157.401  1.00 11.10 LIG-0.37  N 
ATOM     25 22HD ASN E1027      89.327   0.340 156.776  1.00 11.10 LIG 0.16  HD
ATOM     26 21HD ASN E1027      90.672   0.091 157.364  1.00 11.10 LIG 0.16  HD
ENDBRANCH 21 22
ENDBRANCH 19 21
ENDBRANCH 17 19
ENDBRANCH 13 15
ENDBRANCH 11 13
ENDBRANCH 5 9
ENDBRANCH 1 5
BRANCH 3 27
ATOM     27  CA  ALA E1030      83.652  -2.816 162.010  1.00 12.56 LIG 0.17  C 
ATOM     28  CB  ALA E1030      83.712  -1.377 161.476  1.00 12.51 LIG 0.04  C 
BRANCH 27 29
ATOM     29  C   ALA E1030      82.331  -3.516 161.528  1.00 13.31 LIG 0.24  C 
ATOM     30  N   PRO E1031      81.996  -4.668 162.060  1.00 14.65 LIG-0.34  N 
ATOM     31  CD  PRO E1031      82.797  -5.457 163.011  1.00 15.56 LIG 0.13  C 
ATOM     32  CA  PRO E1031      80.683  -5.321 161.764  1.00 16.02 LIG 0.18  C 
ATOM     33  CG  PRO E1031      81.945  -6.651 163.266  1.00 15.81 LIG 0.02  C 
ATOM     34  CB  PRO E1031      80.960  -6.748 162.120  1.00 15.56 LIG 0.04  C 
ATOM     35 O    ALA E1030      81.601  -2.921 160.776  1.00 13.62 LIG-0.27  OA
BRANCH 32 36
ATOM     36  C   PRO E1031      79.515  -4.727 162.625  1.00 15.62 LIG 0.24  C 
ATOM     37  N   VAL E1032      79.315  -3.434 162.466  1.00 15.06 LIG-0.35  N 
ATOM     38 H    VAL E1032      79.699  -2.952 161.866  1.00 15.06 LIG 0.16  HD
ATOM     39 O    PRO E1031      78.862  -5.425 163.406  1.00 15.42 LIG-0.27  OA
BRANCH 37 40
ATOM     40  CA  VAL E1032      78.409  -2.729 163.317  1.00 17.90 LIG 0.17  C 
BRANCH 40 41
ATOM     41  C   VAL E1032      78.855  -2.912 164.805  1.00 17.55 LIG 0.22  C 
ATOM     42 O    VAL E1032      80.082  -2.921 165.023  1.00 19.34 LIG-0.29  OA
ENDBRANCH 40 41
BRANCH 40 43
ATOM     43  CB  VAL E1032      76.962  -3.174 163.056  1.00 18.34 LIG 0.01  C 
ATOM     44  CG2 VAL E1032      76.086  -1.978 162.694  1.00 18.91 LIG 0.01  C 
ATOM     45  CG1 VAL E1032      76.361  -3.846 164.264  1.00 20.19 LIG 0.01  C 
ENDBRANCH 40 43
ENDBRANCH 37 40
ENDBRANCH 32 36
ENDBRANCH 27 29
ENDBRANCH 3 27
TORSDOF 15
ENDMDL
MODEL 35
USER: ADFR SOLUTION from run 27
USER: SCORE 14.132292 LL:  -2.910 LR: -12.072 RR:   0.000 FEB:  -7.597
USER: RMSD 3.304545
USER: SEED 26
USER: STATUS no improvement in best in 9 clusters for 5 generations
USER: GENES 17
USER: genes 0 Translation |==|  0.45863 0.40247 0.62688
USER: genes 1 Rotation |==|  0.04571 0.57337 0.60307 0.66618
USER: genes 2 Torsion [N]-C--CA-[N] |==|  0.03123
USER: genes 3 Torsion [C]-CA--CB-[OG] |==|  0.58754
USER: genes 4 Torsion [CA]-CB--OG-[HG] |==|  0.85540
USER: genes 5 Torsion [C]-CA--N-[C] |==|  0.67228
USER: genes 6 Torsion [N]-C--CA-[N] |==|  0.24104
USER: genes 7 Torsion [C]-CA--N-[C] |==|  0.65071
USER: genes 8 Torsion [N]-C--CA-[N] |==|  0.83026
USER: genes 9 Torsion [C]-CA--CB-[CG] |==|  0.14637
USER: genes 10 Torsion [CA]-CB--CG-[ND2] |==|  0.26867
USER: genes 11 Torsion [C]-N--CA-[CB] |==|  0.84766
USER: genes 12 Torsion [N]-CA--C-[N] |==|  0.44700
USER: genes 13 Torsion [N]-CA--C-[N] |==|  0.27178
USER: genes 14 Torsion [C]-N--CA-[C] |==|  0.57817
USER: genes 15 Torsion [N]-CA--C-[O] |==|  0.33606
USER: genes 16 Torsion [N]-CA--CB-[CG2] |==|  0.09063
ROOT
ATOM      1  C   SER E1029      80.915  -5.188 166.536  1.00 13.48 LIG 0.24  C 
ATOM      2 O    SER E1029      80.633  -5.120 167.720  1.00 12.15 LIG-0.27  OA
ATOM      3  N   ALA E1030      79.990  -5.106 165.563  1.00 12.52 LIG-0.35  N 
ATOM      4 H    ALA E1030      80.157  -5.221 164.727  1.00 12.52 LIG 0.16  HD
ENDROOT
BRANCH 1 5
ATOM      5  CA  SER E1029      82.343  -5.400 166.090  1.00 13.36 LIG 0.20  C 
BRANCH 5 6
ATOM      6  CB  SER E1029      83.253  -4.402 166.794  1.00 14.53 LIG 0.20  C 
BRANCH 6 7
ATOM      7 OG   SER E1029      84.352  -4.072 165.935  1.00 16.05 LIG-0.40  OA
ATOM      8 HG   SER E1029      84.720  -4.777 165.666  1.00 16.05 LIG 0.21  HD
ENDBRANCH 6 7
ENDBRANCH 5 6
BRANCH 5 9
ATOM      9  N   SER E1029      82.468  -5.211 164.645  1.00 13.57 LIG-0.34  N 
ATOM     10 H    SER E1029      82.271  -4.422 164.369  1.00 13.57 LIG 0.16  HD
ATOM     11  C   ALA E1028      82.860  -6.206 163.848  1.00 13.26 LIG 0.24  C 
ATOM     12 O    ALA E1028      82.981  -7.353 164.226  1.00 11.29 LIG-0.27  OA
BRANCH 11 13
ATOM     13  CA  ALA E1028      83.170  -5.837 162.394  1.00 14.25 LIG 0.17  C 
ATOM     14  CB  ALA E1028      82.878  -7.027 161.483  1.00 14.71 LIG 0.04  C 
BRANCH 13 15
ATOM     15  N   ALA E1028      84.561  -5.397 162.262  1.00 14.53 LIG-0.35  N 
ATOM     16 H    ALA E1028      85.141  -5.955 162.564  1.00 14.53 LIG 0.16  HD
ATOM     17  C   ASN E1027      84.870  -4.232 161.720  1.00 16.30 LIG 0.26  C 
ATOM     18 O    ASN E1027      83.986  -3.417 161.341  1.00 15.77 LIG-0.27  OA
BRANCH 17 19
ATOM     19  CA  ASN E1027      86.375  -3.928 161.612  1.00 16.82 LIG 0.41  C 
ATOM     20  N   ASN E1027      87.065  -3.884 162.937  1.00 18.81 LIG 0.61  N 
BRANCH 19 21
ATOM     21  CB  ASN E1027      87.133  -4.983 160.750  1.00 15.29 LIG 0.15  C 
BRANCH 21 22
ATOM     22  CG  ASN E1027      86.504  -5.196 159.374  1.00 13.40 LIG 0.22  C 
ATOM     23 OD1  ASN E1027      85.502  -5.905 159.219  1.00 12.35 LIG-0.27  OA
ATOM     24  ND2 ASN E1027      87.056  -4.510 158.380  1.00 11.10 LIG-0.37  N 
ATOM     25 22HD ASN E1027      87.753  -4.027 158.526  1.00 11.10 LIG 0.16  HD
ATOM     26 21HD ASN E1027      86.718  -4.547 157.590  1.00 11.10 LIG 0.16  HD
ENDBRANCH 21 22
ENDBRANCH 19 21
ENDBRANCH 17 19
ENDBRANCH 13 15
ENDBRANCH 11 13
ENDBRANCH 5 9
ENDBRANCH 1 5
BRANCH 3 27
ATOM     27  CA  ALA E1030      78.601  -4.809 165.868  1.00 12.56 LIG 0.17  C 
ATOM     28  CB  ALA E1030      78.111  -5.834 166.902  1.00 12.51 LIG 0.04  C 
BRANCH 27 29
ATOM     29  C   ALA E1030      78.483  -3.356 166.452  1.00 13.31 LIG 0.24  C 
ATOM     30  N   PRO E1031      77.313  -2.762 166.437  1.00 14.65 LIG-0.34  N 
ATOM     31  CD  PRO E1031      76.080  -3.277 165.819  1.00 15.56 LIG 0.13  C 
ATOM     32  CA  PRO E1031      77.089  -1.443 167.108  1.00 16.02 LIG 0.18  C 
ATOM     33  CG  PRO E1031      75.085  -2.205 166.098  1.00 15.81 LIG 0.02  C 
ATOM     34  CB  PRO E1031      75.864  -0.944 166.408  1.00 15.56 LIG 0.04  C 
ATOM     35 O    ALA E1030      79.439  -2.875 167.007  1.00 13.62 LIG-0.27  OA
BRANCH 32 36
ATOM     36  C   PRO E1031      76.853  -1.593 168.650  1.00 15.62 LIG 0.24  C 
ATOM     37  N   VAL E1032      77.919  -1.381 169.395  1.00 15.06 LIG-0.35  N 
ATOM     38 H    VAL E1032      78.667  -1.075 169.100  1.00 15.06 LIG 0.16  HD
ATOM     39 O    PRO E1031      75.753  -1.911 169.112  1.00 15.42 LIG-0.27  OA
BRANCH 37 40
ATOM     40  CA  VAL E1032      77.894  -1.659 170.797  1.00 17.90 LIG 0.17  C 
BRANCH 40 41
ATOM     41  C   VAL E1032      78.906  -0.716 171.525  1.00 17.55 LIG 0.22  C 
ATOM     42 O    VAL E1032      78.438   0.032 172.405  1.00 19.34 LIG-0.29  OA
ENDBRANCH 40 41
BRANCH 40 43
ATOM     43  CB  VAL E1032      78.156  -3.151 171.057  1.00 18.34 LIG 0.01  C 
ATOM     44  CG2 VAL E1032      79.102  -3.725 170.008  1.00 18.91 LIG 0.01  C 
ATOM     45  CG1 VAL E1032      76.879  -3.952 171.024  1.00 20.19 LIG 0.01  C 
ENDBRANCH 40 43
ENDBRANCH 37 40
ENDBRANCH 32 36
ENDBRANCH 27 29
ENDBRANCH 3 27
TORSDOF 15
ENDMDL
MODEL 36
USER: ADFR SOLUTION from run 40
USER: SCORE 14.311029 LL:  -3.611 LR: -12.038 RR:   0.000 FEB:  -7.563
USER: RMSD 3.019304
USER: SEED 39
USER: STATUS no improvement in best in 4 clusters for 5 generations
USER: GENES 17
USER: genes 0 Translation |==|  0.44877 0.38154 0.43252
USER: genes 1 Rotation |==|  0.46389 0.52995 0.57554 0.99203
USER: genes 2 Torsion [N]-C--CA-[N] |==|  0.07943
USER: genes 3 Torsion [C]-CA--CB-[OG] |==|  0.46000
USER: genes 4 Torsion [CA]-CB--OG-[HG] |==|  0.32126
USER: genes 5 Torsion [C]-CA--N-[C] |==|  0.16715
USER: genes 6 Torsion [N]-C--CA-[N] |==|  0.88560
USER: genes 7 Torsion [C]-CA--N-[C] |==|  0.82779
USER: genes 8 Torsion [N]-C--CA-[N] |==|  0.29857
USER: genes 9 Torsion [C]-CA--CB-[CG] |==|  0.74491
USER: genes 10 Torsion [CA]-CB--CG-[ND2] |==|  0.15478
USER: genes 11 Torsion [C]-N--CA-[CB] |==|  0.21392
USER: genes 12 Torsion [N]-CA--C-[N] |==|  0.42121
USER: genes 13 Torsion [N]-CA--C-[N] |==|  0.13335
USER: genes 14 Torsion [C]-N--CA-[C] |==|  0.81190
USER: genes 15 Torsion [N]-CA--C-[O] |==|  0.29118
USER: genes 16 Torsion [N]-CA--CB-[CG2] |==|  0.82449
ROOT
ATOM      1  C   SER E1029      80.716  -5.518 162.308  1.00 13.48 LIG 0.24  C 
ATOM      2 O    SER E1029      80.055  -6.412 161.808  1.00 12.15 LIG-0.27  OA
ATOM      3  N   ALA E1030      80.214  -4.668 163.223  1.00 12.52 LIG-0.35  N 
ATOM      4 H    ALA E1030      80.639  -3.990 163.537  1.00 12.52 LIG 0.16  HD
ENDROOT
BRANCH 1 5
ATOM      5  CA  SER E1029      82.153  -5.294 161.900  1.00 13.36 LIG 0.20  C 
BRANCH 5 6
ATOM      6  CB  SER E1029      82.798  -6.628 161.545  1.00 14.53 LIG 0.20  C 
BRANCH 6 7
ATOM      7 OG   SER E1029      84.027  -6.390 160.848  1.00 16.05 LIG-0.40  OA
ATOM      8 HG   SER E1029      84.670  -6.677 161.306  1.00 16.05 LIG 0.21  HD
ENDBRANCH 6 7
ENDBRANCH 5 6
BRANCH 5 9
ATOM      9  N   SER E1029      82.912  -4.681 162.990  1.00 13.57 LIG-0.34  N 
ATOM     10 H    SER E1029      83.254  -3.916 162.801  1.00 13.57 LIG 0.16  HD
ATOM     11  C   ALA E1028      83.042  -5.289 164.170  1.00 13.26 LIG 0.24  C 
ATOM     12 O    ALA E1028      82.692  -6.432 164.371  1.00 11.29 LIG-0.27  OA
BRANCH 11 13
ATOM     13  CA  ALA E1028      83.662  -4.461 165.300  1.00 14.25 LIG 0.17  C 
ATOM     14  CB  ALA E1028      82.597  -3.568 165.933  1.00 14.71 LIG 0.04  C 
BRANCH 13 15
ATOM     15  N   ALA E1028      84.788  -3.669 164.797  1.00 14.53 LIG-0.35  N 
ATOM     16 H    ALA E1028      84.683  -2.818 164.867  1.00 14.53 LIG 0.16  HD
ATOM     17  C   ASN E1027      85.862  -4.241 164.284  1.00 16.30 LIG 0.26  C 
ATOM     18 O    ASN E1027      85.952  -5.492 164.149  1.00 15.77 LIG-0.27  OA
BRANCH 17 19
ATOM     19  CA  ASN E1027      86.978  -3.280 163.838  1.00 16.82 LIG 0.41  C 
ATOM     20  N   ASN E1027      88.170  -3.299 164.741  1.00 18.81 LIG 0.61  N 
BRANCH 19 21
ATOM     21  CB  ASN E1027      87.501  -3.602 162.405  1.00 15.29 LIG 0.15  C 
BRANCH 21 22
ATOM     22  CG  ASN E1027      88.694  -4.556 162.404  1.00 13.40 LIG 0.22  C 
ATOM     23 OD1  ASN E1027      89.785  -4.234 161.918  1.00 12.35 LIG-0.27  OA
ATOM     24  ND2 ASN E1027      88.501  -5.714 163.026  1.00 11.10 LIG-0.37  N 
ATOM     25 22HD ASN E1027      87.728  -5.903 163.352  1.00 11.10 LIG 0.16  HD
ATOM     26 21HD ASN E1027      89.149  -6.274 163.104  1.00 11.10 LIG 0.16  HD
ENDBRANCH 21 22
ENDBRANCH 19 21
ENDBRANCH 17 19
ENDBRANCH 13 15
ENDBRANCH 11 13
ENDBRANCH 5 9
ENDBRANCH 1 5
BRANCH 3 27
ATOM     27  CA  ALA E1030      78.875  -4.845 163.759  1.00 12.56 LIG 0.17  C 
ATOM     28  CB  ALA E1030      78.921  -5.982 164.791  1.00 12.51 LIG 0.04  C 
BRANCH 27 29
ATOM     29  C   ALA E1030      78.394  -3.515 164.442  1.00 13.31 LIG 0.24  C 
ATOM     30  N   PRO E1031      77.110  -3.253 164.481  1.00 14.65 LIG-0.34  N 
ATOM     31  CD  PRO E1031      76.038  -4.036 163.843  1.00 15.56 LIG 0.13  C 
ATOM     32  CA  PRO E1031      76.565  -2.086 165.244  1.00 16.02 LIG 0.18  C 
ATOM     33  CG  PRO E1031      74.804  -3.286 164.205  1.00 15.81 LIG 0.02  C 
ATOM     34  CB  PRO E1031      75.233  -1.886 164.593  1.00 15.56 LIG 0.04  C 
ATOM     35 O    ALA E1030      79.206  -2.834 165.019  1.00 13.62 LIG-0.27  OA
BRANCH 32 36
ATOM     36  C   PRO E1031      76.421  -2.390 166.775  1.00 15.62 LIG 0.24  C 
ATOM     37  N   VAL E1032      77.482  -2.939 167.331  1.00 15.06 LIG-0.35  N 
ATOM     38 H    VAL E1032      78.244  -3.031 166.941  1.00 15.06 LIG 0.16  HD
ATOM     39 O    PRO E1031      75.378  -2.152 167.390  1.00 15.42 LIG-0.27  OA
BRANCH 37 40
ATOM     40  CA  VAL E1032      77.428  -3.434 168.670  1.00 17.90 LIG 0.17  C 
BRANCH 40 41
ATOM     41  C   VAL E1032      77.259  -2.232 169.655  1.00 17.55 LIG 0.22  C 
ATOM     42 O    VAL E1032      76.127  -2.071 170.151  1.00 19.34 LIG-0.29  OA
ENDBRANCH 40 41
BRANCH 40 43
ATOM     43  CB  VAL E1032      78.657  -4.305 168.976  1.00 18.34 LIG 0.01  C 
ATOM     44  CG2 VAL E1032      78.681  -5.540 168.081  1.00 18.91 LIG 0.01  C 
ATOM     45  CG1 VAL E1032      78.666  -4.767 170.411  1.00 20.19 LIG 0.01  C 
ENDBRANCH 40 43
ENDBRANCH 37 40
ENDBRANCH 32 36
ENDBRANCH 27 29
ENDBRANCH 3 27
TORSDOF 15
ENDMDL
MODEL 37
USER: ADFR SOLUTION from run 179
USER: SCORE 13.593539 LL:  -2.679 LR: -11.980 RR:   0.000 FEB:  -7.505
USER: RMSD 6.739688
USER: SEED 178
USER: STATUS no improvement in best in 12 clusters for 5 generations
USER: GENES 17
USER: genes 0 Translation |==|  0.70346 0.41108 0.28269
USER: genes 1 Rotation |==|  0.36753 0.71785 0.74602 0.85280
USER: genes 2 Torsion [N]-C--CA-[N] |==|  0.05007
USER: genes 3 Torsion [C]-CA--CB-[OG] |==|  0.17854
USER: genes 4 Torsion [CA]-CB--OG-[HG] |==|  0.00316
USER: genes 5 Torsion [C]-CA--N-[C] |==|  0.70781
USER: genes 6 Torsion [N]-C--CA-[N] |==|  0.05000
USER: genes 7 Torsion [C]-CA--N-[C] |==|  0.77707
USER: genes 8 Torsion [N]-C--CA-[N] |==|  0.20951
USER: genes 9 Torsion [C]-CA--CB-[CG] |==|  0.76617
USER: genes 10 Torsion [CA]-CB--CG-[ND2] |==|  0.62101
USER: genes 11 Torsion [C]-N--CA-[CB] |==|  0.50133
USER: genes 12 Torsion [N]-CA--C-[N] |==|  0.54378
USER: genes 13 Torsion [N]-CA--C-[N] |==|  0.94535
USER: genes 14 Torsion [C]-N--CA-[C] |==|  0.61934
USER: genes 15 Torsion [N]-CA--C-[O] |==|  0.03798
USER: genes 16 Torsion [N]-CA--CB-[CG2] |==|  0.08479
ROOT
ATOM      1  C   SER E1029      85.873  -5.052 159.050  1.00 13.48 LIG 0.24  C 
ATOM      2 O    SER E1029      86.052  -6.208 159.395  1.00 12.15 LIG-0.27  OA
ATOM      3  N   ALA E1030      85.394  -4.111 159.882  1.00 12.52 LIG-0.35  N 
ATOM      4 H    ALA E1030      85.196  -3.309 159.642  1.00 12.52 LIG 0.16  HD
ENDROOT
BRANCH 1 5
ATOM      5  CA  SER E1029      86.159  -4.614 157.632  1.00 13.36 LIG 0.20  C 
BRANCH 5 6
ATOM      6  CB  SER E1029      87.476  -5.221 157.165  1.00 14.53 LIG 0.20  C 
BRANCH 6 7
ATOM      7 OG   SER E1029      87.351  -6.648 157.117  1.00 16.05 LIG-0.40  OA
ATOM      8 HG   SER E1029      86.572  -6.869 157.341  1.00 16.05 LIG 0.21  HD
ENDBRANCH 6 7
ENDBRANCH 5 6
BRANCH 5 9
ATOM      9  N   SER E1029      86.258  -3.158 157.550  1.00 13.57 LIG-0.34  N 
ATOM     10 H    SER E1029      86.987  -2.830 157.868  1.00 13.57 LIG 0.16  HD
ATOM     11  C   ALA E1028      85.278  -2.425 157.020  1.00 13.26 LIG 0.24  C 
ATOM     12 O    ALA E1028      84.194  -2.882 156.724  1.00 11.29 LIG-0.27  OA
BRANCH 11 13
ATOM     13  CA  ALA E1028      85.583  -0.943 156.783  1.00 14.25 LIG 0.17  C 
ATOM     14  CB  ALA E1028      84.960  -0.490 155.464  1.00 14.71 LIG 0.04  C 
BRANCH 13 15
ATOM     15  N   ALA E1028      87.029  -0.709 156.795  1.00 14.53 LIG-0.35  N 
ATOM     16 H    ALA E1028      87.386  -0.650 156.015  1.00 14.53 LIG 0.16  HD
ATOM     17  C   ASN E1027      87.703  -0.601 157.926  1.00 16.30 LIG 0.26  C 
ATOM     18 O    ASN E1027      87.150  -0.749 159.049  1.00 15.77 LIG-0.27  OA
BRANCH 17 19
ATOM     19  CA  ASN E1027      89.208  -0.313 157.778  1.00 16.82 LIG 0.41  C 
ATOM     20  N   ASN E1027      89.503   1.104 157.400  1.00 18.81 LIG 0.61  N 
BRANCH 19 21
ATOM     21  CB  ASN E1027      89.998  -0.596 159.091  1.00 15.29 LIG 0.15  C 
BRANCH 21 22
ATOM     22  CG  ASN E1027      89.969   0.575 160.072  1.00 13.40 LIG 0.22  C 
ATOM     23 OD1  ASN E1027      88.917   1.160 160.356  1.00 12.35 LIG-0.27  OA
ATOM     24  ND2 ASN E1027      91.129   0.865 160.651  1.00 11.10 LIG-0.37  N 
ATOM     25 22HD ASN E1027      91.840   0.436 160.428  1.00 11.10 LIG 0.16  HD
ATOM     26 21HD ASN E1027      91.169   1.481 161.250  1.00 11.10 LIG 0.16  HD
ENDBRANCH 21 22
ENDBRANCH 19 21
ENDBRANCH 17 19
ENDBRANCH 13 15
ENDBRANCH 11 13
ENDBRANCH 5 9
ENDBRANCH 1 5
BRANCH 3 27
ATOM     27  CA  ALA E1030      85.173  -4.394 161.290  1.00 12.56 LIG 0.17  C 
ATOM     28  CB  ALA E1030      84.616  -3.124 161.950  1.00 12.51 LIG 0.04  C 
BRANCH 27 29
ATOM     29  C   ALA E1030      84.148  -5.574 161.442  1.00 13.31 LIG 0.24  C 
ATOM     30  N   PRO E1031      83.581  -5.773 162.608  1.00 14.65 LIG-0.34  N 
ATOM     31  CD  PRO E1031      83.884  -5.061 163.860  1.00 15.56 LIG 0.13  C 
ATOM     32  CA  PRO E1031      82.486  -6.777 162.792  1.00 16.02 LIG 0.18  C 
ATOM     33  CG  PRO E1031      82.961  -5.690 164.844  1.00 15.81 LIG 0.02  C 
ATOM     34  CB  PRO E1031      82.539  -7.025 164.267  1.00 15.56 LIG 0.04  C 
ATOM     35 O    ALA E1030      83.818  -6.186 160.456  1.00 13.62 LIG-0.27  OA
BRANCH 32 36
ATOM     36  C   PRO E1031      81.089  -6.223 162.348  1.00 15.62 LIG 0.24  C 
ATOM     37  N   VAL E1032      81.011  -4.909 162.284  1.00 15.06 LIG-0.35  N 
ATOM     38 H    VAL E1032      81.683  -4.377 162.362  1.00 15.06 LIG 0.16  HD
ATOM     39 O    PRO E1031      80.138  -6.973 162.107  1.00 15.42 LIG-0.27  OA
BRANCH 37 40
ATOM     40  CA  VAL E1032      79.754  -4.264 162.071  1.00 17.90 LIG 0.17  C 
BRANCH 40 41
ATOM     41  C   VAL E1032      79.939  -3.109 161.034  1.00 17.55 LIG 0.22  C 
ATOM     42 O    VAL E1032      81.005  -3.104 160.388  1.00 19.34 LIG-0.29  OA
ENDBRANCH 40 41
BRANCH 40 43
ATOM     43  CB  VAL E1032      79.154  -3.794 163.406  1.00 18.34 LIG 0.01  C 
ATOM     44  CG2 VAL E1032      80.256  -3.444 164.400  1.00 18.91 LIG 0.01  C 
ATOM     45  CG1 VAL E1032      78.283  -4.857 164.027  1.00 20.19 LIG 0.01  C 
ENDBRANCH 40 43
ENDBRANCH 37 40
ENDBRANCH 32 36
ENDBRANCH 27 29
ENDBRANCH 3 27
TORSDOF 15
ENDMDL
MODEL 38
USER: ADFR SOLUTION from run 21
USER: SCORE 12.505663 LL:  -2.377 LR: -11.984 RR:   0.000 FEB:  -7.509
USER: RMSD 4.548343
USER: SEED 20
USER: STATUS no improvement in best in 10 clusters for 5 generations
USER: GENES 17
USER: genes 0 Translation |==|  0.57814 0.46815 0.51438
USER: genes 1 Rotation |==|  0.69480 0.52627 0.20958 0.85640
USER: genes 2 Torsion [N]-C--CA-[N] |==|  0.69158
USER: genes 3 Torsion [C]-CA--CB-[OG] |==|  0.16846
USER: genes 4 Torsion [CA]-CB--OG-[HG] |==|  0.64119
USER: genes 5 Torsion [C]-CA--N-[C] |==|  0.56676
USER: genes 6 Torsion [N]-C--CA-[N] |==|  0.13476
USER: genes 7 Torsion [C]-CA--N-[C] |==|  0.71336
USER: genes 8 Torsion [N]-C--CA-[N] |==|  0.19289
USER: genes 9 Torsion [C]-CA--CB-[CG] |==|  0.19725
USER: genes 10 Torsion [CA]-CB--CG-[ND2] |==|  0.76091
USER: genes 11 Torsion [C]-N--CA-[CB] |==|  0.81123
USER: genes 12 Torsion [N]-CA--C-[N] |==|  0.19023
USER: genes 13 Torsion [N]-CA--C-[N] |==|  0.64119
USER: genes 14 Torsion [C]-N--CA-[C] |==|  0.14314
USER: genes 15 Torsion [N]-CA--C-[O] |==|  0.55722
USER: genes 16 Torsion [N]-CA--CB-[CG2] |==|  0.96489
ROOT
ATOM      1  C   SER E1029      83.335  -4.154 164.089  1.00 13.48 LIG 0.24  C 
ATOM      2 O    SER E1029      82.835  -3.095 163.749  1.00 12.15 LIG-0.27  OA
ATOM      3  N   ALA E1030      83.580  -4.461 165.375  1.00 12.52 LIG-0.35  N 
ATOM      4 H    ALA E1030      83.994  -5.170 165.632  1.00 12.52 LIG 0.16  HD
ENDROOT
BRANCH 1 5
ATOM      5  CA  SER E1029      83.740  -5.185 163.062  1.00 13.36 LIG 0.20  C 
BRANCH 5 6
ATOM      6  CB  SER E1029      84.153  -6.472 163.764  1.00 14.53 LIG 0.20  C 
BRANCH 6 7
ATOM      7 OG   SER E1029      83.045  -6.978 164.518  1.00 16.05 LIG-0.40  OA
ATOM      8 HG   SER E1029      83.291  -7.139 165.306  1.00 16.05 LIG 0.21  HD
ENDBRANCH 6 7
ENDBRANCH 5 6
BRANCH 5 9
ATOM      9  N   SER E1029      84.866  -4.705 162.262  1.00 13.57 LIG-0.34  N 
ATOM     10 H    SER E1029      85.348  -4.105 162.646  1.00 13.57 LIG 0.16  HD
ATOM     11  C   ALA E1028      85.098  -5.180 161.037  1.00 13.26 LIG 0.24  C 
ATOM     12 O    ALA E1028      84.323  -5.903 160.447  1.00 11.29 LIG-0.27  OA
BRANCH 11 13
ATOM     13  CA  ALA E1028      86.423  -4.773 160.385  1.00 14.25 LIG 0.17  C 
ATOM     14  CB  ALA E1028      86.628  -5.559 159.091  1.00 14.71 LIG 0.04  C 
BRANCH 13 15
ATOM     15  N   ALA E1028      87.537  -4.981 161.314  1.00 14.53 LIG-0.35  N 
ATOM     16 H    ALA E1028      87.781  -5.801 161.398  1.00 14.53 LIG 0.16  HD
ATOM     17  C   ASN E1027      88.101  -3.973 161.955  1.00 16.30 LIG 0.26  C 
ATOM     18 O    ASN E1027      87.676  -2.791 161.846  1.00 15.77 LIG-0.27  OA
BRANCH 17 19
ATOM     19  CA  ASN E1027      89.287  -4.344 162.863  1.00 16.82 LIG 0.41  C 
ATOM     20  N   ASN E1027      90.500  -4.776 162.103  1.00 18.81 LIG 0.61  N 
BRANCH 19 21
ATOM     21  CB  ASN E1027      89.731  -3.159 163.773  1.00 15.29 LIG 0.15  C 
BRANCH 21 22
ATOM     22  CG  ASN E1027      88.727  -2.846 164.882  1.00 13.40 LIG 0.22  C 
ATOM     23 OD1  ASN E1027      88.872  -3.277 166.031  1.00 12.35 LIG-0.27  OA
ATOM     24  ND2 ASN E1027      87.741  -2.022 164.544  1.00 11.10 LIG-0.37  N 
ATOM     25 22HD ASN E1027      87.672  -1.743 163.733  1.00 11.10 LIG 0.16  HD
ATOM     26 21HD ASN E1027      87.171  -1.767 165.136  1.00 11.10 LIG 0.16  HD
ENDBRANCH 21 22
ENDBRANCH 19 21
ENDBRANCH 17 19
ENDBRANCH 13 15
ENDBRANCH 11 13
ENDBRANCH 5 9
ENDBRANCH 1 5
BRANCH 3 27
ATOM     27  CA  ALA E1030      83.148  -3.589 166.453  1.00 12.56 LIG 0.17  C 
ATOM     28  CB  ALA E1030      83.968  -2.292 166.375  1.00 12.51 LIG 0.04  C 
BRANCH 27 29
ATOM     29  C   ALA E1030      81.618  -3.269 166.299  1.00 13.31 LIG 0.24  C 
ATOM     30  N   PRO E1031      80.749  -4.234 166.486  1.00 14.65 LIG-0.34  N 
ATOM     31  CD  PRO E1031      81.057  -5.653 166.728  1.00 15.56 LIG 0.13  C 
ATOM     32  CA  PRO E1031      79.275  -3.975 166.506  1.00 16.02 LIG 0.18  C 
ATOM     33  CG  PRO E1031      79.712  -6.278 166.859  1.00 15.81 LIG 0.02  C 
ATOM     34  CB  PRO E1031      78.718  -5.334 166.215  1.00 15.56 LIG 0.04  C 
ATOM     35 O    ALA E1030      81.278  -2.124 166.134  1.00 13.62 LIG-0.27  OA
BRANCH 32 36
ATOM     36  C   PRO E1031      78.783  -3.434 167.892  1.00 15.62 LIG 0.24  C 
ATOM     37  N   VAL E1032      77.754  -4.079 168.404  1.00 15.06 LIG-0.35  N 
ATOM     38 H    VAL E1032      77.429  -4.809 168.084  1.00 15.06 LIG 0.16  HD
ATOM     39 O    PRO E1031      79.314  -2.461 168.436  1.00 15.42 LIG-0.27  OA
BRANCH 37 40
ATOM     40  CA  VAL E1032      77.091  -3.583 169.568  1.00 17.90 LIG 0.17  C 
BRANCH 40 41
ATOM     41  C   VAL E1032      76.717  -2.082 169.345  1.00 17.55 LIG 0.22  C 
ATOM     42 O    VAL E1032      76.503  -1.402 170.368  1.00 19.34 LIG-0.29  OA
ENDBRANCH 40 41
BRANCH 40 43
ATOM     43  CB  VAL E1032      77.949  -3.818 170.821  1.00 18.34 LIG 0.01  C 
ATOM     44  CG2 VAL E1032      79.098  -4.775 170.518  1.00 18.91 LIG 0.01  C 
ATOM     45  CG1 VAL E1032      77.136  -4.405 171.948  1.00 20.19 LIG 0.01  C 
ENDBRANCH 40 43
ENDBRANCH 37 40
ENDBRANCH 32 36
ENDBRANCH 27 29
ENDBRANCH 3 27
TORSDOF 15
ENDMDL
