MODEL 1
USER: ADFR SOLUTION from run 22
USER: SCORE 19.778252 LL:  -2.217 LR: -18.747 RR:   0.000 FEB: -11.886
USER: RMSD 7.180986
USER: SEED 21
USER: STATUS searching
USER: GENES 25
USER: genes 0 Translation |==|  0.42975 0.54654 0.60186
USER: genes 1 Rotation |==|  0.42894 0.93636 0.67771 0.65152
USER: genes 2 Torsion [N]-CA--C-[N] |==|  0.76901
USER: genes 3 Torsion [C]-N--CA-[C] |==|  0.79833
USER: genes 4 Torsion [N]-CA--C-[N] |==|  0.38715
USER: genes 5 Torsion [C]-N--CA-[C] |==|  0.71885
USER: genes 6 Torsion [N]-CA--C-[OXT] |==|  0.82469
USER: genes 7 Torsion [N]-CA--CB-[CG] |==|  0.62815
USER: genes 8 Torsion [CA]-CB--CG-[CD] |==|  0.78457
USER: genes 9 Torsion [CB]-CG--CD-[NE] |==|  0.64438
USER: genes 10 Torsion [CG]-CD--NE-[CZ] |==|  0.47971
USER: genes 11 Torsion [N]-CA--CB-[CG2] |==|  0.41318
USER: genes 12 Torsion [CA]-CB--OG1-[HG1] |==|  0.99180
USER: genes 13 Torsion [C]-CA--CB-[CG] |==|  0.34262
USER: genes 14 Torsion [CA]-CB--CG-[CD] |==|  0.72702
USER: genes 15 Torsion [CB]-CG--CD-[NE] |==|  0.37715
USER: genes 16 Torsion [CG]-CD--NE-[HE] |==|  0.92156
USER: genes 17 Torsion [C]-CA--N-[C] |==|  0.72222
USER: genes 18 Torsion [N]-C--CA-[N] |==|  0.23426
USER: genes 19 Torsion [C]-CA--N-[C] |==|  0.62280
USER: genes 20 Torsion [N]-C--CA-[N] |==|  0.31880
USER: genes 21 Torsion [C]-CA--CB-[CG] |==|  0.51224
USER: genes 22 Torsion [CA]-CB--CG-[CD] |==|  0.34766
USER: genes 23 Torsion [CB]-CG--CD-[NE] |==|  0.65580
USER: genes 24 Torsion [CG]-CD--NE-[CZ] |==|  0.80875
ROOT
ATOM      1  CA  ARG A 214      -1.288   5.907  -8.569  1.00 73.37 LIG 0.18  C 
ENDROOT
BRANCH 1 2
ATOM      2  C   ARG A 214      -1.229   4.475  -9.081  1.00 70.35 LIG 0.24  C 
ATOM      3 O    ARG A 214      -0.510   4.174 -10.041  1.00 57.55 LIG-0.27  OA
ATOM      4  N   THR A 215      -1.974   3.590  -8.427  1.00 65.27 LIG-0.34  N 
ATOM      5 H    THR A 215      -2.436   3.777  -7.727  1.00 65.27 LIG 0.16  HD
BRANCH 4 6
ATOM      6  CA  THR A 215      -2.068   2.202  -8.852  1.00 68.27 LIG 0.20  C 
BRANCH 6 7
ATOM      7  C   THR A 215      -2.906   2.103 -10.122  1.00 71.74 LIG 0.24  C 
ATOM      8 O    THR A 215      -3.920   2.789 -10.274  1.00 72.98 LIG-0.27  OA
ATOM      9  N   ARG A 216      -2.465   1.255 -11.044  1.00 71.41 LIG-0.34  N 
ATOM     10 H    ARG A 216      -1.753   0.777 -10.970  1.00 71.41 LIG 0.16  HD
BRANCH 9 11
ATOM     11  CA  ARG A 216      -3.199   1.078 -12.292  1.00 72.33 LIG 0.18  C 
BRANCH 11 12
ATOM     12  C   ARG A 216      -4.043  -0.195 -12.280  1.00 79.66 LIG 0.20  C 
ATOM     13 OXT  ARG A 216      -3.511  -1.302 -12.190  1.00 82.24 LIG-0.65  OA
ATOM     14 O    ARG A 216      -5.272  -0.151 -12.347  1.00 77.37 LIG-0.65  OA
ENDBRANCH 11 12
BRANCH 11 15
ATOM     15  CB  ARG A 216      -2.249   1.053 -13.491  1.00 66.30 LIG 0.04  C 
BRANCH 15 16
ATOM     16  CG  ARG A 216      -2.750   1.931 -14.621  1.00 69.07 LIG 0.02  C 
BRANCH 16 17
ATOM     17  CD  ARG A 216      -3.869   1.312 -15.429  1.00 69.32 LIG 0.14  C 
BRANCH 17 18
ATOM     18  NE  ARG A 216      -3.535   1.357 -16.850  1.00 75.64 LIG-0.23  N 
ATOM     19 HE   ARG A 216      -2.830   1.793 -17.080  1.00 75.64 LIG 0.18  HD
ATOM     20  CZ  ARG A 216      -4.240   0.774 -17.813  1.00 75.25 LIG 0.67  C 
ATOM     21  NH1 ARG A 216      -3.846   0.878 -19.075  1.00 73.93 LIG-0.23  N 
ATOM     22  NH2 ARG A 216      -5.334   0.090 -17.518  1.00 84.04 LIG-0.23  N 
ATOM     23 2HH1 ARG A 216      -4.300   0.501 -19.700  1.00 73.93 LIG 0.17  HD
ATOM     24 1HH1 ARG A 216      -3.135   1.322 -19.269  1.00 73.93 LIG 0.17  HD
ATOM     25 2HH2 ARG A 216      -5.788  -0.287 -18.144  1.00 84.04 LIG 0.17  HD
ATOM     26 1HH2 ARG A 216      -5.591   0.022 -16.699  1.00 84.04 LIG 0.17  HD
ENDBRANCH 17 18
ENDBRANCH 16 17
ENDBRANCH 15 16
ENDBRANCH 11 15
ENDBRANCH 9 11
ENDBRANCH 6 7
BRANCH 6 27
ATOM     27  CB  THR A 215      -2.676   1.330  -7.749  1.00 72.75 LIG 0.15  C 
ATOM     28  CG2 THR A 215      -3.467   0.171  -8.346  1.00 70.84 LIG 0.04  C 
BRANCH 27 29
ATOM     29 OG1  THR A 215      -1.634   0.811  -6.913  1.00 79.53 LIG-0.39  OA
ATOM     30 HG1  THR A 215      -0.887   1.052  -7.214  1.00 79.53 LIG 0.21  HD
ENDBRANCH 27 29
ENDBRANCH 6 27
ENDBRANCH 4 6
ENDBRANCH 1 2
BRANCH 1 31
ATOM     31  CB  ARG A 214      -1.322   5.933  -7.030  1.00 80.43 LIG 0.04  C 
BRANCH 31 32
ATOM     32  CG  ARG A 214      -0.203   6.744  -6.390  1.00 86.64 LIG 0.02  C 
BRANCH 32 33
ATOM     33  CD  ARG A 214       0.957   5.877  -5.924  1.00 94.72 LIG 0.14  C 
BRANCH 33 34
ATOM     34  NE  ARG A 214       2.264   6.429  -6.269  1.00 97.96 LIG-0.23  N 
ATOM     35 HE   ARG A 214       2.318   6.928  -6.968  1.00 97.96 LIG 0.18  HD
ATOM     36  CZ  ARG A 214       3.375   6.211  -5.573  1.00 95.09 LIG 0.67  C 
ATOM     37  NH2 ARG A 214       4.519   6.758  -5.961  1.00100.24 LIG-0.23  N 
ATOM     38  NH1 ARG A 214       3.344   5.446  -4.491  1.00 87.66 LIG-0.23  N 
ATOM     39 2HH2 ARG A 214       5.238   6.616  -5.510  1.00100.24 LIG 0.17  HD
ATOM     40 1HH2 ARG A 214       4.543   7.254  -6.663  1.00100.24 LIG 0.17  HD
ATOM     41 2HH1 ARG A 214       4.064   5.306  -4.043  1.00 87.66 LIG 0.17  HD
ATOM     42 1HH1 ARG A 214       2.603   5.089  -4.238  1.00 87.66 LIG 0.17  HD
ENDBRANCH 33 34
ENDBRANCH 32 33
ENDBRANCH 31 32
ENDBRANCH 1 31
BRANCH 1 43
ATOM     43  N   ARG A 214      -2.451   6.583  -9.123  1.00 58.16 LIG-0.35  N 
ATOM     44 H    ARG A 214      -3.188   6.397  -8.719  1.00 58.16 LIG 0.16  HD
ATOM     45  C   ARG A 213      -2.377   7.412 -10.160  1.00 58.46 LIG 0.24  C 
ATOM     46 O    ARG A 213      -1.333   7.626 -10.784  1.00 62.14 LIG-0.27  OA
BRANCH 45 47
ATOM     47  CA  ARG A 213      -3.671   8.103 -10.555  1.00 67.47 LIG 0.18  C 
BRANCH 47 48
ATOM     48  N   ARG A 213      -3.853   9.290  -9.735  1.00 69.12 LIG-0.35  N 
ATOM     49 H    ARG A 213      -3.146   9.769  -9.637  1.00 69.12 LIG 0.16  HD
ATOM     50  C   GLY A 212      -5.015   9.576  -9.204  1.00 65.81 LIG 0.25  C 
ATOM     51 O    GLY A 212      -5.994   8.902  -9.380  1.00 63.13 LIG-0.27  OA
BRANCH 50 52
ATOM     52  CA  GLY A 212      -5.017  10.806  -8.331  1.00 65.64 LIG 0.47  C 
ATOM     53  N   GLY A 212      -5.861  11.808  -8.956  1.00 75.48 LIG 0.61  N 
ENDBRANCH 50 52
ENDBRANCH 47 48
BRANCH 47 54
ATOM     54  CB  ARG A 213      -3.660   8.449 -12.049  1.00 71.07 LIG 0.04  C 
BRANCH 54 55
ATOM     55  CG  ARG A 213      -4.881   9.236 -12.482  1.00 85.03 LIG 0.02  C 
BRANCH 55 56
ATOM     56  CD  ARG A 213      -4.509  10.533 -13.171  1.00 85.62 LIG 0.14  C 
BRANCH 56 57
ATOM     57  NE  ARG A 213      -5.119  11.684 -12.518  1.00 84.98 LIG-0.23  N 
ATOM     58  CZ  ARG A 213      -6.422  11.942 -12.529  1.00 90.61 LIG 0.67  C 
ATOM     59  NH2 ARG A 213      -6.885  13.017 -11.911  1.00 97.98 LIG-0.23  N 
ATOM     60  NH1 ARG A 213      -7.260  11.133 -13.161  1.00 95.33 LIG-0.23  N 
ATOM     61 2HH2 ARG A 213      -7.728  13.187 -11.916  1.00 97.98 LIG 0.17  HD
ATOM     62 1HH2 ARG A 213      -6.343  13.546 -11.503  1.00 97.98 LIG 0.17  HD
ATOM     63 2HH1 ARG A 213      -8.103  11.305 -13.166  1.00 95.33 LIG 0.17  HD
ATOM     64 1HH1 ARG A 213      -6.961  10.435 -13.567  1.00 95.33 LIG 0.17  HD
ATOM     65 HE   ARG A 213      -4.604  12.229 -12.099  1.00 84.98 LIG 0.18  HD
ENDBRANCH 56 57
ENDBRANCH 55 56
ENDBRANCH 54 55
ENDBRANCH 47 54
ENDBRANCH 45 47
ENDBRANCH 1 43
TORSDOF 23
ENDMDL
MODEL 2
USER: ADFR SOLUTION from run 22
USER: SCORE 19.937067 LL:  -2.947 LR: -17.887 RR:   0.000 FEB: -11.026
USER: RMSD 7.377380
USER: SEED 21
USER: STATUS searching
USER: GENES 25
USER: genes 0 Translation |==|  0.42870 0.54810 0.60039
USER: genes 1 Rotation |==|  0.42620 0.94841 0.68273 0.60047
USER: genes 2 Torsion [N]-CA--C-[N] |==|  0.80075
USER: genes 3 Torsion [C]-N--CA-[C] |==|  0.79380
USER: genes 4 Torsion [N]-CA--C-[N] |==|  0.37711
USER: genes 5 Torsion [C]-N--CA-[C] |==|  0.73239
USER: genes 6 Torsion [N]-CA--C-[OXT] |==|  0.78796
USER: genes 7 Torsion [N]-CA--CB-[CG] |==|  0.64080
USER: genes 8 Torsion [CA]-CB--CG-[CD] |==|  0.77857
USER: genes 9 Torsion [CB]-CG--CD-[NE] |==|  0.64927
USER: genes 10 Torsion [CG]-CD--NE-[CZ] |==|  0.49533
USER: genes 11 Torsion [N]-CA--CB-[CG2] |==|  0.48861
USER: genes 12 Torsion [CA]-CB--OG1-[HG1] |==|  0.87199
USER: genes 13 Torsion [C]-CA--CB-[CG] |==|  0.37131
USER: genes 14 Torsion [CA]-CB--CG-[CD] |==|  0.63449
USER: genes 15 Torsion [CB]-CG--CD-[NE] |==|  0.32137
USER: genes 16 Torsion [CG]-CD--NE-[HE] |==|  0.04012
USER: genes 17 Torsion [C]-CA--N-[C] |==|  0.70327
USER: genes 18 Torsion [N]-C--CA-[N] |==|  0.92778
USER: genes 19 Torsion [C]-CA--N-[C] |==|  0.67966
USER: genes 20 Torsion [N]-C--CA-[N] |==|  0.71947
USER: genes 21 Torsion [C]-CA--CB-[CG] |==|  0.37751
USER: genes 22 Torsion [CA]-CB--CG-[CD] |==|  0.26766
USER: genes 23 Torsion [CB]-CG--CD-[NE] |==|  0.47719
USER: genes 24 Torsion [CG]-CD--NE-[CZ] |==|  0.80174
ROOT
ATOM      1  CA  ARG A 214      -1.311   5.940  -8.606  1.00 73.37 LIG 0.18  C 
ENDROOT
BRANCH 1 2
ATOM      2  C   ARG A 214      -1.230   4.497  -9.086  1.00 70.35 LIG 0.24  C 
ATOM      3 O    ARG A 214      -0.510   4.186 -10.041  1.00 57.55 LIG-0.27  OA
ATOM      4  N   THR A 215      -1.958   3.615  -8.409  1.00 65.27 LIG-0.34  N 
ATOM      5 H    THR A 215      -2.421   3.811  -7.712  1.00 65.27 LIG 0.16  HD
BRANCH 4 6
ATOM      6  CA  THR A 215      -2.031   2.217  -8.802  1.00 68.27 LIG 0.20  C 
BRANCH 6 7
ATOM      7  C   THR A 215      -2.904   2.070 -10.042  1.00 71.74 LIG 0.24  C 
ATOM      8 O    THR A 215      -3.972   2.678 -10.148  1.00 72.98 LIG-0.27  OA
ATOM      9  N   ARG A 216      -2.434   1.270 -10.992  1.00 71.41 LIG-0.34  N 
ATOM     10 H    ARG A 216      -1.686   0.848 -10.951  1.00 71.41 LIG 0.16  HD
BRANCH 9 11
ATOM     11  CA  ARG A 216      -3.198   1.053 -12.216  1.00 72.33 LIG 0.18  C 
BRANCH 11 12
ATOM     12  C   ARG A 216      -4.035  -0.222 -12.145  1.00 79.66 LIG 0.20  C 
ATOM     13 OXT  ARG A 216      -3.510  -1.328 -12.280  1.00 82.24 LIG-0.65  OA
ATOM     14 O    ARG A 216      -5.249  -0.182 -11.942  1.00 77.37 LIG-0.65  OA
ENDBRANCH 11 12
BRANCH 11 15
ATOM     15  CB  ARG A 216      -2.277   0.996 -13.437  1.00 66.30 LIG 0.04  C 
BRANCH 15 16
ATOM     16  CG  ARG A 216      -2.751   1.924 -14.538  1.00 69.07 LIG 0.02  C 
BRANCH 16 17
ATOM     17  CD  ARG A 216      -3.887   1.365 -15.366  1.00 69.32 LIG 0.14  C 
BRANCH 17 18
ATOM     18  NE  ARG A 216      -3.534   1.406 -16.782  1.00 75.64 LIG-0.23  N 
ATOM     19 HE   ARG A 216      -2.772   1.744 -16.993  1.00 75.64 LIG 0.18  HD
ATOM     20  CZ  ARG A 216      -4.304   0.958 -17.768  1.00 75.25 LIG 0.67  C 
ATOM     21  NH1 ARG A 216      -3.885   1.044 -19.023  1.00 73.93 LIG-0.23  N 
ATOM     22  NH2 ARG A 216      -5.488   0.428 -17.502  1.00 84.04 LIG-0.23  N 
ATOM     23 2HH1 ARG A 216      -4.381   0.754 -19.663  1.00 73.93 LIG 0.17  HD
ATOM     24 1HH1 ARG A 216      -3.116   1.388 -19.197  1.00 73.93 LIG 0.17  HD
ATOM     25 2HH2 ARG A 216      -5.984   0.139 -18.142  1.00 84.04 LIG 0.17  HD
ATOM     26 1HH2 ARG A 216      -5.761   0.372 -16.688  1.00 84.04 LIG 0.17  HD
ENDBRANCH 17 18
ENDBRANCH 16 17
ENDBRANCH 15 16
ENDBRANCH 11 15
ENDBRANCH 9 11
ENDBRANCH 6 7
BRANCH 6 27
ATOM     27  CB  THR A 215      -2.583   1.354  -7.662  1.00 72.75 LIG 0.15  C 
ATOM     28  CG2 THR A 215      -2.753  -0.094  -8.109  1.00 70.84 LIG 0.04  C 
BRANCH 27 29
ATOM     29 OG1  THR A 215      -1.688   1.402  -6.543  1.00 79.53 LIG-0.39  OA
ATOM     30 HG1  THR A 215      -0.899   1.294  -6.810  1.00 79.53 LIG 0.21  HD
ENDBRANCH 27 29
ENDBRANCH 6 27
ENDBRANCH 4 6
ENDBRANCH 1 2
BRANCH 1 31
ATOM     31  CB  ARG A 214      -1.055   6.024  -7.090  1.00 80.43 LIG 0.04  C 
BRANCH 31 32
ATOM     32  CG  ARG A 214      -0.083   7.120  -6.677  1.00 86.64 LIG 0.02  C 
BRANCH 32 33
ATOM     33  CD  ARG A 214       0.993   6.622  -5.723  1.00 94.72 LIG 0.14  C 
BRANCH 33 34
ATOM     34  NE  ARG A 214       2.339   6.694  -6.285  1.00 97.96 LIG-0.23  N 
ATOM     35 HE   ARG A 214       2.454   7.167  -6.994  1.00 97.96 LIG 0.18  HD
ATOM     36  CZ  ARG A 214       3.397   6.075  -5.772  1.00 95.09 LIG 0.67  C 
ATOM     37  NH2 ARG A 214       4.585   6.200  -6.349  1.00100.24 LIG-0.23  N 
ATOM     38  NH1 ARG A 214       3.269   5.330  -4.683  1.00 87.66 LIG-0.23  N 
ATOM     39 2HH2 ARG A 214       5.269   5.799  -6.016  1.00100.24 LIG 0.17  HD
ATOM     40 1HH2 ARG A 214       4.670   6.683  -7.056  1.00100.24 LIG 0.17  HD
ATOM     41 2HH1 ARG A 214       3.956   4.930  -4.353  1.00 87.66 LIG 0.17  HD
ATOM     42 1HH1 ARG A 214       2.500   5.246  -4.307  1.00 87.66 LIG 0.17  HD
ENDBRANCH 33 34
ENDBRANCH 32 33
ENDBRANCH 31 32
ENDBRANCH 1 31
BRANCH 1 43
ATOM     43  N   ARG A 214      -2.611   6.501  -8.943  1.00 58.16 LIG-0.35  N 
ATOM     44 H    ARG A 214      -3.255   6.202  -8.457  1.00 58.16 LIG 0.16  HD
ATOM     45  C   ARG A 213      -2.781   7.393  -9.913  1.00 58.46 LIG 0.24  C 
ATOM     46 O    ARG A 213      -1.869   7.772 -10.655  1.00 62.14 LIG-0.27  OA
BRANCH 45 47
ATOM     47  CA  ARG A 213      -4.188   7.944 -10.074  1.00 67.47 LIG 0.18  C 
BRANCH 47 48
ATOM     48  N   ARG A 213      -5.146   6.971  -9.571  1.00 69.12 LIG-0.35  N 
ATOM     49 H    ARG A 213      -5.090   6.817  -8.727  1.00 69.12 LIG 0.16  HD
ATOM     50  C   GLY A 212      -6.010   6.396 -10.368  1.00 65.81 LIG 0.25  C 
ATOM     51 O    GLY A 212      -6.084   6.651 -11.540  1.00 63.13 LIG-0.27  OA
BRANCH 50 52
ATOM     52  CA  GLY A 212      -6.888   5.367  -9.700  1.00 65.64 LIG 0.47  C 
ATOM     53  N   GLY A 212      -6.369   4.049 -10.016  1.00 75.48 LIG 0.61  N 
ENDBRANCH 50 52
ENDBRANCH 47 48
BRANCH 47 54
ATOM     54  CB  ARG A 213      -4.323   9.289  -9.351  1.00 71.07 LIG 0.04  C 
BRANCH 54 55
ATOM     55  CG  ARG A 213      -5.060  10.330 -10.172  1.00 85.03 LIG 0.02  C 
BRANCH 55 56
ATOM     56  CD  ARG A 213      -6.530  10.405  -9.810  1.00 85.62 LIG 0.14  C 
BRANCH 56 57
ATOM     57  NE  ARG A 213      -7.187  11.530 -10.461  1.00 84.98 LIG-0.23  N 
ATOM     58  CZ  ARG A 213      -6.987  12.802 -10.131  1.00 90.61 LIG 0.67  C 
ATOM     59  NH2 ARG A 213      -7.635  13.758 -10.777  1.00 97.98 LIG-0.23  N 
ATOM     60  NH1 ARG A 213      -6.148  13.117  -9.155  1.00 95.33 LIG-0.23  N 
ATOM     61 2HH2 ARG A 213      -7.508  14.583 -10.566  1.00 97.98 LIG 0.17  HD
ATOM     62 1HH2 ARG A 213      -8.183  13.556 -11.409  1.00 97.98 LIG 0.17  HD
ATOM     63 2HH1 ARG A 213      -6.023  13.941  -8.945  1.00 95.33 LIG 0.17  HD
ATOM     64 1HH1 ARG A 213      -5.728  12.496  -8.732  1.00 95.33 LIG 0.17  HD
ATOM     65 HE   ARG A 213      -7.738  11.361 -11.099  1.00 84.98 LIG 0.18  HD
ENDBRANCH 56 57
ENDBRANCH 55 56
ENDBRANCH 54 55
ENDBRANCH 47 54
ENDBRANCH 45 47
ENDBRANCH 1 43
TORSDOF 23
ENDMDL
MODEL 3
USER: ADFR SOLUTION from run 117
USER: SCORE 18.536316 LL:  -2.420 LR: -17.409 RR:   0.000 FEB: -10.548
USER: RMSD 7.542285
USER: SEED 116
USER: STATUS no improvement in best in 3 clusters for 5 generations
USER: GENES 25
USER: genes 0 Translation |==|  0.37997 0.38384 0.55001
USER: genes 1 Rotation |==|  0.63740 0.89502 0.74105 0.63029
USER: genes 2 Torsion [N]-CA--C-[N] |==|  0.40556
USER: genes 3 Torsion [C]-N--CA-[C] |==|  0.17992
USER: genes 4 Torsion [N]-CA--C-[N] |==|  0.32527
USER: genes 5 Torsion [C]-N--CA-[C] |==|  0.78645
USER: genes 6 Torsion [N]-CA--C-[OXT] |==|  0.93087
USER: genes 7 Torsion [N]-CA--CB-[CG] |==|  0.22125
USER: genes 8 Torsion [CA]-CB--CG-[CD] |==|  0.36367
USER: genes 9 Torsion [CB]-CG--CD-[NE] |==|  0.13198
USER: genes 10 Torsion [CG]-CD--NE-[CZ] |==|  0.63918
USER: genes 11 Torsion [N]-CA--CB-[CG2] |==|  0.38763
USER: genes 12 Torsion [CA]-CB--OG1-[HG1] |==|  0.73029
USER: genes 13 Torsion [C]-CA--CB-[CG] |==|  0.15343
USER: genes 14 Torsion [CA]-CB--CG-[CD] |==|  0.62618
USER: genes 15 Torsion [CB]-CG--CD-[NE] |==|  0.55738
USER: genes 16 Torsion [CG]-CD--NE-[HE] |==|  0.66972
USER: genes 17 Torsion [C]-CA--N-[C] |==|  0.61083
USER: genes 18 Torsion [N]-C--CA-[N] |==|  0.40473
USER: genes 19 Torsion [C]-CA--N-[C] |==|  0.82176
USER: genes 20 Torsion [N]-C--CA-[N] |==|  0.69160
USER: genes 21 Torsion [C]-CA--CB-[CG] |==|  0.52053
USER: genes 22 Torsion [CA]-CB--CG-[CD] |==|  0.54445
USER: genes 23 Torsion [CB]-CG--CD-[NE] |==|  0.57600
USER: genes 24 Torsion [CG]-CD--NE-[CZ] |==|  0.59301
ROOT
ATOM      1  CA  ARG A 214      -2.371   2.491  -9.891  1.00 73.37 LIG 0.18  C 
ENDROOT
BRANCH 1 2
ATOM      2  C   ARG A 214      -3.314   1.776 -10.849  1.00 70.35 LIG 0.24  C 
ATOM      3 O    ARG A 214      -4.538   1.933 -10.768  1.00 57.55 LIG-0.27  OA
ATOM      4  N   THR A 215      -2.741   1.005 -11.766  1.00 65.27 LIG-0.34  N 
ATOM      5 H    THR A 215      -1.890   0.930 -11.865  1.00 65.27 LIG 0.16  HD
BRANCH 4 6
ATOM      6  CA  THR A 215      -3.524   0.210 -12.699  1.00 68.27 LIG 0.20  C 
BRANCH 6 7
ATOM      7  C   THR A 215      -4.327   1.124 -13.616  1.00 71.74 LIG 0.24  C 
ATOM      8 O    THR A 215      -5.183   1.889 -13.165  1.00 72.98 LIG-0.27  OA
ATOM      9  N   ARG A 216      -4.033   1.053 -14.910  1.00 71.41 LIG-0.34  N 
ATOM     10 H    ARG A 216      -3.431   0.541 -15.247  1.00 71.41 LIG 0.16  HD
BRANCH 9 11
ATOM     11  CA  ARG A 216      -4.751   1.880 -15.873  1.00 72.33 LIG 0.18  C 
BRANCH 11 12
ATOM     12  C   ARG A 216      -6.144   1.329 -16.168  1.00 79.66 LIG 0.20  C 
ATOM     13 OXT  ARG A 216      -6.394   0.133 -16.014  1.00 82.24 LIG-0.65  OA
ATOM     14 O    ARG A 216      -7.056   2.061 -16.555  1.00 77.37 LIG-0.65  OA
ENDBRANCH 11 12
BRANCH 11 15
ATOM     15  CB  ARG A 216      -3.965   2.013 -17.179  1.00 66.30 LIG 0.04  C 
BRANCH 15 16
ATOM     16  CG  ARG A 216      -4.127   0.788 -18.057  1.00 69.07 LIG 0.02  C 
BRANCH 16 17
ATOM     17  CD  ARG A 216      -4.485   1.104 -19.492  1.00 69.32 LIG 0.14  C 
BRANCH 17 18
ATOM     18  NE  ARG A 216      -3.606   2.154 -20.001  1.00 75.64 LIG-0.23  N 
ATOM     19 HE   ARG A 216      -2.760   2.052 -19.891  1.00 75.64 LIG 0.18  HD
ATOM     20  CZ  ARG A 216      -4.020   3.254 -20.619  1.00 75.25 LIG 0.67  C 
ATOM     21  NH1 ARG A 216      -3.135   4.146 -21.042  1.00 73.93 LIG-0.23  N 
ATOM     22  NH2 ARG A 216      -5.313   3.464 -20.814  1.00 84.04 LIG-0.23  N 
ATOM     23 2HH1 ARG A 216      -3.400   4.859 -21.444  1.00 73.93 LIG 0.17  HD
ATOM     24 1HH1 ARG A 216      -2.295   4.011 -20.916  1.00 73.93 LIG 0.17  HD
ATOM     25 2HH2 ARG A 216      -5.578   4.177 -21.215  1.00 84.04 LIG 0.17  HD
ATOM     26 1HH2 ARG A 216      -5.889   2.886 -20.540  1.00 84.04 LIG 0.17  HD
ENDBRANCH 17 18
ENDBRANCH 16 17
ENDBRANCH 15 16
ENDBRANCH 11 15
ENDBRANCH 9 11
ENDBRANCH 6 7
BRANCH 6 27
ATOM     27  CB  THR A 215      -4.461  -0.746 -11.953  1.00 72.75 LIG 0.15  C 
ATOM     28  CG2 THR A 215      -5.824  -0.813 -12.634  1.00 70.84 LIG 0.04  C 
BRANCH 27 29
ATOM     29 OG1  THR A 215      -3.885  -2.058 -11.917  1.00 79.53 LIG-0.39  OA
ATOM     30 HG1  THR A 215      -4.209  -2.524 -12.537  1.00 79.53 LIG 0.21  HD
ENDBRANCH 27 29
ENDBRANCH 6 27
ENDBRANCH 4 6
ENDBRANCH 1 2
BRANCH 1 31
ATOM     31  CB  ARG A 214      -2.126   1.638  -8.633  1.00 80.43 LIG 0.04  C 
BRANCH 31 32
ATOM     32  CG  ARG A 214      -1.611   0.234  -8.916  1.00 86.64 LIG 0.02  C 
BRANCH 32 33
ATOM     33  CD  ARG A 214      -2.332  -0.831  -8.102  1.00 94.72 LIG 0.14  C 
BRANCH 33 34
ATOM     34  NE  ARG A 214      -1.576  -2.075  -7.982  1.00 97.96 LIG-0.23  N 
ATOM     35 HE   ARG A 214      -1.928  -2.791  -8.303  1.00 97.96 LIG 0.18  HD
ATOM     36  CZ  ARG A 214      -0.381  -2.170  -7.409  1.00 95.09 LIG 0.67  C 
ATOM     37  NH2 ARG A 214       0.235  -3.343  -7.348  1.00100.24 LIG-0.23  N 
ATOM     38  NH1 ARG A 214       0.200  -1.094  -6.896  1.00 87.66 LIG-0.23  N 
ATOM     39 2HH2 ARG A 214       1.009  -3.405  -6.977  1.00100.24 LIG 0.17  HD
ATOM     40 1HH2 ARG A 214      -0.140  -4.044  -7.680  1.00100.24 LIG 0.17  HD
ATOM     41 2HH1 ARG A 214       0.973  -1.159  -6.525  1.00 87.66 LIG 0.17  HD
ATOM     42 1HH1 ARG A 214      -0.197  -0.333  -6.933  1.00 87.66 LIG 0.17  HD
ENDBRANCH 33 34
ENDBRANCH 32 33
ENDBRANCH 31 32
ENDBRANCH 1 31
BRANCH 1 43
ATOM     43  N   ARG A 214      -2.918   3.791  -9.535  1.00 58.16 LIG-0.35  N 
ATOM     44 H    ARG A 214      -3.769   3.788  -9.409  1.00 58.16 LIG 0.16  HD
ATOM     45  C   ARG A 213      -2.167   4.882  -9.419  1.00 58.46 LIG 0.24  C 
ATOM     46 O    ARG A 213      -0.957   4.902  -9.666  1.00 62.14 LIG-0.27  OA
BRANCH 45 47
ATOM     47  CA  ARG A 213      -2.883   6.138  -8.953  1.00 67.47 LIG 0.18  C 
BRANCH 47 48
ATOM     48  N   ARG A 213      -1.983   6.929  -8.129  1.00 69.12 LIG-0.35  N 
ATOM     49 H    ARG A 213      -1.780   7.698  -8.456  1.00 69.12 LIG 0.16  HD
ATOM     50  C   GLY A 212      -1.535   6.475  -6.985  1.00 65.81 LIG 0.25  C 
ATOM     51 O    GLY A 212      -1.855   5.406  -6.539  1.00 63.13 LIG-0.27  OA
BRANCH 50 52
ATOM     52  CA  GLY A 212      -0.562   7.392  -6.286  1.00 65.64 LIG 0.47  C 
ATOM     53  N   GLY A 212       0.750   6.773  -6.314  1.00 75.48 LIG 0.61  N 
ENDBRANCH 50 52
ENDBRANCH 47 48
BRANCH 47 54
ATOM     54  CB  ARG A 213      -3.394   6.940 -10.155  1.00 71.07 LIG 0.04  C 
BRANCH 54 55
ATOM     55  CG  ARG A 213      -3.961   8.292  -9.766  1.00 85.03 LIG 0.02  C 
BRANCH 55 56
ATOM     56  CD  ARG A 213      -4.799   8.900 -10.872  1.00 85.62 LIG 0.14  C 
BRANCH 56 57
ATOM     57  NE  ARG A 213      -4.805  10.355 -10.805  1.00 84.98 LIG-0.23  N 
ATOM     58  CZ  ARG A 213      -5.841  11.113 -11.148  1.00 90.61 LIG 0.67  C 
ATOM     59  NH2 ARG A 213      -5.751  12.430 -11.058  1.00 97.98 LIG-0.23  N 
ATOM     60  NH1 ARG A 213      -6.961  10.556 -11.585  1.00 95.33 LIG-0.23  N 
ATOM     61 2HH2 ARG A 213      -6.420  12.923 -11.280  1.00 97.98 LIG 0.17  HD
ATOM     62 1HH2 ARG A 213      -5.023  12.794 -10.778  1.00 97.98 LIG 0.17  HD
ATOM     63 2HH1 ARG A 213      -7.629  11.051 -11.807  1.00 95.33 LIG 0.17  HD
ATOM     64 1HH1 ARG A 213      -7.021   9.700 -11.648  1.00 95.33 LIG 0.17  HD
ATOM     65 HE   ARG A 213      -4.093  10.748 -10.525  1.00 84.98 LIG 0.18  HD
ENDBRANCH 56 57
ENDBRANCH 55 56
ENDBRANCH 54 55
ENDBRANCH 47 54
ENDBRANCH 45 47
ENDBRANCH 1 43
TORSDOF 23
ENDMDL
MODEL 4
USER: ADFR SOLUTION from run 138
USER: SCORE 19.224855 LL:  -2.566 LR: -17.401 RR:   0.000 FEB: -10.540
USER: RMSD 10.098059
USER: SEED 137
USER: STATUS no improvement in best in 9 clusters for 5 generations
USER: GENES 25
USER: genes 0 Translation |==|  0.36529 0.57322 0.56781
USER: genes 1 Rotation |==|  0.16191 0.76770 0.26282 0.58816
USER: genes 2 Torsion [N]-CA--C-[N] |==|  0.21243
USER: genes 3 Torsion [C]-N--CA-[C] |==|  0.63413
USER: genes 4 Torsion [N]-CA--C-[N] |==|  0.29083
USER: genes 5 Torsion [C]-N--CA-[C] |==|  0.47727
USER: genes 6 Torsion [N]-CA--C-[OXT] |==|  0.34435
USER: genes 7 Torsion [N]-CA--CB-[CG] |==|  0.66248
USER: genes 8 Torsion [CA]-CB--CG-[CD] |==|  0.03049
USER: genes 9 Torsion [CB]-CG--CD-[NE] |==|  0.49244
USER: genes 10 Torsion [CG]-CD--NE-[CZ] |==|  0.81546
USER: genes 11 Torsion [N]-CA--CB-[CG2] |==|  0.80404
USER: genes 12 Torsion [CA]-CB--OG1-[HG1] |==|  0.36176
USER: genes 13 Torsion [C]-CA--CB-[CG] |==|  0.26206
USER: genes 14 Torsion [CA]-CB--CG-[CD] |==|  0.48554
USER: genes 15 Torsion [CB]-CG--CD-[NE] |==|  0.36877
USER: genes 16 Torsion [CG]-CD--NE-[HE] |==|  0.04033
USER: genes 17 Torsion [C]-CA--N-[C] |==|  0.76204
USER: genes 18 Torsion [N]-C--CA-[N] |==|  0.32789
USER: genes 19 Torsion [C]-CA--N-[C] |==|  0.67898
USER: genes 20 Torsion [N]-C--CA-[N] |==|  0.52067
USER: genes 21 Torsion [C]-CA--CB-[CG] |==|  0.57529
USER: genes 22 Torsion [CA]-CB--CG-[CD] |==|  0.63666
USER: genes 23 Torsion [CB]-CG--CD-[NE] |==|  0.57206
USER: genes 24 Torsion [CG]-CD--NE-[CZ] |==|  0.21221
ROOT
ATOM      1  CA  ARG A 214      -2.690   6.468  -9.437  1.00 73.37 LIG 0.18  C 
ENDROOT
BRANCH 1 2
ATOM      2  C   ARG A 214      -2.545   6.846  -7.969  1.00 70.35 LIG 0.24  C 
ATOM      3 O    ARG A 214      -3.486   7.355  -7.350  1.00 57.55 LIG-0.27  OA
ATOM      4  N   THR A 215      -1.369   6.579  -7.411  1.00 65.27 LIG-0.34  N 
ATOM      5 H    THR A 215      -0.727   6.178  -7.817  1.00 65.27 LIG 0.16  HD
BRANCH 4 6
ATOM      6  CA  THR A 215      -1.070   6.952  -6.037  1.00 68.27 LIG 0.20  C 
BRANCH 6 7
ATOM      7  C   THR A 215       0.284   7.651  -5.972  1.00 71.74 LIG 0.24  C 
ATOM      8 O    THR A 215       1.336   7.018  -6.081  1.00 72.98 LIG-0.27  OA
ATOM      9  N   ARG A 216       0.249   8.970  -5.811  1.00 71.41 LIG-0.34  N 
ATOM     10 H    ARG A 216      -0.471   9.436  -5.748  1.00 71.41 LIG 0.16  HD
BRANCH 9 11
ATOM     11  CA  ARG A 216       1.489   9.733  -5.726  1.00 72.33 LIG 0.18  C 
BRANCH 11 12
ATOM     12  C   ARG A 216       1.232  11.238  -5.744  1.00 79.66 LIG 0.20  C 
ATOM     13 OXT  ARG A 216       1.647  11.959  -4.836  1.00 82.24 LIG-0.65  OA
ATOM     14 O    ARG A 216       0.615  11.773  -6.666  1.00 77.37 LIG-0.65  OA
ENDBRANCH 11 12
BRANCH 11 15
ATOM     15  CB  ARG A 216       2.443   9.362  -6.863  1.00 66.30 LIG 0.04  C 
BRANCH 15 16
ATOM     16  CG  ARG A 216       3.768   8.847  -6.337  1.00 69.07 LIG 0.02  C 
BRANCH 16 17
ATOM     17  CD  ARG A 216       3.770   8.565  -4.850  1.00 69.32 LIG 0.14  C 
BRANCH 17 18
ATOM     18  NE  ARG A 216       5.064   8.016  -4.454  1.00 75.64 LIG-0.23  N 
ATOM     19 HE   ARG A 216       5.557   8.492  -3.936  1.00 75.64 LIG 0.18  HD
ATOM     20  CZ  ARG A 216       5.534   6.834  -4.836  1.00 75.25 LIG 0.67  C 
ATOM     21  NH1 ARG A 216       6.725   6.430  -4.416  1.00 73.93 LIG-0.23  N 
ATOM     22  NH2 ARG A 216       4.818   6.057  -5.635  1.00 84.04 LIG-0.23  N 
ATOM     23 2HH1 ARG A 216       7.032   5.665  -4.662  1.00 73.93 LIG 0.17  HD
ATOM     24 1HH1 ARG A 216       7.192   6.934  -3.897  1.00 73.93 LIG 0.17  HD
ATOM     25 2HH2 ARG A 216       5.125   5.292  -5.880  1.00 84.04 LIG 0.17  HD
ATOM     26 1HH2 ARG A 216       4.045   6.318  -5.908  1.00 84.04 LIG 0.17  HD
ENDBRANCH 17 18
ENDBRANCH 16 17
ENDBRANCH 15 16
ENDBRANCH 11 15
ENDBRANCH 9 11
ENDBRANCH 6 7
BRANCH 6 27
ATOM     27  CB  THR A 215      -1.074   5.723  -5.121  1.00 72.75 LIG 0.15  C 
ATOM     28  CG2 THR A 215      -2.491   5.193  -4.930  1.00 70.84 LIG 0.04  C 
BRANCH 27 29
ATOM     29 OG1  THR A 215      -0.256   4.693  -5.690  1.00 79.53 LIG-0.39  OA
ATOM     30 HG1  THR A 215       0.279   4.406  -5.108  1.00 79.53 LIG 0.21  HD
ENDBRANCH 27 29
ENDBRANCH 6 27
ENDBRANCH 4 6
ENDBRANCH 1 2
BRANCH 1 31
ATOM     31  CB  ARG A 214      -3.862   7.230 -10.082  1.00 80.43 LIG 0.04  C 
BRANCH 31 32
ATOM     32  CG  ARG A 214      -3.461   8.519 -10.785  1.00 86.64 LIG 0.02  C 
BRANCH 32 33
ATOM     33  CD  ARG A 214      -4.625   9.175 -11.515  1.00 94.72 LIG 0.14  C 
BRANCH 33 34
ATOM     34  NE  ARG A 214      -4.735  10.607 -11.252  1.00 97.96 LIG-0.23  N 
ATOM     35 HE   ARG A 214      -4.064  11.002 -10.888  1.00 97.96 LIG 0.18  HD
ATOM     36  CZ  ARG A 214      -5.806  11.339 -11.540  1.00 95.09 LIG 0.67  C 
ATOM     37  NH2 ARG A 214      -5.817  12.637 -11.268  1.00100.24 LIG-0.23  N 
ATOM     38  NH1 ARG A 214      -6.869  10.774 -12.097  1.00 87.66 LIG-0.23  N 
ATOM     39 2HH2 ARG A 214      -6.511  13.110 -11.454  1.00100.24 LIG 0.17  HD
ATOM     40 1HH2 ARG A 214      -5.129  13.006 -10.905  1.00100.24 LIG 0.17  HD
ATOM     41 2HH1 ARG A 214      -7.561  11.250 -12.282  1.00 87.66 LIG 0.17  HD
ATOM     42 1HH1 ARG A 214      -6.866   9.933 -12.274  1.00 87.66 LIG 0.17  HD
ENDBRANCH 33 34
ENDBRANCH 32 33
ENDBRANCH 31 32
ENDBRANCH 1 31
BRANCH 1 43
ATOM     43  N   ARG A 214      -2.878   5.030  -9.561  1.00 58.16 LIG-0.35  N 
ATOM     44 H    ARG A 214      -3.702   4.788  -9.598  1.00 58.16 LIG 0.16  HD
ATOM     45  C   ARG A 213      -1.862   4.172  -9.611  1.00 58.46 LIG 0.24  C 
ATOM     46 O    ARG A 213      -0.682   4.511  -9.489  1.00 62.14 LIG-0.27  OA
BRANCH 45 47
ATOM     47  CA  ARG A 213      -2.231   2.715  -9.832  1.00 67.47 LIG 0.18  C 
BRANCH 47 48
ATOM     48  N   ARG A 213      -1.646   2.254 -11.082  1.00 69.12 LIG-0.35  N 
ATOM     49 H    ARG A 213      -0.787   2.247 -11.093  1.00 69.12 LIG 0.16  HD
ATOM     50  C   GLY A 212      -2.399   1.888 -12.088  1.00 65.81 LIG 0.25  C 
ATOM     51 O    GLY A 212      -3.599   1.884 -12.036  1.00 63.13 LIG-0.27  OA
BRANCH 50 52
ATOM     52  CA  GLY A 212      -1.635   1.498 -13.329  1.00 65.64 LIG 0.47  C 
ATOM     53  N   GLY A 212      -2.587   1.289 -14.405  1.00 75.48 LIG 0.61  N 
ENDBRANCH 50 52
ENDBRANCH 47 48
BRANCH 47 54
ATOM     54  CB  ARG A 213      -1.769   1.860  -8.647  1.00 71.07 LIG 0.04  C 
BRANCH 54 55
ATOM     55  CG  ARG A 213      -1.494   0.418  -9.030  1.00 85.03 LIG 0.02  C 
BRANCH 55 56
ATOM     56  CD  ARG A 213      -2.171  -0.560  -8.092  1.00 85.62 LIG 0.14  C 
BRANCH 56 57
ATOM     57  NE  ARG A 213      -1.472  -1.838  -8.052  1.00 84.98 LIG-0.23  N 
ATOM     58  CZ  ARG A 213      -0.337  -2.045  -7.393  1.00 90.61 LIG 0.67  C 
ATOM     59  NH2 ARG A 213       0.229  -3.241  -7.418  1.00 97.98 LIG-0.23  N 
ATOM     60  NH1 ARG A 213       0.234  -1.060  -6.715  1.00 95.33 LIG-0.23  N 
ATOM     61 2HH2 ARG A 213       0.964  -3.379  -6.992  1.00 97.98 LIG 0.17  HD
ATOM     62 1HH2 ARG A 213      -0.138  -3.882  -7.860  1.00 97.98 LIG 0.17  HD
ATOM     63 2HH1 ARG A 213       0.969  -1.199  -6.291  1.00 95.33 LIG 0.17  HD
ATOM     64 1HH1 ARG A 213      -0.131  -0.280  -6.700  1.00 95.33 LIG 0.17  HD
ATOM     65 HE   ARG A 213      -1.815  -2.499  -8.481  1.00 84.98 LIG 0.18  HD
ENDBRANCH 56 57
ENDBRANCH 55 56
ENDBRANCH 54 55
ENDBRANCH 47 54
ENDBRANCH 45 47
ENDBRANCH 1 43
TORSDOF 23
ENDMDL
MODEL 5
USER: ADFR SOLUTION from run 51
USER: SCORE 18.754915 LL:  -2.263 LR: -17.238 RR:   0.000 FEB: -10.377
USER: RMSD 11.389115
USER: SEED 50
USER: STATUS no improvement in best in 3 clusters for 5 generations
USER: GENES 25
USER: genes 0 Translation |==|  0.56162 0.60753 0.71352
USER: genes 1 Rotation |==|  0.37474 0.21017 0.88720 0.51956
USER: genes 2 Torsion [N]-CA--C-[N] |==|  0.85000
USER: genes 3 Torsion [C]-N--CA-[C] |==|  0.58968
USER: genes 4 Torsion [N]-CA--C-[N] |==|  0.37288
USER: genes 5 Torsion [C]-N--CA-[C] |==|  0.62894
USER: genes 6 Torsion [N]-CA--C-[OXT] |==|  0.48794
USER: genes 7 Torsion [N]-CA--CB-[CG] |==|  0.52761
USER: genes 8 Torsion [CA]-CB--CG-[CD] |==|  0.52445
USER: genes 9 Torsion [CB]-CG--CD-[NE] |==|  0.56694
USER: genes 10 Torsion [CG]-CD--NE-[CZ] |==|  0.42566
USER: genes 11 Torsion [N]-CA--CB-[CG2] |==|  0.81963
USER: genes 12 Torsion [CA]-CB--OG1-[HG1] |==|  0.58523
USER: genes 13 Torsion [C]-CA--CB-[CG] |==|  0.13416
USER: genes 14 Torsion [CA]-CB--CG-[CD] |==|  0.31374
USER: genes 15 Torsion [CB]-CG--CD-[NE] |==|  0.69868
USER: genes 16 Torsion [CG]-CD--NE-[HE] |==|  0.23910
USER: genes 17 Torsion [C]-CA--N-[C] |==|  0.73763
USER: genes 18 Torsion [N]-C--CA-[N] |==|  0.39294
USER: genes 19 Torsion [C]-CA--N-[C] |==|  0.72545
USER: genes 20 Torsion [N]-C--CA-[N] |==|  0.44256
USER: genes 21 Torsion [C]-CA--CB-[CG] |==|  0.36433
USER: genes 22 Torsion [CA]-CB--CG-[CD] |==|  0.15464
USER: genes 23 Torsion [CB]-CG--CD-[NE] |==|  0.62474
USER: genes 24 Torsion [CG]-CD--NE-[CZ] |==|  0.63959
ROOT
ATOM      1  CA  ARG A 214       1.580   7.188  -5.721  1.00 73.37 LIG 0.18  C 
ENDROOT
BRANCH 1 2
ATOM      2  C   ARG A 214       1.298   8.342  -4.768  1.00 70.35 LIG 0.24  C 
ATOM      3 O    ARG A 214       1.245   8.157  -3.547  1.00 57.55 LIG-0.27  OA
ATOM      4  N   THR A 215       1.135   9.535  -5.329  1.00 65.27 LIG-0.34  N 
ATOM      5 H    THR A 215       1.221   9.685  -6.171  1.00 65.27 LIG 0.16  HD
BRANCH 4 6
ATOM      6  CA  THR A 215       0.790  10.711  -4.545  1.00 68.27 LIG 0.20  C 
BRANCH 6 7
ATOM      7  C   THR A 215      -0.073  11.654  -5.375  1.00 71.74 LIG 0.24  C 
ATOM      8 O    THR A 215       0.212  11.919  -6.545  1.00 72.98 LIG-0.27  OA
ATOM      9  N   ARG A 216      -1.145  12.148  -4.765  1.00 71.41 LIG-0.34  N 
ATOM     10 H    ARG A 216      -1.375  11.966  -3.957  1.00 71.41 LIG 0.16  HD
BRANCH 9 11
ATOM     11  CA  ARG A 216      -2.032  13.068  -5.468  1.00 72.33 LIG 0.18  C 
BRANCH 11 12
ATOM     12  C   ARG A 216      -2.387  14.281  -4.612  1.00 79.66 LIG 0.20  C 
ATOM     13 OXT  ARG A 216      -3.063  15.202  -5.072  1.00 82.24 LIG-0.65  OA
ATOM     14 O    ARG A 216      -2.020  14.368  -3.439  1.00 77.37 LIG-0.65  OA
ENDBRANCH 11 12
BRANCH 11 15
ATOM     15  CB  ARG A 216      -3.314  12.363  -5.916  1.00 66.30 LIG 0.04  C 
BRANCH 15 16
ATOM     16  CG  ARG A 216      -4.133  13.231  -6.851  1.00 69.07 LIG 0.02  C 
BRANCH 16 17
ATOM     17  CD  ARG A 216      -5.506  12.676  -7.159  1.00 69.32 LIG 0.14  C 
BRANCH 17 18
ATOM     18  NE  ARG A 216      -5.980  13.210  -8.433  1.00 75.64 LIG-0.23  N 
ATOM     19 HE   ARG A 216      -5.676  13.974  -8.683  1.00 75.64 LIG 0.18  HD
ATOM     20  CZ  ARG A 216      -6.846  12.599  -9.235  1.00 75.25 LIG 0.67  C 
ATOM     21  NH1 ARG A 216      -7.210  13.174 -10.373  1.00 73.93 LIG-0.23  N 
ATOM     22  NH2 ARG A 216      -7.347  11.420  -8.901  1.00 84.04 LIG-0.23  N 
ATOM     23 2HH1 ARG A 216      -7.770  12.780 -10.894  1.00 73.93 LIG 0.17  HD
ATOM     24 1HH1 ARG A 216      -6.885  13.940 -10.591  1.00 73.93 LIG 0.17  HD
ATOM     25 2HH2 ARG A 216      -7.908  11.027  -9.422  1.00 84.04 LIG 0.17  HD
ATOM     26 1HH2 ARG A 216      -7.112  11.046  -8.163  1.00 84.04 LIG 0.17  HD
ENDBRANCH 17 18
ENDBRANCH 16 17
ENDBRANCH 15 16
ENDBRANCH 11 15
ENDBRANCH 9 11
ENDBRANCH 6 7
BRANCH 6 27
ATOM     27  CB  THR A 215       2.050  11.437  -4.060  1.00 72.75 LIG 0.15  C 
ATOM     28  CG2 THR A 215       2.840  10.565  -3.090  1.00 70.84 LIG 0.04  C 
BRANCH 27 29
ATOM     29 OG1  THR A 215       2.880  11.767  -5.182  1.00 79.53 LIG-0.39  OA
ATOM     30 HG1  THR A 215       3.686  11.764  -4.945  1.00 79.53 LIG 0.21  HD
ENDBRANCH 27 29
ENDBRANCH 6 27
ENDBRANCH 4 6
ENDBRANCH 1 2
BRANCH 1 31
ATOM     31  CB  ARG A 214       2.974   7.337  -6.358  1.00 80.43 LIG 0.04  C 
BRANCH 31 32
ATOM     32  CG  ARG A 214       4.089   7.637  -5.366  1.00 86.64 LIG 0.02  C 
BRANCH 32 33
ATOM     33  CD  ARG A 214       5.086   6.494  -5.242  1.00 94.72 LIG 0.14  C 
BRANCH 33 34
ATOM     34  NE  ARG A 214       4.987   5.779  -3.972  1.00 97.96 LIG-0.23  N 
ATOM     35 HE   ARG A 214       4.416   5.139  -3.915  1.00 97.96 LIG 0.18  HD
ATOM     36  CZ  ARG A 214       5.723   6.054  -2.901  1.00 95.09 LIG 0.67  C 
ATOM     37  NH2 ARG A 214       5.568   5.348  -1.789  1.00100.24 LIG-0.23  N 
ATOM     38  NH1 ARG A 214       6.615   7.035  -2.939  1.00 87.66 LIG-0.23  N 
ATOM     39 2HH2 ARG A 214       6.045   5.527  -1.095  1.00100.24 LIG 0.17  HD
ATOM     40 1HH2 ARG A 214       4.989   4.711  -1.761  1.00100.24 LIG 0.17  HD
ATOM     41 2HH1 ARG A 214       7.090   7.211  -2.243  1.00 87.66 LIG 0.17  HD
ATOM     42 1HH1 ARG A 214       6.717   7.495  -3.658  1.00 87.66 LIG 0.17  HD
ENDBRANCH 33 34
ENDBRANCH 32 33
ENDBRANCH 31 32
ENDBRANCH 1 31
BRANCH 1 43
ATOM     43  N   ARG A 214       0.548   7.129  -6.745  1.00 58.16 LIG-0.35  N 
ATOM     44 H    ARG A 214       0.696   7.642  -7.419  1.00 58.16 LIG 0.16  HD
ATOM     45  C   ARG A 213      -0.526   6.351  -6.642  1.00 58.46 LIG 0.24  C 
ATOM     46 O    ARG A 213      -0.774   5.666  -5.645  1.00 62.14 LIG-0.27  OA
BRANCH 45 47
ATOM     47  CA  ARG A 213      -1.460   6.341  -7.840  1.00 67.47 LIG 0.18  C 
BRANCH 47 48
ATOM     48  N   ARG A 213      -1.958   4.991  -8.052  1.00 69.12 LIG-0.35  N 
ATOM     49 H    ARG A 213      -2.616   4.769  -7.544  1.00 69.12 LIG 0.16  HD
ATOM     50  C   GLY A 212      -1.425   4.205  -8.952  1.00 65.81 LIG 0.25  C 
ATOM     51 O    GLY A 212      -0.523   4.551  -9.666  1.00 63.13 LIG-0.27  OA
BRANCH 50 52
ATOM     52  CA  GLY A 212      -2.017   2.818  -9.000  1.00 65.64 LIG 0.47  C 
ATOM     53  N   GLY A 212      -1.717   2.238 -10.295  1.00 75.48 LIG 0.61  N 
ENDBRANCH 50 52
ENDBRANCH 47 48
BRANCH 47 54
ATOM     54  CB  ARG A 213      -2.607   7.337  -7.633  1.00 71.07 LIG 0.04  C 
BRANCH 54 55
ATOM     55  CG  ARG A 213      -2.821   8.248  -8.827  1.00 85.03 LIG 0.02  C 
BRANCH 55 56
ATOM     56  CD  ARG A 213      -3.052   7.468 -10.105  1.00 85.62 LIG 0.14  C 
BRANCH 56 57
ATOM     57  NE  ARG A 213      -2.280   8.012 -11.214  1.00 84.98 LIG-0.23  N 
ATOM     58  CZ  ARG A 213      -2.792   8.309 -12.404  1.00 90.61 LIG 0.67  C 
ATOM     59  NH2 ARG A 213      -2.010   8.796 -13.354  1.00 97.98 LIG-0.23  N 
ATOM     60  NH1 ARG A 213      -4.080   8.115 -12.645  1.00 95.33 LIG-0.23  N 
ATOM     61 2HH2 ARG A 213      -2.338   8.989 -14.125  1.00 97.98 LIG 0.17  HD
ATOM     62 1HH2 ARG A 213      -1.172   8.920 -13.201  1.00 97.98 LIG 0.17  HD
ATOM     63 2HH1 ARG A 213      -4.407   8.308 -13.417  1.00 95.33 LIG 0.17  HD
ATOM     64 1HH1 ARG A 213      -4.590   7.795 -12.030  1.00 95.33 LIG 0.17  HD
ATOM     65 HE   ARG A 213      -1.440   8.151 -11.091  1.00 84.98 LIG 0.18  HD
ENDBRANCH 56 57
ENDBRANCH 55 56
ENDBRANCH 54 55
ENDBRANCH 47 54
ENDBRANCH 45 47
ENDBRANCH 1 43
TORSDOF 23
ENDMDL
MODEL 6
USER: ADFR SOLUTION from run 3
USER: SCORE 19.522512 LL:  -2.677 LR: -17.157 RR:   0.000 FEB: -10.296
USER: RMSD 7.973206
USER: SEED 385956
USER: STATUS no improvement in best in 8 clusters for 5 generations
USER: GENES 25
USER: genes 0 Translation |==|  0.38293 0.36434 0.56967
USER: genes 1 Rotation |==|  0.69747 0.82926 0.75321 0.69616
USER: genes 2 Torsion [N]-CA--C-[N] |==|  0.39370
USER: genes 3 Torsion [C]-N--CA-[C] |==|  0.73889
USER: genes 4 Torsion [N]-CA--C-[N] |==|  0.34361
USER: genes 5 Torsion [C]-N--CA-[C] |==|  0.66716
USER: genes 6 Torsion [N]-CA--C-[OXT] |==|  0.44739
USER: genes 7 Torsion [N]-CA--CB-[CG] |==|  0.90758
USER: genes 8 Torsion [CA]-CB--CG-[CD] |==|  0.64749
USER: genes 9 Torsion [CB]-CG--CD-[NE] |==|  0.01754
USER: genes 10 Torsion [CG]-CD--NE-[CZ] |==|  0.72349
USER: genes 11 Torsion [N]-CA--CB-[CG2] |==|  0.64120
USER: genes 12 Torsion [CA]-CB--OG1-[HG1] |==|  0.16387
USER: genes 13 Torsion [C]-CA--CB-[CG] |==|  0.13699
USER: genes 14 Torsion [CA]-CB--CG-[CD] |==|  0.47793
USER: genes 15 Torsion [CB]-CG--CD-[NE] |==|  0.65056
USER: genes 16 Torsion [CG]-CD--NE-[HE] |==|  0.69902
USER: genes 17 Torsion [C]-CA--N-[C] |==|  0.71265
USER: genes 18 Torsion [N]-C--CA-[N] |==|  0.35944
USER: genes 19 Torsion [C]-CA--N-[C] |==|  0.76832
USER: genes 20 Torsion [N]-C--CA-[N] |==|  0.44206
USER: genes 21 Torsion [C]-CA--CB-[CG] |==|  0.41312
USER: genes 22 Torsion [CA]-CB--CG-[CD] |==|  0.49304
USER: genes 23 Torsion [CB]-CG--CD-[NE] |==|  0.19944
USER: genes 24 Torsion [CG]-CD--NE-[CZ] |==|  0.65710
ROOT
ATOM      1  CA  ARG A 214      -2.306   2.081  -9.390  1.00 73.37 LIG 0.18  C 
ENDROOT
BRANCH 1 2
ATOM      2  C   ARG A 214      -3.231   1.899 -10.586  1.00 70.35 LIG 0.24  C 
ATOM      3 O    ARG A 214      -4.343   2.437 -10.615  1.00 57.55 LIG-0.27  OA
ATOM      4  N   THR A 215      -2.759   1.153 -11.579  1.00 65.27 LIG-0.34  N 
ATOM      5 H    THR A 215      -1.968   0.818 -11.592  1.00 65.27 LIG 0.16  HD
BRANCH 4 6
ATOM      6  CA  THR A 215      -3.562   0.838 -12.750  1.00 68.27 LIG 0.20  C 
BRANCH 6 7
ATOM      7  C   THR A 215      -4.261  -0.503 -12.556  1.00 71.74 LIG 0.24  C 
ATOM      8 O    THR A 215      -3.622  -1.524 -12.291  1.00 72.98 LIG-0.27  OA
ATOM      9  N   ARG A 216      -5.584  -0.490 -12.672  1.00 71.41 LIG-0.34  N 
ATOM     10 H    ARG A 216      -6.054   0.210 -12.840  1.00 71.41 LIG 0.16  HD
BRANCH 9 11
ATOM     11  CA  ARG A 216      -6.348  -1.723 -12.514  1.00 72.33 LIG 0.18  C 
BRANCH 11 12
ATOM     12  C   ARG A 216      -7.139  -2.067 -13.774  1.00 79.66 LIG 0.20  C 
ATOM     13 OXT  ARG A 216      -7.555  -3.210 -13.964  1.00 82.24 LIG-0.65  OA
ATOM     14 O    ARG A 216      -7.392  -1.213 -14.626  1.00 77.37 LIG-0.65  OA
ENDBRANCH 11 12
BRANCH 11 15
ATOM     15  CB  ARG A 216      -7.299  -1.632 -11.319  1.00 66.30 LIG 0.04  C 
BRANCH 15 16
ATOM     16  CG  ARG A 216      -6.716  -0.787 -10.203  1.00 69.07 LIG 0.02  C 
BRANCH 16 17
ATOM     17  CD  ARG A 216      -6.697  -1.477  -8.857  1.00 69.32 LIG 0.14  C 
BRANCH 17 18
ATOM     18  NE  ARG A 216      -7.120  -2.867  -9.008  1.00 75.64 LIG-0.23  N 
ATOM     19 HE   ARG A 216      -6.537  -3.432  -9.289  1.00 75.64 LIG 0.18  HD
ATOM     20  CZ  ARG A 216      -8.340  -3.320  -8.744  1.00 75.25 LIG 0.67  C 
ATOM     21  NH1 ARG A 216      -8.619  -4.605  -8.916  1.00 73.93 LIG-0.23  N 
ATOM     22  NH2 ARG A 216      -9.280  -2.493  -8.309  1.00 84.04 LIG-0.23  N 
ATOM     23 2HH1 ARG A 216      -9.408  -4.901  -8.745  1.00 73.93 LIG 0.17  HD
ATOM     24 1HH1 ARG A 216      -8.010  -5.143  -9.199  1.00 73.93 LIG 0.17  HD
ATOM     25 2HH2 ARG A 216     -10.069  -2.790  -8.139  1.00 84.04 LIG 0.17  HD
ATOM     26 1HH2 ARG A 216      -9.100  -1.660  -8.197  1.00 84.04 LIG 0.17  HD
ENDBRANCH 17 18
ENDBRANCH 16 17
ENDBRANCH 15 16
ENDBRANCH 11 15
ENDBRANCH 9 11
ENDBRANCH 6 7
BRANCH 6 27
ATOM     27  CB  THR A 215      -2.698   0.805 -14.016  1.00 72.75 LIG 0.15  C 
ATOM     28  CG2 THR A 215      -3.310   1.668 -15.114  1.00 70.84 LIG 0.04  C 
BRANCH 27 29
ATOM     29 OG1  THR A 215      -1.381   1.285 -13.715  1.00 79.53 LIG-0.39  OA
ATOM     30 HG1  THR A 215      -1.038   0.805 -13.118  1.00 79.53 LIG 0.21  HD
ENDBRANCH 27 29
ENDBRANCH 6 27
ENDBRANCH 4 6
ENDBRANCH 1 2
BRANCH 1 31
ATOM     31  CB  ARG A 214      -2.634   1.056  -8.288  1.00 80.43 LIG 0.04  C 
BRANCH 31 32
ATOM     32  CG  ARG A 214      -2.743  -0.380  -8.780  1.00 86.64 LIG 0.02  C 
BRANCH 32 33
ATOM     33  CD  ARG A 214      -2.876  -1.381  -7.641  1.00 94.72 LIG 0.14  C 
BRANCH 33 34
ATOM     34  NE  ARG A 214      -1.875  -2.443  -7.689  1.00 97.96 LIG-0.23  N 
ATOM     35 HE   ARG A 214      -2.137  -3.233  -7.907  1.00 97.96 LIG 0.18  HD
ATOM     36  CZ  ARG A 214      -0.586  -2.269  -7.416  1.00 95.09 LIG 0.67  C 
ATOM     37  NH2 ARG A 214       0.253  -3.293  -7.488  1.00100.24 LIG-0.23  N 
ATOM     38  NH1 ARG A 214      -0.135  -1.071  -7.069  1.00 87.66 LIG-0.23  N 
ATOM     39 2HH2 ARG A 214       1.088  -3.179  -7.311  1.00100.24 LIG 0.17  HD
ATOM     40 1HH2 ARG A 214      -0.036  -4.071  -7.712  1.00100.24 LIG 0.17  HD
ATOM     41 2HH1 ARG A 214       0.700  -0.960  -6.893  1.00 87.66 LIG 0.17  HD
ATOM     42 1HH1 ARG A 214      -0.677  -0.405  -7.020  1.00 87.66 LIG 0.17  HD
ENDBRANCH 33 34
ENDBRANCH 32 33
ENDBRANCH 31 32
ENDBRANCH 1 31
BRANCH 1 43
ATOM     43  N   ARG A 214      -2.418   3.440  -8.881  1.00 58.16 LIG-0.35  N 
ATOM     44 H    ARG A 214      -3.130   3.583  -8.421  1.00 58.16 LIG 0.16  HD
ATOM     45  C   ARG A 213      -1.498   4.373  -9.111  1.00 58.46 LIG 0.24  C 
ATOM     46 O    ARG A 213      -0.510   4.190  -9.828  1.00 62.14 LIG-0.27  OA
BRANCH 45 47
ATOM     47  CA  ARG A 213      -1.725   5.713  -8.432  1.00 67.47 LIG 0.18  C 
BRANCH 47 48
ATOM     48  N   ARG A 213      -0.513   6.109  -7.731  1.00 69.12 LIG-0.35  N 
ATOM     49 H    ARG A 213      -0.006   6.647  -8.169  1.00 69.12 LIG 0.16  HD
ATOM     50  C   GLY A 212      -0.248   5.662  -6.529  1.00 65.81 LIG 0.25  C 
ATOM     51 O    GLY A 212      -0.988   4.930  -5.929  1.00 63.13 LIG-0.27  OA
BRANCH 50 52
ATOM     52  CA  GLY A 212       1.077   6.118  -5.971  1.00 65.64 LIG 0.47  C 
ATOM     53  N   GLY A 212       1.033   5.991  -4.526  1.00 75.48 LIG 0.61  N 
ENDBRANCH 50 52
ENDBRANCH 47 48
BRANCH 47 54
ATOM     54  CB  ARG A 213      -2.149   6.769  -9.459  1.00 71.07 LIG 0.04  C 
BRANCH 54 55
ATOM     55  CG  ARG A 213      -3.075   7.821  -8.877  1.00 85.03 LIG 0.02  C 
BRANCH 55 56
ATOM     56  CD  ARG A 213      -3.434   8.888  -9.890  1.00 85.62 LIG 0.14  C 
BRANCH 56 57
ATOM     57  NE  ARG A 213      -4.343   8.379 -10.909  1.00 84.98 LIG-0.23  N 
ATOM     58  CZ  ARG A 213      -4.094   8.414 -12.214  1.00 90.61 LIG 0.67  C 
ATOM     59  NH2 ARG A 213      -4.984   7.930 -13.066  1.00 97.98 LIG-0.23  N 
ATOM     60  NH1 ARG A 213      -2.963   8.935 -12.666  1.00 95.33 LIG-0.23  N 
ATOM     61 2HH2 ARG A 213      -4.827   7.951 -13.911  1.00 97.98 LIG 0.17  HD
ATOM     62 1HH2 ARG A 213      -5.721   7.594 -12.775  1.00 97.98 LIG 0.17  HD
ATOM     63 2HH1 ARG A 213      -2.808   8.956 -13.512  1.00 95.33 LIG 0.17  HD
ATOM     64 1HH1 ARG A 213      -2.385   9.253 -12.114  1.00 95.33 LIG 0.17  HD
ATOM     65 HE   ARG A 213      -5.086   8.033 -10.649  1.00 84.98 LIG 0.18  HD
ENDBRANCH 56 57
ENDBRANCH 55 56
ENDBRANCH 54 55
ENDBRANCH 47 54
ENDBRANCH 45 47
ENDBRANCH 1 43
TORSDOF 23
ENDMDL
MODEL 7
USER: ADFR SOLUTION from run 8
USER: SCORE 19.212389 LL:  -2.411 LR: -17.068 RR:   0.000 FEB: -10.207
USER: RMSD 12.330337
USER: SEED 632527
USER: STATUS no improvement in best in 1 clusters for 5 generations
USER: GENES 25
USER: genes 0 Translation |==|  0.38669 0.35854 0.56207
USER: genes 1 Rotation |==|  0.11299 0.48996 0.81412 0.53807
USER: genes 2 Torsion [N]-CA--C-[N] |==|  0.42256
USER: genes 3 Torsion [C]-N--CA-[C] |==|  0.62894
USER: genes 4 Torsion [N]-CA--C-[N] |==|  0.44433
USER: genes 5 Torsion [C]-N--CA-[C] |==|  0.67541
USER: genes 6 Torsion [N]-CA--C-[OXT] |==|  0.53546
USER: genes 7 Torsion [N]-CA--CB-[CG] |==|  0.16002
USER: genes 8 Torsion [CA]-CB--CG-[CD] |==|  0.29458
USER: genes 9 Torsion [CB]-CG--CD-[NE] |==|  0.15892
USER: genes 10 Torsion [CG]-CD--NE-[CZ] |==|  0.23941
USER: genes 11 Torsion [N]-CA--CB-[CG2] |==|  0.33174
USER: genes 12 Torsion [CA]-CB--OG1-[HG1] |==|  0.93559
USER: genes 13 Torsion [C]-CA--CB-[CG] |==|  0.49654
USER: genes 14 Torsion [CA]-CB--CG-[CD] |==|  0.50764
USER: genes 15 Torsion [CB]-CG--CD-[NE] |==|  0.33786
USER: genes 16 Torsion [CG]-CD--NE-[HE] |==|  0.78537
USER: genes 17 Torsion [C]-CA--N-[C] |==|  0.71046
USER: genes 18 Torsion [N]-C--CA-[N] |==|  0.37256
USER: genes 19 Torsion [C]-CA--N-[C] |==|  0.76946
USER: genes 20 Torsion [N]-C--CA-[N] |==|  0.50781
USER: genes 21 Torsion [C]-CA--CB-[CG] |==|  0.54448
USER: genes 22 Torsion [CA]-CB--CG-[CD] |==|  0.36753
USER: genes 23 Torsion [CB]-CG--CD-[NE] |==|  0.36871
USER: genes 24 Torsion [CG]-CD--NE-[CZ] |==|  0.54752
ROOT
ATOM      1  CA  ARG A 214      -2.225   1.959  -9.583  1.00 73.37 LIG 0.18  C 
ENDROOT
BRANCH 1 2
ATOM      2  C   ARG A 214      -1.391   3.233  -9.570  1.00 70.35 LIG 0.24  C 
ATOM      3 O    ARG A 214      -0.510   3.423 -10.416  1.00 57.55 LIG-0.27  OA
ATOM      4  N   THR A 215      -1.683   4.113  -8.618  1.00 65.27 LIG-0.34  N 
ATOM      5 H    THR A 215      -2.327   4.015  -8.057  1.00 65.27 LIG 0.16  HD
BRANCH 4 6
ATOM      6  CA  THR A 215      -0.921   5.339  -8.445  1.00 68.27 LIG 0.20  C 
BRANCH 6 7
ATOM      7  C   THR A 215      -0.584   5.538  -6.971  1.00 71.74 LIG 0.24  C 
ATOM      8 O    THR A 215      -1.214   4.952  -6.087  1.00 72.98 LIG-0.27  OA
ATOM      9  N   ARG A 216       0.429   6.358  -6.713  1.00 71.41 LIG-0.34  N 
ATOM     10 H    ARG A 216       0.893   6.765  -7.310  1.00 71.41 LIG 0.16  HD
BRANCH 9 11
ATOM     11  CA  ARG A 216       0.825   6.624  -5.334  1.00 72.33 LIG 0.18  C 
BRANCH 11 12
ATOM     12  C   ARG A 216       0.641   8.094  -4.964  1.00 79.66 LIG 0.20  C 
ATOM     13 OXT  ARG A 216       1.135   8.551  -3.933  1.00 82.24 LIG-0.65  OA
ATOM     14 O    ARG A 216       0.007   8.864  -5.688  1.00 77.37 LIG-0.65  OA
ENDBRANCH 11 12
BRANCH 11 15
ATOM     15  CB  ARG A 216       2.278   6.211  -5.090  1.00 66.30 LIG 0.04  C 
BRANCH 15 16
ATOM     16  CG  ARG A 216       3.228   6.922  -6.033  1.00 69.07 LIG 0.02  C 
BRANCH 16 17
ATOM     17  CD  ARG A 216       4.041   8.016  -5.376  1.00 69.32 LIG 0.14  C 
BRANCH 17 18
ATOM     18  NE  ARG A 216       4.800   7.463  -4.257  1.00 75.64 LIG-0.23  N 
ATOM     19 HE   ARG A 216       4.446   7.508  -3.475  1.00 75.64 LIG 0.18  HD
ATOM     20  CZ  ARG A 216       5.996   6.895  -4.361  1.00 75.25 LIG 0.67  C 
ATOM     21  NH1 ARG A 216       6.599   6.424  -3.278  1.00 73.93 LIG-0.23  N 
ATOM     22  NH2 ARG A 216       6.589   6.798  -5.541  1.00 84.04 LIG-0.23  N 
ATOM     23 2HH1 ARG A 216       7.374   6.056  -3.342  1.00 73.93 LIG 0.17  HD
ATOM     24 1HH1 ARG A 216       6.216   6.487  -2.510  1.00 73.93 LIG 0.17  HD
ATOM     25 2HH2 ARG A 216       7.364   6.430  -5.604  1.00 84.04 LIG 0.17  HD
ATOM     26 1HH2 ARG A 216       6.199   7.104  -6.244  1.00 84.04 LIG 0.17  HD
ENDBRANCH 17 18
ENDBRANCH 16 17
ENDBRANCH 15 16
ENDBRANCH 11 15
ENDBRANCH 9 11
ENDBRANCH 6 7
BRANCH 6 27
ATOM     27  CB  THR A 215      -1.696   6.548  -8.978  1.00 72.75 LIG 0.15  C 
ATOM     28  CG2 THR A 215      -1.957   7.560  -7.866  1.00 70.84 LIG 0.04  C 
BRANCH 27 29
ATOM     29 OG1  THR A 215      -0.948   7.179 -10.025  1.00 79.53 LIG-0.39  OA
ATOM     30 HG1  THR A 215      -0.134   6.989  -9.942  1.00 79.53 LIG 0.21  HD
ENDBRANCH 27 29
ENDBRANCH 6 27
ENDBRANCH 4 6
ENDBRANCH 1 2
BRANCH 1 31
ATOM     31  CB  ARG A 214      -1.635   0.914  -8.619  1.00 80.43 LIG 0.04  C 
BRANCH 31 32
ATOM     32  CG  ARG A 214      -2.423  -0.386  -8.543  1.00 86.64 LIG 0.02  C 
BRANCH 32 33
ATOM     33  CD  ARG A 214      -1.845  -1.364  -7.531  1.00 94.72 LIG 0.14  C 
BRANCH 33 34
ATOM     34  NE  ARG A 214      -2.798  -1.746  -6.491  1.00 97.96 LIG-0.23  N 
ATOM     35 HE   ARG A 214      -2.948  -1.185  -5.857  1.00 97.96 LIG 0.18  HD
ATOM     36  CZ  ARG A 214      -3.447  -2.906  -6.463  1.00 95.09 LIG 0.67  C 
ATOM     37  NH2 ARG A 214      -4.298  -3.167  -5.480  1.00100.24 LIG-0.23  N 
ATOM     38  NH1 ARG A 214      -3.246  -3.806  -7.416  1.00 87.66 LIG-0.23  N 
ATOM     39 2HH2 ARG A 214      -4.717  -3.918  -5.462  1.00100.24 LIG 0.17  HD
ATOM     40 1HH2 ARG A 214      -4.430  -2.585  -4.859  1.00100.24 LIG 0.17  HD
ATOM     41 2HH1 ARG A 214      -3.667  -4.555  -7.395  1.00 87.66 LIG 0.17  HD
ATOM     42 1HH1 ARG A 214      -2.694  -3.640  -8.054  1.00 87.66 LIG 0.17  HD
ENDBRANCH 33 34
ENDBRANCH 32 33
ENDBRANCH 31 32
ENDBRANCH 1 31
BRANCH 1 43
ATOM     43  N   ARG A 214      -2.298   1.430 -10.937  1.00 58.16 LIG-0.35  N 
ATOM     44 H    ARG A 214      -1.578   1.038 -11.197  1.00 58.16 LIG 0.16  HD
ATOM     45  C   ARG A 213      -3.382   1.546 -11.698  1.00 58.46 LIG 0.24  C 
ATOM     46 O    ARG A 213      -4.391   2.168 -11.352  1.00 62.14 LIG-0.27  OA
BRANCH 45 47
ATOM     47  CA  ARG A 213      -3.323   0.859 -13.052  1.00 67.47 LIG 0.18  C 
BRANCH 47 48
ATOM     48  N   ARG A 213      -4.558   0.124 -13.273  1.00 69.12 LIG-0.35  N 
ATOM     49 H    ARG A 213      -5.143   0.541 -13.745  1.00 69.12 LIG 0.16  HD
ATOM     50  C   GLY A 212      -4.731  -1.076 -12.779  1.00 65.81 LIG 0.25  C 
ATOM     51 O    GLY A 212      -3.885  -1.647 -12.145  1.00 63.13 LIG-0.27  OA
BRANCH 50 52
ATOM     52  CA  GLY A 212      -6.090  -1.673 -13.048  1.00 65.64 LIG 0.47  C 
ATOM     53  N   GLY A 212      -6.161  -2.964 -12.390  1.00 75.48 LIG 0.61  N 
ENDBRANCH 50 52
ENDBRANCH 47 48
BRANCH 47 54
ATOM     54  CB  ARG A 213      -3.073   1.885 -14.163  1.00 71.07 LIG 0.04  C 
BRANCH 54 55
ATOM     55  CG  ARG A 213      -3.383   1.345 -15.546  1.00 85.03 LIG 0.02  C 
BRANCH 55 56
ATOM     56  CD  ARG A 213      -4.229   2.305 -16.357  1.00 85.62 LIG 0.14  C 
BRANCH 56 57
ATOM     57  NE  ARG A 213      -3.699   2.486 -17.702  1.00 84.98 LIG-0.23  N 
ATOM     58  CZ  ARG A 213      -4.032   3.491 -18.505  1.00 90.61 LIG 0.67  C 
ATOM     59  NH2 ARG A 213      -3.500   3.569 -19.715  1.00 97.98 LIG-0.23  N 
ATOM     60  NH1 ARG A 213      -4.896   4.411 -18.103  1.00 95.33 LIG-0.23  N 
ATOM     61 2HH2 ARG A 213      -3.714   4.218 -20.237  1.00 97.98 LIG 0.17  HD
ATOM     62 1HH2 ARG A 213      -2.942   2.971 -19.979  1.00 97.98 LIG 0.17  HD
ATOM     63 2HH1 ARG A 213      -5.109   5.059 -18.627  1.00 95.33 LIG 0.17  HD
ATOM     64 1HH1 ARG A 213      -5.245   4.360 -17.318  1.00 95.33 LIG 0.17  HD
ATOM     65 HE   ARG A 213      -3.135   1.906 -17.994  1.00 84.98 LIG 0.18  HD
ENDBRANCH 56 57
ENDBRANCH 55 56
ENDBRANCH 54 55
ENDBRANCH 47 54
ENDBRANCH 45 47
ENDBRANCH 1 43
TORSDOF 23
ENDMDL
MODEL 8
USER: ADFR SOLUTION from run 44
USER: SCORE 18.315017 LL:  -2.677 LR: -16.957 RR:   0.000 FEB: -10.096
USER: RMSD 6.488252
USER: SEED 43
USER: STATUS no improvement in best in 5 clusters for 5 generations
USER: GENES 25
USER: genes 0 Translation |==|  0.39426 0.35517 0.54281
USER: genes 1 Rotation |==|  0.67084 0.88365 0.75543 0.59154
USER: genes 2 Torsion [N]-CA--C-[N] |==|  0.40717
USER: genes 3 Torsion [C]-N--CA-[C] |==|  0.18437
USER: genes 4 Torsion [N]-CA--C-[N] |==|  0.35468
USER: genes 5 Torsion [C]-N--CA-[C] |==|  0.74541
USER: genes 6 Torsion [N]-CA--C-[OXT] |==|  0.96010
USER: genes 7 Torsion [N]-CA--CB-[CG] |==|  0.12168
USER: genes 8 Torsion [CA]-CB--CG-[CD] |==|  0.39360
USER: genes 9 Torsion [CB]-CG--CD-[NE] |==|  0.19432
USER: genes 10 Torsion [CG]-CD--NE-[CZ] |==|  0.68275
USER: genes 11 Torsion [N]-CA--CB-[CG2] |==|  0.44574
USER: genes 12 Torsion [CA]-CB--OG1-[HG1] |==|  0.75448
USER: genes 13 Torsion [C]-CA--CB-[CG] |==|  0.96526
USER: genes 14 Torsion [CA]-CB--CG-[CD] |==|  0.54946
USER: genes 15 Torsion [CB]-CG--CD-[NE] |==|  0.73393
USER: genes 16 Torsion [CG]-CD--NE-[HE] |==|  0.78503
USER: genes 17 Torsion [C]-CA--N-[C] |==|  0.60567
USER: genes 18 Torsion [N]-C--CA-[N] |==|  0.96135
USER: genes 19 Torsion [C]-CA--N-[C] |==|  0.74794
USER: genes 20 Torsion [N]-C--CA-[N] |==|  0.61513
USER: genes 21 Torsion [C]-CA--CB-[CG] |==|  0.13090
USER: genes 22 Torsion [CA]-CB--CG-[CD] |==|  0.38309
USER: genes 23 Torsion [CB]-CG--CD-[NE] |==|  0.39066
USER: genes 24 Torsion [CG]-CD--NE-[CZ] |==|  0.30573
ROOT
ATOM      1  CA  ARG A 214      -2.060   1.888 -10.074  1.00 73.37 LIG 0.18  C 
ENDROOT
BRANCH 1 2
ATOM      2  C   ARG A 214      -3.170   1.338 -10.960  1.00 70.35 LIG 0.24  C 
ATOM      3 O    ARG A 214      -4.358   1.511 -10.668  1.00 57.55 LIG-0.27  OA
ATOM      4  N   THR A 215      -2.777   0.689 -12.051  1.00 65.27 LIG-0.34  N 
ATOM      5 H    THR A 215      -1.956   0.608 -12.291  1.00 65.27 LIG 0.16  HD
BRANCH 4 6
ATOM      6  CA  THR A 215      -3.728   0.051 -12.948  1.00 68.27 LIG 0.20  C 
BRANCH 6 7
ATOM      7  C   THR A 215      -4.593   1.107 -13.627  1.00 71.74 LIG 0.24  C 
ATOM      8 O    THR A 215      -5.180   1.970 -12.970  1.00 72.98 LIG-0.27  OA
ATOM      9  N   ARG A 216      -4.653   1.043 -14.952  1.00 71.41 LIG-0.34  N 
ATOM     10 H    ARG A 216      -4.241   0.462 -15.434  1.00 71.41 LIG 0.16  HD
BRANCH 9 11
ATOM     11  CA  ARG A 216      -5.462   2.002 -15.698  1.00 72.33 LIG 0.18  C 
BRANCH 11 12
ATOM     12  C   ARG A 216      -6.881   1.488 -15.930  1.00 79.66 LIG 0.20  C 
ATOM     13 OXT  ARG A 216      -7.160   0.303 -15.750  1.00 82.24 LIG-0.65  OA
ATOM     14 O    ARG A 216      -7.785   2.243 -16.292  1.00 77.37 LIG-0.65  OA
ENDBRANCH 11 12
BRANCH 11 15
ATOM     15  CB  ARG A 216      -4.813   2.343 -17.040  1.00 66.30 LIG 0.04  C 
BRANCH 15 16
ATOM     16  CG  ARG A 216      -4.289   1.104 -17.739  1.00 69.07 LIG 0.02  C 
BRANCH 16 17
ATOM     17  CD  ARG A 216      -4.487   1.115 -19.239  1.00 69.32 LIG 0.14  C 
BRANCH 17 18
ATOM     18  NE  ARG A 216      -3.607   2.110 -19.846  1.00 75.64 LIG-0.23  N 
ATOM     19 HE   ARG A 216      -2.759   1.975 -19.797  1.00 75.64 LIG 0.18  HD
ATOM     20  CZ  ARG A 216      -4.021   3.209 -20.466  1.00 75.25 LIG 0.67  C 
ATOM     21  NH1 ARG A 216      -3.135   4.049 -20.983  1.00 73.93 LIG-0.23  N 
ATOM     22  NH2 ARG A 216      -5.316   3.469 -20.570  1.00 84.04 LIG-0.23  N 
ATOM     23 2HH1 ARG A 216      -3.401   4.761 -21.386  1.00 73.93 LIG 0.17  HD
ATOM     24 1HH1 ARG A 216      -2.294   3.882 -20.916  1.00 73.93 LIG 0.17  HD
ATOM     25 2HH2 ARG A 216      -5.580   4.182 -20.973  1.00 84.04 LIG 0.17  HD
ATOM     26 1HH2 ARG A 216      -5.892   2.925 -20.235  1.00 84.04 LIG 0.17  HD
ENDBRANCH 17 18
ENDBRANCH 16 17
ENDBRANCH 15 16
ENDBRANCH 11 15
ENDBRANCH 9 11
ENDBRANCH 6 7
BRANCH 6 27
ATOM     27  CB  THR A 215      -4.610  -0.949 -12.192  1.00 72.75 LIG 0.15  C 
ATOM     28  CG2 THR A 215      -5.882  -1.253 -12.976  1.00 70.84 LIG 0.04  C 
BRANCH 27 29
ATOM     29 OG1  THR A 215      -3.885  -2.166 -11.975  1.00 79.53 LIG-0.39  OA
ATOM     30 HG1  THR A 215      -3.995  -2.679 -12.632  1.00 79.53 LIG 0.21  HD
ENDBRANCH 27 29
ENDBRANCH 6 27
ENDBRANCH 4 6
ENDBRANCH 1 2
BRANCH 1 31
ATOM     31  CB  ARG A 214      -1.655   0.857  -9.005  1.00 80.43 LIG 0.04  C 
BRANCH 31 32
ATOM     32  CG  ARG A 214      -2.616  -0.316  -8.869  1.00 86.64 LIG 0.02  C 
BRANCH 32 33
ATOM     33  CD  ARG A 214      -2.442  -1.067  -7.557  1.00 94.72 LIG 0.14  C 
BRANCH 33 34
ATOM     34  NE  ARG A 214      -1.578  -2.238  -7.674  1.00 97.96 LIG-0.23  N 
ATOM     35 HE   ARG A 214      -1.909  -2.948  -8.030  1.00 97.96 LIG 0.18  HD
ATOM     36  CZ  ARG A 214      -0.314  -2.278  -7.267  1.00 95.09 LIG 0.67  C 
ATOM     37  NH2 ARG A 214       0.399  -3.387  -7.417  1.00100.24 LIG-0.23  N 
ATOM     38  NH1 ARG A 214       0.240  -1.210  -6.708  1.00 87.66 LIG-0.23  N 
ATOM     39 2HH2 ARG A 214       1.217  -3.412  -7.152  1.00100.24 LIG 0.17  HD
ATOM     40 1HH2 ARG A 214       0.042  -4.081  -7.778  1.00100.24 LIG 0.17  HD
ATOM     41 2HH1 ARG A 214       1.058  -1.239  -6.444  1.00 87.66 LIG 0.17  HD
ATOM     42 1HH1 ARG A 214      -0.219  -0.490  -6.608  1.00 87.66 LIG 0.17  HD
ENDBRANCH 33 34
ENDBRANCH 32 33
ENDBRANCH 31 32
ENDBRANCH 1 31
BRANCH 1 43
ATOM     43  N   ARG A 214      -2.493   3.132  -9.455  1.00 58.16 LIG-0.35  N 
ATOM     44 H    ARG A 214      -3.320   3.134  -9.218  1.00 58.16 LIG 0.16  HD
ATOM     45  C   ARG A 213      -1.680   4.168  -9.274  1.00 58.46 LIG 0.24  C 
ATOM     46 O    ARG A 213      -0.512   4.193  -9.675  1.00 62.14 LIG-0.27  OA
BRANCH 45 47
ATOM     47  CA  ARG A 213      -2.268   5.356  -8.531  1.00 67.47 LIG 0.18  C 
BRANCH 47 48
ATOM     48  N   ARG A 213      -3.714   5.214  -8.465  1.00 69.12 LIG-0.35  N 
ATOM     49 H    ARG A 213      -4.001   4.782  -7.779  1.00 69.12 LIG 0.16  HD
ATOM     50  C   GLY A 212      -4.488   5.717  -9.394  1.00 65.81 LIG 0.25  C 
ATOM     51 O    GLY A 212      -4.062   6.339 -10.329  1.00 63.13 LIG-0.27  OA
BRANCH 50 52
ATOM     52  CA  GLY A 212      -5.957   5.427  -9.208  1.00 65.64 LIG 0.47  C 
ATOM     53  N   GLY A 212      -6.525   5.100 -10.503  1.00 75.48 LIG 0.61  N 
ENDBRANCH 50 52
ENDBRANCH 47 48
BRANCH 47 54
ATOM     54  CB  ARG A 213      -1.651   5.471  -7.132  1.00 71.07 LIG 0.04  C 
BRANCH 54 55
ATOM     55  CG  ARG A 213      -0.139   5.351  -7.142  1.00 85.03 LIG 0.02  C 
BRANCH 55 56
ATOM     56  CD  ARG A 213       0.519   6.357  -6.220  1.00 85.62 LIG 0.14  C 
BRANCH 56 57
ATOM     57  NE  ARG A 213       1.653   5.778  -5.513  1.00 84.98 LIG-0.23  N 
ATOM     58  CZ  ARG A 213       2.920   6.103  -5.744  1.00 90.61 LIG 0.67  C 
ATOM     59  NH2 ARG A 213       3.886   5.518  -5.053  1.00 97.98 LIG-0.23  N 
ATOM     60  NH1 ARG A 213       3.222   7.006  -6.666  1.00 95.33 LIG-0.23  N 
ATOM     61 2HH2 ARG A 213       4.708   5.727  -5.200  1.00 97.98 LIG 0.17  HD
ATOM     62 1HH2 ARG A 213       3.692   4.929  -4.457  1.00 97.98 LIG 0.17  HD
ATOM     63 2HH1 ARG A 213       4.044   7.212  -6.812  1.00 95.33 LIG 0.17  HD
ATOM     64 1HH1 ARG A 213       2.596   7.385  -7.119  1.00 95.33 LIG 0.17  HD
ATOM     65 HE   ARG A 213       1.492   5.189  -4.908  1.00 84.98 LIG 0.18  HD
ENDBRANCH 56 57
ENDBRANCH 55 56
ENDBRANCH 54 55
ENDBRANCH 47 54
ENDBRANCH 45 47
ENDBRANCH 1 43
TORSDOF 23
ENDMDL
MODEL 9
USER: ADFR SOLUTION from run 3
USER: SCORE 18.886371 LL:  -2.723 LR: -16.866 RR:   0.000 FEB: -10.005
USER: RMSD 6.976514
USER: SEED 385956
USER: STATUS no improvement in best in 8 clusters for 5 generations
USER: GENES 25
USER: genes 0 Translation |==|  0.38327 0.35696 0.57373
USER: genes 1 Rotation |==|  0.71117 0.82040 0.73552 0.71745
USER: genes 2 Torsion [N]-CA--C-[N] |==|  0.37923
USER: genes 3 Torsion [C]-N--CA-[C] |==|  0.73123
USER: genes 4 Torsion [N]-CA--C-[N] |==|  0.34633
USER: genes 5 Torsion [C]-N--CA-[C] |==|  0.66508
USER: genes 6 Torsion [N]-CA--C-[OXT] |==|  0.44850
USER: genes 7 Torsion [N]-CA--CB-[CG] |==|  0.92189
USER: genes 8 Torsion [CA]-CB--CG-[CD] |==|  0.64894
USER: genes 9 Torsion [CB]-CG--CD-[NE] |==|  0.00846
USER: genes 10 Torsion [CG]-CD--NE-[CZ] |==|  0.73560
USER: genes 11 Torsion [N]-CA--CB-[CG2] |==|  0.63478
USER: genes 12 Torsion [CA]-CB--OG1-[HG1] |==|  0.17142
USER: genes 13 Torsion [C]-CA--CB-[CG] |==|  0.14429
USER: genes 14 Torsion [CA]-CB--CG-[CD] |==|  0.43973
USER: genes 15 Torsion [CB]-CG--CD-[NE] |==|  0.65880
USER: genes 16 Torsion [CG]-CD--NE-[HE] |==|  0.71152
USER: genes 17 Torsion [C]-CA--N-[C] |==|  0.74530
USER: genes 18 Torsion [N]-C--CA-[N] |==|  0.82287
USER: genes 19 Torsion [C]-CA--N-[C] |==|  0.71036
USER: genes 20 Torsion [N]-C--CA-[N] |==|  0.46789
USER: genes 21 Torsion [C]-CA--CB-[CG] |==|  0.36512
USER: genes 22 Torsion [CA]-CB--CG-[CD] |==|  0.66911
USER: genes 23 Torsion [CB]-CG--CD-[NE] |==|  0.38730
USER: genes 24 Torsion [CG]-CD--NE-[CZ] |==|  0.44384
ROOT
ATOM      1  CA  ARG A 214      -2.299   1.926  -9.286  1.00 73.37 LIG 0.18  C 
ENDROOT
BRANCH 1 2
ATOM      2  C   ARG A 214      -3.224   1.807 -10.489  1.00 70.35 LIG 0.24  C 
ATOM      3 O    ARG A 214      -4.309   2.400 -10.516  1.00 57.55 LIG-0.27  OA
ATOM      4  N   THR A 215      -2.785   1.053 -11.491  1.00 65.27 LIG-0.34  N 
ATOM      5 H    THR A 215      -2.011   0.679 -11.505  1.00 65.27 LIG 0.16  HD
BRANCH 4 6
ATOM      6  CA  THR A 215      -3.595   0.795 -12.670  1.00 68.27 LIG 0.20  C 
BRANCH 6 7
ATOM      7  C   THR A 215      -4.308  -0.546 -12.529  1.00 71.74 LIG 0.24  C 
ATOM      8 O    THR A 215      -3.681  -1.581 -12.291  1.00 72.98 LIG-0.27  OA
ATOM      9  N   ARG A 216      -5.630  -0.517 -12.658  1.00 71.41 LIG-0.34  N 
ATOM     10 H    ARG A 216      -6.092   0.193 -12.808  1.00 71.41 LIG 0.16  HD
BRANCH 9 11
ATOM     11  CA  ARG A 216      -6.405  -1.748 -12.549  1.00 72.33 LIG 0.18  C 
BRANCH 11 12
ATOM     12  C   ARG A 216      -7.200  -2.033 -13.822  1.00 79.66 LIG 0.20  C 
ATOM     13 OXT  ARG A 216      -7.633  -3.162 -14.055  1.00 82.24 LIG-0.65  OA
ATOM     14 O    ARG A 216      -7.438  -1.145 -14.642  1.00 77.37 LIG-0.65  OA
ENDBRANCH 11 12
BRANCH 11 15
ATOM     15  CB  ARG A 216      -7.356  -1.695 -11.352  1.00 66.30 LIG 0.04  C 
BRANCH 15 16
ATOM     16  CG  ARG A 216      -6.821  -0.799 -10.252  1.00 69.07 LIG 0.02  C 
BRANCH 16 17
ATOM     17  CD  ARG A 216      -6.743  -1.469  -8.898  1.00 69.32 LIG 0.14  C 
BRANCH 17 18
ATOM     18  NE  ARG A 216      -7.148  -2.868  -9.014  1.00 75.64 LIG-0.23  N 
ATOM     19 HE   ARG A 216      -6.550  -3.437  -9.253  1.00 75.64 LIG 0.18  HD
ATOM     20  CZ  ARG A 216      -8.374  -3.323  -8.780  1.00 75.25 LIG 0.67  C 
ATOM     21  NH1 ARG A 216      -8.635  -4.616  -8.916  1.00 73.93 LIG-0.23  N 
ATOM     22  NH2 ARG A 216      -9.335  -2.491  -8.410  1.00 84.04 LIG-0.23  N 
ATOM     23 2HH1 ARG A 216      -9.427  -4.914  -8.764  1.00 73.93 LIG 0.17  HD
ATOM     24 1HH1 ARG A 216      -8.011  -5.158  -9.156  1.00 73.93 LIG 0.17  HD
ATOM     25 2HH2 ARG A 216     -10.128  -2.789  -8.259  1.00 84.04 LIG 0.17  HD
ATOM     26 1HH2 ARG A 216      -9.167  -1.652  -8.322  1.00 84.04 LIG 0.17  HD
ENDBRANCH 17 18
ENDBRANCH 16 17
ENDBRANCH 15 16
ENDBRANCH 11 15
ENDBRANCH 9 11
ENDBRANCH 6 7
BRANCH 6 27
ATOM     27  CB  THR A 215      -2.737   0.805 -13.940  1.00 72.75 LIG 0.15  C 
ATOM     28  CG2 THR A 215      -3.374   1.674 -15.020  1.00 70.84 LIG 0.04  C 
BRANCH 27 29
ATOM     29 OG1  THR A 215      -1.430   1.309 -13.637  1.00 79.53 LIG-0.39  OA
ATOM     30 HG1  THR A 215      -1.058   0.805 -13.077  1.00 79.53 LIG 0.21  HD
ENDBRANCH 27 29
ENDBRANCH 6 27
ENDBRANCH 4 6
ENDBRANCH 1 2
BRANCH 1 31
ATOM     31  CB  ARG A 214      -2.761   0.995  -8.150  1.00 80.43 LIG 0.04  C 
BRANCH 31 32
ATOM     32  CG  ARG A 214      -2.977  -0.451  -8.573  1.00 86.64 LIG 0.02  C 
BRANCH 32 33
ATOM     33  CD  ARG A 214      -2.912  -1.420  -7.402  1.00 94.72 LIG 0.14  C 
BRANCH 33 34
ATOM     34  NE  ARG A 214      -1.902  -2.462  -7.571  1.00 97.96 LIG-0.23  N 
ATOM     35 HE   ARG A 214      -2.170  -3.250  -7.786  1.00 97.96 LIG 0.18  HD
ATOM     36  CZ  ARG A 214      -0.596  -2.269  -7.416  1.00 95.09 LIG 0.67  C 
ATOM     37  NH2 ARG A 214       0.250  -3.274  -7.594  1.00100.24 LIG-0.23  N 
ATOM     38  NH1 ARG A 214      -0.135  -1.072  -7.081  1.00 87.66 LIG-0.23  N 
ATOM     39 2HH2 ARG A 214       1.095  -3.149  -7.493  1.00100.24 LIG 0.17  HD
ATOM     40 1HH2 ARG A 214      -0.047  -4.053  -7.811  1.00100.24 LIG 0.17  HD
ATOM     41 2HH1 ARG A 214       0.710  -0.949  -6.980  1.00 87.66 LIG 0.17  HD
ATOM     42 1HH1 ARG A 214      -0.681  -0.418  -6.963  1.00 87.66 LIG 0.17  HD
ENDBRANCH 33 34
ENDBRANCH 32 33
ENDBRANCH 31 32
ENDBRANCH 1 31
BRANCH 1 43
ATOM     43  N   ARG A 214      -2.251   3.309  -8.834  1.00 58.16 LIG-0.35  N 
ATOM     44 H    ARG A 214      -2.861   3.510  -8.262  1.00 58.16 LIG 0.16  HD
ATOM     45  C   ARG A 213      -1.343   4.178  -9.269  1.00 58.46 LIG 0.24  C 
ATOM     46 O    ARG A 213      -0.510   3.910 -10.139  1.00 62.14 LIG-0.27  OA
BRANCH 45 47
ATOM     47  CA  ARG A 213      -1.379   5.555  -8.628  1.00 67.47 LIG 0.18  C 
BRANCH 47 48
ATOM     48  N   ARG A 213      -2.641   6.203  -8.947  1.00 69.12 LIG-0.35  N 
ATOM     49 H    ARG A 213      -3.316   5.909  -8.503  1.00 69.12 LIG 0.16  HD
ATOM     50  C   GLY A 212      -2.708   7.154  -9.844  1.00 65.81 LIG 0.25  C 
ATOM     51 O    GLY A 212      -1.743   7.563 -10.431  1.00 63.13 LIG-0.27  OA
BRANCH 50 52
ATOM     52  CA  GLY A 212      -4.100   7.675 -10.100  1.00 65.64 LIG 0.47  C 
ATOM     53  N   GLY A 212      -3.996   8.887 -10.892  1.00 75.48 LIG 0.61  N 
ENDBRANCH 50 52
ENDBRANCH 47 48
BRANCH 47 54
ATOM     54  CB  ARG A 213      -1.171   5.446  -7.113  1.00 71.07 LIG 0.04  C 
BRANCH 54 55
ATOM     55  CG  ARG A 213      -0.126   6.412  -6.589  1.00 85.03 LIG 0.02  C 
BRANCH 55 56
ATOM     56  CD  ARG A 213       1.039   5.695  -5.939  1.00 85.62 LIG 0.14  C 
BRANCH 56 57
ATOM     57  NE  ARG A 213       2.312   6.317  -6.279  1.00 84.98 LIG-0.23  N 
ATOM     58  CZ  ARG A 213       3.429   6.161  -5.578  1.00 90.61 LIG 0.67  C 
ATOM     59  NH2 ARG A 213       4.538   6.772  -5.963  1.00 97.98 LIG-0.23  N 
ATOM     60  NH1 ARG A 213       3.437   5.402  -4.492  1.00 95.33 LIG-0.23  N 
ATOM     61 2HH2 ARG A 213       5.263   6.673  -5.511  1.00 97.98 LIG 0.17  HD
ATOM     62 1HH2 ARG A 213       4.535   7.268  -6.666  1.00 97.98 LIG 0.17  HD
ATOM     63 2HH1 ARG A 213       4.163   5.305  -4.041  1.00 95.33 LIG 0.17  HD
ATOM     64 1HH1 ARG A 213       2.716   5.007  -4.238  1.00 95.33 LIG 0.17  HD
ATOM     65 HE   ARG A 213       2.341   6.816  -6.979  1.00 84.98 LIG 0.18  HD
ENDBRANCH 56 57
ENDBRANCH 55 56
ENDBRANCH 54 55
ENDBRANCH 47 54
ENDBRANCH 45 47
ENDBRANCH 1 43
TORSDOF 23
ENDMDL
MODEL 10
USER: ADFR SOLUTION from run 176
USER: SCORE 18.889762 LL:  -2.761 LR: -16.866 RR:   0.000 FEB: -10.005
USER: RMSD 7.623417
USER: SEED 175
USER: STATUS no improvement in best in 3 clusters for 5 generations
USER: GENES 25
USER: genes 0 Translation |==|  0.41101 0.55527 0.59304
USER: genes 1 Rotation |==|  0.40537 0.93985 0.68701 0.61228
USER: genes 2 Torsion [N]-CA--C-[N] |==|  0.83937
USER: genes 3 Torsion [C]-N--CA-[C] |==|  0.72830
USER: genes 4 Torsion [N]-CA--C-[N] |==|  0.39606
USER: genes 5 Torsion [C]-N--CA-[C] |==|  0.68903
USER: genes 6 Torsion [N]-CA--C-[OXT] |==|  0.39917
USER: genes 7 Torsion [N]-CA--CB-[CG] |==|  0.46459
USER: genes 8 Torsion [CA]-CB--CG-[CD] |==|  0.28885
USER: genes 9 Torsion [CB]-CG--CD-[NE] |==|  0.29977
USER: genes 10 Torsion [CG]-CD--NE-[CZ] |==|  0.50754
USER: genes 11 Torsion [N]-CA--CB-[CG2] |==|  0.52007
USER: genes 12 Torsion [CA]-CB--OG1-[HG1] |==|  0.78103
USER: genes 13 Torsion [C]-CA--CB-[CG] |==|  0.13605
USER: genes 14 Torsion [CA]-CB--CG-[CD] |==|  0.29647
USER: genes 15 Torsion [CB]-CG--CD-[NE] |==|  0.47408
USER: genes 16 Torsion [CG]-CD--NE-[HE] |==|  0.86604
USER: genes 17 Torsion [C]-CA--N-[C] |==|  0.66849
USER: genes 18 Torsion [N]-C--CA-[N] |==|  0.42796
USER: genes 19 Torsion [C]-CA--N-[C] |==|  0.57990
USER: genes 20 Torsion [N]-C--CA-[N] |==|  0.43512
USER: genes 21 Torsion [C]-CA--CB-[CG] |==|  0.30155
USER: genes 22 Torsion [CA]-CB--CG-[CD] |==|  0.33572
USER: genes 23 Torsion [CB]-CG--CD-[NE] |==|  0.87766
USER: genes 24 Torsion [CG]-CD--NE-[CZ] |==|  0.49698
ROOT
ATOM      1  CA  ARG A 214      -1.696   6.091  -8.794  1.00 73.37 LIG 0.18  C 
ENDROOT
BRANCH 1 2
ATOM      2  C   ARG A 214      -1.482   4.666  -9.288  1.00 70.35 LIG 0.24  C 
ATOM      3 O    ARG A 214      -0.510   4.380  -9.995  1.00 57.55 LIG-0.27  OA
ATOM      4  N   THR A 215      -2.386   3.772  -8.900  1.00 65.27 LIG-0.34  N 
ATOM      5 H    THR A 215      -3.036   3.950  -8.366  1.00 65.27 LIG 0.16  HD
BRANCH 4 6
ATOM      6  CA  THR A 215      -2.345   2.392  -9.355  1.00 68.27 LIG 0.20  C 
BRANCH 6 7
ATOM      7  C   THR A 215      -3.306   2.202 -10.523  1.00 71.74 LIG 0.24  C 
ATOM      8 O    THR A 215      -4.388   2.792 -10.564  1.00 72.98 LIG-0.27  OA
ATOM      9  N   ARG A 216      -2.895   1.383 -11.486  1.00 71.41 LIG-0.34  N 
ATOM     10 H    ARG A 216      -2.140   0.972 -11.489  1.00 71.41 LIG 0.16  HD
BRANCH 9 11
ATOM     11  CA  ARG A 216      -3.745   1.125 -12.643  1.00 72.33 LIG 0.18  C 
BRANCH 11 12
ATOM     12  C   ARG A 216      -4.255  -0.315 -12.663  1.00 79.66 LIG 0.20  C 
ATOM     13 OXT  ARG A 216      -5.389  -0.575 -13.066  1.00 82.24 LIG-0.65  OA
ATOM     14 O    ARG A 216      -3.547  -1.251 -12.291  1.00 77.37 LIG-0.65  OA
ENDBRANCH 11 12
BRANCH 11 15
ATOM     15  CB  ARG A 216      -3.005   1.425 -13.948  1.00 66.30 LIG 0.04  C 
BRANCH 15 16
ATOM     16  CG  ARG A 216      -3.746   0.877 -15.151  1.00 69.07 LIG 0.02  C 
BRANCH 16 17
ATOM     17  CD  ARG A 216      -4.478   1.930 -15.953  1.00 69.32 LIG 0.14  C 
BRANCH 17 18
ATOM     18  NE  ARG A 216      -3.787   2.154 -17.221  1.00 75.64 LIG-0.23  N 
ATOM     19 HE   ARG A 216      -3.098   1.668 -17.390  1.00 75.64 LIG 0.18  HD
ATOM     20  CZ  ARG A 216      -4.146   3.053 -18.130  1.00 75.25 LIG 0.67  C 
ATOM     21  NH1 ARG A 216      -3.447   3.174 -19.250  1.00 73.93 LIG-0.23  N 
ATOM     22  NH2 ARG A 216      -5.199   3.829 -17.923  1.00 84.04 LIG-0.23  N 
ATOM     23 2HH1 ARG A 216      -3.677   3.755 -19.841  1.00 73.93 LIG 0.17  HD
ATOM     24 1HH1 ARG A 216      -2.762   2.671 -19.387  1.00 73.93 LIG 0.17  HD
ATOM     25 2HH2 ARG A 216      -5.429   4.410 -18.514  1.00 84.04 LIG 0.17  HD
ATOM     26 1HH2 ARG A 216      -5.653   3.751 -17.196  1.00 84.04 LIG 0.17  HD
ENDBRANCH 17 18
ENDBRANCH 16 17
ENDBRANCH 15 16
ENDBRANCH 11 15
ENDBRANCH 9 11
ENDBRANCH 6 7
BRANCH 6 27
ATOM     27  CB  THR A 215      -2.697   1.427  -8.218  1.00 72.75 LIG 0.15  C 
ATOM     28  CG2 THR A 215      -2.482  -0.020  -8.647  1.00 70.84 LIG 0.04  C 
BRANCH 27 29
ATOM     29 OG1  THR A 215      -1.880   1.709  -7.075  1.00 79.53 LIG-0.39  OA
ATOM     30 HG1  THR A 215      -1.117   1.376  -7.187  1.00 79.53 LIG 0.21  HD
ENDBRANCH 27 29
ENDBRANCH 6 27
ENDBRANCH 4 6
ENDBRANCH 1 2
BRANCH 1 31
ATOM     31  CB  ARG A 214      -1.562   6.160  -7.261  1.00 80.43 LIG 0.04  C 
BRANCH 31 32
ATOM     32  CG  ARG A 214      -0.317   5.481  -6.708  1.00 86.64 LIG 0.02  C 
BRANCH 32 33
ATOM     33  CD  ARG A 214       0.730   6.475  -6.231  1.00 94.72 LIG 0.14  C 
BRANCH 33 34
ATOM     34  NE  ARG A 214       1.831   5.848  -5.503  1.00 97.96 LIG-0.23  N 
ATOM     35 HE   ARG A 214       1.634   5.288  -4.881  1.00 97.96 LIG 0.18  HD
ATOM     36  CZ  ARG A 214       3.116   6.088  -5.741  1.00 95.09 LIG 0.67  C 
ATOM     37  NH2 ARG A 214       4.050   5.469  -5.031  1.00100.24 LIG-0.23  N 
ATOM     38  NH1 ARG A 214       3.470   6.948  -6.686  1.00 87.66 LIG-0.23  N 
ATOM     39 2HH2 ARG A 214       4.882   5.626  -5.185  1.00100.24 LIG 0.17  HD
ATOM     40 1HH2 ARG A 214       3.824   4.911  -4.416  1.00100.24 LIG 0.17  HD
ATOM     41 2HH1 ARG A 214       4.302   7.102  -6.838  1.00 87.66 LIG 0.17  HD
ATOM     42 1HH1 ARG A 214       2.867   7.352  -7.147  1.00 87.66 LIG 0.17  HD
ENDBRANCH 33 34
ENDBRANCH 32 33
ENDBRANCH 31 32
ENDBRANCH 1 31
BRANCH 1 43
ATOM     43  N   ARG A 214      -3.001   6.572  -9.221  1.00 58.16 LIG-0.35  N 
ATOM     44 H    ARG A 214      -3.659   6.108  -8.920  1.00 58.16 LIG 0.16  HD
ATOM     45  C   ARG A 213      -3.155   7.634 -10.007  1.00 58.46 LIG 0.24  C 
ATOM     46 O    ARG A 213      -2.209   8.260 -10.495  1.00 62.14 LIG-0.27  OA
BRANCH 45 47
ATOM     47  CA  ARG A 213      -4.588   8.056 -10.284  1.00 67.47 LIG 0.18  C 
BRANCH 47 48
ATOM     48  N   ARG A 213      -4.621   9.477 -10.591  1.00 69.12 LIG-0.35  N 
ATOM     49 H    ARG A 213      -3.902   9.782 -10.950  1.00 69.12 LIG 0.16  HD
ATOM     50  C   GLY A 212      -5.679  10.203 -10.329  1.00 65.81 LIG 0.25  C 
ATOM     51 O    GLY A 212      -6.681   9.744  -9.851  1.00 63.13 LIG-0.27  OA
BRANCH 50 52
ATOM     52  CA  GLY A 212      -5.526  11.669 -10.651  1.00 65.64 LIG 0.47  C 
ATOM     53  N   GLY A 212      -6.848  12.232 -10.852  1.00 75.48 LIG 0.61  N 
ENDBRANCH 50 52
ENDBRANCH 47 48
BRANCH 47 54
ATOM     54  CB  ARG A 213      -5.180   7.220 -11.425  1.00 71.07 LIG 0.04  C 
BRANCH 54 55
ATOM     55  CG  ARG A 213      -6.224   6.228 -10.950  1.00 85.03 LIG 0.02  C 
BRANCH 55 56
ATOM     56  CD  ARG A 213      -7.570   6.456 -11.609  1.00 85.62 LIG 0.14  C 
BRANCH 56 57
ATOM     57  NE  ARG A 213      -7.916   7.871 -11.647  1.00 84.98 LIG-0.23  N 
ATOM     58  CZ  ARG A 213      -9.031   8.350 -12.188  1.00 90.61 LIG 0.67  C 
ATOM     59  NH2 ARG A 213      -9.258   9.654 -12.180  1.00 97.98 LIG-0.23  N 
ATOM     60  NH1 ARG A 213      -9.914   7.531 -12.739  1.00 95.33 LIG-0.23  N 
ATOM     61 2HH2 ARG A 213      -9.978   9.968 -12.529  1.00 97.98 LIG 0.17  HD
ATOM     62 1HH2 ARG A 213      -8.684  10.189 -11.826  1.00 97.98 LIG 0.17  HD
ATOM     63 2HH1 ARG A 213     -10.634   7.846 -13.089  1.00 95.33 LIG 0.17  HD
ATOM     64 1HH1 ARG A 213      -9.767   6.683 -12.749  1.00 95.33 LIG 0.17  HD
ATOM     65 HE   ARG A 213      -7.365   8.430 -11.297  1.00 84.98 LIG 0.18  HD
ENDBRANCH 56 57
ENDBRANCH 55 56
ENDBRANCH 54 55
ENDBRANCH 47 54
ENDBRANCH 45 47
ENDBRANCH 1 43
TORSDOF 23
ENDMDL
