MODEL 1
USER: ADFR SOLUTION from run 28
USER: SCORE 23.280288 LL:  -5.029 LR: -19.179 RR:   0.000 FEB: -10.827
USER: RMSD 3.074255
USER: SEED 27
USER: STATUS no improvement in best in 2 clusters for 5 generations
USER: GENES 30
USER: genes 0 Translation |==|  0.47034 0.53530 0.57602
USER: genes 1 Rotation |==|  0.48915 0.49687 0.49615 0.99986
USER: genes 2 Torsion [N]-CA--C-[N] |==|  0.38362
USER: genes 3 Torsion [C]-N--CA-[CB] |==|  0.51111
USER: genes 4 Torsion [N]-CA--C-[N] |==|  0.44903
USER: genes 5 Torsion [C]-N--CA-[CB] |==|  0.83056
USER: genes 6 Torsion [N]-CA--C-[O] |==|  0.06232
USER: genes 7 Torsion [N]-CA--CB-[CG] |==|  0.71378
USER: genes 8 Torsion [CA]-CB--CG-[CD] |==|  0.73865
USER: genes 9 Torsion [CB]-CG--CD-[NE] |==|  0.93509
USER: genes 10 Torsion [CG]-CD--NE-[HE] |==|  0.89042
USER: genes 11 Torsion [N]-CA--CB-[CG] |==|  0.87225
USER: genes 12 Torsion [CA]-CB--CG-[CD] |==|  0.37435
USER: genes 13 Torsion [CB]-CG--CD-[NE] |==|  0.23676
USER: genes 14 Torsion [CG]-CD--NE-[CZ] |==|  0.35409
USER: genes 15 Torsion [N]-C--CA-[N] |==|  0.36807
USER: genes 16 Torsion [C]-CA--CB-[CG2] |==|  0.22846
USER: genes 17 Torsion [CA]-CB--OG1-[HG1] |==|  0.15609
USER: genes 18 Torsion [C]-CA--N-[C] |==|  0.72795
USER: genes 19 Torsion [N]-C--CA-[N] |==|  0.91053
USER: genes 20 Torsion [C]-CA--CB-[CG] |==|  0.45726
USER: genes 21 Torsion [CA]-CB--CG-[CD1] |==|  0.55956
USER: genes 22 Torsion [C]-CA--N-[C] |==|  0.68716
USER: genes 23 Torsion [N]-C--CA-[N] |==|  0.89114
USER: genes 24 Torsion [C]-CA--N-[C] |==|  0.83171
USER: genes 25 Torsion [N]-C--CA-[N] |==|  0.77751
USER: genes 26 Torsion [C]-CA--CB-[CG2] |==|  0.20977
USER: genes 27 Torsion [CA]-CB--CG1-[CD1] |==|  0.37793
USER: genes 28 Torsion [C]-CA--CB-[CG] |==|  0.93593
USER: genes 29 Torsion [CA]-CB--CG-[CD1] |==|  0.33341
ROOT
ATOM      1  C   THR D 648     -63.729   9.401  -5.047  1.00 57.47 LIG 0.24  C 
ATOM      2 O    THR D 648     -62.670   9.495  -5.672  1.00 58.33 LIG-0.27  OA
ATOM      3  N   PRO D 649     -64.720   8.573  -5.419  1.00 55.77 LIG-0.34  N 
ATOM      4  CA  PRO D 649     -64.572   7.617  -6.527  1.00 54.43 LIG 0.18  C 
ATOM      5  CB  PRO D 649     -65.721   6.633  -6.278  1.00 56.30 LIG 0.04  C 
ATOM      6  CG  PRO D 649     -66.760   7.442  -5.571  1.00 52.90 LIG 0.02  C 
ATOM      7  CD  PRO D 649     -65.976   8.359  -4.672  1.00 52.65 LIG 0.13  C 
ENDROOT
BRANCH 4 8
ATOM      8  C   PRO D 649     -64.692   8.195  -7.942  1.00 62.44 LIG 0.24  C 
ATOM      9  N   ARG D 650     -63.816   7.740  -8.836  1.00 65.13 LIG-0.35  N 
ATOM     10 H    ARG D 650     -63.096   7.320  -8.622  1.00 65.13 LIG 0.16  HD
ATOM     11 O    PRO D 649     -65.560   9.028  -8.204  1.00 64.48 LIG-0.27  OA
BRANCH 9 12
ATOM     12  CA  ARG D 650     -63.995   7.911 -10.280  1.00 68.90 LIG 0.18  C 
BRANCH 12 13
ATOM     13  C   ARG D 650     -65.365   7.360 -10.680  1.00 70.53 LIG 0.24  C 
ATOM     14  N   ARG D 651     -65.862   7.753 -11.849  1.00 72.55 LIG-0.35  N 
ATOM     15 H    ARG D 651     -65.444   8.242 -12.420  1.00 72.55 LIG 0.16  HD
ATOM     16 O    ARG D 650     -65.974   6.595  -9.929  1.00 68.24 LIG-0.27  OA
BRANCH 14 17
ATOM     17  CA  ARG D 651     -67.211   7.355 -12.245  1.00 72.50 LIG 0.16  C 
BRANCH 17 18
ATOM     18  C   ARG D 651     -68.252   7.902 -11.266  1.00 69.52 LIG 0.22  C 
ATOM     19 O    ARG D 651     -68.007   8.885 -10.557  1.00 68.10 LIG-0.29  OA
ENDBRANCH 17 18
BRANCH 17 20
ATOM     20  CB  ARG D 651     -67.344   5.821 -12.344  1.00 76.74 LIG 0.04  C 
BRANCH 20 21
ATOM     21  CG  ARG D 651     -67.345   5.140 -13.759  1.00 75.60 LIG 0.02  C 
BRANCH 21 22
ATOM     22  CD  ARG D 651     -68.729   4.869 -14.408  1.00 74.66 LIG 0.14  C 
BRANCH 22 23
ATOM     23  NE  ARG D 651     -69.851   4.771 -13.466  1.00 75.25 LIG-0.23  N 
ATOM     24 HE   ARG D 651     -69.705   4.361 -12.725  1.00 75.25 LIG 0.18  HD
ATOM     25  CZ  ARG D 651     -71.074   5.261 -13.659  1.00 78.75 LIG 0.67  C 
ATOM     26  NH2 ARG D 651     -72.006   5.103 -12.725  1.00 79.25 LIG-0.23  N 
ATOM     27  NH1 ARG D 651     -71.365   5.921 -14.765  1.00 78.43 LIG-0.23  N 
ATOM     28 2HH2 ARG D 651     -72.796   5.419 -12.848  1.00 79.25 LIG 0.17  HD
ATOM     29 1HH2 ARG D 651     -71.819   4.685 -11.998  1.00 79.25 LIG 0.17  HD
ATOM     30 2HH1 ARG D 651     -72.157   6.235 -14.883  1.00 78.43 LIG 0.17  HD
ATOM     31 1HH1 ARG D 651     -70.762   6.037 -15.367  1.00 78.43 LIG 0.17  HD
ENDBRANCH 22 23
ENDBRANCH 21 22
ENDBRANCH 20 21
ENDBRANCH 17 20
ENDBRANCH 14 17
ENDBRANCH 12 13
BRANCH 12 32
ATOM     32  CB  ARG D 650     -62.882   7.200 -11.065  1.00 66.96 LIG 0.04  C 
BRANCH 32 33
ATOM     33  CG  ARG D 650     -61.467   7.436 -10.541  1.00 73.73 LIG 0.02  C 
BRANCH 33 34
ATOM     34  CD  ARG D 650     -60.668   6.127 -10.473  1.00 75.05 LIG 0.14  C 
BRANCH 34 35
ATOM     35  NE  ARG D 650     -60.022   5.761 -11.723  1.00 81.10 LIG-0.23  N 
ATOM     36 HE   ARG D 650     -60.505   5.731 -12.434  1.00 81.10 LIG 0.18  HD
ATOM     37  CZ  ARG D 650     -58.728   5.470 -11.834  1.00 84.47 LIG 0.67  C 
ATOM     38  NH1 ARG D 650     -57.946   5.494 -10.762  1.00 76.84 LIG-0.23  N 
ATOM     39  NH2 ARG D 650     -58.206   5.148 -13.019  1.00 84.76 LIG-0.23  N 
ATOM     40 1HH1 ARG D 650     -58.276   5.698  -9.994  1.00 76.84 LIG 0.17  HD
ATOM     41 2HH1 ARG D 650     -57.110   5.306 -10.835  1.00 76.84 LIG 0.17  HD
ATOM     42 1HH2 ARG D 650     -58.707   5.128 -13.718  1.00 84.76 LIG 0.17  HD
ATOM     43 2HH2 ARG D 650     -57.370   4.962 -13.084  1.00 84.76 LIG 0.17  HD
ENDBRANCH 34 35
ENDBRANCH 33 34
ENDBRANCH 32 33
ENDBRANCH 12 32
ENDBRANCH 9 12
ENDBRANCH 4 8
BRANCH 1 44
ATOM     44  CA  THR D 648     -63.951  10.213  -3.770  1.00 55.33 LIG 0.20  C 
BRANCH 44 45
ATOM     45  CB  THR D 648     -64.291  11.695  -4.106  1.00 57.91 LIG 0.15  C 
ATOM     46  CG2 THR D 648     -65.779  11.857  -4.448  1.00 54.65 LIG 0.04  C 
BRANCH 45 47
ATOM     47 OG1  THR D 648     -63.969  12.530  -2.982  1.00 51.58 LIG-0.39  OA
ATOM     48 HG1  THR D 648     -63.161  12.424  -2.776  1.00 51.58 LIG 0.21  HD
ENDBRANCH 45 47
ENDBRANCH 44 45
BRANCH 44 49
ATOM     49  N   THR D 648     -62.764  10.113  -2.928  1.00 49.85 LIG-0.34  N 
ATOM     50 H    THR D 648     -62.128  10.651  -3.143  1.00 49.85 LIG 0.16  HD
ATOM     51  C   LEU D 647     -62.700   9.250  -1.921  1.00 48.49 LIG 0.24  C 
ATOM     52 O    LEU D 647     -63.595   8.440  -1.673  1.00 50.57 LIG-0.27  OA
BRANCH 51 53
ATOM     53  CA  LEU D 647     -61.454   9.321  -1.052  1.00 48.52 LIG 0.18  C 
BRANCH 53 54
ATOM     54  CB  LEU D 647     -61.707  10.290   0.103  1.00 42.08 LIG 0.04  C 
BRANCH 54 55
ATOM     55  CG  LEU D 647     -60.751  10.260   1.295  1.00 43.63 LIG-0.02  C 
ATOM     56  CD1 LEU D 647     -61.429  10.869   2.529  1.00 34.09 LIG 0.01  C 
ATOM     57  CD2 LEU D 647     -60.301   8.846   1.567  1.00 37.87 LIG 0.01  C 
ENDBRANCH 54 55
ENDBRANCH 53 54
BRANCH 53 58
ATOM     58  N   LEU D 647     -60.270   9.725  -1.809  1.00 49.21 LIG-0.35  N 
ATOM     59  C   LEU D 646     -59.254   8.890  -2.025  1.00 51.75 LIG 0.24  C 
ATOM     60 O    LEU D 646     -59.271   7.705  -1.689  1.00 46.22 LIG-0.27  OA
ATOM     61 H    LEU D 647     -60.293  10.535  -2.096  1.00 49.21 LIG 0.16  HD
BRANCH 59 62
ATOM     62  CA  LEU D 646     -58.042   9.473  -2.740  1.00 53.11 LIG 0.18  C 
BRANCH 62 63
ATOM     63  N   LEU D 646     -58.442  10.391  -3.800  1.00 56.32 LIG-0.35  N 
ATOM     64  C   ILE D 645     -59.187   9.981  -4.823  1.00 63.27 LIG 0.26  C 
ATOM     65 O    ILE D 645     -59.558   8.808  -4.955  1.00 63.46 LIG-0.27  OA
ATOM     66 H    LEU D 646     -58.158  11.196  -3.702  1.00 56.32 LIG 0.16  HD
BRANCH 64 67
ATOM     67  CA  ILE D 645     -59.597  11.049  -5.840  1.00 63.54 LIG 0.40  C 
ATOM     68  N   ILE D 645     -60.734  11.845  -5.382  1.00 63.63 LIG 0.61  N 
BRANCH 67 69
ATOM     69  CB  ILE D 645     -58.355  11.916  -6.122  1.00 61.73 LIG 0.03  C 
ATOM     70  CG2 ILE D 645     -57.383  11.154  -7.029  1.00 57.36 LIG 0.01  C 
BRANCH 69 71
ATOM     71  CG1 ILE D 645     -58.746  13.270  -6.724  1.00 65.03 LIG 0.00  C 
ATOM     72  CD1 ILE D 645     -57.992  14.444  -6.115  1.00 60.49 LIG 0.01  C 
ENDBRANCH 69 71
ENDBRANCH 67 69
ENDBRANCH 64 67
ENDBRANCH 62 63
BRANCH 62 73
ATOM     73  CB  LEU D 646     -57.129  10.178  -1.742  1.00 52.76 LIG 0.04  C 
BRANCH 73 74
ATOM     74  CG  LEU D 646     -57.815  10.635  -0.458  1.00 58.95 LIG-0.02  C 
ATOM     75  CD1 LEU D 646     -57.169   9.970   0.760  1.00 55.02 LIG 0.01  C 
ATOM     76  CD2 LEU D 646     -57.758  12.157  -0.353  1.00 54.54 LIG 0.01  C 
ENDBRANCH 73 74
ENDBRANCH 62 73
ENDBRANCH 59 62
ENDBRANCH 53 58
ENDBRANCH 51 53
ENDBRANCH 44 49
ENDBRANCH 1 44
TORSDOF 28
ENDMDL
MODEL 2
USER: ADFR SOLUTION from run 172
USER: SCORE 22.982608 LL:  -5.591 LR: -18.484 RR:   0.000 FEB: -10.131
USER: RMSD 3.156196
USER: SEED 171
USER: STATUS no improvement in best in 4 clusters for 5 generations
USER: GENES 30
USER: genes 0 Translation |==|  0.46091 0.51286 0.59161
USER: genes 1 Rotation |==|  0.41349 0.43341 0.35601 0.96621
USER: genes 2 Torsion [N]-CA--C-[N] |==|  0.02660
USER: genes 3 Torsion [C]-N--CA-[CB] |==|  0.78333
USER: genes 4 Torsion [N]-CA--C-[N] |==|  0.16733
USER: genes 5 Torsion [C]-N--CA-[CB] |==|  0.80038
USER: genes 6 Torsion [N]-CA--C-[O] |==|  0.17066
USER: genes 7 Torsion [N]-CA--CB-[CG] |==|  0.29345
USER: genes 8 Torsion [CA]-CB--CG-[CD] |==|  0.19210
USER: genes 9 Torsion [CB]-CG--CD-[NE] |==|  0.59165
USER: genes 10 Torsion [CG]-CD--NE-[HE] |==|  0.86608
USER: genes 11 Torsion [N]-CA--CB-[CG] |==|  0.50807
USER: genes 12 Torsion [CA]-CB--CG-[CD] |==|  0.64589
USER: genes 13 Torsion [CB]-CG--CD-[NE] |==|  0.79218
USER: genes 14 Torsion [CG]-CD--NE-[CZ] |==|  0.68865
USER: genes 15 Torsion [N]-C--CA-[N] |==|  0.43031
USER: genes 16 Torsion [C]-CA--CB-[CG2] |==|  0.42368
USER: genes 17 Torsion [CA]-CB--OG1-[HG1] |==|  0.87383
USER: genes 18 Torsion [C]-CA--N-[C] |==|  0.81621
USER: genes 19 Torsion [N]-C--CA-[N] |==|  0.90685
USER: genes 20 Torsion [C]-CA--CB-[CG] |==|  0.48348
USER: genes 21 Torsion [CA]-CB--CG-[CD1] |==|  0.56553
USER: genes 22 Torsion [C]-CA--N-[C] |==|  0.68041
USER: genes 23 Torsion [N]-C--CA-[N] |==|  0.87908
USER: genes 24 Torsion [C]-CA--N-[C] |==|  0.68697
USER: genes 25 Torsion [N]-C--CA-[N] |==|  0.36004
USER: genes 26 Torsion [C]-CA--CB-[CG2] |==|  0.74977
USER: genes 27 Torsion [CA]-CB--CG1-[CD1] |==|  0.68160
USER: genes 28 Torsion [C]-CA--CB-[CG] |==|  0.76537
USER: genes 29 Torsion [CA]-CB--CG-[CD1] |==|  0.29761
ROOT
ATOM      1  C   THR D 648     -63.962   9.048  -4.626  1.00 57.47 LIG 0.24  C 
ATOM      2 O    THR D 648     -62.950   8.387  -4.868  1.00 58.33 LIG-0.27  OA
ATOM      3  N   PRO D 649     -65.171   8.732  -5.122  1.00 55.77 LIG-0.34  N 
ATOM      4  CA  PRO D 649     -65.409   7.500  -5.889  1.00 54.43 LIG 0.18  C 
ATOM      5  CB  PRO D 649     -66.934   7.359  -5.834  1.00 56.30 LIG 0.04  C 
ATOM      6  CG  PRO D 649     -67.435   8.761  -5.702  1.00 52.90 LIG 0.02  C 
ATOM      7  CD  PRO D 649     -66.430   9.437  -4.810  1.00 52.65 LIG 0.13  C 
ENDROOT
BRANCH 4 8
ATOM      8  C   PRO D 649     -64.949   7.512  -7.352  1.00 62.44 LIG 0.24  C 
ATOM      9  N   ARG D 650     -64.207   8.555  -7.723  1.00 65.13 LIG-0.35  N 
ATOM     10 H    ARG D 650     -64.152   9.282  -7.268  1.00 65.13 LIG 0.16  HD
ATOM     11 O    PRO D 649     -65.261   6.595  -8.111  1.00 64.48 LIG-0.27  OA
BRANCH 9 12
ATOM     12  CA  ARG D 650     -63.407   8.562  -8.951  1.00 68.90 LIG 0.18  C 
BRANCH 12 13
ATOM     13  C   ARG D 650     -64.241   7.973 -10.091  1.00 70.53 LIG 0.24  C 
ATOM     14  N   ARG D 651     -65.375   8.594 -10.400  1.00 72.55 LIG-0.35  N 
ATOM     15 H    ARG D 651     -65.640   9.333 -10.048  1.00 72.55 LIG 0.16  HD
ATOM     16 O    ARG D 650     -63.866   6.955 -10.678  1.00 68.24 LIG-0.27  OA
BRANCH 14 17
ATOM     17  CA  ARG D 651     -66.274   8.027 -11.401  1.00 72.50 LIG 0.16  C 
BRANCH 17 18
ATOM     18  C   ARG D 651     -66.570   6.556 -11.100  1.00 69.52 LIG 0.22  C 
ATOM     19 O    ARG D 651     -67.130   6.220 -10.050  1.00 68.10 LIG-0.29  OA
ENDBRANCH 17 18
BRANCH 17 20
ATOM     20  CB  ARG D 651     -65.694   8.160 -12.825  1.00 76.74 LIG 0.04  C 
BRANCH 20 21
ATOM     21  CG  ARG D 651     -65.112   6.889 -13.540  1.00 75.60 LIG 0.02  C 
BRANCH 21 22
ATOM     22  CD  ARG D 651     -66.128   5.793 -13.964  1.00 74.66 LIG 0.14  C 
BRANCH 22 23
ATOM     23  NE  ARG D 651     -65.620   4.417 -13.907  1.00 75.25 LIG-0.23  N 
ATOM     24 HE   ARG D 651     -64.855   4.267 -14.269  1.00 75.25 LIG 0.18  HD
ATOM     25  CZ  ARG D 651     -66.240   3.382 -13.343  1.00 78.75 LIG 0.67  C 
ATOM     26  NH2 ARG D 651     -65.672   2.180 -13.360  1.00 79.25 LIG-0.23  N 
ATOM     27  NH1 ARG D 651     -67.408   3.543 -12.750  1.00 78.43 LIG-0.23  N 
ATOM     28 2HH2 ARG D 651     -66.071   1.511 -12.997  1.00 79.25 LIG 0.17  HD
ATOM     29 1HH2 ARG D 651     -64.906   2.073 -13.735  1.00 79.25 LIG 0.17  HD
ATOM     30 2HH1 ARG D 651     -67.803   2.870 -12.388  1.00 78.43 LIG 0.17  HD
ATOM     31 1HH1 ARG D 651     -67.774   4.320 -12.725  1.00 78.43 LIG 0.17  HD
ENDBRANCH 22 23
ENDBRANCH 21 22
ENDBRANCH 20 21
ENDBRANCH 17 20
ENDBRANCH 14 17
ENDBRANCH 12 13
BRANCH 12 32
ATOM     32  CB  ARG D 650     -62.107   7.764  -8.770  1.00 66.96 LIG 0.04  C 
BRANCH 32 33
ATOM     33  CG  ARG D 650     -61.170   7.770  -9.976  1.00 73.73 LIG 0.02  C 
BRANCH 33 34
ATOM     34  CD  ARG D 650     -60.776   6.344 -10.387  1.00 75.05 LIG 0.14  C 
BRANCH 34 35
ATOM     35  NE  ARG D 650     -59.807   5.719  -9.502  1.00 81.10 LIG-0.23  N 
ATOM     36 HE   ARG D 650     -60.058   5.523  -8.703  1.00 81.10 LIG 0.18  HD
ATOM     37  CZ  ARG D 650     -58.556   5.431  -9.852  1.00 84.47 LIG 0.67  C 
ATOM     38  NH1 ARG D 650     -58.122   5.724 -11.072  1.00 76.84 LIG-0.23  N 
ATOM     39  NH2 ARG D 650     -57.726   4.851  -8.983  1.00 84.76 LIG-0.23  N 
ATOM     40 1HH1 ARG D 650     -58.650   6.100 -11.637  1.00 76.84 LIG 0.17  HD
ATOM     41 2HH1 ARG D 650     -57.313   5.538 -11.297  1.00 76.84 LIG 0.17  HD
ATOM     42 1HH2 ARG D 650     -57.999   4.660  -8.190  1.00 84.76 LIG 0.17  HD
ATOM     43 2HH2 ARG D 650     -56.919   4.668  -9.216  1.00 84.76 LIG 0.17  HD
ENDBRANCH 34 35
ENDBRANCH 33 34
ENDBRANCH 32 33
ENDBRANCH 12 32
ENDBRANCH 9 12
ENDBRANCH 4 8
BRANCH 1 44
ATOM     44  CA  THR D 648     -63.893  10.262  -3.699  1.00 55.33 LIG 0.20  C 
BRANCH 44 45
ATOM     45  CB  THR D 648     -63.829  11.584  -4.518  1.00 57.91 LIG 0.15  C 
ATOM     46  CG2 THR D 648     -64.424  12.756  -3.725  1.00 54.65 LIG 0.04  C 
BRANCH 45 47
ATOM     47 OG1  THR D 648     -62.462  11.881  -4.848  1.00 51.58 LIG-0.39  OA
ATOM     48 HG1  THR D 648     -61.979  11.772  -4.168  1.00 51.58 LIG 0.21  HD
ENDBRANCH 45 47
ENDBRANCH 44 45
BRANCH 44 49
ATOM     49  N   THR D 648     -62.741  10.122  -2.815  1.00 49.85 LIG-0.34  N 
ATOM     50 H    THR D 648     -62.122  10.706  -2.940  1.00 49.85 LIG 0.16  HD
ATOM     51  C   LEU D 647     -62.682   9.160  -1.901  1.00 48.49 LIG 0.24  C 
ATOM     52 O    LEU D 647     -63.548   8.291  -1.783  1.00 50.57 LIG-0.27  OA
BRANCH 51 53
ATOM     53  CA  LEU D 647     -61.481   9.190  -0.970  1.00 48.52 LIG 0.18  C 
BRANCH 53 54
ATOM     54  CB  LEU D 647     -61.818  10.046   0.251  1.00 42.08 LIG 0.04  C 
BRANCH 54 55
ATOM     55  CG  LEU D 647     -60.805  10.108   1.394  1.00 43.63 LIG-0.02  C 
ATOM     56  CD1 LEU D 647     -61.510  10.486   2.702  1.00 34.09 LIG 0.01  C 
ATOM     57  CD2 LEU D 647     -60.088   8.788   1.526  1.00 37.87 LIG 0.01  C 
ENDBRANCH 54 55
ENDBRANCH 53 54
BRANCH 53 58
ATOM     58  N   LEU D 647     -60.277   9.692  -1.630  1.00 49.21 LIG-0.35  N 
ATOM     59  C   LEU D 646     -59.207   8.921  -1.825  1.00 51.75 LIG 0.24  C 
ATOM     60 O    LEU D 646     -59.182   7.720  -1.552  1.00 46.22 LIG-0.27  OA
ATOM     61 H    LEU D 647     -60.325  10.514  -1.876  1.00 49.21 LIG 0.16  HD
BRANCH 59 62
ATOM     62  CA  LEU D 646     -57.987   9.600  -2.433  1.00 53.11 LIG 0.18  C 
BRANCH 62 63
ATOM     63  N   LEU D 646     -58.363  10.477  -3.535  1.00 56.32 LIG-0.35  N 
ATOM     64  C   ILE D 645     -58.009  10.200  -4.787  1.00 63.27 LIG 0.26  C 
ATOM     65 O    ILE D 645     -57.326   9.214  -5.089  1.00 63.46 LIG-0.27  OA
ATOM     66 H    LEU D 646     -58.820  11.167  -3.304  1.00 56.32 LIG 0.16  HD
BRANCH 64 67
ATOM     67  CA  ILE D 645     -58.515  11.160  -5.867  1.00 63.54 LIG 0.40  C 
ATOM     68  N   ILE D 645     -57.443  11.619  -6.750  1.00 63.63 LIG 0.61  N 
BRANCH 67 69
ATOM     69  CB  ILE D 645     -59.633  10.435  -6.639  1.00 61.73 LIG 0.03  C 
ATOM     70  CG2 ILE D 645     -59.035   9.667  -7.824  1.00 57.36 LIG 0.01  C 
BRANCH 69 71
ATOM     71  CG1 ILE D 645     -60.439   9.512  -5.718  1.00 65.03 LIG 0.00  C 
ATOM     72  CD1 ILE D 645     -60.295   8.036  -6.062  1.00 60.49 LIG 0.01  C 
ENDBRANCH 69 71
ENDBRANCH 67 69
ENDBRANCH 64 67
ENDBRANCH 62 63
BRANCH 62 73
ATOM     73  CB  LEU D 646     -57.232  10.384  -1.363  1.00 52.76 LIG 0.04  C 
BRANCH 73 74
ATOM     74  CG  LEU D 646     -57.764  11.790  -1.103  1.00 58.95 LIG-0.02  C 
ATOM     75  CD1 LEU D 646     -58.495  11.845   0.241  1.00 55.02 LIG 0.01  C 
ATOM     76  CD2 LEU D 646     -56.619  12.797  -1.153  1.00 54.54 LIG 0.01  C 
ENDBRANCH 73 74
ENDBRANCH 62 73
ENDBRANCH 59 62
ENDBRANCH 53 58
ENDBRANCH 51 53
ENDBRANCH 44 49
ENDBRANCH 1 44
TORSDOF 28
ENDMDL
MODEL 3
USER: ADFR SOLUTION from run 61
USER: SCORE 21.978719 LL:  -6.375 LR: -18.233 RR:   0.000 FEB:  -9.881
USER: RMSD 3.560849
USER: SEED 60
USER: STATUS no improvement in best in 6 clusters for 5 generations
USER: GENES 30
USER: genes 0 Translation |==|  0.52501 0.58174 0.54478
USER: genes 1 Rotation |==|  0.50791 0.50379 0.82349 0.88116
USER: genes 2 Torsion [N]-CA--C-[N] |==|  0.79806
USER: genes 3 Torsion [C]-N--CA-[CB] |==|  0.36944
USER: genes 4 Torsion [N]-CA--C-[N] |==|  0.15366
USER: genes 5 Torsion [C]-N--CA-[CB] |==|  0.81594
USER: genes 6 Torsion [N]-CA--C-[O] |==|  0.08119
USER: genes 7 Torsion [N]-CA--CB-[CG] |==|  0.25410
USER: genes 8 Torsion [CA]-CB--CG-[CD] |==|  0.67007
USER: genes 9 Torsion [CB]-CG--CD-[NE] |==|  0.34520
USER: genes 10 Torsion [CG]-CD--NE-[HE] |==|  0.15032
USER: genes 11 Torsion [N]-CA--CB-[CG] |==|  0.89605
USER: genes 12 Torsion [CA]-CB--CG-[CD] |==|  0.24209
USER: genes 13 Torsion [CB]-CG--CD-[NE] |==|  0.62119
USER: genes 14 Torsion [CG]-CD--NE-[CZ] |==|  0.77876
USER: genes 15 Torsion [N]-C--CA-[N] |==|  0.19681
USER: genes 16 Torsion [C]-CA--CB-[CG2] |==|  0.31109
USER: genes 17 Torsion [CA]-CB--OG1-[HG1] |==|  0.10931
USER: genes 18 Torsion [C]-CA--N-[C] |==|  0.61894
USER: genes 19 Torsion [N]-C--CA-[N] |==|  0.93032
USER: genes 20 Torsion [C]-CA--CB-[CG] |==|  0.40227
USER: genes 21 Torsion [CA]-CB--CG-[CD1] |==|  0.06000
USER: genes 22 Torsion [C]-CA--N-[C] |==|  0.70335
USER: genes 23 Torsion [N]-C--CA-[N] |==|  0.86111
USER: genes 24 Torsion [C]-CA--N-[C] |==|  0.83255
USER: genes 25 Torsion [N]-C--CA-[N] |==|  0.77359
USER: genes 26 Torsion [C]-CA--CB-[CG2] |==|  0.20845
USER: genes 27 Torsion [CA]-CB--CG1-[CD1] |==|  0.83252
USER: genes 28 Torsion [C]-CA--CB-[CG] |==|  0.77313
USER: genes 29 Torsion [CA]-CB--CG-[CD1] |==|  0.31849
ROOT
ATOM      1  C   THR D 648     -62.376  10.132  -5.891  1.00 57.47 LIG 0.24  C 
ATOM      2 O    THR D 648     -62.362  11.199  -6.509  1.00 58.33 LIG-0.27  OA
ATOM      3  N   PRO D 649     -61.733   9.034  -6.322  1.00 55.77 LIG-0.34  N 
ATOM      4  CA  PRO D 649     -60.854   9.050  -7.501  1.00 54.43 LIG 0.18  C 
ATOM      5  CB  PRO D 649     -60.033   7.767  -7.326  1.00 56.30 LIG 0.04  C 
ATOM      6  CG  PRO D 649     -60.929   6.852  -6.556  1.00 52.90 LIG 0.02  C 
ATOM      7  CD  PRO D 649     -61.650   7.754  -5.591  1.00 52.65 LIG 0.13  C 
ENDROOT
BRANCH 4 8
ATOM      8  C   PRO D 649     -61.551   9.028  -8.867  1.00 62.44 LIG 0.24  C 
ATOM      9  N   ARG D 650     -62.107   7.870  -9.222  1.00 65.13 LIG-0.35  N 
ATOM     10 H    ARG D 650     -61.925   7.121  -8.840  1.00 65.13 LIG 0.16  HD
ATOM     11 O    PRO D 649     -61.579  10.039  -9.569  1.00 64.48 LIG-0.27  OA
BRANCH 9 12
ATOM     12  CA  ARG D 650     -63.089   7.760 -10.303  1.00 68.90 LIG 0.18  C 
BRANCH 12 13
ATOM     13  C   ARG D 650     -64.480   7.568  -9.695  1.00 70.53 LIG 0.24  C 
ATOM     14  N   ARG D 651     -64.892   8.479  -8.819  1.00 72.55 LIG-0.35  N 
ATOM     15 H    ARG D 651     -64.462   9.196  -8.618  1.00 72.55 LIG 0.16  HD
ATOM     16 O    ARG D 650     -65.169   6.594 -10.007  1.00 68.24 LIG-0.27  OA
BRANCH 14 17
ATOM     17  CA  ARG D 651     -66.161   8.301  -8.116  1.00 72.50 LIG 0.16  C 
BRANCH 17 18
ATOM     18  C   ARG D 651     -66.187   6.970  -7.363  1.00 69.52 LIG 0.22  C 
ATOM     19 O    ARG D 651     -65.146   6.460  -6.932  1.00 68.10 LIG-0.29  OA
ENDBRANCH 17 18
BRANCH 17 20
ATOM     20  CB  ARG D 651     -67.361   8.376  -9.085  1.00 76.74 LIG 0.04  C 
BRANCH 20 21
ATOM     21  CG  ARG D 651     -67.902   7.055  -9.741  1.00 75.60 LIG 0.02  C 
BRANCH 21 22
ATOM     22  CD  ARG D 651     -67.847   6.966 -11.290  1.00 74.66 LIG 0.14  C 
BRANCH 22 23
ATOM     23  NE  ARG D 651     -67.124   5.805 -11.823  1.00 75.25 LIG-0.23  N 
ATOM     24 HE   ARG D 651     -67.371   5.030 -11.547  1.00 75.25 LIG 0.18  HD
ATOM     25  CZ  ARG D 651     -66.120   5.848 -12.697  1.00 78.75 LIG 0.67  C 
ATOM     26  NH2 ARG D 651     -65.545   4.720 -13.101  1.00 79.25 LIG-0.23  N 
ATOM     27  NH1 ARG D 651     -65.701   7.003 -13.181  1.00 78.43 LIG-0.23  N 
ATOM     28 2HH2 ARG D 651     -64.897   4.746 -13.665  1.00 79.25 LIG 0.17  HD
ATOM     29 1HH2 ARG D 651     -65.822   3.964 -12.798  1.00 79.25 LIG 0.17  HD
ATOM     30 2HH1 ARG D 651     -65.053   7.024 -13.745  1.00 78.43 LIG 0.17  HD
ATOM     31 1HH1 ARG D 651     -66.078   7.735 -12.932  1.00 78.43 LIG 0.17  HD
ENDBRANCH 22 23
ENDBRANCH 21 22
ENDBRANCH 20 21
ENDBRANCH 17 20
ENDBRANCH 14 17
ENDBRANCH 12 13
BRANCH 12 32
ATOM     32  CB  ARG D 650     -62.750   6.595 -11.245  1.00 66.96 LIG 0.04  C 
BRANCH 32 33
ATOM     33  CG  ARG D 650     -61.260   6.385 -11.506  1.00 73.73 LIG 0.02  C 
BRANCH 33 34
ATOM     34  CD  ARG D 650     -60.626   5.480 -10.441  1.00 75.05 LIG 0.14  C 
BRANCH 34 35
ATOM     35  NE  ARG D 650     -59.337   5.948  -9.958  1.00 81.10 LIG-0.23  N 
ATOM     36 HE   ARG D 650     -59.313   6.361  -9.205  1.00 81.10 LIG 0.18  HD
ATOM     37  CZ  ARG D 650     -58.190   5.775 -10.612  1.00 84.47 LIG 0.67  C 
ATOM     38  NH1 ARG D 650     -58.180   5.151 -11.783  1.00 76.84 LIG-0.23  N 
ATOM     39  NH2 ARG D 650     -57.044   6.229 -10.101  1.00 84.76 LIG-0.23  N 
ATOM     40 1HH1 ARG D 650     -58.914   4.858 -12.120  1.00 76.84 LIG 0.17  HD
ATOM     41 2HH1 ARG D 650     -57.438   5.040 -12.205  1.00 76.84 LIG 0.17  HD
ATOM     42 1HH2 ARG D 650     -57.043   6.636  -9.343  1.00 84.76 LIG 0.17  HD
ATOM     43 2HH2 ARG D 650     -56.308   6.114 -10.528  1.00 84.76 LIG 0.17  HD
ENDBRANCH 34 35
ENDBRANCH 33 34
ENDBRANCH 32 33
ENDBRANCH 12 32
ENDBRANCH 9 12
ENDBRANCH 4 8
BRANCH 1 44
ATOM     44  CA  THR D 648     -63.111  10.021  -4.554  1.00 55.33 LIG 0.20  C 
BRANCH 44 45
ATOM     45  CB  THR D 648     -64.084  11.219  -4.353  1.00 57.91 LIG 0.15  C 
ATOM     46  CG2 THR D 648     -65.547  10.757  -4.398  1.00 54.65 LIG 0.04  C 
BRANCH 45 47
ATOM     47 OG1  THR D 648     -63.823  11.846  -3.087  1.00 51.58 LIG-0.39  OA
ATOM     48 HG1  THR D 648     -62.994  11.869  -2.951  1.00 51.58 LIG 0.21  HD
ENDBRANCH 45 47
ENDBRANCH 44 45
BRANCH 44 49
ATOM     49  N   THR D 648     -62.131   9.940  -3.476  1.00 49.85 LIG-0.34  N 
ATOM     50 H    THR D 648     -61.470  10.484  -3.554  1.00 49.85 LIG 0.16  HD
ATOM     51  C   LEU D 647     -62.278   9.085  -2.470  1.00 48.49 LIG 0.24  C 
ATOM     52 O    LEU D 647     -63.198   8.267  -2.413  1.00 50.57 LIG-0.27  OA
BRANCH 51 53
ATOM     53  CA  LEU D 647     -61.249   9.176  -1.355  1.00 48.52 LIG 0.18  C 
BRANCH 53 54
ATOM     54  CB  LEU D 647     -61.827  10.008  -0.210  1.00 42.08 LIG 0.04  C 
BRANCH 54 55
ATOM     55  CG  LEU D 647     -61.460   9.622   1.223  1.00 43.63 LIG-0.02  C 
ATOM     56  CD1 LEU D 647     -60.165   8.801   1.230  1.00 34.09 LIG 0.01  C 
ATOM     57  CD2 LEU D 647     -61.324  10.857   2.077  1.00 37.87 LIG 0.01  C 
ENDBRANCH 54 55
ENDBRANCH 53 54
BRANCH 53 58
ATOM     58  N   LEU D 647     -59.982   9.745  -1.812  1.00 49.21 LIG-0.35  N 
ATOM     59  C   LEU D 646     -58.893   8.995  -1.978  1.00 51.75 LIG 0.24  C 
ATOM     60 O    LEU D 646     -58.891   7.769  -1.852  1.00 46.22 LIG-0.27  OA
ATOM     61 H    LEU D 647     -60.007  10.592  -1.960  1.00 49.21 LIG 0.16  HD
BRANCH 59 62
ATOM     62  CA  LEU D 646     -57.617   9.733  -2.360  1.00 53.11 LIG 0.18  C 
BRANCH 62 63
ATOM     63  N   LEU D 646     -57.840  10.631  -3.487  1.00 56.32 LIG-0.35  N 
ATOM     64  C   ILE D 645     -58.253  10.171  -4.664  1.00 63.27 LIG 0.26  C 
ATOM     65 O    ILE D 645     -58.443   8.969  -4.885  1.00 63.46 LIG-0.27  OA
ATOM     66 H    LEU D 646     -57.684  11.460  -3.320  1.00 56.32 LIG 0.16  HD
BRANCH 64 67
ATOM     67  CA  ILE D 645     -58.514  11.216  -5.752  1.00 63.54 LIG 0.40  C 
ATOM     68  N   ILE D 645     -59.827  11.845  -5.615  1.00 63.63 LIG 0.61  N 
BRANCH 67 69
ATOM     69  CB  ILE D 645     -57.367  12.242  -5.688  1.00 61.73 LIG 0.03  C 
ATOM     70  CG2 ILE D 645     -56.095  11.639  -6.292  1.00 57.36 LIG 0.01  C 
BRANCH 69 71
ATOM     71  CG1 ILE D 645     -57.754  13.554  -6.381  1.00 65.03 LIG 0.00  C 
ATOM     72  CD1 ILE D 645     -58.090  13.383  -7.857  1.00 60.49 LIG 0.01  C 
ENDBRANCH 69 71
ENDBRANCH 67 69
ENDBRANCH 64 67
ENDBRANCH 62 63
BRANCH 62 73
ATOM     73  CB  LEU D 646     -57.076  10.507  -1.162  1.00 52.76 LIG 0.04  C 
BRANCH 73 74
ATOM     74  CG  LEU D 646     -57.743  11.858  -0.917  1.00 58.95 LIG-0.02  C 
ATOM     75  CD1 LEU D 646     -58.504  11.845   0.412  1.00 55.02 LIG 0.01  C 
ATOM     76  CD2 LEU D 646     -56.696  12.967  -0.946  1.00 54.54 LIG 0.01  C 
ENDBRANCH 73 74
ENDBRANCH 62 73
ENDBRANCH 59 62
ENDBRANCH 53 58
ENDBRANCH 51 53
ENDBRANCH 44 49
ENDBRANCH 1 44
TORSDOF 28
ENDMDL
MODEL 4
USER: ADFR SOLUTION from run 42
USER: SCORE 23.293314 LL:  -5.988 LR: -18.224 RR:   0.000 FEB:  -9.871
USER: RMSD 4.554708
USER: SEED 41
USER: STATUS searching
USER: GENES 30
USER: genes 0 Translation |==|  0.47422 0.52558 0.58448
USER: genes 1 Rotation |==|  0.46880 0.48363 0.45386 0.99662
USER: genes 2 Torsion [N]-CA--C-[N] |==|  0.52399
USER: genes 3 Torsion [C]-N--CA-[CB] |==|  0.86589
USER: genes 4 Torsion [N]-CA--C-[N] |==|  0.31667
USER: genes 5 Torsion [C]-N--CA-[CB] |==|  0.15473
USER: genes 6 Torsion [N]-CA--C-[O] |==|  0.49952
USER: genes 7 Torsion [N]-CA--CB-[CG] |==|  0.30340
USER: genes 8 Torsion [CA]-CB--CG-[CD] |==|  0.70383
USER: genes 9 Torsion [CB]-CG--CD-[NE] |==|  0.97527
USER: genes 10 Torsion [CG]-CD--NE-[HE] |==|  0.25982
USER: genes 11 Torsion [N]-CA--CB-[CG] |==|  0.64113
USER: genes 12 Torsion [CA]-CB--CG-[CD] |==|  0.90302
USER: genes 13 Torsion [CB]-CG--CD-[NE] |==|  0.30288
USER: genes 14 Torsion [CG]-CD--NE-[CZ] |==|  0.57619
USER: genes 15 Torsion [N]-C--CA-[N] |==|  0.38928
USER: genes 16 Torsion [C]-CA--CB-[CG2] |==|  0.20986
USER: genes 17 Torsion [CA]-CB--OG1-[HG1] |==|  0.16542
USER: genes 18 Torsion [C]-CA--N-[C] |==|  0.76768
USER: genes 19 Torsion [N]-C--CA-[N] |==|  0.90067
USER: genes 20 Torsion [C]-CA--CB-[CG] |==|  0.39967
USER: genes 21 Torsion [CA]-CB--CG-[CD1] |==|  0.05826
USER: genes 22 Torsion [C]-CA--N-[C] |==|  0.69565
USER: genes 23 Torsion [N]-C--CA-[N] |==|  0.87245
USER: genes 24 Torsion [C]-CA--N-[C] |==|  0.83085
USER: genes 25 Torsion [N]-C--CA-[N] |==|  0.78173
USER: genes 26 Torsion [C]-CA--CB-[CG2] |==|  0.16493
USER: genes 27 Torsion [CA]-CB--CG1-[CD1] |==|  0.28025
USER: genes 28 Torsion [C]-CA--CB-[CG] |==|  0.75858
USER: genes 29 Torsion [CA]-CB--CG-[CD1] |==|  0.27181
ROOT
ATOM      1  C   THR D 648     -63.633   9.248  -4.819  1.00 57.47 LIG 0.24  C 
ATOM      2 O    THR D 648     -62.544   9.112  -5.382  1.00 58.33 LIG-0.27  OA
ATOM      3  N   PRO D 649     -64.731   8.566  -5.188  1.00 55.77 LIG-0.34  N 
ATOM      4  CA  PRO D 649     -64.694   7.509  -6.209  1.00 54.43 LIG 0.18  C 
ATOM      5  CB  PRO D 649     -66.003   6.753  -5.958  1.00 56.30 LIG 0.04  C 
ATOM      6  CG  PRO D 649     -66.923   7.780  -5.381  1.00 52.90 LIG 0.02  C 
ATOM      7  CD  PRO D 649     -66.040   8.628  -4.507  1.00 52.65 LIG 0.13  C 
ENDROOT
BRANCH 4 8
ATOM      8  C   PRO D 649     -64.644   7.976  -7.668  1.00 62.44 LIG 0.24  C 
ATOM      9  N   ARG D 650     -64.790   7.026  -8.592  1.00 65.13 LIG-0.35  N 
ATOM     10 H    ARG D 650     -64.706   6.187  -8.424  1.00 65.13 LIG 0.16  HD
ATOM     11 O    PRO D 649     -64.481   9.166  -7.937  1.00 64.48 LIG-0.27  OA
BRANCH 9 12
ATOM     12  CA  ARG D 650     -65.112   7.323  -9.990  1.00 68.90 LIG 0.18  C 
BRANCH 12 13
ATOM     13  C   ARG D 650     -63.871   7.899 -10.674  1.00 70.53 LIG 0.24  C 
ATOM     14  N   ARG D 651     -63.315   7.174 -11.639  1.00 72.55 LIG-0.35  N 
ATOM     15 H    ARG D 651     -63.636   6.438 -11.946  1.00 72.55 LIG 0.16  HD
ATOM     16 O    ARG D 650     -63.412   8.989 -10.321  1.00 68.24 LIG-0.27  OA
BRANCH 14 17
ATOM     17  CA  ARG D 651     -62.066   7.610 -12.259  1.00 72.50 LIG 0.16  C 
BRANCH 17 18
ATOM     18  C   ARG D 651     -61.597   6.604 -13.312  1.00 69.52 LIG 0.22  C 
ATOM     19 O    ARG D 651     -60.558   6.790 -13.956  1.00 68.10 LIG-0.29  OA
ENDBRANCH 17 18
BRANCH 17 20
ATOM     20  CB  ARG D 651     -60.955   7.823 -11.209  1.00 76.74 LIG 0.04  C 
BRANCH 20 21
ATOM     21  CG  ARG D 651     -59.752   6.815 -11.149  1.00 75.60 LIG 0.02  C 
BRANCH 21 22
ATOM     22  CD  ARG D 651     -59.728   5.818  -9.958  1.00 74.66 LIG 0.14  C 
BRANCH 22 23
ATOM     23  NE  ARG D 651     -60.729   6.070  -8.914  1.00 75.25 LIG-0.23  N 
ATOM     24 HE   ARG D 651     -61.476   5.650  -8.979  1.00 75.25 LIG 0.18  HD
ATOM     25  CZ  ARG D 651     -60.581   6.892  -7.877  1.00 78.75 LIG 0.67  C 
ATOM     26  NH2 ARG D 651     -61.568   7.034  -6.998  1.00 79.25 LIG-0.23  N 
ATOM     27  NH1 ARG D 651     -59.452   7.554  -7.702  1.00 78.43 LIG-0.23  N 
ATOM     28 2HH2 ARG D 651     -61.475   7.564  -6.328  1.00 79.25 LIG 0.17  HD
ATOM     29 1HH2 ARG D 651     -62.301   6.596  -7.101  1.00 79.25 LIG 0.17  HD
ATOM     30 2HH1 ARG D 651     -59.363   8.082  -7.029  1.00 78.43 LIG 0.17  HD
ATOM     31 1HH1 ARG D 651     -58.806   7.456  -8.260  1.00 78.43 LIG 0.17  HD
ENDBRANCH 22 23
ENDBRANCH 21 22
ENDBRANCH 20 21
ENDBRANCH 17 20
ENDBRANCH 14 17
ENDBRANCH 12 13
BRANCH 12 32
ATOM     32  CB  ARG D 650     -66.287   8.307 -10.092  1.00 66.96 LIG 0.04  C 
BRANCH 32 33
ATOM     33  CG  ARG D 650     -67.416   7.874 -11.024  1.00 73.73 LIG 0.02  C 
BRANCH 33 34
ATOM     34  CD  ARG D 650     -66.877   7.106 -12.240  1.00 75.05 LIG 0.14  C 
BRANCH 34 35
ATOM     35  NE  ARG D 650     -67.181   5.685 -12.225  1.00 81.10 LIG-0.23  N 
ATOM     36 HE   ARG D 650     -67.886   5.426 -11.805  1.00 81.10 LIG 0.18  HD
ATOM     37  CZ  ARG D 650     -66.435   4.757 -12.821  1.00 84.47 LIG 0.67  C 
ATOM     38  NH1 ARG D 650     -65.334   5.108 -13.473  1.00 76.84 LIG-0.23  N 
ATOM     39  NH2 ARG D 650     -66.784   3.471 -12.768  1.00 84.76 LIG-0.23  N 
ATOM     40 1HH1 ARG D 650     -65.101   5.935 -13.510  1.00 76.84 LIG 0.17  HD
ATOM     41 2HH1 ARG D 650     -64.852   4.508 -13.858  1.00 76.84 LIG 0.17  HD
ATOM     42 1HH2 ARG D 650     -67.495   3.235 -12.345  1.00 84.76 LIG 0.17  HD
ATOM     43 2HH2 ARG D 650     -66.297   2.878 -13.155  1.00 84.76 LIG 0.17  HD
ENDBRANCH 34 35
ENDBRANCH 33 34
ENDBRANCH 32 33
ENDBRANCH 12 32
ENDBRANCH 9 12
ENDBRANCH 4 8
BRANCH 1 44
ATOM     44  CA  THR D 648     -63.776  10.191  -3.624  1.00 55.33 LIG 0.20  C 
BRANCH 44 45
ATOM     45  CB  THR D 648     -64.035  11.652  -4.096  1.00 57.91 LIG 0.15  C 
ATOM     46  CG2 THR D 648     -65.480  11.828  -4.583  1.00 54.65 LIG 0.04  C 
BRANCH 45 47
ATOM     47 OG1  THR D 648     -63.786  12.561  -3.012  1.00 51.58 LIG-0.39  OA
ATOM     48 HG1  THR D 648     -62.989  12.482  -2.757  1.00 51.58 LIG 0.21  HD
ENDBRANCH 45 47
ENDBRANCH 44 45
BRANCH 44 49
ATOM     49  N   THR D 648     -62.577  10.100  -2.797  1.00 49.85 LIG-0.34  N 
ATOM     50 H    THR D 648     -61.990  10.708  -2.953  1.00 49.85 LIG 0.16  HD
ATOM     51  C   LEU D 647     -62.435   9.143  -1.887  1.00 48.49 LIG 0.24  C 
ATOM     52 O    LEU D 647     -63.259   8.240  -1.728  1.00 50.57 LIG-0.27  OA
BRANCH 51 53
ATOM     53  CA  LEU D 647     -61.192   9.223  -1.016  1.00 48.52 LIG 0.18  C 
BRANCH 53 54
ATOM     54  CB  LEU D 647     -61.487  10.113   0.192  1.00 42.08 LIG 0.04  C 
BRANCH 54 55
ATOM     55  CG  LEU D 647     -60.858   9.741   1.535  1.00 43.63 LIG-0.02  C 
ATOM     56  CD1 LEU D 647     -59.639   8.838   1.313  1.00 34.09 LIG 0.01  C 
ATOM     57  CD2 LEU D 647     -60.479  10.988   2.295  1.00 37.87 LIG 0.01  C 
ENDBRANCH 54 55
ENDBRANCH 53 54
BRANCH 53 58
ATOM     58  N   LEU D 647     -60.030   9.722  -1.749  1.00 49.21 LIG-0.35  N 
ATOM     59  C   LEU D 646     -59.003   8.934  -2.063  1.00 51.75 LIG 0.24  C 
ATOM     60 O    LEU D 646     -58.993   7.721  -1.846  1.00 46.22 LIG-0.27  OA
ATOM     61 H    LEU D 647     -60.073  10.557  -1.953  1.00 49.21 LIG 0.16  HD
BRANCH 59 62
ATOM     62  CA  LEU D 646     -57.815   9.608  -2.737  1.00 53.11 LIG 0.18  C 
BRANCH 62 63
ATOM     63  N   LEU D 646     -58.248  10.502  -3.804  1.00 56.32 LIG-0.35  N 
ATOM     64  C   ILE D 645     -58.924  10.046  -4.854  1.00 63.27 LIG 0.26  C 
ATOM     65 O    ILE D 645     -59.199   8.850  -5.007  1.00 63.46 LIG-0.27  OA
ATOM     66 H    LEU D 646     -58.030  11.326  -3.690  1.00 56.32 LIG 0.16  HD
BRANCH 64 67
ATOM     67  CA  ILE D 645     -59.380  11.089  -5.878  1.00 63.54 LIG 0.40  C 
ATOM     68  N   ILE D 645     -60.569  11.817  -5.438  1.00 63.63 LIG 0.61  N 
BRANCH 67 69
ATOM     69  CB  ILE D 645     -58.187  12.028  -6.140  1.00 61.73 LIG 0.03  C 
ATOM     70  CG2 ILE D 645     -56.998  11.222  -6.674  1.00 57.36 LIG 0.01  C 
BRANCH 69 71
ATOM     71  CG1 ILE D 645     -58.572  13.166  -7.092  1.00 65.03 LIG 0.00  C 
ATOM     72  CD1 ILE D 645     -58.851  14.483  -6.381  1.00 60.49 LIG 0.01  C 
ENDBRANCH 69 71
ENDBRANCH 67 69
ENDBRANCH 64 67
ENDBRANCH 62 63
BRANCH 62 73
ATOM     73  CB  LEU D 646     -56.986  10.369  -1.707  1.00 52.76 LIG 0.04  C 
BRANCH 73 74
ATOM     74  CG  LEU D 646     -57.451  11.799  -1.440  1.00 58.95 LIG-0.02  C 
ATOM     75  CD1 LEU D 646     -58.322  11.851  -0.182  1.00 55.02 LIG 0.01  C 
ATOM     76  CD2 LEU D 646     -56.243  12.723  -1.318  1.00 54.54 LIG 0.01  C 
ENDBRANCH 73 74
ENDBRANCH 62 73
ENDBRANCH 59 62
ENDBRANCH 53 58
ENDBRANCH 51 53
ENDBRANCH 44 49
ENDBRANCH 1 44
TORSDOF 28
ENDMDL
MODEL 5
USER: ADFR SOLUTION from run 61
USER: SCORE 21.870543 LL:  -6.302 LR: -18.151 RR:   0.000 FEB:  -9.799
USER: RMSD 3.609752
USER: SEED 60
USER: STATUS no improvement in best in 6 clusters for 5 generations
USER: GENES 30
USER: genes 0 Translation |==|  0.51934 0.58351 0.54027
USER: genes 1 Rotation |==|  0.50798 0.51183 0.81129 0.89102
USER: genes 2 Torsion [N]-CA--C-[N] |==|  0.79852
USER: genes 3 Torsion [C]-N--CA-[CB] |==|  0.35967
USER: genes 4 Torsion [N]-CA--C-[N] |==|  0.15401
USER: genes 5 Torsion [C]-N--CA-[CB] |==|  0.81688
USER: genes 6 Torsion [N]-CA--C-[O] |==|  0.09057
USER: genes 7 Torsion [N]-CA--CB-[CG] |==|  0.27246
USER: genes 8 Torsion [CA]-CB--CG-[CD] |==|  0.61053
USER: genes 9 Torsion [CB]-CG--CD-[NE] |==|  0.70102
USER: genes 10 Torsion [CG]-CD--NE-[HE] |==|  0.16339
USER: genes 11 Torsion [N]-CA--CB-[CG] |==|  0.66403
USER: genes 12 Torsion [CA]-CB--CG-[CD] |==|  0.69870
USER: genes 13 Torsion [CB]-CG--CD-[NE] |==|  0.03745
USER: genes 14 Torsion [CG]-CD--NE-[CZ] |==|  0.64027
USER: genes 15 Torsion [N]-C--CA-[N] |==|  0.19770
USER: genes 16 Torsion [C]-CA--CB-[CG2] |==|  0.30793
USER: genes 17 Torsion [CA]-CB--OG1-[HG1] |==|  0.10332
USER: genes 18 Torsion [C]-CA--N-[C] |==|  0.62686
USER: genes 19 Torsion [N]-C--CA-[N] |==|  0.93082
USER: genes 20 Torsion [C]-CA--CB-[CG] |==|  0.41052
USER: genes 21 Torsion [CA]-CB--CG-[CD1] |==|  0.05466
USER: genes 22 Torsion [C]-CA--N-[C] |==|  0.69630
USER: genes 23 Torsion [N]-C--CA-[N] |==|  0.86702
USER: genes 24 Torsion [C]-CA--N-[C] |==|  0.83022
USER: genes 25 Torsion [N]-C--CA-[N] |==|  0.77903
USER: genes 26 Torsion [C]-CA--CB-[CG2] |==|  0.17389
USER: genes 27 Torsion [CA]-CB--CG1-[CD1] |==|  0.87687
USER: genes 28 Torsion [C]-CA--CB-[CG] |==|  0.77237
USER: genes 29 Torsion [CA]-CB--CG-[CD1] |==|  0.31501
ROOT
ATOM      1  C   THR D 648     -62.516  10.160  -6.013  1.00 57.47 LIG 0.24  C 
ATOM      2 O    THR D 648     -62.452  11.211  -6.655  1.00 58.33 LIG-0.27  OA
ATOM      3  N   PRO D 649     -61.954   9.015  -6.435  1.00 55.77 LIG-0.34  N 
ATOM      4  CA  PRO D 649     -61.107   8.951  -7.635  1.00 54.43 LIG 0.18  C 
ATOM      5  CB  PRO D 649     -60.362   7.624  -7.451  1.00 56.30 LIG 0.04  C 
ATOM      6  CG  PRO D 649     -61.293   6.783  -6.639  1.00 52.90 LIG 0.02  C 
ATOM      7  CD  PRO D 649     -61.932   7.748  -5.678  1.00 52.65 LIG 0.13  C 
ENDROOT
BRANCH 4 8
ATOM      8  C   PRO D 649     -61.838   8.945  -8.983  1.00 62.44 LIG 0.24  C 
ATOM      9  N   ARG D 650     -62.477   7.818  -9.296  1.00 65.13 LIG-0.35  N 
ATOM     10 H    ARG D 650     -62.333   7.067  -8.901  1.00 65.13 LIG 0.16  HD
ATOM     11 O    PRO D 649     -61.820   9.939  -9.707  1.00 64.48 LIG-0.27  OA
BRANCH 9 12
ATOM     12  CA  ARG D 650     -63.492   7.749 -10.351  1.00 68.90 LIG 0.18  C 
BRANCH 12 13
ATOM     13  C   ARG D 650     -64.868   7.572  -9.705  1.00 70.53 LIG 0.24  C 
ATOM     14  N   ARG D 651     -65.238   8.476  -8.803  1.00 72.55 LIG-0.35  N 
ATOM     15 H    ARG D 651     -64.788   9.181  -8.603  1.00 72.55 LIG 0.16  HD
ATOM     16 O    ARG D 650     -65.584   6.617 -10.014  1.00 68.24 LIG-0.27  OA
BRANCH 14 17
ATOM     17  CA  ARG D 651     -66.489   8.310  -8.068  1.00 72.50 LIG 0.16  C 
BRANCH 17 18
ATOM     18  C   ARG D 651     -66.516   6.970  -7.329  1.00 69.52 LIG 0.22  C 
ATOM     19 O    ARG D 651     -65.479   6.468  -6.880  1.00 68.10 LIG-0.29  OA
ENDBRANCH 17 18
BRANCH 17 20
ATOM     20  CB  ARG D 651     -67.714   8.415  -9.001  1.00 76.74 LIG 0.04  C 
BRANCH 20 21
ATOM     21  CG  ARG D 651     -68.391   7.101  -9.532  1.00 75.60 LIG 0.02  C 
BRANCH 21 22
ATOM     22  CD  ARG D 651     -68.867   7.103 -11.010  1.00 74.66 LIG 0.14  C 
BRANCH 22 23
ATOM     23  NE  ARG D 651     -70.322   7.161 -11.196  1.00 75.25 LIG-0.23  N 
ATOM     24 HE   ARG D 651     -70.733   7.837 -10.860  1.00 75.25 LIG 0.18  HD
ATOM     25  CZ  ARG D 651     -71.061   6.259 -11.838  1.00 78.75 LIG 0.67  C 
ATOM     26  NH2 ARG D 651     -72.376   6.427 -11.936  1.00 79.25 LIG-0.23  N 
ATOM     27  NH1 ARG D 651     -70.495   5.205 -12.398  1.00 78.43 LIG-0.23  N 
ATOM     28 2HH2 ARG D 651     -72.854   5.845 -12.350  1.00 79.25 LIG 0.17  HD
ATOM     29 1HH2 ARG D 651     -72.748   7.117 -11.584  1.00 79.25 LIG 0.17  HD
ATOM     30 2HH1 ARG D 651     -70.978   4.626 -12.812  1.00 78.43 LIG 0.17  HD
ATOM     31 1HH1 ARG D 651     -69.644   5.098 -12.349  1.00 78.43 LIG 0.17  HD
ENDBRANCH 22 23
ENDBRANCH 21 22
ENDBRANCH 20 21
ENDBRANCH 17 20
ENDBRANCH 14 17
ENDBRANCH 12 13
BRANCH 12 32
ATOM     32  CB  ARG D 650     -63.204   6.595 -11.323  1.00 66.96 LIG 0.04  C 
BRANCH 32 33
ATOM     33  CG  ARG D 650     -63.013   7.008 -12.781  1.00 73.73 LIG 0.02  C 
BRANCH 33 34
ATOM     34  CD  ARG D 650     -64.205   6.577 -13.646  1.00 75.05 LIG 0.14  C 
BRANCH 34 35
ATOM     35  NE  ARG D 650     -65.372   6.163 -12.884  1.00 81.10 LIG-0.23  N 
ATOM     36 HE   ARG D 650     -65.656   6.687 -12.264  1.00 81.10 LIG 0.18  HD
ATOM     37  CZ  ARG D 650     -66.028   5.023 -13.088  1.00 84.47 LIG 0.67  C 
ATOM     38  NH1 ARG D 650     -65.620   4.180 -14.027  1.00 76.84 LIG-0.23  N 
ATOM     39  NH2 ARG D 650     -67.095   4.716 -12.349  1.00 84.76 LIG-0.23  N 
ATOM     40 1HH1 ARG D 650     -64.931   4.370 -14.506  1.00 76.84 LIG 0.17  HD
ATOM     41 2HH1 ARG D 650     -66.045   3.443 -14.158  1.00 76.84 LIG 0.17  HD
ATOM     42 1HH2 ARG D 650     -67.364   5.256 -11.736  1.00 84.76 LIG 0.17  HD
ATOM     43 2HH2 ARG D 650     -67.514   3.978 -12.486  1.00 84.76 LIG 0.17  HD
ENDBRANCH 34 35
ENDBRANCH 33 34
ENDBRANCH 32 33
ENDBRANCH 12 32
ENDBRANCH 9 12
ENDBRANCH 4 8
BRANCH 1 44
ATOM     44  CA  THR D 648     -63.222  10.122  -4.656  1.00 55.33 LIG 0.20  C 
BRANCH 44 45
ATOM     45  CB  THR D 648     -64.120  11.380  -4.462  1.00 57.91 LIG 0.15  C 
ATOM     46  CG2 THR D 648     -65.609  11.005  -4.487  1.00 54.65 LIG 0.04  C 
BRANCH 45 47
ATOM     47 OG1  THR D 648     -63.810  12.005  -3.206  1.00 51.58 LIG-0.39  OA
ATOM     48 HG1  THR D 648     -62.983  11.954  -3.064  1.00 51.58 LIG 0.21  HD
ENDBRANCH 45 47
ENDBRANCH 44 45
BRANCH 44 49
ATOM     49  N   THR D 648     -62.221  10.011  -3.601  1.00 49.85 LIG-0.34  N 
ATOM     50 H    THR D 648     -61.550  10.541  -3.688  1.00 49.85 LIG 0.16  HD
ATOM     51  C   LEU D 647     -62.364   9.150  -2.600  1.00 48.49 LIG 0.24  C 
ATOM     52 O    LEU D 647     -63.300   8.350  -2.530  1.00 50.57 LIG-0.27  OA
BRANCH 51 53
ATOM     53  CA  LEU D 647     -61.309   9.209  -1.506  1.00 48.52 LIG 0.18  C 
BRANCH 53 54
ATOM     54  CB  LEU D 647     -61.847  10.037  -0.340  1.00 42.08 LIG 0.04  C 
BRANCH 54 55
ATOM     55  CG  LEU D 647     -61.401   9.669   1.076  1.00 43.63 LIG-0.02  C 
ATOM     56  CD1 LEU D 647     -60.116   8.835   1.022  1.00 34.09 LIG 0.01  C 
ATOM     57  CD2 LEU D 647     -61.203  10.917   1.900  1.00 37.87 LIG 0.01  C 
ENDBRANCH 54 55
ENDBRANCH 53 54
BRANCH 53 58
ATOM     58  N   LEU D 647     -60.042   9.759  -1.984  1.00 49.21 LIG-0.35  N 
ATOM     59  C   LEU D 646     -58.958   9.000  -2.136  1.00 51.75 LIG 0.24  C 
ATOM     60 O    LEU D 646     -58.961   7.778  -1.977  1.00 46.22 LIG-0.27  OA
ATOM     61 H    LEU D 647     -60.065  10.601  -2.155  1.00 49.21 LIG 0.16  HD
BRANCH 59 62
ATOM     62  CA  LEU D 646     -57.680   9.722  -2.543  1.00 53.11 LIG 0.18  C 
BRANCH 62 63
ATOM     63  N   LEU D 646     -57.916  10.628  -3.661  1.00 56.32 LIG-0.35  N 
ATOM     64  C   ILE D 645     -58.347  10.177  -4.835  1.00 63.27 LIG 0.26  C 
ATOM     65 O    ILE D 645     -58.543   8.977  -5.062  1.00 63.46 LIG-0.27  OA
ATOM     66 H    LEU D 646     -57.755  11.456  -3.491  1.00 56.32 LIG 0.16  HD
BRANCH 64 67
ATOM     67  CA  ILE D 645     -58.619  11.230  -5.913  1.00 63.54 LIG 0.40  C 
ATOM     68  N   ILE D 645     -59.909  11.894  -5.727  1.00 63.63 LIG 0.61  N 
BRANCH 67 69
ATOM     69  CB  ILE D 645     -57.444  12.225  -5.891  1.00 61.73 LIG 0.03  C 
ATOM     70  CG2 ILE D 645     -56.142  11.500  -6.250  1.00 57.36 LIG 0.01  C 
BRANCH 69 71
ATOM     71  CG1 ILE D 645     -57.703  13.415  -6.823  1.00 65.03 LIG 0.00  C 
ATOM     72  CD1 ILE D 645     -58.268  13.010  -8.178  1.00 60.49 LIG 0.01  C 
ENDBRANCH 69 71
ENDBRANCH 67 69
ENDBRANCH 64 67
ENDBRANCH 62 63
BRANCH 62 73
ATOM     73  CB  LEU D 646     -57.101  10.483  -1.354  1.00 52.76 LIG 0.04  C 
BRANCH 73 74
ATOM     74  CG  LEU D 646     -57.740  11.844  -1.092  1.00 58.95 LIG-0.02  C 
ATOM     75  CD1 LEU D 646     -58.499  11.832   0.237  1.00 55.02 LIG 0.01  C 
ATOM     76  CD2 LEU D 646     -56.669  12.932  -1.109  1.00 54.54 LIG 0.01  C 
ENDBRANCH 73 74
ENDBRANCH 62 73
ENDBRANCH 59 62
ENDBRANCH 53 58
ENDBRANCH 51 53
ENDBRANCH 44 49
ENDBRANCH 1 44
TORSDOF 28
ENDMDL
MODEL 6
USER: ADFR SOLUTION from run 115
USER: SCORE 21.498737 LL:  -4.907 LR: -17.989 RR:   0.000 FEB:  -9.636
USER: RMSD 5.242489
USER: SEED 114
USER: STATUS 1 or 2 clusters left
USER: GENES 30
USER: genes 0 Translation |==|  0.53158 0.52481 0.62122
USER: genes 1 Rotation |==|  0.66646 0.64896 0.85433 0.77304
USER: genes 2 Torsion [N]-CA--C-[N] |==|  0.57822
USER: genes 3 Torsion [C]-N--CA-[CB] |==|  0.18854
USER: genes 4 Torsion [N]-CA--C-[N] |==|  0.04444
USER: genes 5 Torsion [C]-N--CA-[CB] |==|  0.17195
USER: genes 6 Torsion [N]-CA--C-[O] |==|  0.08281
USER: genes 7 Torsion [N]-CA--CB-[CG] |==|  0.66084
USER: genes 8 Torsion [CA]-CB--CG-[CD] |==|  0.09790
USER: genes 9 Torsion [CB]-CG--CD-[NE] |==|  0.75353
USER: genes 10 Torsion [CG]-CD--NE-[HE] |==|  0.01600
USER: genes 11 Torsion [N]-CA--CB-[CG] |==|  0.53724
USER: genes 12 Torsion [CA]-CB--CG-[CD] |==|  0.68797
USER: genes 13 Torsion [CB]-CG--CD-[NE] |==|  0.34022
USER: genes 14 Torsion [CG]-CD--NE-[CZ] |==|  0.42839
USER: genes 15 Torsion [N]-C--CA-[N] |==|  0.23624
USER: genes 16 Torsion [C]-CA--CB-[CG2] |==|  0.48856
USER: genes 17 Torsion [CA]-CB--OG1-[HG1] |==|  0.04719
USER: genes 18 Torsion [C]-CA--N-[C] |==|  0.63136
USER: genes 19 Torsion [N]-C--CA-[N] |==|  0.86218
USER: genes 20 Torsion [C]-CA--CB-[CG] |==|  0.07364
USER: genes 21 Torsion [CA]-CB--CG-[CD1] |==|  0.27460
USER: genes 22 Torsion [C]-CA--N-[C] |==|  0.65245
USER: genes 23 Torsion [N]-C--CA-[N] |==|  0.95839
USER: genes 24 Torsion [C]-CA--N-[C] |==|  0.67309
USER: genes 25 Torsion [N]-C--CA-[N] |==|  0.87525
USER: genes 26 Torsion [C]-CA--CB-[CG2] |==|  0.68614
USER: genes 27 Torsion [CA]-CB--CG1-[CD1] |==|  0.59948
USER: genes 28 Torsion [C]-CA--CB-[CG] |==|  0.93944
USER: genes 29 Torsion [CA]-CB--CG-[CD1] |==|  0.47225
ROOT
ATOM      1  C   THR D 648     -62.213   9.236  -3.827  1.00 57.47 LIG 0.24  C 
ATOM      2 O    THR D 648     -62.988  10.187  -3.945  1.00 58.33 LIG-0.27  OA
ATOM      3  N   PRO D 649     -61.874   8.444  -4.858  1.00 55.77 LIG-0.34  N 
ATOM      4  CA  PRO D 649     -62.297   8.725  -6.238  1.00 54.43 LIG 0.18  C 
ATOM      5  CB  PRO D 649     -61.333   7.868  -7.067  1.00 56.30 LIG 0.04  C 
ATOM      6  CG  PRO D 649     -60.981   6.727  -6.168  1.00 52.90 LIG 0.02  C 
ATOM      7  CD  PRO D 649     -60.895   7.339  -4.797  1.00 52.65 LIG 0.13  C 
ENDROOT
BRANCH 4 8
ATOM      8  C   PRO D 649     -63.743   8.356  -6.592  1.00 62.44 LIG 0.24  C 
ATOM      9  N   ARG D 650     -63.972   8.050  -7.869  1.00 65.13 LIG-0.35  N 
ATOM     10 H    ARG D 650     -63.427   8.241  -8.506  1.00 65.13 LIG 0.16  HD
ATOM     11 O    PRO D 649     -64.615   8.351  -5.724  1.00 64.48 LIG-0.27  OA
BRANCH 9 12
ATOM     12  CA  ARG D 650     -65.183   7.355  -8.312  1.00 68.90 LIG 0.18  C 
BRANCH 12 13
ATOM     13  C   ARG D 650     -65.015   6.948  -9.777  1.00 70.53 LIG 0.24  C 
ATOM     14  N   ARG D 651     -63.784   6.969 -10.278  1.00 72.55 LIG-0.35  N 
ATOM     15 H    ARG D 651     -63.072   7.134  -9.823  1.00 72.55 LIG 0.16  HD
ATOM     16 O    ARG D 650     -65.996   6.630 -10.453  1.00 68.24 LIG-0.27  OA
BRANCH 14 17
ATOM     17  CA  ARG D 651     -63.563   6.699 -11.696  1.00 72.50 LIG 0.16  C 
BRANCH 17 18
ATOM     18  C   ARG D 651     -62.068   6.665 -12.020  1.00 69.52 LIG 0.22  C 
ATOM     19 O    ARG D 651     -61.239   6.307 -11.175  1.00 68.10 LIG-0.29  OA
ENDBRANCH 17 18
BRANCH 17 20
ATOM     20  CB  ARG D 651     -64.266   7.745 -12.588  1.00 76.74 LIG 0.04  C 
BRANCH 20 21
ATOM     21  CG  ARG D 651     -65.320   7.265 -13.649  1.00 75.60 LIG 0.02  C 
BRANCH 21 22
ATOM     22  CD  ARG D 651     -66.208   6.052 -13.260  1.00 74.66 LIG 0.14  C 
BRANCH 22 23
ATOM     23  NE  ARG D 651     -65.650   4.737 -13.598  1.00 75.25 LIG-0.23  N 
ATOM     24 HE   ARG D 651     -64.850   4.720 -13.913  1.00 75.25 LIG 0.18  HD
ATOM     25  CZ  ARG D 651     -66.273   3.568 -13.460  1.00 78.75 LIG 0.67  C 
ATOM     26  NH2 ARG D 651     -65.656   2.443 -13.806  1.00 79.25 LIG-0.23  N 
ATOM     27  NH1 ARG D 651     -67.495   3.515 -12.963  1.00 78.43 LIG-0.23  N 
ATOM     28 2HH2 ARG D 651     -66.057   1.688 -13.718  1.00 79.25 LIG 0.17  HD
ATOM     29 1HH2 ARG D 651     -64.856   2.471 -14.119  1.00 79.25 LIG 0.17  HD
ATOM     30 2HH1 ARG D 651     -67.892   2.757 -12.876  1.00 78.43 LIG 0.17  HD
ATOM     31 1HH1 ARG D 651     -67.894   4.239 -12.725  1.00 78.43 LIG 0.17  HD
ENDBRANCH 22 23
ENDBRANCH 21 22
ENDBRANCH 20 21
ENDBRANCH 17 20
ENDBRANCH 14 17
ENDBRANCH 12 13
BRANCH 12 32
ATOM     32  CB  ARG D 650     -66.426   8.241  -8.141  1.00 66.96 LIG 0.04  C 
BRANCH 32 33
ATOM     33  CG  ARG D 650     -67.763   7.514  -8.266  1.00 73.73 LIG 0.02  C 
BRANCH 33 34
ATOM     34  CD  ARG D 650     -68.525   7.955  -9.525  1.00 75.05 LIG 0.14  C 
BRANCH 34 35
ATOM     35  NE  ARG D 650     -68.852   6.866 -10.431  1.00 81.10 LIG-0.23  N 
ATOM     36 HE   ARG D 650     -68.354   6.165 -10.417  1.00 81.10 LIG 0.18  HD
ATOM     37  CZ  ARG D 650     -69.876   6.888 -11.281  1.00 84.47 LIG 0.67  C 
ATOM     38  NH1 ARG D 650     -70.666   7.952 -11.344  1.00 76.84 LIG-0.23  N 
ATOM     39  NH2 ARG D 650     -70.116   5.845 -12.078  1.00 84.76 LIG-0.23  N 
ATOM     40 1HH1 ARG D 650     -70.516   8.629 -10.835  1.00 76.84 LIG 0.17  HD
ATOM     41 2HH1 ARG D 650     -71.328   7.965 -11.894  1.00 76.84 LIG 0.17  HD
ATOM     42 1HH2 ARG D 650     -69.608   5.152 -12.044  1.00 84.76 LIG 0.17  HD
ATOM     43 2HH2 ARG D 650     -70.779   5.866 -12.624  1.00 84.76 LIG 0.17  HD
ENDBRANCH 34 35
ENDBRANCH 33 34
ENDBRANCH 32 33
ENDBRANCH 12 32
ENDBRANCH 9 12
ENDBRANCH 4 8
BRANCH 1 44
ATOM     44  CA  THR D 648     -61.559   8.931  -2.479  1.00 55.33 LIG 0.20  C 
BRANCH 44 45
ATOM     45  CB  THR D 648     -62.481   9.369  -1.302  1.00 57.91 LIG 0.15  C 
ATOM     46  CG2 THR D 648     -61.875   8.973   0.051  1.00 54.65 LIG 0.04  C 
BRANCH 45 47
ATOM     47 OG1  THR D 648     -62.667  10.793  -1.340  1.00 51.58 LIG-0.39  OA
ATOM     48 HG1  THR D 648     -62.448  11.085  -2.097  1.00 51.58 LIG 0.21  HD
ENDBRANCH 45 47
ENDBRANCH 44 45
BRANCH 44 49
ATOM     49  N   THR D 648     -60.261   9.593  -2.417  1.00 49.85 LIG-0.34  N 
ATOM     50 H    THR D 648     -60.269  10.417  -2.664  1.00 49.85 LIG 0.16  HD
ATOM     51  C   LEU D 647     -59.173   8.949  -2.010  1.00 48.49 LIG 0.24  C 
ATOM     52 O    LEU D 647     -59.170   7.750  -1.726  1.00 50.57 LIG-0.27  OA
BRANCH 51 53
ATOM     53  CA  LEU D 647     -57.906   9.780  -1.885  1.00 48.52 LIG 0.18  C 
BRANCH 53 54
ATOM     54  CB  LEU D 647     -58.021  10.681  -0.656  1.00 42.08 LIG 0.04  C 
BRANCH 54 55
ATOM     55  CG  LEU D 647     -58.919  10.226   0.494  1.00 43.63 LIG-0.02  C 
ATOM     56  CD1 LEU D 647     -58.073   9.580   1.598  1.00 34.09 LIG 0.01  C 
ATOM     57  CD2 LEU D 647     -59.711  11.392   1.030  1.00 37.87 LIG 0.01  C 
ENDBRANCH 54 55
ENDBRANCH 53 54
BRANCH 53 58
ATOM     58  N   LEU D 647     -57.644  10.578  -3.082  1.00 49.21 LIG-0.35  N 
ATOM     59  C   LEU D 646     -56.487  10.503  -3.738  1.00 51.75 LIG 0.24  C 
ATOM     60 O    LEU D 646     -55.597   9.702  -3.448  1.00 46.22 LIG-0.27  OA
ATOM     61 H    LEU D 647     -58.295  11.088  -3.316  1.00 49.21 LIG 0.16  HD
BRANCH 59 62
ATOM     62  CA  LEU D 646     -56.310  11.463  -4.907  1.00 53.11 LIG 0.18  C 
BRANCH 62 63
ATOM     63  N   LEU D 646     -57.583  12.050  -5.309  1.00 56.32 LIG-0.35  N 
ATOM     64  C   ILE D 645     -58.085  11.843  -6.522  1.00 63.27 LIG 0.26  C 
ATOM     65 O    ILE D 645     -57.502  11.176  -7.385  1.00 63.46 LIG-0.27  OA
ATOM     66 H    LEU D 646     -57.964  12.527  -4.703  1.00 56.32 LIG 0.16  HD
BRANCH 64 67
ATOM     67  CA  ILE D 645     -59.458  12.458  -6.807  1.00 63.54 LIG 0.40  C 
ATOM     68  N   ILE D 645     -60.402  12.241  -5.712  1.00 63.63 LIG 0.61  N 
BRANCH 67 69
ATOM     69  CB  ILE D 645     -59.240  13.955  -7.100  1.00 61.73 LIG 0.03  C 
ATOM     70  CG2 ILE D 645     -59.865  14.800  -5.985  1.00 57.36 LIG 0.01  C 
BRANCH 69 71
ATOM     71  CG1 ILE D 645     -57.752  14.275  -7.285  1.00 65.03 LIG 0.00  C 
ATOM     72  CD1 ILE D 645     -57.353  15.638  -6.734  1.00 60.49 LIG 0.01  C 
ENDBRANCH 69 71
ENDBRANCH 67 69
ENDBRANCH 64 67
ENDBRANCH 62 63
BRANCH 62 73
ATOM     73  CB  LEU D 646     -55.310  12.557  -4.545  1.00 52.76 LIG 0.04  C 
BRANCH 73 74
ATOM     74  CG  LEU D 646     -55.122  12.783  -3.048  1.00 58.95 LIG-0.02  C 
ATOM     75  CD1 LEU D 646     -53.933  13.713  -2.793  1.00 55.02 LIG 0.01  C 
ATOM     76  CD2 LEU D 646     -56.405  13.345  -2.442  1.00 54.54 LIG 0.01  C 
ENDBRANCH 73 74
ENDBRANCH 62 73
ENDBRANCH 59 62
ENDBRANCH 53 58
ENDBRANCH 51 53
ENDBRANCH 44 49
ENDBRANCH 1 44
TORSDOF 28
ENDMDL
MODEL 7
USER: ADFR SOLUTION from run 70
USER: SCORE 21.958442 LL:  -5.110 LR: -17.945 RR:   0.000 FEB:  -9.592
USER: RMSD 6.849200
USER: SEED 69
USER: STATUS no improvement in best in 3 clusters for 5 generations
USER: GENES 30
USER: genes 0 Translation |==|  0.49481 0.46811 0.56442
USER: genes 1 Rotation |==|  0.48022 0.45467 0.03375 0.67367
USER: genes 2 Torsion [N]-CA--C-[N] |==|  0.24757
USER: genes 3 Torsion [C]-N--CA-[CB] |==|  0.80919
USER: genes 4 Torsion [N]-CA--C-[N] |==|  0.13990
USER: genes 5 Torsion [C]-N--CA-[CB] |==|  0.47381
USER: genes 6 Torsion [N]-CA--C-[O] |==|  0.84717
USER: genes 7 Torsion [N]-CA--CB-[CG] |==|  0.46996
USER: genes 8 Torsion [CA]-CB--CG-[CD] |==|  0.50768
USER: genes 9 Torsion [CB]-CG--CD-[NE] |==|  0.37770
USER: genes 10 Torsion [CG]-CD--NE-[HE] |==|  0.13478
USER: genes 11 Torsion [N]-CA--CB-[CG] |==|  0.55375
USER: genes 12 Torsion [CA]-CB--CG-[CD] |==|  0.16523
USER: genes 13 Torsion [CB]-CG--CD-[NE] |==|  0.59392
USER: genes 14 Torsion [CG]-CD--NE-[CZ] |==|  0.56290
USER: genes 15 Torsion [N]-C--CA-[N] |==|  0.86268
USER: genes 16 Torsion [C]-CA--CB-[CG2] |==|  0.33174
USER: genes 17 Torsion [CA]-CB--OG1-[HG1] |==|  0.23232
USER: genes 18 Torsion [C]-CA--N-[C] |==|  0.76810
USER: genes 19 Torsion [N]-C--CA-[N] |==|  0.10511
USER: genes 20 Torsion [C]-CA--CB-[CG] |==|  0.45788
USER: genes 21 Torsion [CA]-CB--CG-[CD1] |==|  0.11212
USER: genes 22 Torsion [C]-CA--N-[C] |==|  0.16361
USER: genes 23 Torsion [N]-C--CA-[N] |==|  0.00805
USER: genes 24 Torsion [C]-CA--N-[C] |==|  0.72222
USER: genes 25 Torsion [N]-C--CA-[N] |==|  0.25431
USER: genes 26 Torsion [C]-CA--CB-[CG2] |==|  0.30970
USER: genes 27 Torsion [CA]-CB--CG1-[CD1] |==|  0.41836
USER: genes 28 Torsion [C]-CA--CB-[CG] |==|  0.43410
USER: genes 29 Torsion [CA]-CB--CG-[CD1] |==|  0.90888
ROOT
ATOM      1  C   THR D 648     -63.123   8.343  -5.361  1.00 57.47 LIG 0.24  C 
ATOM      2 O    THR D 648     -63.832   7.444  -5.818  1.00 58.33 LIG-0.27  OA
ATOM      3  N   PRO D 649     -62.927   9.509  -5.999  1.00 55.77 LIG-0.34  N 
ATOM      4  CA  PRO D 649     -63.643   9.859  -7.235  1.00 54.43 LIG 0.18  C 
ATOM      5  CB  PRO D 649     -63.450  11.377  -7.317  1.00 56.30 LIG 0.04  C 
ATOM      6  CG  PRO D 649     -62.156  11.628  -6.612  1.00 52.90 LIG 0.02  C 
ATOM      7  CD  PRO D 649     -62.153  10.649  -5.470  1.00 52.65 LIG 0.13  C 
ENDROOT
BRANCH 4 8
ATOM      8  C   PRO D 649     -63.130   9.208  -8.524  1.00 62.44 LIG 0.24  C 
ATOM      9  N   ARG D 650     -63.665   8.028  -8.837  1.00 65.13 LIG-0.35  N 
ATOM     10 H    ARG D 650     -64.103   7.544  -8.277  1.00 65.13 LIG 0.16  HD
ATOM     11 O    PRO D 649     -62.275   9.769  -9.209  1.00 64.48 LIG-0.27  OA
BRANCH 9 12
ATOM     12  CA  ARG D 650     -63.557   7.437 -10.174  1.00 68.90 LIG 0.18  C 
BRANCH 12 13
ATOM     13  C   ARG D 650     -62.083   7.395 -10.581  1.00 70.53 LIG 0.24  C 
ATOM     14  N   ARG D 651     -61.226   6.866  -9.714  1.00 72.55 LIG-0.35  N 
ATOM     15 H    ARG D 651     -61.448   6.492  -8.971  1.00 72.55 LIG 0.16  HD
ATOM     16 O    ARG D 650     -61.722   7.851 -11.669  1.00 68.24 LIG-0.27  OA
BRANCH 14 17
ATOM     17  CA  ARG D 651     -59.791   6.892  -9.988  1.00 72.50 LIG 0.16  C 
BRANCH 17 18
ATOM     18  C   ARG D 651     -59.449   6.011 -11.192  1.00 69.52 LIG 0.22  C 
ATOM     19 O    ARG D 651     -59.778   4.820 -11.225  1.00 68.10 LIG-0.29  OA
ENDBRANCH 17 18
BRANCH 17 20
ATOM     20  CB  ARG D 651     -58.970   6.442  -8.762  1.00 76.74 LIG 0.04  C 
BRANCH 20 21
ATOM     21  CG  ARG D 651     -57.435   6.156  -8.928  1.00 75.60 LIG 0.02  C 
BRANCH 21 22
ATOM     22  CD  ARG D 651     -56.675   5.643  -7.674  1.00 74.66 LIG 0.14  C 
BRANCH 22 23
ATOM     23  NE  ARG D 651     -55.748   4.531  -7.918  1.00 75.25 LIG-0.23  N 
ATOM     24 HE   ARG D 651     -55.203   4.614  -8.578  1.00 75.25 LIG 0.18  HD
ATOM     25  CZ  ARG D 651     -55.678   3.407  -7.209  1.00 78.75 LIG 0.67  C 
ATOM     26  NH2 ARG D 651     -54.792   2.472  -7.535  1.00 79.25 LIG-0.23  N 
ATOM     27  NH1 ARG D 651     -56.470   3.220  -6.169  1.00 78.43 LIG-0.23  N 
ATOM     28 2HH2 ARG D 651     -54.745   1.745  -7.078  1.00 79.25 LIG 0.17  HD
ATOM     29 1HH2 ARG D 651     -54.265   2.593  -8.204  1.00 79.25 LIG 0.17  HD
ATOM     30 2HH1 ARG D 651     -56.419   2.492  -5.715  1.00 78.43 LIG 0.17  HD
ATOM     31 1HH1 ARG D 651     -57.036   3.827  -5.946  1.00 78.43 LIG 0.17  HD
ENDBRANCH 22 23
ENDBRANCH 21 22
ENDBRANCH 20 21
ENDBRANCH 17 20
ENDBRANCH 14 17
ENDBRANCH 12 13
BRANCH 12 32
ATOM     32  CB  ARG D 650     -64.374   8.236 -11.200  1.00 66.96 LIG 0.04  C 
BRANCH 32 33
ATOM     33  CG  ARG D 650     -64.713   7.484 -12.486  1.00 73.73 LIG 0.02  C 
BRANCH 33 34
ATOM     34  CD  ARG D 650     -65.528   6.216 -12.195  1.00 75.05 LIG 0.14  C 
BRANCH 34 35
ATOM     35  NE  ARG D 650     -65.250   5.113 -13.100  1.00 81.10 LIG-0.23  N 
ATOM     36 HE   ARG D 650     -64.495   5.108 -13.512  1.00 81.10 LIG 0.18  HD
ATOM     37  CZ  ARG D 650     -66.093   4.108 -13.331  1.00 84.47 LIG 0.67  C 
ATOM     38  NH1 ARG D 650     -67.273   4.079 -12.725  1.00 76.84 LIG-0.23  N 
ATOM     39  NH2 ARG D 650     -65.763   3.128 -14.173  1.00 84.76 LIG-0.23  N 
ATOM     40 1HH1 ARG D 650     -67.494   4.708 -12.183  1.00 76.84 LIG 0.17  HD
ATOM     41 2HH1 ARG D 650     -67.818   3.429 -12.875  1.00 76.84 LIG 0.17  HD
ATOM     42 1HH2 ARG D 650     -65.000   3.141 -14.571  1.00 84.76 LIG 0.17  HD
ATOM     43 2HH2 ARG D 650     -66.312   2.482 -14.317  1.00 84.76 LIG 0.17  HD
ENDBRANCH 34 35
ENDBRANCH 33 34
ENDBRANCH 32 33
ENDBRANCH 12 32
ENDBRANCH 9 12
ENDBRANCH 4 8
BRANCH 1 44
ATOM     44  CA  THR D 648     -62.452   8.182  -3.996  1.00 55.33 LIG 0.20  C 
BRANCH 44 45
ATOM     45  CB  THR D 648     -63.185   9.028  -2.913  1.00 57.91 LIG 0.15  C 
ATOM     46  CG2 THR D 648     -63.733   8.135  -1.791  1.00 54.65 LIG 0.04  C 
BRANCH 45 47
ATOM     47 OG1  THR D 648     -62.275   9.989  -2.353  1.00 51.58 LIG-0.39  OA
ATOM     48 HG1  THR D 648     -62.245  10.668  -2.847  1.00 51.58 LIG 0.21  HD
ENDBRANCH 45 47
ENDBRANCH 44 45
BRANCH 44 49
ATOM     49  N   THR D 648     -61.047   8.558  -4.108  1.00 49.85 LIG-0.34  N 
ATOM     50 H    THR D 648     -60.874   9.368  -3.873  1.00 49.85 LIG 0.16  HD
ATOM     51  C   LEU D 647     -60.132   7.698  -4.541  1.00 48.49 LIG 0.24  C 
ATOM     52 O    LEU D 647     -60.411   6.565  -4.937  1.00 50.57 LIG-0.27  OA
BRANCH 51 53
ATOM     53  CA  LEU D 647     -58.690   8.176  -4.506  1.00 48.52 LIG 0.18  C 
BRANCH 53 54
ATOM     54  CB  LEU D 647     -57.762   6.962  -4.564  1.00 42.08 LIG 0.04  C 
BRANCH 54 55
ATOM     55  CG  LEU D 647     -56.287   7.193  -4.894  1.00 43.63 LIG-0.02  C 
ATOM     56  CD1 LEU D 647     -55.779   8.452  -4.180  1.00 34.09 LIG 0.01  C 
ATOM     57  CD2 LEU D 647     -55.471   5.985  -4.508  1.00 37.87 LIG 0.01  C 
ENDBRANCH 54 55
ENDBRANCH 53 54
BRANCH 53 58
ATOM     58  N   LEU D 647     -58.400   8.986  -3.325  1.00 49.21 LIG-0.35  N 
ATOM     59  C   LEU D 646     -58.560   8.513  -2.090  1.00 51.75 LIG 0.24  C 
ATOM     60 O    LEU D 646     -58.870   7.345  -1.849  1.00 46.22 LIG-0.27  OA
ATOM     61 H    LEU D 647     -58.122   9.781  -3.501  1.00 49.21 LIG 0.16  HD
BRANCH 59 62
ATOM     62  CA  LEU D 646     -58.319   9.497  -0.953  1.00 53.11 LIG 0.18  C 
BRANCH 62 63
ATOM     63  N   LEU D 646     -58.014  10.830  -1.460  1.00 56.32 LIG-0.35  N 
ATOM     64  C   ILE D 645     -56.762  11.272  -1.526  1.00 63.27 LIG 0.26  C 
ATOM     65 O    ILE D 645     -55.793  10.605  -1.140  1.00 63.46 LIG-0.27  OA
ATOM     66 H    LEU D 646     -58.700  11.285  -1.705  1.00 56.32 LIG 0.16  HD
BRANCH 64 67
ATOM     67  CA  ILE D 645     -56.560  12.662  -2.136  1.00 63.54 LIG 0.40  C 
ATOM     68  N   ILE D 645     -56.582  13.720  -1.127  1.00 63.63 LIG 0.61  N 
BRANCH 67 69
ATOM     69  CB  ILE D 645     -55.233  12.632  -2.918  1.00 61.73 LIG 0.03  C 
ATOM     70  CG2 ILE D 645     -55.513  12.740  -4.421  1.00 57.36 LIG 0.01  C 
BRANCH 69 71
ATOM     71  CG1 ILE D 645     -54.280  13.734  -2.441  1.00 65.03 LIG 0.00  C 
ATOM     72  CD1 ILE D 645     -52.809  13.372  -2.601  1.00 60.49 LIG 0.01  C 
ENDBRANCH 69 71
ENDBRANCH 67 69
ENDBRANCH 64 67
ENDBRANCH 62 63
BRANCH 62 73
ATOM     73  CB  LEU D 646     -59.533   9.545  -0.029  1.00 52.76 LIG 0.04  C 
BRANCH 73 74
ATOM     74  CG  LEU D 646     -59.238  10.014   1.393  1.00 58.95 LIG-0.02  C 
ATOM     75  CD1 LEU D 646     -57.836   9.574   1.821  1.00 55.02 LIG 0.01  C 
ATOM     76  CD2 LEU D 646     -59.395  11.530   1.482  1.00 54.54 LIG 0.01  C 
ENDBRANCH 73 74
ENDBRANCH 62 73
ENDBRANCH 59 62
ENDBRANCH 53 58
ENDBRANCH 51 53
ENDBRANCH 44 49
ENDBRANCH 1 44
TORSDOF 28
ENDMDL
MODEL 8
USER: ADFR SOLUTION from run 77
USER: SCORE 22.270957 LL:  -5.636 LR: -17.877 RR:   0.000 FEB:  -9.525
USER: RMSD 4.968334
USER: SEED 76
USER: STATUS no improvement in best in 6 clusters for 5 generations
USER: GENES 30
USER: genes 0 Translation |==|  0.44867 0.50755 0.60947
USER: genes 1 Rotation |==|  0.34964 0.42277 0.31946 0.93455
USER: genes 2 Torsion [N]-CA--C-[N] |==|  0.72145
USER: genes 3 Torsion [C]-N--CA-[CB] |==|  0.54113
USER: genes 4 Torsion [N]-CA--C-[N] |==|  0.36385
USER: genes 5 Torsion [C]-N--CA-[CB] |==|  0.51766
USER: genes 6 Torsion [N]-CA--C-[O] |==|  0.83601
USER: genes 7 Torsion [N]-CA--CB-[CG] |==|  0.79037
USER: genes 8 Torsion [CA]-CB--CG-[CD] |==|  0.82202
USER: genes 9 Torsion [CB]-CG--CD-[NE] |==|  0.79999
USER: genes 10 Torsion [CG]-CD--NE-[HE] |==|  0.33549
USER: genes 11 Torsion [N]-CA--CB-[CG] |==|  0.51229
USER: genes 12 Torsion [CA]-CB--CG-[CD] |==|  0.22979
USER: genes 13 Torsion [CB]-CG--CD-[NE] |==|  0.63982
USER: genes 14 Torsion [CG]-CD--NE-[CZ] |==|  0.52162
USER: genes 15 Torsion [N]-C--CA-[N] |==|  0.43876
USER: genes 16 Torsion [C]-CA--CB-[CG2] |==|  0.37956
USER: genes 17 Torsion [CA]-CB--OG1-[HG1] |==|  0.85956
USER: genes 18 Torsion [C]-CA--N-[C] |==|  0.82757
USER: genes 19 Torsion [N]-C--CA-[N] |==|  0.94083
USER: genes 20 Torsion [C]-CA--CB-[CG] |==|  0.47623
USER: genes 21 Torsion [CA]-CB--CG-[CD1] |==|  0.30877
USER: genes 22 Torsion [C]-CA--N-[C] |==|  0.68890
USER: genes 23 Torsion [N]-C--CA-[N] |==|  0.84367
USER: genes 24 Torsion [C]-CA--N-[C] |==|  0.86991
USER: genes 25 Torsion [N]-C--CA-[N] |==|  0.10754
USER: genes 26 Torsion [C]-CA--CB-[CG2] |==|  0.84983
USER: genes 27 Torsion [CA]-CB--CG1-[CD1] |==|  0.60715
USER: genes 28 Torsion [C]-CA--CB-[CG] |==|  0.22265
USER: genes 29 Torsion [CA]-CB--CG-[CD1] |==|  0.77773
ROOT
ATOM      1  C   THR D 648     -64.266   8.964  -4.144  1.00 57.47 LIG 0.24  C 
ATOM      2 O    THR D 648     -63.408   8.078  -4.180  1.00 58.33 LIG-0.27  OA
ATOM      3  N   PRO D 649     -65.521   8.777  -4.586  1.00 55.77 LIG-0.34  N 
ATOM      4  CA  PRO D 649     -66.011   7.464  -5.030  1.00 54.43 LIG 0.18  C 
ATOM      5  CB  PRO D 649     -67.533   7.643  -4.993  1.00 56.30 LIG 0.04  C 
ATOM      6  CG  PRO D 649     -67.744   9.103  -5.230  1.00 52.90 LIG 0.02  C 
ATOM      7  CD  PRO D 649     -66.610   9.771  -4.501  1.00 52.65 LIG 0.13  C 
ENDROOT
BRANCH 4 8
ATOM      8  C   PRO D 649     -65.582   7.018  -6.433  1.00 62.44 LIG 0.24  C 
ATOM      9  N   ARG D 650     -66.487   7.178  -7.399  1.00 65.13 LIG-0.35  N 
ATOM     10 H    ARG D 650     -67.322   7.314  -7.247  1.00 65.13 LIG 0.16  HD
ATOM     11 O    PRO D 649     -64.461   6.548  -6.623  1.00 64.48 LIG-0.27  OA
BRANCH 9 12
ATOM     12  CA  ARG D 650     -66.142   7.136  -8.823  1.00 68.90 LIG 0.18  C 
BRANCH 12 13
ATOM     13  C   ARG D 650     -64.854   7.931  -9.046  1.00 70.53 LIG 0.24  C 
ATOM     14  N   ARG D 651     -63.893   7.346  -9.755  1.00 72.55 LIG-0.35  N 
ATOM     15 H    ARG D 651     -63.967   6.583 -10.145  1.00 72.55 LIG 0.16  HD
ATOM     16 O    ARG D 650     -64.727   9.061  -8.570  1.00 68.24 LIG-0.27  OA
BRANCH 14 17
ATOM     17  CA  ARG D 651     -62.597   8.000  -9.914  1.00 72.50 LIG 0.16  C 
BRANCH 17 18
ATOM     18  C   ARG D 651     -62.768   9.443 -10.393  1.00 69.52 LIG 0.22  C 
ATOM     19 O    ARG D 651     -63.344   9.700 -11.456  1.00 68.10 LIG-0.29  OA
ENDBRANCH 17 18
BRANCH 17 20
ATOM     20  CB  ARG D 651     -61.689   7.229 -10.896  1.00 76.74 LIG 0.04  C 
BRANCH 20 21
ATOM     21  CG  ARG D 651     -61.001   5.899 -10.424  1.00 75.60 LIG 0.02  C 
BRANCH 21 22
ATOM     22  CD  ARG D 651     -59.969   6.013  -9.269  1.00 74.66 LIG 0.14  C 
BRANCH 22 23
ATOM     23  NE  ARG D 651     -58.693   6.641  -9.634  1.00 75.25 LIG-0.23  N 
ATOM     24 HE   ARG D 651     -58.469   7.351  -9.203  1.00 75.25 LIG 0.18  HD
ATOM     25  CZ  ARG D 651     -57.852   6.209 -10.572  1.00 78.75 LIG 0.67  C 
ATOM     26  NH2 ARG D 651     -56.725   6.873 -10.808  1.00 79.25 LIG-0.23  N 
ATOM     27  NH1 ARG D 651     -58.120   5.114 -11.258  1.00 78.43 LIG-0.23  N 
ATOM     28 2HH2 ARG D 651     -56.181   6.595 -11.413  1.00 79.25 LIG 0.17  HD
ATOM     29 1HH2 ARG D 651     -56.540   7.580 -10.355  1.00 79.25 LIG 0.17  HD
ATOM     30 2HH1 ARG D 651     -57.573   4.840 -11.862  1.00 78.43 LIG 0.17  HD
ATOM     31 1HH1 ARG D 651     -58.842   4.674 -11.101  1.00 78.43 LIG 0.17  HD
ENDBRANCH 22 23
ENDBRANCH 21 22
ENDBRANCH 20 21
ENDBRANCH 17 20
ENDBRANCH 14 17
ENDBRANCH 12 13
BRANCH 12 32
ATOM     32  CB  ARG D 650     -67.279   7.704  -9.685  1.00 66.96 LIG 0.04  C 
BRANCH 32 33
ATOM     33  CG  ARG D 650     -67.060   7.606 -11.193  1.00 73.73 LIG 0.02  C 
BRANCH 33 34
ATOM     34  CD  ARG D 650     -67.446   6.220 -11.728  1.00 75.05 LIG 0.14  C 
BRANCH 34 35
ATOM     35  NE  ARG D 650     -66.427   5.599 -12.557  1.00 81.10 LIG-0.23  N 
ATOM     36 HE   ARG D 650     -65.659   5.983 -12.609  1.00 81.10 LIG 0.18  HD
ATOM     37  CZ  ARG D 650     -66.608   4.472 -13.242  1.00 84.47 LIG 0.67  C 
ATOM     38  NH1 ARG D 650     -67.779   3.850 -13.200  1.00 76.84 LIG-0.23  N 
ATOM     39  NH2 ARG D 650     -65.620   3.961 -13.978  1.00 84.76 LIG-0.23  N 
ATOM     40 1HH1 ARG D 650     -68.422   4.174 -12.729  1.00 76.84 LIG 0.17  HD
ATOM     41 2HH1 ARG D 650     -67.896   3.121 -13.643  1.00 76.84 LIG 0.17  HD
ATOM     42 1HH2 ARG D 650     -64.859   4.360 -14.012  1.00 84.76 LIG 0.17  HD
ATOM     43 2HH2 ARG D 650     -65.744   3.232 -14.417  1.00 84.76 LIG 0.17  HD
ENDBRANCH 34 35
ENDBRANCH 33 34
ENDBRANCH 32 33
ENDBRANCH 12 32
ENDBRANCH 9 12
ENDBRANCH 4 8
BRANCH 1 44
ATOM     44  CA  THR D 648     -63.942  10.334  -3.546  1.00 55.33 LIG 0.20  C 
BRANCH 44 45
ATOM     45  CB  THR D 648     -63.706  11.388  -4.667  1.00 57.91 LIG 0.15  C 
ATOM     46  CG2 THR D 648     -64.404  12.714  -4.335  1.00 54.65 LIG 0.04  C 
BRANCH 45 47
ATOM     47 OG1  THR D 648     -62.296  11.620  -4.822  1.00 51.58 LIG-0.39  OA
ATOM     48 HG1  THR D 648     -61.954  11.781  -4.071  1.00 51.58 LIG 0.21  HD
ENDBRANCH 45 47
ENDBRANCH 44 45
BRANCH 44 49
ATOM     49  N   THR D 648     -62.779  10.211  -2.673  1.00 49.85 LIG-0.34  N 
ATOM     50 H    THR D 648     -62.098  10.674  -2.919  1.00 49.85 LIG 0.16  HD
ATOM     51  C   LEU D 647     -62.803   9.438  -1.593  1.00 48.49 LIG 0.24  C 
ATOM     52 O    LEU D 647     -63.767   8.728  -1.296  1.00 50.57 LIG-0.27  OA
BRANCH 51 53
ATOM     53  CA  LEU D 647     -61.569   9.482  -0.707  1.00 48.52 LIG 0.18  C 
BRANCH 53 54
ATOM     54  CB  LEU D 647     -61.860  10.363   0.508  1.00 42.08 LIG 0.04  C 
BRANCH 54 55
ATOM     55  CG  LEU D 647     -60.833  10.396   1.640  1.00 43.63 LIG-0.02  C 
ATOM     56  CD1 LEU D 647     -60.155  11.771   1.695  1.00 34.09 LIG 0.01  C 
ATOM     57  CD2 LEU D 647     -61.495  10.065   2.954  1.00 37.87 LIG 0.01  C 
ENDBRANCH 54 55
ENDBRANCH 53 54
BRANCH 53 58
ATOM     58  N   LEU D 647     -60.389   9.966  -1.420  1.00 49.21 LIG-0.35  N 
ATOM     59  C   LEU D 646     -59.354   9.172  -1.691  1.00 51.75 LIG 0.24  C 
ATOM     60 O    LEU D 646     -59.348   7.964  -1.447  1.00 46.22 LIG-0.27  OA
ATOM     61 H    LEU D 647     -60.427  10.796  -1.644  1.00 49.21 LIG 0.16  HD
BRANCH 59 62
ATOM     62  CA  LEU D 646     -58.149   9.832  -2.348  1.00 53.11 LIG 0.18  C 
BRANCH 62 63
ATOM     63  N   LEU D 646     -58.523  10.505  -3.587  1.00 56.32 LIG-0.35  N 
ATOM     64  C   ILE D 645     -59.288   9.904  -4.494  1.00 63.27 LIG 0.26  C 
ATOM     65 O    ILE D 645     -59.701   8.745  -4.362  1.00 63.46 LIG-0.27  OA
ATOM     66 H    LEU D 646     -58.211  11.302  -3.670  1.00 56.32 LIG 0.16  HD
BRANCH 64 67
ATOM     67  CA  ILE D 645     -59.667  10.733  -5.724  1.00 63.54 LIG 0.40  C 
ATOM     68  N   ILE D 645     -58.564  11.573  -6.189  1.00 63.63 LIG 0.61  N 
BRANCH 67 69
ATOM     69  CB  ILE D 645     -60.148   9.751  -6.809  1.00 61.73 LIG 0.03  C 
ATOM     70  CG2 ILE D 645     -59.082   8.677  -7.049  1.00 57.36 LIG 0.01  C 
BRANCH 69 71
ATOM     71  CG1 ILE D 645     -61.501   9.131  -6.439  1.00 65.03 LIG 0.00  C 
ATOM     72  CD1 ILE D 645     -61.615   7.660  -6.815  1.00 60.49 LIG 0.01  C 
ENDBRANCH 69 71
ENDBRANCH 67 69
ENDBRANCH 64 67
ENDBRANCH 62 63
BRANCH 62 73
ATOM     73  CB  LEU D 646     -57.495  10.818  -1.384  1.00 52.76 LIG 0.04  C 
BRANCH 73 74
ATOM     74  CG  LEU D 646     -56.578  10.182  -0.343  1.00 58.95 LIG-0.02  C 
ATOM     75  CD1 LEU D 646     -57.401   9.599   0.809  1.00 55.02 LIG 0.01  C 
ATOM     76  CD2 LEU D 646     -55.709   9.113  -0.999  1.00 54.54 LIG 0.01  C 
ENDBRANCH 73 74
ENDBRANCH 62 73
ENDBRANCH 59 62
ENDBRANCH 53 58
ENDBRANCH 51 53
ENDBRANCH 44 49
ENDBRANCH 1 44
TORSDOF 28
ENDMDL
MODEL 9
USER: ADFR SOLUTION from run 42
USER: SCORE 22.520503 LL:  -6.358 LR: -17.871 RR:   0.000 FEB:  -9.519
USER: RMSD 4.467364
USER: SEED 41
USER: STATUS searching
USER: GENES 30
USER: genes 0 Translation |==|  0.47567 0.51748 0.59292
USER: genes 1 Rotation |==|  0.46271 0.45485 0.43399 0.99215
USER: genes 2 Torsion [N]-CA--C-[N] |==|  0.58071
USER: genes 3 Torsion [C]-N--CA-[CB] |==|  0.80000
USER: genes 4 Torsion [N]-CA--C-[N] |==|  0.13756
USER: genes 5 Torsion [C]-N--CA-[CB] |==|  0.35704
USER: genes 6 Torsion [N]-CA--C-[O] |==|  0.64360
USER: genes 7 Torsion [N]-CA--CB-[CG] |==|  0.66233
USER: genes 8 Torsion [CA]-CB--CG-[CD] |==|  0.17235
USER: genes 9 Torsion [CB]-CG--CD-[NE] |==|  0.25848
USER: genes 10 Torsion [CG]-CD--NE-[HE] |==|  0.78025
USER: genes 11 Torsion [N]-CA--CB-[CG] |==|  0.68037
USER: genes 12 Torsion [CA]-CB--CG-[CD] |==|  0.87884
USER: genes 13 Torsion [CB]-CG--CD-[NE] |==|  0.30879
USER: genes 14 Torsion [CG]-CD--NE-[CZ] |==|  0.58308
USER: genes 15 Torsion [N]-C--CA-[N] |==|  0.41313
USER: genes 16 Torsion [C]-CA--CB-[CG2] |==|  0.21864
USER: genes 17 Torsion [CA]-CB--OG1-[HG1] |==|  0.16844
USER: genes 18 Torsion [C]-CA--N-[C] |==|  0.76574
USER: genes 19 Torsion [N]-C--CA-[N] |==|  0.87905
USER: genes 20 Torsion [C]-CA--CB-[CG] |==|  0.41931
USER: genes 21 Torsion [CA]-CB--CG-[CD1] |==|  0.02477
USER: genes 22 Torsion [C]-CA--N-[C] |==|  0.73111
USER: genes 23 Torsion [N]-C--CA-[N] |==|  0.69862
USER: genes 24 Torsion [C]-CA--N-[C] |==|  0.69928
USER: genes 25 Torsion [N]-C--CA-[N] |==|  0.35885
USER: genes 26 Torsion [C]-CA--CB-[CG2] |==|  0.80376
USER: genes 27 Torsion [CA]-CB--CG1-[CD1] |==|  0.22234
USER: genes 28 Torsion [C]-CA--CB-[CG] |==|  0.20692
USER: genes 29 Torsion [CA]-CB--CG-[CD1] |==|  0.08935
ROOT
ATOM      1  C   THR D 648     -63.597   9.120  -4.591  1.00 57.47 LIG 0.24  C 
ATOM      2 O    THR D 648     -62.464   8.885  -5.017  1.00 58.33 LIG-0.27  OA
ATOM      3  N   PRO D 649     -64.694   8.506  -5.068  1.00 55.77 LIG-0.34  N 
ATOM      4  CA  PRO D 649     -64.619   7.411  -6.046  1.00 54.43 LIG 0.18  C 
ATOM      5  CB  PRO D 649     -66.002   6.762  -5.931  1.00 56.30 LIG 0.04  C 
ATOM      6  CG  PRO D 649     -66.902   7.873  -5.497  1.00 52.90 LIG 0.02  C 
ATOM      7  CD  PRO D 649     -66.064   8.688  -4.549  1.00 52.65 LIG 0.13  C 
ENDROOT
BRANCH 4 8
ATOM      8  C   PRO D 649     -64.365   7.818  -7.502  1.00 62.44 LIG 0.24  C 
ATOM      9  N   ARG D 650     -64.867   7.007  -8.433  1.00 65.13 LIG-0.35  N 
ATOM     10 H    ARG D 650     -65.129   6.204  -8.268  1.00 65.13 LIG 0.16  HD
ATOM     11 O    PRO D 649     -63.733   8.842  -7.762  1.00 64.48 LIG-0.27  OA
BRANCH 9 12
ATOM     12  CA  ARG D 650     -65.022   7.407  -9.833  1.00 68.90 LIG 0.18  C 
BRANCH 12 13
ATOM     13  C   ARG D 650     -63.703   8.003 -10.329  1.00 70.53 LIG 0.24  C 
ATOM     14  N   ARG D 651     -62.595   7.306 -10.099  1.00 72.55 LIG-0.35  N 
ATOM     15 H    ARG D 651     -62.574   6.520  -9.749  1.00 72.55 LIG 0.16  HD
ATOM     16 O    ARG D 650     -63.688   9.094 -10.905  1.00 68.24 LIG-0.27  OA
BRANCH 14 17
ATOM     17  CA  ARG D 651     -61.290   7.864 -10.446  1.00 72.50 LIG 0.16  C 
BRANCH 17 18
ATOM     18  C   ARG D 651     -60.689   7.141 -11.653  1.00 69.52 LIG 0.22  C 
ATOM     19 O    ARG D 651     -59.541   6.683 -11.616  1.00 68.10 LIG-0.29  OA
ENDBRANCH 17 18
BRANCH 17 20
ATOM     20  CB  ARG D 651     -60.310   7.797  -9.256  1.00 76.74 LIG 0.04  C 
BRANCH 20 21
ATOM     21  CG  ARG D 651     -59.671   9.124  -8.711  1.00 75.60 LIG 0.02  C 
BRANCH 21 22
ATOM     22  CD  ARG D 651     -60.644  10.190  -8.138  1.00 74.66 LIG 0.14  C 
BRANCH 22 23
ATOM     23  NE  ARG D 651     -60.869  10.113  -6.689  1.00 75.25 LIG-0.23  N 
ATOM     24 HE   ARG D 651     -61.418   9.513  -6.409  1.00 75.25 LIG 0.18  HD
ATOM     25  CZ  ARG D 651     -60.298  10.890  -5.770  1.00 78.75 LIG 0.67  C 
ATOM     26  NH2 ARG D 651     -60.589  10.720  -4.485  1.00 79.25 LIG-0.23  N 
ATOM     27  NH1 ARG D 651     -59.429  11.819  -6.125  1.00 78.43 LIG-0.23  N 
ATOM     28 2HH2 ARG D 651     -60.221  11.221  -3.891  1.00 79.25 LIG 0.17  HD
ATOM     29 1HH2 ARG D 651     -61.145  10.109  -4.248  1.00 79.25 LIG 0.17  HD
ATOM     30 2HH1 ARG D 651     -59.063  12.317  -5.527  1.00 78.43 LIG 0.17  HD
ATOM     31 1HH1 ARG D 651     -59.227  11.925  -6.954  1.00 78.43 LIG 0.17  HD
ENDBRANCH 22 23
ENDBRANCH 21 22
ENDBRANCH 20 21
ENDBRANCH 17 20
ENDBRANCH 14 17
ENDBRANCH 12 13
BRANCH 12 32
ATOM     32  CB  ARG D 650     -66.164   8.421  -9.998  1.00 66.96 LIG 0.04  C 
BRANCH 32 33
ATOM     33  CG  ARG D 650     -67.352   7.932 -10.822  1.00 73.73 LIG 0.02  C 
BRANCH 33 34
ATOM     34  CD  ARG D 650     -66.891   7.188 -12.084  1.00 75.05 LIG 0.14  C 
BRANCH 34 35
ATOM     35  NE  ARG D 650     -67.167   5.761 -12.065  1.00 81.10 LIG-0.23  N 
ATOM     36 HE   ARG D 650     -67.853   5.488 -11.624  1.00 81.10 LIG 0.18  HD
ATOM     37  CZ  ARG D 650     -66.423   4.851 -12.689  1.00 84.47 LIG 0.67  C 
ATOM     38  NH1 ARG D 650     -65.349   5.225 -13.373  1.00 76.84 LIG-0.23  N 
ATOM     39  NH2 ARG D 650     -66.745   3.558 -12.629  1.00 84.76 LIG-0.23  N 
ATOM     40 1HH1 ARG D 650     -65.134   6.056 -13.415  1.00 76.84 LIG 0.17  HD
ATOM     41 2HH1 ARG D 650     -64.869   4.635 -13.776  1.00 76.84 LIG 0.17  HD
ATOM     42 1HH2 ARG D 650     -67.438   3.307 -12.186  1.00 84.76 LIG 0.17  HD
ATOM     43 2HH2 ARG D 650     -66.260   2.975 -13.034  1.00 84.76 LIG 0.17  HD
ENDBRANCH 34 35
ENDBRANCH 33 34
ENDBRANCH 32 33
ENDBRANCH 12 32
ENDBRANCH 9 12
ENDBRANCH 4 8
BRANCH 1 44
ATOM     44  CA  THR D 648     -63.806  10.116  -3.449  1.00 55.33 LIG 0.20  C 
BRANCH 44 45
ATOM     45  CB  THR D 648     -64.111  11.539  -4.001  1.00 57.91 LIG 0.15  C 
ATOM     46  CG2 THR D 648     -65.573  11.655  -4.455  1.00 54.65 LIG 0.04  C 
BRANCH 45 47
ATOM     47 OG1  THR D 648     -63.853  12.518  -2.981  1.00 51.58 LIG-0.39  OA
ATOM     48 HG1  THR D 648     -63.045  12.482  -2.755  1.00 51.58 LIG 0.21  HD
ENDBRANCH 45 47
ENDBRANCH 44 45
BRANCH 44 49
ATOM     49  N   THR D 648     -62.625  10.115  -2.593  1.00 49.85 LIG-0.34  N 
ATOM     50 H    THR D 648     -62.054  10.733  -2.773  1.00 49.85 LIG 0.16  HD
ATOM     51  C   LEU D 647     -62.472   9.220  -1.624  1.00 48.49 LIG 0.24  C 
ATOM     52 O    LEU D 647     -63.270   8.301  -1.427  1.00 50.57 LIG-0.27  OA
BRANCH 51 53
ATOM     53  CA  LEU D 647     -61.253   9.395  -0.733  1.00 48.52 LIG 0.18  C 
BRANCH 53 54
ATOM     54  CB  LEU D 647     -61.540  10.489   0.296  1.00 42.08 LIG 0.04  C 
BRANCH 54 55
ATOM     55  CG  LEU D 647     -60.838  10.411   1.652  1.00 43.63 LIG-0.02  C 
ATOM     56  CD1 LEU D 647     -59.773   9.308   1.629  1.00 34.09 LIG 0.01  C 
ATOM     57  CD2 LEU D 647     -60.230  11.746   2.001  1.00 37.87 LIG 0.01  C 
ENDBRANCH 54 55
ENDBRANCH 53 54
BRANCH 53 58
ATOM     58  N   LEU D 647     -60.047   9.712  -1.495  1.00 49.21 LIG-0.35  N 
ATOM     59  C   LEU D 646     -59.168   8.774  -1.846  1.00 51.75 LIG 0.24  C 
ATOM     60 O    LEU D 646     -59.345   7.572  -1.639  1.00 46.22 LIG-0.27  OA
ATOM     61 H    LEU D 647     -59.962  10.545  -1.692  1.00 49.21 LIG 0.16  HD
BRANCH 59 62
ATOM     62  CA  LEU D 646     -57.908   9.259  -2.549  1.00 53.11 LIG 0.18  C 
BRANCH 62 63
ATOM     63  N   LEU D 646     -57.915   8.897  -3.961  1.00 56.32 LIG-0.35  N 
ATOM     64  C   ILE D 645     -57.111   7.949  -4.434  1.00 63.27 LIG 0.26  C 
ATOM     65 O    ILE D 645     -56.297   7.345  -3.725  1.00 63.46 LIG-0.27  OA
ATOM     66 H    LEU D 646     -58.473   9.341  -4.442  1.00 56.32 LIG 0.16  HD
BRANCH 64 67
ATOM     67  CA  ILE D 645     -57.254   7.612  -5.921  1.00 63.54 LIG 0.40  C 
ATOM     68  N   ILE D 645     -55.970   7.630  -6.620  1.00 63.63 LIG 0.61  N 
BRANCH 67 69
ATOM     69  CB  ILE D 645     -57.950   6.241  -6.016  1.00 61.73 LIG 0.03  C 
ATOM     70  CG2 ILE D 645     -56.994   5.139  -5.548  1.00 57.36 LIG 0.01  C 
BRANCH 69 71
ATOM     71  CG1 ILE D 645     -59.262   6.226  -5.223  1.00 65.03 LIG 0.00  C 
ATOM     72  CD1 ILE D 645     -60.425   6.873  -5.964  1.00 60.49 LIG 0.01  C 
ENDBRANCH 69 71
ENDBRANCH 67 69
ENDBRANCH 64 67
ENDBRANCH 62 63
BRANCH 62 73
ATOM     73  CB  LEU D 646     -57.760  10.769  -2.388  1.00 52.76 LIG 0.04  C 
BRANCH 73 74
ATOM     74  CG  LEU D 646     -57.314  11.225  -1.001  1.00 58.95 LIG-0.02  C 
ATOM     75  CD1 LEU D 646     -56.393  10.180  -0.366  1.00 55.02 LIG 0.01  C 
ATOM     76  CD2 LEU D 646     -56.628  12.584  -1.097  1.00 54.54 LIG 0.01  C 
ENDBRANCH 73 74
ENDBRANCH 62 73
ENDBRANCH 59 62
ENDBRANCH 53 58
ENDBRANCH 51 53
ENDBRANCH 44 49
ENDBRANCH 1 44
TORSDOF 28
ENDMDL
MODEL 10
USER: ADFR SOLUTION from run 151
USER: SCORE 22.249148 LL:  -5.249 LR: -17.818 RR:   0.000 FEB:  -9.465
USER: RMSD 4.173194
USER: SEED 150
USER: STATUS searching
USER: GENES 30
USER: genes 0 Translation |==|  0.45825 0.50784 0.59475
USER: genes 1 Rotation |==|  0.40198 0.48613 0.37153 0.97296
USER: genes 2 Torsion [N]-CA--C-[N] |==|  0.85359
USER: genes 3 Torsion [C]-N--CA-[CB] |==|  0.86667
USER: genes 4 Torsion [N]-CA--C-[N] |==|  0.37972
USER: genes 5 Torsion [C]-N--CA-[CB] |==|  0.86375
USER: genes 6 Torsion [N]-CA--C-[O] |==|  0.89572
USER: genes 7 Torsion [N]-CA--CB-[CG] |==|  0.50040
USER: genes 8 Torsion [CA]-CB--CG-[CD] |==|  0.54621
USER: genes 9 Torsion [CB]-CG--CD-[NE] |==|  0.77014
USER: genes 10 Torsion [CG]-CD--NE-[HE] |==|  0.16278
USER: genes 11 Torsion [N]-CA--CB-[CG] |==|  0.77191
USER: genes 12 Torsion [CA]-CB--CG-[CD] |==|  0.40665
USER: genes 13 Torsion [CB]-CG--CD-[NE] |==|  0.86617
USER: genes 14 Torsion [CG]-CD--NE-[CZ] |==|  0.25303
USER: genes 15 Torsion [N]-C--CA-[N] |==|  0.39909
USER: genes 16 Torsion [C]-CA--CB-[CG2] |==|  0.41753
USER: genes 17 Torsion [CA]-CB--OG1-[HG1] |==|  0.84142
USER: genes 18 Torsion [C]-CA--N-[C] |==|  0.82188
USER: genes 19 Torsion [N]-C--CA-[N] |==|  0.93483
USER: genes 20 Torsion [C]-CA--CB-[CG] |==|  0.59350
USER: genes 21 Torsion [CA]-CB--CG-[CD1] |==|  0.44851
USER: genes 22 Torsion [C]-CA--N-[C] |==|  0.66667
USER: genes 23 Torsion [N]-C--CA-[N] |==|  0.86334
USER: genes 24 Torsion [C]-CA--N-[C] |==|  0.70041
USER: genes 25 Torsion [N]-C--CA-[N] |==|  0.92409
USER: genes 26 Torsion [C]-CA--CB-[CG2] |==|  0.62918
USER: genes 27 Torsion [CA]-CB--CG1-[CD1] |==|  0.58814
USER: genes 28 Torsion [C]-CA--CB-[CG] |==|  0.58982
USER: genes 29 Torsion [CA]-CB--CG-[CD1] |==|  0.35511
ROOT
ATOM      1  C   THR D 648     -64.028   8.969  -4.542  1.00 57.47 LIG 0.24  C 
ATOM      2 O    THR D 648     -63.081   8.335  -5.014  1.00 58.33 LIG-0.27  OA
ATOM      3  N   PRO D 649     -65.310   8.629  -4.762  1.00 55.77 LIG-0.34  N 
ATOM      4  CA  PRO D 649     -65.687   7.401  -5.476  1.00 54.43 LIG 0.18  C 
ATOM      5  CB  PRO D 649     -67.158   7.222  -5.086  1.00 56.30 LIG 0.04  C 
ATOM      6  CG  PRO D 649     -67.646   8.610  -4.822  1.00 52.90 LIG 0.02  C 
ATOM      7  CD  PRO D 649     -66.482   9.300  -4.164  1.00 52.65 LIG 0.13  C 
ENDROOT
BRANCH 4 8
ATOM      8  C   PRO D 649     -65.564   7.440  -7.004  1.00 62.44 LIG 0.24  C 
ATOM      9  N   ARG D 650     -66.180   8.453  -7.614  1.00 65.13 LIG-0.35  N 
ATOM     10 H    ARG D 650     -66.781   8.938  -7.236  1.00 65.13 LIG 0.16  HD
ATOM     11 O    PRO D 649     -64.926   6.574  -7.601  1.00 64.48 LIG-0.27  OA
BRANCH 9 12
ATOM     12  CA  ARG D 650     -65.889   8.840  -8.997  1.00 68.90 LIG 0.18  C 
BRANCH 12 13
ATOM     13  C   ARG D 650     -66.505   7.807  -9.943  1.00 70.53 LIG 0.24  C 
ATOM     14  N   ARG D 651     -67.137   8.266 -11.018  1.00 72.55 LIG-0.35  N 
ATOM     15 H    ARG D 651     -67.171   9.094 -11.251  1.00 72.55 LIG 0.16  HD
ATOM     16 O    ARG D 650     -66.419   6.603  -9.693  1.00 68.24 LIG-0.27  OA
BRANCH 14 17
ATOM     17  CA  ARG D 651     -67.842   7.345 -11.905  1.00 72.50 LIG 0.16  C 
BRANCH 17 18
ATOM     18  C   ARG D 651     -69.141   6.854 -11.263  1.00 69.52 LIG 0.22  C 
ATOM     19 O    ARG D 651     -69.204   6.616 -10.051  1.00 68.10 LIG-0.29  OA
ENDBRANCH 17 18
BRANCH 17 20
ATOM     20  CB  ARG D 651     -66.960   6.137 -12.287  1.00 76.74 LIG 0.04  C 
BRANCH 20 21
ATOM     21  CG  ARG D 651     -67.540   5.032 -13.240  1.00 75.60 LIG 0.02  C 
BRANCH 21 22
ATOM     22  CD  ARG D 651     -66.792   3.672 -13.277  1.00 74.66 LIG 0.14  C 
BRANCH 22 23
ATOM     23  NE  ARG D 651     -65.620   3.629 -14.160  1.00 75.25 LIG-0.23  N 
ATOM     24 HE   ARG D 651     -64.990   4.193 -14.003  1.00 75.25 LIG 0.18  HD
ATOM     25  CZ  ARG D 651     -65.446   2.793 -15.182  1.00 78.75 LIG 0.67  C 
ATOM     26  NH2 ARG D 651     -64.335   2.857 -15.909  1.00 79.25 LIG-0.23  N 
ATOM     27  NH1 ARG D 651     -66.361   1.886 -15.469  1.00 78.43 LIG-0.23  N 
ATOM     28 2HH2 ARG D 651     -64.221   2.318 -16.569  1.00 79.25 LIG 0.17  HD
ATOM     29 1HH2 ARG D 651     -63.730   3.438 -15.718  1.00 79.25 LIG 0.17  HD
ATOM     30 2HH1 ARG D 651     -66.242   1.349 -16.130  1.00 78.43 LIG 0.17  HD
ATOM     31 1HH1 ARG D 651     -67.076   1.831 -14.994  1.00 78.43 LIG 0.17  HD
ENDBRANCH 22 23
ENDBRANCH 21 22
ENDBRANCH 20 21
ENDBRANCH 17 20
ENDBRANCH 14 17
ENDBRANCH 12 13
BRANCH 12 32
ATOM     32  CB  ARG D 650     -64.375   8.950  -9.236  1.00 66.96 LIG 0.04  C 
BRANCH 32 33
ATOM     33  CG  ARG D 650     -63.744  10.269  -8.794  1.00 73.73 LIG 0.02  C 
BRANCH 33 34
ATOM     34  CD  ARG D 650     -62.312  10.060  -8.280  1.00 75.05 LIG 0.14  C 
BRANCH 34 35
ATOM     35  NE  ARG D 650     -62.178   8.973  -7.326  1.00 81.10 LIG-0.23  N 
ATOM     36 HE   ARG D 650     -62.289   9.151  -6.492  1.00 81.10 LIG 0.18  HD
ATOM     37  CZ  ARG D 650     -61.894   7.716  -7.663  1.00 84.47 LIG 0.67  C 
ATOM     38  NH1 ARG D 650     -61.705   7.397  -8.937  1.00 76.84 LIG-0.23  N 
ATOM     39  NH2 ARG D 650     -61.793   6.771  -6.728  1.00 84.76 LIG-0.23  N 
ATOM     40 1HH1 ARG D 650     -61.766   8.001  -9.546  1.00 76.84 LIG 0.17  HD
ATOM     41 2HH1 ARG D 650     -61.521   6.585  -9.154  1.00 76.84 LIG 0.17  HD
ATOM     42 1HH2 ARG D 650     -61.911   6.971  -5.899  1.00 84.76 LIG 0.17  HD
ATOM     43 2HH2 ARG D 650     -61.609   5.962  -6.953  1.00 84.76 LIG 0.17  HD
ENDBRANCH 34 35
ENDBRANCH 33 34
ENDBRANCH 32 33
ENDBRANCH 12 32
ENDBRANCH 9 12
ENDBRANCH 4 8
BRANCH 1 44
ATOM     44  CA  THR D 648     -63.780  10.173  -3.632  1.00 55.33 LIG 0.20  C 
BRANCH 44 45
ATOM     45  CB  THR D 648     -63.647  11.481  -4.467  1.00 57.91 LIG 0.15  C 
ATOM     46  CG2 THR D 648     -64.124  12.700  -3.664  1.00 54.65 LIG 0.04  C 
BRANCH 45 47
ATOM     47 OG1  THR D 648     -62.275  11.672  -4.849  1.00 51.58 LIG-0.39  OA
ATOM     48 HG1  THR D 648     -61.793  11.691  -4.162  1.00 51.58 LIG 0.21  HD
ENDBRANCH 45 47
ENDBRANCH 44 45
BRANCH 44 49
ATOM     49  N   THR D 648     -62.587   9.927  -2.829  1.00 49.85 LIG-0.34  N 
ATOM     50 H    THR D 648     -61.936  10.467  -2.983  1.00 49.85 LIG 0.16  HD
ATOM     51  C   LEU D 647     -62.543   8.941  -1.941  1.00 48.49 LIG 0.24  C 
ATOM     52 O    LEU D 647     -63.463   8.136  -1.784  1.00 50.57 LIG-0.27  OA
BRANCH 51 53
ATOM     53  CA  LEU D 647     -61.285   8.859  -1.090  1.00 48.52 LIG 0.18  C 
BRANCH 53 54
ATOM     54  CB  LEU D 647     -61.564   9.493   0.273  1.00 42.08 LIG 0.04  C 
BRANCH 54 55
ATOM     55  CG  LEU D 647     -60.424  10.232   0.975  1.00 43.63 LIG-0.02  C 
ATOM     56  CD1 LEU D 647     -60.988  11.163   2.055  1.00 34.09 LIG 0.01  C 
ATOM     57  CD2 LEU D 647     -59.449   9.244   1.565  1.00 37.87 LIG 0.01  C 
ENDBRANCH 54 55
ENDBRANCH 53 54
BRANCH 53 58
ATOM     58  N   LEU D 647     -60.138   9.502  -1.728  1.00 49.21 LIG-0.35  N 
ATOM     59  C   LEU D 646     -59.027   8.828  -2.022  1.00 51.75 LIG 0.24  C 
ATOM     60 O    LEU D 646     -58.914   7.611  -1.866  1.00 46.22 LIG-0.27  OA
ATOM     61 H    LEU D 647     -60.248  10.339  -1.893  1.00 49.21 LIG 0.16  HD
BRANCH 59 62
ATOM     62  CA  LEU D 646     -57.874   9.643  -2.592  1.00 53.11 LIG 0.18  C 
BRANCH 62 63
ATOM     63  N   LEU D 646     -58.317  10.496  -3.687  1.00 56.32 LIG-0.35  N 
ATOM     64  C   ILE D 645     -57.989  10.227  -4.948  1.00 63.27 LIG 0.26  C 
ATOM     65 O    ILE D 645     -57.274   9.268  -5.264  1.00 63.46 LIG-0.27  OA
ATOM     66 H    LEU D 646     -58.796  11.168  -3.446  1.00 56.32 LIG 0.16  HD
BRANCH 64 67
ATOM     67  CA  ILE D 645     -58.566  11.158  -6.017  1.00 63.54 LIG 0.40  C 
ATOM     68  N   ILE D 645     -59.831  11.765  -5.603  1.00 63.63 LIG 0.61  N 
BRANCH 67 69
ATOM     69  CB  ILE D 645     -57.491  12.213  -6.337  1.00 61.73 LIG 0.03  C 
ATOM     70  CG2 ILE D 645     -58.123  13.609  -6.359  1.00 57.36 LIG 0.01  C 
BRANCH 69 71
ATOM     71  CG1 ILE D 645     -56.323  12.137  -5.346  1.00 65.03 LIG 0.00  C 
ATOM     72  CD1 ILE D 645     -55.666  13.485  -5.080  1.00 60.49 LIG 0.01  C 
ENDBRANCH 69 71
ENDBRANCH 67 69
ENDBRANCH 64 67
ENDBRANCH 62 63
BRANCH 62 73
ATOM     73  CB  LEU D 646     -57.226  10.481  -1.493  1.00 52.76 LIG 0.04  C 
BRANCH 73 74
ATOM     74  CG  LEU D 646     -56.659  11.820  -1.959  1.00 58.95 LIG-0.02  C 
ATOM     75  CD1 LEU D 646     -57.197  12.959  -1.090  1.00 55.02 LIG 0.01  C 
ATOM     76  CD2 LEU D 646     -55.134  11.775  -1.932  1.00 54.54 LIG 0.01  C 
ENDBRANCH 73 74
ENDBRANCH 62 73
ENDBRANCH 59 62
ENDBRANCH 53 58
ENDBRANCH 51 53
ENDBRANCH 44 49
ENDBRANCH 1 44
TORSDOF 28
ENDMDL
MODEL 11
USER: ADFR SOLUTION from run 156
USER: SCORE 23.310711 LL:  -7.476 LR: -17.710 RR:   0.000 FEB:  -9.358
USER: RMSD 5.517661
USER: SEED 155
USER: STATUS no improvement in best in 3 clusters for 5 generations
USER: GENES 30
USER: genes 0 Translation |==|  0.54977 0.50689 0.59596
USER: genes 1 Rotation |==|  0.50916 0.59152 0.89349 0.79445
USER: genes 2 Torsion [N]-CA--C-[N] |==|  0.18099
USER: genes 3 Torsion [C]-N--CA-[CB] |==|  0.51726
USER: genes 4 Torsion [N]-CA--C-[N] |==|  0.29833
USER: genes 5 Torsion [C]-N--CA-[CB] |==|  0.35894
USER: genes 6 Torsion [N]-CA--C-[O] |==|  0.00402
USER: genes 7 Torsion [N]-CA--CB-[CG] |==|  0.95099
USER: genes 8 Torsion [CA]-CB--CG-[CD] |==|  0.63829
USER: genes 9 Torsion [CB]-CG--CD-[NE] |==|  0.53201
USER: genes 10 Torsion [CG]-CD--NE-[HE] |==|  0.94434
USER: genes 11 Torsion [N]-CA--CB-[CG] |==|  0.47118
USER: genes 12 Torsion [CA]-CB--CG-[CD] |==|  0.17904
USER: genes 13 Torsion [CB]-CG--CD-[NE] |==|  0.68171
USER: genes 14 Torsion [CG]-CD--NE-[CZ] |==|  0.56587
USER: genes 15 Torsion [N]-C--CA-[N] |==|  0.20053
USER: genes 16 Torsion [C]-CA--CB-[CG2] |==|  0.33605
USER: genes 17 Torsion [CA]-CB--OG1-[HG1] |==|  0.13442
USER: genes 18 Torsion [C]-CA--N-[C] |==|  0.64182
USER: genes 19 Torsion [N]-C--CA-[N] |==|  0.86667
USER: genes 20 Torsion [C]-CA--CB-[CG] |==|  0.38004
USER: genes 21 Torsion [CA]-CB--CG-[CD1] |==|  0.62835
USER: genes 22 Torsion [C]-CA--N-[C] |==|  0.83638
USER: genes 23 Torsion [N]-C--CA-[N] |==|  0.81126
USER: genes 24 Torsion [C]-CA--N-[C] |==|  0.72760
USER: genes 25 Torsion [N]-C--CA-[N] |==|  0.30937
USER: genes 26 Torsion [C]-CA--CB-[CG2] |==|  0.32785
USER: genes 27 Torsion [CA]-CB--CG1-[CD1] |==|  0.32323
USER: genes 28 Torsion [C]-CA--CB-[CG] |==|  0.68413
USER: genes 29 Torsion [CA]-CB--CG-[CD1] |==|  0.28845
ROOT
ATOM      1  C   THR D 648     -61.763   8.954  -4.509  1.00 57.47 LIG 0.24  C 
ATOM      2 O    THR D 648     -62.366   9.731  -5.252  1.00 58.33 LIG-0.27  OA
ATOM      3  N   PRO D 649     -60.798   8.128  -4.950  1.00 55.77 LIG-0.34  N 
ATOM      4  CA  PRO D 649     -60.293   8.177  -6.330  1.00 54.43 LIG 0.18  C 
ATOM      5  CB  PRO D 649     -58.962   7.422  -6.227  1.00 56.30 LIG 0.04  C 
ATOM      6  CG  PRO D 649     -59.160   6.468  -5.094  1.00 52.90 LIG 0.02  C 
ATOM      7  CD  PRO D 649     -59.991   7.232  -4.099  1.00 52.65 LIG 0.13  C 
ENDROOT
BRANCH 4 8
ATOM      8  C   PRO D 649     -61.173   7.517  -7.398  1.00 62.44 LIG 0.24  C 
ATOM      9  N   ARG D 650     -62.361   8.084  -7.609  1.00 65.13 LIG-0.35  N 
ATOM     10 H    ARG D 650     -62.723   8.640  -7.062  1.00 65.13 LIG 0.16  HD
ATOM     11 O    PRO D 649     -60.775   6.526  -8.009  1.00 64.48 LIG-0.27  OA
BRANCH 9 12
ATOM     12  CA  ARG D 650     -63.169   7.811  -8.800  1.00 68.90 LIG 0.18  C 
BRANCH 12 13
ATOM     13  C   ARG D 650     -62.306   8.023 -10.045  1.00 70.53 LIG 0.24  C 
ATOM     14  N   ARG D 651     -61.923   6.939 -10.712  1.00 72.55 LIG-0.35  N 
ATOM     15 H    ARG D 651     -62.174   6.137 -10.530  1.00 72.55 LIG 0.16  HD
ATOM     16 O    ARG D 650     -61.979   9.160 -10.393  1.00 68.24 LIG-0.27  OA
BRANCH 14 17
ATOM     17  CA  ARG D 651     -61.008   7.058 -11.845  1.00 72.50 LIG 0.16  C 
BRANCH 17 18
ATOM     18  C   ARG D 651     -61.738   6.806 -13.166  1.00 69.52 LIG 0.22  C 
ATOM     19 O    ARG D 651     -62.951   6.567 -13.190  1.00 68.10 LIG-0.29  OA
ENDBRANCH 17 18
BRANCH 17 20
ATOM     20  CB  ARG D 651     -59.814   6.089 -11.715  1.00 76.74 LIG 0.04  C 
BRANCH 20 21
ATOM     21  CG  ARG D 651     -59.485   5.459 -10.315  1.00 75.60 LIG 0.02  C 
BRANCH 21 22
ATOM     22  CD  ARG D 651     -58.012   5.549  -9.831  1.00 74.66 LIG 0.14  C 
BRANCH 22 23
ATOM     23  NE  ARG D 651     -57.690   4.728  -8.658  1.00 75.25 LIG-0.23  N 
ATOM     24 HE   ARG D 651     -58.347   4.475  -8.165  1.00 75.25 LIG 0.18  HD
ATOM     25  CZ  ARG D 651     -56.469   4.342  -8.290  1.00 78.75 LIG 0.67  C 
ATOM     26  NH2 ARG D 651     -56.310   3.598  -7.200  1.00 79.25 LIG-0.23  N 
ATOM     27  NH1 ARG D 651     -55.415   4.676  -9.011  1.00 78.43 LIG-0.23  N 
ATOM     28 2HH2 ARG D 651     -55.523   3.348  -6.961  1.00 79.25 LIG 0.17  HD
ATOM     29 1HH2 ARG D 651     -56.995   3.367  -6.733  1.00 79.25 LIG 0.17  HD
ATOM     30 2HH1 ARG D 651     -54.630   4.423  -8.768  1.00 78.43 LIG 0.17  HD
ATOM     31 1HH1 ARG D 651     -55.514   5.146  -9.724  1.00 78.43 LIG 0.17  HD
ENDBRANCH 22 23
ENDBRANCH 21 22
ENDBRANCH 20 21
ENDBRANCH 17 20
ENDBRANCH 14 17
ENDBRANCH 12 13
BRANCH 12 32
ATOM     32  CB  ARG D 650     -64.410   8.716  -8.847  1.00 66.96 LIG 0.04  C 
BRANCH 32 33
ATOM     33  CG  ARG D 650     -65.183   8.688 -10.163  1.00 73.73 LIG 0.02  C 
BRANCH 33 34
ATOM     34  CD  ARG D 650     -65.788   7.301 -10.429  1.00 75.05 LIG 0.14  C 
BRANCH 34 35
ATOM     35  NE  ARG D 650     -65.231   6.625 -11.588  1.00 81.10 LIG-0.23  N 
ATOM     36 HE   ARG D 650     -64.444   6.852 -11.850  1.00 81.10 LIG 0.18  HD
ATOM     37  CZ  ARG D 650     -65.866   5.674 -12.271  1.00 84.47 LIG 0.67  C 
ATOM     38  NH1 ARG D 650     -67.086   5.297 -11.909  1.00 76.84 LIG-0.23  N 
ATOM     39  NH2 ARG D 650     -65.286   5.095 -13.323  1.00 84.76 LIG-0.23  N 
ATOM     40 1HH1 ARG D 650     -67.467   5.667 -11.233  1.00 76.84 LIG 0.17  HD
ATOM     41 2HH1 ARG D 650     -67.495   4.683 -12.351  1.00 76.84 LIG 0.17  HD
ATOM     42 1HH2 ARG D 650     -64.496   5.335 -13.566  1.00 84.76 LIG 0.17  HD
ATOM     43 2HH2 ARG D 650     -65.701   4.482 -13.760  1.00 84.76 LIG 0.17  HD
ENDBRANCH 34 35
ENDBRANCH 33 34
ENDBRANCH 32 33
ENDBRANCH 12 32
ENDBRANCH 9 12
ENDBRANCH 4 8
BRANCH 1 44
ATOM     44  CA  THR D 648     -62.067   8.920  -3.010  1.00 55.33 LIG 0.20  C 
BRANCH 44 45
ATOM     45  CB  THR D 648     -63.429   9.611  -2.704  1.00 57.91 LIG 0.15  C 
ATOM     46  CG2 THR D 648     -64.400   8.640  -2.019  1.00 54.65 LIG 0.04  C 
BRANCH 45 47
ATOM     47 OG1  THR D 648     -63.212  10.747  -1.851  1.00 51.58 LIG-0.39  OA
ATOM     48 HG1  THR D 648     -62.586  11.214  -2.159  1.00 51.58 LIG 0.21  HD
ENDBRANCH 45 47
ENDBRANCH 44 45
BRANCH 44 49
ATOM     49  N   THR D 648     -60.971   9.554  -2.287  1.00 49.85 LIG-0.34  N 
ATOM     50 H    THR D 648     -60.752  10.332  -2.580  1.00 49.85 LIG 0.16  HD
ATOM     51  C   LEU D 647     -60.379   8.952  -1.262  1.00 48.49 LIG 0.24  C 
ATOM     52 O    LEU D 647     -60.662   7.808  -0.900  1.00 50.57 LIG-0.27  OA
BRANCH 51 53
ATOM     53  CA  LEU D 647     -59.326   9.762  -0.523  1.00 48.52 LIG 0.18  C 
BRANCH 53 54
ATOM     54  CB  LEU D 647     -60.022  10.812   0.343  1.00 42.08 LIG 0.04  C 
BRANCH 54 55
ATOM     55  CG  LEU D 647     -59.510  11.032   1.767  1.00 43.63 LIG-0.02  C 
ATOM     56  CD1 LEU D 647     -60.688  11.083   2.747  1.00 34.09 LIG 0.01  C 
ATOM     57  CD2 LEU D 647     -58.537   9.943   2.144  1.00 37.87 LIG 0.01  C 
ENDBRANCH 54 55
ENDBRANCH 53 54
BRANCH 53 58
ATOM     58  N   LEU D 647     -58.373  10.397  -1.431  1.00 49.21 LIG-0.35  N 
ATOM     59  C   LEU D 646     -57.627   9.689  -2.278  1.00 51.75 LIG 0.24  C 
ATOM     60 O    LEU D 646     -57.745   8.471  -2.424  1.00 46.22 LIG-0.27  OA
ATOM     61 H    LEU D 647     -58.343  11.255  -1.368  1.00 49.21 LIG 0.16  HD
BRANCH 59 62
ATOM     62  CA  LEU D 646     -56.605  10.469  -3.093  1.00 53.11 LIG 0.18  C 
BRANCH 62 63
ATOM     63  N   LEU D 646     -57.255  11.350  -4.056  1.00 56.32 LIG-0.35  N 
ATOM     64  C   ILE D 645     -57.403  10.993  -5.328  1.00 63.27 LIG 0.26  C 
ATOM     65 O    ILE D 645     -56.978   9.921  -5.777  1.00 63.46 LIG-0.27  OA
ATOM     66 H    LEU D 646     -57.526  12.099  -3.730  1.00 56.32 LIG 0.16  HD
BRANCH 64 67
ATOM     67  CA  ILE D 645     -58.157  11.973  -6.230  1.00 63.54 LIG 0.40  C 
ATOM     68  N   ILE D 645     -57.287  12.596  -7.226  1.00 63.63 LIG 0.61  N 
BRANCH 67 69
ATOM     69  CB  ILE D 645     -59.321  11.199  -6.877  1.00 61.73 LIG 0.03  C 
ATOM     70  CG2 ILE D 645     -60.658  11.815  -6.449  1.00 57.36 LIG 0.01  C 
BRANCH 69 71
ATOM     71  CG1 ILE D 645     -59.182  11.156  -8.403  1.00 65.03 LIG 0.00  C 
ATOM     72  CD1 ILE D 645     -58.996   9.748  -8.954  1.00 60.49 LIG 0.01  C 
ENDBRANCH 69 71
ENDBRANCH 67 69
ENDBRANCH 64 67
ENDBRANCH 62 63
BRANCH 62 73
ATOM     73  CB  LEU D 646     -55.693  11.271  -2.169  1.00 52.76 LIG 0.04  C 
BRANCH 73 74
ATOM     74  CG  LEU D 646     -55.835  12.786  -2.286  1.00 58.95 LIG-0.02  C 
ATOM     75  CD1 LEU D 646     -56.628  13.342  -1.101  1.00 55.02 LIG 0.01  C 
ATOM     76  CD2 LEU D 646     -54.454  13.431  -2.381  1.00 54.54 LIG 0.01  C 
ENDBRANCH 73 74
ENDBRANCH 62 73
ENDBRANCH 59 62
ENDBRANCH 53 58
ENDBRANCH 51 53
ENDBRANCH 44 49
ENDBRANCH 1 44
TORSDOF 28
ENDMDL
MODEL 12
USER: ADFR SOLUTION from run 128
USER: SCORE 21.624901 LL:  -5.551 LR: -17.640 RR:   0.000 FEB:  -9.288
USER: RMSD 5.765693
USER: SEED 127
USER: STATUS no improvement in best in 4 clusters for 5 generations
USER: GENES 30
USER: genes 0 Translation |==|  0.55971 0.52636 0.61247
USER: genes 1 Rotation |==|  0.66661 0.63783 0.83476 0.80196
USER: genes 2 Torsion [N]-CA--C-[N] |==|  0.87971
USER: genes 3 Torsion [C]-N--CA-[CB] |==|  0.79500
USER: genes 4 Torsion [N]-CA--C-[N] |==|  0.09435
USER: genes 5 Torsion [C]-N--CA-[CB] |==|  0.82926
USER: genes 6 Torsion [N]-CA--C-[O] |==|  0.22642
USER: genes 7 Torsion [N]-CA--CB-[CG] |==|  0.74773
USER: genes 8 Torsion [CA]-CB--CG-[CD] |==|  0.78682
USER: genes 9 Torsion [CB]-CG--CD-[NE] |==|  0.41691
USER: genes 10 Torsion [CG]-CD--NE-[HE] |==|  0.68736
USER: genes 11 Torsion [N]-CA--CB-[CG] |==|  0.19365
USER: genes 12 Torsion [CA]-CB--CG-[CD] |==|  0.68001
USER: genes 13 Torsion [CB]-CG--CD-[NE] |==|  0.60466
USER: genes 14 Torsion [CG]-CD--NE-[CZ] |==|  0.52863
USER: genes 15 Torsion [N]-C--CA-[N] |==|  0.28333
USER: genes 16 Torsion [C]-CA--CB-[CG2] |==|  0.48492
USER: genes 17 Torsion [CA]-CB--OG1-[HG1] |==|  0.97421
USER: genes 18 Torsion [C]-CA--N-[C] |==|  0.63403
USER: genes 19 Torsion [N]-C--CA-[N] |==|  0.86310
USER: genes 20 Torsion [C]-CA--CB-[CG] |==|  0.05176
USER: genes 21 Torsion [CA]-CB--CG-[CD1] |==|  0.28499
USER: genes 22 Torsion [C]-CA--N-[C] |==|  0.69929
USER: genes 23 Torsion [N]-C--CA-[N] |==|  0.88445
USER: genes 24 Torsion [C]-CA--N-[C] |==|  0.81255
USER: genes 25 Torsion [N]-C--CA-[N] |==|  0.78093
USER: genes 26 Torsion [C]-CA--CB-[CG2] |==|  0.31274
USER: genes 27 Torsion [CA]-CB--CG1-[CD1] |==|  0.54622
USER: genes 28 Torsion [C]-CA--CB-[CG] |==|  0.02354
USER: genes 29 Torsion [CA]-CB--CG-[CD1] |==|  0.38100
ROOT
ATOM      1  C   THR D 648     -61.517   9.260  -4.063  1.00 57.47 LIG 0.24  C 
ATOM      2 O    THR D 648     -62.148  10.306  -4.234  1.00 58.33 LIG-0.27  OA
ATOM      3  N   PRO D 649     -61.260   8.396  -5.060  1.00 55.77 LIG-0.34  N 
ATOM      4  CA  PRO D 649     -61.599   8.688  -6.461  1.00 54.43 LIG 0.18  C 
ATOM      5  CB  PRO D 649     -60.740   7.680  -7.232  1.00 56.30 LIG 0.04  C 
ATOM      6  CG  PRO D 649     -60.578   6.530  -6.291  1.00 52.90 LIG 0.02  C 
ATOM      7  CD  PRO D 649     -60.449   7.169  -4.934  1.00 52.65 LIG 0.13  C 
ENDROOT
BRANCH 4 8
ATOM      8  C   PRO D 649     -63.070   8.513  -6.854  1.00 62.44 LIG 0.24  C 
ATOM      9  N   ARG D 650     -63.674   7.421  -6.388  1.00 65.13 LIG-0.35  N 
ATOM     10 H    ARG D 650     -63.249   6.744  -6.071  1.00 65.13 LIG 0.16  HD
ATOM     11 O    PRO D 649     -63.632   9.352  -7.558  1.00 64.48 LIG-0.27  OA
BRANCH 9 12
ATOM     12  CA  ARG D 650     -65.131   7.267  -6.369  1.00 68.90 LIG 0.18  C 
BRANCH 12 13
ATOM     13  C   ARG D 650     -65.689   7.652  -7.740  1.00 70.53 LIG 0.24  C 
ATOM     14  N   ARG D 651     -64.941   7.374  -8.803  1.00 72.55 LIG-0.35  N 
ATOM     15 H    ARG D 651     -64.198   6.940  -8.779  1.00 72.55 LIG 0.16  HD
ATOM     16 O    ARG D 650     -66.785   8.210  -7.834  1.00 68.24 LIG-0.27  OA
BRANCH 14 17
ATOM     17  CA  ARG D 651     -65.360   7.811 -10.132  1.00 72.50 LIG 0.16  C 
BRANCH 17 18
ATOM     18  C   ARG D 651     -65.456   9.337 -10.201  1.00 69.52 LIG 0.22  C 
ATOM     19 O    ARG D 651     -64.450  10.033 -10.379  1.00 68.10 LIG-0.29  OA
ENDBRANCH 17 18
BRANCH 17 20
ATOM     20  CB  ARG D 651     -66.711   7.185 -10.536  1.00 76.74 LIG 0.04  C 
BRANCH 20 21
ATOM     21  CG  ARG D 651     -66.724   5.819 -11.312  1.00 75.60 LIG 0.02  C 
BRANCH 21 22
ATOM     22  CD  ARG D 651     -66.370   5.866 -12.824  1.00 74.66 LIG 0.14  C 
BRANCH 22 23
ATOM     23  NE  ARG D 651     -65.732   4.655 -13.352  1.00 75.25 LIG-0.23  N 
ATOM     24 HE   ARG D 651     -64.912   4.722 -13.603  1.00 75.25 LIG 0.18  HD
ATOM     25  CZ  ARG D 651     -66.310   3.462 -13.478  1.00 78.75 LIG 0.67  C 
ATOM     26  NH2 ARG D 651     -65.621   2.440 -13.975  1.00 79.25 LIG-0.23  N 
ATOM     27  NH1 ARG D 651     -67.560   3.279 -13.094  1.00 78.43 LIG-0.23  N 
ATOM     28 2HH2 ARG D 651     -65.993   1.669 -14.057  1.00 79.25 LIG 0.17  HD
ATOM     29 1HH2 ARG D 651     -64.803   2.550 -14.215  1.00 79.25 LIG 0.17  HD
ATOM     30 2HH1 ARG D 651     -67.928   2.506 -13.177  1.00 78.43 LIG 0.17  HD
ATOM     31 1HH1 ARG D 651     -68.007   3.934 -12.760  1.00 78.43 LIG 0.17  HD
ENDBRANCH 22 23
ENDBRANCH 21 22
ENDBRANCH 20 21
ENDBRANCH 17 20
ENDBRANCH 14 17
ENDBRANCH 12 13
BRANCH 12 32
ATOM     32  CB  ARG D 650     -65.766   8.132  -5.270  1.00 66.96 LIG 0.04  C 
BRANCH 32 33
ATOM     33  CG  ARG D 650     -65.714   9.637  -5.518  1.00 73.73 LIG 0.02  C 
BRANCH 33 34
ATOM     34  CD  ARG D 650     -64.844  10.348  -4.471  1.00 75.05 LIG 0.14  C 
BRANCH 34 35
ATOM     35  NE  ARG D 650     -65.354  11.645  -4.058  1.00 81.10 LIG-0.23  N 
ATOM     36 HE   ARG D 650     -66.147  11.865  -4.307  1.00 81.10 LIG 0.18  HD
ATOM     37  CZ  ARG D 650     -64.668  12.514  -3.319  1.00 84.47 LIG 0.67  C 
ATOM     38  NH1 ARG D 650     -63.436  12.221  -2.921  1.00 76.84 LIG-0.23  N 
ATOM     39  NH2 ARG D 650     -65.208  13.684  -2.975  1.00 84.76 LIG-0.23  N 
ATOM     40 1HH1 ARG D 650     -63.081  11.470  -3.140  1.00 76.84 LIG 0.17  HD
ATOM     41 2HH1 ARG D 650     -62.994  12.783  -2.443  1.00 76.84 LIG 0.17  HD
ATOM     42 1HH2 ARG D 650     -66.005  13.882  -3.231  1.00 84.76 LIG 0.17  HD
ATOM     43 2HH2 ARG D 650     -64.759  14.240  -2.497  1.00 84.76 LIG 0.17  HD
ENDBRANCH 34 35
ENDBRANCH 33 34
ENDBRANCH 32 33
ENDBRANCH 12 32
ENDBRANCH 9 12
ENDBRANCH 4 8
BRANCH 1 44
ATOM     44  CA  THR D 648     -60.953   8.911  -2.685  1.00 55.33 LIG 0.20  C 
BRANCH 44 45
ATOM     45  CB  THR D 648     -62.024   9.124  -1.576  1.00 57.91 LIG 0.15  C 
ATOM     46  CG2 THR D 648     -61.509   8.649  -0.210  1.00 54.65 LIG 0.04  C 
BRANCH 45 47
ATOM     47 OG1  THR D 648     -62.364  10.518  -1.495  1.00 51.58 LIG-0.39  OA
ATOM     48 HG1  THR D 648     -61.833  10.964  -1.969  1.00 51.58 LIG 0.21  HD
ENDBRANCH 45 47
ENDBRANCH 44 45
BRANCH 44 49
ATOM     49  N   THR D 648     -59.760   9.715  -2.440  1.00 49.85 LIG-0.34  N 
ATOM     50 H    THR D 648     -59.855  10.553  -2.606  1.00 49.85 LIG 0.16  HD
ATOM     51  C   LEU D 647     -58.635   9.167  -1.997  1.00 48.49 LIG 0.24  C 
ATOM     52 O    LEU D 647     -58.499   7.953  -1.831  1.00 50.57 LIG-0.27  OA
BRANCH 51 53
ATOM     53  CA  LEU D 647     -57.500  10.126  -1.676  1.00 48.52 LIG 0.18  C 
BRANCH 53 54
ATOM     54  CB  LEU D 647     -57.825  10.864  -0.376  1.00 42.08 LIG 0.04  C 
BRANCH 54 55
ATOM     55  CG  LEU D 647     -58.881  10.264   0.552  1.00 43.63 LIG-0.02  C 
ATOM     56  CD1 LEU D 647     -58.204   9.564   1.736  1.00 34.09 LIG 0.01  C 
ATOM     57  CD2 LEU D 647     -59.828  11.338   1.025  1.00 37.87 LIG 0.01  C 
ENDBRANCH 54 55
ENDBRANCH 53 54
BRANCH 53 58
ATOM     58  N   LEU D 647     -57.253  11.078  -2.757  1.00 49.21 LIG-0.35  N 
ATOM     59  C   LEU D 646     -56.171  11.001  -3.530  1.00 51.75 LIG 0.24  C 
ATOM     60 O    LEU D 646     -55.353  10.082  -3.456  1.00 46.22 LIG-0.27  OA
ATOM     61 H    LEU D 647     -57.862  11.680  -2.845  1.00 49.21 LIG 0.16  HD
BRANCH 59 62
ATOM     62  CA  LEU D 646     -55.989  12.116  -4.551  1.00 53.11 LIG 0.18  C 
BRANCH 62 63
ATOM     63  N   LEU D 646     -57.252  12.460  -5.192  1.00 56.32 LIG-0.35  N 
ATOM     64  C   ILE D 645     -57.869  11.607  -6.004  1.00 63.27 LIG 0.26  C 
ATOM     65 O    ILE D 645     -57.404  10.495  -6.287  1.00 63.46 LIG-0.27  OA
ATOM     66 H    LEU D 646     -57.550  13.244  -4.999  1.00 56.32 LIG 0.16  HD
BRANCH 64 67
ATOM     67  CA  ILE D 645     -59.220  12.054  -6.567  1.00 63.54 LIG 0.40  C 
ATOM     68  N   ILE D 645     -60.305  11.896  -5.600  1.00 63.63 LIG 0.61  N 
BRANCH 67 69
ATOM     69  CB  ILE D 645     -59.063  13.514  -7.032  1.00 61.73 LIG 0.03  C 
ATOM     70  CG2 ILE D 645     -59.176  13.589  -8.559  1.00 57.36 LIG 0.01  C 
BRANCH 69 71
ATOM     71  CG1 ILE D 645     -60.081  14.431  -6.345  1.00 65.03 LIG 0.00  C 
ATOM     72  CD1 ILE D 645     -60.250  15.776  -7.038  1.00 60.49 LIG 0.01  C 
ENDBRANCH 69 71
ENDBRANCH 67 69
ENDBRANCH 64 67
ENDBRANCH 62 63
BRANCH 62 73
ATOM     73  CB  LEU D 646     -55.377  13.345  -3.886  1.00 52.76 LIG 0.04  C 
BRANCH 73 74
ATOM     74  CG  LEU D 646     -54.905  13.129  -2.451  1.00 58.95 LIG-0.02  C 
ATOM     75  CD1 LEU D 646     -53.544  13.796  -2.229  1.00 55.02 LIG 0.01  C 
ATOM     76  CD2 LEU D 646     -55.949  13.664  -1.475  1.00 54.54 LIG 0.01  C 
ENDBRANCH 73 74
ENDBRANCH 62 73
ENDBRANCH 59 62
ENDBRANCH 53 58
ENDBRANCH 51 53
ENDBRANCH 44 49
ENDBRANCH 1 44
TORSDOF 28
ENDMDL
MODEL 13
USER: ADFR SOLUTION from run 17
USER: SCORE 22.072599 LL:  -6.200 LR: -17.599 RR:   0.000 FEB:  -9.246
USER: RMSD 5.389544
USER: SEED 16
USER: STATUS 1 or 2 clusters left
USER: GENES 30
USER: genes 0 Translation |==|  0.46588 0.48007 0.57802
USER: genes 1 Rotation |==|  0.40147 0.48312 0.33657 0.96184
USER: genes 2 Torsion [N]-CA--C-[N] |==|  0.07758
USER: genes 3 Torsion [C]-N--CA-[CB] |==|  0.25708
USER: genes 4 Torsion [N]-CA--C-[N] |==|  0.39461
USER: genes 5 Torsion [C]-N--CA-[CB] |==|  0.48373
USER: genes 6 Torsion [N]-CA--C-[O] |==|  0.95780
USER: genes 7 Torsion [N]-CA--CB-[CG] |==|  0.56838
USER: genes 8 Torsion [CA]-CB--CG-[CD] |==|  0.02276
USER: genes 9 Torsion [CB]-CG--CD-[NE] |==|  0.30647
USER: genes 10 Torsion [CG]-CD--NE-[HE] |==|  0.73645
USER: genes 11 Torsion [N]-CA--CB-[CG] |==|  0.54797
USER: genes 12 Torsion [CA]-CB--CG-[CD] |==|  0.25976
USER: genes 13 Torsion [CB]-CG--CD-[NE] |==|  0.64810
USER: genes 14 Torsion [CG]-CD--NE-[CZ] |==|  0.39907
USER: genes 15 Torsion [N]-C--CA-[N] |==|  0.39764
USER: genes 16 Torsion [C]-CA--CB-[CG2] |==|  0.36741
USER: genes 17 Torsion [CA]-CB--OG1-[HG1] |==|  0.78182
USER: genes 18 Torsion [C]-CA--N-[C] |==|  0.74884
USER: genes 19 Torsion [N]-C--CA-[N] |==|  0.04408
USER: genes 20 Torsion [C]-CA--CB-[CG] |==|  0.64301
USER: genes 21 Torsion [CA]-CB--CG-[CD1] |==|  0.41097
USER: genes 22 Torsion [C]-CA--N-[C] |==|  0.64506
USER: genes 23 Torsion [N]-C--CA-[N] |==|  0.85709
USER: genes 24 Torsion [C]-CA--N-[C] |==|  0.72322
USER: genes 25 Torsion [N]-C--CA-[N] |==|  0.31942
USER: genes 26 Torsion [C]-CA--CB-[CG2] |==|  0.75882
USER: genes 27 Torsion [CA]-CB--CG1-[CD1] |==|  0.66322
USER: genes 28 Torsion [C]-CA--CB-[CG] |==|  0.73763
USER: genes 29 Torsion [CA]-CB--CG-[CD1] |==|  0.35909
ROOT
ATOM      1  C   THR D 648     -63.840   8.531  -4.993  1.00 57.47 LIG 0.24  C 
ATOM      2 O    THR D 648     -62.974   7.765  -5.422  1.00 58.33 LIG-0.27  OA
ATOM      3  N   PRO D 649     -65.147   8.373  -5.262  1.00 55.77 LIG-0.34  N 
ATOM      4  CA  PRO D 649     -65.665   7.201  -5.983  1.00 54.43 LIG 0.18  C 
ATOM      5  CB  PRO D 649     -67.161   7.236  -5.650  1.00 56.30 LIG 0.04  C 
ATOM      6  CG  PRO D 649     -67.458   8.682  -5.416  1.00 52.90 LIG 0.02  C 
ATOM      7  CD  PRO D 649     -66.235   9.210  -4.717  1.00 52.65 LIG 0.13  C 
ENDROOT
BRANCH 4 8
ATOM      8  C   PRO D 649     -65.479   7.204  -7.505  1.00 62.44 LIG 0.24  C 
ATOM      9  N   ARG D 650     -64.434   7.890  -7.965  1.00 65.13 LIG-0.35  N 
ATOM     10 H    ARG D 650     -64.006   8.470  -7.496  1.00 65.13 LIG 0.16  HD
ATOM     11 O    PRO D 649     -66.266   6.595  -8.230  1.00 64.48 LIG-0.27  OA
BRANCH 9 12
ATOM     12  CA  ARG D 650     -63.911   7.721  -9.323  1.00 68.90 LIG 0.18  C 
BRANCH 12 13
ATOM     13  C   ARG D 650     -62.391   7.895  -9.296  1.00 70.53 LIG 0.24  C 
ATOM     14  N   ARG D 651     -61.673   7.102 -10.085  1.00 72.55 LIG-0.35  N 
ATOM     15 H    ARG D 651     -62.003   6.545 -10.651  1.00 72.55 LIG 0.16  HD
ATOM     16 O    ARG D 650     -61.872   8.733  -8.555  1.00 68.24 LIG-0.27  OA
BRANCH 14 17
ATOM     17  CA  ARG D 651     -60.214   7.136 -10.029  1.00 72.50 LIG 0.16  C 
BRANCH 17 18
ATOM     18  C   ARG D 651     -59.683   8.508 -10.448  1.00 69.52 LIG 0.22  C 
ATOM     19 O    ARG D 651     -60.406   9.321 -11.036  1.00 68.10 LIG-0.29  OA
ENDBRANCH 17 18
BRANCH 17 20
ATOM     20  CB  ARG D 651     -59.586   6.041 -10.917  1.00 76.74 LIG 0.04  C 
BRANCH 20 21
ATOM     21  CG  ARG D 651     -58.144   5.514 -10.584  1.00 75.60 LIG 0.02  C 
BRANCH 21 22
ATOM     22  CD  ARG D 651     -57.510   5.997  -9.251  1.00 74.66 LIG 0.14  C 
BRANCH 22 23
ATOM     23  NE  ARG D 651     -57.370   4.965  -8.217  1.00 75.25 LIG-0.23  N 
ATOM     24 HE   ARG D 651     -57.999   4.907  -7.634  1.00 75.25 LIG 0.18  HD
ATOM     25  CZ  ARG D 651     -56.355   4.110  -8.103  1.00 78.75 LIG 0.67  C 
ATOM     26  NH2 ARG D 651     -56.346   3.220  -7.116  1.00 79.25 LIG-0.23  N 
ATOM     27  NH1 ARG D 651     -55.364   4.127  -8.975  1.00 78.43 LIG-0.23  N 
ATOM     28 2HH2 ARG D 651     -55.691   2.668  -7.041  1.00 79.25 LIG 0.17  HD
ATOM     29 1HH2 ARG D 651     -56.995   3.197  -6.552  1.00 79.25 LIG 0.17  HD
ATOM     30 2HH1 ARG D 651     -54.712   3.572  -8.896  1.00 78.43 LIG 0.17  HD
ATOM     31 1HH1 ARG D 651     -55.371   4.692  -9.623  1.00 78.43 LIG 0.17  HD
ENDBRANCH 22 23
ENDBRANCH 21 22
ENDBRANCH 20 21
ENDBRANCH 17 20
ENDBRANCH 14 17
ENDBRANCH 12 13
BRANCH 12 32
ATOM     32  CB  ARG D 650     -64.548   8.728 -10.292  1.00 66.96 LIG 0.04  C 
BRANCH 32 33
ATOM     33  CG  ARG D 650     -64.399   8.387 -11.773  1.00 73.73 LIG 0.02  C 
BRANCH 33 34
ATOM     34  CD  ARG D 650     -65.613   7.603 -12.293  1.00 75.05 LIG 0.14  C 
BRANCH 34 35
ATOM     35  NE  ARG D 650     -65.272   6.355 -12.955  1.00 81.10 LIG-0.23  N 
ATOM     36 HE   ARG D 650     -64.556   6.332 -13.430  1.00 81.10 LIG 0.18  HD
ATOM     37  CZ  ARG D 650     -66.002   5.244 -12.871  1.00 84.47 LIG 0.67  C 
ATOM     38  NH1 ARG D 650     -67.120   5.236 -12.157  1.00 76.84 LIG-0.23  N 
ATOM     39  NH2 ARG D 650     -65.620   4.134 -13.504  1.00 84.76 LIG-0.23  N 
ATOM     40 1HH1 ARG D 650     -67.375   5.948 -11.748  1.00 76.84 LIG 0.17  HD
ATOM     41 2HH1 ARG D 650     -67.591   4.518 -12.103  1.00 76.84 LIG 0.17  HD
ATOM     42 1HH2 ARG D 650     -64.897   4.132 -13.971  1.00 84.76 LIG 0.17  HD
ATOM     43 2HH2 ARG D 650     -66.096   3.421 -13.446  1.00 84.76 LIG 0.17  HD
ENDBRANCH 34 35
ENDBRANCH 33 34
ENDBRANCH 32 33
ENDBRANCH 12 32
ENDBRANCH 9 12
ENDBRANCH 4 8
BRANCH 1 44
ATOM     44  CA  THR D 648     -63.459   9.700  -4.083  1.00 55.33 LIG 0.20  C 
BRANCH 44 45
ATOM     45  CB  THR D 648     -63.098  10.962  -4.921  1.00 57.91 LIG 0.15  C 
ATOM     46  CG2 THR D 648     -63.812  12.208  -4.380  1.00 54.65 LIG 0.04  C 
BRANCH 45 47
ATOM     47 OG1  THR D 648     -61.678  11.176  -4.884  1.00 51.58 LIG-0.39  OA
ATOM     48 HG1  THR D 648     -61.467  11.534  -4.154  1.00 51.58 LIG 0.21  HD
ENDBRANCH 45 47
ENDBRANCH 44 45
BRANCH 44 49
ATOM     49  N   THR D 648     -62.353   9.294  -3.222  1.00 49.85 LIG-0.34  N 
ATOM     50 H    THR D 648     -61.572   9.442  -3.551  1.00 49.85 LIG 0.16  HD
ATOM     51  C   LEU D 647     -62.568   8.745  -2.033  1.00 48.49 LIG 0.24  C 
ATOM     52 O    LEU D 647     -63.694   8.479  -1.609  1.00 50.57 LIG-0.27  OA
BRANCH 51 53
ATOM     53  CA  LEU D 647     -61.335   8.470  -1.187  1.00 48.52 LIG 0.18  C 
BRANCH 53 54
ATOM     54  CB  LEU D 647     -61.634   8.843   0.265  1.00 42.08 LIG 0.04  C 
BRANCH 54 55
ATOM     55  CG  LEU D 647     -60.657   9.768   0.991  1.00 43.63 LIG-0.02  C 
ATOM     56  CD1 LEU D 647     -61.410  10.635   2.007  1.00 34.09 LIG 0.01  C 
ATOM     57  CD2 LEU D 647     -59.576   8.959   1.663  1.00 37.87 LIG 0.01  C 
ENDBRANCH 54 55
ENDBRANCH 53 54
BRANCH 53 58
ATOM     58  N   LEU D 647     -60.157   9.189  -1.669  1.00 49.21 LIG-0.35  N 
ATOM     59  C   LEU D 646     -59.005   8.568  -1.917  1.00 51.75 LIG 0.24  C 
ATOM     60 O    LEU D 646     -58.869   7.345  -1.850  1.00 46.22 LIG-0.27  OA
ATOM     61 H    LEU D 647     -60.278  10.034  -1.775  1.00 49.21 LIG 0.16  HD
BRANCH 59 62
ATOM     62  CA  LEU D 646     -57.832   9.454  -2.316  1.00 53.11 LIG 0.18  C 
BRANCH 62 63
ATOM     63  N   LEU D 646     -58.191  10.348  -3.410  1.00 56.32 LIG-0.35  N 
ATOM     64  C   ILE D 645     -57.853  10.071  -4.666  1.00 63.27 LIG 0.26  C 
ATOM     65 O    ILE D 645     -57.198   9.069  -4.979  1.00 63.46 LIG-0.27  OA
ATOM     66 H    LEU D 646     -58.629  11.048  -3.171  1.00 56.32 LIG 0.16  HD
BRANCH 64 67
ATOM     67  CA  ILE D 645     -58.340  11.051  -5.736  1.00 63.54 LIG 0.40  C 
ATOM     68  N   ILE D 645     -57.236  11.747  -6.397  1.00 63.63 LIG 0.61  N 
BRANCH 67 69
ATOM     69  CB  ILE D 645     -59.204  10.253  -6.731  1.00 61.73 LIG 0.03  C 
ATOM     70  CG2 ILE D 645     -58.313   9.636  -7.815  1.00 57.36 LIG 0.01  C 
BRANCH 69 71
ATOM     71  CG1 ILE D 645     -60.041   9.188  -6.014  1.00 65.03 LIG 0.00  C 
ATOM     72  CD1 ILE D 645     -59.767   7.772  -6.503  1.00 60.49 LIG 0.01  C 
ENDBRANCH 69 71
ENDBRANCH 67 69
ENDBRANCH 64 67
ENDBRANCH 62 63
BRANCH 62 73
ATOM     73  CB  LEU D 646     -57.343  10.255  -1.113  1.00 52.76 LIG 0.04  C 
BRANCH 73 74
ATOM     74  CG  LEU D 646     -57.939  11.655  -0.989  1.00 58.95 LIG-0.02  C 
ATOM     75  CD1 LEU D 646     -58.495  11.876   0.420  1.00 55.02 LIG 0.01  C 
ATOM     76  CD2 LEU D 646     -56.885  12.701  -1.340  1.00 54.54 LIG 0.01  C 
ENDBRANCH 73 74
ENDBRANCH 62 73
ENDBRANCH 59 62
ENDBRANCH 53 58
ENDBRANCH 51 53
ENDBRANCH 44 49
ENDBRANCH 1 44
TORSDOF 28
ENDMDL
MODEL 14
USER: ADFR SOLUTION from run 172
USER: SCORE 21.342088 LL:  -5.097 LR: -17.553 RR:   0.000 FEB:  -9.200
USER: RMSD 4.194239
USER: SEED 171
USER: STATUS no improvement in best in 4 clusters for 5 generations
USER: GENES 30
USER: genes 0 Translation |==|  0.46002 0.51360 0.59158
USER: genes 1 Rotation |==|  0.41293 0.43137 0.35715 0.96616
USER: genes 2 Torsion [N]-CA--C-[N] |==|  0.02907
USER: genes 3 Torsion [C]-N--CA-[CB] |==|  0.78274
USER: genes 4 Torsion [N]-CA--C-[N] |==|  0.16706
USER: genes 5 Torsion [C]-N--CA-[CB] |==|  0.80094
USER: genes 6 Torsion [N]-CA--C-[O] |==|  0.17140
USER: genes 7 Torsion [N]-CA--CB-[CG] |==|  0.29458
USER: genes 8 Torsion [CA]-CB--CG-[CD] |==|  0.19161
USER: genes 9 Torsion [CB]-CG--CD-[NE] |==|  0.59202
USER: genes 10 Torsion [CG]-CD--NE-[HE] |==|  0.86594
USER: genes 11 Torsion [N]-CA--CB-[CG] |==|  0.50693
USER: genes 12 Torsion [CA]-CB--CG-[CD] |==|  0.64789
USER: genes 13 Torsion [CB]-CG--CD-[NE] |==|  0.78973
USER: genes 14 Torsion [CG]-CD--NE-[CZ] |==|  0.69392
USER: genes 15 Torsion [N]-C--CA-[N] |==|  0.44452
USER: genes 16 Torsion [C]-CA--CB-[CG2] |==|  0.40936
USER: genes 17 Torsion [CA]-CB--OG1-[HG1] |==|  0.87496
USER: genes 18 Torsion [C]-CA--N-[C] |==|  0.76700
USER: genes 19 Torsion [N]-C--CA-[N] |==|  0.89938
USER: genes 20 Torsion [C]-CA--CB-[CG] |==|  0.44030
USER: genes 21 Torsion [CA]-CB--CG-[CD1] |==|  0.90031
USER: genes 22 Torsion [C]-CA--N-[C] |==|  0.70661
USER: genes 23 Torsion [N]-C--CA-[N] |==|  0.27973
USER: genes 24 Torsion [C]-CA--N-[C] |==|  0.54674
USER: genes 25 Torsion [N]-C--CA-[N] |==|  0.36525
USER: genes 26 Torsion [C]-CA--CB-[CG2] |==|  0.74978
USER: genes 27 Torsion [CA]-CB--CG1-[CD1] |==|  0.63019
USER: genes 28 Torsion [C]-CA--CB-[CG] |==|  0.21067
USER: genes 29 Torsion [CA]-CB--CG-[CD1] |==|  0.72093
ROOT
ATOM      1  C   THR D 648     -63.984   9.059  -4.627  1.00 57.47 LIG 0.24  C 
ATOM      2 O    THR D 648     -62.967   8.403  -4.859  1.00 58.33 LIG-0.27  OA
ATOM      3  N   PRO D 649     -65.188   8.735  -5.129  1.00 55.77 LIG-0.34  N 
ATOM      4  CA  PRO D 649     -65.415   7.498  -5.891  1.00 54.43 LIG 0.18  C 
ATOM      5  CB  PRO D 649     -66.940   7.349  -5.845  1.00 56.30 LIG 0.04  C 
ATOM      6  CG  PRO D 649     -67.449   8.749  -5.723  1.00 52.90 LIG 0.02  C 
ATOM      7  CD  PRO D 649     -66.453   9.435  -4.828  1.00 52.65 LIG 0.13  C 
ENDROOT
BRANCH 4 8
ATOM      8  C   PRO D 649     -64.946   7.504  -7.351  1.00 62.44 LIG 0.24  C 
ATOM      9  N   ARG D 650     -64.192   8.540  -7.718  1.00 65.13 LIG-0.35  N 
ATOM     10 H    ARG D 650     -64.133   9.267  -7.263  1.00 65.13 LIG 0.16  HD
ATOM     11 O    PRO D 649     -65.262   6.590  -8.112  1.00 64.48 LIG-0.27  OA
BRANCH 9 12
ATOM     12  CA  ARG D 650     -63.384   8.539  -8.941  1.00 68.90 LIG 0.18  C 
BRANCH 12 13
ATOM     13  C   ARG D 650     -64.215   7.953 -10.084  1.00 70.53 LIG 0.24  C 
ATOM     14  N   ARG D 651     -65.344   8.579 -10.401  1.00 72.55 LIG-0.35  N 
ATOM     15 H    ARG D 651     -65.608   9.320 -10.052  1.00 72.55 LIG 0.16  HD
ATOM     16 O    ARG D 650     -63.842   6.932 -10.668  1.00 68.24 LIG-0.27  OA
BRANCH 14 17
ATOM     17  CA  ARG D 651     -66.240   8.015 -11.406  1.00 72.50 LIG 0.16  C 
BRANCH 17 18
ATOM     18  C   ARG D 651     -66.550   6.548 -11.101  1.00 69.52 LIG 0.22  C 
ATOM     19 O    ARG D 651     -67.124   6.220 -10.056  1.00 68.10 LIG-0.29  OA
ENDBRANCH 17 18
BRANCH 17 20
ATOM     20  CB  ARG D 651     -65.650   8.139 -12.827  1.00 76.74 LIG 0.04  C 
BRANCH 20 21
ATOM     21  CG  ARG D 651     -65.081   6.859 -13.537  1.00 75.60 LIG 0.02  C 
BRANCH 21 22
ATOM     22  CD  ARG D 651     -66.109   5.775 -13.962  1.00 74.66 LIG 0.14  C 
BRANCH 22 23
ATOM     23  NE  ARG D 651     -65.620   4.392 -13.897  1.00 75.25 LIG-0.23  N 
ATOM     24 HE   ARG D 651     -64.855   4.230 -14.255  1.00 75.25 LIG 0.18  HD
ATOM     25  CZ  ARG D 651     -66.256   3.368 -13.333  1.00 78.75 LIG 0.67  C 
ATOM     26  NH2 ARG D 651     -65.704   2.159 -13.342  1.00 79.25 LIG-0.23  N 
ATOM     27  NH1 ARG D 651     -67.425   3.546 -12.745  1.00 78.43 LIG-0.23  N 
ATOM     28 2HH2 ARG D 651     -66.114   1.496 -12.978  1.00 79.25 LIG 0.17  HD
ATOM     29 1HH2 ARG D 651     -64.938   2.039 -13.713  1.00 79.25 LIG 0.17  HD
ATOM     30 2HH1 ARG D 651     -67.830   2.881 -12.382  1.00 78.43 LIG 0.17  HD
ATOM     31 1HH1 ARG D 651     -67.780   4.329 -12.725  1.00 78.43 LIG 0.17  HD
ENDBRANCH 22 23
ENDBRANCH 21 22
ENDBRANCH 20 21
ENDBRANCH 17 20
ENDBRANCH 14 17
ENDBRANCH 12 13
BRANCH 12 32
ATOM     32  CB  ARG D 650     -62.090   7.734  -8.751  1.00 66.96 LIG 0.04  C 
BRANCH 32 33
ATOM     33  CG  ARG D 650     -61.150   7.723  -9.954  1.00 73.73 LIG 0.02  C 
BRANCH 33 34
ATOM     34  CD  ARG D 650     -60.780   6.290 -10.363  1.00 75.05 LIG 0.14  C 
BRANCH 34 35
ATOM     35  NE  ARG D 650     -59.809   5.656  -9.486  1.00 81.10 LIG-0.23  N 
ATOM     36 HE   ARG D 650     -60.060   5.444  -8.692  1.00 81.10 LIG 0.18  HD
ATOM     37  CZ  ARG D 650     -58.555   5.383  -9.839  1.00 84.47 LIG 0.67  C 
ATOM     38  NH1 ARG D 650     -58.120   5.701 -11.051  1.00 76.84 LIG-0.23  N 
ATOM     39  NH2 ARG D 650     -57.723   4.794  -8.978  1.00 84.76 LIG-0.23  N 
ATOM     40 1HH1 ARG D 650     -58.649   6.083 -11.611  1.00 76.84 LIG 0.17  HD
ATOM     41 2HH1 ARG D 650     -57.309   5.524 -11.278  1.00 76.84 LIG 0.17  HD
ATOM     42 1HH2 ARG D 650     -57.997   4.587  -8.189  1.00 84.76 LIG 0.17  HD
ATOM     43 2HH2 ARG D 650     -56.914   4.620  -9.212  1.00 84.76 LIG 0.17  HD
ENDBRANCH 34 35
ENDBRANCH 33 34
ENDBRANCH 32 33
ENDBRANCH 12 32
ENDBRANCH 9 12
ENDBRANCH 4 8
BRANCH 1 44
ATOM     44  CA  THR D 648     -63.928  10.278  -3.705  1.00 55.33 LIG 0.20  C 
BRANCH 44 45
ATOM     45  CB  THR D 648     -63.995  11.600  -4.527  1.00 57.91 LIG 0.15  C 
ATOM     46  CG2 THR D 648     -64.721  12.702  -3.743  1.00 54.65 LIG 0.04  C 
BRANCH 45 47
ATOM     47 OG1  THR D 648     -62.663  12.040  -4.841  1.00 51.58 LIG-0.39  OA
ATOM     48 HG1  THR D 648     -62.179  11.979  -4.157  1.00 51.58 LIG 0.21  HD
ENDBRANCH 45 47
ENDBRANCH 44 45
BRANCH 44 49
ATOM     49  N   THR D 648     -62.714  10.210  -2.898  1.00 49.85 LIG-0.34  N 
ATOM     50 H    THR D 648     -62.052  10.661  -3.211  1.00 49.85 LIG 0.16  HD
ATOM     51  C   LEU D 647     -62.668   9.501  -1.777  1.00 48.49 LIG 0.24  C 
ATOM     52 O    LEU D 647     -63.607   8.806  -1.382  1.00 50.57 LIG-0.27  OA
BRANCH 51 53
ATOM     53  CA  LEU D 647     -61.383   9.600  -0.970  1.00 48.52 LIG 0.18  C 
BRANCH 53 54
ATOM     54  CB  LEU D 647     -61.476  10.805  -0.033  1.00 42.08 LIG 0.04  C 
BRANCH 54 55
ATOM     55  CG  LEU D 647     -60.571  10.835   1.199  1.00 43.63 LIG-0.02  C 
ATOM     56  CD1 LEU D 647     -60.405   9.420   1.764  1.00 34.09 LIG 0.01  C 
ATOM     57  CD2 LEU D 647     -59.234  11.439   0.847  1.00 37.87 LIG 0.01  C 
ENDBRANCH 54 55
ENDBRANCH 53 54
BRANCH 53 58
ATOM     58  N   LEU D 647     -60.199   9.703  -1.821  1.00 49.21 LIG-0.35  N 
ATOM     59  C   LEU D 646     -59.363   8.679  -1.990  1.00 51.75 LIG 0.24  C 
ATOM     60 O    LEU D 646     -59.567   7.557  -1.525  1.00 46.22 LIG-0.27  OA
ATOM     61 H    LEU D 647     -60.097  10.471  -2.193  1.00 49.21 LIG 0.16  HD
BRANCH 59 62
ATOM     62  CA  LEU D 646     -58.116   8.956  -2.820  1.00 53.11 LIG 0.18  C 
BRANCH 62 63
ATOM     63  N   LEU D 646     -56.950   9.168  -1.971  1.00 56.32 LIG-0.35  N 
ATOM     64  C   ILE D 645     -55.847   9.741  -2.445  1.00 63.27 LIG 0.26  C 
ATOM     65 O    ILE D 645     -55.730  10.098  -3.623  1.00 63.46 LIG-0.27  OA
ATOM     66 H    LEU D 646     -57.042   8.895  -1.161  1.00 56.32 LIG 0.16  HD
BRANCH 64 67
ATOM     67  CA  ILE D 645     -54.712   9.968  -1.443  1.00 63.54 LIG 0.40  C 
ATOM     68  N   ILE D 645     -53.422   9.503  -1.951  1.00 63.63 LIG 0.61  N 
BRANCH 67 69
ATOM     69  CB  ILE D 645     -54.695  11.470  -1.101  1.00 61.73 LIG 0.03  C 
ATOM     70  CG2 ILE D 645     -53.775  12.215  -2.073  1.00 57.36 LIG 0.01  C 
BRANCH 69 71
ATOM     71  CG1 ILE D 645     -56.111  12.057  -1.100  1.00 65.03 LIG 0.00  C 
ATOM     72  CD1 ILE D 645     -56.222  13.371  -1.861  1.00 60.49 LIG 0.01  C 
ENDBRANCH 69 71
ENDBRANCH 67 69
ENDBRANCH 64 67
ENDBRANCH 62 63
BRANCH 62 73
ATOM     73  CB  LEU D 646     -57.865   7.808  -3.793  1.00 52.76 LIG 0.04  C 
BRANCH 73 74
ATOM     74  CG  LEU D 646     -58.787   7.785  -5.009  1.00 58.95 LIG-0.02  C 
ATOM     75  CD1 LEU D 646     -59.906   6.760  -4.812  1.00 55.02 LIG 0.01  C 
ATOM     76  CD2 LEU D 646     -59.351   9.181  -5.259  1.00 54.54 LIG 0.01  C 
ENDBRANCH 73 74
ENDBRANCH 62 73
ENDBRANCH 59 62
ENDBRANCH 53 58
ENDBRANCH 51 53
ENDBRANCH 44 49
ENDBRANCH 1 44
TORSDOF 28
ENDMDL
MODEL 15
USER: ADFR SOLUTION from run 151
USER: SCORE 21.306317 LL:  -4.981 LR: -17.322 RR:   0.000 FEB:  -8.969
USER: RMSD 3.677822
USER: SEED 150
USER: STATUS searching
USER: GENES 30
USER: genes 0 Translation |==|  0.45771 0.51526 0.57936
USER: genes 1 Rotation |==|  0.39937 0.52852 0.41103 0.98078
USER: genes 2 Torsion [N]-CA--C-[N] |==|  0.95525
USER: genes 3 Torsion [C]-N--CA-[CB] |==|  0.87774
USER: genes 4 Torsion [N]-CA--C-[N] |==|  0.35945
USER: genes 5 Torsion [C]-N--CA-[CB] |==|  0.85131
USER: genes 6 Torsion [N]-CA--C-[O] |==|  0.99676
USER: genes 7 Torsion [N]-CA--CB-[CG] |==|  0.33540
USER: genes 8 Torsion [CA]-CB--CG-[CD] |==|  0.35914
USER: genes 9 Torsion [CB]-CG--CD-[NE] |==|  0.64134
USER: genes 10 Torsion [CG]-CD--NE-[HE] |==|  0.73852
USER: genes 11 Torsion [N]-CA--CB-[CG] |==|  0.27546
USER: genes 12 Torsion [CA]-CB--CG-[CD] |==|  0.29411
USER: genes 13 Torsion [CB]-CG--CD-[NE] |==|  0.48039
USER: genes 14 Torsion [CG]-CD--NE-[CZ] |==|  0.16844
USER: genes 15 Torsion [N]-C--CA-[N] |==|  0.35116
USER: genes 16 Torsion [C]-CA--CB-[CG2] |==|  0.38384
USER: genes 17 Torsion [CA]-CB--OG1-[HG1] |==|  0.85611
USER: genes 18 Torsion [C]-CA--N-[C] |==|  0.81503
USER: genes 19 Torsion [N]-C--CA-[N] |==|  0.94686
USER: genes 20 Torsion [C]-CA--CB-[CG] |==|  0.59846
USER: genes 21 Torsion [CA]-CB--CG-[CD1] |==|  0.42388
USER: genes 22 Torsion [C]-CA--N-[C] |==|  0.65004
USER: genes 23 Torsion [N]-C--CA-[N] |==|  0.87842
USER: genes 24 Torsion [C]-CA--N-[C] |==|  0.69550
USER: genes 25 Torsion [N]-C--CA-[N] |==|  0.92871
USER: genes 26 Torsion [C]-CA--CB-[CG2] |==|  0.63449
USER: genes 27 Torsion [CA]-CB--CG1-[CD1] |==|  0.59001
USER: genes 28 Torsion [C]-CA--CB-[CG] |==|  0.59028
USER: genes 29 Torsion [CA]-CB--CG-[CD1] |==|  0.35511
ROOT
ATOM      1  C   THR D 648     -64.042   9.085  -4.957  1.00 57.47 LIG 0.24  C 
ATOM      2 O    THR D 648     -63.137   8.588  -5.631  1.00 58.33 LIG-0.27  OA
ATOM      3  N   PRO D 649     -65.292   8.592  -4.943  1.00 55.77 LIG-0.34  N 
ATOM      4  CA  PRO D 649     -65.651   7.342  -5.630  1.00 54.43 LIG 0.18  C 
ATOM      5  CB  PRO D 649     -66.985   6.970  -4.974  1.00 56.30 LIG 0.04  C 
ATOM      6  CG  PRO D 649     -67.575   8.278  -4.556  1.00 52.90 LIG 0.02  C 
ATOM      7  CD  PRO D 649     -66.396   9.095  -4.102  1.00 52.65 LIG 0.13  C 
ENDROOT
BRANCH 4 8
ATOM      8  C   PRO D 649     -65.836   7.433  -7.150  1.00 62.44 LIG 0.24  C 
ATOM      9  N   ARG D 650     -65.984   8.659  -7.649  1.00 65.13 LIG-0.35  N 
ATOM     10 H    ARG D 650     -66.179   9.345  -7.169  1.00 65.13 LIG 0.16  HD
ATOM     11 O    PRO D 649     -65.840   6.413  -7.839  1.00 64.48 LIG-0.27  OA
BRANCH 9 12
ATOM     12  CA  ARG D 650     -65.826   8.959  -9.075  1.00 68.90 LIG 0.18  C 
BRANCH 12 13
ATOM     13  C   ARG D 650     -67.089   8.520  -9.818  1.00 70.53 LIG 0.24  C 
ATOM     14  N   ARG D 651     -67.659   9.408 -10.627  1.00 72.55 LIG-0.35  N 
ATOM     15 H    ARG D 651     -67.336  10.184 -10.808  1.00 72.55 LIG 0.16  HD
ATOM     16 O    ARG D 650     -67.551   7.389  -9.650  1.00 68.24 LIG-0.27  OA
BRANCH 14 17
ATOM     17  CA  ARG D 651     -68.926   9.096 -11.283  1.00 72.50 LIG 0.16  C 
BRANCH 17 18
ATOM     18  C   ARG D 651     -70.069   9.043 -10.267  1.00 69.52 LIG 0.22  C 
ATOM     19 O    ARG D 651     -69.862   9.227  -9.062  1.00 68.10 LIG-0.29  OA
ENDBRANCH 17 18
BRANCH 17 20
ATOM     20  CB  ARG D 651     -68.852   7.762 -12.055  1.00 76.74 LIG 0.04  C 
BRANCH 20 21
ATOM     21  CG  ARG D 651     -69.838   6.599 -11.677  1.00 75.60 LIG 0.02  C 
BRANCH 21 22
ATOM     22  CD  ARG D 651     -70.634   5.946 -12.839  1.00 74.66 LIG 0.14  C 
BRANCH 22 23
ATOM     23  NE  ARG D 651     -72.084   5.852 -12.627  1.00 75.25 LIG-0.23  N 
ATOM     24 HE   ARG D 651     -72.385   5.118 -12.297  1.00 75.25 LIG 0.18  HD
ATOM     25  CZ  ARG D 651     -72.973   6.805 -12.901  1.00 78.75 LIG 0.67  C 
ATOM     26  NH2 ARG D 651     -74.264   6.595 -12.663  1.00 79.25 LIG-0.23  N 
ATOM     27  NH1 ARG D 651     -72.581   7.967 -13.390  1.00 78.43 LIG-0.23  N 
ATOM     28 2HH2 ARG D 651     -74.839   7.209 -12.840  1.00 79.25 LIG 0.17  HD
ATOM     29 1HH2 ARG D 651     -74.523   5.845 -12.334  1.00 79.25 LIG 0.17  HD
ATOM     30 2HH1 ARG D 651     -73.160   8.578 -13.564  1.00 78.43 LIG 0.17  HD
ATOM     31 1HH1 ARG D 651     -71.746   8.113 -13.534  1.00 78.43 LIG 0.17  HD
ENDBRANCH 22 23
ENDBRANCH 21 22
ENDBRANCH 20 21
ENDBRANCH 17 20
ENDBRANCH 14 17
ENDBRANCH 12 13
BRANCH 12 32
ATOM     32  CB  ARG D 650     -64.590   8.256  -9.656  1.00 66.96 LIG 0.04  C 
BRANCH 32 33
ATOM     33  CG  ARG D 650     -64.877   6.960 -10.412  1.00 73.73 LIG 0.02  C 
BRANCH 33 34
ATOM     34  CD  ARG D 650     -64.743   7.155 -11.929  1.00 75.05 LIG 0.14  C 
BRANCH 34 35
ATOM     35  NE  ARG D 650     -64.844   5.924 -12.695  1.00 81.10 LIG-0.23  N 
ATOM     36 HE   ARG D 650     -64.171   5.691 -13.177  1.00 81.10 LIG 0.18  HD
ATOM     37  CZ  ARG D 650     -65.917   5.135 -12.698  1.00 84.47 LIG 0.67  C 
ATOM     38  NH1 ARG D 650     -66.983   5.459 -11.978  1.00 76.84 LIG-0.23  N 
ATOM     39  NH2 ARG D 650     -65.931   4.016 -13.424  1.00 84.76 LIG-0.23  N 
ATOM     40 1HH1 ARG D 650     -66.982   6.180 -11.508  1.00 76.84 LIG 0.17  HD
ATOM     41 2HH1 ARG D 650     -67.675   4.948 -11.980  1.00 76.84 LIG 0.17  HD
ATOM     42 1HH2 ARG D 650     -65.245   3.800 -13.896  1.00 84.76 LIG 0.17  HD
ATOM     43 2HH2 ARG D 650     -66.627   3.511 -13.421  1.00 84.76 LIG 0.17  HD
ENDBRANCH 34 35
ENDBRANCH 33 34
ENDBRANCH 32 33
ENDBRANCH 12 32
ENDBRANCH 9 12
ENDBRANCH 4 8
BRANCH 1 44
ATOM     44  CA  THR D 648     -63.766  10.290  -4.056  1.00 55.33 LIG 0.20  C 
BRANCH 44 45
ATOM     45  CB  THR D 648     -63.528  11.575  -4.904  1.00 57.91 LIG 0.15  C 
ATOM     46  CG2 THR D 648     -64.235  12.787  -4.281  1.00 54.65 LIG 0.04  C 
BRANCH 45 47
ATOM     47 OG1  THR D 648     -62.119  11.841  -4.991  1.00 51.58 LIG-0.39  OA
ATOM     48 HG1  THR D 648     -61.785  11.843  -4.220  1.00 51.58 LIG 0.21  HD
ENDBRANCH 45 47
ENDBRANCH 44 45
BRANCH 44 49
ATOM     49  N   THR D 648     -62.623   9.994  -3.200  1.00 49.85 LIG-0.34  N 
ATOM     50 H    THR D 648     -61.926  10.473  -3.357  1.00 49.85 LIG 0.16  HD
ATOM     51  C   LEU D 647     -62.685   9.055  -2.263  1.00 48.49 LIG 0.24  C 
ATOM     52 O    LEU D 647     -63.670   8.333  -2.100  1.00 50.57 LIG-0.27  OA
BRANCH 51 53
ATOM     53  CA  LEU D 647     -61.465   8.920  -1.365  1.00 48.52 LIG 0.18  C 
BRANCH 53 54
ATOM     54  CB  LEU D 647     -61.776   9.549  -0.006  1.00 42.08 LIG 0.04  C 
BRANCH 54 55
ATOM     55  CG  LEU D 647     -60.649  10.276   0.729  1.00 43.63 LIG-0.02  C 
ATOM     56  CD1 LEU D 647     -61.232  11.363   1.641  1.00 34.09 LIG 0.01  C 
ATOM     57  CD2 LEU D 647     -59.823   9.292   1.519  1.00 37.87 LIG 0.01  C 
ENDBRANCH 54 55
ENDBRANCH 53 54
BRANCH 53 58
ATOM     58  N   LEU D 647     -60.272   9.529  -1.950  1.00 49.21 LIG-0.35  N 
ATOM     59  C   LEU D 646     -59.136   8.849  -2.100  1.00 51.75 LIG 0.24  C 
ATOM     60 O    LEU D 646     -59.030   7.647  -1.848  1.00 46.22 LIG-0.27  OA
ATOM     61 H    LEU D 647     -60.373  10.350  -2.184  1.00 49.21 LIG 0.16  HD
BRANCH 59 62
ATOM     62  CA  LEU D 646     -57.944   9.634  -2.630  1.00 53.11 LIG 0.18  C 
BRANCH 62 63
ATOM     63  N   LEU D 646     -58.328  10.498  -3.739  1.00 56.32 LIG-0.35  N 
ATOM     64  C   ILE D 645     -57.935  10.240  -4.983  1.00 63.27 LIG 0.26  C 
ATOM     65 O    ILE D 645     -57.206   9.282  -5.271  1.00 63.46 LIG-0.27  OA
ATOM     66 H    LEU D 646     -58.818  11.169  -3.517  1.00 56.32 LIG 0.16  HD
BRANCH 64 67
ATOM     67  CA  ILE D 645     -58.454  11.181  -6.073  1.00 63.54 LIG 0.40  C 
ATOM     68  N   ILE D 645     -59.718  11.817  -5.703  1.00 63.63 LIG 0.61  N 
BRANCH 67 69
ATOM     69  CB  ILE D 645     -57.345  12.212  -6.356  1.00 61.73 LIG 0.03  C 
ATOM     70  CG2 ILE D 645     -57.935  13.626  -6.354  1.00 57.36 LIG 0.01  C 
BRANCH 69 71
ATOM     71  CG1 ILE D 645     -56.192  12.080  -5.354  1.00 65.03 LIG 0.00  C 
ATOM     72  CD1 ILE D 645     -55.510  13.404  -5.037  1.00 60.49 LIG 0.01  C 
ENDBRANCH 69 71
ENDBRANCH 67 69
ENDBRANCH 64 67
ENDBRANCH 62 63
BRANCH 62 73
ATOM     73  CB  LEU D 646     -57.313  10.456  -1.509  1.00 52.76 LIG 0.04  C 
BRANCH 73 74
ATOM     74  CG  LEU D 646     -56.700  11.781  -1.953  1.00 58.95 LIG-0.02  C 
ATOM     75  CD1 LEU D 646     -57.240  12.932  -1.100  1.00 55.02 LIG 0.01  C 
ATOM     76  CD2 LEU D 646     -55.178  11.701  -1.877  1.00 54.54 LIG 0.01  C 
ENDBRANCH 73 74
ENDBRANCH 62 73
ENDBRANCH 59 62
ENDBRANCH 53 58
ENDBRANCH 51 53
ENDBRANCH 44 49
ENDBRANCH 1 44
TORSDOF 28
ENDMDL
MODEL 16
USER: ADFR SOLUTION from run 61
USER: SCORE 20.701439 LL:  -5.639 LR: -17.296 RR:   0.000 FEB:  -8.944
USER: RMSD 4.353097
USER: SEED 60
USER: STATUS no improvement in best in 6 clusters for 5 generations
USER: GENES 30
USER: genes 0 Translation |==|  0.54471 0.55226 0.57136
USER: genes 1 Rotation |==|  0.55760 0.50173 0.82806 0.87290
USER: genes 2 Torsion [N]-CA--C-[N] |==|  0.80690
USER: genes 3 Torsion [C]-N--CA-[CB] |==|  0.37280
USER: genes 4 Torsion [N]-CA--C-[N] |==|  0.13064
USER: genes 5 Torsion [C]-N--CA-[CB] |==|  0.82054
USER: genes 6 Torsion [N]-CA--C-[O] |==|  0.08878
USER: genes 7 Torsion [N]-CA--CB-[CG] |==|  0.27682
USER: genes 8 Torsion [CA]-CB--CG-[CD] |==|  0.67524
USER: genes 9 Torsion [CB]-CG--CD-[NE] |==|  0.35762
USER: genes 10 Torsion [CG]-CD--NE-[HE] |==|  0.16194
USER: genes 11 Torsion [N]-CA--CB-[CG] |==|  0.89401
USER: genes 12 Torsion [CA]-CB--CG-[CD] |==|  0.23583
USER: genes 13 Torsion [CB]-CG--CD-[NE] |==|  0.62262
USER: genes 14 Torsion [CG]-CD--NE-[CZ] |==|  0.74215
USER: genes 15 Torsion [N]-C--CA-[N] |==|  0.25681
USER: genes 16 Torsion [C]-CA--CB-[CG2] |==|  0.36190
USER: genes 17 Torsion [CA]-CB--OG1-[HG1] |==|  0.08564
USER: genes 18 Torsion [C]-CA--N-[C] |==|  0.61375
USER: genes 19 Torsion [N]-C--CA-[N] |==|  0.89952
USER: genes 20 Torsion [C]-CA--CB-[CG] |==|  0.41448
USER: genes 21 Torsion [CA]-CB--CG-[CD1] |==|  0.00543
USER: genes 22 Torsion [C]-CA--N-[C] |==|  0.79496
USER: genes 23 Torsion [N]-C--CA-[N] |==|  0.38860
USER: genes 24 Torsion [C]-CA--N-[C] |==|  0.82722
USER: genes 25 Torsion [N]-C--CA-[N] |==|  0.97087
USER: genes 26 Torsion [C]-CA--CB-[CG2] |==|  0.55899
USER: genes 27 Torsion [CA]-CB--CG1-[CD1] |==|  0.67210
USER: genes 28 Torsion [C]-CA--CB-[CG] |==|  0.46262
USER: genes 29 Torsion [CA]-CB--CG-[CD1] |==|  0.56599
ROOT
ATOM      1  C   THR D 648     -61.888   9.668  -5.173  1.00 57.47 LIG 0.24  C 
ATOM      2 O    THR D 648     -61.976  10.817  -5.612  1.00 58.33 LIG-0.27  OA
ATOM      3  N   PRO D 649     -61.278   8.678  -5.847  1.00 55.77 LIG-0.34  N 
ATOM      4  CA  PRO D 649     -60.553   8.914  -7.104  1.00 54.43 LIG 0.18  C 
ATOM      5  CB  PRO D 649     -59.686   7.657  -7.234  1.00 56.30 LIG 0.04  C 
ATOM      6  CG  PRO D 649     -60.457   6.595  -6.518  1.00 52.90 LIG 0.02  C 
ATOM      7  CD  PRO D 649     -61.074   7.305  -5.343  1.00 52.65 LIG 0.13  C 
ENDROOT
BRANCH 4 8
ATOM      8  C   PRO D 649     -61.413   9.074  -8.364  1.00 62.44 LIG 0.24  C 
ATOM      9  N   ARG D 650     -62.035   7.975  -8.791  1.00 65.13 LIG-0.35  N 
ATOM     10 H    ARG D 650     -61.823   7.182  -8.534  1.00 65.13 LIG 0.16  HD
ATOM     11 O    PRO D 649     -61.506  10.167  -8.921  1.00 64.48 LIG-0.27  OA
BRANCH 9 12
ATOM     12  CA  ARG D 650     -63.145   8.012  -9.746  1.00 68.90 LIG 0.18  C 
BRANCH 12 13
ATOM     13  C   ARG D 650     -64.457   7.781  -8.993  1.00 70.53 LIG 0.24  C 
ATOM     14  N   ARG D 651     -64.649   8.477  -7.877  1.00 72.55 LIG-0.35  N 
ATOM     15 H    ARG D 651     -64.120   9.089  -7.583  1.00 72.55 LIG 0.16  HD
ATOM     16 O    ARG D 650     -65.283   6.968  -9.413  1.00 68.24 LIG-0.27  OA
BRANCH 14 17
ATOM     17  CA  ARG D 651     -65.827   8.228  -7.049  1.00 72.50 LIG 0.16  C 
BRANCH 17 18
ATOM     18  C   ARG D 651     -65.877   6.767  -6.596  1.00 69.52 LIG 0.22  C 
ATOM     19 O    ARG D 651     -64.841   6.126  -6.392  1.00 68.10 LIG-0.29  OA
ENDBRANCH 17 18
BRANCH 17 20
ATOM     20  CB  ARG D 651     -67.130   8.589  -7.793  1.00 76.74 LIG 0.04  C 
BRANCH 20 21
ATOM     21  CG  ARG D 651     -67.974   7.446  -8.463  1.00 75.60 LIG 0.02  C 
BRANCH 21 22
ATOM     22  CD  ARG D 651     -68.132   7.502 -10.007  1.00 74.66 LIG 0.14  C 
BRANCH 22 23
ATOM     23  NE  ARG D 651     -67.795   6.259 -10.713  1.00 75.25 LIG-0.23  N 
ATOM     24 HE   ARG D 651     -68.235   5.553 -10.494  1.00 75.25 LIG 0.18  HD
ATOM     25  CZ  ARG D 651     -66.871   6.130 -11.662  1.00 78.75 LIG 0.67  C 
ATOM     26  NH2 ARG D 651     -66.660   4.944 -12.225  1.00 79.25 LIG-0.23  N 
ATOM     27  NH1 ARG D 651     -66.172   7.176 -12.064  1.00 78.43 LIG-0.23  N 
ATOM     28 2HH2 ARG D 651     -66.063   4.859 -12.838  1.00 79.25 LIG 0.17  HD
ATOM     29 1HH2 ARG D 651     -67.120   4.262 -11.975  1.00 79.25 LIG 0.17  HD
ATOM     30 2HH1 ARG D 651     -65.577   7.085 -12.678  1.00 78.43 LIG 0.17  HD
ATOM     31 1HH1 ARG D 651     -66.314   7.948 -11.713  1.00 78.43 LIG 0.17  HD
ENDBRANCH 22 23
ENDBRANCH 21 22
ENDBRANCH 20 21
ENDBRANCH 17 20
ENDBRANCH 14 17
ENDBRANCH 12 13
BRANCH 12 32
ATOM     32  CB  ARG D 650     -62.966   6.956 -10.847  1.00 66.96 LIG 0.04  C 
BRANCH 32 33
ATOM     33  CG  ARG D 650     -61.530   6.759 -11.328  1.00 73.73 LIG 0.02  C 
BRANCH 33 34
ATOM     34  CD  ARG D 650     -60.768   5.773 -10.430  1.00 75.05 LIG 0.14  C 
BRANCH 34 35
ATOM     35  NE  ARG D 650     -59.422   6.201 -10.089  1.00 81.10 LIG-0.23  N 
ATOM     36 HE   ARG D 650     -59.321   6.705  -9.399  1.00 81.10 LIG 0.18  HD
ATOM     37  CZ  ARG D 650     -58.336   5.862 -10.780  1.00 84.47 LIG 0.67  C 
ATOM     38  NH1 ARG D 650     -58.445   5.095 -11.857  1.00 76.84 LIG-0.23  N 
ATOM     39  NH2 ARG D 650     -57.131   6.292 -10.400  1.00 84.76 LIG-0.23  N 
ATOM     40 1HH1 ARG D 650     -59.218   4.816 -12.109  1.00 76.84 LIG 0.17  HD
ATOM     41 2HH1 ARG D 650     -57.742   4.876 -12.302  1.00 76.84 LIG 0.17  HD
ATOM     42 1HH2 ARG D 650     -57.052   6.791  -9.704  1.00 84.76 LIG 0.17  HD
ATOM     43 2HH2 ARG D 650     -56.434   6.069 -10.850  1.00 84.76 LIG 0.17  HD
ENDBRANCH 34 35
ENDBRANCH 33 34
ENDBRANCH 32 33
ENDBRANCH 12 32
ENDBRANCH 9 12
ENDBRANCH 4 8
BRANCH 1 44
ATOM     44  CA  THR D 648     -62.449   9.319  -3.793  1.00 55.33 LIG 0.20  C 
BRANCH 44 45
ATOM     45  CB  THR D 648     -63.775  10.089  -3.522  1.00 57.91 LIG 0.15  C 
ATOM     46  CG2 THR D 648     -64.875   9.137  -3.031  1.00 54.65 LIG 0.04  C 
BRANCH 45 47
ATOM     47 OG1  THR D 648     -63.549  11.104  -2.530  1.00 51.58 LIG-0.39  OA
ATOM     48 HG1  THR D 648     -62.758  11.382  -2.588  1.00 51.58 LIG 0.21  HD
ENDBRANCH 45 47
ENDBRANCH 44 45
BRANCH 44 49
ATOM     49  N   THR D 648     -61.441   9.615  -2.780  1.00 49.85 LIG-0.34  N 
ATOM     50 H    THR D 648     -61.009  10.347  -2.910  1.00 49.85 LIG 0.16  HD
ATOM     51  C   LEU D 647     -61.231   8.799  -1.754  1.00 48.49 LIG 0.24  C 
ATOM     52 O    LEU D 647     -61.813   7.720  -1.624  1.00 50.57 LIG-0.27  OA
BRANCH 51 53
ATOM     53  CA  LEU D 647     -60.233   9.274  -0.710  1.00 48.52 LIG 0.18  C 
BRANCH 53 54
ATOM     54  CB  LEU D 647     -60.962  10.142   0.317  1.00 42.08 LIG 0.04  C 
BRANCH 54 55
ATOM     55  CG  LEU D 647     -60.445  10.149   1.755  1.00 43.63 LIG-0.02  C 
ATOM     56  CD1 LEU D 647     -59.197   9.265   1.870  1.00 34.09 LIG 0.01  C 
ATOM     57  CD2 LEU D 647     -60.151  11.561   2.196  1.00 37.87 LIG 0.01  C 
ENDBRANCH 54 55
ENDBRANCH 53 54
BRANCH 53 58
ATOM     58  N   LEU D 647     -59.117  10.009  -1.301  1.00 49.21 LIG-0.35  N 
ATOM     59  C   LEU D 646     -58.149   9.393  -1.980  1.00 51.75 LIG 0.24  C 
ATOM     60 O    LEU D 646     -58.167   8.188  -2.238  1.00 46.22 LIG-0.27  OA
ATOM     61 H    LEU D 647     -59.144  10.859  -1.172  1.00 49.21 LIG 0.16  HD
BRANCH 59 62
ATOM     62  CA  LEU D 646     -56.996  10.267  -2.454  1.00 53.11 LIG 0.18  C 
BRANCH 62 63
ATOM     63  N   LEU D 646     -55.716   9.585  -2.301  1.00 56.32 LIG-0.35  N 
ATOM     64  C   ILE D 645     -55.268   9.219  -1.104  1.00 63.27 LIG 0.26  C 
ATOM     65 O    ILE D 645     -55.883   9.456  -0.057  1.00 63.46 LIG-0.27  OA
ATOM     66 H    LEU D 646     -55.294   9.447  -3.037  1.00 56.32 LIG 0.16  HD
BRANCH 64 67
ATOM     67  CA  ILE D 645     -53.943   8.454  -1.075  1.00 63.54 LIG 0.40  C 
ATOM     68  N   ILE D 645     -53.511   8.041  -2.409  1.00 63.63 LIG 0.61  N 
BRANCH 67 69
ATOM     69  CB  ILE D 645     -52.906   9.357  -0.381  1.00 61.73 LIG 0.03  C 
ATOM     70  CG2 ILE D 645     -51.490   8.918  -0.771  1.00 57.36 LIG 0.01  C 
BRANCH 69 71
ATOM     71  CG1 ILE D 645     -53.148  10.836  -0.704  1.00 65.03 LIG 0.00  C 
ATOM     72  CD1 ILE D 645     -51.989  11.492  -1.443  1.00 60.49 LIG 0.01  C 
ENDBRANCH 69 71
ENDBRANCH 67 69
ENDBRANCH 64 67
ENDBRANCH 62 63
BRANCH 62 73
ATOM     73  CB  LEU D 646     -57.208  10.680  -3.907  1.00 52.76 LIG 0.04  C 
BRANCH 73 74
ATOM     74  CG  LEU D 646     -56.299  11.806  -4.393  1.00 58.95 LIG-0.02  C 
ATOM     75  CD1 LEU D 646     -56.937  12.534  -5.579  1.00 55.02 LIG 0.01  C 
ATOM     76  CD2 LEU D 646     -56.006  12.768  -3.245  1.00 54.54 LIG 0.01  C 
ENDBRANCH 73 74
ENDBRANCH 62 73
ENDBRANCH 59 62
ENDBRANCH 53 58
ENDBRANCH 51 53
ENDBRANCH 44 49
ENDBRANCH 1 44
TORSDOF 28
ENDMDL
MODEL 17
USER: ADFR SOLUTION from run 57
USER: SCORE 21.725048 LL:  -5.875 LR: -17.295 RR:   0.000 FEB:  -8.943
USER: RMSD 5.672393
USER: SEED 56
USER: STATUS 1 or 2 clusters left
USER: GENES 30
USER: genes 0 Translation |==|  0.51713 0.52876 0.57126
USER: genes 1 Rotation |==|  0.56603 0.58976 0.87793 0.80783
USER: genes 2 Torsion [N]-CA--C-[N] |==|  0.55326
USER: genes 3 Torsion [C]-N--CA-[CB] |==|  0.23885
USER: genes 4 Torsion [N]-CA--C-[N] |==|  0.04683
USER: genes 5 Torsion [C]-N--CA-[CB] |==|  0.20606
USER: genes 6 Torsion [N]-CA--C-[O] |==|  0.04015
USER: genes 7 Torsion [N]-CA--CB-[CG] |==|  0.67399
USER: genes 8 Torsion [CA]-CB--CG-[CD] |==|  0.86533
USER: genes 9 Torsion [CB]-CG--CD-[NE] |==|  0.36015
USER: genes 10 Torsion [CG]-CD--NE-[HE] |==|  0.06591
USER: genes 11 Torsion [N]-CA--CB-[CG] |==|  0.55725
USER: genes 12 Torsion [CA]-CB--CG-[CD] |==|  0.07236
USER: genes 13 Torsion [CB]-CG--CD-[NE] |==|  0.50813
USER: genes 14 Torsion [CG]-CD--NE-[CZ] |==|  0.23095
USER: genes 15 Torsion [N]-C--CA-[N] |==|  0.21140
USER: genes 16 Torsion [C]-CA--CB-[CG2] |==|  0.35188
USER: genes 17 Torsion [CA]-CB--OG1-[HG1] |==|  0.08070
USER: genes 18 Torsion [C]-CA--N-[C] |==|  0.61744
USER: genes 19 Torsion [N]-C--CA-[N] |==|  0.89227
USER: genes 20 Torsion [C]-CA--CB-[CG] |==|  0.20070
USER: genes 21 Torsion [CA]-CB--CG-[CD1] |==|  0.17151
USER: genes 22 Torsion [C]-CA--N-[C] |==|  0.73995
USER: genes 23 Torsion [N]-C--CA-[N] |==|  0.88386
USER: genes 24 Torsion [C]-CA--N-[C] |==|  0.83454
USER: genes 25 Torsion [N]-C--CA-[N] |==|  0.76286
USER: genes 26 Torsion [C]-CA--CB-[CG2] |==|  0.30180
USER: genes 27 Torsion [CA]-CB--CG1-[CD1] |==|  0.35958
USER: genes 28 Torsion [C]-CA--CB-[CG] |==|  0.94521
USER: genes 29 Torsion [CA]-CB--CG-[CD1] |==|  0.31736
ROOT
ATOM      1  C   THR D 648     -62.571   9.298  -5.176  1.00 57.47 LIG 0.24  C 
ATOM      2 O    THR D 648     -63.176  10.231  -5.709  1.00 58.33 LIG-0.27  OA
ATOM      3  N   PRO D 649     -61.803   8.440  -5.870  1.00 55.77 LIG-0.34  N 
ATOM      4  CA  PRO D 649     -61.519   8.620  -7.301  1.00 54.43 LIG 0.18  C 
ATOM      5  CB  PRO D 649     -60.299   7.719  -7.518  1.00 56.30 LIG 0.04  C 
ATOM      6  CG  PRO D 649     -60.438   6.646  -6.486  1.00 52.90 LIG 0.02  C 
ATOM      7  CD  PRO D 649     -60.995   7.353  -5.281  1.00 52.65 LIG 0.13  C 
ENDROOT
BRANCH 4 8
ATOM      8  C   PRO D 649     -62.635   8.213  -8.270  1.00 62.44 LIG 0.24  C 
ATOM      9  N   ARG D 650     -62.263   7.996  -9.532  1.00 65.13 LIG-0.35  N 
ATOM     10 H    ARG D 650     -61.512   8.261  -9.856  1.00 65.13 LIG 0.16  HD
ATOM     11 O    PRO D 649     -63.794   8.098  -7.874  1.00 64.48 LIG-0.27  OA
BRANCH 9 12
ATOM     12  CA  ARG D 650     -63.104   7.280 -10.494  1.00 68.90 LIG 0.18  C 
BRANCH 12 13
ATOM     13  C   ARG D 650     -62.207   6.606 -11.534  1.00 70.53 LIG 0.24  C 
ATOM     14  N   ARG D 651     -60.920   6.470 -11.232  1.00 72.55 LIG-0.35  N 
ATOM     15 H    ARG D 651     -60.570   6.676 -10.473  1.00 72.55 LIG 0.16  HD
ATOM     16 O    ARG D 650     -62.676   6.224 -12.609  1.00 68.24 LIG-0.27  OA
BRANCH 14 17
ATOM     17  CA  ARG D 651     -59.986   5.937 -12.220  1.00 72.50 LIG 0.16  C 
BRANCH 17 18
ATOM     18  C   ARG D 651     -58.686   5.480 -11.553  1.00 69.52 LIG 0.22  C 
ATOM     19 O    ARG D 651     -58.615   5.332 -10.328  1.00 68.10 LIG-0.29  OA
ENDBRANCH 17 18
BRANCH 17 20
ATOM     20  CB  ARG D 651     -59.672   6.972 -13.321  1.00 76.74 LIG 0.04  C 
BRANCH 20 21
ATOM     21  CG  ARG D 651     -60.067   6.656 -14.807  1.00 75.60 LIG 0.02  C 
BRANCH 21 22
ATOM     22  CD  ARG D 651     -59.663   5.264 -15.362  1.00 74.66 LIG 0.14  C 
BRANCH 22 23
ATOM     23  NE  ARG D 651     -60.744   4.513 -16.012  1.00 75.25 LIG-0.23  N 
ATOM     24 HE   ARG D 651     -61.404   4.968 -16.325  1.00 75.25 LIG 0.18  HD
ATOM     25  CZ  ARG D 651     -60.794   3.191 -16.161  1.00 78.75 LIG 0.67  C 
ATOM     26  NH2 ARG D 651     -61.835   2.631 -16.770  1.00 79.25 LIG-0.23  N 
ATOM     27  NH1 ARG D 651     -59.807   2.430 -15.725  1.00 78.43 LIG-0.23  N 
ATOM     28 2HH2 ARG D 651     -61.868   1.778 -16.866  1.00 79.25 LIG 0.17  HD
ATOM     29 1HH2 ARG D 651     -62.475   3.123 -17.066  1.00 79.25 LIG 0.17  HD
ATOM     30 2HH1 ARG D 651     -59.845   1.577 -15.825  1.00 78.43 LIG 0.17  HD
ATOM     31 1HH1 ARG D 651     -59.126   2.788 -15.342  1.00 78.43 LIG 0.17  HD
ENDBRANCH 22 23
ENDBRANCH 21 22
ENDBRANCH 20 21
ENDBRANCH 17 20
ENDBRANCH 14 17
ENDBRANCH 12 13
BRANCH 12 32
ATOM     32  CB  ARG D 650     -64.097   8.232 -11.178  1.00 66.96 LIG 0.04  C 
BRANCH 32 33
ATOM     33  CG  ARG D 650     -65.316   7.557 -11.805  1.00 73.73 LIG 0.02  C 
BRANCH 33 34
ATOM     34  CD  ARG D 650     -65.639   6.227 -11.110  1.00 75.05 LIG 0.14  C 
BRANCH 34 35
ATOM     35  NE  ARG D 650     -66.750   5.502 -11.705  1.00 81.10 LIG-0.23  N 
ATOM     36 HE   ARG D 650     -67.528   5.592 -11.350  1.00 81.10 LIG 0.18  HD
ATOM     37  CZ  ARG D 650     -66.637   4.708 -12.768  1.00 84.47 LIG 0.67  C 
ATOM     38  NH1 ARG D 650     -65.454   4.533 -13.344  1.00 76.84 LIG-0.23  N 
ATOM     39  NH2 ARG D 650     -67.706   4.081 -13.260  1.00 84.76 LIG-0.23  N 
ATOM     40 1HH1 ARG D 650     -64.760   4.932 -13.031  1.00 76.84 LIG 0.17  HD
ATOM     41 2HH1 ARG D 650     -65.382   4.020 -14.031  1.00 76.84 LIG 0.17  HD
ATOM     42 1HH2 ARG D 650     -68.475   4.187 -12.891  1.00 84.76 LIG 0.17  HD
ATOM     43 2HH2 ARG D 650     -67.625   3.570 -13.947  1.00 84.76 LIG 0.17  HD
ENDBRANCH 34 35
ENDBRANCH 33 34
ENDBRANCH 32 33
ENDBRANCH 12 32
ENDBRANCH 9 12
ENDBRANCH 4 8
BRANCH 1 44
ATOM     44  CA  THR D 648     -62.637   9.094  -3.661  1.00 55.33 LIG 0.20  C 
BRANCH 44 45
ATOM     45  CB  THR D 648     -63.888   9.800  -3.060  1.00 57.91 LIG 0.15  C 
ATOM     46  CG2 THR D 648     -64.725   8.824  -2.222  1.00 54.65 LIG 0.04  C 
BRANCH 45 47
ATOM     47 OG1  THR D 648     -63.471  10.898  -2.233  1.00 51.58 LIG-0.39  OA
ATOM     48 HG1  THR D 648     -62.741  11.203  -2.517  1.00 51.58 LIG 0.21  HD
ENDBRANCH 45 47
ENDBRANCH 44 45
BRANCH 44 49
ATOM     49  N   THR D 648     -61.403   9.586  -3.059  1.00 49.85 LIG-0.34  N 
ATOM     50 H    THR D 648     -61.122  10.332  -3.381  1.00 49.85 LIG 0.16  HD
ATOM     51  C   LEU D 647     -60.788   8.913  -2.094  1.00 48.49 LIG 0.24  C 
ATOM     52 O    LEU D 647     -61.170   7.812  -1.694  1.00 50.57 LIG-0.27  OA
BRANCH 51 53
ATOM     53  CA  LEU D 647     -59.573   9.586  -1.474  1.00 48.52 LIG 0.18  C 
BRANCH 53 54
ATOM     54  CB  LEU D 647     -60.041  10.551  -0.384  1.00 42.08 LIG 0.04  C 
BRANCH 54 55
ATOM     55  CG  LEU D 647     -60.574   9.963   0.923  1.00 43.63 LIG-0.02  C 
ATOM     56  CD1 LEU D 647     -59.476   9.151   1.620  1.00 34.09 LIG 0.01  C 
ATOM     57  CD2 LEU D 647     -61.085  11.064   1.819  1.00 37.87 LIG 0.01  C 
ENDBRANCH 54 55
ENDBRANCH 53 54
BRANCH 53 58
ATOM     58  N   LEU D 647     -58.759  10.288  -2.464  1.00 49.21 LIG-0.35  N 
ATOM     59  C   LEU D 646     -57.717   9.708  -3.058  1.00 51.75 LIG 0.24  C 
ATOM     60 O    LEU D 646     -57.417   8.524  -2.890  1.00 46.22 LIG-0.27  OA
ATOM     61 H    LEU D 647     -59.014  11.094  -2.624  1.00 49.21 LIG 0.16  HD
BRANCH 59 62
ATOM     62  CA  LEU D 646     -56.897  10.587  -3.992  1.00 53.11 LIG 0.18  C 
BRANCH 62 63
ATOM     63  N   LEU D 646     -57.755  11.431  -4.816  1.00 56.32 LIG-0.35  N 
ATOM     64  C   ILE D 645     -58.657  10.903  -5.638  1.00 63.27 LIG 0.26  C 
ATOM     65 O    ILE D 645     -58.804   9.683  -5.778  1.00 63.46 LIG-0.27  OA
ATOM     66 H    LEU D 646     -57.624  12.275  -4.720  1.00 56.32 LIG 0.16  HD
BRANCH 64 67
ATOM     67  CA  ILE D 645     -59.542  11.889  -6.403  1.00 63.54 LIG 0.40  C 
ATOM     68  N   ILE D 645     -60.712  12.303  -5.629  1.00 63.63 LIG 0.61  N 
BRANCH 67 69
ATOM     69  CB  ILE D 645     -58.658  13.085  -6.806  1.00 61.73 LIG 0.03  C 
ATOM     70  CG2 ILE D 645     -58.407  13.061  -8.317  1.00 57.36 LIG 0.01  C 
BRANCH 69 71
ATOM     71  CG1 ILE D 645     -59.279  14.413  -6.357  1.00 65.03 LIG 0.00  C 
ATOM     72  CD1 ILE D 645     -58.311  15.305  -5.591  1.00 60.49 LIG 0.01  C 
ENDBRANCH 69 71
ENDBRANCH 67 69
ENDBRANCH 64 67
ENDBRANCH 62 63
BRANCH 62 73
ATOM     73  CB  LEU D 646     -55.920  11.442  -3.191  1.00 52.76 LIG 0.04  C 
BRANCH 73 74
ATOM     74  CG  LEU D 646     -56.272  11.605  -1.715  1.00 58.95 LIG-0.02  C 
ATOM     75  CD1 LEU D 646     -55.217  10.930  -0.836  1.00 55.02 LIG 0.01  C 
ATOM     76  CD2 LEU D 646     -56.412  13.087  -1.376  1.00 54.54 LIG 0.01  C 
ENDBRANCH 73 74
ENDBRANCH 62 73
ENDBRANCH 59 62
ENDBRANCH 53 58
ENDBRANCH 51 53
ENDBRANCH 44 49
ENDBRANCH 1 44
TORSDOF 28
ENDMDL
MODEL 18
USER: ADFR SOLUTION from run 77
USER: SCORE 21.111160 LL:  -5.334 LR: -17.277 RR:   0.000 FEB:  -8.924
USER: RMSD 5.064124
USER: SEED 76
USER: STATUS no improvement in best in 6 clusters for 5 generations
USER: GENES 30
USER: genes 0 Translation |==|  0.46205 0.48994 0.58230
USER: genes 1 Rotation |==|  0.32701 0.49152 0.31645 0.93164
USER: genes 2 Torsion [N]-CA--C-[N] |==|  0.77590
USER: genes 3 Torsion [C]-N--CA-[CB] |==|  0.56455
USER: genes 4 Torsion [N]-CA--C-[N] |==|  0.82773
USER: genes 5 Torsion [C]-N--CA-[CB] |==|  0.79819
USER: genes 6 Torsion [N]-CA--C-[O] |==|  0.39686
USER: genes 7 Torsion [N]-CA--CB-[CG] |==|  0.49485
USER: genes 8 Torsion [CA]-CB--CG-[CD] |==|  0.58055
USER: genes 9 Torsion [CB]-CG--CD-[NE] |==|  0.29148
USER: genes 10 Torsion [CG]-CD--NE-[HE] |==|  0.78048
USER: genes 11 Torsion [N]-CA--CB-[CG] |==|  0.50146
USER: genes 12 Torsion [CA]-CB--CG-[CD] |==|  0.09788
USER: genes 13 Torsion [CB]-CG--CD-[NE] |==|  0.67513
USER: genes 14 Torsion [CG]-CD--NE-[CZ] |==|  0.43763
USER: genes 15 Torsion [N]-C--CA-[N] |==|  0.37757
USER: genes 16 Torsion [C]-CA--CB-[CG2] |==|  0.23897
USER: genes 17 Torsion [CA]-CB--OG1-[HG1] |==|  0.92619
USER: genes 18 Torsion [C]-CA--N-[C] |==|  0.83898
USER: genes 19 Torsion [N]-C--CA-[N] |==|  0.01002
USER: genes 20 Torsion [C]-CA--CB-[CG] |==|  0.60465
USER: genes 21 Torsion [CA]-CB--CG-[CD1] |==|  0.24836
USER: genes 22 Torsion [C]-CA--N-[C] |==|  0.66367
USER: genes 23 Torsion [N]-C--CA-[N] |==|  0.83068
USER: genes 24 Torsion [C]-CA--N-[C] |==|  0.69925
USER: genes 25 Torsion [N]-C--CA-[N] |==|  0.92851
USER: genes 26 Torsion [C]-CA--CB-[CG2] |==|  0.63345
USER: genes 27 Torsion [CA]-CB--CG1-[CD1] |==|  0.72866
USER: genes 28 Torsion [C]-CA--CB-[CG] |==|  0.24485
USER: genes 29 Torsion [CA]-CB--CG-[CD1] |==|  0.75328
ROOT
ATOM      1  C   THR D 648     -63.934   8.687  -4.878  1.00 57.47 LIG 0.24  C 
ATOM      2 O    THR D 648     -63.222   7.716  -5.142  1.00 58.33 LIG-0.27  OA
ATOM      3  N   PRO D 649     -65.274   8.651  -4.973  1.00 55.77 LIG-0.34  N 
ATOM      4  CA  PRO D 649     -66.008   7.414  -5.276  1.00 54.43 LIG 0.18  C 
ATOM      5  CB  PRO D 649     -67.437   7.754  -4.837  1.00 56.30 LIG 0.04  C 
ATOM      6  CG  PRO D 649     -67.537   9.236  -5.004  1.00 52.90 LIG 0.02  C 
ATOM      7  CD  PRO D 649     -66.184   9.753  -4.599  1.00 52.65 LIG 0.13  C 
ENDROOT
BRANCH 4 8
ATOM      8  C   PRO D 649     -66.016   6.972  -6.745  1.00 62.44 LIG 0.24  C 
ATOM      9  N   ARG D 650     -66.895   7.587  -7.536  1.00 65.13 LIG-0.35  N 
ATOM     10 H    ARG D 650     -67.562   8.041  -7.238  1.00 65.13 LIG 0.16  HD
ATOM     11 O    PRO D 649     -65.241   6.101  -7.138  1.00 64.48 LIG-0.27  OA
BRANCH 9 12
ATOM     12  CA  ARG D 650     -66.809   7.547  -8.998  1.00 68.90 LIG 0.18  C 
BRANCH 12 13
ATOM     13  C   ARG D 650     -65.336   7.542  -9.409  1.00 70.53 LIG 0.24  C 
ATOM     14  N   ARG D 651     -64.605   8.599  -9.068  1.00 72.55 LIG-0.35  N 
ATOM     15 H    ARG D 651     -64.884   9.252  -8.583  1.00 72.55 LIG 0.16  HD
ATOM     16 O    ARG D 650     -64.868   6.594 -10.043  1.00 68.24 LIG-0.27  OA
BRANCH 14 17
ATOM     17  CA  ARG D 651     -63.221   8.712  -9.523  1.00 72.50 LIG 0.16  C 
BRANCH 17 18
ATOM     18  C   ARG D 651     -63.120   8.478 -11.031  1.00 69.52 LIG 0.22  C 
ATOM     19 O    ARG D 651     -62.328   9.125 -11.726  1.00 68.10 LIG-0.29  OA
ENDBRANCH 17 18
BRANCH 17 20
ATOM     20  CB  ARG D 651     -62.297   7.726  -8.778  1.00 76.74 LIG 0.04  C 
BRANCH 20 21
ATOM     21  CG  ARG D 651     -60.774   7.664  -9.158  1.00 75.60 LIG 0.02  C 
BRANCH 21 22
ATOM     22  CD  ARG D 651     -60.052   6.305  -8.953  1.00 74.66 LIG 0.14  C 
BRANCH 22 23
ATOM     23  NE  ARG D 651     -59.783   5.550 -10.183  1.00 75.25 LIG-0.23  N 
ATOM     24 HE   ARG D 651     -60.439   5.111 -10.524  1.00 75.25 LIG 0.18  HD
ATOM     25  CZ  ARG D 651     -58.614   5.486 -10.816  1.00 78.75 LIG 0.67  C 
ATOM     26  NH2 ARG D 651     -58.499   4.763 -11.925  1.00 79.25 LIG-0.23  N 
ATOM     27  NH1 ARG D 651     -57.568   6.151 -10.361  1.00 78.43 LIG-0.23  N 
ATOM     28 2HH2 ARG D 651     -57.745   4.720 -12.335  1.00 79.25 LIG 0.17  HD
ATOM     29 1HH2 ARG D 651     -59.180   4.337 -12.233  1.00 79.25 LIG 0.17  HD
ATOM     30 2HH1 ARG D 651     -56.816   6.106 -10.775  1.00 78.43 LIG 0.17  HD
ATOM     31 1HH1 ARG D 651     -57.640   6.631  -9.651  1.00 78.43 LIG 0.17  HD
ENDBRANCH 22 23
ENDBRANCH 21 22
ENDBRANCH 20 21
ENDBRANCH 17 20
ENDBRANCH 14 17
ENDBRANCH 12 13
BRANCH 12 32
ATOM     32  CB  ARG D 650     -67.539   8.743  -9.629  1.00 66.96 LIG 0.04  C 
BRANCH 32 33
ATOM     33  CG  ARG D 650     -67.516   8.784 -11.155  1.00 73.73 LIG 0.02  C 
BRANCH 33 34
ATOM     34  CD  ARG D 650     -67.587   7.372 -11.755  1.00 75.05 LIG 0.14  C 
BRANCH 34 35
ATOM     35  NE  ARG D 650     -66.412   6.997 -12.525  1.00 81.10 LIG-0.23  N 
ATOM     36 HE   ARG D 650     -65.920   7.626 -12.844  1.00 81.10 LIG 0.18  HD
ATOM     37  CZ  ARG D 650     -66.051   5.738 -12.766  1.00 84.47 LIG 0.67  C 
ATOM     38  NH1 ARG D 650     -66.785   4.735 -12.302  1.00 76.84 LIG-0.23  N 
ATOM     39  NH2 ARG D 650     -64.955   5.473 -13.478  1.00 84.76 LIG-0.23  N 
ATOM     40 1HH1 ARG D 650     -67.495   4.898 -11.844  1.00 76.84 LIG 0.17  HD
ATOM     41 2HH1 ARG D 650     -66.551   3.922 -12.458  1.00 76.84 LIG 0.17  HD
ATOM     42 1HH2 ARG D 650     -64.475   6.118 -13.784  1.00 84.76 LIG 0.17  HD
ATOM     43 2HH2 ARG D 650     -64.727   4.658 -13.630  1.00 84.76 LIG 0.17  HD
ENDBRANCH 34 35
ENDBRANCH 33 34
ENDBRANCH 32 33
ENDBRANCH 12 32
ENDBRANCH 9 12
ENDBRANCH 4 8
BRANCH 1 44
ATOM     44  CA  THR D 648     -63.313   9.993  -4.381  1.00 55.33 LIG 0.20  C 
BRANCH 44 45
ATOM     45  CB  THR D 648     -62.755  10.830  -5.569  1.00 57.91 LIG 0.15  C 
ATOM     46  CG2 THR D 648     -63.850  11.709  -6.188  1.00 54.65 LIG 0.04  C 
BRANCH 45 47
ATOM     47 OG1  THR D 648     -61.680  11.665  -5.108  1.00 51.58 LIG-0.39  OA
ATOM     48 HG1  THR D 648     -61.783  11.829  -4.290  1.00 51.58 LIG 0.21  HD
ENDBRANCH 45 47
ENDBRANCH 44 45
BRANCH 44 49
ATOM     49  N   THR D 648     -62.271   9.685  -3.407  1.00 49.85 LIG-0.34  N 
ATOM     50 H    THR D 648     -61.492   9.988  -3.610  1.00 49.85 LIG 0.16  HD
ATOM     51  C   LEU D 647     -62.536   8.993  -2.305  1.00 48.49 LIG 0.24  C 
ATOM     52 O    LEU D 647     -63.645   8.509  -2.066  1.00 50.57 LIG-0.27  OA
BRANCH 51 53
ATOM     53  CA  LEU D 647     -61.391   8.835  -1.318  1.00 48.52 LIG 0.18  C 
BRANCH 53 54
ATOM     54  CB  LEU D 647     -61.854   9.305   0.061  1.00 42.08 LIG 0.04  C 
BRANCH 54 55
ATOM     55  CG  LEU D 647     -60.858  10.061   0.941  1.00 43.63 LIG-0.02  C 
ATOM     56  CD1 LEU D 647     -60.945  11.566   0.660  1.00 34.09 LIG 0.01  C 
ATOM     57  CD2 LEU D 647     -61.120   9.765   2.396  1.00 37.87 LIG 0.01  C 
ENDBRANCH 54 55
ENDBRANCH 53 54
BRANCH 53 58
ATOM     58  N   LEU D 647     -60.194   9.565  -1.732  1.00 49.21 LIG-0.35  N 
ATOM     59  C   LEU D 646     -59.030   8.950  -1.937  1.00 51.75 LIG 0.24  C 
ATOM     60 O    LEU D 646     -58.894   7.726  -1.884  1.00 46.22 LIG-0.27  OA
ATOM     61 H    LEU D 647     -60.312  10.411  -1.830  1.00 49.21 LIG 0.16  HD
BRANCH 59 62
ATOM     62  CA  LEU D 646     -57.842   9.845  -2.266  1.00 53.11 LIG 0.18  C 
BRANCH 62 63
ATOM     63  N   LEU D 646     -58.069  10.595  -3.495  1.00 56.32 LIG-0.35  N 
ATOM     64  C   ILE D 645     -57.411  10.302  -4.613  1.00 63.27 LIG 0.26  C 
ATOM     65 O    ILE D 645     -56.557   9.409  -4.675  1.00 63.46 LIG-0.27  OA
ATOM     66 H    LEU D 646     -58.650  11.225  -3.428  1.00 56.32 LIG 0.16  HD
BRANCH 64 67
ATOM     67  CA  ILE D 645     -57.779  11.118  -5.855  1.00 63.54 LIG 0.40  C 
ATOM     68  N   ILE D 645     -59.143  11.641  -5.793  1.00 63.63 LIG 0.61  N 
BRANCH 67 69
ATOM     69  CB  ILE D 645     -56.731  12.238  -5.997  1.00 61.73 LIG 0.03  C 
ATOM     70  CG2 ILE D 645     -57.433  13.580  -6.233  1.00 57.36 LIG 0.01  C 
BRANCH 69 71
ATOM     71  CG1 ILE D 645     -55.805  12.293  -4.776  1.00 65.03 LIG 0.00  C 
ATOM     72  CD1 ILE D 645     -56.213  13.345  -3.753  1.00 60.49 LIG 0.01  C 
ENDBRANCH 69 71
ENDBRANCH 67 69
ENDBRANCH 64 67
ENDBRANCH 62 63
BRANCH 62 73
ATOM     73  CB  LEU D 646     -57.560  10.795  -1.106  1.00 52.76 LIG 0.04  C 
BRANCH 73 74
ATOM     74  CG  LEU D 646     -56.617  10.242  -0.041  1.00 58.95 LIG-0.02  C 
ATOM     75  CD1 LEU D 646     -57.407   9.486   1.031  1.00 55.02 LIG 0.01  C 
ATOM     76  CD2 LEU D 646     -55.567   9.346  -0.691  1.00 54.54 LIG 0.01  C 
ENDBRANCH 73 74
ENDBRANCH 62 73
ENDBRANCH 59 62
ENDBRANCH 53 58
ENDBRANCH 51 53
ENDBRANCH 44 49
ENDBRANCH 1 44
TORSDOF 28
ENDMDL
MODEL 19
USER: ADFR SOLUTION from run 6
USER: SCORE 19.963423 LL:  -5.160 LR: -17.229 RR:   0.000 FEB:  -8.877
USER: RMSD 5.996189
USER: SEED 665986
USER: STATUS 1 or 2 clusters left
USER: GENES 30
USER: genes 0 Translation |==|  0.42615 0.64281 0.60758
USER: genes 1 Rotation |==|  0.54097 0.71784 0.94817 0.50399
USER: genes 2 Torsion [N]-CA--C-[N] |==|  0.53953
USER: genes 3 Torsion [C]-N--CA-[CB] |==|  0.28091
USER: genes 4 Torsion [N]-CA--C-[N] |==|  0.39054
USER: genes 5 Torsion [C]-N--CA-[CB] |==|  0.42387
USER: genes 6 Torsion [N]-CA--C-[O] |==|  0.06313
USER: genes 7 Torsion [N]-CA--CB-[CG] |==|  0.33699
USER: genes 8 Torsion [CA]-CB--CG-[CD] |==|  0.26798
USER: genes 9 Torsion [CB]-CG--CD-[NE] |==|  0.70987
USER: genes 10 Torsion [CG]-CD--NE-[HE] |==|  0.26810
USER: genes 11 Torsion [N]-CA--CB-[CG] |==|  0.23261
USER: genes 12 Torsion [CA]-CB--CG-[CD] |==|  0.27840
USER: genes 13 Torsion [CB]-CG--CD-[NE] |==|  0.30018
USER: genes 14 Torsion [CG]-CD--NE-[CZ] |==|  0.48448
USER: genes 15 Torsion [N]-C--CA-[N] |==|  0.83480
USER: genes 16 Torsion [C]-CA--CB-[CG2] |==|  0.11022
USER: genes 17 Torsion [CA]-CB--OG1-[HG1] |==|  0.60384
USER: genes 18 Torsion [C]-CA--N-[C] |==|  0.79120
USER: genes 19 Torsion [N]-C--CA-[N] |==|  0.89652
USER: genes 20 Torsion [C]-CA--CB-[CG] |==|  0.61202
USER: genes 21 Torsion [CA]-CB--CG-[CD1] |==|  0.36018
USER: genes 22 Torsion [C]-CA--N-[C] |==|  0.57967
USER: genes 23 Torsion [N]-C--CA-[N] |==|  0.35710
USER: genes 24 Torsion [C]-CA--N-[C] |==|  0.80924
USER: genes 25 Torsion [N]-C--CA-[N] |==|  0.97370
USER: genes 26 Torsion [C]-CA--CB-[CG2] |==|  0.59596
USER: genes 27 Torsion [CA]-CB--CG1-[CD1] |==|  0.32030
USER: genes 28 Torsion [C]-CA--CB-[CG] |==|  0.02859
USER: genes 29 Torsion [CA]-CB--CG-[CD1] |==|  0.30792
ROOT
ATOM      1  C   THR D 648     -64.823  11.094  -4.195  1.00 57.47 LIG 0.24  C 
ATOM      2 O    THR D 648     -65.947  10.605  -4.325  1.00 58.33 LIG-0.27  OA
ATOM      3  N   PRO D 649     -63.961  11.215  -5.220  1.00 55.77 LIG-0.34  N 
ATOM      4  CA  PRO D 649     -64.336  10.892  -6.604  1.00 54.43 LIG 0.18  C 
ATOM      5  CB  PRO D 649     -63.245  11.594  -7.420  1.00 56.30 LIG 0.04  C 
ATOM      6  CG  PRO D 649     -62.058  11.621  -6.513  1.00 52.90 LIG 0.02  C 
ATOM      7  CD  PRO D 649     -62.634  11.859  -5.144  1.00 52.65 LIG 0.13  C 
ENDROOT
BRANCH 4 8
ATOM      8  C   PRO D 649     -64.368   9.403  -6.968  1.00 62.44 LIG 0.24  C 
ATOM      9  N   ARG D 650     -64.415   9.119  -8.270  1.00 65.13 LIG-0.35  N 
ATOM     10 H    ARG D 650     -64.627   9.696  -8.872  1.00 65.13 LIG 0.16  HD
ATOM     11 O    PRO D 649     -64.347   8.544  -6.086  1.00 64.48 LIG-0.27  OA
BRANCH 9 12
ATOM     12  CA  ARG D 650     -64.106   7.790  -8.803  1.00 68.90 LIG 0.18  C 
BRANCH 12 13
ATOM     13  C   ARG D 650     -63.239   7.946 -10.054  1.00 70.53 LIG 0.24  C 
ATOM     14  N   ARG D 651     -62.251   7.072 -10.223  1.00 72.55 LIG-0.35  N 
ATOM     15 H    ARG D 651     -62.104   6.394  -9.714  1.00 72.55 LIG 0.16  HD
ATOM     16 O    ARG D 650     -63.456   8.858 -10.855  1.00 68.24 LIG-0.27  OA
BRANCH 14 17
ATOM     17  CA  ARG D 651     -61.317   7.226 -11.335  1.00 72.50 LIG 0.16  C 
BRANCH 17 18
ATOM     18  C   ARG D 651     -61.876   6.594 -12.611  1.00 69.52 LIG 0.22  C 
ATOM     19 O    ARG D 651     -63.091   6.422 -12.758  1.00 68.10 LIG-0.29  OA
ENDBRANCH 17 18
BRANCH 17 20
ATOM     20  CB  ARG D 651     -59.940   6.610 -11.008  1.00 76.74 LIG 0.04  C 
BRANCH 20 21
ATOM     21  CG  ARG D 651     -59.370   5.471 -11.927  1.00 75.60 LIG 0.02  C 
BRANCH 21 22
ATOM     22  CD  ARG D 651     -58.376   5.898 -13.042  1.00 74.66 LIG 0.14  C 
BRANCH 22 23
ATOM     23  NE  ARG D 651     -58.933   5.918 -14.400  1.00 75.25 LIG-0.23  N 
ATOM     24 HE   ARG D 651     -59.210   6.676 -14.698  1.00 75.25 LIG 0.18  HD
ATOM     25  CZ  ARG D 651     -59.047   4.868 -15.210  1.00 78.75 LIG 0.67  C 
ATOM     26  NH2 ARG D 651     -59.573   5.018 -16.421  1.00 79.25 LIG-0.23  N 
ATOM     27  NH1 ARG D 651     -58.623   3.677 -14.827  1.00 78.43 LIG-0.23  N 
ATOM     28 2HH2 ARG D 651     -59.648   4.341 -16.945  1.00 79.25 LIG 0.17  HD
ATOM     29 1HH2 ARG D 651     -59.840   5.794 -16.680  1.00 79.25 LIG 0.17  HD
ATOM     30 2HH1 ARG D 651     -58.699   3.003 -15.355  1.00 78.43 LIG 0.17  HD
ATOM     31 1HH1 ARG D 651     -58.270   3.577 -14.049  1.00 78.43 LIG 0.17  HD
ENDBRANCH 22 23
ENDBRANCH 21 22
ENDBRANCH 20 21
ENDBRANCH 17 20
ENDBRANCH 14 17
ENDBRANCH 12 13
BRANCH 12 32
ATOM     32  CB  ARG D 650     -65.390   7.014  -9.134  1.00 66.96 LIG 0.04  C 
BRANCH 32 33
ATOM     33  CG  ARG D 650     -65.999   7.319 -10.501  1.00 73.73 LIG 0.02  C 
BRANCH 33 34
ATOM     34  CD  ARG D 650     -65.639   6.236 -11.528  1.00 75.05 LIG 0.14  C 
BRANCH 34 35
ATOM     35  NE  ARG D 650     -66.751   5.375 -11.895  1.00 81.10 LIG-0.23  N 
ATOM     36 HE   ARG D 650     -67.494   5.473 -11.473  1.00 81.10 LIG 0.18  HD
ATOM     37  CZ  ARG D 650     -66.690   4.443 -12.844  1.00 84.47 LIG 0.67  C 
ATOM     38  NH1 ARG D 650     -65.561   4.250 -13.514  1.00 76.84 LIG-0.23  N 
ATOM     39  NH2 ARG D 650     -67.757   3.695 -13.127  1.00 84.76 LIG-0.23  N 
ATOM     40 1HH1 ARG D 650     -64.868   4.727 -13.336  1.00 76.84 LIG 0.17  HD
ATOM     41 2HH1 ARG D 650     -65.522   3.648 -14.128  1.00 76.84 LIG 0.17  HD
ATOM     42 1HH2 ARG D 650     -68.492   3.812 -12.695  1.00 84.76 LIG 0.17  HD
ATOM     43 2HH2 ARG D 650     -67.710   3.095 -13.741  1.00 84.76 LIG 0.17  HD
ENDBRANCH 34 35
ENDBRANCH 33 34
ENDBRANCH 32 33
ENDBRANCH 12 32
ENDBRANCH 9 12
ENDBRANCH 4 8
BRANCH 1 44
ATOM     44  CA  THR D 648     -64.363  11.634  -2.840  1.00 55.33 LIG 0.20  C 
BRANCH 44 45
ATOM     45  CB  THR D 648     -64.145  13.175  -2.900  1.00 57.91 LIG 0.15  C 
ATOM     46  CG2 THR D 648     -65.236  13.854  -3.740  1.00 54.65 LIG 0.04  C 
BRANCH 45 47
ATOM     47 OG1  THR D 648     -64.165  13.717  -1.569  1.00 51.58 LIG-0.39  OA
ATOM     48 HG1  THR D 648     -64.547  14.465  -1.577  1.00 51.58 LIG 0.21  HD
ENDBRANCH 45 47
ENDBRANCH 44 45
BRANCH 44 49
ATOM     49  N   THR D 648     -63.146  10.936  -2.437  1.00 49.85 LIG-0.34  N 
ATOM     50 H    THR D 648     -62.426  11.399  -2.520  1.00 49.85 LIG 0.16  HD
ATOM     51  C   LEU D 647     -63.182   9.689  -1.982  1.00 48.49 LIG 0.24  C 
ATOM     52 O    LEU D 647     -64.216   9.021  -1.935  1.00 50.57 LIG-0.27  OA
BRANCH 51 53
ATOM     53  CA  LEU D 647     -61.863   9.115  -1.491  1.00 48.52 LIG 0.18  C 
BRANCH 53 54
ATOM     54  CB  LEU D 647     -61.660   9.513  -0.029  1.00 42.08 LIG 0.04  C 
BRANCH 54 55
ATOM     55  CG  LEU D 647     -60.258   9.925   0.422  1.00 43.63 LIG-0.02  C 
ATOM     56  CD1 LEU D 647     -60.318  11.260   1.173  1.00 34.09 LIG 0.01  C 
ATOM     57  CD2 LEU D 647     -59.650   8.845   1.282  1.00 37.87 LIG 0.01  C 
ENDBRANCH 54 55
ENDBRANCH 53 54
BRANCH 53 58
ATOM     58  N   LEU D 647     -60.728   9.552  -2.303  1.00 49.21 LIG-0.35  N 
ATOM     59  C   LEU D 646     -59.634   8.805  -2.445  1.00 51.75 LIG 0.24  C 
ATOM     60 O    LEU D 646     -59.531   7.665  -1.987  1.00 46.22 LIG-0.27  OA
ATOM     61 H    LEU D 647     -60.834  10.321  -2.672  1.00 49.21 LIG 0.16  HD
BRANCH 59 62
ATOM     62  CA  LEU D 646     -58.490   9.426  -3.234  1.00 53.11 LIG 0.18  C 
BRANCH 62 63
ATOM     63  N   LEU D 646     -57.235   9.351  -2.496  1.00 56.32 LIG-0.35  N 
ATOM     64  C   ILE D 645     -57.040  10.067  -1.393  1.00 63.27 LIG 0.26  C 
ATOM     65 O    ILE D 645     -57.885  10.851  -0.944  1.00 63.46 LIG-0.27  OA
ATOM     66 H    LEU D 646     -56.652   8.817  -2.834  1.00 56.32 LIG 0.16  HD
BRANCH 64 67
ATOM     67  CA  ILE D 645     -55.707   9.857  -0.669  1.00 63.54 LIG 0.40  C 
ATOM     68  N   ILE D 645     -54.954   8.726  -1.208  1.00 63.63 LIG 0.61  N 
BRANCH 67 69
ATOM     69  CB  ILE D 645     -54.921  11.178  -0.763  1.00 61.73 LIG 0.03  C 
ATOM     70  CG2 ILE D 645     -53.422  10.884  -0.884  1.00 57.36 LIG 0.01  C 
BRANCH 69 71
ATOM     71  CG1 ILE D 645     -55.421  12.044  -1.925  1.00 65.03 LIG 0.00  C 
ATOM     72  CD1 ILE D 645     -56.050  13.356  -1.476  1.00 60.49 LIG 0.01  C 
ENDBRANCH 69 71
ENDBRANCH 67 69
ENDBRANCH 64 67
ENDBRANCH 62 63
BRANCH 62 73
ATOM     73  CB  LEU D 646     -58.352   8.741  -4.591  1.00 52.76 LIG 0.04  C 
BRANCH 73 74
ATOM     74  CG  LEU D 646     -59.497   7.799  -4.953  1.00 58.95 LIG-0.02  C 
ATOM     75  CD1 LEU D 646     -60.323   8.380  -6.103  1.00 55.02 LIG 0.01  C 
ATOM     76  CD2 LEU D 646     -58.944   6.422  -5.307  1.00 54.54 LIG 0.01  C 
ENDBRANCH 73 74
ENDBRANCH 62 73
ENDBRANCH 59 62
ENDBRANCH 53 58
ENDBRANCH 51 53
ENDBRANCH 44 49
ENDBRANCH 1 44
TORSDOF 28
ENDMDL
MODEL 20
USER: ADFR SOLUTION from run 100
USER: SCORE 21.277152 LL:  -4.998 LR: -17.217 RR:   0.000 FEB:  -8.865
USER: RMSD 11.832712
USER: SEED 99
USER: STATUS searching
USER: GENES 30
USER: genes 0 Translation |==|  0.55683 0.46631 0.51179
USER: genes 1 Rotation |==|  0.14732 0.85042 0.53778 0.53739
USER: genes 2 Torsion [N]-CA--C-[N] |==|  0.81794
USER: genes 3 Torsion [C]-N--CA-[CB] |==|  0.84736
USER: genes 4 Torsion [N]-CA--C-[N] |==|  0.32420
USER: genes 5 Torsion [C]-N--CA-[CB] |==|  0.27387
USER: genes 6 Torsion [N]-CA--C-[O] |==|  0.85202
USER: genes 7 Torsion [N]-CA--CB-[CG] |==|  0.79422
USER: genes 8 Torsion [CA]-CB--CG-[CD] |==|  0.23612
USER: genes 9 Torsion [CB]-CG--CD-[NE] |==|  0.13218
USER: genes 10 Torsion [CG]-CD--NE-[HE] |==|  0.75672
USER: genes 11 Torsion [N]-CA--CB-[CG] |==|  0.73779
USER: genes 12 Torsion [CA]-CB--CG-[CD] |==|  0.07071
USER: genes 13 Torsion [CB]-CG--CD-[NE] |==|  0.79727
USER: genes 14 Torsion [CG]-CD--NE-[CZ] |==|  0.69025
USER: genes 15 Torsion [N]-C--CA-[N] |==|  0.39490
USER: genes 16 Torsion [C]-CA--CB-[CG2] |==|  0.35459
USER: genes 17 Torsion [CA]-CB--OG1-[HG1] |==|  0.95593
USER: genes 18 Torsion [C]-CA--N-[C] |==|  0.58333
USER: genes 19 Torsion [N]-C--CA-[N] |==|  0.32991
USER: genes 20 Torsion [C]-CA--CB-[CG] |==|  0.19917
USER: genes 21 Torsion [CA]-CB--CG-[CD1] |==|  0.72723
USER: genes 22 Torsion [C]-CA--N-[C] |==|  0.78946
USER: genes 23 Torsion [N]-C--CA-[N] |==|  0.33033
USER: genes 24 Torsion [C]-CA--N-[C] |==|  0.61516
USER: genes 25 Torsion [N]-C--CA-[N] |==|  0.42529
USER: genes 26 Torsion [C]-CA--CB-[CG2] |==|  0.90014
USER: genes 27 Torsion [CA]-CB--CG1-[CD1] |==|  0.24680
USER: genes 28 Torsion [C]-CA--CB-[CG] |==|  0.23506
USER: genes 29 Torsion [CA]-CB--CG-[CD1] |==|  0.73535
ROOT
ATOM      1  C   THR D 648     -61.588   8.314  -6.782  1.00 57.47 LIG 0.24  C 
ATOM      2 O    THR D 648     -61.719   7.154  -6.385  1.00 58.33 LIG-0.27  OA
ATOM      3  N   PRO D 649     -60.767   9.197  -6.188  1.00 55.77 LIG-0.34  N 
ATOM      4  CA  PRO D 649     -59.860   8.815  -5.096  1.00 54.43 LIG 0.18  C 
ATOM      5  CB  PRO D 649     -58.855   9.973  -5.072  1.00 56.30 LIG 0.04  C 
ATOM      6  CG  PRO D 649     -59.624  11.145  -5.589  1.00 52.90 LIG 0.02  C 
ATOM      7  CD  PRO D 649     -60.511  10.573  -6.660  1.00 52.65 LIG 0.13  C 
ENDROOT
BRANCH 4 8
ATOM      8  C   PRO D 649     -60.495   8.661  -3.709  1.00 62.44 LIG 0.24  C 
ATOM      9  N   ARG D 650     -60.985   9.774  -3.163  1.00 65.13 LIG-0.35  N 
ATOM     10 H    ARG D 650     -60.787  10.564  -3.441  1.00 65.13 LIG 0.16  HD
ATOM     11 O    PRO D 649     -60.537   7.560  -3.161  1.00 64.48 LIG-0.27  OA
BRANCH 9 12
ATOM     12  CA  ARG D 650     -61.914   9.759  -2.030  1.00 68.90 LIG 0.18  C 
BRANCH 12 13
ATOM     13  C   ARG D 650     -61.184   9.228  -0.796  1.00 70.53 LIG 0.24  C 
ATOM     14  N   ARG D 651     -61.046  10.057   0.234  1.00 72.55 LIG-0.35  N 
ATOM     15 H    ARG D 651     -61.389  10.845   0.279  1.00 72.55 LIG 0.16  HD
ATOM     16 O    ARG D 650     -60.738   8.078  -0.781  1.00 68.24 LIG-0.27  OA
BRANCH 14 17
ATOM     17  CA  ARG D 651     -60.266   9.655   1.402  1.00 72.50 LIG 0.16  C 
BRANCH 17 18
ATOM     18  C   ARG D 651     -60.955  10.089   2.697  1.00 69.52 LIG 0.22  C 
ATOM     19 O    ARG D 651     -61.296  11.264   2.876  1.00 68.10 LIG-0.29  OA
ENDBRANCH 17 18
BRANCH 17 20
ATOM     20  CB  ARG D 651     -58.835  10.231   1.354  1.00 76.74 LIG 0.04  C 
BRANCH 20 21
ATOM     21  CG  ARG D 651     -57.790   9.611   0.358  1.00 75.60 LIG 0.02  C 
BRANCH 21 22
ATOM     22  CD  ARG D 651     -57.799  10.152  -1.098  1.00 74.66 LIG 0.14  C 
BRANCH 22 23
ATOM     23  NE  ARG D 651     -57.824  11.615  -1.219  1.00 75.25 LIG-0.23  N 
ATOM     24 HE   ARG D 651     -58.596  11.994  -1.219  1.00 75.25 LIG 0.18  HD
ATOM     25  CZ  ARG D 651     -56.758  12.405  -1.328  1.00 78.75 LIG 0.67  C 
ATOM     26  NH2 ARG D 651     -56.916  13.720  -1.434  1.00 79.25 LIG-0.23  N 
ATOM     27  NH1 ARG D 651     -55.541  11.893  -1.314  1.00 78.43 LIG-0.23  N 
ATOM     28 2HH2 ARG D 651     -56.228  14.231  -1.505  1.00 79.25 LIG 0.17  HD
ATOM     29 1HH2 ARG D 651     -57.706  14.059  -1.432  1.00 79.25 LIG 0.17  HD
ATOM     30 2HH1 ARG D 651     -54.856  12.409  -1.384  1.00 78.43 LIG 0.17  HD
ATOM     31 1HH1 ARG D 651     -55.433  11.044  -1.233  1.00 78.43 LIG 0.17  HD
ENDBRANCH 22 23
ENDBRANCH 21 22
ENDBRANCH 20 21
ENDBRANCH 17 20
ENDBRANCH 14 17
ENDBRANCH 12 13
BRANCH 12 32
ATOM     32  CB  ARG D 650     -63.148   8.897  -2.337  1.00 66.96 LIG 0.04  C 
BRANCH 32 33
ATOM     33  CG  ARG D 650     -64.353   9.660  -2.884  1.00 73.73 LIG 0.02  C 
BRANCH 33 34
ATOM     34  CD  ARG D 650     -63.923  10.954  -3.590  1.00 75.05 LIG 0.14  C 
BRANCH 34 35
ATOM     35  NE  ARG D 650     -63.484  12.005  -2.687  1.00 81.10 LIG-0.23  N 
ATOM     36 HE   ARG D 650     -62.747  11.888  -2.258  1.00 81.10 LIG 0.18  HD
ATOM     37  CZ  ARG D 650     -64.152  13.137  -2.481  1.00 84.47 LIG 0.67  C 
ATOM     38  NH1 ARG D 650     -65.298  13.357  -3.113  1.00 76.84 LIG-0.23  N 
ATOM     39  NH2 ARG D 650     -63.681  14.058  -1.639  1.00 84.76 LIG-0.23  N 
ATOM     40 1HH1 ARG D 650     -65.610  12.768  -3.656  1.00 76.84 LIG 0.17  HD
ATOM     41 2HH1 ARG D 650     -65.730  14.090  -2.979  1.00 76.84 LIG 0.17  HD
ATOM     42 1HH2 ARG D 650     -62.940  13.922  -1.223  1.00 84.76 LIG 0.17  HD
ATOM     43 2HH2 ARG D 650     -64.118  14.787  -1.511  1.00 84.76 LIG 0.17  HD
ENDBRANCH 34 35
ENDBRANCH 33 34
ENDBRANCH 32 33
ENDBRANCH 12 32
ENDBRANCH 9 12
ENDBRANCH 4 8
BRANCH 1 44
ATOM     44  CA  THR D 648     -62.344   8.800  -8.020  1.00 55.33 LIG 0.20  C 
BRANCH 44 45
ATOM     45  CB  THR D 648     -63.761   9.322  -7.637  1.00 57.91 LIG 0.15  C 
ATOM     46  CG2 THR D 648     -63.999  10.733  -8.191  1.00 54.65 LIG 0.04  C 
BRANCH 45 47
ATOM     47 OG1  THR D 648     -64.760   8.432  -8.161  1.00 51.58 LIG-0.39  OA
ATOM     48 HG1  THR D 648     -64.415   7.935  -8.744  1.00 51.58 LIG 0.21  HD
ENDBRANCH 45 47
ENDBRANCH 44 45
BRANCH 44 49
ATOM     49  N   THR D 648     -62.418   7.714  -8.991  1.00 49.85 LIG-0.34  N 
ATOM     50 H    THR D 648     -62.430   6.927  -8.645  1.00 49.85 LIG 0.16  HD
ATOM     51  C   LEU D 647     -62.460   7.955 -10.296  1.00 48.49 LIG 0.24  C 
ATOM     52 O    LEU D 647     -62.372   9.088 -10.774  1.00 50.57 LIG-0.27  OA
BRANCH 51 53
ATOM     53  CA  LEU D 647     -62.648   6.745 -11.197  1.00 48.52 LIG 0.18  C 
BRANCH 53 54
ATOM     54  CB  LEU D 647     -61.430   6.612 -12.112  1.00 42.08 LIG 0.04  C 
BRANCH 54 55
ATOM     55  CG  LEU D 647     -60.108   6.154 -11.496  1.00 43.63 LIG-0.02  C 
ATOM     56  CD1 LEU D 647     -59.217   7.367 -11.204  1.00 34.09 LIG 0.01  C 
ATOM     57  CD2 LEU D 647     -60.367   5.357 -10.242  1.00 37.87 LIG 0.01  C 
ENDBRANCH 54 55
ENDBRANCH 53 54
BRANCH 53 58
ATOM     58  N   LEU D 647     -63.876   6.824 -11.986  1.00 49.21 LIG-0.35  N 
ATOM     59  C   LEU D 646     -65.074   6.595 -11.450  1.00 51.75 LIG 0.24  C 
ATOM     60 O    LEU D 646     -65.247   6.395 -10.246  1.00 46.22 LIG-0.27  OA
ATOM     61 H    LEU D 647     -63.752   7.028 -12.813  1.00 49.21 LIG 0.16  HD
BRANCH 59 62
ATOM     62  CA  LEU D 646     -66.257   6.611 -12.408  1.00 53.11 LIG 0.18  C 
BRANCH 62 63
ATOM     63  N   LEU D 646     -66.938   5.323 -12.431  1.00 56.32 LIG-0.35  N 
ATOM     64  C   ILE D 645     -67.366   4.789 -13.572  1.00 63.27 LIG 0.26  C 
ATOM     65 O    ILE D 645     -67.243   5.355 -14.665  1.00 63.46 LIG-0.27  OA
ATOM     66 H    LEU D 646     -67.033   4.954 -11.660  1.00 56.32 LIG 0.16  HD
BRANCH 64 67
ATOM     67  CA  ILE D 645     -68.010   3.403 -13.478  1.00 63.54 LIG 0.40  C 
ATOM     68  N   ILE D 645     -68.972   3.164 -14.553  1.00 63.63 LIG 0.61  N 
BRANCH 67 69
ATOM     69  CB  ILE D 645     -66.871   2.367 -13.475  1.00 61.73 LIG 0.03  C 
ATOM     70  CG2 ILE D 645     -65.737   2.836 -14.392  1.00 57.36 LIG 0.01  C 
BRANCH 69 71
ATOM     71  CG1 ILE D 645     -66.370   2.093 -12.052  1.00 65.03 LIG 0.00  C 
ATOM     72  CD1 ILE D 645     -67.127   0.975 -11.348  1.00 60.49 LIG 0.01  C 
ENDBRANCH 69 71
ENDBRANCH 67 69
ENDBRANCH 64 67
ENDBRANCH 62 63
BRANCH 62 73
ATOM     73  CB  LEU D 646     -67.231   7.721 -12.026  1.00 52.76 LIG 0.04  C 
BRANCH 73 74
ATOM     74  CG  LEU D 646     -66.887   9.098 -12.587  1.00 58.95 LIG-0.02  C 
ATOM     75  CD1 LEU D 646     -66.095   9.912 -11.560  1.00 55.02 LIG 0.01  C 
ATOM     76  CD2 LEU D 646     -66.110   8.947 -13.892  1.00 54.54 LIG 0.01  C 
ENDBRANCH 73 74
ENDBRANCH 62 73
ENDBRANCH 59 62
ENDBRANCH 53 58
ENDBRANCH 51 53
ENDBRANCH 44 49
ENDBRANCH 1 44
TORSDOF 28
ENDMDL
MODEL 21
USER: ADFR SOLUTION from run 189
USER: SCORE 20.482306 LL:  -5.115 LR: -17.214 RR:   0.000 FEB:  -8.862
USER: RMSD 6.023825
USER: SEED 188
USER: STATUS searching
USER: GENES 30
USER: genes 0 Translation |==|  0.42395 0.62352 0.59006
USER: genes 1 Rotation |==|  0.38148 0.30569 0.05515 0.51750
USER: genes 2 Torsion [N]-CA--C-[N] |==|  0.47056
USER: genes 3 Torsion [C]-N--CA-[CB] |==|  0.51857
USER: genes 4 Torsion [N]-CA--C-[N] |==|  0.92434
USER: genes 5 Torsion [C]-N--CA-[CB] |==|  0.80641
USER: genes 6 Torsion [N]-CA--C-[O] |==|  0.60160
USER: genes 7 Torsion [N]-CA--CB-[CG] |==|  0.55076
USER: genes 8 Torsion [CA]-CB--CG-[CD] |==|  0.67194
USER: genes 9 Torsion [CB]-CG--CD-[NE] |==|  0.71092
USER: genes 10 Torsion [CG]-CD--NE-[HE] |==|  0.20917
USER: genes 11 Torsion [N]-CA--CB-[CG] |==|  0.55949
USER: genes 12 Torsion [CA]-CB--CG-[CD] |==|  0.69060
USER: genes 13 Torsion [CB]-CG--CD-[NE] |==|  0.39520
USER: genes 14 Torsion [CG]-CD--NE-[CZ] |==|  0.64889
USER: genes 15 Torsion [N]-C--CA-[N] |==|  0.87341
USER: genes 16 Torsion [C]-CA--CB-[CG2] |==|  0.08457
USER: genes 17 Torsion [CA]-CB--OG1-[HG1] |==|  0.18335
USER: genes 18 Torsion [C]-CA--N-[C] |==|  0.84444
USER: genes 19 Torsion [N]-C--CA-[N] |==|  0.13557
USER: genes 20 Torsion [C]-CA--CB-[CG] |==|  0.28503
USER: genes 21 Torsion [CA]-CB--CG-[CD1] |==|  0.85792
USER: genes 22 Torsion [C]-CA--N-[C] |==|  0.18886
USER: genes 23 Torsion [N]-C--CA-[N] |==|  0.03934
USER: genes 24 Torsion [C]-CA--N-[C] |==|  0.66172
USER: genes 25 Torsion [N]-C--CA-[N] |==|  0.28216
USER: genes 26 Torsion [C]-CA--CB-[CG2] |==|  0.16748
USER: genes 27 Torsion [CA]-CB--CG1-[CD1] |==|  0.27676
USER: genes 28 Torsion [C]-CA--CB-[CG] |==|  0.42499
USER: genes 29 Torsion [CA]-CB--CG-[CD1] |==|  0.93540
ROOT
ATOM      1  C   THR D 648     -64.877  10.791  -4.668  1.00 57.47 LIG 0.24  C 
ATOM      2 O    THR D 648     -66.021  10.374  -4.475  1.00 58.33 LIG-0.27  OA
ATOM      3  N   PRO D 649     -64.367  10.966  -5.899  1.00 55.77 LIG-0.34  N 
ATOM      4  CA  PRO D 649     -65.174  10.799  -7.116  1.00 54.43 LIG 0.18  C 
ATOM      5  CB  PRO D 649     -64.337  11.520  -8.178  1.00 56.30 LIG 0.04  C 
ATOM      6  CG  PRO D 649     -62.929  11.398  -7.691  1.00 52.90 LIG 0.02  C 
ATOM      7  CD  PRO D 649     -63.035  11.531  -6.196  1.00 52.65 LIG 0.13  C 
ENDROOT
BRANCH 4 8
ATOM      8  C   PRO D 649     -65.434   9.356  -7.565  1.00 62.44 LIG 0.24  C 
ATOM      9  N   ARG D 650     -66.339   9.197  -8.530  1.00 65.13 LIG-0.35  N 
ATOM     10 H    ARG D 650     -66.903   9.807  -8.754  1.00 65.13 LIG 0.16  HD
ATOM     11 O    PRO D 649     -64.824   8.421  -7.045  1.00 64.48 LIG-0.27  OA
BRANCH 9 12
ATOM     12  CA  ARG D 650     -66.461   7.961  -9.307  1.00 68.90 LIG 0.18  C 
BRANCH 12 13
ATOM     13  C   ARG D 650     -65.085   7.582  -9.858  1.00 70.53 LIG 0.24  C 
ATOM     14  N   ARG D 651     -64.219   8.569 -10.064  1.00 72.55 LIG-0.35  N 
ATOM     15 H    ARG D 651     -64.354   9.392  -9.853  1.00 72.55 LIG 0.16  HD
ATOM     16 O    ARG D 650     -64.815   6.405 -10.107  1.00 68.24 LIG-0.27  OA
BRANCH 14 17
ATOM     17  CA  ARG D 651     -62.928   8.295 -10.690  1.00 72.50 LIG 0.16  C 
BRANCH 17 18
ATOM     18  C   ARG D 651     -63.109   7.548 -12.013  1.00 69.52 LIG 0.22  C 
ATOM     19 O    ARG D 651     -62.310   6.674 -12.368  1.00 68.10 LIG-0.29  OA
ENDBRANCH 17 18
BRANCH 17 20
ATOM     20  CB  ARG D 651     -62.005   7.483  -9.756  1.00 76.74 LIG 0.04  C 
BRANCH 20 21
ATOM     21  CG  ARG D 651     -60.460   7.452 -10.039  1.00 75.60 LIG 0.02  C 
BRANCH 21 22
ATOM     22  CD  ARG D 651     -59.831   6.068 -10.354  1.00 74.66 LIG 0.14  C 
BRANCH 22 23
ATOM     23  NE  ARG D 651     -59.062   5.468  -9.257  1.00 75.25 LIG-0.23  N 
ATOM     24 HE   ARG D 651     -59.509   5.127  -8.606  1.00 75.25 LIG 0.18  HD
ATOM     25  CZ  ARG D 651     -57.734   5.405  -9.181  1.00 78.75 LIG 0.67  C 
ATOM     26  NH2 ARG D 651     -57.156   4.835  -8.129  1.00 79.25 LIG-0.23  N 
ATOM     27  NH1 ARG D 651     -56.983   5.889 -10.154  1.00 78.43 LIG-0.23  N 
ATOM     28 2HH2 ARG D 651     -56.299   4.793  -8.078  1.00 79.25 LIG 0.17  HD
ATOM     29 1HH2 ARG D 651     -57.641   4.507  -7.498  1.00 79.25 LIG 0.17  HD
ATOM     30 2HH1 ARG D 651     -56.127   5.845 -10.099  1.00 78.43 LIG 0.17  HD
ATOM     31 1HH1 ARG D 651     -57.352   6.247 -10.843  1.00 78.43 LIG 0.17  HD
ENDBRANCH 22 23
ENDBRANCH 21 22
ENDBRANCH 20 21
ENDBRANCH 17 20
ENDBRANCH 14 17
ENDBRANCH 12 13
BRANCH 12 32
ATOM     32  CB  ARG D 650     -67.471   8.124 -10.453  1.00 66.96 LIG 0.04  C 
BRANCH 32 33
ATOM     33  CG  ARG D 650     -68.056   6.820 -10.992  1.00 73.73 LIG 0.02  C 
BRANCH 33 34
ATOM     34  CD  ARG D 650     -67.564   6.533 -12.418  1.00 75.05 LIG 0.14  C 
BRANCH 34 35
ATOM     35  NE  ARG D 650     -67.304   5.127 -12.683  1.00 81.10 LIG-0.23  N 
ATOM     36 HE   ARG D 650     -67.932   4.563 -12.520  1.00 81.10 LIG 0.18  HD
ATOM     37  CZ  ARG D 650     -66.153   4.661 -13.163  1.00 84.47 LIG 0.67  C 
ATOM     38  NH1 ARG D 650     -65.154   5.494 -13.421  1.00 76.84 LIG-0.23  N 
ATOM     39  NH2 ARG D 650     -65.993   3.355 -13.385  1.00 84.76 LIG-0.23  N 
ATOM     40 1HH1 ARG D 650     -65.249   6.337 -13.278  1.00 76.84 LIG 0.17  HD
ATOM     41 2HH1 ARG D 650     -64.410   5.192 -13.731  1.00 76.84 LIG 0.17  HD
ATOM     42 1HH2 ARG D 650     -66.635   2.808 -13.218  1.00 84.76 LIG 0.17  HD
ATOM     43 2HH2 ARG D 650     -65.247   3.061 -13.695  1.00 84.76 LIG 0.17  HD
ENDBRANCH 34 35
ENDBRANCH 33 34
ENDBRANCH 32 33
ENDBRANCH 12 32
ENDBRANCH 9 12
ENDBRANCH 4 8
BRANCH 1 44
ATOM     44  CA  THR D 648     -63.980  11.171  -3.489  1.00 55.33 LIG 0.20  C 
BRANCH 44 45
ATOM     45  CB  THR D 648     -63.954  12.715  -3.287  1.00 57.91 LIG 0.15  C 
ATOM     46  CG2 THR D 648     -65.280  13.353  -3.725  1.00 54.65 LIG 0.04  C 
BRANCH 45 47
ATOM     47 OG1  THR D 648     -63.717  13.016  -1.903  1.00 51.58 LIG-0.39  OA
ATOM     48 HG1  THR D 648     -62.945  12.764  -1.689  1.00 51.58 LIG 0.21  HD
ENDBRANCH 45 47
ENDBRANCH 44 45
BRANCH 44 49
ATOM     49  N   THR D 648     -62.641  10.638  -3.716  1.00 49.85 LIG-0.34  N 
ATOM     50 H    THR D 648     -62.015  11.226  -3.695  1.00 49.85 LIG 0.16  HD
ATOM     51  C   LEU D 647     -62.440   9.343  -3.934  1.00 48.49 LIG 0.24  C 
ATOM     52 O    LEU D 647     -63.359   8.527  -4.028  1.00 50.57 LIG-0.27  OA
BRANCH 51 53
ATOM     53  CA  LEU D 647     -60.991   8.898  -4.045  1.00 48.52 LIG 0.18  C 
BRANCH 53 54
ATOM     54  CB  LEU D 647     -60.941   7.370  -4.085  1.00 42.08 LIG 0.04  C 
BRANCH 54 55
ATOM     55  CG  LEU D 647     -60.715   6.689  -5.435  1.00 43.63 LIG-0.02  C 
ATOM     56  CD1 LEU D 647     -61.707   7.232  -6.471  1.00 34.09 LIG 0.01  C 
ATOM     57  CD2 LEU D 647     -59.291   6.893  -5.889  1.00 37.87 LIG 0.01  C 
ENDBRANCH 54 55
ENDBRANCH 53 54
BRANCH 53 58
ATOM     58  N   LEU D 647     -60.166   9.408  -2.951  1.00 49.21 LIG-0.35  N 
ATOM     59  C   LEU D 646     -60.328   8.994  -1.695  1.00 51.75 LIG 0.24  C 
ATOM     60 O    LEU D 646     -61.108   8.095  -1.376  1.00 46.22 LIG-0.27  OA
ATOM     61 H    LEU D 647     -59.579   9.989  -3.192  1.00 49.21 LIG 0.16  HD
BRANCH 59 62
ATOM     62  CA  LEU D 646     -59.471   9.683  -0.641  1.00 53.11 LIG 0.18  C 
BRANCH 62 63
ATOM     63  N   LEU D 646     -58.866  10.902  -1.164  1.00 56.32 LIG-0.35  N 
ATOM     64  C   ILE D 645     -57.547  11.067  -1.175  1.00 63.27 LIG 0.26  C 
ATOM     65 O    ILE D 645     -56.761  10.224  -0.724  1.00 63.46 LIG-0.27  OA
ATOM     66 H    LEU D 646     -59.428  11.485  -1.454  1.00 56.32 LIG 0.16  HD
BRANCH 64 67
ATOM     67  CA  ILE D 645     -57.026  12.361  -1.806  1.00 63.54 LIG 0.40  C 
ATOM     68  N   ILE D 645     -56.646  13.355  -0.803  1.00 63.63 LIG 0.61  N 
BRANCH 67 69
ATOM     69  CB  ILE D 645     -55.849  11.982  -2.725  1.00 61.73 LIG 0.03  C 
ATOM     70  CG2 ILE D 645     -56.329  11.021  -3.817  1.00 57.36 LIG 0.01  C 
BRANCH 69 71
ATOM     71  CG1 ILE D 645     -55.185  13.229  -3.323  1.00 65.03 LIG 0.00  C 
ATOM     72  CD1 ILE D 645     -53.912  13.643  -2.597  1.00 60.49 LIG 0.01  C 
ENDBRANCH 69 71
ENDBRANCH 67 69
ENDBRANCH 64 67
ENDBRANCH 62 63
BRANCH 62 73
ATOM     73  CB  LEU D 646     -60.306   9.992   0.598  1.00 52.76 LIG 0.04  C 
BRANCH 73 74
ATOM     74  CG  LEU D 646     -59.514  10.064   1.901  1.00 58.95 LIG-0.02  C 
ATOM     75  CD1 LEU D 646     -58.211   9.271   1.780  1.00 55.02 LIG 0.01  C 
ATOM     76  CD2 LEU D 646     -59.245  11.522   2.264  1.00 54.54 LIG 0.01  C 
ENDBRANCH 73 74
ENDBRANCH 62 73
ENDBRANCH 59 62
ENDBRANCH 53 58
ENDBRANCH 51 53
ENDBRANCH 44 49
ENDBRANCH 1 44
TORSDOF 28
ENDMDL
MODEL 22
USER: ADFR SOLUTION from run 6
USER: SCORE 20.585901 LL:  -6.324 LR: -17.192 RR:   0.000 FEB:  -8.840
USER: RMSD 5.214639
USER: SEED 665986
USER: STATUS 1 or 2 clusters left
USER: GENES 30
USER: genes 0 Translation |==|  0.42636 0.64263 0.60867
USER: genes 1 Rotation |==|  0.54059 0.71482 0.94955 0.51030
USER: genes 2 Torsion [N]-CA--C-[N] |==|  0.54070
USER: genes 3 Torsion [C]-N--CA-[CB] |==|  0.27650
USER: genes 4 Torsion [N]-CA--C-[N] |==|  0.39112
USER: genes 5 Torsion [C]-N--CA-[CB] |==|  0.42074
USER: genes 6 Torsion [N]-CA--C-[O] |==|  0.06401
USER: genes 7 Torsion [N]-CA--CB-[CG] |==|  0.33839
USER: genes 8 Torsion [CA]-CB--CG-[CD] |==|  0.26861
USER: genes 9 Torsion [CB]-CG--CD-[NE] |==|  0.70807
USER: genes 10 Torsion [CG]-CD--NE-[HE] |==|  0.27024
USER: genes 11 Torsion [N]-CA--CB-[CG] |==|  0.23262
USER: genes 12 Torsion [CA]-CB--CG-[CD] |==|  0.27456
USER: genes 13 Torsion [CB]-CG--CD-[NE] |==|  0.29812
USER: genes 14 Torsion [CG]-CD--NE-[CZ] |==|  0.48461
USER: genes 15 Torsion [N]-C--CA-[N] |==|  0.83335
USER: genes 16 Torsion [C]-CA--CB-[CG2] |==|  0.10895
USER: genes 17 Torsion [CA]-CB--OG1-[HG1] |==|  0.60164
USER: genes 18 Torsion [C]-CA--N-[C] |==|  0.80294
USER: genes 19 Torsion [N]-C--CA-[N] |==|  0.91748
USER: genes 20 Torsion [C]-CA--CB-[CG] |==|  0.69638
USER: genes 21 Torsion [CA]-CB--CG-[CD1] |==|  0.22066
USER: genes 22 Torsion [C]-CA--N-[C] |==|  0.55207
USER: genes 23 Torsion [N]-C--CA-[N] |==|  0.84202
USER: genes 24 Torsion [C]-CA--N-[C] |==|  0.75596
USER: genes 25 Torsion [N]-C--CA-[N] |==|  0.39010
USER: genes 26 Torsion [C]-CA--CB-[CG2] |==|  0.58506
USER: genes 27 Torsion [CA]-CB--CG1-[CD1] |==|  0.33023
USER: genes 28 Torsion [C]-CA--CB-[CG] |==|  0.26718
USER: genes 29 Torsion [CA]-CB--CG-[CD1] |==|  0.78397
ROOT
ATOM      1  C   THR D 648     -64.817  11.091  -4.166  1.00 57.47 LIG 0.24  C 
ATOM      2 O    THR D 648     -65.951  10.630  -4.315  1.00 58.33 LIG-0.27  OA
ATOM      3  N   PRO D 649     -63.940  11.203  -5.178  1.00 55.77 LIG-0.34  N 
ATOM      4  CA  PRO D 649     -64.304  10.904  -6.571  1.00 54.43 LIG 0.18  C 
ATOM      5  CB  PRO D 649     -63.187  11.590  -7.365  1.00 56.30 LIG 0.04  C 
ATOM      6  CG  PRO D 649     -62.011  11.580  -6.442  1.00 52.90 LIG 0.02  C 
ATOM      7  CD  PRO D 649     -62.600  11.816  -5.078  1.00 52.65 LIG 0.13  C 
ENDROOT
BRANCH 4 8
ATOM      8  C   PRO D 649     -64.365   9.420  -6.952  1.00 62.44 LIG 0.24  C 
ATOM      9  N   ARG D 650     -64.393   9.152  -8.257  1.00 65.13 LIG-0.35  N 
ATOM     10 H    ARG D 650     -64.579   9.740  -8.857  1.00 65.13 LIG 0.16  HD
ATOM     11 O    PRO D 649     -64.383   8.552  -6.079  1.00 64.48 LIG-0.27  OA
BRANCH 9 12
ATOM     12  CA  ARG D 650     -64.106   7.822  -8.799  1.00 68.90 LIG 0.18  C 
BRANCH 12 13
ATOM     13  C   ARG D 650     -63.244   7.971 -10.054  1.00 70.53 LIG 0.24  C 
ATOM     14  N   ARG D 651     -62.272   7.082 -10.234  1.00 72.55 LIG-0.35  N 
ATOM     15 H    ARG D 651     -62.134   6.398  -9.731  1.00 72.55 LIG 0.16  HD
ATOM     16 O    ARG D 650     -63.449   8.893 -10.847  1.00 68.24 LIG-0.27  OA
BRANCH 14 17
ATOM     17  CA  ARG D 651     -61.341   7.228 -11.350  1.00 72.50 LIG 0.16  C 
BRANCH 17 18
ATOM     18  C   ARG D 651     -61.906   6.591 -12.621  1.00 69.52 LIG 0.22  C 
ATOM     19 O    ARG D 651     -63.123   6.426 -12.766  1.00 68.10 LIG-0.29  OA
ENDBRANCH 17 18
BRANCH 17 20
ATOM     20  CB  ARG D 651     -59.964   6.610 -11.025  1.00 76.74 LIG 0.04  C 
BRANCH 20 21
ATOM     21  CG  ARG D 651     -59.395   5.473 -11.948  1.00 75.60 LIG 0.02  C 
BRANCH 21 22
ATOM     22  CD  ARG D 651     -58.397   5.901 -13.057  1.00 74.66 LIG 0.14  C 
BRANCH 22 23
ATOM     23  NE  ARG D 651     -58.946   5.915 -14.419  1.00 75.25 LIG-0.23  N 
ATOM     24 HE   ARG D 651     -59.216   6.671 -14.725  1.00 75.25 LIG 0.18  HD
ATOM     25  CZ  ARG D 651     -59.063   4.858 -15.221  1.00 78.75 LIG 0.67  C 
ATOM     26  NH2 ARG D 651     -59.581   5.003 -16.436  1.00 79.25 LIG-0.23  N 
ATOM     27  NH1 ARG D 651     -58.650   3.668 -14.826  1.00 78.43 LIG-0.23  N 
ATOM     28 2HH2 ARG D 651     -59.658   4.322 -16.955  1.00 79.25 LIG 0.17  HD
ATOM     29 1HH2 ARG D 651     -59.841   5.778 -16.703  1.00 79.25 LIG 0.17  HD
ATOM     30 2HH1 ARG D 651     -58.728   2.990 -15.349  1.00 78.43 LIG 0.17  HD
ATOM     31 1HH1 ARG D 651     -58.302   3.571 -14.045  1.00 78.43 LIG 0.17  HD
ENDBRANCH 22 23
ENDBRANCH 21 22
ENDBRANCH 20 21
ENDBRANCH 17 20
ENDBRANCH 14 17
ENDBRANCH 12 13
BRANCH 12 32
ATOM     32  CB  ARG D 650     -65.403   7.066  -9.127  1.00 66.96 LIG 0.04  C 
BRANCH 32 33
ATOM     33  CG  ARG D 650     -66.014   7.386 -10.489  1.00 73.73 LIG 0.02  C 
BRANCH 33 34
ATOM     34  CD  ARG D 650     -65.647   6.322 -11.533  1.00 75.05 LIG 0.14  C 
BRANCH 34 35
ATOM     35  NE  ARG D 650     -66.749   5.447 -11.900  1.00 81.10 LIG-0.23  N 
ATOM     36 HE   ARG D 650     -67.489   5.529 -11.470  1.00 81.10 LIG 0.18  HD
ATOM     37  CZ  ARG D 650     -66.681   4.528 -12.860  1.00 84.47 LIG 0.67  C 
ATOM     38  NH1 ARG D 650     -65.556   4.360 -13.542  1.00 76.84 LIG-0.23  N 
ATOM     39  NH2 ARG D 650     -67.739   3.765 -13.142  1.00 84.76 LIG-0.23  N 
ATOM     40 1HH1 ARG D 650     -64.869   4.845 -13.364  1.00 76.84 LIG 0.17  HD
ATOM     41 2HH1 ARG D 650     -65.513   3.765 -14.162  1.00 76.84 LIG 0.17  HD
ATOM     42 1HH2 ARG D 650     -68.472   3.867 -12.702  1.00 84.76 LIG 0.17  HD
ATOM     43 2HH2 ARG D 650     -67.689   3.173 -13.763  1.00 84.76 LIG 0.17  HD
ENDBRANCH 34 35
ENDBRANCH 33 34
ENDBRANCH 32 33
ENDBRANCH 12 32
ENDBRANCH 9 12
ENDBRANCH 4 8
BRANCH 1 44
ATOM     44  CA  THR D 648     -64.363  11.605  -2.799  1.00 55.33 LIG 0.20  C 
BRANCH 44 45
ATOM     45  CB  THR D 648     -64.097  13.139  -2.842  1.00 57.91 LIG 0.15  C 
ATOM     46  CG2 THR D 648     -65.145  13.858  -3.703  1.00 54.65 LIG 0.04  C 
BRANCH 45 47
ATOM     47 OG1  THR D 648     -64.132  13.672  -1.508  1.00 51.58 LIG-0.39  OA
ATOM     48 HG1  THR D 648     -64.481  14.436  -1.521  1.00 51.58 LIG 0.21  HD
ENDBRANCH 45 47
ENDBRANCH 44 45
BRANCH 44 49
ATOM     49  N   THR D 648     -63.175  10.867  -2.382  1.00 49.85 LIG-0.34  N 
ATOM     50 H    THR D 648     -62.448  11.325  -2.396  1.00 49.85 LIG 0.16  HD
ATOM     51  C   LEU D 647     -63.245   9.592  -2.018  1.00 48.49 LIG 0.24  C 
ATOM     52 O    LEU D 647     -64.286   8.935  -2.071  1.00 50.57 LIG-0.27  OA
BRANCH 51 53
ATOM     53  CA  LEU D 647     -61.959   8.969  -1.500  1.00 48.52 LIG 0.18  C 
BRANCH 53 54
ATOM     54  CB  LEU D 647     -61.921   9.099   0.023  1.00 42.08 LIG 0.04  C 
BRANCH 54 55
ATOM     55  CG  LEU D 647     -60.921  10.076   0.642  1.00 43.63 LIG-0.02  C 
ATOM     56  CD1 LEU D 647     -61.460  11.509   0.549  1.00 34.09 LIG 0.01  C 
ATOM     57  CD2 LEU D 647     -60.637   9.695   2.073  1.00 37.87 LIG 0.01  C 
ENDBRANCH 54 55
ENDBRANCH 53 54
BRANCH 53 58
ATOM     58  N   LEU D 647     -60.768   9.574  -2.095  1.00 49.21 LIG-0.35  N 
ATOM     59  C   LEU D 646     -59.584   8.964  -2.076  1.00 51.75 LIG 0.24  C 
ATOM     60 O    LEU D 646     -59.420   7.821  -1.646  1.00 46.22 LIG-0.27  OA
ATOM     61 H    LEU D 647     -60.904  10.345  -2.451  1.00 49.21 LIG 0.16  HD
BRANCH 59 62
ATOM     62  CA  LEU D 646     -58.410   9.752  -2.642  1.00 53.11 LIG 0.18  C 
BRANCH 62 63
ATOM     63  N   LEU D 646     -58.660  10.162  -4.018  1.00 56.32 LIG-0.35  N 
ATOM     64  C   ILE D 645     -58.348   9.372  -5.041  1.00 63.27 LIG 0.26  C 
ATOM     65 O    ILE D 645     -57.808   8.268  -4.896  1.00 63.46 LIG-0.27  OA
ATOM     66 H    LEU D 646     -59.017  10.940  -4.100  1.00 56.32 LIG 0.16  HD
BRANCH 64 67
ATOM     67  CA  ILE D 645     -58.716   9.884  -6.436  1.00 63.54 LIG 0.40  C 
ATOM     68  N   ILE D 645     -57.683   9.587  -7.427  1.00 63.63 LIG 0.61  N 
BRANCH 67 69
ATOM     69  CB  ILE D 645     -60.076   9.265  -6.809  1.00 61.73 LIG 0.03  C 
ATOM     70  CG2 ILE D 645     -60.161   9.072  -8.327  1.00 57.36 LIG 0.01  C 
BRANCH 69 71
ATOM     71  CG1 ILE D 645     -60.315   7.950  -6.058  1.00 65.03 LIG 0.00  C 
ATOM     72  CD1 ILE D 645     -61.539   7.982  -5.154  1.00 60.49 LIG 0.01  C 
ENDBRANCH 69 71
ENDBRANCH 67 69
ENDBRANCH 64 67
ENDBRANCH 62 63
BRANCH 62 73
ATOM     73  CB  LEU D 646     -58.120  10.968  -1.767  1.00 52.76 LIG 0.04  C 
BRANCH 73 74
ATOM     74  CG  LEU D 646     -57.016  10.765  -0.733  1.00 58.95 LIG-0.02  C 
ATOM     75  CD1 LEU D 646     -57.544   9.967   0.463  1.00 55.02 LIG 0.01  C 
ATOM     76  CD2 LEU D 646     -55.821  10.070  -1.378  1.00 54.54 LIG 0.01  C 
ENDBRANCH 73 74
ENDBRANCH 62 73
ENDBRANCH 59 62
ENDBRANCH 53 58
ENDBRANCH 51 53
ENDBRANCH 44 49
ENDBRANCH 1 44
TORSDOF 28
ENDMDL
