MODEL 1
USER: ADFR SOLUTION from run 40
USER: SCORE 23.269091 LL:  -3.898 LR: -20.794 RR:   0.000 FEB: -12.442
USER: RMSD 1.595561
USER: SEED 39
USER: STATUS searching
USER: GENES 30
USER: genes 0 Translation |==|  0.53256 0.49852 0.63810
USER: genes 1 Rotation |==|  0.48283 0.45206 0.53490 0.99617
USER: genes 2 Torsion [N]-CA--C-[N] |==|  0.37789
USER: genes 3 Torsion [N]-CA--C-[O] |==|  0.02904
USER: genes 4 Torsion [C]-N--CA-[CB] |==|  0.27778
USER: genes 5 Torsion [N]-CA--C-[N] |==|  0.40809
USER: genes 6 Torsion [C]-N--CA-[C] |==|  0.66629
USER: genes 7 Torsion [N]-CA--C-[O] |==|  0.96184
USER: genes 8 Torsion [N]-CA--CB-[OG] |==|  0.61568
USER: genes 9 Torsion [CA]-CB--OG-[HG] |==|  0.17780
USER: genes 10 Torsion [N]-CA--CB-[CG] |==|  0.51814
USER: genes 11 Torsion [CA]-CB--CG-[CD] |==|  0.53450
USER: genes 12 Torsion [CB]-CG--CD-[NE] |==|  0.63016
USER: genes 13 Torsion [CG]-CD--NE-[CZ] |==|  0.44434
USER: genes 14 Torsion [C]-CA--CB-[CG] |==|  0.58634
USER: genes 15 Torsion [CA]-CB--CG-[CD] |==|  0.35683
USER: genes 16 Torsion [CB]-CG--CD-[NE] |==|  0.16325
USER: genes 17 Torsion [CG]-CD--NE-[CZ] |==|  0.58135
USER: genes 18 Torsion [C]-CA--N-[C] |==|  0.66997
USER: genes 19 Torsion [N]-C--CA-[N] |==|  0.36675
USER: genes 20 Torsion [C]-CA--N-[C] |==|  0.66070
USER: genes 21 Torsion [N]-C--CA-[N] |==|  0.46616
USER: genes 22 Torsion [C]-CA--CB-[CG] |==|  0.80504
USER: genes 23 Torsion [CA]-CB--CG-[CD] |==|  0.80682
USER: genes 24 Torsion [CB]-CG--CD-[OE2] |==|  0.82718
USER: genes 25 Torsion [C]-CA--CB-[CG] |==|  0.56027
USER: genes 26 Torsion [CA]-CB--CG-[CD] |==|  0.48983
USER: genes 27 Torsion [CB]-CG--CD-[CE] |==|  0.59053
USER: genes 28 Torsion [CG]-CD--CE-[NZ] |==|  0.47385
USER: genes 29 Torsion [CD]-CE--NZ-[HZ2] |==|  0.44874
ROOT
ATOM      1  CA  ARG C 380       1.155  -5.404  -8.218  1.00 55.03 LIG 0.18  C 
ENDROOT
BRANCH 1 2
ATOM      2  C   ARG C 380       0.818  -4.223  -9.116  1.00 47.07 LIG 0.24  C 
ATOM      3 O    ARG C 380       0.063  -4.388 -10.097  1.00 43.27 LIG-0.27  OA
ATOM      4  N   PRO C 381       1.328  -3.028  -8.830  1.00 52.47 LIG-0.34  N 
ATOM      5  CA  PRO C 381       1.267  -1.946  -9.814  1.00 50.57 LIG 0.18  C 
ATOM      6  CD  PRO C 381       1.970  -2.603  -7.573  1.00 58.50 LIG 0.13  C 
ATOM      7  CB  PRO C 381       1.452  -0.684  -8.962  1.00 39.15 LIG 0.04  C 
ATOM      8  CG  PRO C 381       2.319  -1.145  -7.830  1.00 58.11 LIG 0.02  C 
BRANCH 5 9
ATOM      9  C   PRO C 381       2.390  -2.097 -10.824  1.00 50.29 LIG 0.24  C 
ATOM     10 O    PRO C 381       3.079  -3.118 -10.873  1.00 49.31 LIG-0.27  OA
ATOM     11  N   ARG C 382       2.559  -1.071 -11.653  1.00 50.68 LIG-0.35  N 
ATOM     12 H    ARG C 382       2.025  -0.398 -11.694  1.00 50.68 LIG 0.16  HD
BRANCH 11 13
ATOM     13  CA  ARG C 382       3.683  -1.001 -12.580  1.00 50.76 LIG 0.18  C 
BRANCH 13 14
ATOM     14  C   ARG C 382       4.224   0.427 -12.564  1.00 59.22 LIG 0.24  C 
ATOM     15 O    ARG C 382       3.462   1.384 -12.388  1.00 50.32 LIG-0.27  OA
ATOM     16  N   SER C 383       5.535   0.568 -12.746  1.00 56.43 LIG-0.34  N 
ATOM     17 H    SER C 383       6.071  -0.087 -12.899  1.00 56.43 LIG 0.16  HD
BRANCH 16 18
ATOM     18  CA  SER C 383       6.182   1.880 -12.702  1.00 74.33 LIG 0.19  C 
BRANCH 18 19
ATOM     19  C   SER C 383       6.886   2.228 -14.012  1.00 76.08 LIG 0.22  C 
ATOM     20 O    SER C 383       7.092   1.367 -14.868  1.00 76.81 LIG-0.29  OA
ENDBRANCH 18 19
BRANCH 18 21
ATOM     21  CB  SER C 383       7.184   1.931 -11.554  1.00 65.18 LIG 0.20  C 
BRANCH 21 22
ATOM     22 OG   SER C 383       7.101   3.177 -10.887  1.00 68.82 LIG-0.40  OA
ATOM     23 HG   SER C 383       6.343   3.256 -10.533  1.00 68.82 LIG 0.21  HD
ENDBRANCH 21 22
ENDBRANCH 18 21
ENDBRANCH 16 18
ENDBRANCH 13 14
BRANCH 13 24
ATOM     24  CB  ARG C 382       3.272  -1.417 -13.990  1.00 44.34 LIG 0.04  C 
BRANCH 24 25
ATOM     25  CG  ARG C 382       4.459  -1.504 -14.934  1.00 56.39 LIG 0.02  C 
BRANCH 25 26
ATOM     26  CD  ARG C 382       4.061  -1.620 -16.395  1.00 41.52 LIG 0.14  C 
BRANCH 26 27
ATOM     27  NE  ARG C 382       4.824  -2.682 -17.045  1.00 49.53 LIG-0.23  N 
ATOM     28  CZ  ARG C 382       4.467  -3.286 -18.173  1.00 47.90 LIG 0.67  C 
ATOM     29  NH1 ARG C 382       3.349  -2.933 -18.791  1.00 52.31 LIG-0.23  N 
ATOM     30  NH2 ARG C 382       5.226  -4.246 -18.683  1.00 55.66 LIG-0.23  N 
ATOM     31 1HH1 ARG C 382       2.853  -2.311 -18.463  1.00 52.31 LIG 0.17  HD
ATOM     32 2HH1 ARG C 382       3.119  -3.325 -19.522  1.00 52.31 LIG 0.17  HD
ATOM     33 2HH2 ARG C 382       4.994  -4.635 -19.414  1.00 55.66 LIG 0.17  HD
ATOM     34 1HH2 ARG C 382       5.951  -4.479 -18.284  1.00 55.66 LIG 0.17  HD
ATOM     35 HE   ARG C 382       5.556  -2.935 -16.671  1.00 49.53 LIG 0.18  HD
ENDBRANCH 26 27
ENDBRANCH 25 26
ENDBRANCH 24 25
ENDBRANCH 13 24
ENDBRANCH 11 13
ENDBRANCH 5 9
ENDBRANCH 1 2
BRANCH 1 36
ATOM     36  CB  ARG C 380       2.240  -6.276  -8.864  1.00 43.48 LIG 0.04  C 
BRANCH 36 37
ATOM     37  CG  ARG C 380       2.201  -7.777  -8.556  1.00 54.19 LIG 0.02  C 
BRANCH 37 38
ATOM     38  CD  ARG C 380       2.245  -8.553  -9.874  1.00 65.92 LIG 0.14  C 
BRANCH 38 39
ATOM     39  NE  ARG C 380       3.423  -8.292 -10.706  1.00 79.60 LIG-0.23  N 
ATOM     40  CZ  ARG C 380       3.407  -8.381 -12.037  1.00 87.95 LIG 0.67  C 
ATOM     41  NH1 ARG C 380       2.276  -8.714 -12.653  1.00 74.29 LIG-0.23  N 
ATOM     42  NH2 ARG C 380       4.502  -8.134 -12.760  1.00 56.55 LIG-0.23  N 
ATOM     43 2HH1 ARG C 380       2.256  -8.774 -13.510  1.00 74.29 LIG 0.17  HD
ATOM     44 1HH1 ARG C 380       1.566  -8.869 -12.193  1.00 74.29 LIG 0.17  HD
ATOM     45 2HH2 ARG C 380       4.474  -8.196 -13.618  1.00 56.55 LIG 0.17  HD
ATOM     46 1HH2 ARG C 380       5.235  -7.912 -12.368  1.00 56.55 LIG 0.17  HD
ATOM     47 HE   ARG C 380       4.158  -8.071 -10.319  1.00 79.60 LIG 0.18  HD
ENDBRANCH 38 39
ENDBRANCH 37 38
ENDBRANCH 36 37
ENDBRANCH 1 36
BRANCH 1 48
ATOM     48  N   ARG C 380      -0.067  -6.162  -7.972  1.00 47.32 LIG-0.35  N 
ATOM     49  C   LYS C 379      -0.556  -6.320  -6.745  1.00 45.76 LIG 0.24  C 
ATOM     50 O    LYS C 379      -0.049  -5.797  -5.750  1.00 54.38 LIG-0.27  OA
ATOM     51 H    ARG C 380      -0.432  -6.487  -8.679  1.00 47.32 LIG 0.16  HD
BRANCH 49 52
ATOM     52  CA  LYS C 379      -1.783  -7.213  -6.624  1.00 43.75 LIG 0.18  C 
BRANCH 52 53
ATOM     53  N   LYS C 379      -1.568  -8.156  -5.543  1.00 44.28 LIG-0.35  N 
ATOM     54 H    LYS C 379      -1.411  -7.783  -4.784  1.00 44.28 LIG 0.16  HD
ATOM     55  C   GLU C 378      -1.611  -9.471  -5.709  1.00 60.53 LIG 0.26  C 
ATOM     56 O    GLU C 378      -1.958 -10.003  -6.761  1.00 56.79 LIG-0.27  OA
BRANCH 55 57
ATOM     57  CA  GLU C 378      -1.219 -10.305  -4.493  1.00 69.99 LIG 0.40  C 
ATOM     58  N   GLU C 378      -1.573 -11.705  -4.691  1.00 74.89 LIG 0.61  N 
BRANCH 57 59
ATOM     59  CB  GLU C 378       0.282 -10.159  -4.214  1.00 53.06 LIG 0.06  C 
BRANCH 59 60
ATOM     60  CG  GLU C 378       1.188 -10.826  -5.241  1.00 67.66 LIG 0.12  C 
BRANCH 60 61
ATOM     61  CD  GLU C 378       1.117 -12.344  -5.182  1.00 85.24 LIG 0.17  C 
ATOM     62 OE2  GLU C 378       1.474 -12.923  -4.132  1.00 90.60 LIG-0.65  OA
ATOM     63 OE1  GLU C 378       0.711 -12.958  -6.191  1.00103.34 LIG-0.65  OA
ENDBRANCH 60 61
ENDBRANCH 59 60
ENDBRANCH 57 59
ENDBRANCH 55 57
ENDBRANCH 52 53
BRANCH 52 64
ATOM     64  CB  LYS C 379      -3.041  -6.367  -6.388  1.00 37.46 LIG 0.04  C 
BRANCH 64 65
ATOM     65  CG  LYS C 379      -4.194  -7.135  -5.747  1.00 41.02 LIG 0.00  C 
BRANCH 65 66
ATOM     66  CD  LYS C 379      -5.376  -6.220  -5.458  1.00 41.74 LIG 0.03  C 
BRANCH 66 67
ATOM     67  CE  LYS C 379      -6.123  -6.668  -4.211  1.00 41.21 LIG 0.23  C 
BRANCH 67 68
ATOM     68  NZ  LYS C 379      -7.146  -5.679  -3.764  1.00 39.67 LIG-0.08  N 
ATOM     69 HZ1  LYS C 379      -7.578  -5.357  -4.473  1.00 39.67 LIG 0.27  HD
ATOM     70 HZ2  LYS C 379      -7.727  -6.077  -3.220  1.00 39.67 LIG 0.27  HD
ATOM     71 HZ3  LYS C 379      -6.746  -5.010  -3.333  1.00 39.67 LIG 0.27  HD
ENDBRANCH 67 68
ENDBRANCH 66 67
ENDBRANCH 65 66
ENDBRANCH 64 65
ENDBRANCH 52 64
ENDBRANCH 49 52
ENDBRANCH 1 48
TORSDOF 28
ENDMDL
MODEL 2
USER: ADFR SOLUTION from run 62
USER: SCORE 22.161733 LL:  -3.698 LR: -20.508 RR:   0.000 FEB: -12.155
USER: RMSD 6.097710
USER: SEED 61
USER: STATUS no improvement in best in 5 clusters for 5 generations
USER: GENES 30
USER: genes 0 Translation |==|  0.52128 0.43870 0.60834
USER: genes 1 Rotation |==|  0.56463 0.02901 0.65123 0.53348
USER: genes 2 Torsion [N]-CA--C-[N] |==|  0.85883
USER: genes 3 Torsion [N]-CA--C-[O] |==|  0.86011
USER: genes 4 Torsion [C]-N--CA-[CB] |==|  0.43733
USER: genes 5 Torsion [N]-CA--C-[N] |==|  0.93424
USER: genes 6 Torsion [C]-N--CA-[C] |==|  0.51520
USER: genes 7 Torsion [N]-CA--C-[O] |==|  0.38003
USER: genes 8 Torsion [N]-CA--CB-[OG] |==|  0.08984
USER: genes 9 Torsion [CA]-CB--OG-[HG] |==|  0.36487
USER: genes 10 Torsion [N]-CA--CB-[CG] |==|  0.45034
USER: genes 11 Torsion [CA]-CB--CG-[CD] |==|  0.21438
USER: genes 12 Torsion [CB]-CG--CD-[NE] |==|  0.31797
USER: genes 13 Torsion [CG]-CD--NE-[CZ] |==|  0.29358
USER: genes 14 Torsion [C]-CA--CB-[CG] |==|  0.06458
USER: genes 15 Torsion [CA]-CB--CG-[CD] |==|  0.35225
USER: genes 16 Torsion [CB]-CG--CD-[NE] |==|  0.51833
USER: genes 17 Torsion [CG]-CD--NE-[CZ] |==|  0.38607
USER: genes 18 Torsion [C]-CA--N-[C] |==|  0.68930
USER: genes 19 Torsion [N]-C--CA-[N] |==|  0.19644
USER: genes 20 Torsion [C]-CA--N-[C] |==|  0.79400
USER: genes 21 Torsion [N]-C--CA-[N] |==|  0.41732
USER: genes 22 Torsion [C]-CA--CB-[CG] |==|  0.45728
USER: genes 23 Torsion [CA]-CB--CG-[CD] |==|  0.46717
USER: genes 24 Torsion [CB]-CG--CD-[OE2] |==|  0.09598
USER: genes 25 Torsion [C]-CA--CB-[CG] |==|  0.54956
USER: genes 26 Torsion [CA]-CB--CG-[CD] |==|  0.27563
USER: genes 27 Torsion [CB]-CG--CD-[CE] |==|  0.42583
USER: genes 28 Torsion [CG]-CD--CE-[NZ] |==|  0.32512
USER: genes 29 Torsion [CD]-CE--NZ-[HZ2] |==|  0.67732
ROOT
ATOM      1  CA  ARG C 380       0.876  -6.795  -8.954  1.00 55.03 LIG 0.18  C 
ENDROOT
BRANCH 1 2
ATOM      2  C   ARG C 380       0.855  -5.283  -9.125  1.00 47.07 LIG 0.24  C 
ATOM      3 O    ARG C 380      -0.026  -4.754  -9.834  1.00 43.27 LIG-0.27  OA
ATOM      4  N   PRO C 381       1.773  -4.550  -8.501  1.00 52.47 LIG-0.34  N 
ATOM      5  CA  PRO C 381       1.964  -3.144  -8.864  1.00 50.57 LIG 0.18  C 
ATOM      6  CD  PRO C 381       2.671  -4.971  -7.411  1.00 58.50 LIG 0.13  C 
ATOM      7  CB  PRO C 381       2.672  -2.558  -7.636  1.00 39.15 LIG 0.04  C 
ATOM      8  CG  PRO C 381       3.462  -3.711  -7.097  1.00 58.11 LIG 0.02  C 
BRANCH 5 9
ATOM      9  C   PRO C 381       2.835  -3.041 -10.102  1.00 50.29 LIG 0.24  C 
ATOM     10 O    PRO C 381       3.912  -3.634 -10.183  1.00 49.31 LIG-0.27  OA
ATOM     11  N   ARG C 382       2.347  -2.292 -11.087  1.00 50.68 LIG-0.35  N 
ATOM     12 H    ARG C 382       1.556  -1.954 -11.082  1.00 50.68 LIG 0.16  HD
BRANCH 11 13
ATOM     13  CA  ARG C 382       3.125  -1.976 -12.279  1.00 50.76 LIG 0.18  C 
BRANCH 13 14
ATOM     14  C   ARG C 382       4.076  -0.832 -11.936  1.00 59.22 LIG 0.24  C 
ATOM     15 O    ARG C 382       5.113  -0.662 -12.587  1.00 50.32 LIG-0.27  OA
ATOM     16  N   SER C 383       3.723  -0.050 -10.918  1.00 56.43 LIG-0.34  N 
ATOM     17 H    SER C 383       3.020  -0.175 -10.439  1.00 56.43 LIG 0.16  HD
BRANCH 16 18
ATOM     18  CA  SER C 383       4.523   1.110 -10.523  1.00 74.33 LIG 0.19  C 
BRANCH 18 19
ATOM     19  C   SER C 383       3.999   1.775  -9.252  1.00 76.08 LIG 0.22  C 
ATOM     20 O    SER C 383       4.770   2.144  -8.367  1.00 76.81 LIG-0.29  OA
ENDBRANCH 18 19
BRANCH 18 21
ATOM     21  CB  SER C 383       4.562   2.130 -11.656  1.00 65.18 LIG 0.20  C 
BRANCH 21 22
ATOM     22 OG   SER C 383       3.349   2.097 -12.386  1.00 68.82 LIG-0.40  OA
ATOM     23 HG   SER C 383       3.059   2.880 -12.483  1.00 68.82 LIG 0.21  HD
ENDBRANCH 21 22
ENDBRANCH 18 21
ENDBRANCH 16 18
ENDBRANCH 13 14
BRANCH 13 24
ATOM     24  CB  ARG C 382       2.224  -1.609 -13.455  1.00 44.34 LIG 0.04  C 
BRANCH 24 25
ATOM     25  CG  ARG C 382       2.976  -0.871 -14.550  1.00 56.39 LIG 0.02  C 
BRANCH 25 26
ATOM     26  CD  ARG C 382       3.830  -1.781 -15.414  1.00 41.52 LIG 0.14  C 
BRANCH 26 27
ATOM     27  NE  ARG C 382       3.320  -1.805 -16.782  1.00 49.53 LIG-0.23  N 
ATOM     28  CZ  ARG C 382       3.893  -1.189 -17.811  1.00 47.90 LIG 0.67  C 
ATOM     29  NH1 ARG C 382       5.008  -0.495 -17.634  1.00 52.31 LIG-0.23  N 
ATOM     30  NH2 ARG C 382       3.349  -1.265 -19.019  1.00 55.66 LIG-0.23  N 
ATOM     31 1HH1 ARG C 382       5.363  -0.442 -16.853  1.00 52.31 LIG 0.17  HD
ATOM     32 2HH1 ARG C 382       5.377  -0.097 -18.302  1.00 52.31 LIG 0.17  HD
ATOM     33 2HH2 ARG C 382       3.721  -0.867 -19.683  1.00 55.66 LIG 0.17  HD
ATOM     34 1HH2 ARG C 382       2.625  -1.713 -19.136  1.00 55.66 LIG 0.17  HD
ATOM     35 HE   ARG C 382       2.599  -2.248 -16.933  1.00 49.53 LIG 0.18  HD
ENDBRANCH 26 27
ENDBRANCH 25 26
ENDBRANCH 24 25
ENDBRANCH 13 24
ENDBRANCH 11 13
ENDBRANCH 5 9
ENDBRANCH 1 2
BRANCH 1 36
ATOM     36  CB  ARG C 380       0.415  -7.181  -7.543  1.00 43.48 LIG 0.04  C 
BRANCH 36 37
ATOM     37  CG  ARG C 380      -0.462  -6.169  -6.797  1.00 54.19 LIG 0.02  C 
BRANCH 37 38
ATOM     38  CD  ARG C 380      -1.734  -6.874  -6.321  1.00 65.92 LIG 0.14  C 
BRANCH 38 39
ATOM     39  NE  ARG C 380      -2.741  -5.994  -5.721  1.00 79.60 LIG-0.23  N 
ATOM     40  CZ  ARG C 380      -4.048  -6.120  -5.954  1.00 87.95 LIG 0.67  C 
ATOM     41  NH1 ARG C 380      -4.474  -7.088  -6.761  1.00 74.29 LIG-0.23  N 
ATOM     42  NH2 ARG C 380      -4.934  -5.298  -5.387  1.00 56.55 LIG-0.23  N 
ATOM     43 2HH1 ARG C 380      -5.315  -7.177  -6.918  1.00 74.29 LIG 0.17  HD
ATOM     44 1HH1 ARG C 380      -3.909  -7.624  -7.125  1.00 74.29 LIG 0.17  HD
ATOM     45 2HH2 ARG C 380      -5.774  -5.393  -5.549  1.00 56.55 LIG 0.17  HD
ATOM     46 1HH2 ARG C 380      -4.666  -4.674  -4.860  1.00 56.55 LIG 0.17  HD
ATOM     47 HE   ARG C 380      -2.477  -5.368  -5.194  1.00 79.60 LIG 0.18  HD
ENDBRANCH 38 39
ENDBRANCH 37 38
ENDBRANCH 36 37
ENDBRANCH 1 36
BRANCH 1 48
ATOM     48  N   ARG C 380       2.226  -7.274  -9.229  1.00 47.32 LIG-0.35  N 
ATOM     49  C   LYS C 379       2.500  -8.016 -10.298  1.00 45.76 LIG 0.24  C 
ATOM     50 O    LYS C 379       1.655  -8.299 -11.151  1.00 54.38 LIG-0.27  OA
ATOM     51 H    ARG C 380       2.812  -7.036  -8.647  1.00 47.32 LIG 0.16  HD
BRANCH 49 52
ATOM     52  CA  LYS C 379       3.930  -8.526 -10.409  1.00 43.75 LIG 0.18  C 
BRANCH 52 53
ATOM     53  N   LYS C 379       4.143  -9.543  -9.396  1.00 44.28 LIG-0.35  N 
ATOM     54 H    LYS C 379       4.168 -10.343  -9.710  1.00 44.28 LIG 0.16  HD
ATOM     55  C   GLU C 378       4.285  -9.264  -8.108  1.00 60.53 LIG 0.26  C 
ATOM     56 O    GLU C 378       4.373  -8.116  -7.676  1.00 56.79 LIG-0.27  OA
BRANCH 55 57
ATOM     57  CA  GLU C 378       4.354 -10.468  -7.173  1.00 69.99 LIG 0.40  C 
ATOM     58  N   GLU C 378       5.165 -10.166  -6.001  1.00 74.89 LIG 0.61  N 
BRANCH 57 59
ATOM     59  CB  GLU C 378       2.942 -10.899  -6.761  1.00 53.06 LIG 0.06  C 
BRANCH 59 60
ATOM     60  CG  GLU C 378       2.857 -12.287  -6.140  1.00 67.66 LIG 0.12  C 
BRANCH 60 61
ATOM     61  CD  GLU C 378       1.507 -12.553  -5.491  1.00 85.24 LIG 0.17  C 
ATOM     62 OE2  GLU C 378       0.482 -12.060  -6.011  1.00 90.60 LIG-0.65  OA
ATOM     63 OE1  GLU C 378       1.474 -13.249  -4.454  1.00103.34 LIG-0.65  OA
ENDBRANCH 60 61
ENDBRANCH 59 60
ENDBRANCH 57 59
ENDBRANCH 55 57
ENDBRANCH 52 53
BRANCH 52 64
ATOM     64  CB  LYS C 379       4.196  -9.074 -11.817  1.00 37.46 LIG 0.04  C 
BRANCH 64 65
ATOM     65  CG  LYS C 379       5.421  -9.981 -11.909  1.00 41.02 LIG 0.00  C 
BRANCH 65 66
ATOM     66  CD  LYS C 379       5.025 -11.451 -11.884  1.00 41.74 LIG 0.03  C 
BRANCH 66 67
ATOM     67  CE  LYS C 379       6.056 -12.309 -12.600  1.00 41.21 LIG 0.23  C 
BRANCH 67 68
ATOM     68  NZ  LYS C 379       6.719 -13.292 -11.695  1.00 39.67 LIG-0.08  N 
ATOM     69 HZ1  LYS C 379       6.614 -14.113 -12.020  1.00 39.67 LIG 0.27  HD
ATOM     70 HZ2  LYS C 379       7.587 -13.104 -11.638  1.00 39.67 LIG 0.27  HD
ATOM     71 HZ3  LYS C 379       6.352 -13.245 -10.885  1.00 39.67 LIG 0.27  HD
ENDBRANCH 67 68
ENDBRANCH 66 67
ENDBRANCH 65 66
ENDBRANCH 64 65
ENDBRANCH 52 64
ENDBRANCH 49 52
ENDBRANCH 1 48
TORSDOF 28
ENDMDL
MODEL 3
USER: ADFR SOLUTION from run 120
USER: SCORE 23.534772 LL:  -4.341 LR: -20.490 RR:   0.000 FEB: -12.138
USER: RMSD 6.953606
USER: SEED 119
USER: STATUS no improvement in best in 2 clusters for 5 generations
USER: GENES 30
USER: genes 0 Translation |==|  0.63104 0.40244 0.55642
USER: genes 1 Rotation |==|  0.45889 0.78869 0.68006 0.86407
USER: genes 2 Torsion [N]-CA--C-[N] |==|  0.15082
USER: genes 3 Torsion [N]-CA--C-[O] |==|  0.27842
USER: genes 4 Torsion [C]-N--CA-[CB] |==|  0.47229
USER: genes 5 Torsion [N]-CA--C-[N] |==|  0.45609
USER: genes 6 Torsion [C]-N--CA-[C] |==|  0.62869
USER: genes 7 Torsion [N]-CA--C-[O] |==|  0.89755
USER: genes 8 Torsion [N]-CA--CB-[OG] |==|  0.98670
USER: genes 9 Torsion [CA]-CB--OG-[HG] |==|  0.13544
USER: genes 10 Torsion [N]-CA--CB-[CG] |==|  0.52937
USER: genes 11 Torsion [CA]-CB--CG-[CD] |==|  0.45482
USER: genes 12 Torsion [CB]-CG--CD-[NE] |==|  0.61938
USER: genes 13 Torsion [CG]-CD--NE-[CZ] |==|  0.20880
USER: genes 14 Torsion [C]-CA--CB-[CG] |==|  0.71800
USER: genes 15 Torsion [CA]-CB--CG-[CD] |==|  0.55157
USER: genes 16 Torsion [CB]-CG--CD-[NE] |==|  0.26756
USER: genes 17 Torsion [CG]-CD--NE-[CZ] |==|  0.24155
USER: genes 18 Torsion [C]-CA--N-[C] |==|  0.61333
USER: genes 19 Torsion [N]-C--CA-[N] |==|  0.00386
USER: genes 20 Torsion [C]-CA--N-[C] |==|  0.75394
USER: genes 21 Torsion [N]-C--CA-[N] |==|  0.71319
USER: genes 22 Torsion [C]-CA--CB-[CG] |==|  0.46252
USER: genes 23 Torsion [CA]-CB--CG-[CD] |==|  0.00773
USER: genes 24 Torsion [CB]-CG--CD-[OE2] |==|  0.72111
USER: genes 25 Torsion [C]-CA--CB-[CG] |==|  0.84904
USER: genes 26 Torsion [CA]-CB--CG-[CD] |==|  0.65022
USER: genes 27 Torsion [CB]-CG--CD-[CE] |==|  0.15600
USER: genes 28 Torsion [CG]-CD--CE-[NZ] |==|  0.34947
USER: genes 29 Torsion [CD]-CE--NZ-[HZ2] |==|  0.61581
ROOT
ATOM      1  CA  ARG C 380       3.592  -7.638 -10.240  1.00 55.03 LIG 0.18  C 
ENDROOT
BRANCH 1 2
ATOM      2  C   ARG C 380       2.187  -7.243  -9.809  1.00 47.07 LIG 0.24  C 
ATOM      3 O    ARG C 380       1.211  -7.561 -10.520  1.00 43.27 LIG-0.27  OA
ATOM      4  N   PRO C 381       2.024  -6.576  -8.670  1.00 52.47 LIG-0.34  N 
ATOM      5  CA  PRO C 381       0.743  -5.934  -8.369  1.00 50.57 LIG 0.18  C 
ATOM      6  CD  PRO C 381       3.006  -6.393  -7.587  1.00 58.50 LIG 0.13  C 
ATOM      7  CB  PRO C 381       0.788  -5.756  -6.847  1.00 39.15 LIG 0.04  C 
ATOM      8  CG  PRO C 381       2.246  -5.577  -6.554  1.00 58.11 LIG 0.02  C 
BRANCH 5 9
ATOM      9  C   PRO C 381       0.653  -4.595  -9.077  1.00 50.29 LIG 0.24  C 
ATOM     10 O    PRO C 381       0.021  -4.462 -10.127  1.00 49.31 LIG-0.27  OA
ATOM     11  N   ARG C 382       1.279  -3.585  -8.478  1.00 50.68 LIG-0.35  N 
ATOM     12 H    ARG C 382       1.638  -3.642  -7.699  1.00 50.68 LIG 0.16  HD
BRANCH 11 13
ATOM     13  CA  ARG C 382       1.408  -2.274  -9.103  1.00 50.76 LIG 0.18  C 
BRANCH 13 14
ATOM     14  C   ARG C 382       2.329  -2.413 -10.312  1.00 59.22 LIG 0.24  C 
ATOM     15 O    ARG C 382       3.043  -3.412 -10.445  1.00 50.32 LIG-0.27  OA
ATOM     16  N   SER C 383       2.312  -1.412 -11.190  1.00 56.43 LIG-0.34  N 
ATOM     17 H    SER C 383       1.842  -0.699 -11.095  1.00 56.43 LIG 0.16  HD
BRANCH 16 18
ATOM     18  CA  SER C 383       3.111  -1.449 -12.417  1.00 74.33 LIG 0.19  C 
BRANCH 18 19
ATOM     19  C   SER C 383       3.860  -0.142 -12.664  1.00 76.08 LIG 0.22  C 
ATOM     20 O    SER C 383       3.349   0.943 -12.386  1.00 76.81 LIG-0.29  OA
ENDBRANCH 18 19
BRANCH 18 21
ATOM     21  CB  SER C 383       2.220  -1.763 -13.614  1.00 65.18 LIG 0.20  C 
BRANCH 21 22
ATOM     22 OG   SER C 383       0.899  -2.036 -13.183  1.00 68.82 LIG-0.40  OA
ATOM     23 HG   SER C 383       0.647  -1.435 -12.652  1.00 68.82 LIG 0.21  HD
ENDBRANCH 21 22
ENDBRANCH 18 21
ENDBRANCH 16 18
ENDBRANCH 13 14
BRANCH 13 24
ATOM     24  CB  ARG C 382       1.944  -1.237  -8.119  1.00 44.34 LIG 0.04  C 
BRANCH 24 25
ATOM     25  CG  ARG C 382       1.846   0.179  -8.664  1.00 56.39 LIG 0.02  C 
BRANCH 25 26
ATOM     26  CD  ARG C 382       1.994   1.248  -7.596  1.00 41.52 LIG 0.14  C 
BRANCH 26 27
ATOM     27  NE  ARG C 382       1.007   2.305  -7.798  1.00 49.53 LIG-0.23  N 
ATOM     28  CZ  ARG C 382      -0.285   2.195  -7.511  1.00 47.90 LIG 0.67  C 
ATOM     29  NH1 ARG C 382      -0.760   1.068  -7.001  1.00 52.31 LIG-0.23  N 
ATOM     30  NH2 ARG C 382      -1.106   3.213  -7.736  1.00 55.66 LIG-0.23  N 
ATOM     31 1HH1 ARG C 382      -0.231   0.405  -6.855  1.00 52.31 LIG 0.17  HD
ATOM     32 2HH1 ARG C 382      -1.597   0.999  -6.815  1.00 52.31 LIG 0.17  HD
ATOM     33 2HH2 ARG C 382      -1.941   3.141  -7.549  1.00 55.66 LIG 0.17  HD
ATOM     34 1HH2 ARG C 382      -0.801   3.945  -8.069  1.00 55.66 LIG 0.17  HD
ATOM     35 HE   ARG C 382       1.282   3.051  -8.126  1.00 49.53 LIG 0.18  HD
ENDBRANCH 26 27
ENDBRANCH 25 26
ENDBRANCH 24 25
ENDBRANCH 13 24
ENDBRANCH 11 13
ENDBRANCH 5 9
ENDBRANCH 1 2
BRANCH 1 36
ATOM     36  CB  ARG C 380       3.544  -8.461 -11.534  1.00 43.48 LIG 0.04  C 
BRANCH 36 37
ATOM     37  CG  ARG C 380       3.698  -9.980 -11.399  1.00 54.19 LIG 0.02  C 
BRANCH 37 38
ATOM     38  CD  ARG C 380       4.085 -10.560 -12.761  1.00 65.92 LIG 0.14  C 
BRANCH 38 39
ATOM     39  NE  ARG C 380       5.522 -10.773 -12.956  1.00 79.60 LIG-0.23  N 
ATOM     40  CZ  ARG C 380       6.149 -11.891 -12.585  1.00 87.95 LIG 0.67  C 
ATOM     41  NH1 ARG C 380       5.450 -12.870 -12.018  1.00 74.29 LIG-0.23  N 
ATOM     42  NH2 ARG C 380       7.460 -12.046 -12.782  1.00 56.55 LIG-0.23  N 
ATOM     43 2HH1 ARG C 380       5.845 -13.594 -11.776  1.00 74.29 LIG 0.17  HD
ATOM     44 1HH1 ARG C 380       4.604 -12.777 -11.894  1.00 74.29 LIG 0.17  HD
ATOM     45 2HH2 ARG C 380       7.849 -12.774 -12.537  1.00 56.55 LIG 0.17  HD
ATOM     46 1HH2 ARG C 380       7.917 -11.418 -13.153  1.00 56.55 LIG 0.17  HD
ATOM     47 HE   ARG C 380       5.983 -10.148 -13.326  1.00 79.60 LIG 0.18  HD
ENDBRANCH 38 39
ENDBRANCH 37 38
ENDBRANCH 36 37
ENDBRANCH 1 36
BRANCH 1 48
ATOM     48  N   ARG C 380       4.218  -8.383  -9.152  1.00 47.32 LIG-0.35  N 
ATOM     49  C   LYS C 379       5.492  -8.196  -8.821  1.00 45.76 LIG 0.24  C 
ATOM     50 O    LYS C 379       6.209  -7.351  -9.364  1.00 54.38 LIG-0.27  OA
ATOM     51 H    ARG C 380       3.696  -8.940  -8.757  1.00 47.32 LIG 0.16  HD
BRANCH 49 52
ATOM     52  CA  LYS C 379       6.041  -9.108  -7.732  1.00 43.75 LIG 0.18  C 
BRANCH 52 53
ATOM     53  N   LYS C 379       4.995 -10.026  -7.323  1.00 44.28 LIG-0.35  N 
ATOM     54 H    LYS C 379       4.994 -10.766  -7.760  1.00 44.28 LIG 0.16  HD
ATOM     55  C   GLU C 378       4.123  -9.750  -6.363  1.00 60.53 LIG 0.26  C 
ATOM     56 O    GLU C 378       4.200  -8.748  -5.654  1.00 56.79 LIG-0.27  OA
BRANCH 55 57
ATOM     57  CA  GLU C 378       3.007 -10.772  -6.167  1.00 69.99 LIG 0.40  C 
ATOM     58  N   GLU C 378       1.758 -10.289  -6.742  1.00 74.89 LIG 0.61  N 
BRANCH 57 59
ATOM     59  CB  GLU C 378       3.406 -12.116  -6.787  1.00 53.06 LIG 0.06  C 
BRANCH 59 60
ATOM     60  CG  GLU C 378       2.526 -13.291  -6.380  1.00 67.66 LIG 0.12  C 
BRANCH 60 61
ATOM     61  CD  GLU C 378       1.374 -12.870  -5.480  1.00 85.24 LIG 0.17  C 
ATOM     62 OE2  GLU C 378       1.474 -13.054  -4.248  1.00 90.60 LIG-0.65  OA
ATOM     63 OE1  GLU C 378       0.363 -12.363  -6.011  1.00103.34 LIG-0.65  OA
ENDBRANCH 60 61
ENDBRANCH 59 60
ENDBRANCH 57 59
ENDBRANCH 55 57
ENDBRANCH 52 53
BRANCH 52 64
ATOM     64  CB  LYS C 379       7.280  -9.859  -8.235  1.00 37.46 LIG 0.04  C 
BRANCH 64 65
ATOM     65  CG  LYS C 379       7.052 -10.634  -9.531  1.00 41.02 LIG 0.00  C 
BRANCH 65 66
ATOM     66  CD  LYS C 379       7.448 -12.096  -9.379  1.00 41.74 LIG 0.03  C 
BRANCH 66 67
ATOM     67  CE  LYS C 379       6.701 -12.748  -8.225  1.00 41.21 LIG 0.23  C 
BRANCH 67 68
ATOM     68  NZ  LYS C 379       5.974 -13.985  -8.633  1.00 39.67 LIG-0.08  N 
ATOM     69 HZ1  LYS C 379       6.438 -14.701  -8.379  1.00 39.67 LIG 0.27  HD
ATOM     70 HZ2  LYS C 379       5.172 -14.000  -8.248  1.00 39.67 LIG 0.27  HD
ATOM     71 HZ3  LYS C 379       5.877 -13.995  -9.518  1.00 39.67 LIG 0.27  HD
ENDBRANCH 67 68
ENDBRANCH 66 67
ENDBRANCH 65 66
ENDBRANCH 64 65
ENDBRANCH 52 64
ENDBRANCH 49 52
ENDBRANCH 1 48
TORSDOF 28
ENDMDL
MODEL 4
USER: ADFR SOLUTION from run 40
USER: SCORE 23.015243 LL:  -4.753 LR: -19.478 RR:   0.000 FEB: -11.125
USER: RMSD 3.645795
USER: SEED 39
USER: STATUS searching
USER: GENES 30
USER: genes 0 Translation |==|  0.53238 0.49872 0.63777
USER: genes 1 Rotation |==|  0.49715 0.46211 0.53588 0.99726
USER: genes 2 Torsion [N]-CA--C-[N] |==|  0.34493
USER: genes 3 Torsion [N]-CA--C-[O] |==|  0.16215
USER: genes 4 Torsion [C]-N--CA-[CB] |==|  0.88307
USER: genes 5 Torsion [N]-CA--C-[N] |==|  0.78889
USER: genes 6 Torsion [C]-N--CA-[C] |==|  0.59778
USER: genes 7 Torsion [N]-CA--C-[O] |==|  0.03793
USER: genes 8 Torsion [N]-CA--CB-[OG] |==|  0.98740
USER: genes 9 Torsion [CA]-CB--OG-[HG] |==|  0.56356
USER: genes 10 Torsion [N]-CA--CB-[CG] |==|  0.62586
USER: genes 11 Torsion [CA]-CB--CG-[CD] |==|  0.87650
USER: genes 12 Torsion [CB]-CG--CD-[NE] |==|  0.34165
USER: genes 13 Torsion [CG]-CD--NE-[CZ] |==|  0.68247
USER: genes 14 Torsion [C]-CA--CB-[CG] |==|  0.54973
USER: genes 15 Torsion [CA]-CB--CG-[CD] |==|  0.38824
USER: genes 16 Torsion [CB]-CG--CD-[NE] |==|  0.13576
USER: genes 17 Torsion [CG]-CD--NE-[CZ] |==|  0.57135
USER: genes 18 Torsion [C]-CA--N-[C] |==|  0.68682
USER: genes 19 Torsion [N]-C--CA-[N] |==|  0.36405
USER: genes 20 Torsion [C]-CA--N-[C] |==|  0.65782
USER: genes 21 Torsion [N]-C--CA-[N] |==|  0.46178
USER: genes 22 Torsion [C]-CA--CB-[CG] |==|  0.80928
USER: genes 23 Torsion [CA]-CB--CG-[CD] |==|  0.81203
USER: genes 24 Torsion [CB]-CG--CD-[OE2] |==|  0.82977
USER: genes 25 Torsion [C]-CA--CB-[CG] |==|  0.55858
USER: genes 26 Torsion [CA]-CB--CG-[CD] |==|  0.49153
USER: genes 27 Torsion [CB]-CG--CD-[CE] |==|  0.59781
USER: genes 28 Torsion [CG]-CD--CE-[NZ] |==|  0.47215
USER: genes 29 Torsion [CD]-CE--NZ-[HZ2] |==|  0.44536
ROOT
ATOM      1  CA  ARG C 380       1.151  -5.400  -8.226  1.00 55.03 LIG 0.18  C 
ENDROOT
BRANCH 1 2
ATOM      2  C   ARG C 380       0.767  -4.175  -9.043  1.00 47.07 LIG 0.24  C 
ATOM      3 O    ARG C 380       0.154  -4.319 -10.122  1.00 43.27 LIG-0.27  OA
ATOM      4  N   PRO C 381       1.081  -2.967  -8.584  1.00 52.47 LIG-0.34  N 
ATOM      5  CA  PRO C 381       0.992  -1.798  -9.461  1.00 50.57 LIG 0.18  C 
ATOM      6  CD  PRO C 381       1.518  -2.609  -7.222  1.00 58.50 LIG 0.13  C 
ATOM      7  CB  PRO C 381       0.915  -0.625  -8.477  1.00 39.15 LIG 0.04  C 
ATOM      8  CG  PRO C 381       1.702  -1.101  -7.295  1.00 58.11 LIG 0.02  C 
BRANCH 5 9
ATOM      9  C   PRO C 381       2.231  -1.705 -10.332  1.00 50.29 LIG 0.24  C 
ATOM     10 O    PRO C 381       2.557  -2.621 -11.090  1.00 49.31 LIG-0.27  OA
ATOM     11  N   ARG C 382       2.917  -0.569 -10.235  1.00 50.68 LIG-0.35  N 
ATOM     12 H    ARG C 382       2.648   0.113  -9.787  1.00 50.68 LIG 0.16  HD
BRANCH 11 13
ATOM     13  CA  ARG C 382       4.205  -0.383 -10.894  1.00 50.76 LIG 0.18  C 
BRANCH 13 14
ATOM     14  C   ARG C 382       3.945  -0.047 -12.360  1.00 59.22 LIG 0.24  C 
ATOM     15 O    ARG C 382       4.066   1.113 -12.769  1.00 50.32 LIG-0.27  OA
ATOM     16  N   SER C 383       3.587  -1.059 -13.148  1.00 56.43 LIG-0.34  N 
ATOM     17 H    SER C 383       3.470  -1.865 -12.871  1.00 56.43 LIG 0.16  HD
BRANCH 16 18
ATOM     18  CA  SER C 383       3.359  -0.876 -14.582  1.00 74.33 LIG 0.19  C 
BRANCH 18 19
ATOM     19  C   SER C 383       2.231  -1.760 -15.111  1.00 76.08 LIG 0.22  C 
ATOM     20 O    SER C 383       1.460  -2.330 -14.340  1.00 76.81 LIG-0.29  OA
ENDBRANCH 18 19
BRANCH 18 21
ATOM     21  CB  SER C 383       4.640  -1.162 -15.358  1.00 65.18 LIG 0.20  C 
BRANCH 21 22
ATOM     22 OG   SER C 383       5.707  -1.420 -14.463  1.00 68.82 LIG-0.40  OA
ATOM     23 HG   SER C 383       6.439  -1.268 -14.847  1.00 68.82 LIG 0.21  HD
ENDBRANCH 21 22
ENDBRANCH 18 21
ENDBRANCH 16 18
ENDBRANCH 13 14
BRANCH 13 24
ATOM     24  CB  ARG C 382       5.084  -1.624 -10.762  1.00 44.34 LIG 0.04  C 
BRANCH 24 25
ATOM     25  CG  ARG C 382       6.513  -1.279 -10.376  1.00 56.39 LIG 0.02  C 
BRANCH 25 26
ATOM     26  CD  ARG C 382       7.083  -0.107 -11.156  1.00 41.52 LIG 0.14  C 
BRANCH 26 27
ATOM     27  NE  ARG C 382       7.524   0.943 -10.242  1.00 49.53 LIG-0.23  N 
ATOM     28  CZ  ARG C 382       6.976   2.150 -10.160  1.00 47.90 LIG 0.67  C 
ATOM     29  NH1 ARG C 382       5.953   2.471 -10.939  1.00 52.31 LIG-0.23  N 
ATOM     30  NH2 ARG C 382       7.452   3.040  -9.300  1.00 55.66 LIG-0.23  N 
ATOM     31 1HH1 ARG C 382       5.642   1.898 -11.500  1.00 52.31 LIG 0.17  HD
ATOM     32 2HH1 ARG C 382       5.599   3.254 -10.884  1.00 52.31 LIG 0.17  HD
ATOM     33 2HH2 ARG C 382       7.096   3.821  -9.247  1.00 55.66 LIG 0.17  HD
ATOM     34 1HH2 ARG C 382       8.117   2.836  -8.794  1.00 55.66 LIG 0.17  HD
ATOM     35 HE   ARG C 382       8.185   0.768  -9.721  1.00 49.53 LIG 0.18  HD
ENDBRANCH 26 27
ENDBRANCH 25 26
ENDBRANCH 24 25
ENDBRANCH 13 24
ENDBRANCH 11 13
ENDBRANCH 5 9
ENDBRANCH 1 2
BRANCH 1 36
ATOM     36  CB  ARG C 380       2.211  -6.225  -8.966  1.00 43.48 LIG 0.04  C 
BRANCH 36 37
ATOM     37  CG  ARG C 380       2.404  -7.677  -8.512  1.00 54.19 LIG 0.02  C 
BRANCH 37 38
ATOM     38  CD  ARG C 380       2.607  -8.558  -9.746  1.00 65.92 LIG 0.14  C 
BRANCH 38 39
ATOM     39  NE  ARG C 380       3.600  -8.062 -10.703  1.00 79.60 LIG-0.23  N 
ATOM     40  CZ  ARG C 380       3.576  -8.368 -12.001  1.00 87.95 LIG 0.67  C 
ATOM     41  NH1 ARG C 380       2.608  -9.153 -12.465  1.00 74.29 LIG-0.23  N 
ATOM     42  NH2 ARG C 380       4.499  -7.895 -12.841  1.00 56.55 LIG-0.23  N 
ATOM     43 2HH1 ARG C 380       2.583  -9.356 -13.300  1.00 74.29 LIG 0.17  HD
ATOM     44 1HH1 ARG C 380       2.007  -9.457 -11.930  1.00 74.29 LIG 0.17  HD
ATOM     45 2HH2 ARG C 380       4.469  -8.103 -13.675  1.00 56.55 LIG 0.17  HD
ATOM     46 1HH2 ARG C 380       5.125  -7.383 -12.547  1.00 56.55 LIG 0.17  HD
ATOM     47 HE   ARG C 380       4.227  -7.550 -10.414  1.00 79.60 LIG 0.18  HD
ENDBRANCH 38 39
ENDBRANCH 37 38
ENDBRANCH 36 37
ENDBRANCH 1 36
BRANCH 1 48
ATOM     48  N   ARG C 380      -0.054  -6.180  -7.967  1.00 47.32 LIG-0.35  N 
ATOM     49  C   LYS C 379      -0.553  -6.309  -6.741  1.00 45.76 LIG 0.24  C 
ATOM     50 O    LYS C 379      -0.071  -5.739  -5.759  1.00 54.38 LIG-0.27  OA
ATOM     51 H    ARG C 380      -0.402  -6.539  -8.667  1.00 47.32 LIG 0.16  HD
BRANCH 49 52
ATOM     52  CA  LYS C 379      -1.758  -7.229  -6.603  1.00 43.75 LIG 0.18  C 
BRANCH 52 53
ATOM     53  N   LYS C 379      -1.522  -8.144  -5.502  1.00 44.28 LIG-0.35  N 
ATOM     54 H    LYS C 379      -1.361  -7.751  -4.754  1.00 44.28 LIG 0.16  HD
ATOM     55  C   GLU C 378      -1.552  -9.463  -5.637  1.00 60.53 LIG 0.26  C 
ATOM     56 O    GLU C 378      -1.904 -10.024  -6.673  1.00 56.79 LIG-0.27  OA
BRANCH 55 57
ATOM     57  CA  GLU C 378      -1.138 -10.264  -4.406  1.00 69.99 LIG 0.40  C 
ATOM     58  N   GLU C 378      -1.512 -11.665  -4.551  1.00 74.89 LIG 0.61  N 
BRANCH 57 59
ATOM     59  CB  GLU C 378       0.370 -10.127  -4.169  1.00 53.06 LIG 0.06  C 
BRANCH 59 60
ATOM     60  CG  GLU C 378       1.244 -10.804  -5.217  1.00 67.66 LIG 0.12  C 
BRANCH 60 61
ATOM     61  CD  GLU C 378       1.129 -12.320  -5.179  1.00 85.24 LIG 0.17  C 
ATOM     62 OE2  GLU C 378       1.466 -12.923  -4.137  1.00 90.60 LIG-0.65  OA
ATOM     63 OE1  GLU C 378       0.709 -12.909  -6.198  1.00103.34 LIG-0.65  OA
ENDBRANCH 60 61
ENDBRANCH 59 60
ENDBRANCH 57 59
ENDBRANCH 55 57
ENDBRANCH 52 53
BRANCH 52 64
ATOM     64  CB  LYS C 379      -3.037  -6.409  -6.385  1.00 37.46 LIG 0.04  C 
BRANCH 64 65
ATOM     65  CG  LYS C 379      -4.177  -7.197  -5.743  1.00 41.02 LIG 0.00  C 
BRANCH 65 66
ATOM     66  CD  LYS C 379      -5.387  -6.309  -5.487  1.00 41.74 LIG 0.03  C 
BRANCH 66 67
ATOM     67  CE  LYS C 379      -6.100  -6.712  -4.206  1.00 41.21 LIG 0.23  C 
BRANCH 67 68
ATOM     68  NZ  LYS C 379      -7.142  -5.729  -3.791  1.00 39.67 LIG-0.08  N 
ATOM     69 HZ1  LYS C 379      -7.583  -5.441  -4.509  1.00 39.67 LIG 0.27  HD
ATOM     70 HZ2  LYS C 379      -7.713  -6.119  -3.231  1.00 39.67 LIG 0.27  HD
ATOM     71 HZ3  LYS C 379      -6.755  -5.037  -3.386  1.00 39.67 LIG 0.27  HD
ENDBRANCH 67 68
ENDBRANCH 66 67
ENDBRANCH 65 66
ENDBRANCH 64 65
ENDBRANCH 52 64
ENDBRANCH 49 52
ENDBRANCH 1 48
TORSDOF 28
ENDMDL
MODEL 5
USER: ADFR SOLUTION from run 110
USER: SCORE 22.793708 LL:  -4.559 LR: -19.484 RR:   0.000 FEB: -11.132
USER: RMSD 8.808728
USER: SEED 109
USER: STATUS searching
USER: GENES 30
USER: genes 0 Translation |==|  0.71936 0.35362 0.48603
USER: genes 1 Rotation |==|  0.53664 0.69329 0.20054 0.84874
USER: genes 2 Torsion [N]-CA--C-[N] |==|  0.43095
USER: genes 3 Torsion [N]-CA--C-[O] |==|  0.09421
USER: genes 4 Torsion [C]-N--CA-[CB] |==|  0.19372
USER: genes 5 Torsion [N]-CA--C-[N] |==|  0.38113
USER: genes 6 Torsion [C]-N--CA-[C] |==|  0.13767
USER: genes 7 Torsion [N]-CA--C-[O] |==|  0.32472
USER: genes 8 Torsion [N]-CA--CB-[OG] |==|  0.92308
USER: genes 9 Torsion [CA]-CB--OG-[HG] |==|  0.96731
USER: genes 10 Torsion [N]-CA--CB-[CG] |==|  0.20889
USER: genes 11 Torsion [CA]-CB--CG-[CD] |==|  0.38836
USER: genes 12 Torsion [CB]-CG--CD-[NE] |==|  0.92760
USER: genes 13 Torsion [CG]-CD--NE-[CZ] |==|  0.36147
USER: genes 14 Torsion [C]-CA--CB-[CG] |==|  0.35546
USER: genes 15 Torsion [CA]-CB--CG-[CD] |==|  0.12880
USER: genes 16 Torsion [CB]-CG--CD-[NE] |==|  0.63102
USER: genes 17 Torsion [CG]-CD--NE-[CZ] |==|  0.23091
USER: genes 18 Torsion [C]-CA--N-[C] |==|  0.61240
USER: genes 19 Torsion [N]-C--CA-[N] |==|  0.07861
USER: genes 20 Torsion [C]-CA--N-[C] |==|  0.17471
USER: genes 21 Torsion [N]-C--CA-[N] |==|  0.75900
USER: genes 22 Torsion [C]-CA--CB-[CG] |==|  0.55753
USER: genes 23 Torsion [CA]-CB--CG-[CD] |==|  0.85001
USER: genes 24 Torsion [CB]-CG--CD-[OE2] |==|  0.09875
USER: genes 25 Torsion [C]-CA--CB-[CG] |==|  0.18020
USER: genes 26 Torsion [CA]-CB--CG-[CD] |==|  0.65039
USER: genes 27 Torsion [CB]-CG--CD-[CE] |==|  0.34864
USER: genes 28 Torsion [CG]-CD--CE-[NZ] |==|  0.57889
USER: genes 29 Torsion [CD]-CE--NZ-[HZ2] |==|  0.25430
ROOT
ATOM      1  CA  ARG C 380       5.778  -8.773 -11.982  1.00 55.03 LIG 0.18  C 
ENDROOT
BRANCH 1 2
ATOM      2  C   ARG C 380       6.592  -7.750 -12.761  1.00 47.07 LIG 0.24  C 
ATOM      3 O    ARG C 380       6.493  -6.537 -12.478  1.00 43.27 LIG-0.27  OA
ATOM      4  N   PRO C 381       7.407  -8.170 -13.724  1.00 52.47 LIG-0.34  N 
ATOM      5  CA  PRO C 381       7.978  -7.214 -14.675  1.00 50.57 LIG 0.18  C 
ATOM      6  CD  PRO C 381       7.864  -9.548 -13.977  1.00 58.50 LIG 0.13  C 
ATOM      7  CB  PRO C 381       9.195  -7.960 -15.236  1.00 39.15 LIG 0.04  C 
ATOM      8  CG  PRO C 381       8.786  -9.400 -15.177  1.00 58.11 LIG 0.02  C 
BRANCH 5 9
ATOM      9  C   PRO C 381       6.971  -6.904 -15.768  1.00 50.29 LIG 0.24  C 
ATOM     10 O    PRO C 381       5.761  -6.870 -15.539  1.00 49.31 LIG-0.27  OA
ATOM     11  N   ARG C 382       7.487  -6.654 -16.969  1.00 50.68 LIG-0.35  N 
ATOM     12 H    ARG C 382       8.330  -6.578 -17.119  1.00 50.68 LIG 0.16  HD
BRANCH 11 13
ATOM     13  CA  ARG C 382       6.649  -6.483 -18.151  1.00 50.76 LIG 0.18  C 
BRANCH 13 14
ATOM     14  C   ARG C 382       7.552  -6.517 -19.381  1.00 59.22 LIG 0.24  C 
ATOM     15 O    ARG C 382       8.631  -5.915 -19.384  1.00 50.32 LIG-0.27  OA
ATOM     16  N   SER C 383       7.111  -7.218 -20.423  1.00 56.43 LIG-0.34  N 
ATOM     17 H    SER C 383       6.349  -7.617 -20.445  1.00 56.43 LIG 0.16  HD
BRANCH 16 18
ATOM     18  CA  SER C 383       7.906  -7.370 -21.643  1.00 74.33 LIG 0.19  C 
BRANCH 18 19
ATOM     19  C   SER C 383       9.340  -7.808 -21.353  1.00 76.08 LIG 0.22  C 
ATOM     20 O    SER C 383       9.767  -8.888 -21.761  1.00 76.81 LIG-0.29  OA
ENDBRANCH 18 19
BRANCH 18 21
ATOM     21  CB  SER C 383       7.918  -6.062 -22.426  1.00 65.18 LIG 0.20  C 
BRANCH 21 22
ATOM     22 OG   SER C 383       6.740  -5.322 -22.163  1.00 68.82 LIG-0.40  OA
ATOM     23 HG   SER C 383       6.188  -5.809 -21.756  1.00 68.82 LIG 0.21  HD
ENDBRANCH 21 22
ENDBRANCH 18 21
ENDBRANCH 16 18
ENDBRANCH 13 14
BRANCH 13 24
ATOM     24  CB  ARG C 382       5.852  -5.183 -18.088  1.00 44.34 LIG 0.04  C 
BRANCH 24 25
ATOM     25  CG  ARG C 382       6.715  -3.964 -18.371  1.00 56.39 LIG 0.02  C 
BRANCH 25 26
ATOM     26  CD  ARG C 382       6.022  -2.922 -19.233  1.00 41.52 LIG 0.14  C 
BRANCH 26 27
ATOM     27  NE  ARG C 382       5.002  -3.552 -20.067  1.00 49.53 LIG-0.23  N 
ATOM     28  CZ  ARG C 382       3.748  -3.128 -20.172  1.00 47.90 LIG 0.67  C 
ATOM     29  NH1 ARG C 382       3.346  -2.062 -19.495  1.00 52.31 LIG-0.23  N 
ATOM     30  NH2 ARG C 382       2.891  -3.772 -20.955  1.00 55.66 LIG-0.23  N 
ATOM     31 1HH1 ARG C 382       3.898  -1.642 -18.986  1.00 52.31 LIG 0.17  HD
ATOM     32 2HH1 ARG C 382       2.533  -1.789 -19.565  1.00 52.31 LIG 0.17  HD
ATOM     33 2HH2 ARG C 382       2.080  -3.496 -21.022  1.00 55.66 LIG 0.17  HD
ATOM     34 1HH2 ARG C 382       3.148  -4.465 -21.394  1.00 55.66 LIG 0.17  HD
ATOM     35 HE   ARG C 382       5.229  -4.245 -20.522  1.00 49.53 LIG 0.18  HD
ENDBRANCH 26 27
ENDBRANCH 25 26
ENDBRANCH 24 25
ENDBRANCH 13 24
ENDBRANCH 11 13
ENDBRANCH 5 9
ENDBRANCH 1 2
BRANCH 1 36
ATOM     36  CB  ARG C 380       4.514  -9.157 -12.761  1.00 43.48 LIG 0.04  C 
BRANCH 36 37
ATOM     37  CG  ARG C 380       4.259 -10.653 -12.980  1.00 54.19 LIG 0.02  C 
BRANCH 37 38
ATOM     38  CD  ARG C 380       4.475 -11.390 -11.657  1.00 65.92 LIG 0.14  C 
BRANCH 38 39
ATOM     39  NE  ARG C 380       5.299 -12.598 -11.750  1.00 79.60 LIG-0.23  N 
ATOM     40  CZ  ARG C 380       6.633 -12.571 -11.738  1.00 87.95 LIG 0.67  C 
ATOM     41  NH1 ARG C 380       7.258 -11.402 -11.631  1.00 74.29 LIG-0.23  N 
ATOM     42  NH2 ARG C 380       7.348 -13.695 -11.824  1.00 56.55 LIG-0.23  N 
ATOM     43 2HH1 ARG C 380       8.118 -11.374 -11.622  1.00 74.29 LIG 0.17  HD
ATOM     44 1HH1 ARG C 380       6.803 -10.675 -11.570  1.00 74.29 LIG 0.17  HD
ATOM     45 2HH2 ARG C 380       8.208 -13.660 -11.815  1.00 56.55 LIG 0.17  HD
ATOM     46 1HH2 ARG C 380       6.949 -14.454 -11.888  1.00 56.55 LIG 0.17  HD
ATOM     47 HE   ARG C 380       4.905 -13.359 -11.814  1.00 79.60 LIG 0.18  HD
ENDBRANCH 38 39
ENDBRANCH 37 38
ENDBRANCH 36 37
ENDBRANCH 1 36
BRANCH 1 48
ATOM     48  N   ARG C 380       5.455  -8.211 -10.675  1.00 47.32 LIG-0.35  N 
ATOM     49  C   LYS C 379       5.498  -8.946  -9.568  1.00 45.76 LIG 0.24  C 
ATOM     50 O    LYS C 379       5.865 -10.124  -9.560  1.00 54.38 LIG-0.27  OA
ATOM     51 H    ARG C 380       5.239  -7.379 -10.690  1.00 47.32 LIG 0.16  HD
BRANCH 49 52
ATOM     52  CA  LYS C 379       5.044  -8.257  -8.289  1.00 43.75 LIG 0.18  C 
BRANCH 52 53
ATOM     53  N   LYS C 379       4.074  -7.233  -8.630  1.00 44.28 LIG-0.35  N 
ATOM     54 H    LYS C 379       4.329  -6.436  -8.433  1.00 44.28 LIG 0.16  HD
ATOM     55  C   GLU C 378       2.905  -7.502  -9.194  1.00 60.53 LIG 0.26  C 
ATOM     56 O    GLU C 378       2.592  -8.623  -9.589  1.00 56.79 LIG-0.27  OA
BRANCH 55 57
ATOM     57  CA  GLU C 378       1.955  -6.317  -9.347  1.00 69.99 LIG 0.40  C 
ATOM     58  N   GLU C 378       1.157  -6.135  -8.141  1.00 74.89 LIG 0.61  N 
BRANCH 57 59
ATOM     59  CB  GLU C 378       2.746  -5.045  -9.671  1.00 53.06 LIG 0.06  C 
BRANCH 59 60
ATOM     60  CG  GLU C 378       2.013  -3.745  -9.365  1.00 67.66 LIG 0.12  C 
BRANCH 60 61
ATOM     61  CD  GLU C 378       0.647  -3.677 -10.031  1.00 85.24 LIG 0.17  C 
ATOM     62 OE2  GLU C 378      -0.025  -4.727 -10.136  1.00 90.60 LIG-0.65  OA
ATOM     63 OE1  GLU C 378       0.249  -2.572 -10.457  1.00103.34 LIG-0.65  OA
ENDBRANCH 60 61
ENDBRANCH 59 60
ENDBRANCH 57 59
ENDBRANCH 55 57
ENDBRANCH 52 53
BRANCH 52 64
ATOM     64  CB  LYS C 379       4.456  -9.280  -7.308  1.00 37.46 LIG 0.04  C 
BRANCH 64 65
ATOM     65  CG  LYS C 379       5.468 -10.304  -6.799  1.00 41.02 LIG 0.00  C 
BRANCH 65 66
ATOM     66  CD  LYS C 379       4.982 -11.727  -7.035  1.00 41.74 LIG 0.03  C 
BRANCH 66 67
ATOM     67  CE  LYS C 379       6.011 -12.536  -7.809  1.00 41.21 LIG 0.23  C 
BRANCH 67 68
ATOM     68  NZ  LYS C 379       5.396 -13.620  -8.629  1.00 39.67 LIG-0.08  N 
ATOM     69 HZ1  LYS C 379       4.638 -13.888  -8.248  1.00 39.67 LIG 0.27  HD
ATOM     70 HZ2  LYS C 379       5.224 -13.313  -9.446  1.00 39.67 LIG 0.27  HD
ATOM     71 HZ3  LYS C 379       5.959 -14.308  -8.684  1.00 39.67 LIG 0.27  HD
ENDBRANCH 67 68
ENDBRANCH 66 67
ENDBRANCH 65 66
ENDBRANCH 64 65
ENDBRANCH 52 64
ENDBRANCH 49 52
ENDBRANCH 1 48
TORSDOF 28
ENDMDL
MODEL 6
USER: ADFR SOLUTION from run 126
USER: SCORE 22.929819 LL:  -5.205 LR: -19.285 RR:   0.000 FEB: -10.932
USER: RMSD 7.459383
USER: SEED 125
USER: STATUS searching
USER: GENES 30
USER: genes 0 Translation |==|  0.63537 0.39962 0.52859
USER: genes 1 Rotation |==|  0.49240 0.83298 0.68668 0.82283
USER: genes 2 Torsion [N]-CA--C-[N] |==|  0.16076
USER: genes 3 Torsion [N]-CA--C-[O] |==|  0.25927
USER: genes 4 Torsion [C]-N--CA-[CB] |==|  0.44003
USER: genes 5 Torsion [N]-CA--C-[N] |==|  0.44026
USER: genes 6 Torsion [C]-N--CA-[C] |==|  0.66386
USER: genes 7 Torsion [N]-CA--C-[O] |==|  0.90199
USER: genes 8 Torsion [N]-CA--CB-[OG] |==|  0.98510
USER: genes 9 Torsion [CA]-CB--OG-[HG] |==|  0.16885
USER: genes 10 Torsion [N]-CA--CB-[CG] |==|  0.56137
USER: genes 11 Torsion [CA]-CB--CG-[CD] |==|  0.66578
USER: genes 12 Torsion [CB]-CG--CD-[NE] |==|  0.82111
USER: genes 13 Torsion [CG]-CD--NE-[CZ] |==|  0.67892
USER: genes 14 Torsion [C]-CA--CB-[CG] |==|  0.72552
USER: genes 15 Torsion [CA]-CB--CG-[CD] |==|  0.72672
USER: genes 16 Torsion [CB]-CG--CD-[NE] |==|  0.42197
USER: genes 17 Torsion [CG]-CD--NE-[CZ] |==|  0.56566
USER: genes 18 Torsion [C]-CA--N-[C] |==|  0.13110
USER: genes 19 Torsion [N]-C--CA-[N] |==|  0.97508
USER: genes 20 Torsion [C]-CA--N-[C] |==|  0.68584
USER: genes 21 Torsion [N]-C--CA-[N] |==|  0.43758
USER: genes 22 Torsion [C]-CA--CB-[CG] |==|  0.23888
USER: genes 23 Torsion [CA]-CB--CG-[CD] |==|  0.04294
USER: genes 24 Torsion [CB]-CG--CD-[OE2] |==|  0.20752
USER: genes 25 Torsion [C]-CA--CB-[CG] |==|  0.26910
USER: genes 26 Torsion [CA]-CB--CG-[CD] |==|  0.14962
USER: genes 27 Torsion [CB]-CG--CD-[CE] |==|  0.71889
USER: genes 28 Torsion [CG]-CD--CE-[NZ] |==|  0.34206
USER: genes 29 Torsion [CD]-CE--NZ-[HZ2] |==|  0.58128
ROOT
ATOM      1  CA  ARG C 380       3.699  -7.704 -10.929  1.00 55.03 LIG 0.18  C 
ENDROOT
BRANCH 1 2
ATOM      2  C   ARG C 380       2.472  -7.314 -10.118  1.00 47.07 LIG 0.24  C 
ATOM      3 O    ARG C 380       1.337  -7.655 -10.513  1.00 43.27 LIG-0.27  OA
ATOM      4  N   PRO C 381       2.633  -6.624  -8.992  1.00 52.47 LIG-0.34  N 
ATOM      5  CA  PRO C 381       1.483  -5.989  -8.347  1.00 50.57 LIG 0.18  C 
ATOM      6  CD  PRO C 381       3.882  -6.410  -8.241  1.00 58.50 LIG 0.13  C 
ATOM      7  CB  PRO C 381       1.961  -5.778  -6.905  1.00 39.15 LIG 0.04  C 
ATOM      8  CG  PRO C 381       3.439  -5.579  -7.047  1.00 58.11 LIG 0.02  C 
BRANCH 5 9
ATOM      9  C   PRO C 381       1.173  -4.665  -9.022  1.00 50.29 LIG 0.24  C 
ATOM     10 O    PRO C 381       0.350  -4.585  -9.936  1.00 49.31 LIG-0.27  OA
ATOM     11  N   ARG C 382       1.828  -3.610  -8.545  1.00 50.68 LIG-0.35  N 
ATOM     12 H    ARG C 382       2.329  -3.636  -7.846  1.00 50.68 LIG 0.16  HD
BRANCH 11 13
ATOM     13  CA  ARG C 382       1.751  -2.299  -9.179  1.00 50.76 LIG 0.18  C 
BRANCH 13 14
ATOM     14  C   ARG C 382       2.679  -2.302 -10.391  1.00 59.22 LIG 0.24  C 
ATOM     15 O    ARG C 382       3.606  -3.115 -10.469  1.00 50.32 LIG-0.27  OA
ATOM     16  N   SER C 383       2.429  -1.394 -11.333  1.00 56.43 LIG-0.34  N 
ATOM     17 H    SER C 383       1.806  -0.804 -11.278  1.00 56.43 LIG 0.16  HD
BRANCH 16 18
ATOM     18  CA  SER C 383       3.215  -1.328 -12.566  1.00 74.33 LIG 0.19  C 
BRANCH 18 19
ATOM     19  C   SER C 383       3.897   0.027 -12.750  1.00 76.08 LIG 0.22  C 
ATOM     20 O    SER C 383       3.349   1.066 -12.385  1.00 76.81 LIG-0.29  OA
ENDBRANCH 18 19
BRANCH 18 21
ATOM     21  CB  SER C 383       2.327  -1.622 -13.770  1.00 65.18 LIG 0.20  C 
BRANCH 21 22
ATOM     22 OG   SER C 383       1.030  -1.995 -13.342  1.00 68.82 LIG-0.40  OA
ATOM     23 HG   SER C 383       0.686  -1.364 -12.906  1.00 68.82 LIG 0.21  HD
ENDBRANCH 21 22
ENDBRANCH 18 21
ENDBRANCH 16 18
ENDBRANCH 13 14
BRANCH 13 24
ATOM     24  CB  ARG C 382       2.122  -1.184  -8.205  1.00 44.34 LIG 0.04  C 
BRANCH 24 25
ATOM     25  CG  ARG C 382       1.556   0.162  -8.627  1.00 56.39 LIG 0.02  C 
BRANCH 25 26
ATOM     26  CD  ARG C 382       2.623   1.217  -8.862  1.00 41.52 LIG 0.14  C 
BRANCH 26 27
ATOM     27  NE  ARG C 382       3.323   1.516  -7.615  1.00 49.53 LIG-0.23  N 
ATOM     28  CZ  ARG C 382       3.297   2.693  -7.000  1.00 47.90 LIG 0.67  C 
ATOM     29  NH1 ARG C 382       2.599   3.697  -7.511  1.00 52.31 LIG-0.23  N 
ATOM     30  NH2 ARG C 382       3.972   2.868  -5.871  1.00 55.66 LIG-0.23  N 
ATOM     31 1HH1 ARG C 382       2.161   3.587  -8.243  1.00 52.31 LIG 0.17  HD
ATOM     32 2HH1 ARG C 382       2.584   4.458  -7.110  1.00 52.31 LIG 0.17  HD
ATOM     33 2HH2 ARG C 382       3.954   3.630  -5.473  1.00 55.66 LIG 0.17  HD
ATOM     34 1HH2 ARG C 382       4.427   2.220  -5.537  1.00 55.66 LIG 0.17  HD
ATOM     35 HE   ARG C 382       3.784   0.886  -7.255  1.00 49.53 LIG 0.18  HD
ENDBRANCH 26 27
ENDBRANCH 25 26
ENDBRANCH 24 25
ENDBRANCH 13 24
ENDBRANCH 11 13
ENDBRANCH 5 9
ENDBRANCH 1 2
BRANCH 1 36
ATOM     36  CB  ARG C 380       3.286  -8.477 -12.187  1.00 43.48 LIG 0.04  C 
BRANCH 36 37
ATOM     37  CG  ARG C 380       3.383 -10.006 -12.128  1.00 54.19 LIG 0.02  C 
BRANCH 37 38
ATOM     38  CD  ARG C 380       4.691 -10.444 -12.790  1.00 65.92 LIG 0.14  C 
BRANCH 38 39
ATOM     39  NE  ARG C 380       5.249 -11.702 -12.285  1.00 79.60 LIG-0.23  N 
ATOM     40  CZ  ARG C 380       6.543 -12.013 -12.379  1.00 87.95 LIG 0.67  C 
ATOM     41  NH1 ARG C 380       7.379 -11.150 -12.949  1.00 74.29 LIG-0.23  N 
ATOM     42  NH2 ARG C 380       7.012 -13.170 -11.906  1.00 56.55 LIG-0.23  N 
ATOM     43 2HH1 ARG C 380       8.215 -11.341 -13.014  1.00 74.29 LIG 0.17  HD
ATOM     44 1HH1 ARG C 380       7.084 -10.401 -13.251  1.00 74.29 LIG 0.17  HD
ATOM     45 2HH2 ARG C 380       7.849 -13.355 -11.974  1.00 56.55 LIG 0.17  HD
ATOM     46 1HH2 ARG C 380       6.477 -13.730 -11.531  1.00 56.55 LIG 0.17  HD
ATOM     47 HE   ARG C 380       4.718 -12.265 -11.911  1.00 79.60 LIG 0.18  HD
ENDBRANCH 38 39
ENDBRANCH 37 38
ENDBRANCH 36 37
ENDBRANCH 1 36
BRANCH 1 48
ATOM     48  N   ARG C 380       4.584  -8.493 -10.078  1.00 47.32 LIG-0.35  N 
ATOM     49  C   LYS C 379       4.126  -9.497  -9.336  1.00 45.76 LIG 0.24  C 
ATOM     50 O    LYS C 379       2.948  -9.863  -9.357  1.00 54.38 LIG-0.27  OA
ATOM     51 H    ARG C 380       5.409  -8.253 -10.104  1.00 47.32 LIG 0.16  HD
BRANCH 49 52
ATOM     52  CA  LYS C 379       5.141 -10.172  -8.424  1.00 43.75 LIG 0.18  C 
BRANCH 52 53
ATOM     53  N   LYS C 379       6.464  -9.671  -8.748  1.00 44.28 LIG-0.35  N 
ATOM     54 H    LYS C 379       6.575  -8.840  -8.559  1.00 44.28 LIG 0.16  HD
ATOM     55  C   GLU C 378       7.412 -10.426  -9.286  1.00 60.53 LIG 0.26  C 
ATOM     56 O    GLU C 378       7.297 -11.640  -9.442  1.00 56.79 LIG-0.27  OA
BRANCH 55 57
ATOM     57  CA  GLU C 378       8.689  -9.695  -9.691  1.00 69.99 LIG 0.40  C 
ATOM     58  N   GLU C 378       9.814 -10.620  -9.761  1.00 74.89 LIG 0.61  N 
BRANCH 57 59
ATOM     59  CB  GLU C 378       8.488  -8.984 -11.034  1.00 53.06 LIG 0.06  C 
BRANCH 59 60
ATOM     60  CG  GLU C 378       7.878  -7.591 -10.931  1.00 67.66 LIG 0.12  C 
BRANCH 60 61
ATOM     61  CD  GLU C 378       7.934  -7.035  -9.516  1.00 85.24 LIG 0.17  C 
ATOM     62 OE2  GLU C 378       9.030  -6.627  -9.072  1.00 90.60 LIG-0.65  OA
ATOM     63 OE1  GLU C 378       6.881  -7.014  -8.845  1.00103.34 LIG-0.65  OA
ENDBRANCH 60 61
ENDBRANCH 59 60
ENDBRANCH 57 59
ENDBRANCH 55 57
ENDBRANCH 52 53
BRANCH 52 64
ATOM     64  CB  LYS C 379       4.792  -9.920  -6.952  1.00 37.46 LIG 0.04  C 
BRANCH 64 65
ATOM     65  CG  LYS C 379       4.009 -11.055  -6.296  1.00 41.02 LIG 0.00  C 
BRANCH 65 66
ATOM     66  CD  LYS C 379       4.725 -12.388  -6.460  1.00 41.74 LIG 0.03  C 
BRANCH 66 67
ATOM     67  CE  LYS C 379       4.100 -13.213  -7.574  1.00 41.21 LIG 0.23  C 
BRANCH 67 68
ATOM     68  NZ  LYS C 379       5.081 -13.595  -8.630  1.00 39.67 LIG-0.08  N 
ATOM     69 HZ1  LYS C 379       5.464 -14.369  -8.415  1.00 39.67 LIG 0.27  HD
ATOM     70 HZ2  LYS C 379       4.661 -13.679  -9.410  1.00 39.67 LIG 0.27  HD
ATOM     71 HZ3  LYS C 379       5.706 -12.965  -8.698  1.00 39.67 LIG 0.27  HD
ENDBRANCH 67 68
ENDBRANCH 66 67
ENDBRANCH 65 66
ENDBRANCH 64 65
ENDBRANCH 52 64
ENDBRANCH 49 52
ENDBRANCH 1 48
TORSDOF 28
ENDMDL
MODEL 7
USER: ADFR SOLUTION from run 27
USER: SCORE 20.390350 LL:  -4.183 LR: -19.153 RR:   0.000 FEB: -10.801
USER: RMSD 7.195549
USER: SEED 26
USER: STATUS 1 or 2 clusters left
USER: GENES 30
USER: genes 0 Translation |==|  0.65425 0.38632 0.56254
USER: genes 1 Rotation |==|  0.46441 0.79749 0.69898 0.84733
USER: genes 2 Torsion [N]-CA--C-[N] |==|  0.20000
USER: genes 3 Torsion [N]-CA--C-[O] |==|  0.29743
USER: genes 4 Torsion [C]-N--CA-[CB] |==|  0.34680
USER: genes 5 Torsion [N]-CA--C-[N] |==|  0.50245
USER: genes 6 Torsion [C]-N--CA-[C] |==|  0.86161
USER: genes 7 Torsion [N]-CA--C-[O] |==|  0.28369
USER: genes 8 Torsion [N]-CA--CB-[OG] |==|  0.10541
USER: genes 9 Torsion [CA]-CB--OG-[HG] |==|  0.79312
USER: genes 10 Torsion [N]-CA--CB-[CG] |==|  0.19984
USER: genes 11 Torsion [CA]-CB--CG-[CD] |==|  0.61194
USER: genes 12 Torsion [CB]-CG--CD-[NE] |==|  0.84458
USER: genes 13 Torsion [CG]-CD--NE-[CZ] |==|  0.79464
USER: genes 14 Torsion [C]-CA--CB-[CG] |==|  0.48671
USER: genes 15 Torsion [CA]-CB--CG-[CD] |==|  0.41257
USER: genes 16 Torsion [CB]-CG--CD-[NE] |==|  0.65410
USER: genes 17 Torsion [CG]-CD--NE-[CZ] |==|  0.27368
USER: genes 18 Torsion [C]-CA--N-[C] |==|  0.19140
USER: genes 19 Torsion [N]-C--CA-[N] |==|  0.53298
USER: genes 20 Torsion [C]-CA--N-[C] |==|  0.65732
USER: genes 21 Torsion [N]-C--CA-[N] |==|  0.45240
USER: genes 22 Torsion [C]-CA--CB-[CG] |==|  0.71033
USER: genes 23 Torsion [CA]-CB--CG-[CD] |==|  0.17769
USER: genes 24 Torsion [CB]-CG--CD-[OE2] |==|  0.72305
USER: genes 25 Torsion [C]-CA--CB-[CG] |==|  0.68722
USER: genes 26 Torsion [CA]-CB--CG-[CD] |==|  0.33863
USER: genes 27 Torsion [CB]-CG--CD-[CE] |==|  0.13231
USER: genes 28 Torsion [CG]-CD--CE-[NZ] |==|  0.50614
USER: genes 29 Torsion [CD]-CE--NZ-[HZ2] |==|  0.75623
ROOT
ATOM      1  CA  ARG C 380       4.167  -8.013 -10.088  1.00 55.03 LIG 0.18  C 
ENDROOT
BRANCH 1 2
ATOM      2  C   ARG C 380       2.779  -7.728  -9.533  1.00 47.07 LIG 0.24  C 
ATOM      3 O    ARG C 380       1.793  -8.349  -9.984  1.00 43.27 LIG-0.27  OA
ATOM      4  N   PRO C 381       2.643  -6.827  -8.565  1.00 52.47 LIG-0.34  N 
ATOM      5  CA  PRO C 381       1.315  -6.320  -8.211  1.00 50.57 LIG 0.18  C 
ATOM      6  CD  PRO C 381       3.704  -6.240  -7.727  1.00 58.50 LIG 0.13  C 
ATOM      7  CB  PRO C 381       1.518  -5.761  -6.797  1.00 39.15 LIG 0.04  C 
ATOM      8  CG  PRO C 381       2.945  -5.308  -6.796  1.00 58.11 LIG 0.02  C 
BRANCH 5 9
ATOM      9  C   PRO C 381       0.901  -5.227  -9.180  1.00 50.29 LIG 0.24  C 
ATOM     10 O    PRO C 381       0.036  -5.420 -10.036  1.00 49.31 LIG-0.27  OA
ATOM     11  N   ARG C 382       1.514  -4.057  -9.022  1.00 50.68 LIG-0.35  N 
ATOM     12 H    ARG C 382       2.045  -3.881  -8.369  1.00 50.68 LIG 0.16  HD
BRANCH 11 13
ATOM     13  CA  ARG C 382       1.333  -2.956  -9.961  1.00 50.76 LIG 0.18  C 
BRANCH 13 14
ATOM     14  C   ARG C 382       2.658  -2.727 -10.685  1.00 59.22 LIG 0.24  C 
ATOM     15 O    ARG C 382       3.639  -3.437 -10.438  1.00 50.32 LIG-0.27  OA
ATOM     16  N   SER C 383       2.685  -1.738 -11.576  1.00 56.43 LIG-0.34  N 
ATOM     17 H    SER C 383       2.019  -1.218 -11.736  1.00 56.43 LIG 0.16  HD
BRANCH 16 18
ATOM     18  CA  SER C 383       3.879  -1.450 -12.372  1.00 74.33 LIG 0.19  C 
BRANCH 18 19
ATOM     19  C   SER C 383       5.139  -1.342 -11.515  1.00 76.08 LIG 0.22  C 
ATOM     20 O    SER C 383       5.947  -2.268 -11.458  1.00 76.81 LIG-0.29  OA
ENDBRANCH 18 19
BRANCH 18 21
ATOM     21  CB  SER C 383       3.685  -0.160 -13.161  1.00 65.18 LIG 0.20  C 
BRANCH 21 22
ATOM     22 OG   SER C 383       2.975   0.787 -12.385  1.00 68.82 LIG-0.40  OA
ATOM     23 HG   SER C 383       2.165   0.568 -12.347  1.00 68.82 LIG 0.21  HD
ENDBRANCH 21 22
ENDBRANCH 18 21
ENDBRANCH 16 18
ENDBRANCH 13 14
BRANCH 13 24
ATOM     24  CB  ARG C 382       0.867  -1.687  -9.252  1.00 44.34 LIG 0.04  C 
BRANCH 24 25
ATOM     25  CG  ARG C 382       1.970  -1.054  -8.419  1.00 56.39 LIG 0.02  C 
BRANCH 25 26
ATOM     26  CD  ARG C 382       1.485  -0.521  -7.082  1.00 41.52 LIG 0.14  C 
BRANCH 26 27
ATOM     27  NE  ARG C 382       0.396   0.431  -7.282  1.00 49.53 LIG-0.23  N 
ATOM     28  CZ  ARG C 382       0.551   1.667  -7.745  1.00 47.90 LIG 0.67  C 
ATOM     29  NH1 ARG C 382       1.757   2.112  -8.064  1.00 52.31 LIG-0.23  N 
ATOM     30  NH2 ARG C 382      -0.503   2.460  -7.886  1.00 55.66 LIG-0.23  N 
ATOM     31 1HH1 ARG C 382       2.443   1.601  -7.973  1.00 52.31 LIG 0.17  HD
ATOM     32 2HH1 ARG C 382       1.854   2.913  -8.364  1.00 52.31 LIG 0.17  HD
ATOM     33 2HH2 ARG C 382      -0.402   3.260  -8.186  1.00 55.66 LIG 0.17  HD
ATOM     34 1HH2 ARG C 382      -1.287   2.176  -7.678  1.00 55.66 LIG 0.17  HD
ATOM     35 HE   ARG C 382      -0.401   0.174  -7.086  1.00 49.53 LIG 0.18  HD
ENDBRANCH 26 27
ENDBRANCH 25 26
ENDBRANCH 24 25
ENDBRANCH 13 24
ENDBRANCH 11 13
ENDBRANCH 5 9
ENDBRANCH 1 2
BRANCH 1 36
ATOM     36  CB  ARG C 380       4.066  -8.786 -11.409  1.00 43.48 LIG 0.04  C 
BRANCH 36 37
ATOM     37  CG  ARG C 380       5.376  -9.055 -12.159  1.00 54.19 LIG 0.02  C 
BRANCH 37 38
ATOM     38  CD  ARG C 380       5.251 -10.381 -12.912  1.00 65.92 LIG 0.14  C 
BRANCH 38 39
ATOM     39  NE  ARG C 380       6.291 -11.367 -12.606  1.00 79.60 LIG-0.23  N 
ATOM     40  CZ  ARG C 380       6.113 -12.368 -11.743  1.00 87.95 LIG 0.67  C 
ATOM     41  NH1 ARG C 380       4.941 -12.495 -11.128  1.00 74.29 LIG-0.23  N 
ATOM     42  NH2 ARG C 380       7.087 -13.246 -11.492  1.00 56.55 LIG-0.23  N 
ATOM     43 2HH1 ARG C 380       4.816 -13.137 -10.570  1.00 74.29 LIG 0.17  HD
ATOM     44 1HH1 ARG C 380       4.308 -11.935 -11.290  1.00 74.29 LIG 0.17  HD
ATOM     45 2HH2 ARG C 380       6.955 -13.886 -10.932  1.00 56.55 LIG 0.17  HD
ATOM     46 1HH2 ARG C 380       7.845 -13.172 -11.890  1.00 56.55 LIG 0.17  HD
ATOM     47 HE   ARG C 380       7.051 -11.296 -13.002  1.00 79.60 LIG 0.18  HD
ENDBRANCH 38 39
ENDBRANCH 37 38
ENDBRANCH 36 37
ENDBRANCH 1 36
BRANCH 1 48
ATOM     48  N   ARG C 380       4.922  -8.757  -9.086  1.00 47.32 LIG-0.35  N 
ATOM     49  C   LYS C 379       4.612 -10.010  -8.766  1.00 45.76 LIG 0.24  C 
ATOM     50 O    LYS C 379       3.713 -10.642  -9.327  1.00 54.38 LIG-0.27  OA
ATOM     51 H    ARG C 380       5.571  -8.318  -8.732  1.00 47.32 LIG 0.16  HD
BRANCH 49 52
ATOM     52  CA  LYS C 379       5.422 -10.632  -7.638  1.00 43.75 LIG 0.18  C 
BRANCH 52 53
ATOM     53  N   LYS C 379       5.160 -12.059  -7.607  1.00 44.28 LIG-0.35  N 
ATOM     54 H    LYS C 379       5.328 -12.457  -8.350  1.00 44.28 LIG 0.16  HD
ATOM     55  C   GLU C 378       4.705 -12.689  -6.533  1.00 60.53 LIG 0.26  C 
ATOM     56 O    GLU C 378       4.583 -12.145  -5.437  1.00 56.79 LIG-0.27  OA
BRANCH 55 57
ATOM     57  CA  GLU C 378       4.351 -14.160  -6.728  1.00 69.99 LIG 0.40  C 
ATOM     58  N   GLU C 378       4.256 -14.844  -5.444  1.00 74.89 LIG 0.61  N 
BRANCH 57 59
ATOM     59  CB  GLU C 378       3.040 -14.289  -7.511  1.00 53.06 LIG 0.06  C 
BRANCH 59 60
ATOM     60  CG  GLU C 378       1.830 -14.670  -6.667  1.00 67.66 LIG 0.12  C 
BRANCH 60 61
ATOM     61  CD  GLU C 378       1.481 -13.608  -5.636  1.00 85.24 LIG 0.17  C 
ATOM     62 OE2  GLU C 378       1.853 -13.771  -4.453  1.00 90.60 LIG-0.65  OA
ATOM     63 OE1  GLU C 378       0.826 -12.612  -6.010  1.00103.34 LIG-0.65  OA
ENDBRANCH 60 61
ENDBRANCH 59 60
ENDBRANCH 57 59
ENDBRANCH 55 57
ENDBRANCH 52 53
BRANCH 52 64
ATOM     64  CB  LYS C 379       6.917 -10.341  -7.827  1.00 37.46 LIG 0.04  C 
BRANCH 64 65
ATOM     65  CG  LYS C 379       7.755 -11.578  -8.140  1.00 41.02 LIG 0.00  C 
BRANCH 65 66
ATOM     66  CD  LYS C 379       8.492 -11.427  -9.464  1.00 41.74 LIG 0.03  C 
BRANCH 66 67
ATOM     67  CE  LYS C 379       9.191 -10.078  -9.551  1.00 41.21 LIG 0.23  C 
BRANCH 67 68
ATOM     68  NZ  LYS C 379       9.882  -9.869 -10.856  1.00 39.67 LIG-0.08  N 
ATOM     69 HZ1  LYS C 379       9.919  -8.999 -11.036  1.00 39.67 LIG 0.27  HD
ATOM     70 HZ2  LYS C 379      10.707 -10.198 -10.811  1.00 39.67 LIG 0.27  HD
ATOM     71 HZ3  LYS C 379       9.432 -10.286 -11.501  1.00 39.67 LIG 0.27  HD
ENDBRANCH 67 68
ENDBRANCH 66 67
ENDBRANCH 65 66
ENDBRANCH 64 65
ENDBRANCH 52 64
ENDBRANCH 49 52
ENDBRANCH 1 48
TORSDOF 28
ENDMDL
MODEL 8
USER: ADFR SOLUTION from run 65
USER: SCORE 21.773450 LL:  -4.199 LR: -18.862 RR:   0.000 FEB: -10.509
USER: RMSD 7.595904
USER: SEED 64
USER: STATUS no improvement in best in 4 clusters for 5 generations
USER: GENES 30
USER: genes 0 Translation |==|  0.54464 0.59980 0.55941
USER: genes 1 Rotation |==|  0.30423 0.13828 0.78333 0.52355
USER: genes 2 Torsion [N]-CA--C-[N] |==|  0.41677
USER: genes 3 Torsion [N]-CA--C-[O] |==|  0.73932
USER: genes 4 Torsion [C]-N--CA-[CB] |==|  0.25699
USER: genes 5 Torsion [N]-CA--C-[N] |==|  0.40620
USER: genes 6 Torsion [C]-N--CA-[C] |==|  0.86151
USER: genes 7 Torsion [N]-CA--C-[O] |==|  0.34203
USER: genes 8 Torsion [N]-CA--CB-[OG] |==|  0.11495
USER: genes 9 Torsion [CA]-CB--OG-[HG] |==|  0.95517
USER: genes 10 Torsion [N]-CA--CB-[CG] |==|  0.37227
USER: genes 11 Torsion [CA]-CB--CG-[CD] |==|  0.50903
USER: genes 12 Torsion [CB]-CG--CD-[NE] |==|  0.45802
USER: genes 13 Torsion [CG]-CD--NE-[CZ] |==|  0.81055
USER: genes 14 Torsion [C]-CA--CB-[CG] |==|  0.91157
USER: genes 15 Torsion [CA]-CB--CG-[CD] |==|  0.55535
USER: genes 16 Torsion [CB]-CG--CD-[NE] |==|  0.71447
USER: genes 17 Torsion [CG]-CD--NE-[CZ] |==|  0.39877
USER: genes 18 Torsion [C]-CA--N-[C] |==|  0.62111
USER: genes 19 Torsion [N]-C--CA-[N] |==|  0.40220
USER: genes 20 Torsion [C]-CA--N-[C] |==|  0.61870
USER: genes 21 Torsion [N]-C--CA-[N] |==|  0.06361
USER: genes 22 Torsion [C]-CA--CB-[CG] |==|  0.88113
USER: genes 23 Torsion [CA]-CB--CG-[CD] |==|  0.77081
USER: genes 24 Torsion [CB]-CG--CD-[OE2] |==|  0.54617
USER: genes 25 Torsion [C]-CA--CB-[CG] |==|  0.18058
USER: genes 26 Torsion [CA]-CB--CG-[CD] |==|  0.62219
USER: genes 27 Torsion [CB]-CG--CD-[CE] |==|  0.99190
USER: genes 28 Torsion [CG]-CD--CE-[NZ] |==|  0.49719
USER: genes 29 Torsion [CD]-CE--NZ-[HZ2] |==|  0.54543
ROOT
ATOM      1  CA  ARG C 380       1.454  -3.050 -10.166  1.00 55.03 LIG 0.18  C 
ENDROOT
BRANCH 1 2
ATOM      2  C   ARG C 380       2.719  -2.597 -10.881  1.00 47.07 LIG 0.24  C 
ATOM      3 O    ARG C 380       3.831  -2.781 -10.344  1.00 43.27 LIG-0.27  OA
ATOM      4  N   PRO C 381       2.615  -2.024 -12.076  1.00 52.47 LIG-0.34  N 
ATOM      5  CA  PRO C 381       3.760  -1.323 -12.659  1.00 50.57 LIG 0.18  C 
ATOM      6  CD  PRO C 381       1.440  -2.007 -12.966  1.00 58.50 LIG 0.13  C 
ATOM      7  CB  PRO C 381       3.424  -1.284 -14.155  1.00 39.15 LIG 0.04  C 
ATOM      8  CG  PRO C 381       1.928  -1.234 -14.182  1.00 58.11 LIG 0.02  C 
BRANCH 5 9
ATOM      9  C   PRO C 381       3.862   0.077 -12.082  1.00 50.29 LIG 0.24  C 
ATOM     10 O    PRO C 381       3.350   1.046 -12.647  1.00 49.31 LIG-0.27  OA
ATOM     11  N   ARG C 382       4.516   0.177 -10.928  1.00 50.68 LIG-0.35  N 
ATOM     12 H    ARG C 382       4.792  -0.501 -10.476  1.00 50.68 LIG 0.16  HD
BRANCH 11 13
ATOM     13  CA  ARG C 382       4.824   1.467 -10.321  1.00 50.76 LIG 0.18  C 
BRANCH 13 14
ATOM     14  C   ARG C 382       6.179   1.353  -9.627  1.00 59.22 LIG 0.24  C 
ATOM     15 O    ARG C 382       6.526   0.292  -9.098  1.00 50.32 LIG-0.27  OA
ATOM     16  N   SER C 383       6.941   2.445  -9.629  1.00 56.43 LIG-0.34  N 
ATOM     17 H    SER C 383       6.700   3.198  -9.967  1.00 56.43 LIG 0.16  HD
BRANCH 16 18
ATOM     18  CA  SER C 383       8.282   2.450  -9.041  1.00 74.33 LIG 0.19  C 
BRANCH 18 19
ATOM     19  C   SER C 383       8.301   1.869  -7.628  1.00 76.08 LIG 0.22  C 
ATOM     20 O    SER C 383       9.027   0.916  -7.345  1.00 76.81 LIG-0.29  OA
ENDBRANCH 18 19
BRANCH 18 21
ATOM     21  CB  SER C 383       8.839   3.869  -9.019  1.00 65.18 LIG 0.20  C 
BRANCH 21 22
ATOM     22 OG   SER C 383       7.830   4.786  -8.637  1.00 68.82 LIG-0.40  OA
ATOM     23 HG   SER C 383       7.077   4.420  -8.709  1.00 68.82 LIG 0.21  HD
ENDBRANCH 21 22
ENDBRANCH 18 21
ENDBRANCH 16 18
ENDBRANCH 13 14
BRANCH 13 24
ATOM     24  CB  ARG C 382       3.738   1.898  -9.340  1.00 44.34 LIG 0.04  C 
BRANCH 24 25
ATOM     25  CG  ARG C 382       4.314   2.411  -8.031  1.00 56.39 LIG 0.02  C 
BRANCH 25 26
ATOM     26  CD  ARG C 382       3.253   2.773  -7.006  1.00 41.52 LIG 0.14  C 
BRANCH 26 27
ATOM     27  NE  ARG C 382       3.855   2.910  -5.682  1.00 49.53 LIG-0.23  N 
ATOM     28  CZ  ARG C 382       4.363   1.905  -4.978  1.00 47.90 LIG 0.67  C 
ATOM     29  NH1 ARG C 382       4.351   0.674  -5.469  1.00 52.31 LIG-0.23  N 
ATOM     30  NH2 ARG C 382       4.884   2.130  -3.779  1.00 55.66 LIG-0.23  N 
ATOM     31 1HH1 ARG C 382       4.012   0.524  -6.246  1.00 52.31 LIG 0.17  HD
ATOM     32 2HH1 ARG C 382       4.681   0.025  -5.011  1.00 52.31 LIG 0.17  HD
ATOM     33 2HH2 ARG C 382       5.214   1.479  -3.324  1.00 55.66 LIG 0.17  HD
ATOM     34 1HH2 ARG C 382       4.893   2.927  -3.456  1.00 55.66 LIG 0.17  HD
ATOM     35 HE   ARG C 382       3.881   3.696  -5.334  1.00 49.53 LIG 0.18  HD
ENDBRANCH 26 27
ENDBRANCH 25 26
ENDBRANCH 24 25
ENDBRANCH 13 24
ENDBRANCH 11 13
ENDBRANCH 5 9
ENDBRANCH 1 2
BRANCH 1 36
ATOM     36  CB  ARG C 380       0.866  -1.899  -9.339  1.00 43.48 LIG 0.04  C 
BRANCH 36 37
ATOM     37  CG  ARG C 380       1.857  -0.890  -8.747  1.00 54.19 LIG 0.02  C 
BRANCH 37 38
ATOM     38  CD  ARG C 380       1.178  -0.150  -7.592  1.00 65.92 LIG 0.14  C 
BRANCH 38 39
ATOM     39  NE  ARG C 380       0.725   1.207  -7.909  1.00 79.60 LIG-0.23  N 
ATOM     40  CZ  ARG C 380      -0.399   1.732  -7.419  1.00 87.95 LIG 0.67  C 
ATOM     41  NH1 ARG C 380      -1.151   1.005  -6.598  1.00 74.29 LIG-0.23  N 
ATOM     42  NH2 ARG C 380      -0.776   2.974  -7.732  1.00 56.55 LIG-0.23  N 
ATOM     43 2HH1 ARG C 380      -1.877   1.334  -6.276  1.00 74.29 LIG 0.17  HD
ATOM     44 1HH1 ARG C 380      -0.910   0.206  -6.389  1.00 74.29 LIG 0.17  HD
ATOM     45 2HH2 ARG C 380      -1.504   3.297  -7.407  1.00 56.55 LIG 0.17  HD
ATOM     46 1HH2 ARG C 380      -0.291   3.451  -8.258  1.00 56.55 LIG 0.17  HD
ATOM     47 HE   ARG C 380       1.207   1.687  -8.435  1.00 79.60 LIG 0.18  HD
ENDBRANCH 38 39
ENDBRANCH 37 38
ENDBRANCH 36 37
ENDBRANCH 1 36
BRANCH 1 48
ATOM     48  N   ARG C 380       1.781  -4.200  -9.330  1.00 47.32 LIG-0.35  N 
ATOM     49  C   LYS C 379       0.993  -5.269  -9.275  1.00 45.76 LIG 0.24  C 
ATOM     50 O    LYS C 379      -0.026  -5.387  -9.961  1.00 54.38 LIG-0.27  OA
ATOM     51 H    ARG C 380       2.514  -4.121  -8.888  1.00 47.32 LIG 0.16  HD
BRANCH 49 52
ATOM     52  CA  LYS C 379       1.406  -6.354  -8.290  1.00 43.75 LIG 0.18  C 
BRANCH 52 53
ATOM     53  N   LYS C 379       0.210  -6.953  -7.727  1.00 44.28 LIG-0.35  N 
ATOM     54 H    LYS C 379      -0.408  -7.101  -8.306  1.00 44.28 LIG 0.16  HD
ATOM     55  C   GLU C 378       0.082  -7.243  -6.440  1.00 60.53 LIG 0.26  C 
ATOM     56 O    GLU C 378       1.007  -7.147  -5.635  1.00 56.79 LIG-0.27  OA
BRANCH 55 57
ATOM     57  CA  GLU C 378      -1.296  -7.732  -6.005  1.00 69.99 LIG 0.40  C 
ATOM     58  N   GLU C 378      -2.029  -8.286  -7.136  1.00 74.89 LIG 0.61  N 
BRANCH 57 59
ATOM     59  CB  GLU C 378      -1.160  -8.770  -4.885  1.00 53.06 LIG 0.06  C 
BRANCH 59 60
ATOM     60  CG  GLU C 378      -0.051  -9.794  -5.098  1.00 67.66 LIG 0.12  C 
BRANCH 60 61
ATOM     61  CD  GLU C 378      -0.482 -10.938  -6.003  1.00 85.24 LIG 0.17  C 
ATOM     62 OE2  GLU C 378       0.198 -11.988  -6.011  1.00 90.60 LIG-0.65  OA
ATOM     63 OE1  GLU C 378      -1.498 -10.782  -6.713  1.00103.34 LIG-0.65  OA
ENDBRANCH 60 61
ENDBRANCH 59 60
ENDBRANCH 57 59
ENDBRANCH 55 57
ENDBRANCH 52 53
BRANCH 52 64
ATOM     64  CB  LYS C 379       2.283  -7.404  -8.985  1.00 37.46 LIG 0.04  C 
BRANCH 64 65
ATOM     65  CG  LYS C 379       3.626  -6.866  -9.473  1.00 41.02 LIG 0.00  C 
BRANCH 65 66
ATOM     66  CD  LYS C 379       3.945  -7.362 -10.876  1.00 41.74 LIG 0.03  C 
BRANCH 66 67
ATOM     67  CE  LYS C 379       2.870  -8.315 -11.377  1.00 41.21 LIG 0.23  C 
BRANCH 67 68
ATOM     68  NZ  LYS C 379       3.134  -8.806 -12.761  1.00 39.67 LIG-0.08  N 
ATOM     69 HZ1  LYS C 379       3.771  -9.427 -12.740  1.00 39.67 LIG 0.27  HD
ATOM     70 HZ2  LYS C 379       2.389  -9.157 -13.099  1.00 39.67 LIG 0.27  HD
ATOM     71 HZ3  LYS C 379       3.400  -8.127 -13.272  1.00 39.67 LIG 0.27  HD
ENDBRANCH 67 68
ENDBRANCH 66 67
ENDBRANCH 65 66
ENDBRANCH 64 65
ENDBRANCH 52 64
ENDBRANCH 49 52
ENDBRANCH 1 48
TORSDOF 28
ENDMDL
MODEL 9
USER: ADFR SOLUTION from run 89
USER: SCORE 20.703012 LL:  -4.289 LR: -18.860 RR:   0.000 FEB: -10.508
USER: RMSD 7.161977
USER: SEED 88
USER: STATUS no improvement in best in 6 clusters for 5 generations
USER: GENES 30
USER: genes 0 Translation |==|  0.55266 0.48048 0.64763
USER: genes 1 Rotation |==|  0.40770 0.01247 0.55681 0.52388
USER: genes 2 Torsion [N]-CA--C-[N] |==|  0.15199
USER: genes 3 Torsion [N]-CA--C-[O] |==|  0.12564
USER: genes 4 Torsion [C]-N--CA-[CB] |==|  0.34566
USER: genes 5 Torsion [N]-CA--C-[N] |==|  0.10188
USER: genes 6 Torsion [C]-N--CA-[C] |==|  0.13772
USER: genes 7 Torsion [N]-CA--C-[O] |==|  0.10410
USER: genes 8 Torsion [N]-CA--CB-[OG] |==|  0.73943
USER: genes 9 Torsion [CA]-CB--OG-[HG] |==|  0.78006
USER: genes 10 Torsion [N]-CA--CB-[CG] |==|  0.87055
USER: genes 11 Torsion [CA]-CB--CG-[CD] |==|  0.85482
USER: genes 12 Torsion [CB]-CG--CD-[NE] |==|  0.81143
USER: genes 13 Torsion [CG]-CD--NE-[CZ] |==|  0.43763
USER: genes 14 Torsion [C]-CA--CB-[CG] |==|  0.27533
USER: genes 15 Torsion [CA]-CB--CG-[CD] |==|  0.43830
USER: genes 16 Torsion [CB]-CG--CD-[NE] |==|  0.57977
USER: genes 17 Torsion [CG]-CD--NE-[CZ] |==|  0.70321
USER: genes 18 Torsion [C]-CA--N-[C] |==|  0.62973
USER: genes 19 Torsion [N]-C--CA-[N] |==|  0.17332
USER: genes 20 Torsion [C]-CA--N-[C] |==|  0.76012
USER: genes 21 Torsion [N]-C--CA-[N] |==|  0.81103
USER: genes 22 Torsion [C]-CA--CB-[CG] |==|  0.47687
USER: genes 23 Torsion [CA]-CB--CG-[CD] |==|  0.18820
USER: genes 24 Torsion [CB]-CG--CD-[OE2] |==|  0.56530
USER: genes 25 Torsion [C]-CA--CB-[CG] |==|  0.38574
USER: genes 26 Torsion [CA]-CB--CG-[CD] |==|  0.25664
USER: genes 27 Torsion [CB]-CG--CD-[CE] |==|  0.47355
USER: genes 28 Torsion [CG]-CD--CE-[NZ] |==|  0.41609
USER: genes 29 Torsion [CD]-CE--NZ-[HZ2] |==|  0.22281
ROOT
ATOM      1  CA  ARG C 380       1.652  -5.824  -7.982  1.00 55.03 LIG 0.18  C 
ENDROOT
BRANCH 1 2
ATOM      2  C   ARG C 380       2.501  -4.626  -7.580  1.00 47.07 LIG 0.24  C 
ATOM      3 O    ARG C 380       2.320  -4.086  -6.468  1.00 43.27 LIG-0.27  OA
ATOM      4  N   PRO C 381       3.433  -4.184  -8.419  1.00 52.47 LIG-0.34  N 
ATOM      5  CA  PRO C 381       4.062  -2.880  -8.200  1.00 50.57 LIG 0.18  C 
ATOM      6  CD  PRO C 381       3.974  -4.871  -9.605  1.00 58.50 LIG 0.13  C 
ATOM      7  CB  PRO C 381       5.363  -2.978  -9.005  1.00 39.15 LIG 0.04  C 
ATOM      8  CG  PRO C 381       5.013  -3.896 -10.136  1.00 58.11 LIG 0.02  C 
BRANCH 5 9
ATOM      9  C   PRO C 381       3.168  -1.775  -8.733  1.00 50.29 LIG 0.24  C 
ATOM     10 O    PRO C 381       1.956  -1.761  -8.507  1.00 49.31 LIG-0.27  OA
ATOM     11  N   ARG C 382       3.783  -0.825  -9.431  1.00 50.68 LIG-0.35  N 
ATOM     12 H    ARG C 382       4.638  -0.770  -9.512  1.00 50.68 LIG 0.16  HD
BRANCH 11 13
ATOM     13  CA  ARG C 382       3.047   0.222 -10.130  1.00 50.76 LIG 0.18  C 
BRANCH 13 14
ATOM     14  C   ARG C 382       3.243   0.021 -11.631  1.00 59.22 LIG 0.24  C 
ATOM     15 O    ARG C 382       3.349   0.994 -12.386  1.00 50.32 LIG-0.27  OA
ATOM     16  N   SER C 383       3.292  -1.238 -12.060  1.00 56.43 LIG-0.34  N 
ATOM     17 H    SER C 383       3.190  -1.923 -11.550  1.00 56.43 LIG 0.16  HD
BRANCH 16 18
ATOM     18  CA  SER C 383       3.527  -1.564 -13.468  1.00 74.33 LIG 0.19  C 
BRANCH 18 19
ATOM     19  C   SER C 383       4.731  -0.823 -14.045  1.00 76.08 LIG 0.22  C 
ATOM     20 O    SER C 383       5.740  -0.631 -13.367  1.00 76.81 LIG-0.29  OA
ENDBRANCH 18 19
BRANCH 18 21
ATOM     21  CB  SER C 383       2.285  -1.245 -14.294  1.00 65.18 LIG 0.20  C 
BRANCH 21 22
ATOM     22 OG   SER C 383       1.474  -2.398 -14.423  1.00 68.82 LIG-0.40  OA
ATOM     23 HG   SER C 383       1.793  -2.900 -15.017  1.00 68.82 LIG 0.21  HD
ENDBRANCH 21 22
ENDBRANCH 18 21
ENDBRANCH 16 18
ENDBRANCH 13 14
BRANCH 13 24
ATOM     24  CB  ARG C 382       3.506   1.612  -9.697  1.00 44.34 LIG 0.04  C 
BRANCH 24 25
ATOM     25  CG  ARG C 382       3.614   1.739  -8.187  1.00 56.39 LIG 0.02  C 
BRANCH 25 26
ATOM     26  CD  ARG C 382       2.355   1.310  -7.453  1.00 41.52 LIG 0.14  C 
BRANCH 26 27
ATOM     27  NE  ARG C 382       1.267   2.245  -7.727  1.00 49.53 LIG-0.23  N 
ATOM     28  CZ  ARG C 382      -0.024   1.954  -7.608  1.00 47.90 LIG 0.67  C 
ATOM     29  NH1 ARG C 382      -0.401   0.747  -7.214  1.00 52.31 LIG-0.23  N 
ATOM     30  NH2 ARG C 382      -0.941   2.872  -7.886  1.00 55.66 LIG-0.23  N 
ATOM     31 1HH1 ARG C 382       0.190   0.148  -7.034  1.00 52.31 LIG 0.17  HD
ATOM     32 2HH1 ARG C 382      -1.238   0.561  -7.137  1.00 52.31 LIG 0.17  HD
ATOM     33 2HH2 ARG C 382      -1.776   2.683  -7.808  1.00 55.66 LIG 0.17  HD
ATOM     34 1HH2 ARG C 382      -0.700   3.656  -8.144  1.00 55.66 LIG 0.17  HD
ATOM     35 HE   ARG C 382       1.476   3.038  -7.983  1.00 49.53 LIG 0.18  HD
ENDBRANCH 26 27
ENDBRANCH 25 26
ENDBRANCH 24 25
ENDBRANCH 13 24
ENDBRANCH 11 13
ENDBRANCH 5 9
ENDBRANCH 1 2
BRANCH 1 36
ATOM     36  CB  ARG C 380       0.692  -6.204  -6.848  1.00 43.48 LIG 0.04  C 
BRANCH 36 37
ATOM     37  CG  ARG C 380      -0.754  -5.707  -6.965  1.00 54.19 LIG 0.02  C 
BRANCH 37 38
ATOM     38  CD  ARG C 380      -1.654  -6.598  -6.107  1.00 65.92 LIG 0.14  C 
BRANCH 38 39
ATOM     39  NE  ARG C 380      -3.038  -6.714  -6.577  1.00 79.60 LIG-0.23  N 
ATOM     40  CZ  ARG C 380      -4.065  -6.121  -5.967  1.00 87.95 LIG 0.67  C 
ATOM     41  NH1 ARG C 380      -3.839  -5.381  -4.886  1.00 74.29 LIG-0.23  N 
ATOM     42  NH2 ARG C 380      -5.311  -6.251  -6.427  1.00 56.55 LIG-0.23  N 
ATOM     43 2HH1 ARG C 380      -4.494  -4.994  -4.485  1.00 74.29 LIG 0.17  HD
ATOM     44 1HH1 ARG C 380      -3.037  -5.289  -4.587  1.00 74.29 LIG 0.17  HD
ATOM     45 2HH2 ARG C 380      -5.962  -5.862  -6.022  1.00 56.55 LIG 0.17  HD
ATOM     46 1HH2 ARG C 380      -5.463  -6.724  -7.129  1.00 56.55 LIG 0.17  HD
ATOM     47 HE   ARG C 380      -3.194  -7.187  -7.278  1.00 79.60 LIG 0.18  HD
ENDBRANCH 38 39
ENDBRANCH 37 38
ENDBRANCH 36 37
ENDBRANCH 1 36
BRANCH 1 48
ATOM     48  N   ARG C 380       2.542  -6.927  -8.326  1.00 47.32 LIG-0.35  N 
ATOM     49  C   LYS C 379       2.366  -7.649  -9.429  1.00 45.76 LIG 0.24  C 
ATOM     50 O    LYS C 379       1.485  -7.403 -10.257  1.00 54.38 LIG-0.27  OA
ATOM     51 H    ARG C 380       3.175  -7.062  -7.760  1.00 47.32 LIG 0.16  HD
BRANCH 49 52
ATOM     52  CA  LYS C 379       3.310  -8.829  -9.614  1.00 43.75 LIG 0.18  C 
BRANCH 52 53
ATOM     53  N   LYS C 379       3.104  -9.766  -8.525  1.00 44.28 LIG-0.35  N 
ATOM     54 H    LYS C 379       2.542 -10.391  -8.709  1.00 44.28 LIG 0.16  HD
ATOM     55  C   GLU C 378       3.724  -9.668  -7.357  1.00 60.53 LIG 0.26  C 
ATOM     56 O    GLU C 378       4.616  -8.851  -7.138  1.00 56.79 LIG-0.27  OA
BRANCH 55 57
ATOM     57  CA  GLU C 378       3.275 -10.655  -6.284  1.00 69.99 LIG 0.40  C 
ATOM     58  N   GLU C 378       1.913 -10.366  -5.853  1.00 74.89 LIG 0.61  N 
BRANCH 57 59
ATOM     59  CB  GLU C 378       3.385 -12.091  -6.808  1.00 53.06 LIG 0.06  C 
BRANCH 59 60
ATOM     60  CG  GLU C 378       3.153 -13.171  -5.759  1.00 67.66 LIG 0.12  C 
BRANCH 60 61
ATOM     61  CD  GLU C 378       1.714 -13.204  -5.266  1.00 85.24 LIG 0.17  C 
ATOM     62 OE2  GLU C 378       1.474 -13.694  -4.140  1.00 90.60 LIG-0.65  OA
ATOM     63 OE1  GLU C 378       0.822 -12.746  -6.011  1.00103.34 LIG-0.65  OA
ENDBRANCH 60 61
ENDBRANCH 59 60
ENDBRANCH 57 59
ENDBRANCH 55 57
ENDBRANCH 52 53
BRANCH 52 64
ATOM     64  CB  LYS C 379       3.077  -9.494 -10.977  1.00 37.46 LIG 0.04  C 
BRANCH 64 65
ATOM     65  CG  LYS C 379       4.360  -9.905 -11.694  1.00 41.02 LIG 0.00  C 
BRANCH 65 66
ATOM     66  CD  LYS C 379       4.739 -11.344 -11.371  1.00 41.74 LIG 0.03  C 
BRANCH 66 67
ATOM     67  CE  LYS C 379       5.876 -11.824 -12.260  1.00 41.21 LIG 0.23  C 
BRANCH 67 68
ATOM     68  NZ  LYS C 379       6.741 -12.840 -11.593  1.00 39.67 LIG-0.08  N 
ATOM     69 HZ1  LYS C 379       6.862 -12.614 -10.741  1.00 39.67 LIG 0.27  HD
ATOM     70 HZ2  LYS C 379       6.349 -13.638 -11.636  1.00 39.67 LIG 0.27  HD
ATOM     71 HZ3  LYS C 379       7.529 -12.875 -12.005  1.00 39.67 LIG 0.27  HD
ENDBRANCH 67 68
ENDBRANCH 66 67
ENDBRANCH 65 66
ENDBRANCH 64 65
ENDBRANCH 52 64
ENDBRANCH 49 52
ENDBRANCH 1 48
TORSDOF 28
ENDMDL
MODEL 10
USER: ADFR SOLUTION from run 55
USER: SCORE 22.046719 LL:  -5.218 LR: -18.804 RR:   0.000 FEB: -10.452
USER: RMSD 12.451527
USER: SEED 54
USER: STATUS no improvement in best in 2 clusters for 5 generations
USER: GENES 30
USER: genes 0 Translation |==|  0.55983 0.61355 0.58805
USER: genes 1 Rotation |==|  0.09760 0.48981 0.20559 0.53599
USER: genes 2 Torsion [N]-CA--C-[N] |==|  0.32720
USER: genes 3 Torsion [N]-CA--C-[O] |==|  0.92939
USER: genes 4 Torsion [C]-N--CA-[CB] |==|  0.37536
USER: genes 5 Torsion [N]-CA--C-[N] |==|  0.17652
USER: genes 6 Torsion [C]-N--CA-[C] |==|  0.78790
USER: genes 7 Torsion [N]-CA--C-[O] |==|  0.38325
USER: genes 8 Torsion [N]-CA--CB-[OG] |==|  0.88090
USER: genes 9 Torsion [CA]-CB--OG-[HG] |==|  0.02785
USER: genes 10 Torsion [N]-CA--CB-[CG] |==|  0.68802
USER: genes 11 Torsion [CA]-CB--CG-[CD] |==|  0.39681
USER: genes 12 Torsion [CB]-CG--CD-[NE] |==|  0.41334
USER: genes 13 Torsion [CG]-CD--NE-[CZ] |==|  0.70288
USER: genes 14 Torsion [C]-CA--CB-[CG] |==|  0.58685
USER: genes 15 Torsion [CA]-CB--CG-[CD] |==|  0.83576
USER: genes 16 Torsion [CB]-CG--CD-[NE] |==|  0.69438
USER: genes 17 Torsion [CG]-CD--NE-[CZ] |==|  0.72499
USER: genes 18 Torsion [C]-CA--N-[C] |==|  0.72545
USER: genes 19 Torsion [N]-C--CA-[N] |==|  0.40099
USER: genes 20 Torsion [C]-CA--N-[C] |==|  0.71202
USER: genes 21 Torsion [N]-C--CA-[N] |==|  0.49465
USER: genes 22 Torsion [C]-CA--CB-[CG] |==|  0.87502
USER: genes 23 Torsion [CA]-CB--CG-[CD] |==|  0.84211
USER: genes 24 Torsion [CB]-CG--CD-[OE2] |==|  0.89896
USER: genes 25 Torsion [C]-CA--CB-[CG] |==|  0.54553
USER: genes 26 Torsion [CA]-CB--CG-[CD] |==|  0.25326
USER: genes 27 Torsion [CB]-CG--CD-[CE] |==|  0.44491
USER: genes 28 Torsion [CG]-CD--CE-[NZ] |==|  0.73550
USER: genes 29 Torsion [CD]-CE--NZ-[HZ2] |==|  0.41363
ROOT
ATOM      1  CA  ARG C 380       1.830  -2.730  -9.457  1.00 55.03 LIG 0.18  C 
ENDROOT
BRANCH 1 2
ATOM      2  C   ARG C 380       1.175  -4.089  -9.659  1.00 47.07 LIG 0.24  C 
ATOM      3 O    ARG C 380      -0.026  -4.151  -9.997  1.00 43.27 LIG-0.27  OA
ATOM      4  N   PRO C 381       1.902  -5.189  -9.485  1.00 52.47 LIG-0.34  N 
ATOM      5  CA  PRO C 381       1.248  -6.495  -9.386  1.00 50.57 LIG 0.18  C 
ATOM      6  CD  PRO C 381       3.369  -5.291  -9.389  1.00 58.50 LIG 0.13  C 
ATOM      7  CB  PRO C 381       2.378  -7.479  -9.715  1.00 39.15 LIG 0.04  C 
ATOM      8  CG  PRO C 381       3.609  -6.783  -9.222  1.00 58.11 LIG 0.02  C 
BRANCH 5 9
ATOM      9  C   PRO C 381       0.725  -6.711  -7.977  1.00 50.29 LIG 0.24  C 
ATOM     10 O    PRO C 381       1.228  -6.137  -7.009  1.00 49.31 LIG-0.27  OA
ATOM     11  N   ARG C 382      -0.315  -7.533  -7.870  1.00 50.68 LIG-0.35  N 
ATOM     12 H    ARG C 382      -0.735  -7.861  -8.545  1.00 50.68 LIG 0.16  HD
BRANCH 11 13
ATOM     13  CA  ARG C 382      -0.838  -7.955  -6.576  1.00 50.76 LIG 0.18  C 
BRANCH 13 14
ATOM     14  C   ARG C 382      -0.348  -9.375  -6.305  1.00 59.22 LIG 0.24  C 
ATOM     15 O    ARG C 382      -1.152 -10.308  -6.207  1.00 50.32 LIG-0.27  OA
ATOM     16  N   SER C 383       0.968  -9.537  -6.185  1.00 56.43 LIG-0.34  N 
ATOM     17 H    SER C 383       1.536  -8.893  -6.222  1.00 56.43 LIG 0.16  HD
BRANCH 16 18
ATOM     18  CA  SER C 383       1.566 -10.857  -5.975  1.00 74.33 LIG 0.19  C 
BRANCH 18 19
ATOM     19  C   SER C 383       1.399 -11.351  -4.540  1.00 76.08 LIG 0.22  C 
ATOM     20 O    SER C 383       1.099 -12.522  -4.305  1.00 76.81 LIG-0.29  OA
ENDBRANCH 18 19
BRANCH 18 21
ATOM     21  CB  SER C 383       3.047 -10.825  -6.336  1.00 65.18 LIG 0.20  C 
BRANCH 21 22
ATOM     22 OG   SER C 383       3.243 -10.099  -7.537  1.00 68.82 LIG-0.40  OA
ATOM     23 HG   SER C 383       2.529  -9.710  -7.749  1.00 68.82 LIG 0.21  HD
ENDBRANCH 21 22
ENDBRANCH 18 21
ENDBRANCH 16 18
ENDBRANCH 13 14
BRANCH 13 24
ATOM     24  CB  ARG C 382      -2.362  -7.883  -6.539  1.00 44.34 LIG 0.04  C 
BRANCH 24 25
ATOM     25  CG  ARG C 382      -2.865  -6.804  -5.593  1.00 56.39 LIG 0.02  C 
BRANCH 25 26
ATOM     26  CD  ARG C 382      -4.102  -6.084  -6.102  1.00 41.52 LIG 0.14  C 
BRANCH 26 27
ATOM     27  NE  ARG C 382      -4.935  -5.657  -4.981  1.00 49.53 LIG-0.23  N 
ATOM     28  CZ  ARG C 382      -6.090  -6.220  -4.643  1.00 47.90 LIG 0.67  C 
ATOM     29  NH1 ARG C 382      -6.560  -7.245  -5.339  1.00 52.31 LIG-0.23  N 
ATOM     30  NH2 ARG C 382      -6.779  -5.755  -3.609  1.00 55.66 LIG-0.23  N 
ATOM     31 1HH1 ARG C 382      -6.117  -7.548  -6.011  1.00 52.31 LIG 0.17  HD
ATOM     32 2HH1 ARG C 382      -7.308  -7.608  -5.118  1.00 52.31 LIG 0.17  HD
ATOM     33 2HH2 ARG C 382      -7.526  -6.120  -3.391  1.00 55.66 LIG 0.17  HD
ATOM     34 1HH2 ARG C 382      -6.478  -5.089  -3.157  1.00 55.66 LIG 0.17  HD
ATOM     35 HE   ARG C 382      -4.659  -4.995  -4.507  1.00 49.53 LIG 0.18  HD
ENDBRANCH 26 27
ENDBRANCH 25 26
ENDBRANCH 24 25
ENDBRANCH 13 24
ENDBRANCH 11 13
ENDBRANCH 5 9
ENDBRANCH 1 2
BRANCH 1 36
ATOM     36  CB  ARG C 380       1.122  -1.956  -8.337  1.00 43.48 LIG 0.04  C 
BRANCH 36 37
ATOM     37  CG  ARG C 380       1.096  -0.428  -8.457  1.00 54.19 LIG 0.02  C 
BRANCH 37 38
ATOM     38  CD  ARG C 380       2.535   0.089  -8.504  1.00 65.92 LIG 0.14  C 
BRANCH 38 39
ATOM     39  NE  ARG C 380       2.969   0.822  -7.311  1.00 79.60 LIG-0.23  N 
ATOM     40  CZ  ARG C 380       2.987   2.154  -7.243  1.00 87.95 LIG 0.67  C 
ATOM     41  NH1 ARG C 380       2.591   2.864  -8.295  1.00 74.29 LIG-0.23  N 
ATOM     42  NH2 ARG C 380       3.389   2.784  -6.137  1.00 56.55 LIG-0.23  N 
ATOM     43 2HH1 ARG C 380       2.599   3.723  -8.261  1.00 74.29 LIG 0.17  HD
ATOM     44 1HH1 ARG C 380       2.326   2.463  -9.009  1.00 74.29 LIG 0.17  HD
ATOM     45 2HH2 ARG C 380       3.395   3.644  -6.109  1.00 56.55 LIG 0.17  HD
ATOM     46 1HH2 ARG C 380       3.641   2.330  -5.451  1.00 56.55 LIG 0.17  HD
ATOM     47 HE   ARG C 380       3.222   0.372  -6.624  1.00 79.60 LIG 0.18  HD
ENDBRANCH 38 39
ENDBRANCH 37 38
ENDBRANCH 36 37
ENDBRANCH 1 36
BRANCH 1 48
ATOM     48  N   ARG C 380       1.790  -2.004 -10.721  1.00 47.32 LIG-0.35  N 
ATOM     49  C   LYS C 379       2.841  -1.957 -11.533  1.00 45.76 LIG 0.24  C 
ATOM     50 O    LYS C 379       3.891  -2.564 -11.306  1.00 54.38 LIG-0.27  OA
ATOM     51 H    ARG C 380       1.039  -1.619 -10.886  1.00 47.32 LIG 0.16  HD
BRANCH 49 52
ATOM     52  CA  LYS C 379       2.691  -1.084 -12.772  1.00 43.75 LIG 0.18  C 
BRANCH 52 53
ATOM     53  N   LYS C 379       3.969  -0.459 -13.059  1.00 44.28 LIG-0.35  N 
ATOM     54 H    LYS C 379       4.540  -0.990 -13.422  1.00 44.28 LIG 0.16  HD
ATOM     55  C   GLU C 378       4.230   0.812 -12.787  1.00 60.53 LIG 0.26  C 
ATOM     56 O    GLU C 378       3.379   1.602 -12.385  1.00 56.79 LIG-0.27  OA
BRANCH 55 57
ATOM     57  CA  GLU C 378       5.670   1.257 -13.024  1.00 69.99 LIG 0.40  C 
ATOM     58  N   GLU C 378       5.827   2.677 -12.736  1.00 74.89 LIG 0.61  N 
BRANCH 57 59
ATOM     59  CB  GLU C 378       6.630   0.421 -12.170  1.00 53.06 LIG 0.06  C 
BRANCH 59 60
ATOM     60  CG  GLU C 378       6.188   0.223 -10.725  1.00 67.66 LIG 0.12  C 
BRANCH 60 61
ATOM     61  CD  GLU C 378       5.963   1.541 -10.000  1.00 85.24 LIG 0.17  C 
ATOM     62 OE2  GLU C 378       6.719   2.505 -10.254  1.00 90.60 LIG-0.65  OA
ATOM     63 OE1  GLU C 378       5.033   1.609  -9.168  1.00103.34 LIG-0.65  OA
ENDBRANCH 60 61
ENDBRANCH 59 60
ENDBRANCH 57 59
ENDBRANCH 55 57
ENDBRANCH 52 53
BRANCH 52 64
ATOM     64  CB  LYS C 379       2.197  -1.920 -13.960  1.00 37.46 LIG 0.04  C 
BRANCH 64 65
ATOM     65  CG  LYS C 379       2.390  -1.245 -15.316  1.00 41.02 LIG 0.00  C 
BRANCH 65 66
ATOM     66  CD  LYS C 379       3.730  -1.619 -15.935  1.00 41.74 LIG 0.03  C 
BRANCH 66 67
ATOM     67  CE  LYS C 379       3.729  -1.370 -17.436  1.00 41.21 LIG 0.23  C 
BRANCH 67 68
ATOM     68  NZ  LYS C 379       3.393  -2.591 -18.224  1.00 39.67 LIG-0.08  N 
ATOM     69 HZ1  LYS C 379       2.864  -3.120 -17.742  1.00 39.67 LIG 0.27  HD
ATOM     70 HZ2  LYS C 379       2.974  -2.355 -18.972  1.00 39.67 LIG 0.27  HD
ATOM     71 HZ3  LYS C 379       4.141  -3.028 -18.428  1.00 39.67 LIG 0.27  HD
ENDBRANCH 67 68
ENDBRANCH 66 67
ENDBRANCH 65 66
ENDBRANCH 64 65
ENDBRANCH 52 64
ENDBRANCH 49 52
ENDBRANCH 1 48
TORSDOF 28
ENDMDL
