MODEL 1
USER: ADFR SOLUTION from run 113
USER: SCORE 16.502721 LL:  -3.226 LR: -13.942 RR:   0.000 FEB:  -8.871
USER: RMSD 5.466301
USER: SEED 112
USER: STATUS no improvement in best in 3 clusters for 5 generations
USER: GENES 19
USER: genes 0 Translation |==|  0.45416 0.64357 0.50030
USER: genes 1 Rotation |==|  0.68298 0.55383 0.72549 0.90346
USER: genes 2 Torsion [C]-N--CA-[C] |==|  0.19624
USER: genes 3 Torsion [N]-CA--C-[N] |==|  0.15555
USER: genes 4 Torsion [C]-N--CA-[C] |==|  0.79268
USER: genes 5 Torsion [N]-CA--C-[N] |==|  0.48232
USER: genes 6 Torsion [C]-N--CA-[C] |==|  0.65931
USER: genes 7 Torsion [N]-CA--C-[O] |==|  0.63019
USER: genes 8 Torsion [N]-CA--CB-[CG1] |==|  0.64591
USER: genes 9 Torsion [N]-CA--CB-[CG] |==|  0.55212
USER: genes 10 Torsion [CA]-CB--CG-[CD] |==|  0.16019
USER: genes 11 Torsion [CB]-CG--CD-[NE2] |==|  0.06078
USER: genes 12 Torsion [O]-C--CA-[CB] |==|  0.41016
USER: genes 13 Torsion [N]-C--CA-[N] |==|  0.47031
USER: genes 14 Torsion [C]-CA--N-[C] |==|  0.59672
USER: genes 15 Torsion [N]-C--CA-[N] |==|  0.44971
USER: genes 16 Torsion [C]-CA--CB-[CG] |==|  0.43667
USER: genes 17 Torsion [CA]-CB--CG-[CD2] |==|  0.41530
USER: genes 18 Torsion [CE2]-CZ--OH-[HH] |==|  0.15585
ROOT
ATOM      1  C   PRO F   5      25.320 -23.979  30.413  1.00 22.19 LIG 0.24  C 
ATOM      2 O    PRO F   5      26.149 -24.863  30.587  1.00 23.65 LIG-0.27  OA
ATOM      3  N   GLY F   6      24.086 -24.213  29.985  1.00 19.88 LIG-0.35  N 
ATOM      4 H    GLY F   6      23.483 -23.603  29.919  1.00 19.88 LIG 0.16  HD
ENDROOT
BRANCH 3 5
ATOM      5  CA  GLY F   6      23.631 -25.542  29.583  1.00 18.82 LIG 0.23  C 
BRANCH 5 6
ATOM      6  C   GLY F   6      23.466 -26.535  30.706  1.00 19.38 LIG 0.24  C 
ATOM      7  N   GLN F   7      22.655 -26.149  31.679  1.00 19.21 LIG-0.35  N 
ATOM      8 H    GLN F   7      22.188 -25.428  31.659  1.00 19.21 LIG 0.16  HD
ATOM      9 O    GLY F   6      24.083 -27.625  30.742  1.00 20.81 LIG-0.27  OA
BRANCH 7 10
ATOM     10  CA  GLN F   7      22.495 -26.939  32.882  1.00 20.89 LIG 0.18  C 
BRANCH 10 11
ATOM     11  C   GLN F   7      21.642 -28.142  32.519  1.00 21.73 LIG 0.24  C 
ATOM     12  N   VAL F   8      21.491 -29.063  33.471  1.00 23.67 LIG-0.34  N 
ATOM     13 H    VAL F   8      21.835 -28.986  34.255  1.00 23.67 LIG 0.16  HD
ATOM     14 O    GLN F   7      21.136 -28.236  31.415  1.00 20.56 LIG-0.27  OA
BRANCH 12 15
ATOM     15  CA  VAL F   8      20.728 -30.296  33.287  1.00 26.59 LIG 0.19  C 
BRANCH 15 16
ATOM     16  C   VAL F   8      19.634 -30.360  34.336  1.00 31.87 LIG 0.20  C 
ATOM     17 O    VAL F   8      19.439 -31.391  34.984  1.00 34.57 LIG-0.65  OA
ATOM     18 OXT  VAL F   8      18.886 -29.404  34.533  1.00 35.27 LIG-0.65  OA
ENDBRANCH 15 16
BRANCH 15 19
ATOM     19  CB  VAL F   8      21.627 -31.550  33.469  1.00 27.17 LIG 0.01  C 
ATOM     20  CG1 VAL F   8      21.521 -32.507  32.279  1.00 30.44 LIG 0.01  C 
ATOM     21  CG2 VAL F   8      23.070 -31.168  33.661  1.00 24.96 LIG 0.01  C 
ENDBRANCH 15 19
ENDBRANCH 12 15
ENDBRANCH 10 11
BRANCH 10 22
ATOM     22  CB  GLN F   7      21.839 -26.089  33.970  1.00 21.57 LIG 0.04  C 
BRANCH 22 23
ATOM     23  CG  GLN F   7      22.007 -26.613  35.391  1.00 23.35 LIG 0.10  C 
BRANCH 23 24
ATOM     24  CD  GLN F   7      23.463 -26.766  35.780  1.00 24.40 LIG 0.21  C 
ATOM     25  NE2 GLN F   7      24.329 -26.047  35.090  1.00 26.54 LIG-0.37  N 
ATOM     26 22HE GLN F   7      25.169 -26.102  35.265  1.00 26.54 LIG 0.16  HD
ATOM     27 21HE GLN F   7      24.053 -25.524  34.465  1.00 26.54 LIG 0.16  HD
ATOM     28 OE1  GLN F   7      23.796 -27.529  36.683  1.00 22.98 LIG-0.27  OA
ENDBRANCH 23 24
ENDBRANCH 22 23
ENDBRANCH 10 22
ENDBRANCH 7 10
ENDBRANCH 5 6
ENDBRANCH 3 5
BRANCH 1 29
ATOM     29  CA  PRO F   5      25.723 -22.542  30.709  1.00 24.01 LIG 0.18  C 
ATOM     30  CB  PRO F   5      24.997 -21.587  29.765  1.00 26.63 LIG 0.04  C 
ATOM     31  CG  PRO F   5      25.989 -21.187  28.755  1.00 25.90 LIG 0.02  C 
ATOM     32  CD  PRO F   5      27.368 -21.441  29.288  1.00 24.07 LIG 0.13  C 
ATOM     33  N   PRO F   5      27.146 -22.220  30.516  1.00 22.96 LIG-0.34  N 
ATOM     34  C   TYR F   4      28.049 -22.426  31.506  1.00 22.64 LIG 0.24  C 
ATOM     35 O    TYR F   4      27.784 -23.003  32.548  1.00 22.73 LIG-0.27  OA
BRANCH 34 36
ATOM     36  CA  TYR F   4      29.465 -21.904  31.311  1.00 23.00 LIG 0.18  C 
BRANCH 36 37
ATOM     37  N   TYR F   4      30.180 -22.011  32.595  1.00 26.39 LIG-0.35  N 
ATOM     38 H    TYR F   4      29.964 -22.694  33.070  1.00 26.39 LIG 0.16  HD
ATOM     39  C   GLY F   3      31.074 -21.109  32.955  1.00 29.77 LIG 0.25  C 
ATOM     40 O    GLY F   3      31.286 -20.107  32.283  1.00 31.07 LIG-0.27  OA
BRANCH 39 41
ATOM     41  CA  GLY F   3      31.814 -21.330  34.276  1.00 33.82 LIG 0.47  C 
ATOM     42  N   GLY F   3      33.050 -20.504  34.322  1.00 37.49 LIG 0.61  N 
ENDBRANCH 39 41
ENDBRANCH 36 37
BRANCH 36 43
ATOM     43  CB  TYR F   4      30.169 -22.725  30.271  1.00 21.26 LIG 0.07  C 
BRANCH 43 44
ATOM     44  CG  TYR F   4      31.300 -22.040  29.618  1.00 18.65 LIG-0.06  A 
ATOM     45  CD2 TYR F   4      32.393 -22.758  29.150  1.00 17.47 LIG 0.01  A 
ATOM     46  CE2 TYR F   4      33.466 -22.123  28.534  1.00 16.54 LIG 0.04  A 
ATOM     47  CZ  TYR F   4      33.449 -20.745  28.381  1.00 17.16 LIG 0.07  A 
ATOM     48  CE1 TYR F   4      32.363 -20.016  28.833  1.00 18.26 LIG 0.04  A 
ATOM     49  CD1 TYR F   4      31.302 -20.657  29.469  1.00 19.09 LIG 0.01  A 
BRANCH 47 50
ATOM     50 OH   TYR F   4      34.526 -20.052  27.798  1.00 17.27 LIG-0.36  OA
ATOM     51 HH   TYR F   4      34.680 -20.364  27.033  1.00 17.27 LIG 0.22  HD
ENDBRANCH 47 50
ENDBRANCH 43 44
ENDBRANCH 36 43
ENDBRANCH 34 36
ENDBRANCH 1 29
TORSDOF 17
ENDMDL
MODEL 2
USER: ADFR SOLUTION from run 24
USER: SCORE 17.137162 LL:  -3.953 LR: -13.383 RR:   0.000 FEB:  -8.312
USER: RMSD 1.172572
USER: SEED 23
USER: STATUS 1 or 2 clusters left
USER: GENES 19
USER: genes 0 Translation |==|  0.51295 0.61305 0.64574
USER: genes 1 Rotation |==|  0.02981 0.38256 0.58474 0.58915
USER: genes 2 Torsion [C]-N--CA-[C] |==|  0.26691
USER: genes 3 Torsion [N]-CA--C-[N] |==|  0.43894
USER: genes 4 Torsion [C]-N--CA-[C] |==|  0.81121
USER: genes 5 Torsion [N]-CA--C-[N] |==|  0.35047
USER: genes 6 Torsion [C]-N--CA-[C] |==|  0.63822
USER: genes 7 Torsion [N]-CA--C-[O] |==|  0.89768
USER: genes 8 Torsion [N]-CA--CB-[CG1] |==|  0.44896
USER: genes 9 Torsion [N]-CA--CB-[CG] |==|  0.49536
USER: genes 10 Torsion [CA]-CB--CG-[CD] |==|  0.56898
USER: genes 11 Torsion [CB]-CG--CD-[NE2] |==|  0.60172
USER: genes 12 Torsion [O]-C--CA-[CB] |==|  0.27368
USER: genes 13 Torsion [N]-C--CA-[N] |==|  0.37200
USER: genes 14 Torsion [C]-CA--N-[C] |==|  0.84326
USER: genes 15 Torsion [N]-C--CA-[N] |==|  0.34543
USER: genes 16 Torsion [C]-CA--CB-[CG] |==|  0.12023
USER: genes 17 Torsion [CA]-CB--CG-[CD2] |==|  0.21585
USER: genes 18 Torsion [CE2]-CZ--OH-[HH] |==|  0.52879
ROOT
ATOM      1  C   PRO F   5      26.687 -24.575  32.813  1.00 22.19 LIG 0.24  C 
ATOM      2 O    PRO F   5      25.847 -23.848  32.297  1.00 23.65 LIG-0.27  OA
ATOM      3  N   GLY F   6      26.379 -25.619  33.571  1.00 19.88 LIG-0.35  N 
ATOM      4 H    GLY F   6      26.964 -26.166  33.886  1.00 19.88 LIG 0.16  HD
ENDROOT
BRANCH 3 5
ATOM      5  CA  GLY F   6      25.004 -25.941  33.946  1.00 18.82 LIG 0.23  C 
BRANCH 5 6
ATOM      6  C   GLY F   6      24.322 -26.967  33.077  1.00 19.38 LIG 0.24  C 
ATOM      7  N   GLN F   7      23.298 -27.587  33.643  1.00 19.21 LIG-0.35  N 
ATOM      8 H    GLN F   7      22.979 -27.385  34.415  1.00 19.21 LIG 0.16  HD
ATOM      9 O    GLY F   6      24.718 -27.248  31.922  1.00 20.81 LIG-0.27  OA
BRANCH 7 10
ATOM     10  CA  GLN F   7      22.624 -28.684  32.980  1.00 20.89 LIG 0.18  C 
BRANCH 10 11
ATOM     11  C   GLN F   7      21.906 -28.106  31.773  1.00 21.73 LIG 0.24  C 
ATOM     12  N   VAL F   8      22.173 -28.682  30.600  1.00 23.67 LIG-0.34  N 
ATOM     13 H    VAL F   8      22.704 -29.353  30.519  1.00 23.67 LIG 0.16  HD
ATOM     14 O    GLN F   7      21.136 -27.170  31.895  1.00 20.56 LIG-0.27  OA
BRANCH 12 15
ATOM     15  CA  VAL F   8      21.595 -28.238  29.333  1.00 26.59 LIG 0.19  C 
BRANCH 15 16
ATOM     16  C   VAL F   8      21.023 -29.439  28.604  1.00 31.87 LIG 0.20  C 
ATOM     17 O    VAL F   8      21.587 -30.535  28.650  1.00 34.57 LIG-0.65  OA
ATOM     18 OXT  VAL F   8      20.011 -29.340  27.912  1.00 35.27 LIG-0.65  OA
ENDBRANCH 15 16
BRANCH 15 19
ATOM     19  CB  VAL F   8      22.672 -27.601  28.412  1.00 27.17 LIG 0.01  C 
ATOM     20  CG1 VAL F   8      22.216 -27.545  26.952  1.00 30.44 LIG 0.01  C 
ATOM     21  CG2 VAL F   8      23.030 -26.211  28.865  1.00 24.96 LIG 0.01  C 
ENDBRANCH 15 19
ENDBRANCH 12 15
ENDBRANCH 10 11
BRANCH 10 22
ATOM     22  CB  GLN F   7      21.648 -29.349  33.951  1.00 21.57 LIG 0.04  C 
BRANCH 22 23
ATOM     23  CG  GLN F   7      20.838 -30.500  33.369  1.00 23.35 LIG 0.10  C 
BRANCH 23 24
ATOM     24  CD  GLN F   7      19.533 -30.717  34.107  1.00 24.40 LIG 0.21  C 
ATOM     25  NE2 GLN F   7      19.144 -31.971  34.246  1.00 26.54 LIG-0.37  N 
ATOM     26 22HE GLN F   7      18.407 -32.149  34.651  1.00 26.54 LIG 0.16  HD
ATOM     27 21HE GLN F   7      19.628 -32.609  33.933  1.00 26.54 LIG 0.16  HD
ATOM     28 OE1  GLN F   7      18.886 -29.764  34.533  1.00 22.98 LIG-0.27  OA
ENDBRANCH 23 24
ENDBRANCH 22 23
ENDBRANCH 10 22
ENDBRANCH 7 10
ENDBRANCH 5 6
ENDBRANCH 3 5
BRANCH 1 29
ATOM     29  CA  PRO F   5      28.157 -24.268  32.566  1.00 24.01 LIG 0.18  C 
ATOM     30  CB  PRO F   5      28.739 -23.493  33.746  1.00 26.63 LIG 0.04  C 
ATOM     31  CG  PRO F   5      28.831 -22.094  33.303  1.00 25.90 LIG 0.02  C 
ATOM     32  CD  PRO F   5      28.807 -22.046  31.804  1.00 24.07 LIG 0.13  C 
ATOM     33  N   PRO F   5      28.450 -23.417  31.402  1.00 22.96 LIG-0.34  N 
ATOM     34  C   TYR F   4      28.599 -23.951  30.165  1.00 22.64 LIG 0.24  C 
ATOM     35 O    TYR F   4      28.373 -25.122  29.908  1.00 22.73 LIG-0.27  OA
BRANCH 34 36
ATOM     36  CA  TYR F   4      29.081 -23.046  29.041  1.00 23.00 LIG 0.18  C 
BRANCH 36 37
ATOM     37  N   TYR F   4      30.137 -23.752  28.296  1.00 26.39 LIG-0.35  N 
ATOM     38 H    TYR F   4      29.987 -23.839  27.454  1.00 26.39 LIG 0.16  HD
ATOM     39  C   GLY F   3      31.217 -24.203  28.908  1.00 29.77 LIG 0.25  C 
ATOM     40 O    GLY F   3      31.348 -24.130  30.123  1.00 31.07 LIG-0.27  OA
BRANCH 39 41
ATOM     41  CA  GLY F   3      32.294 -24.870  28.049  1.00 33.82 LIG 0.47  C 
ATOM     42  N   GLY F   3      33.606 -24.200  28.250  1.00 37.49 LIG 0.61  N 
ENDBRANCH 39 41
ENDBRANCH 36 37
BRANCH 36 43
ATOM     43  CB  TYR F   4      27.938 -22.730  28.120  1.00 21.26 LIG 0.07  C 
BRANCH 43 44
ATOM     44  CG  TYR F   4      26.675 -22.406  28.808  1.00 18.65 LIG-0.06  A 
ATOM     45  CD2 TYR F   4      26.476 -21.156  29.381  1.00 17.47 LIG 0.01  A 
ATOM     46  CE2 TYR F   4      25.288 -20.840  30.032  1.00 16.54 LIG 0.04  A 
ATOM     47  CZ  TYR F   4      24.280 -21.788  30.114  1.00 17.16 LIG 0.07  A 
ATOM     48  CE1 TYR F   4      24.458 -23.033  29.540  1.00 18.26 LIG 0.04  A 
ATOM     49  CD1 TYR F   4      25.658 -23.351  28.908  1.00 19.09 LIG 0.01  A 
BRANCH 47 50
ATOM     50 OH   TYR F   4      23.074 -21.529  30.794  1.00 17.27 LIG-0.36  OA
ATOM     51 HH   TYR F   4      22.637 -22.242  30.872  1.00 17.27 LIG 0.22  HD
ENDBRANCH 47 50
ENDBRANCH 43 44
ENDBRANCH 36 43
ENDBRANCH 34 36
ENDBRANCH 1 29
TORSDOF 17
ENDMDL
MODEL 3
USER: ADFR SOLUTION from run 137
USER: SCORE 15.736096 LL:  -3.677 LR: -13.287 RR:   0.000 FEB:  -8.216
USER: RMSD 4.751061
USER: SEED 136
USER: STATUS no improvement in best in 1 clusters for 5 generations
USER: GENES 19
USER: genes 0 Translation |==|  0.42688 0.51511 0.36730
USER: genes 1 Rotation |==|  0.05694 0.48836 0.51100 0.73118
USER: genes 2 Torsion [C]-N--CA-[C] |==|  0.70767
USER: genes 3 Torsion [N]-CA--C-[N] |==|  0.08736
USER: genes 4 Torsion [C]-N--CA-[C] |==|  0.15004
USER: genes 5 Torsion [N]-CA--C-[N] |==|  0.56308
USER: genes 6 Torsion [C]-N--CA-[C] |==|  0.58865
USER: genes 7 Torsion [N]-CA--C-[O] |==|  0.03571
USER: genes 8 Torsion [N]-CA--CB-[CG1] |==|  0.55131
USER: genes 9 Torsion [N]-CA--CB-[CG] |==|  0.65202
USER: genes 10 Torsion [CA]-CB--CG-[CD] |==|  0.96056
USER: genes 11 Torsion [CB]-CG--CD-[NE2] |==|  0.24999
USER: genes 12 Torsion [O]-C--CA-[CB] |==|  0.43391
USER: genes 13 Torsion [N]-C--CA-[N] |==|  0.30090
USER: genes 14 Torsion [C]-CA--N-[C] |==|  0.75221
USER: genes 15 Torsion [N]-C--CA-[N] |==|  0.80450
USER: genes 16 Torsion [C]-CA--CB-[CG] |==|  0.12721
USER: genes 17 Torsion [CA]-CB--CG-[CD2] |==|  0.68916
USER: genes 18 Torsion [CE2]-CZ--OH-[HH] |==|  0.30454
ROOT
ATOM      1  C   PRO F   5      24.686 -26.484  28.219  1.00 22.19 LIG 0.24  C 
ATOM      2 O    PRO F   5      24.399 -25.295  28.243  1.00 23.65 LIG-0.27  OA
ATOM      3  N   GLY F   6      23.787 -27.453  28.345  1.00 19.88 LIG-0.35  N 
ATOM      4 H    GLY F   6      23.975 -28.288  28.268  1.00 19.88 LIG 0.16  HD
ENDROOT
BRANCH 3 5
ATOM      5  CA  GLY F   6      22.378 -27.186  28.627  1.00 18.82 LIG 0.23  C 
BRANCH 5 6
ATOM      6  C   GLY F   6      21.936 -27.481  30.038  1.00 19.38 LIG 0.24  C 
ATOM      7  N   GLN F   7      22.866 -27.307  30.964  1.00 19.21 LIG-0.35  N 
ATOM      8 H    GLN F   7      23.645 -26.978  30.809  1.00 19.21 LIG 0.16  HD
ATOM      9 O    GLY F   6      20.788 -27.904  30.314  1.00 20.81 LIG-0.27  OA
BRANCH 7 10
ATOM     10  CA  GLN F   7      22.628 -27.671  32.346  1.00 20.89 LIG 0.18  C 
BRANCH 10 11
ATOM     11  C   GLN F   7      22.182 -29.122  32.358  1.00 21.73 LIG 0.24  C 
ATOM     12  N   VAL F   8      21.480 -29.512  33.423  1.00 23.67 LIG-0.34  N 
ATOM     13 H    VAL F   8      21.270 -28.980  34.064  1.00 23.67 LIG 0.16  HD
ATOM     14 O    GLN F   7      22.462 -29.868  31.436  1.00 20.56 LIG-0.27  OA
BRANCH 12 15
ATOM     15  CA  VAL F   8      20.995 -30.878  33.614  1.00 26.59 LIG 0.19  C 
BRANCH 15 16
ATOM     16  C   VAL F   8      19.686 -30.833  34.380  1.00 31.87 LIG 0.20  C 
ATOM     17 O    VAL F   8      19.079 -29.771  34.533  1.00 34.57 LIG-0.65  OA
ATOM     18 OXT  VAL F   8      19.225 -31.843  34.908  1.00 35.27 LIG-0.65  OA
ENDBRANCH 15 16
BRANCH 15 19
ATOM     19  CB  VAL F   8      21.998 -31.722  34.447  1.00 27.17 LIG 0.01  C 
ATOM     20  CG1 VAL F   8      21.755 -33.225  34.282  1.00 30.44 LIG 0.01  C 
ATOM     21  CG2 VAL F   8      23.422 -31.414  34.070  1.00 24.96 LIG 0.01  C 
ENDBRANCH 15 19
ENDBRANCH 12 15
ENDBRANCH 10 11
BRANCH 10 22
ATOM     22  CB  GLN F   7      21.566 -26.749  32.944  1.00 21.57 LIG 0.04  C 
BRANCH 22 23
ATOM     23  CG  GLN F   7      21.979 -26.025  34.219  1.00 23.35 LIG 0.10  C 
BRANCH 23 24
ATOM     24  CD  GLN F   7      23.230 -26.615  34.836  1.00 24.40 LIG 0.21  C 
ATOM     25  NE2 GLN F   7      24.377 -26.098  34.436  1.00 26.54 LIG-0.37  N 
ATOM     26 22HE GLN F   7      25.118 -26.401  34.749  1.00 26.54 LIG 0.16  HD
ATOM     27 21HE GLN F   7      24.383 -25.457  33.862  1.00 26.54 LIG 0.16  HD
ATOM     28 OE1  GLN F   7      23.157 -27.529  35.654  1.00 22.98 LIG-0.27  OA
ENDBRANCH 23 24
ENDBRANCH 22 23
ENDBRANCH 10 22
ENDBRANCH 7 10
ENDBRANCH 5 6
ENDBRANCH 3 5
BRANCH 1 29
ATOM     29  CA  PRO F   5      26.144 -26.872  28.026  1.00 24.01 LIG 0.18  C 
ATOM     30  CB  PRO F   5      26.397 -28.268  28.592  1.00 26.63 LIG 0.04  C 
ATOM     31  CG  PRO F   5      27.083 -28.064  29.877  1.00 25.90 LIG 0.02  C 
ATOM     32  CD  PRO F   5      27.690 -26.693  29.902  1.00 24.07 LIG 0.13  C 
ATOM     33  N   PRO F   5      27.132 -26.026  28.714  1.00 22.96 LIG-0.34  N 
ATOM     34  C   TYR F   4      27.604 -24.894  28.137  1.00 22.64 LIG 0.24  C 
ATOM     35 O    TYR F   4      27.160 -24.434  27.099  1.00 22.73 LIG-0.27  OA
BRANCH 34 36
ATOM     36  CA  TYR F   4      28.754 -24.163  28.816  1.00 23.00 LIG 0.18  C 
BRANCH 36 37
ATOM     37  N   TYR F   4      29.969 -24.357  28.006  1.00 26.39 LIG-0.35  N 
ATOM     38 H    TYR F   4      30.102 -23.754  27.408  1.00 26.39 LIG 0.16  HD
ATOM     39  C   GLY F   3      30.768 -25.388  28.211  1.00 29.77 LIG 0.25  C 
ATOM     40 O    GLY F   3      30.493 -26.266  29.018  1.00 31.07 LIG-0.27  OA
BRANCH 39 41
ATOM     41  CA  GLY F   3      32.042 -25.478  27.367  1.00 33.82 LIG 0.47  C 
ATOM     42  N   GLY F   3      31.705 -25.797  25.954  1.00 37.49 LIG 0.61  N 
ENDBRANCH 39 41
ENDBRANCH 36 37
BRANCH 36 43
ATOM     43  CB  TYR F   4      28.438 -22.700  28.912  1.00 21.26 LIG 0.07  C 
BRANCH 43 44
ATOM     44  CG  TYR F   4      27.073 -22.402  29.386  1.00 18.65 LIG-0.06  A 
ATOM     45  CD2 TYR F   4      26.133 -21.833  28.537  1.00 17.47 LIG 0.01  A 
ATOM     46  CE2 TYR F   4      24.844 -21.547  28.974  1.00 16.54 LIG 0.04  A 
ATOM     47  CZ  TYR F   4      24.486 -21.833  30.282  1.00 17.16 LIG 0.07  A 
ATOM     48  CE1 TYR F   4      25.407 -22.409  31.137  1.00 18.26 LIG 0.04  A 
ATOM     49  CD1 TYR F   4      26.704 -22.673  30.700  1.00 19.09 LIG 0.01  A 
BRANCH 47 50
ATOM     50 OH   TYR F   4      23.205 -21.529  30.783  1.00 17.27 LIG-0.36  OA
ATOM     51 HH   TYR F   4      22.776 -22.241  30.906  1.00 17.27 LIG 0.22  HD
ENDBRANCH 47 50
ENDBRANCH 43 44
ENDBRANCH 36 43
ENDBRANCH 34 36
ENDBRANCH 1 29
TORSDOF 17
ENDMDL
MODEL 4
USER: ADFR SOLUTION from run 13
USER: SCORE 15.703583 LL:  -3.144 LR: -13.253 RR:   0.000 FEB:  -8.182
USER: RMSD 5.384295
USER: SEED 694393
USER: STATUS no improvement in best in 12 clusters for 5 generations
USER: GENES 19
USER: genes 0 Translation |==|  0.43167 0.70971 0.49600
USER: genes 1 Rotation |==|  0.11281 0.24405 0.55823 0.67659
USER: genes 2 Torsion [C]-N--CA-[C] |==|  0.62326
USER: genes 3 Torsion [N]-CA--C-[N] |==|  0.43501
USER: genes 4 Torsion [C]-N--CA-[C] |==|  0.55751
USER: genes 5 Torsion [N]-CA--C-[N] |==|  0.48882
USER: genes 6 Torsion [C]-N--CA-[C] |==|  0.68943
USER: genes 7 Torsion [N]-CA--C-[O] |==|  0.12841
USER: genes 8 Torsion [N]-CA--CB-[CG1] |==|  0.80520
USER: genes 9 Torsion [N]-CA--CB-[CG] |==|  0.26879
USER: genes 10 Torsion [CA]-CB--CG-[CD] |==|  0.74237
USER: genes 11 Torsion [CB]-CG--CD-[NE2] |==|  0.02233
USER: genes 12 Torsion [O]-C--CA-[CB] |==|  0.91225
USER: genes 13 Torsion [N]-C--CA-[N] |==|  0.88169
USER: genes 14 Torsion [C]-CA--N-[C] |==|  0.81272
USER: genes 15 Torsion [N]-C--CA-[N] |==|  0.56386
USER: genes 16 Torsion [C]-CA--CB-[CG] |==|  0.58987
USER: genes 17 Torsion [CA]-CB--CG-[CD2] |==|  0.37693
USER: genes 18 Torsion [CE2]-CZ--OH-[HH] |==|  0.01964
ROOT
ATOM      1  C   PRO F   5      24.797 -22.690  30.342  1.00 22.19 LIG 0.24  C 
ATOM      2 O    PRO F   5      23.671 -22.298  30.067  1.00 23.65 LIG-0.27  OA
ATOM      3  N   GLY F   6      25.112 -23.973  30.467  1.00 19.88 LIG-0.35  N 
ATOM      4 H    GLY F   6      25.914 -24.254  30.601  1.00 19.88 LIG 0.16  HD
ENDROOT
BRANCH 3 5
ATOM      5  CA  GLY F   6      24.115 -25.038  30.388  1.00 18.82 LIG 0.23  C 
BRANCH 5 6
ATOM      6  C   GLY F   6      24.236 -26.115  31.436  1.00 19.38 LIG 0.24  C 
ATOM      7  N   GLN F   7      23.120 -26.782  31.683  1.00 19.21 LIG-0.35  N 
ATOM      8 H    GLN F   7      22.390 -26.682  31.241  1.00 19.21 LIG 0.16  HD
ATOM      9 O    GLY F   6      25.299 -26.335  32.063  1.00 20.81 LIG-0.27  OA
BRANCH 7 10
ATOM     10  CA  GLN F   7      23.048 -27.758  32.751  1.00 20.89 LIG 0.18  C 
BRANCH 10 11
ATOM     11  C   GLN F   7      21.875 -28.673  32.445  1.00 21.73 LIG 0.24  C 
ATOM     12  N   VAL F   8      21.696 -29.697  33.280  1.00 23.67 LIG-0.34  N 
ATOM     13 H    VAL F   8      22.196 -29.835  33.966  1.00 23.67 LIG 0.16  HD
ATOM     14 O    GLN F   7      21.154 -28.462  31.487  1.00 20.56 LIG-0.27  OA
BRANCH 12 15
ATOM     15  CA  VAL F   8      20.637 -30.692  33.122  1.00 26.59 LIG 0.19  C 
BRANCH 15 16
ATOM     16  C   VAL F   8      19.636 -30.530  34.251  1.00 31.87 LIG 0.20  C 
ATOM     17 O    VAL F   8      19.214 -29.415  34.567  1.00 34.57 LIG-0.65  OA
ATOM     18 OXT  VAL F   8      19.258 -31.498  34.908  1.00 35.27 LIG-0.65  OA
ENDBRANCH 15 16
BRANCH 15 19
ATOM     19  CB  VAL F   8      21.202 -32.137  33.200  1.00 27.17 LIG 0.01  C 
ATOM     20  CG1 VAL F   8      22.048 -32.487  31.973  1.00 30.44 LIG 0.01  C 
ATOM     21  CG2 VAL F   8      22.035 -32.335  34.438  1.00 24.96 LIG 0.01  C 
ENDBRANCH 15 19
ENDBRANCH 12 15
ENDBRANCH 10 11
BRANCH 10 22
ATOM     22  CB  GLN F   7      22.870 -27.042  34.090  1.00 21.57 LIG 0.04  C 
BRANCH 22 23
ATOM     23  CG  GLN F   7      21.433 -26.942  34.587  1.00 23.35 LIG 0.10  C 
BRANCH 23 24
ATOM     24  CD  GLN F   7      20.763 -25.654  34.158  1.00 24.40 LIG 0.21  C 
ATOM     25  NE2 GLN F   7      21.435 -24.904  33.304  1.00 26.54 LIG-0.37  N 
ATOM     26 22HE GLN F   7      21.104 -24.158  33.033  1.00 26.54 LIG 0.16  HD
ATOM     27 21HE GLN F   7      22.205 -25.161  33.018  1.00 26.54 LIG 0.16  HD
ATOM     28 OE1  GLN F   7      19.661 -25.341  34.600  1.00 22.98 LIG-0.27  OA
ENDBRANCH 23 24
ENDBRANCH 22 23
ENDBRANCH 10 22
ENDBRANCH 7 10
ENDBRANCH 5 6
ENDBRANCH 3 5
BRANCH 1 29
ATOM     29  CA  PRO F   5      25.893 -21.653  30.543  1.00 24.01 LIG 0.18  C 
ATOM     30  CB  PRO F   5      25.636 -20.437  29.656  1.00 26.63 LIG 0.04  C 
ATOM     31  CG  PRO F   5      26.571 -20.556  28.528  1.00 25.90 LIG 0.02  C 
ATOM     32  CD  PRO F   5      27.692 -21.478  28.908  1.00 24.07 LIG 0.13  C 
ATOM     33  N   PRO F   5      27.254 -22.077  30.179  1.00 22.96 LIG-0.34  N 
ATOM     34  C   TYR F   4      28.042 -22.733  31.066  1.00 22.64 LIG 0.24  C 
ATOM     35 O    TYR F   4      27.647 -23.131  32.150  1.00 22.73 LIG-0.27  OA
BRANCH 34 36
ATOM     36  CA  TYR F   4      29.497 -22.981  30.695  1.00 23.00 LIG 0.18  C 
BRANCH 36 37
ATOM     37  N   TYR F   4      29.550 -23.406  29.285  1.00 26.39 LIG-0.35  N 
ATOM     38 H    TYR F   4      29.927 -22.843  28.755  1.00 26.39 LIG 0.16  HD
ATOM     39  C   GLY F   3      29.049 -24.566  28.903  1.00 29.77 LIG 0.25  C 
ATOM     40 O    GLY F   3      28.447 -25.296  29.680  1.00 31.07 LIG-0.27  OA
BRANCH 39 41
ATOM     41  CA  GLY F   3      29.203 -24.956  27.431  1.00 33.82 LIG 0.47  C 
ATOM     42  N   GLY F   3      28.163 -25.947  27.046  1.00 37.49 LIG 0.61  N 
ENDBRANCH 39 41
ENDBRANCH 36 37
BRANCH 36 43
ATOM     43  CB  TYR F   4      30.287 -21.719  30.873  1.00 21.26 LIG 0.07  C 
BRANCH 43 44
ATOM     44  CG  TYR F   4      31.404 -21.560  29.923  1.00 18.65 LIG-0.06  A 
ATOM     45  CD2 TYR F   4      31.636 -20.343  29.294  1.00 17.47 LIG 0.01  A 
ATOM     46  CE2 TYR F   4      32.686 -20.183  28.395  1.00 16.54 LIG 0.04  A 
ATOM     47  CZ  TYR F   4      33.520 -21.255  28.119  1.00 17.16 LIG 0.07  A 
ATOM     48  CE1 TYR F   4      33.308 -22.470  28.745  1.00 18.26 LIG 0.04  A 
ATOM     49  CD1 TYR F   4      32.242 -22.631  29.627  1.00 19.09 LIG 0.01  A 
BRANCH 47 50
ATOM     50 OH   TYR F   4      34.573 -21.154  27.190  1.00 17.27 LIG-0.36  OA
ATOM     51 HH   TYR F   4      34.650 -20.355  26.940  1.00 17.27 LIG 0.22  HD
ENDBRANCH 47 50
ENDBRANCH 43 44
ENDBRANCH 36 43
ENDBRANCH 34 36
ENDBRANCH 1 29
TORSDOF 17
ENDMDL
MODEL 5
USER: ADFR SOLUTION from run 130
USER: SCORE 15.610326 LL:  -3.267 LR: -13.178 RR:   0.000 FEB:  -8.107
USER: RMSD 5.892919
USER: SEED 129
USER: STATUS no improvement in best in 4 clusters for 5 generations
USER: GENES 19
USER: genes 0 Translation |==|  0.46061 0.65302 0.51222
USER: genes 1 Rotation |==|  0.77146 0.68967 0.65550 0.84082
USER: genes 2 Torsion [C]-N--CA-[C] |==|  0.36255
USER: genes 3 Torsion [N]-CA--C-[N] |==|  0.52970
USER: genes 4 Torsion [C]-N--CA-[C] |==|  0.78889
USER: genes 5 Torsion [N]-CA--C-[N] |==|  0.24339
USER: genes 6 Torsion [C]-N--CA-[C] |==|  0.55559
USER: genes 7 Torsion [N]-CA--C-[O] |==|  0.64988
USER: genes 8 Torsion [N]-CA--CB-[CG1] |==|  0.74195
USER: genes 9 Torsion [N]-CA--CB-[CG] |==|  0.43877
USER: genes 10 Torsion [CA]-CB--CG-[CD] |==|  0.29006
USER: genes 11 Torsion [CB]-CG--CD-[NE2] |==|  0.35820
USER: genes 12 Torsion [O]-C--CA-[CB] |==|  0.28465
USER: genes 13 Torsion [N]-C--CA-[N] |==|  0.47028
USER: genes 14 Torsion [C]-CA--N-[C] |==|  0.60007
USER: genes 15 Torsion [N]-C--CA-[N] |==|  0.83452
USER: genes 16 Torsion [C]-CA--CB-[CG] |==|  0.43670
USER: genes 17 Torsion [CA]-CB--CG-[CD2] |==|  0.41888
USER: genes 18 Torsion [CE2]-CZ--OH-[HH] |==|  0.39939
ROOT
ATOM      1  C   PRO F   5      25.470 -23.795  30.610  1.00 22.19 LIG 0.24  C 
ATOM      2 O    PRO F   5      26.203 -24.619  30.079  1.00 23.65 LIG-0.27  OA
ATOM      3  N   GLY F   6      24.275 -24.095  31.103  1.00 19.88 LIG-0.35  N 
ATOM      4 H    GLY F   6      23.783 -23.532  31.529  1.00 19.88 LIG 0.16  HD
ENDROOT
BRANCH 3 5
ATOM      5  CA  GLY F   6      23.678 -25.421  30.966  1.00 18.82 LIG 0.23  C 
BRANCH 5 6
ATOM      6  C   GLY F   6      23.141 -26.021  32.240  1.00 19.38 LIG 0.24  C 
ATOM      7  N   GLN F   7      22.806 -27.299  32.159  1.00 19.21 LIG-0.35  N 
ATOM      8 H    GLN F   7      22.946 -27.792  31.468  1.00 19.21 LIG 0.16  HD
ATOM      9 O    GLY F   6      22.978 -25.353  33.288  1.00 20.81 LIG-0.27  OA
BRANCH 7 10
ATOM     10  CA  GLN F   7      22.158 -27.979  33.262  1.00 20.89 LIG 0.18  C 
BRANCH 10 11
ATOM     11  C   GLN F   7      23.225 -28.257  34.307  1.00 21.73 LIG 0.24  C 
ATOM     12  N   VAL F   8      23.441 -27.287  35.196  1.00 23.67 LIG-0.34  N 
ATOM     13 H    VAL F   8      22.999 -26.550  35.202  1.00 23.67 LIG 0.16  HD
ATOM     14 O    GLN F   7      23.834 -29.311  34.310  1.00 20.56 LIG-0.27  OA
BRANCH 12 15
ATOM     15  CA  VAL F   8      24.448 -27.371  36.253  1.00 26.59 LIG 0.19  C 
BRANCH 15 16
ATOM     16  C   VAL F   8      24.103 -26.374  37.343  1.00 31.87 LIG 0.20  C 
ATOM     17 O    VAL F   8      24.929 -25.541  37.722  1.00 34.57 LIG-0.65  OA
ATOM     18 OXT  VAL F   8      23.011 -26.404  37.908  1.00 35.27 LIG-0.65  OA
ENDBRANCH 15 16
BRANCH 15 19
ATOM     19  CB  VAL F   8      25.861 -27.010  35.717  1.00 27.17 LIG 0.01  C 
ATOM     20  CG1 VAL F   8      26.634 -28.251  35.262  1.00 30.44 LIG 0.01  C 
ATOM     21  CG2 VAL F   8      25.782 -26.037  34.572  1.00 24.96 LIG 0.01  C 
ENDBRANCH 15 19
ENDBRANCH 12 15
ENDBRANCH 10 11
BRANCH 10 22
ATOM     22  CB  GLN F   7      21.510 -29.270  32.760  1.00 21.57 LIG 0.04  C 
BRANCH 22 23
ATOM     23  CG  GLN F   7      21.261 -30.327  33.829  1.00 23.35 LIG 0.10  C 
BRANCH 23 24
ATOM     24  CD  GLN F   7      19.801 -30.413  34.224  1.00 24.40 LIG 0.21  C 
ATOM     25  NE2 GLN F   7      19.261 -31.617  34.205  1.00 26.54 LIG-0.37  N 
ATOM     26 22HE GLN F   7      18.434 -31.721  34.414  1.00 26.54 LIG 0.16  HD
ATOM     27 21HE GLN F   7      19.738 -32.298  33.983  1.00 26.54 LIG 0.16  HD
ATOM     28 OE1  GLN F   7      19.173 -29.403  34.533  1.00 22.98 LIG-0.27  OA
ENDBRANCH 23 24
ENDBRANCH 22 23
ENDBRANCH 10 22
ENDBRANCH 7 10
ENDBRANCH 5 6
ENDBRANCH 3 5
BRANCH 1 29
ATOM     29  CA  PRO F   5      25.957 -22.357  30.716  1.00 24.01 LIG 0.18  C 
ATOM     30  CB  PRO F   5      25.284 -21.494  29.651  1.00 26.63 LIG 0.04  C 
ATOM     31  CG  PRO F   5      26.293 -21.289  28.602  1.00 25.90 LIG 0.02  C 
ATOM     32  CD  PRO F   5      27.657 -21.550  29.168  1.00 24.07 LIG 0.13  C 
ATOM     33  N   PRO F   5      27.395 -22.146  30.488  1.00 22.96 LIG-0.34  N 
ATOM     34  C   TYR F   4      28.288 -22.272  31.500  1.00 22.64 LIG 0.24  C 
ATOM     35 O    TYR F   4      27.994 -22.690  32.607  1.00 22.73 LIG-0.27  OA
BRANCH 34 36
ATOM     36  CA  TYR F   4      29.732 -21.863  31.244  1.00 23.00 LIG 0.18  C 
BRANCH 36 37
ATOM     37  N   TYR F   4      30.443 -21.841  32.534  1.00 26.39 LIG-0.35  N 
ATOM     38 H    TYR F   4      30.202 -22.452  33.087  1.00 26.39 LIG 0.16  HD
ATOM     39  C   GLY F   3      31.373 -20.938  32.784  1.00 29.77 LIG 0.25  C 
ATOM     40 O    GLY F   3      31.623 -20.035  31.996  1.00 31.07 LIG-0.27  OA
BRANCH 39 41
ATOM     41  CA  GLY F   3      32.106 -21.025  34.125  1.00 33.82 LIG 0.47  C 
ATOM     42  N   GLY F   3      31.143 -20.907  35.250  1.00 37.49 LIG 0.61  N 
ENDBRANCH 39 41
ENDBRANCH 36 37
BRANCH 36 43
ATOM     43  CB  TYR F   4      30.383 -22.853  30.324  1.00 21.26 LIG 0.07  C 
BRANCH 43 44
ATOM     44  CG  TYR F   4      31.550 -22.327  29.591  1.00 18.65 LIG-0.06  A 
ATOM     45  CD2 TYR F   4      32.585 -23.168  29.204  1.00 17.47 LIG 0.01  A 
ATOM     46  CE2 TYR F   4      33.691 -22.682  28.513  1.00 16.54 LIG 0.04  A 
ATOM     47  CZ  TYR F   4      33.766 -21.333  28.204  1.00 17.16 LIG 0.07  A 
ATOM     48  CE1 TYR F   4      32.738 -20.485  28.574  1.00 18.26 LIG 0.04  A 
ATOM     49  CD1 TYR F   4      31.644 -20.973  29.284  1.00 19.09 LIG 0.01  A 
BRANCH 47 50
ATOM     50 OH   TYR F   4      34.881 -20.787  27.539  1.00 17.27 LIG-0.36  OA
ATOM     51 HH   TYR F   4      34.625 -20.184  27.013  1.00 17.27 LIG 0.22  HD
ENDBRANCH 47 50
ENDBRANCH 43 44
ENDBRANCH 36 43
ENDBRANCH 34 36
ENDBRANCH 1 29
TORSDOF 17
ENDMDL
MODEL 6
USER: ADFR SOLUTION from run 181
USER: SCORE 16.487334 LL:  -4.184 LR: -13.113 RR:   0.000 FEB:  -8.042
USER: RMSD 4.623679
USER: SEED 180
USER: STATUS no improvement in best in 7 clusters for 5 generations
USER: GENES 19
USER: genes 0 Translation |==|  0.44371 0.62713 0.51074
USER: genes 1 Rotation |==|  0.68198 0.49605 0.74375 0.89680
USER: genes 2 Torsion [C]-N--CA-[C] |==|  0.14446
USER: genes 3 Torsion [N]-CA--C-[N] |==|  0.13195
USER: genes 4 Torsion [C]-N--CA-[C] |==|  0.74327
USER: genes 5 Torsion [N]-CA--C-[N] |==|  0.52280
USER: genes 6 Torsion [C]-N--CA-[C] |==|  0.66740
USER: genes 7 Torsion [N]-CA--C-[O] |==|  0.62941
USER: genes 8 Torsion [N]-CA--CB-[CG1] |==|  0.82400
USER: genes 9 Torsion [N]-CA--CB-[CG] |==|  0.05593
USER: genes 10 Torsion [CA]-CB--CG-[CD] |==|  0.25792
USER: genes 11 Torsion [CB]-CG--CD-[NE2] |==|  0.61101
USER: genes 12 Torsion [O]-C--CA-[CB] |==|  0.48494
USER: genes 13 Torsion [N]-C--CA-[N] |==|  0.45840
USER: genes 14 Torsion [C]-CA--N-[C] |==|  0.54285
USER: genes 15 Torsion [N]-C--CA-[N] |==|  0.36915
USER: genes 16 Torsion [C]-CA--CB-[CG] |==|  0.98543
USER: genes 17 Torsion [CA]-CB--CG-[CD2] |==|  0.78830
USER: genes 18 Torsion [CE2]-CZ--OH-[HH] |==|  0.20892
ROOT
ATOM      1  C   PRO F   5      25.077 -24.300  30.585  1.00 22.19 LIG 0.24  C 
ATOM      2 O    PRO F   5      25.850 -25.219  30.823  1.00 23.65 LIG-0.27  OA
ATOM      3  N   GLY F   6      23.961 -24.450  29.883  1.00 19.88 LIG-0.35  N 
ATOM      4 H    GLY F   6      23.386 -23.821  29.765  1.00 19.88 LIG 0.16  HD
ENDROOT
BRANCH 3 5
ATOM      5  CA  GLY F   6      23.601 -25.712  29.239  1.00 18.82 LIG 0.23  C 
BRANCH 5 6
ATOM      6  C   GLY F   6      23.629 -26.924  30.134  1.00 19.38 LIG 0.24  C 
ATOM      7  N   GLN F   7      23.019 -26.774  31.299  1.00 19.21 LIG-0.35  N 
ATOM      8 H    GLN F   7      22.568 -26.077  31.521  1.00 19.21 LIG 0.16  HD
ATOM      9 O    GLY F   6      24.224 -27.983  29.823  1.00 20.81 LIG-0.27  OA
BRANCH 7 10
ATOM     10  CA  GLN F   7      23.070 -27.806  32.314  1.00 20.89 LIG 0.18  C 
BRANCH 10 11
ATOM     11  C   GLN F   7      21.853 -28.692  32.115  1.00 21.73 LIG 0.24  C 
ATOM     12  N   VAL F   8      21.631 -29.605  33.062  1.00 23.67 LIG-0.34  N 
ATOM     13 H    VAL F   8      22.128 -29.688  33.758  1.00 23.67 LIG 0.16  HD
ATOM     14 O    GLN F   7      21.137 -28.557  31.140  1.00 20.56 LIG-0.27  OA
BRANCH 12 15
ATOM     15  CA  VAL F   8      20.524 -30.559  33.019  1.00 26.59 LIG 0.19  C 
BRANCH 15 16
ATOM     16  C   VAL F   8      19.643 -30.347  34.236  1.00 31.87 LIG 0.20  C 
ATOM     17 O    VAL F   8      19.261 -31.304  34.914  1.00 34.57 LIG-0.65  OA
ATOM     18 OXT  VAL F   8      19.250 -29.225  34.548  1.00 35.27 LIG-0.65  OA
ENDBRANCH 15 16
BRANCH 15 19
ATOM     19  CB  VAL F   8      21.038 -32.024  33.061  1.00 27.17 LIG 0.01  C 
ATOM     20  CG1 VAL F   8      21.890 -32.367  31.836  1.00 30.44 LIG 0.01  C 
ATOM     21  CG2 VAL F   8      21.845 -32.287  34.304  1.00 24.96 LIG 0.01  C 
ENDBRANCH 15 19
ENDBRANCH 12 15
ENDBRANCH 10 11
BRANCH 10 22
ATOM     22  CB  GLN F   7      23.080 -27.163  33.701  1.00 21.57 LIG 0.04  C 
BRANCH 22 23
ATOM     23  CG  GLN F   7      22.563 -25.730  33.754  1.00 23.35 LIG 0.10  C 
BRANCH 23 24
ATOM     24  CD  GLN F   7      21.084 -25.663  34.072  1.00 24.40 LIG 0.21  C 
ATOM     25  NE2 GLN F   7      20.386 -24.761  33.408  1.00 26.54 LIG-0.37  N 
ATOM     26 22HE GLN F   7      19.543 -24.676  33.555  1.00 26.54 LIG 0.16  HD
ATOM     27 21HE GLN F   7      20.774 -24.259  32.827  1.00 26.54 LIG 0.16  HD
ATOM     28 OE1  GLN F   7      20.587 -26.408  34.913  1.00 22.98 LIG-0.27  OA
ENDBRANCH 23 24
ENDBRANCH 22 23
ENDBRANCH 10 22
ENDBRANCH 7 10
ENDBRANCH 5 6
ENDBRANCH 3 5
BRANCH 1 29
ATOM     29  CA  PRO F   5      25.409 -22.918  31.129  1.00 24.01 LIG 0.18  C 
ATOM     30  CB  PRO F   5      24.400 -21.894  30.613  1.00 26.63 LIG 0.04  C 
ATOM     31  CG  PRO F   5      25.089 -21.152  29.547  1.00 25.90 LIG 0.02  C 
ATOM     32  CD  PRO F   5      26.571 -21.317  29.705  1.00 24.07 LIG 0.13  C 
ATOM     33  N   PRO F   5      26.713 -22.365  30.728  1.00 22.96 LIG-0.34  N 
ATOM     34  C   TYR F   4      27.837 -22.650  31.430  1.00 22.64 LIG 0.24  C 
ATOM     35 O    TYR F   4      27.875 -23.468  32.334  1.00 22.73 LIG-0.27  OA
BRANCH 34 36
ATOM     36  CA  TYR F   4      29.116 -21.904  31.078  1.00 23.00 LIG 0.18  C 
BRANCH 36 37
ATOM     37  N   TYR F   4      30.083 -22.098  32.173  1.00 26.39 LIG-0.35  N 
ATOM     38 H    TYR F   4      29.888 -22.737  32.714  1.00 26.39 LIG 0.16  HD
ATOM     39  C   GLY F   3      31.152 -21.332  32.281  1.00 29.77 LIG 0.25  C 
ATOM     40 O    GLY F   3      31.343 -20.381  31.534  1.00 31.07 LIG-0.27  OA
BRANCH 39 41
ATOM     41  CA  GLY F   3      32.137 -21.643  33.412  1.00 33.82 LIG 0.47  C 
ATOM     42  N   GLY F   3      33.531 -21.654  32.896  1.00 37.49 LIG 0.61  N 
ENDBRANCH 39 41
ENDBRANCH 36 37
BRANCH 36 43
ATOM     43  CB  TYR F   4      29.683 -22.448  29.800  1.00 21.26 LIG 0.07  C 
BRANCH 43 44
ATOM     44  CG  TYR F   4      28.966 -23.621  29.265  1.00 18.65 LIG-0.06  A 
ATOM     45  CD2 TYR F   4      29.133 -24.877  29.833  1.00 17.47 LIG 0.01  A 
ATOM     46  CE2 TYR F   4      28.461 -25.990  29.336  1.00 16.54 LIG 0.04  A 
ATOM     47  CZ  TYR F   4      27.608 -25.847  28.254  1.00 17.16 LIG 0.07  A 
ATOM     48  CE1 TYR F   4      27.423 -24.600  27.683  1.00 18.26 LIG 0.04  A 
ATOM     49  CD1 TYR F   4      28.115 -23.494  28.171  1.00 19.09 LIG 0.01  A 
BRANCH 47 50
ATOM     50 OH   TYR F   4      26.934 -26.948  27.691  1.00 17.27 LIG-0.36  OA
ATOM     51 HH   TYR F   4      26.300 -27.175  28.193  1.00 17.27 LIG 0.22  HD
ENDBRANCH 47 50
ENDBRANCH 43 44
ENDBRANCH 36 43
ENDBRANCH 34 36
ENDBRANCH 1 29
TORSDOF 17
ENDMDL
MODEL 7
USER: ADFR SOLUTION from run 38
USER: SCORE 15.589518 LL:  -3.694 LR: -12.843 RR:   0.000 FEB:  -7.772
USER: RMSD 5.369132
USER: SEED 37
USER: STATUS no improvement in best in 9 clusters for 5 generations
USER: GENES 19
USER: genes 0 Translation |==|  0.43056 0.72155 0.49325
USER: genes 1 Rotation |==|  0.15832 0.29307 0.60100 0.78326
USER: genes 2 Torsion [C]-N--CA-[C] |==|  0.75560
USER: genes 3 Torsion [N]-CA--C-[N] |==|  0.50991
USER: genes 4 Torsion [C]-N--CA-[C] |==|  0.51784
USER: genes 5 Torsion [N]-CA--C-[N] |==|  0.46712
USER: genes 6 Torsion [C]-N--CA-[C] |==|  0.64367
USER: genes 7 Torsion [N]-CA--C-[O] |==|  0.13511
USER: genes 8 Torsion [N]-CA--CB-[CG1] |==|  0.78096
USER: genes 9 Torsion [N]-CA--CB-[CG] |==|  0.55628
USER: genes 10 Torsion [CA]-CB--CG-[CD] |==|  0.16695
USER: genes 11 Torsion [CB]-CG--CD-[NE2] |==|  0.07039
USER: genes 12 Torsion [O]-C--CA-[CB] |==|  0.75891
USER: genes 13 Torsion [N]-C--CA-[N] |==|  0.20512
USER: genes 14 Torsion [C]-CA--N-[C] |==|  0.63034
USER: genes 15 Torsion [N]-C--CA-[N] |==|  0.66844
USER: genes 16 Torsion [C]-CA--CB-[CG] |==|  0.76999
USER: genes 17 Torsion [CA]-CB--CG-[CD2] |==|  0.25856
USER: genes 18 Torsion [CE2]-CZ--OH-[HH] |==|  0.68935
ROOT
ATOM      1  C   PRO F   5      24.771 -22.459  30.297  1.00 22.19 LIG 0.24  C 
ATOM      2 O    PRO F   5      23.683 -22.024  30.650  1.00 23.65 LIG-0.27  OA
ATOM      3  N   GLY F   6      24.968 -23.719  29.930  1.00 19.88 LIG-0.35  N 
ATOM      4 H    GLY F   6      25.716 -24.014  29.625  1.00 19.88 LIG 0.16  HD
ENDROOT
BRANCH 3 5
ATOM      5  CA  GLY F   6      23.920 -24.734  30.012  1.00 18.82 LIG 0.23  C 
BRANCH 5 6
ATOM      6  C   GLY F   6      23.822 -25.456  31.331  1.00 19.38 LIG 0.24  C 
ATOM      7  N   GLN F   7      22.920 -26.424  31.373  1.00 19.21 LIG-0.35  N 
ATOM      8 H    GLN F   7      22.468 -26.692  30.694  1.00 19.21 LIG 0.16  HD
ATOM      9 O    GLY F   6      24.509 -25.138  32.330  1.00 20.81 LIG-0.27  OA
BRANCH 7 10
ATOM     10  CA  GLN F   7      22.624 -27.123  32.607  1.00 20.89 LIG 0.18  C 
BRANCH 10 11
ATOM     11  C   GLN F   7      21.677 -28.259  32.264  1.00 21.73 LIG 0.24  C 
ATOM     12  N   VAL F   8      21.478 -29.167  33.220  1.00 23.67 LIG-0.34  N 
ATOM     13 H    VAL F   8      21.843 -29.116  33.997  1.00 23.67 LIG 0.16  HD
ATOM     14 O    GLN F   7      21.143 -28.316  31.171  1.00 20.56 LIG-0.27  OA
BRANCH 12 15
ATOM     15  CA  VAL F   8      20.622 -30.341  33.053  1.00 26.59 LIG 0.19  C 
BRANCH 15 16
ATOM     16  C   VAL F   8      19.637 -30.399  34.205  1.00 31.87 LIG 0.20  C 
ATOM     17 O    VAL F   8      18.987 -29.404  34.533  1.00 34.57 LIG-0.65  OA
ATOM     18 OXT  VAL F   8      19.497 -31.425  34.870  1.00 35.27 LIG-0.65  OA
ENDBRANCH 15 16
BRANCH 15 19
ATOM     19  CB  VAL F   8      21.453 -31.653  33.079  1.00 27.17 LIG 0.01  C 
ATOM     20  CG1 VAL F   8      22.152 -31.914  31.742  1.00 30.44 LIG 0.01  C 
ATOM     21  CG2 VAL F   8      22.486 -31.629  34.173  1.00 24.96 LIG 0.01  C 
ENDBRANCH 15 19
ENDBRANCH 12 15
ENDBRANCH 10 11
BRANCH 10 22
ATOM     22  CB  GLN F   7      21.999 -26.152  33.609  1.00 21.57 LIG 0.04  C 
BRANCH 22 23
ATOM     23  CG  GLN F   7      22.076 -26.587  35.068  1.00 23.35 LIG 0.10  C 
BRANCH 23 24
ATOM     24  CD  GLN F   7      23.503 -26.766  35.540  1.00 24.40 LIG 0.21  C 
ATOM     25  NE2 GLN F   7      24.422 -26.070  34.897  1.00 26.54 LIG-0.37  N 
ATOM     26 22HE GLN F   7      25.250 -26.140  35.120  1.00 26.54 LIG 0.16  HD
ATOM     27 21HE GLN F   7      24.194 -25.547  34.253  1.00 26.54 LIG 0.16  HD
ATOM     28 OE1  GLN F   7      23.768 -27.528  36.467  1.00 22.98 LIG-0.27  OA
ENDBRANCH 23 24
ENDBRANCH 22 23
ENDBRANCH 10 22
ENDBRANCH 7 10
ENDBRANCH 5 6
ENDBRANCH 3 5
BRANCH 1 29
ATOM     29  CA  PRO F   5      25.956 -21.505  30.269  1.00 24.01 LIG 0.18  C 
ATOM     30  CB  PRO F   5      26.014 -20.776  28.929  1.00 26.63 LIG 0.04  C 
ATOM     31  CG  PRO F   5      27.088 -21.425  28.163  1.00 25.90 LIG 0.02  C 
ATOM     32  CD  PRO F   5      27.996 -22.159  29.106  1.00 24.07 LIG 0.13  C 
ATOM     33  N   PRO F   5      27.285 -22.125  30.394  1.00 22.96 LIG-0.34  N 
ATOM     34  C   TYR F   4      27.824 -22.381  31.611  1.00 22.64 LIG 0.24  C 
ATOM     35 O    TYR F   4      27.213 -22.249  32.658  1.00 22.73 LIG-0.27  OA
BRANCH 34 36
ATOM     36  CA  TYR F   4      29.270 -22.852  31.675  1.00 23.00 LIG 0.18  C 
BRANCH 36 37
ATOM     37  N   TYR F   4      30.146 -21.701  31.394  1.00 26.39 LIG-0.35  N 
ATOM     38 H    TYR F   4      29.946 -20.984  31.824  1.00 26.39 LIG 0.16  HD
ATOM     39  C   GLY F   3      31.149 -21.800  30.541  1.00 29.77 LIG 0.25  C 
ATOM     40 O    GLY F   3      31.343 -22.818  29.889  1.00 31.07 LIG-0.27  OA
BRANCH 39 41
ATOM     41  CA  GLY F   3      32.047 -20.574  30.355  1.00 33.82 LIG 0.47  C 
ATOM     42  N   GLY F   3      32.005 -20.112  28.942  1.00 37.49 LIG 0.61  N 
ENDBRANCH 39 41
ENDBRANCH 36 37
BRANCH 36 43
ATOM     43  CB  TYR F   4      29.567 -23.390  33.044  1.00 21.26 LIG 0.07  C 
BRANCH 43 44
ATOM     44  CG  TYR F   4      29.907 -22.360  34.043  1.00 18.65 LIG-0.06  A 
ATOM     45  CD2 TYR F   4      28.927 -21.808  34.859  1.00 17.47 LIG 0.01  A 
ATOM     46  CE2 TYR F   4      29.237 -20.835  35.803  1.00 16.54 LIG 0.04  A 
ATOM     47  CZ  TYR F   4      30.548 -20.404  35.937  1.00 17.16 LIG 0.07  A 
ATOM     48  CE1 TYR F   4      31.536 -20.951  35.140  1.00 18.26 LIG 0.04  A 
ATOM     49  CD1 TYR F   4      31.216 -21.909  34.180  1.00 19.09 LIG 0.01  A 
BRANCH 47 50
ATOM     50 OH   TYR F   4      30.905 -19.396  36.853  1.00 17.27 LIG-0.36  OA
ATOM     51 HH   TYR F   4      31.143 -18.708  36.434  1.00 17.27 LIG 0.22  HD
ENDBRANCH 47 50
ENDBRANCH 43 44
ENDBRANCH 36 43
ENDBRANCH 34 36
ENDBRANCH 1 29
TORSDOF 17
ENDMDL
MODEL 8
USER: ADFR SOLUTION from run 34
USER: SCORE 16.588185 LL:  -4.303 LR: -12.817 RR:   0.000 FEB:  -7.746
USER: RMSD 4.118112
USER: SEED 33
USER: STATUS 1 or 2 clusters left
USER: GENES 19
USER: genes 0 Translation |==|  0.47391 0.58581 0.61010
USER: genes 1 Rotation |==|  0.27821 0.40583 0.48903 0.93797
USER: genes 2 Torsion [C]-N--CA-[C] |==|  0.79712
USER: genes 3 Torsion [N]-CA--C-[N] |==|  0.36555
USER: genes 4 Torsion [C]-N--CA-[C] |==|  0.15778
USER: genes 5 Torsion [N]-CA--C-[N] |==|  0.16111
USER: genes 6 Torsion [C]-N--CA-[C] |==|  0.63127
USER: genes 7 Torsion [N]-CA--C-[O] |==|  0.75491
USER: genes 8 Torsion [N]-CA--CB-[CG1] |==|  0.47709
USER: genes 9 Torsion [N]-CA--CB-[CG] |==|  0.47141
USER: genes 10 Torsion [CA]-CB--CG-[CD] |==|  0.21856
USER: genes 11 Torsion [CB]-CG--CD-[NE2] |==|  0.40119
USER: genes 12 Torsion [O]-C--CA-[CB] |==|  0.00161
USER: genes 13 Torsion [N]-C--CA-[N] |==|  0.40234
USER: genes 14 Torsion [C]-CA--N-[C] |==|  0.83296
USER: genes 15 Torsion [N]-C--CA-[N] |==|  0.59210
USER: genes 16 Torsion [C]-CA--CB-[CG] |==|  0.10238
USER: genes 17 Torsion [CA]-CB--CG-[CD2] |==|  0.75522
USER: genes 18 Torsion [CE2]-CZ--OH-[HH] |==|  0.10831
ROOT
ATOM      1  C   PRO F   5      25.779 -25.106  32.225  1.00 22.19 LIG 0.24  C 
ATOM      2 O    PRO F   5      25.133 -24.793  33.216  1.00 23.65 LIG-0.27  OA
ATOM      3  N   GLY F   6      25.229 -25.604  31.124  1.00 19.88 LIG-0.35  N 
ATOM      4 H    GLY F   6      25.672 -25.769  30.405  1.00 19.88 LIG 0.16  HD
ENDROOT
BRANCH 3 5
ATOM      5  CA  GLY F   6      23.807 -25.923  31.032  1.00 18.82 LIG 0.23  C 
BRANCH 5 6
ATOM      6  C   GLY F   6      23.369 -27.149  31.791  1.00 19.38 LIG 0.24  C 
ATOM      7  N   GLN F   7      22.297 -26.983  32.550  1.00 19.21 LIG-0.35  N 
ATOM      8 H    GLN F   7      21.824 -26.266  32.567  1.00 19.21 LIG 0.16  HD
ATOM      9 O    GLY F   6      23.995 -28.234  31.746  1.00 20.81 LIG-0.27  OA
BRANCH 7 10
ATOM     10  CA  GLN F   7      21.832 -28.033  33.434  1.00 20.89 LIG 0.18  C 
BRANCH 10 11
ATOM     11  C   GLN F   7      22.984 -28.384  34.360  1.00 21.73 LIG 0.24  C 
ATOM     12  N   VAL F   8      23.472 -27.384  35.094  1.00 23.67 LIG-0.34  N 
ATOM     13 H    VAL F   8      23.153 -26.586  35.070  1.00 23.67 LIG 0.16  HD
ATOM     14 O    GLN F   7      23.419 -29.520  34.409  1.00 20.56 LIG-0.27  OA
BRANCH 12 15
ATOM     15  CA  VAL F   8      24.597 -27.534  36.016  1.00 26.59 LIG 0.19  C 
BRANCH 15 16
ATOM     16  C   VAL F   8      24.238 -26.887  37.341  1.00 31.87 LIG 0.20  C 
ATOM     17 O    VAL F   8      24.461 -25.690  37.541  1.00 34.57 LIG-0.65  OA
ATOM     18 OXT  VAL F   8      23.762 -27.547  38.262  1.00 35.27 LIG-0.65  OA
ENDBRANCH 15 16
BRANCH 15 19
ATOM     19  CB  VAL F   8      25.869 -26.824  35.477  1.00 27.17 LIG 0.01  C 
ATOM     20  CG1 VAL F   8      26.993 -26.797  36.516  1.00 30.44 LIG 0.01  C 
ATOM     21  CG2 VAL F   8      26.378 -27.486  34.225  1.00 24.96 LIG 0.01  C 
ENDBRANCH 15 19
ENDBRANCH 12 15
ENDBRANCH 10 11
BRANCH 10 22
ATOM     22  CB  GLN F   7      21.384 -29.239  32.608  1.00 21.57 LIG 0.04  C 
BRANCH 22 23
ATOM     23  CG  GLN F   7      21.102 -30.504  33.409  1.00 23.35 LIG 0.10  C 
BRANCH 23 24
ATOM     24  CD  GLN F   7      19.751 -30.464  34.091  1.00 24.40 LIG 0.21  C 
ATOM     25  NE2 GLN F   7      19.102 -31.611  34.167  1.00 26.54 LIG-0.37  N 
ATOM     26 22HE GLN F   7      18.327 -31.643  34.539  1.00 26.54 LIG 0.16  HD
ATOM     27 21HE GLN F   7      19.455 -32.327  33.846  1.00 26.54 LIG 0.16  HD
ATOM     28 OE1  GLN F   7      19.300 -29.410  34.533  1.00 22.98 LIG-0.27  OA
ENDBRANCH 23 24
ENDBRANCH 22 23
ENDBRANCH 10 22
ENDBRANCH 7 10
ENDBRANCH 5 6
ENDBRANCH 3 5
BRANCH 1 29
ATOM     29  CA  PRO F   5      27.287 -24.905  32.252  1.00 24.01 LIG 0.18  C 
ATOM     30  CB  PRO F   5      27.717 -24.332  33.601  1.00 26.63 LIG 0.04  C 
ATOM     31  CG  PRO F   5      27.979 -22.904  33.366  1.00 25.90 LIG 0.02  C 
ATOM     32  CD  PRO F   5      28.207 -22.676  31.901  1.00 24.07 LIG 0.13  C 
ATOM     33  N   PRO F   5      27.828 -23.951  31.271  1.00 22.96 LIG-0.34  N 
ATOM     34  C   TYR F   4      28.143 -24.345  30.014  1.00 22.64 LIG 0.24  C 
ATOM     35 O    TYR F   4      27.882 -25.453  29.572  1.00 22.73 LIG-0.27  OA
BRANCH 34 36
ATOM     36  CA  TYR F   4      28.866 -23.360  29.107  1.00 23.00 LIG 0.18  C 
BRANCH 36 37
ATOM     37  N   TYR F   4      29.804 -24.113  28.257  1.00 26.39 LIG-0.35  N 
ATOM     38 H    TYR F   4      29.661 -24.040  27.412  1.00 26.39 LIG 0.16  HD
ATOM     39  C   GLY F   3      30.776 -24.833  28.786  1.00 29.77 LIG 0.25  C 
ATOM     40 O    GLY F   3      30.888 -24.974  29.997  1.00 31.07 LIG-0.27  OA
BRANCH 39 41
ATOM     41  CA  GLY F   3      31.743 -25.534  27.828  1.00 33.82 LIG 0.47  C 
ATOM     42  N   GLY F   3      32.202 -26.823  28.408  1.00 37.49 LIG 0.61  N 
ENDBRANCH 39 41
ENDBRANCH 36 37
BRANCH 36 43
ATOM     43  CB  TYR F   4      27.871 -22.639  28.247  1.00 21.26 LIG 0.07  C 
BRANCH 43 44
ATOM     44  CG  TYR F   4      26.596 -22.329  28.920  1.00 18.65 LIG-0.06  A 
ATOM     45  CD2 TYR F   4      25.548 -23.242  28.916  1.00 17.47 LIG 0.01  A 
ATOM     46  CE2 TYR F   4      24.341 -22.960  29.547  1.00 16.54 LIG 0.04  A 
ATOM     47  CZ  TYR F   4      24.175 -21.745  30.194  1.00 17.16 LIG 0.07  A 
ATOM     48  CE1 TYR F   4      25.211 -20.829  30.215  1.00 18.26 LIG 0.04  A 
ATOM     49  CD1 TYR F   4      26.410 -21.109  29.563  1.00 19.09 LIG 0.01  A 
BRANCH 47 50
ATOM     50 OH   TYR F   4      22.960 -21.397  30.815  1.00 17.27 LIG-0.36  OA
ATOM     51 HH   TYR F   4      22.636 -22.073  31.195  1.00 17.27 LIG 0.22  HD
ENDBRANCH 47 50
ENDBRANCH 43 44
ENDBRANCH 36 43
ENDBRANCH 34 36
ENDBRANCH 1 29
TORSDOF 17
ENDMDL
MODEL 9
USER: ADFR SOLUTION from run 161
USER: SCORE 15.919249 LL:  -3.509 LR: -12.763 RR:   0.000 FEB:  -7.692
USER: RMSD 3.808268
USER: SEED 160
USER: STATUS no improvement in best in 11 clusters for 5 generations
USER: GENES 19
USER: genes 0 Translation |==|  0.46207 0.59758 0.63382
USER: genes 1 Rotation |==|  0.01091 0.46328 0.57027 0.56713
USER: genes 2 Torsion [C]-N--CA-[C] |==|  0.27791
USER: genes 3 Torsion [N]-CA--C-[N] |==|  0.05109
USER: genes 4 Torsion [C]-N--CA-[C] |==|  0.74945
USER: genes 5 Torsion [N]-CA--C-[N] |==|  0.46302
USER: genes 6 Torsion [C]-N--CA-[C] |==|  0.13584
USER: genes 7 Torsion [N]-CA--C-[O] |==|  0.03378
USER: genes 8 Torsion [N]-CA--CB-[CG1] |==|  0.90017
USER: genes 9 Torsion [N]-CA--CB-[CG] |==|  0.63592
USER: genes 10 Torsion [CA]-CB--CG-[CD] |==|  0.89757
USER: genes 11 Torsion [CB]-CG--CD-[NE2] |==|  0.71329
USER: genes 12 Torsion [O]-C--CA-[CB] |==|  0.33381
USER: genes 13 Torsion [N]-C--CA-[N] |==|  0.37618
USER: genes 14 Torsion [C]-CA--N-[C] |==|  0.77659
USER: genes 15 Torsion [N]-C--CA-[N] |==|  0.61257
USER: genes 16 Torsion [C]-CA--CB-[CG] |==|  0.08263
USER: genes 17 Torsion [CA]-CB--CG-[CD2] |==|  0.73266
USER: genes 18 Torsion [CE2]-CZ--OH-[HH] |==|  0.03958
ROOT
ATOM      1  C   PRO F   5      25.504 -24.876  32.616  1.00 22.19 LIG 0.24  C 
ATOM      2 O    PRO F   5      24.939 -24.006  31.967  1.00 23.65 LIG-0.27  OA
ATOM      3  N   GLY F   6      24.878 -25.657  33.487  1.00 19.88 LIG-0.35  N 
ATOM      4 H    GLY F   6      25.259 -26.308  33.901  1.00 19.88 LIG 0.16  HD
ENDROOT
BRANCH 3 5
ATOM      5  CA  GLY F   6      23.468 -25.481  33.829  1.00 18.82 LIG 0.23  C 
BRANCH 5 6
ATOM      6  C   GLY F   6      22.514 -26.420  33.136  1.00 19.38 LIG 0.24  C 
ATOM      7  N   GLN F   7      23.071 -27.504  32.620  1.00 19.21 LIG-0.35  N 
ATOM      8 H    GLN F   7      23.897 -27.718  32.725  1.00 19.21 LIG 0.16  HD
ATOM      9 O    GLY F   6      21.290 -26.174  33.015  1.00 20.81 LIG-0.27  OA
BRANCH 7 10
ATOM     10  CA  GLN F   7      22.304 -28.434  31.817  1.00 20.89 LIG 0.18  C 
BRANCH 10 11
ATOM     11  C   GLN F   7      21.725 -29.472  32.762  1.00 21.73 LIG 0.24  C 
ATOM     12  N   VAL F   8      20.769 -30.254  32.261  1.00 23.67 LIG-0.34  N 
ATOM     13 H    VAL F   8      20.497 -30.197  31.447  1.00 23.67 LIG 0.16  HD
ATOM     14 O    GLN F   7      22.128 -29.565  33.908  1.00 20.56 LIG-0.27  OA
BRANCH 12 15
ATOM     15  CA  VAL F   8      20.081 -31.286  33.035  1.00 26.59 LIG 0.19  C 
BRANCH 15 16
ATOM     16  C   VAL F   8      19.620 -30.689  34.352  1.00 31.87 LIG 0.20  C 
ATOM     17 O    VAL F   8      19.641 -29.470  34.536  1.00 34.57 LIG-0.65  OA
ATOM     18 OXT  VAL F   8      19.261 -31.408  35.283  1.00 35.27 LIG-0.65  OA
ENDBRANCH 15 16
BRANCH 15 19
ATOM     19  CB  VAL F   8      21.030 -32.471  33.364  1.00 27.17 LIG 0.01  C 
ATOM     20  CG1 VAL F   8      22.006 -32.756  32.219  1.00 30.44 LIG 0.01  C 
ATOM     21  CG2 VAL F   8      21.816 -32.214  34.621  1.00 24.96 LIG 0.01  C 
ENDBRANCH 15 19
ENDBRANCH 12 15
ENDBRANCH 10 11
BRANCH 10 22
ATOM     22  CB  GLN F   7      23.211 -29.072  30.765  1.00 21.57 LIG 0.04  C 
BRANCH 22 23
ATOM     23  CG  GLN F   7      22.662 -29.060  29.343  1.00 23.35 LIG 0.10  C 
BRANCH 23 24
ATOM     24  CD  GLN F   7      21.165 -29.279  29.302  1.00 24.40 LIG 0.21  C 
ATOM     25  NE2 GLN F   7      20.761 -30.483  28.942  1.00 26.54 LIG-0.37  N 
ATOM     26 22HE GLN F   7      19.921 -30.659  28.896  1.00 26.54 LIG 0.16  HD
ATOM     27 21HE GLN F   7      21.339 -31.092  28.754  1.00 26.54 LIG 0.16  HD
ATOM     28 OE1  GLN F   7      20.388 -28.369  29.583  1.00 22.98 LIG-0.27  OA
ENDBRANCH 23 24
ENDBRANCH 22 23
ENDBRANCH 10 22
ENDBRANCH 7 10
ENDBRANCH 5 6
ENDBRANCH 3 5
BRANCH 1 29
ATOM     29  CA  PRO F   5      26.998 -25.078  32.407  1.00 24.01 LIG 0.18  C 
ATOM     30  CB  PRO F   5      27.747 -24.857  33.719  1.00 26.63 LIG 0.04  C 
ATOM     31  CG  PRO F   5      28.364 -23.526  33.611  1.00 25.90 LIG 0.02  C 
ATOM     32  CD  PRO F   5      28.448 -23.135  32.166  1.00 24.07 LIG 0.13  C 
ATOM     33  N   PRO F   5      27.647 -24.152  31.466  1.00 22.96 LIG-0.34  N 
ATOM     34  C   TYR F   4      27.668 -24.409  30.136  1.00 22.64 LIG 0.24  C 
ATOM     35 O    TYR F   4      27.052 -25.327  29.619  1.00 22.73 LIG-0.27  OA
BRANCH 34 36
ATOM     36  CA  TYR F   4      28.510 -23.512  29.240  1.00 23.00 LIG 0.18  C 
BRANCH 36 37
ATOM     37  N   TYR F   4      29.257 -24.365  28.299  1.00 26.39 LIG-0.35  N 
ATOM     38 H    TYR F   4      28.911 -24.423  27.514  1.00 26.39 LIG 0.16  HD
ATOM     39  C   GLY F   3      30.367 -24.977  28.668  1.00 29.77 LIG 0.25  C 
ATOM     40 O    GLY F   3      30.776 -24.932  29.821  1.00 31.07 LIG-0.27  OA
BRANCH 39 41
ATOM     41  CA  GLY F   3      31.114 -25.793  27.610  1.00 33.82 LIG 0.47  C 
ATOM     42  N   GLY F   3      31.621 -27.061  28.197  1.00 37.49 LIG 0.61  N 
ENDBRANCH 39 41
ENDBRANCH 36 37
BRANCH 36 43
ATOM     43  CB  TYR F   4      27.618 -22.578  28.477  1.00 21.26 LIG 0.07  C 
BRANCH 43 44
ATOM     44  CG  TYR F   4      26.369 -22.222  29.176  1.00 18.65 LIG-0.06  A 
ATOM     45  CD2 TYR F   4      25.187 -22.903  28.914  1.00 17.47 LIG 0.01  A 
ATOM     46  CE2 TYR F   4      24.003 -22.575  29.566  1.00 16.54 LIG 0.04  A 
ATOM     47  CZ  TYR F   4      23.998 -21.548  30.498  1.00 17.16 LIG 0.07  A 
ATOM     48  CE1 TYR F   4      25.169 -20.867  30.778  1.00 18.26 LIG 0.04  A 
ATOM     49  CD1 TYR F   4      26.346 -21.186  30.104  1.00 19.09 LIG 0.01  A 
BRANCH 47 50
ATOM     50 OH   TYR F   4      22.818 -21.154  31.158  1.00 17.27 LIG-0.36  OA
ATOM     51 HH   TYR F   4      22.226 -21.740  31.047  1.00 17.27 LIG 0.22  HD
ENDBRANCH 47 50
ENDBRANCH 43 44
ENDBRANCH 36 43
ENDBRANCH 34 36
ENDBRANCH 1 29
TORSDOF 17
ENDMDL
MODEL 10
USER: ADFR SOLUTION from run 138
USER: SCORE 14.477525 LL:  -2.473 LR: -12.722 RR:   0.000 FEB:  -7.651
USER: RMSD 6.009978
USER: SEED 137
USER: STATUS no improvement in best in 6 clusters for 5 generations
USER: GENES 19
USER: genes 0 Translation |==|  0.43279 0.66888 0.50696
USER: genes 1 Rotation |==|  0.91789 0.77288 0.49162 0.52884
USER: genes 2 Torsion [C]-N--CA-[C] |==|  0.63743
USER: genes 3 Torsion [N]-CA--C-[N] |==|  0.60296
USER: genes 4 Torsion [C]-N--CA-[C] |==|  0.81987
USER: genes 5 Torsion [N]-CA--C-[N] |==|  0.85723
USER: genes 6 Torsion [C]-N--CA-[C] |==|  0.09162
USER: genes 7 Torsion [N]-CA--C-[O] |==|  0.22495
USER: genes 8 Torsion [N]-CA--CB-[CG1] |==|  0.49978
USER: genes 9 Torsion [N]-CA--CB-[CG] |==|  0.64277
USER: genes 10 Torsion [CA]-CB--CG-[CD] |==|  0.45376
USER: genes 11 Torsion [CB]-CG--CD-[NE2] |==|  0.43159
USER: genes 12 Torsion [O]-C--CA-[CB] |==|  0.07585
USER: genes 13 Torsion [N]-C--CA-[N] |==|  0.87224
USER: genes 14 Torsion [C]-CA--N-[C] |==|  0.81678
USER: genes 15 Torsion [N]-C--CA-[N] |==|  0.59596
USER: genes 16 Torsion [C]-CA--CB-[CG] |==|  0.54068
USER: genes 17 Torsion [CA]-CB--CG-[CD2] |==|  0.42497
USER: genes 18 Torsion [CE2]-CZ--OH-[HH] |==|  0.85302
ROOT
ATOM      1  C   PRO F   5      24.823 -23.486  30.523  1.00 22.19 LIG 0.24  C 
ATOM      2 O    PRO F   5      24.126 -23.511  29.517  1.00 23.65 LIG-0.27  OA
ATOM      3  N   GLY F   6      24.802 -24.437  31.448  1.00 19.88 LIG-0.35  N 
ATOM      4 H    GLY F   6      25.332 -24.453  32.125  1.00 19.88 LIG 0.16  HD
ENDROOT
BRANCH 3 5
ATOM      5  CA  GLY F   6      23.866 -25.558  31.401  1.00 18.82 LIG 0.23  C 
BRANCH 5 6
ATOM      6  C   GLY F   6      23.112 -25.823  32.680  1.00 19.38 LIG 0.24  C 
ATOM      7  N   GLN F   7      22.906 -27.102  32.952  1.00 19.21 LIG-0.35  N 
ATOM      8 H    GLN F   7      23.232 -27.752  32.494  1.00 19.21 LIG 0.16  HD
ATOM      9 O    GLY F   6      22.672 -24.904  33.410  1.00 20.81 LIG-0.27  OA
BRANCH 7 10
ATOM     10  CA  GLN F   7      22.089 -27.509  34.078  1.00 20.89 LIG 0.18  C 
BRANCH 10 11
ATOM     11  C   GLN F   7      22.802 -27.052  35.338  1.00 21.73 LIG 0.24  C 
ATOM     12  N   VAL F   8      24.084 -27.401  35.447  1.00 23.67 LIG-0.34  N 
ATOM     13 H    VAL F   8      24.502 -27.843  34.839  1.00 23.67 LIG 0.16  HD
ATOM     14 O    GLN F   7      22.215 -26.404  36.186  1.00 20.56 LIG-0.27  OA
BRANCH 12 15
ATOM     15  CA  VAL F   8      24.916 -27.070  36.603  1.00 26.59 LIG 0.19  C 
BRANCH 15 16
ATOM     16  C   VAL F   8      24.050 -27.070  37.849  1.00 31.87 LIG 0.20  C 
ATOM     17 O    VAL F   8      23.761 -28.125  38.419  1.00 34.57 LIG-0.65  OA
ATOM     18 OXT  VAL F   8      23.575 -26.026  38.292  1.00 35.27 LIG-0.65  OA
ENDBRANCH 15 16
BRANCH 15 19
ATOM     19  CB  VAL F   8      25.539 -25.654  36.465  1.00 27.17 LIG 0.01  C 
ATOM     20  CG1 VAL F   8      26.411 -25.293  37.671  1.00 30.44 LIG 0.01  C 
ATOM     21  CG2 VAL F   8      26.365 -25.537  35.213  1.00 24.96 LIG 0.01  C 
ENDBRANCH 15 19
ENDBRANCH 12 15
ENDBRANCH 10 11
BRANCH 10 22
ATOM     22  CB  GLN F   7      21.902 -29.026  34.054  1.00 21.57 LIG 0.04  C 
BRANCH 22 23
ATOM     23  CG  GLN F   7      20.458 -29.502  34.158  1.00 23.35 LIG 0.10  C 
BRANCH 23 24
ATOM     24  CD  GLN F   7      20.296 -30.946  33.731  1.00 24.40 LIG 0.21  C 
ATOM     25  NE2 GLN F   7      19.260 -31.590  34.235  1.00 26.54 LIG-0.37  N 
ATOM     26 22HE GLN F   7      19.126 -32.415  34.032  1.00 26.54 LIG 0.16  HD
ATOM     27 21HE GLN F   7      18.719 -31.185  34.768  1.00 26.54 LIG 0.16  HD
ATOM     28 OE1  GLN F   7      21.102 -31.470  32.966  1.00 22.98 LIG-0.27  OA
ENDBRANCH 23 24
ENDBRANCH 22 23
ENDBRANCH 10 22
ENDBRANCH 7 10
ENDBRANCH 5 6
ENDBRANCH 3 5
BRANCH 1 29
ATOM     29  CA  PRO F   5      25.767 -22.309  30.718  1.00 24.01 LIG 0.18  C 
ATOM     30  CB  PRO F   5      25.222 -21.073  30.005  1.00 26.63 LIG 0.04  C 
ATOM     31  CG  PRO F   5      26.018 -20.935  28.776  1.00 25.90 LIG 0.02  C 
ATOM     32  CD  PRO F   5      27.303 -21.693  28.928  1.00 24.07 LIG 0.13  C 
ATOM     33  N   PRO F   5      27.121 -22.470  30.165  1.00 22.96 LIG-0.34  N 
ATOM     34  C   TYR F   4      28.102 -23.069  30.884  1.00 22.64 LIG 0.24  C 
ATOM     35 O    TYR F   4      27.908 -23.624  31.953  1.00 22.73 LIG-0.27  OA
BRANCH 34 36
ATOM     36  CA  TYR F   4      29.520 -23.042  30.333  1.00 23.00 LIG 0.18  C 
BRANCH 36 37
ATOM     37  N   TYR F   4      29.471 -23.401  28.905  1.00 26.39 LIG-0.35  N 
ATOM     38 H    TYR F   4      29.695 -22.769  28.368  1.00 26.39 LIG 0.16  HD
ATOM     39  C   GLY F   3      29.105 -24.609  28.518  1.00 29.77 LIG 0.25  C 
ATOM     40 O    GLY F   3      28.713 -25.451  29.316  1.00 31.07 LIG-0.27  OA
BRANCH 39 41
ATOM     41  CA  GLY F   3      29.141 -24.916  27.019  1.00 33.82 LIG 0.47  C 
ATOM     42  N   GLY F   3      28.033 -25.837  26.652  1.00 37.49 LIG 0.61  N 
ENDBRANCH 39 41
ENDBRANCH 36 37
BRANCH 36 43
ATOM     43  CB  TYR F   4      30.098 -21.667  30.489  1.00 21.26 LIG 0.07  C 
BRANCH 43 44
ATOM     44  CG  TYR F   4      31.319 -21.426  29.698  1.00 18.65 LIG-0.06  A 
ATOM     45  CD2 TYR F   4      31.657 -20.144  29.281  1.00 17.47 LIG 0.01  A 
ATOM     46  CE2 TYR F   4      32.806 -19.906  28.534  1.00 16.54 LIG 0.04  A 
ATOM     47  CZ  TYR F   4      33.634 -20.965  28.196  1.00 17.16 LIG 0.07  A 
ATOM     48  CE1 TYR F   4      33.317 -22.246  28.612  1.00 18.26 LIG 0.04  A 
ATOM     49  CD1 TYR F   4      32.154 -22.481  29.341  1.00 19.09 LIG 0.01  A 
BRANCH 47 50
ATOM     50 OH   TYR F   4      34.788 -20.781  27.411  1.00 17.27 LIG-0.36  OA
ATOM     51 HH   TYR F   4      34.584 -20.376  26.704  1.00 17.27 LIG 0.22  HD
ENDBRANCH 47 50
ENDBRANCH 43 44
ENDBRANCH 36 43
ENDBRANCH 34 36
ENDBRANCH 1 29
TORSDOF 17
ENDMDL
MODEL 11
USER: ADFR SOLUTION from run 1
USER: SCORE 15.614139 LL:  -3.557 LR: -12.696 RR:   0.000 FEB:  -7.625
USER: RMSD 5.296827
USER: SEED 846726
USER: STATUS no improvement in best in 5 clusters for 5 generations
USER: GENES 19
USER: genes 0 Translation |==|  0.43382 0.70642 0.49579
USER: genes 1 Rotation |==|  0.16121 0.31188 0.60700 0.79730
USER: genes 2 Torsion [C]-N--CA-[C] |==|  0.75875
USER: genes 3 Torsion [N]-CA--C-[N] |==|  0.50068
USER: genes 4 Torsion [C]-N--CA-[C] |==|  0.53992
USER: genes 5 Torsion [N]-CA--C-[N] |==|  0.47067
USER: genes 6 Torsion [C]-N--CA-[C] |==|  0.66587
USER: genes 7 Torsion [N]-CA--C-[O] |==|  0.14356
USER: genes 8 Torsion [N]-CA--CB-[CG1] |==|  0.54635
USER: genes 9 Torsion [N]-CA--CB-[CG] |==|  0.54822
USER: genes 10 Torsion [CA]-CB--CG-[CD] |==|  0.18703
USER: genes 11 Torsion [CB]-CG--CD-[NE2] |==|  0.02891
USER: genes 12 Torsion [O]-C--CA-[CB] |==|  0.83737
USER: genes 13 Torsion [N]-C--CA-[N] |==|  0.84454
USER: genes 14 Torsion [C]-CA--N-[C] |==|  0.80461
USER: genes 15 Torsion [N]-C--CA-[N] |==|  0.29749
USER: genes 16 Torsion [C]-CA--CB-[CG] |==|  0.20566
USER: genes 17 Torsion [CA]-CB--CG-[CD2] |==|  0.49870
USER: genes 18 Torsion [CE2]-CZ--OH-[HH] |==|  0.29172
ROOT
ATOM      1  C   PRO F   5      24.847 -22.754  30.339  1.00 22.19 LIG 0.24  C 
ATOM      2 O    PRO F   5      23.813 -22.280  30.791  1.00 23.65 LIG-0.27  OA
ATOM      3  N   GLY F   6      24.955 -24.013  29.934  1.00 19.88 LIG-0.35  N 
ATOM      4 H    GLY F   6      25.661 -24.334  29.561  1.00 19.88 LIG 0.16  HD
ENDROOT
BRANCH 3 5
ATOM      5  CA  GLY F   6      23.873 -24.983  30.086  1.00 18.82 LIG 0.23  C 
BRANCH 5 6
ATOM      6  C   GLY F   6      23.838 -25.710  31.406  1.00 19.38 LIG 0.24  C 
ATOM      7  N   GLN F   7      22.858 -26.590  31.535  1.00 19.21 LIG-0.35  N 
ATOM      8 H    GLN F   7      22.318 -26.806  30.902  1.00 19.21 LIG 0.16  HD
ATOM      9 O    GLY F   6      24.646 -25.469  32.334  1.00 20.81 LIG-0.27  OA
BRANCH 7 10
ATOM     10  CA  GLN F   7      22.620 -27.273  32.790  1.00 20.89 LIG 0.18  C 
BRANCH 10 11
ATOM     11  C   GLN F   7      21.693 -28.440  32.497  1.00 21.73 LIG 0.24  C 
ATOM     12  N   VAL F   8      21.528 -29.321  33.485  1.00 23.67 LIG-0.34  N 
ATOM     13 H    VAL F   8      21.904 -29.237  34.253  1.00 23.67 LIG 0.16  HD
ATOM     14 O    GLN F   7      21.143 -28.542  31.416  1.00 20.56 LIG-0.27  OA
BRANCH 12 15
ATOM     15  CA  VAL F   8      20.695 -30.516  33.369  1.00 26.59 LIG 0.19  C 
BRANCH 15 16
ATOM     16  C   VAL F   8      19.602 -30.459  34.420  1.00 31.87 LIG 0.20  C 
ATOM     17 O    VAL F   8      18.885 -29.463  34.533  1.00 34.57 LIG-0.65  OA
ATOM     18 OXT  VAL F   8      19.436 -31.383  35.214  1.00 35.27 LIG-0.65  OA
ENDBRANCH 15 16
BRANCH 15 19
ATOM     19  CB  VAL F   8      21.521 -31.807  33.621  1.00 27.17 LIG 0.01  C 
ATOM     20  CG1 VAL F   8      20.797 -33.058  33.114  1.00 30.44 LIG 0.01  C 
ATOM     21  CG2 VAL F   8      22.875 -31.730  32.969  1.00 24.96 LIG 0.01  C 
ENDBRANCH 15 19
ENDBRANCH 12 15
ENDBRANCH 10 11
BRANCH 10 22
ATOM     22  CB  GLN F   7      22.004 -26.300  33.795  1.00 21.57 LIG 0.04  C 
BRANCH 22 23
ATOM     23  CG  GLN F   7      22.078 -26.740  35.252  1.00 23.35 LIG 0.10  C 
BRANCH 23 24
ATOM     24  CD  GLN F   7      23.499 -26.763  35.775  1.00 24.40 LIG 0.21  C 
ATOM     25  NE2 GLN F   7      24.414 -26.211  34.999  1.00 26.54 LIG-0.37  N 
ATOM     26 22HE GLN F   7      25.238 -26.203  35.245  1.00 26.54 LIG 0.16  HD
ATOM     27 21HE GLN F   7      24.186 -25.859  34.248  1.00 26.54 LIG 0.16  HD
ATOM     28 OE1  GLN F   7      23.763 -27.279  36.857  1.00 22.98 LIG-0.27  OA
ENDBRANCH 23 24
ENDBRANCH 22 23
ENDBRANCH 10 22
ENDBRANCH 7 10
ENDBRANCH 5 6
ENDBRANCH 3 5
BRANCH 1 29
ATOM     29  CA  PRO F   5      26.068 -21.852  30.228  1.00 24.01 LIG 0.18  C 
ATOM     30  CB  PRO F   5      25.752 -20.645  29.347  1.00 26.63 LIG 0.04  C 
ATOM     31  CG  PRO F   5      26.387 -20.917  28.049  1.00 25.90 LIG 0.02  C 
ATOM     32  CD  PRO F   5      27.456 -21.954  28.227  1.00 24.07 LIG 0.13  C 
ATOM     33  N   PRO F   5      27.255 -22.450  29.598  1.00 22.96 LIG-0.34  N 
ATOM     34  C   TYR F   4      28.146 -23.166  30.328  1.00 22.64 LIG 0.24  C 
ATOM     35 O    TYR F   4      27.966 -23.474  31.494  1.00 22.73 LIG-0.27  OA
BRANCH 34 36
ATOM     36  CA  TYR F   4      29.442 -23.601  29.659  1.00 23.00 LIG 0.18  C 
BRANCH 36 37
ATOM     37  N   TYR F   4      29.105 -24.369  28.448  1.00 26.39 LIG-0.35  N 
ATOM     38 H    TYR F   4      29.284 -23.969  27.708  1.00 26.39 LIG 0.16  HD
ATOM     39  C   GLY F   3      28.571 -25.574  28.531  1.00 29.77 LIG 0.25  C 
ATOM     40 O    GLY F   3      28.257 -26.067  29.606  1.00 31.07 LIG-0.27  OA
BRANCH 39 41
ATOM     41  CA  GLY F   3      28.310 -26.326  27.224  1.00 33.82 LIG 0.47  C 
ATOM     42  N   GLY F   3      29.289 -27.432  27.059  1.00 37.49 LIG 0.61  N 
ENDBRANCH 39 41
ENDBRANCH 36 37
BRANCH 36 43
ATOM     43  CB  TYR F   4      30.250 -22.394  29.285  1.00 21.26 LIG 0.07  C 
BRANCH 43 44
ATOM     44  CG  TYR F   4      30.897 -21.717  30.423  1.00 18.65 LIG-0.06  A 
ATOM     45  CD2 TYR F   4      31.685 -20.589  30.228  1.00 17.47 LIG 0.01  A 
ATOM     46  CE2 TYR F   4      32.301 -19.944  31.295  1.00 16.54 LIG 0.04  A 
ATOM     47  CZ  TYR F   4      32.129 -20.431  32.581  1.00 17.16 LIG 0.07  A 
ATOM     48  CE1 TYR F   4      31.339 -21.546  32.794  1.00 18.26 LIG 0.04  A 
ATOM     49  CD1 TYR F   4      30.743 -22.202  31.719  1.00 19.09 LIG 0.01  A 
BRANCH 47 50
ATOM     50 OH   TYR F   4      32.761 -19.835  33.689  1.00 17.27 LIG-0.36  OA
ATOM     51 HH   TYR F   4      32.198 -19.393  34.128  1.00 17.27 LIG 0.22  HD
ENDBRANCH 47 50
ENDBRANCH 43 44
ENDBRANCH 36 43
ENDBRANCH 34 36
ENDBRANCH 1 29
TORSDOF 17
ENDMDL
MODEL 12
USER: ADFR SOLUTION from run 192
USER: SCORE 15.056401 LL:  -3.563 LR: -12.693 RR:   0.000 FEB:  -7.622
USER: RMSD 10.084801
USER: SEED 191
USER: STATUS no improvement in best in 24 clusters for 5 generations
USER: GENES 19
USER: genes 0 Translation |==|  0.56361 0.73389 0.42610
USER: genes 1 Rotation |==|  0.47811 0.72678 0.93076 0.61198
USER: genes 2 Torsion [C]-N--CA-[C] |==|  0.20846
USER: genes 3 Torsion [N]-CA--C-[N] |==|  0.78057
USER: genes 4 Torsion [C]-N--CA-[C] |==|  0.76443
USER: genes 5 Torsion [N]-CA--C-[N] |==|  0.52778
USER: genes 6 Torsion [C]-N--CA-[C] |==|  0.51429
USER: genes 7 Torsion [N]-CA--C-[O] |==|  0.01729
USER: genes 8 Torsion [N]-CA--CB-[CG1] |==|  0.73356
USER: genes 9 Torsion [N]-CA--CB-[CG] |==|  0.85737
USER: genes 10 Torsion [CA]-CB--CG-[CD] |==|  0.32486
USER: genes 11 Torsion [CB]-CG--CD-[NE2] |==|  0.64944
USER: genes 12 Torsion [O]-C--CA-[CB] |==|  0.93734
USER: genes 13 Torsion [N]-C--CA-[N] |==|  0.48782
USER: genes 14 Torsion [C]-CA--N-[C] |==|  0.75090
USER: genes 15 Torsion [N]-C--CA-[N] |==|  0.51882
USER: genes 16 Torsion [C]-CA--CB-[CG] |==|  0.42753
USER: genes 17 Torsion [CA]-CB--CG-[CD2] |==|  0.07040
USER: genes 18 Torsion [CE2]-CZ--OH-[HH] |==|  0.80816
ROOT
ATOM      1  C   PRO F   5      27.865 -22.218  29.189  1.00 22.19 LIG 0.24  C 
ATOM      2 O    PRO F   5      28.481 -21.165  29.281  1.00 23.65 LIG-0.27  OA
ATOM      3  N   GLY F   6      28.437 -23.410  29.311  1.00 19.88 LIG-0.35  N 
ATOM      4 H    GLY F   6      27.999 -24.150  29.305  1.00 19.88 LIG 0.16  HD
ENDROOT
BRANCH 3 5
ATOM      5  CA  GLY F   6      29.880 -23.576  29.467  1.00 18.82 LIG 0.23  C 
BRANCH 5 6
ATOM      6  C   GLY F   6      30.427 -23.231  30.828  1.00 19.38 LIG 0.24  C 
ATOM      7  N   GLN F   7      30.585 -21.937  31.056  1.00 19.21 LIG-0.35  N 
ATOM      8 H    GLN F   7      30.331 -21.318  30.517  1.00 19.21 LIG 0.16  HD
ATOM      9 O    GLY F   6      30.752 -24.103  31.669  1.00 20.81 LIG-0.27  OA
BRANCH 7 10
ATOM     10  CA  GLN F   7      31.216 -21.458  32.269  1.00 20.89 LIG 0.18  C 
BRANCH 10 11
ATOM     11  C   GLN F   7      30.141 -21.392  33.339  1.00 21.73 LIG 0.24  C 
ATOM     12  N   VAL F   8      30.479 -20.779  34.474  1.00 23.67 LIG-0.34  N 
ATOM     13 H    VAL F   8      31.251 -20.421  34.601  1.00 23.67 LIG 0.16  HD
ATOM     14 O    GLN F   7      29.041 -21.879  33.148  1.00 20.56 LIG-0.27  OA
BRANCH 12 15
ATOM     15  CA  VAL F   8      29.580 -20.648  35.620  1.00 26.59 LIG 0.19  C 
BRANCH 15 16
ATOM     16  C   VAL F   8      30.250 -19.789  36.676  1.00 31.87 LIG 0.20  C 
ATOM     17 O    VAL F   8      31.326 -19.232  36.449  1.00 34.57 LIG-0.65  OA
ATOM     18 OXT  VAL F   8      29.761 -19.666  37.798  1.00 35.27 LIG-0.65  OA
ENDBRANCH 15 16
BRANCH 15 19
ATOM     19  CB  VAL F   8      29.278 -22.030  36.262  1.00 27.17 LIG 0.01  C 
ATOM     20  CG1 VAL F   8      27.968 -22.627  35.741  1.00 30.44 LIG 0.01  C 
ATOM     21  CG2 VAL F   8      30.393 -23.008  36.011  1.00 24.96 LIG 0.01  C 
ENDBRANCH 15 19
ENDBRANCH 12 15
ENDBRANCH 10 11
BRANCH 10 22
ATOM     22  CB  GLN F   7      31.844 -20.088  32.014  1.00 21.57 LIG 0.04  C 
BRANCH 22 23
ATOM     23  CG  GLN F   7      32.759 -20.010  30.798  1.00 23.35 LIG 0.10  C 
BRANCH 23 24
ATOM     24  CD  GLN F   7      32.238 -19.053  29.747  1.00 24.40 LIG 0.21  C 
ATOM     25  NE2 GLN F   7      32.106 -19.542  28.528  1.00 26.54 LIG-0.37  N 
ATOM     26 22HE GLN F   7      31.821 -19.039  27.891  1.00 26.54 LIG 0.16  HD
ATOM     27 21HE GLN F   7      32.304 -20.364  28.370  1.00 26.54 LIG 0.16  HD
ATOM     28 OE1  GLN F   7      31.970 -17.889  30.033  1.00 22.98 LIG-0.27  OA
ENDBRANCH 23 24
ENDBRANCH 22 23
ENDBRANCH 10 22
ENDBRANCH 7 10
ENDBRANCH 5 6
ENDBRANCH 3 5
BRANCH 1 29
ATOM     29  CA  PRO F   5      26.367 -22.159  28.928  1.00 24.01 LIG 0.18  C 
ATOM     30  CB  PRO F   5      25.809 -20.808  29.372  1.00 26.63 LIG 0.04  C 
ATOM     31  CG  PRO F   5      25.127 -21.055  30.651  1.00 25.90 LIG 0.02  C 
ATOM     32  CD  PRO F   5      24.814 -22.517  30.772  1.00 24.07 LIG 0.13  C 
ATOM     33  N   PRO F   5      25.548 -23.139  29.658  1.00 22.96 LIG-0.34  N 
ATOM     34  C   TYR F   4      25.343 -24.384  29.164  1.00 22.64 LIG 0.24  C 
ATOM     35 O    TYR F   4      25.916 -24.818  28.177  1.00 22.73 LIG-0.27  OA
BRANCH 34 36
ATOM     36  CA  TYR F   4      24.341 -25.286  29.870  1.00 23.00 LIG 0.18  C 
BRANCH 36 37
ATOM     37  N   TYR F   4      24.214 -26.534  29.096  1.00 26.39 LIG-0.35  N 
ATOM     38 H    TYR F   4      24.759 -27.156  29.327  1.00 26.39 LIG 0.16  HD
ATOM     39  C   GLY F   3      23.320 -26.649  28.131  1.00 29.77 LIG 0.25  C 
ATOM     40 O    GLY F   3      22.622 -25.705  27.783  1.00 31.07 LIG-0.27  OA
BRANCH 39 41
ATOM     41  CA  GLY F   3      23.212 -28.000  27.420  1.00 33.82 LIG 0.47  C 
ATOM     42  N   GLY F   3      22.281 -27.904  26.265  1.00 37.49 LIG 0.61  N 
ENDBRANCH 39 41
ENDBRANCH 36 37
BRANCH 36 43
ATOM     43  CB  TYR F   4      24.829 -25.598  31.254  1.00 21.26 LIG 0.07  C 
BRANCH 43 44
ATOM     44  CG  TYR F   4      23.760 -25.918  32.218  1.00 18.65 LIG-0.06  A 
ATOM     45  CD2 TYR F   4      22.541 -26.428  31.787  1.00 17.47 LIG 0.01  A 
ATOM     46  CE2 TYR F   4      21.526 -26.733  32.688  1.00 16.54 LIG 0.04  A 
ATOM     47  CZ  TYR F   4      21.729 -26.526  34.043  1.00 17.16 LIG 0.07  A 
ATOM     48  CE1 TYR F   4      22.940 -26.029  34.489  1.00 18.26 LIG 0.04  A 
ATOM     49  CD1 TYR F   4      23.945 -25.705  33.581  1.00 19.09 LIG 0.01  A 
BRANCH 47 50
ATOM     50 OH   TYR F   4      20.719 -26.784  34.991  1.00 17.27 LIG-0.36  OA
ATOM     51 HH   TYR F   4      20.101 -26.222  34.902  1.00 17.27 LIG 0.22  HD
ENDBRANCH 47 50
ENDBRANCH 43 44
ENDBRANCH 36 43
ENDBRANCH 34 36
ENDBRANCH 1 29
TORSDOF 17
ENDMDL
MODEL 13
USER: ADFR SOLUTION from run 195
USER: SCORE 15.963339 LL:  -4.065 LR: -12.478 RR:   0.000 FEB:  -7.407
USER: RMSD 3.756049
USER: SEED 194
USER: STATUS no improvement in best in 1 clusters for 5 generations
USER: GENES 19
USER: genes 0 Translation |==|  0.54007 0.62949 0.66141
USER: genes 1 Rotation |==|  0.35201 0.48822 0.50567 0.97742
USER: genes 2 Torsion [C]-N--CA-[C] |==|  0.83889
USER: genes 3 Torsion [N]-CA--C-[N] |==|  0.50278
USER: genes 4 Torsion [C]-N--CA-[C] |==|  0.63360
USER: genes 5 Torsion [N]-CA--C-[N] |==|  0.46595
USER: genes 6 Torsion [C]-N--CA-[C] |==|  0.69267
USER: genes 7 Torsion [N]-CA--C-[O] |==|  0.68282
USER: genes 8 Torsion [N]-CA--CB-[CG1] |==|  0.77814
USER: genes 9 Torsion [N]-CA--CB-[CG] |==|  0.77343
USER: genes 10 Torsion [CA]-CB--CG-[CD] |==|  0.91497
USER: genes 11 Torsion [CB]-CG--CD-[NE2] |==|  0.33431
USER: genes 12 Torsion [O]-C--CA-[CB] |==|  0.91771
USER: genes 13 Torsion [N]-C--CA-[N] |==|  0.35383
USER: genes 14 Torsion [C]-CA--N-[C] |==|  0.83016
USER: genes 15 Torsion [N]-C--CA-[N] |==|  0.78901
USER: genes 16 Torsion [C]-CA--CB-[CG] |==|  0.12535
USER: genes 17 Torsion [CA]-CB--CG-[CD2] |==|  0.19678
USER: genes 18 Torsion [CE2]-CZ--OH-[HH] |==|  0.46306
ROOT
ATOM      1  C   PRO F   5      27.318 -24.254  33.071  1.00 22.19 LIG 0.24  C 
ATOM      2 O    PRO F   5      27.060 -24.292  34.267  1.00 23.65 LIG-0.27  OA
ATOM      3  N   GLY F   6      26.398 -24.390  32.123  1.00 19.88 LIG-0.35  N 
ATOM      4 H    GLY F   6      26.566 -24.305  31.284  1.00 19.88 LIG 0.16  HD
ENDROOT
BRANCH 3 5
ATOM      5  CA  GLY F   6      25.002 -24.701  32.421  1.00 18.82 LIG 0.23  C 
BRANCH 5 6
ATOM      6  C   GLY F   6      24.775 -25.977  33.191  1.00 19.38 LIG 0.24  C 
ATOM      7  N   GLN F   7      23.506 -26.262  33.439  1.00 19.21 LIG-0.35  N 
ATOM      8 H    GLN F   7      22.842 -25.813  33.130  1.00 19.21 LIG 0.16  HD
ATOM      9 O    GLY F   6      25.715 -26.694  33.607  1.00 20.81 LIG-0.27  OA
BRANCH 7 10
ATOM     10  CA  GLN F   7      23.137 -27.386  34.274  1.00 20.89 LIG 0.18  C 
BRANCH 10 11
ATOM     11  C   GLN F   7      22.060 -28.161  33.536  1.00 21.73 LIG 0.24  C 
ATOM     12  N   VAL F   8      21.767 -29.368  34.021  1.00 23.67 LIG-0.34  N 
ATOM     13 H    VAL F   8      22.145 -29.695  34.720  1.00 23.67 LIG 0.16  HD
ATOM     14 O    GLN F   7      21.510 -27.685  32.559  1.00 20.56 LIG-0.27  OA
BRANCH 12 15
ATOM     15  CA  VAL F   8      20.778 -30.261  33.420  1.00 26.59 LIG 0.19  C 
BRANCH 15 16
ATOM     16  C   VAL F   8      19.581 -30.365  34.347  1.00 31.87 LIG 0.20  C 
ATOM     17 O    VAL F   8      19.299 -31.431  34.899  1.00 34.57 LIG-0.65  OA
ATOM     18 OXT  VAL F   8      18.837 -29.404  34.533  1.00 35.27 LIG-0.65  OA
ENDBRANCH 15 16
BRANCH 15 19
ATOM     19  CB  VAL F   8      21.350 -31.693  33.231  1.00 27.17 LIG 0.01  C 
ATOM     20  CG1 VAL F   8      22.235 -31.795  31.986  1.00 30.44 LIG 0.01  C 
ATOM     21  CG2 VAL F   8      22.146 -32.129  34.432  1.00 24.96 LIG 0.01  C 
ENDBRANCH 15 19
ENDBRANCH 12 15
ENDBRANCH 10 11
BRANCH 10 22
ATOM     22  CB  GLN F   7      22.640 -26.879  35.628  1.00 21.57 LIG 0.04  C 
BRANCH 22 23
ATOM     23  CG  GLN F   7      23.733 -26.527  36.630  1.00 23.35 LIG 0.10  C 
BRANCH 23 24
ATOM     24  CD  GLN F   7      24.975 -27.375  36.448  1.00 24.40 LIG 0.21  C 
ATOM     25  NE2 GLN F   7      26.091 -26.725  36.181  1.00 26.54 LIG-0.37  N 
ATOM     26 22HE GLN F   7      26.824 -27.158  36.061  1.00 26.54 LIG 0.16  HD
ATOM     27 21HE GLN F   7      26.086 -25.866  36.126  1.00 26.54 LIG 0.16  HD
ATOM     28 OE1  GLN F   7      24.919 -28.599  36.540  1.00 22.98 LIG-0.27  OA
ENDBRANCH 23 24
ENDBRANCH 22 23
ENDBRANCH 10 22
ENDBRANCH 7 10
ENDBRANCH 5 6
ENDBRANCH 3 5
BRANCH 1 29
ATOM     29  CA  PRO F   5      28.763 -24.032  32.650  1.00 24.01 LIG 0.18  C 
ATOM     30  CB  PRO F   5      29.495 -23.201  33.701  1.00 26.63 LIG 0.04  C 
ATOM     31  CG  PRO F   5      29.591 -21.842  33.145  1.00 25.90 LIG 0.02  C 
ATOM     32  CD  PRO F   5      29.409 -21.902  31.658  1.00 24.07 LIG 0.13  C 
ATOM     33  N   PRO F   5      28.961 -23.280  31.401  1.00 22.96 LIG-0.34  N 
ATOM     34  C   TYR F   4      28.958 -23.908  30.200  1.00 22.64 LIG 0.24  C 
ATOM     35 O    TYR F   4      28.663 -25.084  30.058  1.00 22.73 LIG-0.27  OA
BRANCH 34 36
ATOM     36  CA  TYR F   4      29.349 -23.109  28.966  1.00 23.00 LIG 0.18  C 
BRANCH 36 37
ATOM     37  N   TYR F   4      30.411 -23.843  28.255  1.00 26.39 LIG-0.35  N 
ATOM     38 H    TYR F   4      30.207 -24.082  27.455  1.00 26.39 LIG 0.16  HD
ATOM     39  C   GLY F   3      31.570 -24.095  28.833  1.00 29.77 LIG 0.25  C 
ATOM     40 O    GLY F   3      31.783 -23.807  30.004  1.00 31.07 LIG-0.27  OA
BRANCH 39 41
ATOM     41  CA  GLY F   3      32.639 -24.807  28.002  1.00 33.82 LIG 0.47  C 
ATOM     42  N   GLY F   3      32.320 -26.254  27.878  1.00 37.49 LIG 0.61  N 
ENDBRANCH 39 41
ENDBRANCH 36 37
BRANCH 36 43
ATOM     43  CB  TYR F   4      28.158 -22.947  28.068  1.00 21.26 LIG 0.07  C 
BRANCH 43 44
ATOM     44  CG  TYR F   4      26.916 -22.567  28.767  1.00 18.65 LIG-0.06  A 
ATOM     45  CD2 TYR F   4      26.763 -21.295  29.305  1.00 17.47 LIG 0.01  A 
ATOM     46  CE2 TYR F   4      25.596 -20.926  29.967  1.00 16.54 LIG 0.04  A 
ATOM     47  CZ  TYR F   4      24.564 -21.842  30.095  1.00 17.16 LIG 0.07  A 
ATOM     48  CE1 TYR F   4      24.697 -23.109  29.557  1.00 18.26 LIG 0.04  A 
ATOM     49  CD1 TYR F   4      25.876 -23.480  28.914  1.00 19.09 LIG 0.01  A 
BRANCH 47 50
ATOM     50 OH   TYR F   4      23.379 -21.529  30.788  1.00 17.27 LIG-0.36  OA
ATOM     51 HH   TYR F   4      22.795 -22.110  30.621  1.00 17.27 LIG 0.22  HD
ENDBRANCH 47 50
ENDBRANCH 43 44
ENDBRANCH 36 43
ENDBRANCH 34 36
ENDBRANCH 1 29
TORSDOF 17
ENDMDL
MODEL 14
USER: ADFR SOLUTION from run 11
USER: SCORE 15.733548 LL:  -3.918 LR: -12.458 RR:   0.000 FEB:  -7.387
USER: RMSD 3.930757
USER: SEED 143636
USER: STATUS no improvement in best in 3 clusters for 5 generations
USER: GENES 19
USER: genes 0 Translation |==|  0.40442 0.41502 0.71719
USER: genes 1 Rotation |==|  0.40575 0.18007 0.72242 0.79882
USER: genes 2 Torsion [C]-N--CA-[C] |==|  0.20837
USER: genes 3 Torsion [N]-CA--C-[N] |==|  0.98491
USER: genes 4 Torsion [C]-N--CA-[C] |==|  0.60985
USER: genes 5 Torsion [N]-CA--C-[N] |==|  0.35677
USER: genes 6 Torsion [C]-N--CA-[C] |==|  0.58161
USER: genes 7 Torsion [N]-CA--C-[O] |==|  0.03388
USER: genes 8 Torsion [N]-CA--CB-[CG1] |==|  0.82841
USER: genes 9 Torsion [N]-CA--CB-[CG] |==|  0.06386
USER: genes 10 Torsion [CA]-CB--CG-[CD] |==|  0.41558
USER: genes 11 Torsion [CB]-CG--CD-[NE2] |==|  0.17361
USER: genes 12 Torsion [O]-C--CA-[CB] |==|  0.88453
USER: genes 13 Torsion [N]-C--CA-[N] |==|  0.50440
USER: genes 14 Torsion [C]-CA--N-[C] |==|  0.57426
USER: genes 15 Torsion [N]-C--CA-[N] |==|  0.37428
USER: genes 16 Torsion [C]-CA--CB-[CG] |==|  0.48971
USER: genes 17 Torsion [CA]-CB--CG-[CD2] |==|  0.31917
USER: genes 18 Torsion [CE2]-CZ--OH-[HH] |==|  0.64108
ROOT
ATOM      1  C   PRO F   5      24.164 -28.436  33.992  1.00 22.19 LIG 0.24  C 
ATOM      2 O    PRO F   5      23.504 -29.313  34.533  1.00 23.65 LIG-0.27  OA
ATOM      3  N   GLY F   6      25.000 -28.669  32.987  1.00 19.88 LIG-0.35  N 
ATOM      4 H    GLY F   6      25.420 -28.048  32.566  1.00 19.88 LIG 0.16  HD
ENDROOT
BRANCH 3 5
ATOM      5  CA  GLY F   6      25.287 -30.016  32.500  1.00 18.82 LIG 0.23  C 
BRANCH 5 6
ATOM      6  C   GLY F   6      24.197 -30.649  31.673  1.00 19.38 LIG 0.24  C 
ATOM      7  N   GLN F   7      23.078 -29.947  31.590  1.00 19.21 LIG-0.35  N 
ATOM      8 H    GLN F   7      22.981 -29.155  31.909  1.00 19.21 LIG 0.16  HD
ATOM      9 O    GLY F   6      24.320 -31.776  31.138  1.00 20.81 LIG-0.27  OA
BRANCH 7 10
ATOM     10  CA  GLN F   7      21.901 -30.482  30.937  1.00 20.89 LIG 0.18  C 
BRANCH 10 11
ATOM     11  C   GLN F   7      21.265 -29.344  30.157  1.00 21.73 LIG 0.24  C 
ATOM     12  N   VAL F   8      21.000 -29.589  28.873  1.00 23.67 LIG-0.34  N 
ATOM     13 H    VAL F   8      21.158 -30.347  28.499  1.00 23.67 LIG 0.16  HD
ATOM     14 O    GLN F   7      21.020 -28.280  30.695  1.00 20.56 LIG-0.27  OA
BRANCH 12 15
ATOM     15  CA  VAL F   8      20.415 -28.602  27.967  1.00 26.59 LIG 0.19  C 
BRANCH 15 16
ATOM     16  C   VAL F   8      19.607 -29.325  26.906  1.00 31.87 LIG 0.20  C 
ATOM     17 O    VAL F   8      19.336 -30.523  27.023  1.00 34.57 LIG-0.65  OA
ATOM     18 OXT  VAL F   8      19.243 -28.749  25.882  1.00 35.27 LIG-0.65  OA
ENDBRANCH 15 16
BRANCH 15 19
ATOM     19  CB  VAL F   8      21.516 -27.782  27.239  1.00 27.17 LIG 0.01  C 
ATOM     20  CG1 VAL F   8      22.379 -26.987  28.223  1.00 30.44 LIG 0.01  C 
ATOM     21  CG2 VAL F   8      22.408 -28.669  26.414  1.00 24.96 LIG 0.01  C 
ENDBRANCH 15 19
ENDBRANCH 12 15
ENDBRANCH 10 11
BRANCH 10 22
ATOM     22  CB  GLN F   7      20.945 -31.050  31.986  1.00 21.57 LIG 0.04  C 
BRANCH 22 23
ATOM     23  CG  GLN F   7      21.111 -30.482  33.390  1.00 23.35 LIG 0.10  C 
BRANCH 23 24
ATOM     24  CD  GLN F   7      19.809 -30.466  34.163  1.00 24.40 LIG 0.21  C 
ATOM     25  NE2 GLN F   7      19.255 -31.641  34.396  1.00 26.54 LIG-0.37  N 
ATOM     26 22HE GLN F   7      18.511 -31.689  34.824  1.00 26.54 LIG 0.16  HD
ATOM     27 21HE GLN F   7      19.638 -32.360  34.119  1.00 26.54 LIG 0.16  HD
ATOM     28 OE1  GLN F   7      19.311 -29.406  34.533  1.00 22.98 LIG-0.27  OA
ENDBRANCH 23 24
ENDBRANCH 22 23
ENDBRANCH 10 22
ENDBRANCH 7 10
ENDBRANCH 5 6
ENDBRANCH 3 5
BRANCH 1 29
ATOM     29  CA  PRO F   5      24.013 -27.007  34.490  1.00 24.01 LIG 0.18  C 
ATOM     30  CB  PRO F   5      22.543 -26.698  34.766  1.00 26.63 LIG 0.04  C 
ATOM     31  CG  PRO F   5      22.083 -25.880  33.634  1.00 25.90 LIG 0.02  C 
ATOM     32  CD  PRO F   5      23.270 -25.271  32.948  1.00 24.07 LIG 0.13  C 
ATOM     33  N   PRO F   5      24.427 -25.951  33.553  1.00 22.96 LIG-0.34  N 
ATOM     34  C   TYR F   4      25.717 -25.540  33.490  1.00 22.64 LIG 0.24  C 
ATOM     35 O    TYR F   4      26.628 -26.091  34.087  1.00 22.73 LIG-0.27  OA
BRANCH 34 36
ATOM     36  CA  TYR F   4      26.048 -24.324  32.636  1.00 23.00 LIG 0.18  C 
BRANCH 36 37
ATOM     37  N   TYR F   4      27.502 -24.097  32.695  1.00 26.39 LIG-0.35  N 
ATOM     38 H    TYR F   4      27.969 -24.802  32.851  1.00 26.39 LIG 0.16  HD
ATOM     39  C   GLY F   3      28.012 -22.892  32.516  1.00 29.77 LIG 0.25  C 
ATOM     40 O    GLY F   3      27.300 -21.905  32.381  1.00 31.07 LIG-0.27  OA
BRANCH 39 41
ATOM     41  CA  GLY F   3      29.536 -22.756  32.531  1.00 33.82 LIG 0.47  C 
ATOM     42  N   GLY F   3      29.991 -21.900  31.404  1.00 37.49 LIG 0.61  N 
ENDBRANCH 39 41
ENDBRANCH 36 37
BRANCH 36 43
ATOM     43  CB  TYR F   4      25.631 -24.574  31.217  1.00 21.26 LIG 0.07  C 
BRANCH 43 44
ATOM     44  CG  TYR F   4      25.826 -23.424  30.314  1.00 18.65 LIG-0.06  A 
ATOM     45  CD2 TYR F   4      26.734 -23.489  29.265  1.00 17.47 LIG 0.01  A 
ATOM     46  CE2 TYR F   4      26.927 -22.410  28.408  1.00 16.54 LIG 0.04  A 
ATOM     47  CZ  TYR F   4      26.201 -21.245  28.601  1.00 17.16 LIG 0.07  A 
ATOM     48  CE1 TYR F   4      25.285 -21.169  29.634  1.00 18.26 LIG 0.04  A 
ATOM     49  CD1 TYR F   4      25.113 -22.244  30.502  1.00 19.09 LIG 0.01  A 
BRANCH 47 50
ATOM     50 OH   TYR F   4      26.386 -20.114  27.783  1.00 17.27 LIG-0.36  OA
ATOM     51 HH   TYR F   4      26.506 -19.436  28.265  1.00 17.27 LIG 0.22  HD
ENDBRANCH 47 50
ENDBRANCH 43 44
ENDBRANCH 36 43
ENDBRANCH 34 36
ENDBRANCH 1 29
TORSDOF 17
ENDMDL
MODEL 15
USER: ADFR SOLUTION from run 151
USER: SCORE 14.867155 LL:  -4.048 LR: -12.446 RR:   0.000 FEB:  -7.375
USER: RMSD 4.948632
USER: SEED 150
USER: STATUS no improvement in best in 12 clusters for 5 generations
USER: GENES 19
USER: genes 0 Translation |==|  0.43229 0.62408 0.50858
USER: genes 1 Rotation |==|  0.83842 0.69762 0.68671 0.74810
USER: genes 2 Torsion [C]-N--CA-[C] |==|  0.36015
USER: genes 3 Torsion [N]-CA--C-[N] |==|  0.19614
USER: genes 4 Torsion [C]-N--CA-[C] |==|  0.15000
USER: genes 5 Torsion [N]-CA--C-[N] |==|  0.16605
USER: genes 6 Torsion [C]-N--CA-[C] |==|  0.69446
USER: genes 7 Torsion [N]-CA--C-[O] |==|  0.72528
USER: genes 8 Torsion [N]-CA--CB-[CG1] |==|  0.57913
USER: genes 9 Torsion [N]-CA--CB-[CG] |==|  0.49032
USER: genes 10 Torsion [CA]-CB--CG-[CD] |==|  0.24748
USER: genes 11 Torsion [CB]-CG--CD-[NE2] |==|  0.38683
USER: genes 12 Torsion [O]-C--CA-[CB] |==|  0.29255
USER: genes 13 Torsion [N]-C--CA-[N] |==|  0.40031
USER: genes 14 Torsion [C]-CA--N-[C] |==|  0.51387
USER: genes 15 Torsion [N]-C--CA-[N] |==|  0.55383
USER: genes 16 Torsion [C]-CA--CB-[CG] |==|  0.08972
USER: genes 17 Torsion [CA]-CB--CG-[CD2] |==|  0.21555
USER: genes 18 Torsion [CE2]-CZ--OH-[HH] |==|  0.72470
ROOT
ATOM      1  C   PRO F   5      24.812 -24.359  30.550  1.00 22.19 LIG 0.24  C 
ATOM      2 O    PRO F   5      25.486 -24.782  29.619  1.00 23.65 LIG-0.27  OA
ATOM      3  N   GLY F   6      23.763 -25.007  31.043  1.00 19.88 LIG-0.35  N 
ATOM      4 H    GLY F   6      23.324 -24.743  31.734  1.00 19.88 LIG 0.16  HD
ENDROOT
BRANCH 3 5
ATOM      5  CA  GLY F   6      23.253 -26.242  30.452  1.00 18.82 LIG 0.23  C 
BRANCH 5 6
ATOM      6  C   GLY F   6      23.043 -27.381  31.417  1.00 19.38 LIG 0.24  C 
ATOM      7  N   GLN F   7      22.033 -27.223  32.258  1.00 19.21 LIG-0.35  N 
ATOM      8 H    GLN F   7      21.477 -26.568  32.226  1.00 19.21 LIG 0.16  HD
ATOM      9 O    GLY F   6      23.795 -28.384  31.456  1.00 20.81 LIG-0.27  OA
BRANCH 7 10
ATOM     10  CA  GLN F   7      21.786 -28.172  33.324  1.00 20.89 LIG 0.18  C 
BRANCH 10 11
ATOM     11  C   GLN F   7      23.074 -28.302  34.117  1.00 21.73 LIG 0.24  C 
ATOM     12  N   VAL F   8      23.536 -27.182  34.674  1.00 23.67 LIG-0.34  N 
ATOM     13 H    VAL F   8      23.130 -26.427  34.613  1.00 23.67 LIG 0.16  HD
ATOM     14 O    GLN F   7      23.634 -29.378  34.223  1.00 20.56 LIG-0.27  OA
BRANCH 12 15
ATOM     15  CA  VAL F   8      24.775 -27.117  35.448  1.00 26.59 LIG 0.19  C 
BRANCH 15 16
ATOM     16  C   VAL F   8      24.432 -26.892  36.909  1.00 31.87 LIG 0.20  C 
ATOM     17 O    VAL F   8      24.488 -25.765  37.406  1.00 34.57 LIG-0.65  OA
ATOM     18 OXT  VAL F   8      24.138 -27.833  37.644  1.00 35.27 LIG-0.65  OA
ENDBRANCH 15 16
BRANCH 15 19
ATOM     19  CB  VAL F   8      25.666 -25.931  34.988  1.00 27.17 LIG 0.01  C 
ATOM     20  CG1 VAL F   8      27.154 -26.211  35.220  1.00 30.44 LIG 0.01  C 
ATOM     21  CG2 VAL F   8      25.452 -25.615  33.532  1.00 24.96 LIG 0.01  C 
ENDBRANCH 15 19
ENDBRANCH 12 15
ENDBRANCH 10 11
BRANCH 10 22
ATOM     22  CB  GLN F   7      21.352 -29.511  32.728  1.00 21.57 LIG 0.04  C 
BRANCH 22 23
ATOM     23  CG  GLN F   7      21.137 -30.631  33.739  1.00 23.35 LIG 0.10  C 
BRANCH 23 24
ATOM     24  CD  GLN F   7      19.720 -30.664  34.270  1.00 24.40 LIG 0.21  C 
ATOM     25  NE2 GLN F   7      19.180 -31.860  34.416  1.00 26.54 LIG-0.37  N 
ATOM     26 22HE GLN F   7      18.374 -31.936  34.707  1.00 26.54 LIG 0.16  HD
ATOM     27 21HE GLN F   7      19.634 -32.564  34.220  1.00 26.54 LIG 0.16  HD
ATOM     28 OE1  GLN F   7      19.122 -29.624  34.533  1.00 22.98 LIG-0.27  OA
ENDBRANCH 23 24
ENDBRANCH 22 23
ENDBRANCH 10 22
ENDBRANCH 7 10
ENDBRANCH 5 6
ENDBRANCH 3 5
BRANCH 1 29
ATOM     29  CA  PRO F   5      25.200 -23.028  31.176  1.00 24.01 LIG 0.18  C 
ATOM     30  CB  PRO F   5      24.224 -21.937  30.741  1.00 26.63 LIG 0.04  C 
ATOM     31  CG  PRO F   5      24.929 -21.153  29.715  1.00 25.90 LIG 0.02  C 
ATOM     32  CD  PRO F   5      26.405 -21.382  29.844  1.00 24.07 LIG 0.13  C 
ATOM     33  N   PRO F   5      26.519 -22.498  30.796  1.00 22.96 LIG-0.34  N 
ATOM     34  C   TYR F   4      27.639 -22.868  31.464  1.00 22.64 LIG 0.24  C 
ATOM     35 O    TYR F   4      27.656 -23.744  32.313  1.00 22.73 LIG-0.27  OA
BRANCH 34 36
ATOM     36  CA  TYR F   4      28.941 -22.149  31.144  1.00 23.00 LIG 0.18  C 
BRANCH 36 37
ATOM     37  N   TYR F   4      29.716 -22.015  32.390  1.00 26.39 LIG-0.35  N 
ATOM     38 H    TYR F   4      29.368 -22.406  33.072  1.00 26.39 LIG 0.16  HD
ATOM     39  C   GLY F   3      30.849 -21.339  32.419  1.00 29.77 LIG 0.25  C 
ATOM     40 O    GLY F   3      31.261 -20.728  31.441  1.00 31.07 LIG-0.27  OA
BRANCH 39 41
ATOM     41  CA  GLY F   3      31.621 -21.302  33.740  1.00 33.82 LIG 0.47  C 
ATOM     42  N   GLY F   3      32.580 -20.166  33.749  1.00 37.49 LIG 0.61  N 
ENDBRANCH 39 41
ENDBRANCH 36 37
BRANCH 36 43
ATOM     43  CB  TYR F   4      29.727 -22.944  30.144  1.00 21.26 LIG 0.07  C 
BRANCH 43 44
ATOM     44  CG  TYR F   4      28.901 -23.701  29.185  1.00 18.65 LIG-0.06  A 
ATOM     45  CD2 TYR F   4      28.293 -23.065  28.110  1.00 17.47 LIG 0.01  A 
ATOM     46  CE2 TYR F   4      27.511 -23.769  27.201  1.00 16.54 LIG 0.04  A 
ATOM     47  CZ  TYR F   4      27.333 -25.134  27.365  1.00 17.16 LIG 0.07  A 
ATOM     48  CE1 TYR F   4      27.940 -25.785  28.424  1.00 18.26 LIG 0.04  A 
ATOM     49  CD1 TYR F   4      28.703 -25.069  29.344  1.00 19.09 LIG 0.01  A 
BRANCH 47 50
ATOM     50 OH   TYR F   4      26.521 -25.885  26.493  1.00 17.27 LIG-0.36  OA
ATOM     51 HH   TYR F   4      25.766 -26.002  26.843  1.00 17.27 LIG 0.22  HD
ENDBRANCH 47 50
ENDBRANCH 43 44
ENDBRANCH 36 43
ENDBRANCH 34 36
ENDBRANCH 1 29
TORSDOF 17
ENDMDL
MODEL 16
USER: ADFR SOLUTION from run 141
USER: SCORE 14.344601 LL:  -3.069 LR: -12.255 RR:   0.000 FEB:  -7.184
USER: RMSD 5.519372
USER: SEED 140
USER: STATUS no improvement in best in 26 clusters for 5 generations
USER: GENES 19
USER: genes 0 Translation |==|  0.45047 0.63953 0.52913
USER: genes 1 Rotation |==|  0.85548 0.85074 0.50802 0.52348
USER: genes 2 Torsion [C]-N--CA-[C] |==|  0.80195
USER: genes 3 Torsion [N]-CA--C-[N] |==|  0.47762
USER: genes 4 Torsion [C]-N--CA-[C] |==|  0.72208
USER: genes 5 Torsion [N]-CA--C-[N] |==|  0.76556
USER: genes 6 Torsion [C]-N--CA-[C] |==|  0.62793
USER: genes 7 Torsion [N]-CA--C-[O] |==|  0.92546
USER: genes 8 Torsion [N]-CA--CB-[CG1] |==|  0.83565
USER: genes 9 Torsion [N]-CA--CB-[CG] |==|  0.78267
USER: genes 10 Torsion [CA]-CB--CG-[CD] |==|  0.54645
USER: genes 11 Torsion [CB]-CG--CD-[NE2] |==|  0.97020
USER: genes 12 Torsion [O]-C--CA-[CB] |==|  0.05101
USER: genes 13 Torsion [N]-C--CA-[N] |==|  0.47744
USER: genes 14 Torsion [C]-CA--N-[C] |==|  0.60260
USER: genes 15 Torsion [N]-C--CA-[N] |==|  0.50588
USER: genes 16 Torsion [C]-CA--CB-[CG] |==|  0.46383
USER: genes 17 Torsion [CA]-CB--CG-[CD2] |==|  0.89336
USER: genes 18 Torsion [CE2]-CZ--OH-[HH] |==|  0.74536
ROOT
ATOM      1  C   PRO F   5      25.234 -24.058  30.889  1.00 22.19 LIG 0.24  C 
ATOM      2 O    PRO F   5      24.615 -24.306  29.863  1.00 23.65 LIG-0.27  OA
ATOM      3  N   GLY F   6      25.577 -24.985  31.774  1.00 19.88 LIG-0.35  N 
ATOM      4 H    GLY F   6      26.063 -24.825  32.466  1.00 19.88 LIG 0.16  HD
ENDROOT
BRANCH 3 5
ATOM      5  CA  GLY F   6      25.156 -26.379  31.656  1.00 18.82 LIG 0.23  C 
BRANCH 5 6
ATOM      6  C   GLY F   6      23.694 -26.637  31.921  1.00 19.38 LIG 0.24  C 
ATOM      7  N   GLN F   7      23.285 -27.867  31.651  1.00 19.21 LIG-0.35  N 
ATOM      8 H    GLN F   7      23.807 -28.508  31.416  1.00 19.21 LIG 0.16  HD
ATOM      9 O    GLY F   6      22.911 -25.745  32.323  1.00 20.81 LIG-0.27  OA
BRANCH 7 10
ATOM     10  CA  GLN F   7      21.885 -28.229  31.735  1.00 20.89 LIG 0.18  C 
BRANCH 10 11
ATOM     11  C   GLN F   7      21.683 -28.937  33.063  1.00 21.73 LIG 0.24  C 
ATOM     12  N   VAL F   8      21.958 -30.242  33.080  1.00 23.67 LIG-0.34  N 
ATOM     13 H    VAL F   8      22.250 -30.668  32.392  1.00 23.67 LIG 0.16  HD
ATOM     14 O    GLN F   7      21.293 -28.327  34.041  1.00 20.56 LIG-0.27  OA
BRANCH 12 15
ATOM     15  CA  VAL F   8      21.795 -31.086  34.262  1.00 26.59 LIG 0.19  C 
BRANCH 15 16
ATOM     16  C   VAL F   8      23.031 -31.950  34.426  1.00 31.87 LIG 0.20  C 
ATOM     17 O    VAL F   8      23.721 -32.258  33.451  1.00 34.57 LIG-0.65  OA
ATOM     18 OXT  VAL F   8      23.348 -32.404  35.524  1.00 35.27 LIG-0.65  OA
ENDBRANCH 15 16
BRANCH 15 19
ATOM     19  CB  VAL F   8      20.574 -32.036  34.114  1.00 27.17 LIG 0.01  C 
ATOM     20  CG1 VAL F   8      19.270 -31.262  33.904  1.00 30.44 LIG 0.01  C 
ATOM     21  CG2 VAL F   8      20.761 -32.996  32.970  1.00 24.96 LIG 0.01  C 
ENDBRANCH 15 19
ENDBRANCH 12 15
ENDBRANCH 10 11
BRANCH 10 22
ATOM     22  CB  GLN F   7      21.516 -29.127  30.554  1.00 21.57 LIG 0.04  C 
BRANCH 22 23
ATOM     23  CG  GLN F   7      21.298 -28.402  29.232  1.00 23.35 LIG 0.10  C 
BRANCH 23 24
ATOM     24  CD  GLN F   7      20.557 -29.255  28.223  1.00 24.40 LIG 0.21  C 
ATOM     25  NE2 GLN F   7      20.410 -30.529  28.533  1.00 26.54 LIG-0.37  N 
ATOM     26 22HE GLN F   7      20.003 -31.059  27.992  1.00 26.54 LIG 0.16  HD
ATOM     27 21HE GLN F   7      20.721 -30.829  29.277  1.00 26.54 LIG 0.16  HD
ATOM     28 OE1  GLN F   7      20.135 -28.767  27.177  1.00 22.98 LIG-0.27  OA
ENDBRANCH 23 24
ENDBRANCH 22 23
ENDBRANCH 10 22
ENDBRANCH 7 10
ENDBRANCH 5 6
ENDBRANCH 3 5
BRANCH 1 29
ATOM     29  CA  PRO F   5      25.638 -22.616  31.158  1.00 24.01 LIG 0.18  C 
ATOM     30  CB  PRO F   5      24.801 -21.667  30.304  1.00 26.63 LIG 0.04  C 
ATOM     31  CG  PRO F   5      25.676 -21.239  29.202  1.00 25.90 LIG 0.02  C 
ATOM     32  CD  PRO F   5      27.107 -21.470  29.587  1.00 24.07 LIG 0.13  C 
ATOM     33  N   PRO F   5      27.027 -22.264  30.824  1.00 22.96 LIG-0.34  N 
ATOM     34  C   TYR F   4      28.031 -22.461  31.713  1.00 22.64 LIG 0.24  C 
ATOM     35 O    TYR F   4      27.885 -23.053  32.770  1.00 22.73 LIG-0.27  OA
BRANCH 34 36
ATOM     36  CA  TYR F   4      29.410 -21.909  31.380  1.00 23.00 LIG 0.18  C 
BRANCH 36 37
ATOM     37  N   TYR F   4      30.273 -22.071  32.563  1.00 26.39 LIG-0.35  N 
ATOM     38 H    TYR F   4      30.140 -22.794  33.008  1.00 26.39 LIG 0.16  HD
ATOM     39  C   GLY F   3      31.167 -21.154  32.884  1.00 29.77 LIG 0.25  C 
ATOM     40 O    GLY F   3      31.261 -20.101  32.268  1.00 31.07 LIG-0.27  OA
BRANCH 39 41
ATOM     41  CA  GLY F   3      32.065 -21.431  34.093  1.00 33.82 LIG 0.47  C 
ATOM     42  N   GLY F   3      32.972 -20.279  34.339  1.00 37.49 LIG 0.61  N 
ENDBRANCH 39 41
ENDBRANCH 36 37
BRANCH 36 43
ATOM     43  CB  TYR F   4      29.992 -22.666  30.223  1.00 21.26 LIG 0.07  C 
BRANCH 43 44
ATOM     44  CG  TYR F   4      31.180 -22.035  29.619  1.00 18.65 LIG-0.06  A 
ATOM     45  CD2 TYR F   4      31.261 -20.656  29.480  1.00 17.47 LIG 0.01  A 
ATOM     46  CE2 TYR F   4      32.377 -20.050  28.911  1.00 16.54 LIG 0.04  A 
ATOM     47  CZ  TYR F   4      33.432 -20.835  28.472  1.00 17.16 LIG 0.07  A 
ATOM     48  CE1 TYR F   4      33.371 -22.210  28.613  1.00 18.26 LIG 0.04  A 
ATOM     49  CD1 TYR F   4      32.242 -22.811  29.163  1.00 19.09 LIG 0.01  A 
BRANCH 47 50
ATOM     50 OH   TYR F   4      34.566 -20.273  27.856  1.00 17.27 LIG-0.36  OA
ATOM     51 HH   TYR F   4      34.453 -20.255  27.024  1.00 17.27 LIG 0.22  HD
ENDBRANCH 47 50
ENDBRANCH 43 44
ENDBRANCH 36 43
ENDBRANCH 34 36
ENDBRANCH 1 29
TORSDOF 17
ENDMDL
MODEL 17
USER: ADFR SOLUTION from run 13
USER: SCORE 15.082289 LL:  -3.729 LR: -12.167 RR:   0.000 FEB:  -7.096
USER: RMSD 5.255816
USER: SEED 694393
USER: STATUS no improvement in best in 12 clusters for 5 generations
USER: GENES 19
USER: genes 0 Translation |==|  0.42737 0.72690 0.49529
USER: genes 1 Rotation |==|  0.13647 0.29842 0.59767 0.76014
USER: genes 2 Torsion [C]-N--CA-[C] |==|  0.65657
USER: genes 3 Torsion [N]-CA--C-[N] |==|  0.46204
USER: genes 4 Torsion [C]-N--CA-[C] |==|  0.56545
USER: genes 5 Torsion [N]-CA--C-[N] |==|  0.51246
USER: genes 6 Torsion [C]-N--CA-[C] |==|  0.67710
USER: genes 7 Torsion [N]-CA--C-[O] |==|  0.12688
USER: genes 8 Torsion [N]-CA--CB-[CG1] |==|  0.80985
USER: genes 9 Torsion [N]-CA--CB-[CG] |==|  0.25958
USER: genes 10 Torsion [CA]-CB--CG-[CD] |==|  0.75113
USER: genes 11 Torsion [CB]-CG--CD-[NE2] |==|  0.99900
USER: genes 12 Torsion [O]-C--CA-[CB] |==|  0.77225
USER: genes 13 Torsion [N]-C--CA-[N] |==|  0.42835
USER: genes 14 Torsion [C]-CA--N-[C] |==|  0.71379
USER: genes 15 Torsion [N]-C--CA-[N] |==|  0.38541
USER: genes 16 Torsion [C]-CA--CB-[CG] |==|  0.79200
USER: genes 17 Torsion [CA]-CB--CG-[CD2] |==|  0.20143
USER: genes 18 Torsion [CE2]-CZ--OH-[HH] |==|  0.40451
ROOT
ATOM      1  C   PRO F   5      24.697 -22.355  30.330  1.00 22.19 LIG 0.24  C 
ATOM      2 O    PRO F   5      23.612 -21.843  30.573  1.00 23.65 LIG-0.27  OA
ATOM      3  N   GLY F   6      24.858 -23.654  30.116  1.00 19.88 LIG-0.35  N 
ATOM      4 H    GLY F   6      25.608 -24.009  29.887  1.00 19.88 LIG 0.16  HD
ENDROOT
BRANCH 3 5
ATOM      5  CA  GLY F   6      23.765 -24.615  30.251  1.00 18.82 LIG 0.23  C 
BRANCH 5 6
ATOM      6  C   GLY F   6      24.016 -25.746  31.215  1.00 19.38 LIG 0.24  C 
ATOM      7  N   GLN F   7      22.942 -26.444  31.549  1.00 19.21 LIG-0.35  N 
ATOM      8 H    GLN F   7      22.165 -26.332  31.199  1.00 19.21 LIG 0.16  HD
ATOM      9 O    GLY F   6      25.146 -25.984  31.702  1.00 20.81 LIG-0.27  OA
BRANCH 7 10
ATOM     10  CA  GLN F   7      23.003 -27.480  32.560  1.00 20.89 LIG 0.18  C 
BRANCH 10 11
ATOM     11  C   GLN F   7      21.853 -28.436  32.294  1.00 21.73 LIG 0.24  C 
ATOM     12  N   VAL F   8      21.685 -29.415  33.184  1.00 23.67 LIG-0.34  N 
ATOM     13 H    VAL F   8      22.180 -29.503  33.881  1.00 23.67 LIG 0.16  HD
ATOM     14 O    GLN F   7      21.139 -28.294  31.318  1.00 20.56 LIG-0.27  OA
BRANCH 12 15
ATOM     15  CA  VAL F   8      20.648 -30.439  33.071  1.00 26.59 LIG 0.19  C 
BRANCH 15 16
ATOM     16  C   VAL F   8      19.692 -30.303  34.241  1.00 31.87 LIG 0.20  C 
ATOM     17 O    VAL F   8      19.261 -29.199  34.581  1.00 34.57 LIG-0.65  OA
ATOM     18 OXT  VAL F   8      19.362 -31.282  34.908  1.00 35.27 LIG-0.65  OA
ENDBRANCH 15 16
BRANCH 15 19
ATOM     19  CB  VAL F   8      21.256 -31.867  33.125  1.00 27.17 LIG 0.01  C 
ATOM     20  CG1 VAL F   8      22.093 -32.180  31.882  1.00 30.44 LIG 0.01  C 
ATOM     21  CG2 VAL F   8      22.113 -32.053  34.348  1.00 24.96 LIG 0.01  C 
ENDBRANCH 15 19
ENDBRANCH 12 15
ENDBRANCH 10 11
BRANCH 10 22
ATOM     22  CB  GLN F   7      22.902 -26.849  33.949  1.00 21.57 LIG 0.04  C 
BRANCH 22 23
ATOM     23  CG  GLN F   7      21.495 -26.779  34.529  1.00 23.35 LIG 0.10  C 
BRANCH 23 24
ATOM     24  CD  GLN F   7      20.781 -25.498  34.154  1.00 24.40 LIG 0.21  C 
ATOM     25  NE2 GLN F   7      21.461 -24.648  33.408  1.00 26.54 LIG-0.37  N 
ATOM     26 22HE GLN F   7      21.105 -23.901  33.172  1.00 26.54 LIG 0.16  HD
ATOM     27 21HE GLN F   7      22.261 -24.840  33.157  1.00 26.54 LIG 0.16  HD
ATOM     28 OE1  GLN F   7      19.636 -25.279  34.542  1.00 22.98 LIG-0.27  OA
ENDBRANCH 23 24
ENDBRANCH 22 23
ENDBRANCH 10 22
ENDBRANCH 7 10
ENDBRANCH 5 6
ENDBRANCH 3 5
BRANCH 1 29
ATOM     29  CA  PRO F   5      25.922 -21.454  30.263  1.00 24.01 LIG 0.18  C 
ATOM     30  CB  PRO F   5      26.011 -20.789  28.891  1.00 26.63 LIG 0.04  C 
ATOM     31  CG  PRO F   5      27.058 -21.518  28.158  1.00 25.90 LIG 0.02  C 
ATOM     32  CD  PRO F   5      27.932 -22.245  29.136  1.00 24.07 LIG 0.13  C 
ATOM     33  N   PRO F   5      27.223 -22.123  30.419  1.00 22.96 LIG-0.34  N 
ATOM     34  C   TYR F   4      27.750 -22.347  31.648  1.00 22.64 LIG 0.24  C 
ATOM     35 O    TYR F   4      27.143 -22.141  32.687  1.00 22.73 LIG-0.27  OA
BRANCH 34 36
ATOM     36  CA  TYR F   4      29.174 -22.874  31.738  1.00 23.00 LIG 0.18  C 
BRANCH 36 37
ATOM     37  N   TYR F   4      29.740 -22.465  33.035  1.00 26.39 LIG-0.35  N 
ATOM     38 H    TYR F   4      29.469 -22.928  33.707  1.00 26.39 LIG 0.16  HD
ATOM     39  C   GLY F   3      30.594 -21.462  33.120  1.00 29.77 LIG 0.25  C 
ATOM     40 O    GLY F   3      30.886 -20.779  32.147  1.00 31.07 LIG-0.27  OA
BRANCH 39 41
ATOM     41  CA  GLY F   3      31.181 -21.144  34.498  1.00 33.82 LIG 0.47  C 
ATOM     42  N   GLY F   3      32.629 -20.830  34.384  1.00 37.49 LIG 0.61  N 
ENDBRANCH 39 41
ENDBRANCH 36 37
BRANCH 36 43
ATOM     43  CB  TYR F   4      29.167 -24.371  31.639  1.00 21.26 LIG 0.07  C 
BRANCH 43 44
ATOM     44  CG  TYR F   4      28.703 -25.060  32.857  1.00 18.65 LIG-0.06  A 
ATOM     45  CD2 TYR F   4      27.361 -25.045  33.216  1.00 17.47 LIG 0.01  A 
ATOM     46  CE2 TYR F   4      26.912 -25.690  34.363  1.00 16.54 LIG 0.04  A 
ATOM     47  CZ  TYR F   4      27.818 -26.363  35.168  1.00 17.16 LIG 0.07  A 
ATOM     48  CE1 TYR F   4      29.155 -26.396  34.820  1.00 18.26 LIG 0.04  A 
ATOM     49  CD1 TYR F   4      29.602 -25.729  33.681  1.00 19.09 LIG 0.01  A 
BRANCH 47 50
ATOM     50 OH   TYR F   4      27.419 -27.001  36.359  1.00 17.27 LIG-0.36  OA
ATOM     51 HH   TYR F   4      27.878 -27.695  36.473  1.00 17.27 LIG 0.22  HD
ENDBRANCH 47 50
ENDBRANCH 43 44
ENDBRANCH 36 43
ENDBRANCH 34 36
ENDBRANCH 1 29
TORSDOF 17
ENDMDL
MODEL 18
USER: ADFR SOLUTION from run 36
USER: SCORE 15.266819 LL:  -3.969 LR: -12.148 RR:   0.000 FEB:  -7.076
USER: RMSD 4.336842
USER: SEED 35
USER: STATUS no improvement in best in 9 clusters for 5 generations
USER: GENES 19
USER: genes 0 Translation |==|  0.44568 0.54260 0.43507
USER: genes 1 Rotation |==|  0.20594 0.41449 0.39140 0.88003
USER: genes 2 Torsion [C]-N--CA-[C] |==|  0.71302
USER: genes 3 Torsion [N]-CA--C-[N] |==|  0.06100
USER: genes 4 Torsion [C]-N--CA-[C] |==|  0.65215
USER: genes 5 Torsion [N]-CA--C-[N] |==|  0.62676
USER: genes 6 Torsion [C]-N--CA-[C] |==|  0.53181
USER: genes 7 Torsion [N]-CA--C-[O] |==|  0.43099
USER: genes 8 Torsion [N]-CA--CB-[CG1] |==|  0.31752
USER: genes 9 Torsion [N]-CA--CB-[CG] |==|  0.60540
USER: genes 10 Torsion [CA]-CB--CG-[CD] |==|  0.59995
USER: genes 11 Torsion [CB]-CG--CD-[NE2] |==|  0.38509
USER: genes 12 Torsion [O]-C--CA-[CB] |==|  0.20144
USER: genes 13 Torsion [N]-C--CA-[N] |==|  0.37624
USER: genes 14 Torsion [C]-CA--N-[C] |==|  0.80556
USER: genes 15 Torsion [N]-C--CA-[N] |==|  0.61576
USER: genes 16 Torsion [C]-CA--CB-[CG] |==|  0.10234
USER: genes 17 Torsion [CA]-CB--CG-[CD2] |==|  0.68201
USER: genes 18 Torsion [CE2]-CZ--OH-[HH] |==|  0.25437
ROOT
ATOM      1  C   PRO F   5      25.123 -25.948  29.337  1.00 22.19 LIG 0.24  C 
ATOM      2 O    PRO F   5      24.563 -25.126  30.050  1.00 23.65 LIG-0.27  OA
ATOM      3  N   GLY F   6      24.543 -26.517  28.287  1.00 19.88 LIG-0.35  N 
ATOM      4 H    GLY F   6      24.952 -27.049  27.749  1.00 19.88 LIG 0.16  HD
ENDROOT
BRANCH 3 5
ATOM      5  CA  GLY F   6      23.142 -26.288  27.943  1.00 18.82 LIG 0.23  C 
BRANCH 5 6
ATOM      6  C   GLY F   6      22.199 -27.409  28.298  1.00 19.38 LIG 0.24  C 
ATOM      7  N   GLN F   7      22.631 -28.225  29.246  1.00 19.21 LIG-0.35  N 
ATOM      8 H    GLN F   7      23.354 -28.103  29.694  1.00 19.21 LIG 0.16  HD
ATOM      9 O    GLY F   6      21.106 -27.587  27.710  1.00 20.81 LIG-0.27  OA
BRANCH 7 10
ATOM     10  CA  GLN F   7      21.894 -29.419  29.605  1.00 20.89 LIG 0.18  C 
BRANCH 10 11
ATOM     11  C   GLN F   7      21.637 -29.356  31.100  1.00 21.73 LIG 0.24  C 
ATOM     12  N   VAL F   8      21.872 -30.476  31.784  1.00 23.67 LIG-0.34  N 
ATOM     13 H    VAL F   8      22.168 -31.195  31.417  1.00 23.67 LIG 0.16  HD
ATOM     14 O    GLN F   7      21.241 -28.329  31.621  1.00 20.56 LIG-0.27  OA
BRANCH 12 15
ATOM     15  CA  VAL F   8      21.654 -30.604  33.224  1.00 26.59 LIG 0.19  C 
BRANCH 15 16
ATOM     16  C   VAL F   8      22.284 -31.897  33.705  1.00 31.87 LIG 0.20  C 
ATOM     17 O    VAL F   8      22.639 -32.029  34.879  1.00 34.57 LIG-0.65  OA
ATOM     18 OXT  VAL F   8      22.499 -32.826  32.929  1.00 35.27 LIG-0.65  OA
ENDBRANCH 15 16
BRANCH 15 19
ATOM     19  CB  VAL F   8      20.139 -30.666  33.562  1.00 27.17 LIG 0.01  C 
ATOM     20  CG1 VAL F   8      19.739 -32.024  34.145  1.00 30.44 LIG 0.01  C 
ATOM     21  CG2 VAL F   8      19.748 -29.584  34.533  1.00 24.96 LIG 0.01  C 
ENDBRANCH 15 19
ENDBRANCH 12 15
ENDBRANCH 10 11
BRANCH 10 22
ATOM     22  CB  GLN F   7      22.704 -30.658  29.223  1.00 21.57 LIG 0.04  C 
BRANCH 22 23
ATOM     23  CG  GLN F   7      21.888 -31.824  28.679  1.00 23.35 LIG 0.10  C 
BRANCH 23 24
ATOM     24  CD  GLN F   7      22.440 -33.165  29.115  1.00 24.40 LIG 0.21  C 
ATOM     25  NE2 GLN F   7      21.551 -34.073  29.472  1.00 26.54 LIG-0.37  N 
ATOM     26 22HE GLN F   7      21.811 -34.850  29.734  1.00 26.54 LIG 0.16  HD
ATOM     27 21HE GLN F   7      20.711 -33.888  29.442  1.00 26.54 LIG 0.16  HD
ATOM     28 OE1  GLN F   7      23.651 -33.370  29.135  1.00 22.98 LIG-0.27  OA
ENDBRANCH 23 24
ENDBRANCH 22 23
ENDBRANCH 10 22
ENDBRANCH 7 10
ENDBRANCH 5 6
ENDBRANCH 3 5
BRANCH 1 29
ATOM     29  CA  PRO F   5      26.558 -26.332  29.666  1.00 24.01 LIG 0.18  C 
ATOM     30  CB  PRO F   5      26.595 -27.202  30.921  1.00 26.63 LIG 0.04  C 
ATOM     31  CG  PRO F   5      27.050 -26.323  32.008  1.00 25.90 LIG 0.02  C 
ATOM     32  CD  PRO F   5      27.747 -25.131  31.422  1.00 24.07 LIG 0.13  C 
ATOM     33  N   PRO F   5      27.466 -25.218  29.980  1.00 22.96 LIG-0.34  N 
ATOM     34  C   TYR F   4      28.122 -24.554  28.996  1.00 22.64 LIG 0.24  C 
ATOM     35 O    TYR F   4      27.910 -24.733  27.808  1.00 22.73 LIG-0.27  OA
BRANCH 34 36
ATOM     36  CA  TYR F   4      29.183 -23.538  29.394  1.00 23.00 LIG 0.18  C 
BRANCH 36 37
ATOM     37  N   TYR F   4      30.362 -23.736  28.533  1.00 26.39 LIG-0.35  N 
ATOM     38 H    TYR F   4      30.499 -23.108  27.963  1.00 26.39 LIG 0.16  HD
ATOM     39  C   GLY F   3      31.123 -24.808  28.657  1.00 29.77 LIG 0.25  C 
ATOM     40 O    GLY F   3      30.838 -25.716  29.426  1.00 31.07 LIG-0.27  OA
BRANCH 39 41
ATOM     41  CA  GLY F   3      32.363 -24.904  27.765  1.00 33.82 LIG 0.47  C 
ATOM     42  N   GLY F   3      32.518 -26.287  27.241  1.00 37.49 LIG 0.61  N 
ENDBRANCH 39 41
ENDBRANCH 36 37
BRANCH 36 43
ATOM     43  CB  TYR F   4      28.648 -22.149  29.207  1.00 21.26 LIG 0.07  C 
BRANCH 43 44
ATOM     44  CG  TYR F   4      27.220 -21.996  29.541  1.00 18.65 LIG-0.06  A 
ATOM     45  CD2 TYR F   4      26.289 -21.683  28.559  1.00 17.47 LIG 0.01  A 
ATOM     46  CE2 TYR F   4      24.939 -21.535  28.863  1.00 16.54 LIG 0.04  A 
ATOM     47  CZ  TYR F   4      24.510 -21.703  30.171  1.00 17.16 LIG 0.07  A 
ATOM     48  CE1 TYR F   4      25.423 -22.025  31.158  1.00 18.26 LIG 0.04  A 
ATOM     49  CD1 TYR F   4      26.776 -22.150  30.851  1.00 19.09 LIG 0.01  A 
BRANCH 47 50
ATOM     50 OH   TYR F   4      23.161 -21.529  30.535  1.00 17.27 LIG-0.36  OA
ATOM     51 HH   TYR F   4      22.760 -22.265  30.485  1.00 17.27 LIG 0.22  HD
ENDBRANCH 47 50
ENDBRANCH 43 44
ENDBRANCH 36 43
ENDBRANCH 34 36
ENDBRANCH 1 29
TORSDOF 17
ENDMDL
MODEL 19
USER: ADFR SOLUTION from run 143
USER: SCORE 14.735698 LL:  -3.139 LR: -12.130 RR:   0.000 FEB:  -7.059
USER: RMSD 5.383285
USER: SEED 142
USER: STATUS no improvement in best in 12 clusters for 5 generations
USER: GENES 19
USER: genes 0 Translation |==|  0.45279 0.64543 0.51817
USER: genes 1 Rotation |==|  0.78291 0.69964 0.65987 0.82334
USER: genes 2 Torsion [C]-N--CA-[C] |==|  0.32169
USER: genes 3 Torsion [N]-CA--C-[N] |==|  0.51578
USER: genes 4 Torsion [C]-N--CA-[C] |==|  0.64587
USER: genes 5 Torsion [N]-CA--C-[N] |==|  0.42069
USER: genes 6 Torsion [C]-N--CA-[C] |==|  0.60786
USER: genes 7 Torsion [N]-CA--C-[O] |==|  0.48968
USER: genes 8 Torsion [N]-CA--CB-[CG1] |==|  0.68001
USER: genes 9 Torsion [N]-CA--CB-[CG] |==|  0.36212
USER: genes 10 Torsion [CA]-CB--CG-[CD] |==|  0.41887
USER: genes 11 Torsion [CB]-CG--CD-[NE2] |==|  0.50677
USER: genes 12 Torsion [O]-C--CA-[CB] |==|  0.27912
USER: genes 13 Torsion [N]-C--CA-[N] |==|  0.47776
USER: genes 14 Torsion [C]-CA--N-[C] |==|  0.60083
USER: genes 15 Torsion [N]-C--CA-[N] |==|  0.49598
USER: genes 16 Torsion [C]-CA--CB-[CG] |==|  0.44933
USER: genes 17 Torsion [CA]-CB--CG-[CD2] |==|  0.91112
USER: genes 18 Torsion [CE2]-CZ--OH-[HH] |==|  0.81043
ROOT
ATOM      1  C   PRO F   5      25.288 -23.943  30.708  1.00 22.19 LIG 0.24  C 
ATOM      2 O    PRO F   5      26.018 -24.703  30.084  1.00 23.65 LIG-0.27  OA
ATOM      3  N   GLY F   6      24.136 -24.320  31.248  1.00 19.88 LIG-0.35  N 
ATOM      4 H    GLY F   6      23.650 -23.806  31.737  1.00 19.88 LIG 0.16  HD
ENDROOT
BRANCH 3 5
ATOM      5  CA  GLY F   6      23.581 -25.658  31.061  1.00 18.82 LIG 0.23  C 
BRANCH 5 6
ATOM      6  C   GLY F   6      23.464 -26.490  32.313  1.00 19.38 LIG 0.24  C 
ATOM      7  N   GLN F   7      23.072 -27.740  32.120  1.00 19.21 LIG-0.35  N 
ATOM      8 H    GLN F   7      22.960 -28.096  31.346  1.00 19.21 LIG 0.16  HD
ATOM      9 O    GLY F   6      23.678 -26.026  33.457  1.00 20.81 LIG-0.27  OA
BRANCH 7 10
ATOM     10  CA  GLN F   7      22.793 -28.621  33.235  1.00 20.89 LIG 0.18  C 
BRANCH 10 11
ATOM     11  C   GLN F   7      23.602 -29.888  33.018  1.00 21.73 LIG 0.24  C 
ATOM     12  N   VAL F   8      23.966 -30.548  34.118  1.00 23.67 LIG-0.34  N 
ATOM     13 H    VAL F   8      23.749 -30.293  34.910  1.00 23.67 LIG 0.16  HD
ATOM     14 O    GLN F   7      23.888 -30.260  31.894  1.00 20.56 LIG-0.27  OA
BRANCH 12 15
ATOM     15  CA  VAL F   8      24.769 -31.769  34.098  1.00 26.59 LIG 0.19  C 
BRANCH 15 16
ATOM     16  C   VAL F   8      24.249 -32.719  35.161  1.00 31.87 LIG 0.20  C 
ATOM     17 O    VAL F   8      24.727 -33.848  35.289  1.00 34.57 LIG-0.65  OA
ATOM     18 OXT  VAL F   8      23.307 -32.404  35.887  1.00 35.27 LIG-0.65  OA
ENDBRANCH 15 16
BRANCH 15 19
ATOM     19  CB  VAL F   8      26.259 -31.471  34.425  1.00 27.17 LIG 0.01  C 
ATOM     20  CG1 VAL F   8      27.176 -31.772  33.236  1.00 30.44 LIG 0.01  C 
ATOM     21  CG2 VAL F   8      26.454 -30.038  34.841  1.00 24.96 LIG 0.01  C 
ENDBRANCH 15 19
ENDBRANCH 12 15
ENDBRANCH 10 11
BRANCH 10 22
ATOM     22  CB  GLN F   7      21.294 -28.912  33.297  1.00 21.57 LIG 0.04  C 
BRANCH 22 23
ATOM     23  CG  GLN F   7      20.924 -30.386  33.415  1.00 23.35 LIG 0.10  C 
BRANCH 23 24
ATOM     24  CD  GLN F   7      19.617 -30.594  34.152  1.00 24.40 LIG 0.21  C 
ATOM     25  NE2 GLN F   7      19.248 -31.847  34.341  1.00 26.54 LIG-0.37  N 
ATOM     26 22HE GLN F   7      18.511 -32.022  34.748  1.00 26.54 LIG 0.16  HD
ATOM     27 21HE GLN F   7      19.746 -32.489  34.058  1.00 26.54 LIG 0.16  HD
ATOM     28 OE1  GLN F   7      18.950 -29.635  34.533  1.00 22.98 LIG-0.27  OA
ENDBRANCH 23 24
ENDBRANCH 22 23
ENDBRANCH 10 22
ENDBRANCH 7 10
ENDBRANCH 5 6
ENDBRANCH 3 5
BRANCH 1 29
ATOM     29  CA  PRO F   5      25.728 -22.497  30.879  1.00 24.01 LIG 0.18  C 
ATOM     30  CB  PRO F   5      24.998 -21.603  29.878  1.00 26.63 LIG 0.04  C 
ATOM     31  CG  PRO F   5      25.972 -21.308  28.817  1.00 25.90 LIG 0.02  C 
ATOM     32  CD  PRO F   5      27.359 -21.549  29.335  1.00 24.07 LIG 0.13  C 
ATOM     33  N   PRO F   5      27.152 -22.223  30.627  1.00 22.96 LIG-0.34  N 
ATOM     34  C   TYR F   4      28.075 -22.370  31.608  1.00 22.64 LIG 0.24  C 
ATOM     35 O    TYR F   4      27.825 -22.856  32.699  1.00 22.73 LIG-0.27  OA
BRANCH 34 36
ATOM     36  CA  TYR F   4      29.497 -21.897  31.339  1.00 23.00 LIG 0.18  C 
BRANCH 36 37
ATOM     37  N   TYR F   4      30.259 -21.979  32.597  1.00 26.39 LIG-0.35  N 
ATOM     38 H    TYR F   4      30.058 -22.650  33.096  1.00 26.39 LIG 0.16  HD
ATOM     39  C   GLY F   3      31.172 -21.075  32.901  1.00 29.77 LIG 0.25  C 
ATOM     40 O    GLY F   3      31.364 -20.091  32.198  1.00 31.07 LIG-0.27  OA
BRANCH 39 41
ATOM     41  CA  GLY F   3      31.961 -21.271  34.198  1.00 33.82 LIG 0.47  C 
ATOM     42  N   GLY F   3      32.963 -20.185  34.363  1.00 37.49 LIG 0.61  N 
ENDBRANCH 39 41
ENDBRANCH 36 37
BRANCH 36 43
ATOM     43  CB  TYR F   4      30.135 -22.775  30.303  1.00 21.26 LIG 0.07  C 
BRANCH 43 44
ATOM     44  CG  TYR F   4      31.323 -22.188  29.656  1.00 18.65 LIG-0.06  A 
ATOM     45  CD2 TYR F   4      31.425 -20.816  29.465  1.00 17.47 LIG 0.01  A 
ATOM     46  CE2 TYR F   4      32.541 -20.252  28.855  1.00 16.54 LIG 0.04  A 
ATOM     47  CZ  TYR F   4      33.574 -21.071  28.427  1.00 17.16 LIG 0.07  A 
ATOM     48  CE1 TYR F   4      33.492 -22.438  28.619  1.00 18.26 LIG 0.04  A 
ATOM     49  CD1 TYR F   4      32.362 -22.999  29.211  1.00 19.09 LIG 0.01  A 
BRANCH 47 50
ATOM     50 OH   TYR F   4      34.707 -20.553  27.772  1.00 17.27 LIG-0.36  OA
ATOM     51 HH   TYR F   4      34.485 -20.264  27.014  1.00 17.27 LIG 0.22  HD
ENDBRANCH 47 50
ENDBRANCH 43 44
ENDBRANCH 36 43
ENDBRANCH 34 36
ENDBRANCH 1 29
TORSDOF 17
ENDMDL
MODEL 20
USER: ADFR SOLUTION from run 117
USER: SCORE 14.967263 LL:  -3.132 LR: -12.126 RR:   0.000 FEB:  -7.055
USER: RMSD 10.005609
USER: SEED 116
USER: STATUS no improvement in best in 16 clusters for 5 generations
USER: GENES 19
USER: genes 0 Translation |==|  0.57322 0.71971 0.42249
USER: genes 1 Rotation |==|  0.42117 0.62886 0.96735 0.59363
USER: genes 2 Torsion [C]-N--CA-[C] |==|  0.17147
USER: genes 3 Torsion [N]-CA--C-[N] |==|  0.59283
USER: genes 4 Torsion [C]-N--CA-[C] |==|  0.81329
USER: genes 5 Torsion [N]-CA--C-[N] |==|  0.43496
USER: genes 6 Torsion [C]-N--CA-[C] |==|  0.58417
USER: genes 7 Torsion [N]-CA--C-[O] |==|  0.43353
USER: genes 8 Torsion [N]-CA--CB-[CG1] |==|  0.89106
USER: genes 9 Torsion [N]-CA--CB-[CG] |==|  0.28448
USER: genes 10 Torsion [CA]-CB--CG-[CD] |==|  0.77346
USER: genes 11 Torsion [CB]-CG--CD-[NE2] |==|  0.65318
USER: genes 12 Torsion [O]-C--CA-[CB] |==|  0.01557
USER: genes 13 Torsion [N]-C--CA-[N] |==|  0.90174
USER: genes 14 Torsion [C]-CA--N-[C] |==|  0.77778
USER: genes 15 Torsion [N]-C--CA-[N] |==|  0.05435
USER: genes 16 Torsion [C]-CA--CB-[CG] |==|  0.41928
USER: genes 17 Torsion [CA]-CB--CG-[CD2] |==|  0.14390
USER: genes 18 Torsion [CE2]-CZ--OH-[HH] |==|  0.91633
ROOT
ATOM      1  C   PRO F   5      28.088 -22.495  29.129  1.00 22.19 LIG 0.24  C 
ATOM      2 O    PRO F   5      28.387 -21.461  29.713  1.00 23.65 LIG-0.27  OA
ATOM      3  N   GLY F   6      28.907 -23.534  29.024  1.00 19.88 LIG-0.35  N 
ATOM      4 H    GLY F   6      28.680 -24.283  28.667  1.00 19.88 LIG 0.16  HD
ENDROOT
BRANCH 3 5
ATOM      5  CA  GLY F   6      30.285 -23.502  29.511  1.00 18.82 LIG 0.23  C 
BRANCH 5 6
ATOM      6  C   GLY F   6      30.441 -23.278  30.993  1.00 19.38 LIG 0.24  C 
ATOM      7  N   GLN F   7      31.514 -22.588  31.345  1.00 19.21 LIG-0.35  N 
ATOM      8 H    GLN F   7      32.055 -22.219  30.787  1.00 19.21 LIG 0.16  HD
ATOM      9 O    GLY F   6      29.641 -23.746  31.838  1.00 20.81 LIG-0.27  OA
BRANCH 7 10
ATOM     10  CA  GLN F   7      31.866 -22.400  32.737  1.00 20.89 LIG 0.18  C 
BRANCH 10 11
ATOM     11  C   GLN F   7      30.794 -21.521  33.356  1.00 21.73 LIG 0.24  C 
ATOM     12  N   VAL F   8      30.647 -21.616  34.678  1.00 23.67 LIG-0.34  N 
ATOM     13 H    VAL F   8      31.135 -22.128  35.167  1.00 23.67 LIG 0.16  HD
ATOM     14 O    GLN F   7      30.120 -20.779  32.664  1.00 20.56 LIG-0.27  OA
BRANCH 12 15
ATOM     15  CA  VAL F   8      29.647 -20.865  35.436  1.00 26.59 LIG 0.19  C 
BRANCH 15 16
ATOM     16  C   VAL F   8      30.182 -20.600  36.830  1.00 31.87 LIG 0.20  C 
ATOM     17 O    VAL F   8      29.761 -19.654  37.500  1.00 34.57 LIG-0.65  OA
ATOM     18 OXT  VAL F   8      31.079 -21.292  37.308  1.00 35.27 LIG-0.65  OA
ENDBRANCH 15 16
BRANCH 15 19
ATOM     19  CB  VAL F   8      28.328 -21.672  35.584  1.00 27.17 LIG 0.01  C 
ATOM     20  CG1 VAL F   8      27.979 -22.438  34.305  1.00 30.44 LIG 0.01  C 
ATOM     21  CG2 VAL F   8      28.405 -22.646  36.729  1.00 24.96 LIG 0.01  C 
ENDBRANCH 15 19
ENDBRANCH 12 15
ENDBRANCH 10 11
BRANCH 10 22
ATOM     22  CB  GLN F   7      33.249 -21.758  32.836  1.00 21.57 LIG 0.04  C 
BRANCH 22 23
ATOM     23  CG  GLN F   7      33.251 -20.268  33.152  1.00 23.35 LIG 0.10  C 
BRANCH 23 24
ATOM     24  CD  GLN F   7      33.009 -19.418  31.922  1.00 24.40 LIG 0.21  C 
ATOM     25  NE2 GLN F   7      33.918 -18.498  31.661  1.00 26.54 LIG-0.37  N 
ATOM     26 22HE GLN F   7      33.826 -17.983  30.979  1.00 26.54 LIG 0.16  HD
ATOM     27 21HE GLN F   7      34.604 -18.412  32.174  1.00 26.54 LIG 0.16  HD
ATOM     28 OE1  GLN F   7      32.011 -19.588  31.226  1.00 22.98 LIG-0.27  OA
ENDBRANCH 23 24
ENDBRANCH 22 23
ENDBRANCH 10 22
ENDBRANCH 7 10
ENDBRANCH 5 6
ENDBRANCH 3 5
BRANCH 1 29
ATOM     29  CA  PRO F   5      26.707 -22.596  28.499  1.00 24.01 LIG 0.18  C 
ATOM     30  CB  PRO F   5      25.977 -21.260  28.616  1.00 26.63 LIG 0.04  C 
ATOM     31  CG  PRO F   5      25.003 -21.427  29.706  1.00 25.90 LIG 0.02  C 
ATOM     32  CD  PRO F   5      24.756 -22.890  29.929  1.00 24.07 LIG 0.13  C 
ATOM     33  N   PRO F   5      25.786 -23.560  29.120  1.00 22.96 LIG-0.34  N 
ATOM     34  C   TYR F   4      25.788 -24.865  28.751  1.00 22.64 LIG 0.24  C 
ATOM     35 O    TYR F   4      26.620 -25.349  28.001  1.00 22.73 LIG-0.27  OA
BRANCH 34 36
ATOM     36  CA  TYR F   4      24.692 -25.771  29.294  1.00 23.00 LIG 0.18  C 
BRANCH 36 37
ATOM     37  N   TYR F   4      24.378 -25.346  30.669  1.00 26.39 LIG-0.35  N 
ATOM     38 H    TYR F   4      23.674 -24.858  30.742  1.00 26.39 LIG 0.16  HD
ATOM     39  C   GLY F   3      25.140 -25.707  31.685  1.00 29.77 LIG 0.25  C 
ATOM     40 O    GLY F   3      26.179 -26.333  31.521  1.00 31.07 LIG-0.27  OA
BRANCH 39 41
ATOM     41  CA  GLY F   3      24.706 -25.274  33.088  1.00 33.82 LIG 0.47  C 
ATOM     42  N   GLY F   3      23.262 -24.922  33.097  1.00 37.49 LIG 0.61  N 
ENDBRANCH 39 41
ENDBRANCH 36 37
BRANCH 36 43
ATOM     43  CB  TYR F   4      23.467 -25.654  28.436  1.00 21.26 LIG 0.07  C 
BRANCH 43 44
ATOM     44  CG  TYR F   4      22.633 -26.869  28.398  1.00 18.65 LIG-0.06  A 
ATOM     45  CD2 TYR F   4      22.214 -27.483  29.572  1.00 17.47 LIG 0.01  A 
ATOM     46  CE2 TYR F   4      21.428 -28.630  29.547  1.00 16.54 LIG 0.04  A 
ATOM     47  CZ  TYR F   4      21.051 -29.175  28.329  1.00 17.16 LIG 0.07  A 
ATOM     48  CE1 TYR F   4      21.450 -28.570  27.152  1.00 18.26 LIG 0.04  A 
ATOM     49  CD1 TYR F   4      22.257 -27.434  27.183  1.00 19.09 LIG 0.01  A 
BRANCH 47 50
ATOM     50 OH   TYR F   4      20.286 -30.355  28.252  1.00 17.27 LIG-0.36  OA
ATOM     51 HH   TYR F   4      20.457 -30.844  28.913  1.00 17.27 LIG 0.22  HD
ENDBRANCH 47 50
ENDBRANCH 43 44
ENDBRANCH 36 43
ENDBRANCH 34 36
ENDBRANCH 1 29
TORSDOF 17
ENDMDL
MODEL 21
USER: ADFR SOLUTION from run 193
USER: SCORE 14.603680 LL:  -2.974 LR: -12.044 RR:   0.000 FEB:  -6.973
USER: RMSD 5.670168
USER: SEED 192
USER: STATUS no improvement in best in 33 clusters for 5 generations
USER: GENES 19
USER: genes 0 Translation |==|  0.45000 0.65377 0.46719
USER: genes 1 Rotation |==|  0.15815 0.14260 0.49230 0.57313
USER: genes 2 Torsion [C]-N--CA-[C] |==|  0.79610
USER: genes 3 Torsion [N]-CA--C-[N] |==|  0.43214
USER: genes 4 Torsion [C]-N--CA-[C] |==|  0.83291
USER: genes 5 Torsion [N]-CA--C-[N] |==|  0.33370
USER: genes 6 Torsion [C]-N--CA-[C] |==|  0.72603
USER: genes 7 Torsion [N]-CA--C-[O] |==|  0.69300
USER: genes 8 Torsion [N]-CA--CB-[CG1] |==|  0.69756
USER: genes 9 Torsion [N]-CA--CB-[CG] |==|  0.74829
USER: genes 10 Torsion [CA]-CB--CG-[CD] |==|  0.56770
USER: genes 11 Torsion [CB]-CG--CD-[NE2] |==|  0.00712
USER: genes 12 Torsion [O]-C--CA-[CB] |==|  0.98070
USER: genes 13 Torsion [N]-C--CA-[N] |==|  0.44090
USER: genes 14 Torsion [C]-CA--N-[C] |==|  0.58336
USER: genes 15 Torsion [N]-C--CA-[N] |==|  0.41394
USER: genes 16 Torsion [C]-CA--CB-[CG] |==|  0.42569
USER: genes 17 Torsion [CA]-CB--CG-[CD2] |==|  0.92505
USER: genes 18 Torsion [CE2]-CZ--OH-[HH] |==|  0.71377
ROOT
ATOM      1  C   PRO F   5      25.224 -23.780  29.867  1.00 22.19 LIG 0.24  C 
ATOM      2 O    PRO F   5      24.351 -23.816  29.009  1.00 23.65 LIG-0.27  OA
ATOM      3  N   GLY F   6      25.821 -24.865  30.344  1.00 19.88 LIG-0.35  N 
ATOM      4 H    GLY F   6      26.474 -24.841  30.903  1.00 19.88 LIG 0.16  HD
ENDROOT
BRANCH 3 5
ATOM      5  CA  GLY F   6      25.418 -26.217  29.961  1.00 18.82 LIG 0.23  C 
BRANCH 5 6
ATOM      6  C   GLY F   6      24.118 -26.696  30.553  1.00 19.38 LIG 0.24  C 
ATOM      7  N   GLN F   7      23.504 -27.643  29.863  1.00 19.21 LIG-0.35  N 
ATOM      8 H    GLN F   7      23.837 -28.028  29.170  1.00 19.21 LIG 0.16  HD
ATOM      9 O    GLY F   6      23.627 -26.204  31.597  1.00 20.81 LIG-0.27  OA
BRANCH 7 10
ATOM     10  CA  GLN F   7      22.186 -28.114  30.238  1.00 20.89 LIG 0.18  C 
BRANCH 10 11
ATOM     11  C   GLN F   7      22.293 -28.673  31.646  1.00 21.73 LIG 0.24  C 
ATOM     12  N   VAL F   8      21.526 -28.092  32.568  1.00 23.67 LIG-0.34  N 
ATOM     13 H    VAL F   8      20.985 -27.448  32.389  1.00 23.67 LIG 0.16  HD
ATOM     14 O    GLN F   7      23.044 -29.600  31.892  1.00 20.56 LIG-0.27  OA
BRANCH 12 15
ATOM     15  CA  VAL F   8      21.522 -28.482  33.977  1.00 26.59 LIG 0.19  C 
BRANCH 15 16
ATOM     16  C   VAL F   8      20.343 -29.402  34.230  1.00 31.87 LIG 0.20  C 
ATOM     17 O    VAL F   8      19.382 -29.029  34.908  1.00 34.57 LIG-0.65  OA
ATOM     18 OXT  VAL F   8      20.336 -30.557  33.807  1.00 35.27 LIG-0.65  OA
ENDBRANCH 15 16
BRANCH 15 19
ATOM     19  CB  VAL F   8      21.360 -27.246  34.905  1.00 27.17 LIG 0.01  C 
ATOM     20  CG1 VAL F   8      22.653 -26.924  35.658  1.00 30.44 LIG 0.01  C 
ATOM     21  CG2 VAL F   8      20.930 -26.030  34.130  1.00 24.96 LIG 0.01  C 
ENDBRANCH 15 19
ENDBRANCH 12 15
ENDBRANCH 10 11
BRANCH 10 22
ATOM     22  CB  GLN F   7      21.718 -29.176  29.243  1.00 21.57 LIG 0.04  C 
BRANCH 22 23
ATOM     23  CG  GLN F   7      20.933 -28.644  28.049  1.00 23.35 LIG 0.10  C 
BRANCH 23 24
ATOM     24  CD  GLN F   7      20.021 -29.692  27.447  1.00 24.40 LIG 0.21  C 
ATOM     25  NE2 GLN F   7      19.997 -30.863  28.056  1.00 26.54 LIG-0.37  N 
ATOM     26 22HE GLN F   7      19.501 -31.496  27.751  1.00 26.54 LIG 0.16  HD
ATOM     27 21HE GLN F   7      20.476 -30.993  28.758  1.00 26.54 LIG 0.16  HD
ATOM     28 OE1  GLN F   7      19.359 -29.447  26.442  1.00 22.98 LIG-0.27  OA
ENDBRANCH 23 24
ENDBRANCH 22 23
ENDBRANCH 10 22
ENDBRANCH 7 10
ENDBRANCH 5 6
ENDBRANCH 3 5
BRANCH 1 29
ATOM     29  CA  PRO F   5      25.650 -22.424  30.407  1.00 24.01 LIG 0.18  C 
ATOM     30  CB  PRO F   5      24.981 -21.306  29.610  1.00 26.63 LIG 0.04  C 
ATOM     31  CG  PRO F   5      26.018 -20.777  28.711  1.00 25.90 LIG 0.02  C 
ATOM     32  CD  PRO F   5      27.371 -21.154  29.238  1.00 24.07 LIG 0.13  C 
ATOM     33  N   PRO F   5      27.086 -22.116  30.315  1.00 22.96 LIG-0.34  N 
ATOM     34  C   TYR F   4      27.947 -22.507  31.285  1.00 22.64 LIG 0.24  C 
ATOM     35 O    TYR F   4      27.631 -23.238  32.210  1.00 22.73 LIG-0.27  OA
BRANCH 34 36
ATOM     36  CA  TYR F   4      29.382 -22.003  31.224  1.00 23.00 LIG 0.18  C 
BRANCH 36 37
ATOM     37  N   TYR F   4      29.968 -22.105  32.572  1.00 26.39 LIG-0.35  N 
ATOM     38 H    TYR F   4      29.652 -22.743  33.053  1.00 26.39 LIG 0.16  HD
ATOM     39  C   GLY F   3      30.903 -21.264  32.974  1.00 29.77 LIG 0.25  C 
ATOM     40 O    GLY F   3      31.261 -20.319  32.283  1.00 31.07 LIG-0.27  OA
BRANCH 39 41
ATOM     41  CA  GLY F   3      31.502 -21.481  34.366  1.00 33.82 LIG 0.47  C 
ATOM     42  N   GLY F   3      32.919 -21.032  34.396  1.00 37.49 LIG 0.61  N 
ENDBRANCH 39 41
ENDBRANCH 36 37
BRANCH 36 43
ATOM     43  CB  TYR F   4      30.173 -22.841  30.264  1.00 21.26 LIG 0.07  C 
BRANCH 43 44
ATOM     44  CG  TYR F   4      31.317 -22.144  29.647  1.00 18.65 LIG-0.06  A 
ATOM     45  CD2 TYR F   4      31.310 -20.764  29.490  1.00 17.47 LIG 0.01  A 
ATOM     46  CE2 TYR F   4      32.384 -20.097  28.909  1.00 16.54 LIG 0.04  A 
ATOM     47  CZ  TYR F   4      33.485 -20.820  28.477  1.00 17.16 LIG 0.07  A 
ATOM     48  CE1 TYR F   4      33.512 -22.193  28.636  1.00 18.26 LIG 0.04  A 
ATOM     49  CD1 TYR F   4      32.424 -22.858  29.198  1.00 19.09 LIG 0.01  A 
BRANCH 47 50
ATOM     50 OH   TYR F   4      34.581 -20.195  27.850  1.00 17.27 LIG-0.36  OA
ATOM     51 HH   TYR F   4      34.544 -20.330  27.021  1.00 17.27 LIG 0.22  HD
ENDBRANCH 47 50
ENDBRANCH 43 44
ENDBRANCH 36 43
ENDBRANCH 34 36
ENDBRANCH 1 29
TORSDOF 17
ENDMDL
MODEL 22
USER: ADFR SOLUTION from run 125
USER: SCORE 15.036491 LL:  -4.229 LR: -12.032 RR:   0.000 FEB:  -6.961
USER: RMSD 4.041282
USER: SEED 124
USER: STATUS no improvement in best in 8 clusters for 5 generations
USER: GENES 19
USER: genes 0 Translation |==|  0.45088 0.56445 0.52223
USER: genes 1 Rotation |==|  0.38100 0.38312 0.39888 0.96038
USER: genes 2 Torsion [C]-N--CA-[C] |==|  0.80000
USER: genes 3 Torsion [N]-CA--C-[N] |==|  0.09228
USER: genes 4 Torsion [C]-N--CA-[C] |==|  0.56281
USER: genes 5 Torsion [N]-CA--C-[N] |==|  0.20481
USER: genes 6 Torsion [C]-N--CA-[C] |==|  0.69368
USER: genes 7 Torsion [N]-CA--C-[O] |==|  0.17304
USER: genes 8 Torsion [N]-CA--CB-[CG1] |==|  0.71169
USER: genes 9 Torsion [N]-CA--CB-[CG] |==|  0.74381
USER: genes 10 Torsion [CA]-CB--CG-[CD] |==|  0.88244
USER: genes 11 Torsion [CB]-CG--CD-[NE2] |==|  0.84574
USER: genes 12 Torsion [O]-C--CA-[CB] |==|  0.01116
USER: genes 13 Torsion [N]-C--CA-[N] |==|  0.40553
USER: genes 14 Torsion [C]-CA--N-[C] |==|  0.78171
USER: genes 15 Torsion [N]-C--CA-[N] |==|  0.70851
USER: genes 16 Torsion [C]-CA--CB-[CG] |==|  0.07973
USER: genes 17 Torsion [CA]-CB--CG-[CD2] |==|  0.21048
USER: genes 18 Torsion [CE2]-CZ--OH-[HH] |==|  0.75160
ROOT
ATOM      1  C   PRO F   5      25.244 -25.522  30.775  1.00 22.19 LIG 0.24  C 
ATOM      2 O    PRO F   5      24.404 -25.514  31.665  1.00 23.65 LIG-0.27  OA
ATOM      3  N   GLY F   6      24.947 -25.356  29.492  1.00 19.88 LIG-0.35  N 
ATOM      4 H    GLY F   6      25.540 -25.302  28.871  1.00 19.88 LIG 0.16  HD
ENDROOT
BRANCH 3 5
ATOM      5  CA  GLY F   6      23.572 -25.250  29.010  1.00 18.82 LIG 0.23  C 
BRANCH 5 6
ATOM      6  C   GLY F   6      22.778 -26.531  29.036  1.00 19.38 LIG 0.24  C 
ATOM      7  N   GLN F   7      23.075 -27.354  30.029  1.00 19.21 LIG-0.35  N 
ATOM      8 H    GLN F   7      23.619 -27.163  30.667  1.00 19.21 LIG 0.16  HD
ATOM      9 O    GLY F   6      21.931 -26.821  28.158  1.00 20.81 LIG-0.27  OA
BRANCH 7 10
ATOM     10  CA  GLN F   7      22.487 -28.675  30.114  1.00 20.89 LIG 0.18  C 
BRANCH 10 11
ATOM     11  C   GLN F   7      22.564 -29.109  31.567  1.00 21.73 LIG 0.24  C 
ATOM     12  N   VAL F   8      21.712 -28.515  32.403  1.00 23.67 LIG-0.34  N 
ATOM     13 H    VAL F   8      21.135 -27.931  32.146  1.00 23.67 LIG 0.16  HD
ATOM     14 O    GLN F   7      23.367 -29.952  31.924  1.00 20.56 LIG-0.27  OA
BRANCH 12 15
ATOM     15  CA  VAL F   8      21.665 -28.789  33.838  1.00 26.59 LIG 0.19  C 
BRANCH 15 16
ATOM     16  C   VAL F   8      20.383 -29.535  34.156  1.00 31.87 LIG 0.20  C 
ATOM     17 O    VAL F   8      20.162 -30.647  33.672  1.00 34.57 LIG-0.65  OA
ATOM     18 OXT  VAL F   8      19.514 -29.030  34.864  1.00 35.27 LIG-0.65  OA
ENDBRANCH 15 16
BRANCH 15 19
ATOM     19  CB  VAL F   8      21.660 -27.474  34.665  1.00 27.17 LIG 0.01  C 
ATOM     20  CG1 VAL F   8      23.025 -27.190  35.296  1.00 30.44 LIG 0.01  C 
ATOM     21  CG2 VAL F   8      21.259 -26.295  33.819  1.00 24.96 LIG 0.01  C 
ENDBRANCH 15 19
ENDBRANCH 12 15
ENDBRANCH 10 11
BRANCH 10 22
ATOM     22  CB  GLN F   7      23.247 -29.634  29.197  1.00 21.57 LIG 0.04  C 
BRANCH 22 23
ATOM     23  CG  GLN F   7      22.683 -29.767  27.788  1.00 23.35 LIG 0.10  C 
BRANCH 23 24
ATOM     24  CD  GLN F   7      21.171 -29.851  27.779  1.00 24.40 LIG 0.21  C 
ATOM     25  NE2 GLN F   7      20.636 -30.808  28.513  1.00 26.54 LIG-0.37  N 
ATOM     26 22HE GLN F   7      19.782 -30.905  28.538  1.00 26.54 LIG 0.16  HD
ATOM     27 21HE GLN F   7      21.141 -31.335  28.968  1.00 26.54 LIG 0.16  HD
ATOM     28 OE1  GLN F   7      20.501 -29.069  27.109  1.00 22.98 LIG-0.27  OA
ENDBRANCH 23 24
ENDBRANCH 22 23
ENDBRANCH 10 22
ENDBRANCH 7 10
ENDBRANCH 5 6
ENDBRANCH 3 5
BRANCH 1 29
ATOM     29  CA  PRO F   5      26.702 -25.725  31.160  1.00 24.01 LIG 0.18  C 
ATOM     30  CB  PRO F   5      26.819 -25.986  32.660  1.00 26.63 LIG 0.04  C 
ATOM     31  CG  PRO F   5      27.300 -24.729  33.251  1.00 25.90 LIG 0.02  C 
ATOM     32  CD  PRO F   5      27.938 -23.890  32.183  1.00 24.07 LIG 0.13  C 
ATOM     33  N   PRO F   5      27.594 -24.578  30.928  1.00 22.96 LIG-0.34  N 
ATOM     34  C   TYR F   4      28.186 -24.385  29.724  1.00 22.64 LIG 0.24  C 
ATOM     35 O    TYR F   4      27.925 -25.049  28.734  1.00 22.73 LIG-0.27  OA
BRANCH 34 36
ATOM     36  CA  TYR F   4      29.237 -23.291  29.602  1.00 23.00 LIG 0.18  C 
BRANCH 36 37
ATOM     37  N   TYR F   4      30.258 -23.733  28.638  1.00 26.39 LIG-0.35  N 
ATOM     38 H    TYR F   4      30.185 -23.389  27.854  1.00 26.39 LIG 0.16  HD
ATOM     39  C   GLY F   3      31.198 -24.593  28.986  1.00 29.77 LIG 0.25  C 
ATOM     40 O    GLY F   3      31.211 -25.120  30.091  1.00 31.07 LIG-0.27  OA
BRANCH 39 41
ATOM     41  CA  GLY F   3      32.257 -24.951  27.940  1.00 33.82 LIG 0.47  C 
ATOM     42  N   GLY F   3      32.003 -26.308  27.391  1.00 37.49 LIG 0.61  N 
ENDBRANCH 39 41
ENDBRANCH 36 37
BRANCH 36 43
ATOM     43  CB  TYR F   4      28.595 -22.025  29.115  1.00 21.26 LIG 0.07  C 
BRANCH 43 44
ATOM     44  CG  TYR F   4      27.176 -21.879  29.489  1.00 18.65 LIG-0.06  A 
ATOM     45  CD2 TYR F   4      26.814 -21.531  30.784  1.00 17.47 LIG 0.01  A 
ATOM     46  CE2 TYR F   4      25.479 -21.391  31.149  1.00 16.54 LIG 0.04  A 
ATOM     47  CZ  TYR F   4      24.486 -21.601  30.204  1.00 17.16 LIG 0.07  A 
ATOM     48  CE1 TYR F   4      24.831 -21.937  28.908  1.00 18.26 LIG 0.04  A 
ATOM     49  CD1 TYR F   4      26.169 -22.098  28.555  1.00 19.09 LIG 0.01  A 
BRANCH 47 50
ATOM     50 OH   TYR F   4      23.120 -21.507  30.533  1.00 17.27 LIG-0.36  OA
ATOM     51 HH   TYR F   4      22.841 -22.258  30.787  1.00 17.27 LIG 0.22  HD
ENDBRANCH 47 50
ENDBRANCH 43 44
ENDBRANCH 36 43
ENDBRANCH 34 36
ENDBRANCH 1 29
TORSDOF 17
ENDMDL
MODEL 23
USER: ADFR SOLUTION from run 7
USER: SCORE 14.328906 LL:  -3.324 LR: -12.023 RR:   0.000 FEB:  -6.952
USER: RMSD 9.540269
USER: SEED 890676
USER: STATUS no improvement in best in 21 clusters for 5 generations
USER: GENES 19
USER: genes 0 Translation |==|  0.57361 0.73204 0.46333
USER: genes 1 Rotation |==|  0.35546 0.79047 0.84950 0.65028
USER: genes 2 Torsion [C]-N--CA-[C] |==|  0.21356
USER: genes 3 Torsion [N]-CA--C-[N] |==|  0.20548
USER: genes 4 Torsion [C]-N--CA-[C] |==|  0.80391
USER: genes 5 Torsion [N]-CA--C-[N] |==|  0.35675
USER: genes 6 Torsion [C]-N--CA-[C] |==|  0.60763
USER: genes 7 Torsion [N]-CA--C-[O] |==|  0.13004
USER: genes 8 Torsion [N]-CA--CB-[CG1] |==|  0.53835
USER: genes 9 Torsion [N]-CA--CB-[CG] |==|  0.15363
USER: genes 10 Torsion [CA]-CB--CG-[CD] |==|  0.75039
USER: genes 11 Torsion [CB]-CG--CD-[NE2] |==|  0.53202
USER: genes 12 Torsion [O]-C--CA-[CB] |==|  0.89382
USER: genes 13 Torsion [N]-C--CA-[N] |==|  0.88666
USER: genes 14 Torsion [C]-CA--N-[C] |==|  0.72364
USER: genes 15 Torsion [N]-C--CA-[N] |==|  0.13094
USER: genes 16 Torsion [C]-CA--CB-[CG] |==|  0.43293
USER: genes 17 Torsion [CA]-CB--CG-[CD2] |==|  0.62556
USER: genes 18 Torsion [CE2]-CZ--OH-[HH] |==|  0.42371
ROOT
ATOM      1  C   PRO F   5      28.098 -22.254  29.803  1.00 22.19 LIG 0.24  C 
ATOM      2 O    PRO F   5      28.717 -21.207  29.667  1.00 23.65 LIG-0.27  OA
ATOM      3  N   GLY F   6      28.442 -23.196  30.673  1.00 19.88 LIG-0.35  N 
ATOM      4 H    GLY F   6      27.976 -23.906  30.813  1.00 19.88 LIG 0.16  HD
ENDROOT
BRANCH 3 5
ATOM      5  CA  GLY F   6      29.656 -23.114  31.481  1.00 18.82 LIG 0.23  C 
BRANCH 5 6
ATOM      6  C   GLY F   6      29.586 -22.175  32.658  1.00 19.38 LIG 0.24  C 
ATOM      7  N   GLN F   7      28.864 -22.610  33.679  1.00 19.21 LIG-0.35  N 
ATOM      8 H    GLN F   7      28.517 -23.395  33.724  1.00 19.21 LIG 0.16  HD
ATOM      9 O    GLY F   6      30.130 -21.045  32.657  1.00 20.81 LIG-0.27  OA
BRANCH 7 10
ATOM     10  CA  GLN F   7      28.601 -21.767  34.827  1.00 20.89 LIG 0.18  C 
BRANCH 10 11
ATOM     11  C   GLN F   7      29.909 -21.618  35.584  1.00 21.73 LIG 0.24  C 
ATOM     12  N   VAL F   8      30.282 -20.371  35.870  1.00 23.67 LIG-0.34  N 
ATOM     13 H    VAL F   8      29.812 -19.682  35.661  1.00 23.67 LIG 0.16  HD
ATOM     14 O    GLN F   7      30.561 -22.597  35.900  1.00 20.56 LIG-0.27  OA
BRANCH 12 15
ATOM     15  CA  VAL F   8      31.524 -20.040  36.567  1.00 26.59 LIG 0.19  C 
BRANCH 15 16
ATOM     16  C   VAL F   8      31.261 -18.892  37.524  1.00 31.87 LIG 0.20  C 
ATOM     17 O    VAL F   8      30.280 -18.904  38.272  1.00 34.57 LIG-0.65  OA
ATOM     18 OXT  VAL F   8      31.991 -17.903  37.545  1.00 35.27 LIG-0.65  OA
ENDBRANCH 15 16
BRANCH 15 19
ATOM     19  CB  VAL F   8      32.624 -19.578  35.573  1.00 27.17 LIG 0.01  C 
ATOM     20  CG1 VAL F   8      34.010 -19.553  36.224  1.00 30.44 LIG 0.01  C 
ATOM     21  CG2 VAL F   8      32.673 -20.463  34.357  1.00 24.96 LIG 0.01  C 
ENDBRANCH 15 19
ENDBRANCH 12 15
ENDBRANCH 10 11
BRANCH 10 22
ATOM     22  CB  GLN F   7      27.516 -22.407  35.695  1.00 21.57 LIG 0.04  C 
BRANCH 22 23
ATOM     23  CG  GLN F   7      27.806 -23.832  36.149  1.00 23.35 LIG 0.10  C 
BRANCH 23 24
ATOM     24  CD  GLN F   7      27.290 -24.865  35.169  1.00 24.40 LIG 0.21  C 
ATOM     25  NE2 GLN F   7      27.286 -26.116  35.589  1.00 26.54 LIG-0.37  N 
ATOM     26 22HE GLN F   7      27.009 -26.743  35.070  1.00 26.54 LIG 0.16  HD
ATOM     27 21HE GLN F   7      27.559 -26.304  36.382  1.00 26.54 LIG 0.16  HD
ATOM     28 OE1  GLN F   7      26.911 -24.534  34.048  1.00 22.98 LIG-0.27  OA
ENDBRANCH 23 24
ENDBRANCH 22 23
ENDBRANCH 10 22
ENDBRANCH 7 10
ENDBRANCH 5 6
ENDBRANCH 3 5
BRANCH 1 29
ATOM     29  CA  PRO F   5      26.868 -22.484  28.937  1.00 24.01 LIG 0.18  C 
ATOM     30  CB  PRO F   5      26.091 -21.180  28.769  1.00 26.63 LIG 0.04  C 
ATOM     31  CG  PRO F   5      24.930 -21.285  29.666  1.00 25.90 LIG 0.02  C 
ATOM     32  CD  PRO F   5      24.685 -22.728  29.994  1.00 24.07 LIG 0.13  C 
ATOM     33  N   PRO F   5      25.871 -23.426  29.471  1.00 22.96 LIG-0.34  N 
ATOM     34  C   TYR F   4      25.982 -24.758  29.252  1.00 22.64 LIG 0.24  C 
ATOM     35 O    TYR F   4      26.956 -25.275  28.729  1.00 22.73 LIG-0.27  OA
BRANCH 34 36
ATOM     36  CA  TYR F   4      24.827 -25.658  29.671  1.00 23.00 LIG 0.18  C 
BRANCH 36 37
ATOM     37  N   TYR F   4      24.325 -25.191  30.975  1.00 26.39 LIG-0.35  N 
ATOM     38 H    TYR F   4      23.796 -24.515  30.934  1.00 26.39 LIG 0.16  HD
ATOM     39  C   GLY F   3      24.682 -25.789  32.097  1.00 29.77 LIG 0.25  C 
ATOM     40 O    GLY F   3      25.505 -26.696  32.110  1.00 31.07 LIG-0.27  OA
BRANCH 39 41
ATOM     41  CA  GLY F   3      24.065 -25.279  33.401  1.00 33.82 LIG 0.47  C 
ATOM     42  N   GLY F   3      22.595 -25.117  33.250  1.00 37.49 LIG 0.61  N 
ENDBRANCH 39 41
ENDBRANCH 36 37
BRANCH 36 43
ATOM     43  CB  TYR F   4      23.731 -25.583  28.650  1.00 21.26 LIG 0.07  C 
BRANCH 43 44
ATOM     44  CG  TYR F   4      22.846 -26.762  28.619  1.00 18.65 LIG-0.06  A 
ATOM     45  CD2 TYR F   4      22.479 -27.346  27.414  1.00 17.47 LIG 0.01  A 
ATOM     46  CE2 TYR F   4      21.645 -28.458  27.373  1.00 16.54 LIG 0.04  A 
ATOM     47  CZ  TYR F   4      21.167 -28.998  28.557  1.00 17.16 LIG 0.07  A 
ATOM     48  CE1 TYR F   4      21.531 -28.435  29.766  1.00 18.26 LIG 0.04  A 
ATOM     49  CD1 TYR F   4      22.349 -27.308  29.799  1.00 19.09 LIG 0.01  A 
BRANCH 47 50
ATOM     50 OH   TYR F   4      20.290 -30.100  28.567  1.00 17.27 LIG-0.36  OA
ATOM     51 HH   TYR F   4      20.387 -30.529  29.283  1.00 17.27 LIG 0.22  HD
ENDBRANCH 47 50
ENDBRANCH 43 44
ENDBRANCH 36 43
ENDBRANCH 34 36
ENDBRANCH 1 29
TORSDOF 17
ENDMDL
