MODEL 1
USER: ADFR SOLUTION from run 193
USER: SCORE 18.421145 LL:  -4.528 LR: -16.551 RR:   0.000 FEB:  -9.988
USER: RMSD 2.963144
USER: SEED 192
USER: STATUS no improvement in best in 5 clusters for 5 generations
USER: GENES 24
USER: genes 0 Translation |==|  0.37909 0.56799 0.60163
USER: genes 1 Rotation |==|  0.49975 0.47318 0.50227 0.99927
USER: genes 2 Torsion [CB]-CA--N-[C] |==|  0.37192
USER: genes 3 Torsion [N]-C--CA-[N] |==|  0.90658
USER: genes 4 Torsion [C]-CA--CB-[CG] |==|  0.46160
USER: genes 5 Torsion [CA]-CB--CG-[CD2] |==|  0.93012
USER: genes 6 Torsion [C]-CA--N-[C] |==|  0.69704
USER: genes 7 Torsion [N]-C--CA-[N] |==|  0.79444
USER: genes 8 Torsion [C]-CA--N-[C] |==|  0.75800
USER: genes 9 Torsion [N]-C--CA-[N] |==|  0.34531
USER: genes 10 Torsion [C]-CA--CB-[CG2] |==|  0.08452
USER: genes 11 Torsion [CA]-CB--CG1-[CD1] |==|  0.27031
USER: genes 12 Torsion [C]-CA--CB-[CG] |==|  0.12017
USER: genes 13 Torsion [CA]-CB--CG-[CD1] |==|  0.23828
USER: genes 14 Torsion [N]-CA--CB-[CG2] |==|  0.83627
USER: genes 15 Torsion [CA]-CB--OG1-[HG1] |==|  0.67899
USER: genes 16 Torsion [N]-CA--C-[N] |==|  0.32960
USER: genes 17 Torsion [N]-CA--C-[N] |==|  0.52367
USER: genes 18 Torsion [C]-N--CA-[C] |==|  0.74278
USER: genes 19 Torsion [N]-CA--C-[O] |==|  0.90759
USER: genes 20 Torsion [N]-CA--CB-[CG] |==|  0.44948
USER: genes 21 Torsion [CA]-CB--CG-[CD] |==|  0.75168
USER: genes 22 Torsion [CB]-CG--CD-[NE] |==|  0.65386
USER: genes 23 Torsion [CG]-CD--NE-[HE] |==|  0.03788
ROOT
ATOM      1  CA  THR D 648     -64.983  10.650  -5.999  1.00 62.87 LIG 0.20  C 
ENDROOT
BRANCH 1 2
ATOM      2  N   THR D 648     -63.751  10.549  -5.219  1.00 56.91 LIG-0.34  N 
ATOM      3  C   LEU D 647     -63.666   9.791  -4.130  1.00 59.35 LIG 0.24  C 
ATOM      4 O    LEU D 647     -64.606   9.113  -3.711  1.00 56.20 LIG-0.27  OA
ATOM      5 H    THR D 648     -63.099  11.018  -5.527  1.00 56.91 LIG 0.16  HD
BRANCH 3 6
ATOM      6  CA  LEU D 647     -62.323   9.792  -3.423  1.00 55.15 LIG 0.18  C 
BRANCH 6 7
ATOM      7  CB  LEU D 647     -62.336  10.879  -2.301  1.00 49.69 LIG 0.04  C 
BRANCH 7 8
ATOM      8  CG  LEU D 647     -61.255  10.917  -1.214  1.00 48.41 LIG-0.02  C 
ATOM      9  CD2 LEU D 647     -60.611   9.561  -0.970  1.00 46.46 LIG 0.01  C 
ATOM     10  CD1 LEU D 647     -61.845  11.447   0.084  1.00 42.39 LIG 0.01  C 
ENDBRANCH 7 8
ENDBRANCH 6 7
BRANCH 6 11
ATOM     11  N   LEU D 647     -61.212   9.927  -4.341  1.00 57.83 LIG-0.35  N 
ATOM     12  C   LEU D 646     -60.395   8.900  -4.584  1.00 69.64 LIG 0.24  C 
ATOM     13 O    LEU D 646     -60.521   7.810  -4.020  1.00 59.31 LIG-0.27  OA
ATOM     14 H    LEU D 647     -61.134  10.704  -4.699  1.00 57.83 LIG 0.16  HD
BRANCH 12 15
ATOM     15  CA  LEU D 646     -59.267   9.095  -5.645  1.00 75.89 LIG 0.18  C 
BRANCH 15 16
ATOM     16  N   LEU D 646     -59.650   9.113  -7.025  1.00 90.15 LIG-0.35  N 
ATOM     17 H    LEU D 646     -59.807   9.897  -7.343  1.00 90.15 LIG 0.16  HD
ATOM     18  C   ILE D 645     -59.745   7.987  -7.730  1.00 94.17 LIG 0.26  C 
ATOM     19 O    ILE D 645     -59.468   6.875  -7.266  1.00104.89 LIG-0.27  OA
BRANCH 18 20
ATOM     20  CA  ILE D 645     -60.214   8.130  -9.174  1.00 87.61 LIG 0.40  C 
ATOM     21  N   ILE D 645     -59.266   7.541 -10.169  1.00 97.17 LIG 0.61  N 
BRANCH 20 22
ATOM     22  CB  ILE D 645     -61.591   7.411  -9.150  1.00 83.91 LIG 0.03  C 
ATOM     23  CG2 ILE D 645     -62.242   7.545  -7.776  1.00 71.96 LIG 0.01  C 
BRANCH 22 24
ATOM     24  CG1 ILE D 645     -62.519   7.887 -10.284  1.00 78.38 LIG 0.00  C 
ATOM     25  CD1 ILE D 645     -62.525   6.988 -11.509  1.00 60.94 LIG 0.01  C 
ENDBRANCH 22 24
ENDBRANCH 20 22
ENDBRANCH 18 20
ENDBRANCH 15 16
BRANCH 15 26
ATOM     26  CB  LEU D 646     -58.542  10.423  -5.347  1.00 77.70 LIG 0.04  C 
BRANCH 26 27
ATOM     27  CG  LEU D 646     -58.223  10.706  -3.876  1.00 75.60 LIG-0.02  C 
ATOM     28  CD1 LEU D 646     -56.905  10.075  -3.445  1.00 71.06 LIG 0.01  C 
ATOM     29  CD2 LEU D 646     -58.208  12.203  -3.636  1.00 73.48 LIG 0.01  C 
ENDBRANCH 26 27
ENDBRANCH 15 26
ENDBRANCH 12 15
ENDBRANCH 6 11
ENDBRANCH 3 6
ENDBRANCH 1 2
BRANCH 1 30
ATOM     30  CB  THR D 648     -65.298  12.129  -6.341  1.00 65.76 LIG 0.15  C 
ATOM     31  CG2 THR D 648     -65.454  12.990  -5.087  1.00 59.42 LIG 0.04  C 
BRANCH 30 32
ATOM     32 OG1  THR D 648     -64.235  12.664  -7.141  1.00 66.48 LIG-0.39  OA
ATOM     33 HG1  THR D 648     -63.849  13.280  -6.719  1.00 66.48 LIG 0.21  HD
ENDBRANCH 30 32
ENDBRANCH 1 30
BRANCH 1 34
ATOM     34  C   THR D 648     -64.893   9.754  -7.251  1.00 62.56 LIG 0.24  C 
ATOM     35 O    THR D 648     -63.996   9.938  -8.082  1.00 59.73 LIG-0.27  OA
ATOM     36  N   PRO D 649     -65.797   8.756  -7.364  1.00 65.34 LIG-0.34  N 
ATOM     37  CA  PRO D 649     -65.837   7.860  -8.530  1.00 70.60 LIG 0.18  C 
ATOM     38  CD  PRO D 649     -66.724   8.316  -6.299  1.00 66.58 LIG 0.13  C 
ATOM     39  CB  PRO D 649     -66.741   6.714  -8.062  1.00 67.49 LIG 0.04  C 
ATOM     40  CG  PRO D 649     -67.590   7.302  -6.985  1.00 65.73 LIG 0.02  C 
BRANCH 37 41
ATOM     41  C   PRO D 649     -66.422   8.498  -9.795  1.00 77.20 LIG 0.24  C 
ATOM     42  N   ARG D 650     -66.638   7.673 -10.819  1.00 83.37 LIG-0.35  N 
ATOM     43 H    ARG D 650     -66.429   6.839 -10.805  1.00 83.37 LIG 0.16  HD
ATOM     44 O    PRO D 649     -66.678   9.708  -9.825  1.00 68.92 LIG-0.27  OA
BRANCH 42 45
ATOM     45  CA  ARG D 650     -67.254   8.107 -12.072  1.00 76.40 LIG 0.16  C 
BRANCH 45 46
ATOM     46  C   ARG D 650     -68.764   7.903 -12.055  1.00 81.79 LIG 0.22  C 
ATOM     47 O    ARG D 650     -69.264   6.956 -11.448  1.00 80.18 LIG-0.29  OA
ENDBRANCH 45 46
BRANCH 45 48
ATOM     48  CB  ARG D 650     -66.632   7.362 -13.251  1.00 77.84 LIG 0.04  C 
BRANCH 48 49
ATOM     49  CG  ARG D 650     -67.479   7.410 -14.512  1.00 87.31 LIG 0.02  C 
BRANCH 49 50
ATOM     50  CD  ARG D 650     -68.475   6.262 -14.598  1.00 89.00 LIG 0.14  C 
BRANCH 50 51
ATOM     51  NE  ARG D 650     -68.353   5.479 -15.828  1.00 88.84 LIG-0.23  N 
ATOM     52 HE   ARG D 650     -67.648   5.593 -16.307  1.00 88.84 LIG 0.18  HD
ATOM     53  CZ  ARG D 650     -69.259   4.601 -16.257  1.00 89.69 LIG 0.67  C 
ATOM     54  NH2 ARG D 650     -70.361   4.368 -15.553  1.00 88.97 LIG-0.23  N 
ATOM     55  NH1 ARG D 650     -69.057   3.944 -17.393  1.00 77.77 LIG-0.23  N 
ATOM     56 2HH2 ARG D 650     -70.941   3.799 -15.837  1.00 88.97 LIG 0.17  HD
ATOM     57 1HH2 ARG D 650     -70.496   4.785 -14.813  1.00 88.97 LIG 0.17  HD
ATOM     58 1HH1 ARG D 650     -68.343   4.086 -17.850  1.00 77.77 LIG 0.17  HD
ATOM     59 2HH1 ARG D 650     -69.641   3.378 -17.671  1.00 77.77 LIG 0.17  HD
ENDBRANCH 50 51
ENDBRANCH 49 50
ENDBRANCH 48 49
ENDBRANCH 45 48
ENDBRANCH 42 45
ENDBRANCH 37 41
ENDBRANCH 1 34
TORSDOF 22
ENDMDL
MODEL 2
USER: ADFR SOLUTION from run 180
USER: SCORE 19.479757 LL:  -4.374 LR: -16.478 RR:   0.000 FEB:  -9.915
USER: RMSD 6.384999
USER: SEED 179
USER: STATUS 1 or 2 clusters left
USER: GENES 24
USER: genes 0 Translation |==|  0.60105 0.48363 0.58093
USER: genes 1 Rotation |==|  0.37023 0.21317 0.16169 0.69086
USER: genes 2 Torsion [CB]-CA--N-[C] |==|  0.78615
USER: genes 3 Torsion [N]-C--CA-[N] |==|  0.31797
USER: genes 4 Torsion [C]-CA--CB-[CG] |==|  0.28630
USER: genes 5 Torsion [CA]-CB--CG-[CD2] |==|  0.36981
USER: genes 6 Torsion [C]-CA--N-[C] |==|  0.74189
USER: genes 7 Torsion [N]-C--CA-[N] |==|  0.67732
USER: genes 8 Torsion [C]-CA--N-[C] |==|  0.70972
USER: genes 9 Torsion [N]-C--CA-[N] |==|  0.73553
USER: genes 10 Torsion [C]-CA--CB-[CG2] |==|  0.21611
USER: genes 11 Torsion [CA]-CB--CG1-[CD1] |==|  0.83416
USER: genes 12 Torsion [C]-CA--CB-[CG] |==|  0.39328
USER: genes 13 Torsion [CA]-CB--CG-[CD1] |==|  0.77480
USER: genes 14 Torsion [N]-CA--CB-[CG2] |==|  0.88398
USER: genes 15 Torsion [CA]-CB--OG1-[HG1] |==|  0.62418
USER: genes 16 Torsion [N]-CA--C-[N] |==|  0.15525
USER: genes 17 Torsion [N]-CA--C-[N] |==|  0.62848
USER: genes 18 Torsion [C]-N--CA-[C] |==|  0.52373
USER: genes 19 Torsion [N]-CA--C-[O] |==|  0.93264
USER: genes 20 Torsion [N]-CA--CB-[CG] |==|  0.62376
USER: genes 21 Torsion [CA]-CB--CG-[CD] |==|  0.26647
USER: genes 22 Torsion [CB]-CG--CD-[NE] |==|  0.11558
USER: genes 23 Torsion [CG]-CD--NE-[HE] |==|  0.88260
ROOT
ATOM      1  CA  THR D 648     -60.155   9.321  -6.496  1.00 62.87 LIG 0.20  C 
ENDROOT
BRANCH 1 2
ATOM      2  N   THR D 648     -61.053   9.667  -5.396  1.00 56.91 LIG-0.34  N 
ATOM      3  C   LEU D 647     -61.561   8.746  -4.584  1.00 59.35 LIG 0.24  C 
ATOM      4 O    LEU D 647     -61.303   7.545  -4.688  1.00 56.20 LIG-0.27  OA
ATOM      5 H    THR D 648     -61.218  10.509  -5.326  1.00 56.91 LIG 0.16  HD
BRANCH 3 6
ATOM      6  CA  LEU D 647     -62.482   9.258  -3.492  1.00 55.15 LIG 0.18  C 
BRANCH 6 7
ATOM      7  CB  LEU D 647     -61.869   8.907  -2.098  1.00 49.69 LIG 0.04  C 
BRANCH 7 8
ATOM      8  CG  LEU D 647     -61.161   9.969  -1.247  1.00 48.41 LIG-0.02  C 
ATOM      9  CD2 LEU D 647     -61.605   9.955   0.208  1.00 46.46 LIG 0.01  C 
ATOM     10  CD1 LEU D 647     -61.393  11.349  -1.843  1.00 42.39 LIG 0.01  C 
ENDBRANCH 7 8
ENDBRANCH 6 7
BRANCH 6 11
ATOM     11  N   LEU D 647     -63.844   8.798  -3.652  1.00 57.83 LIG-0.35  N 
ATOM     12  C   LEU D 646     -64.742   9.532  -4.313  1.00 69.64 LIG 0.24  C 
ATOM     13 O    LEU D 646     -64.471  10.640  -4.782  1.00 59.31 LIG-0.27  OA
ATOM     14 H    LEU D 647     -64.012   8.035  -3.294  1.00 57.83 LIG 0.16  HD
BRANCH 12 15
ATOM     15  CA  LEU D 646     -66.171   8.936  -4.515  1.00 75.89 LIG 0.18  C 
BRANCH 15 16
ATOM     16  N   LEU D 646     -66.596   8.673  -5.857  1.00 90.15 LIG-0.35  N 
ATOM     17 H    LEU D 646     -66.246   7.973  -6.214  1.00 90.15 LIG 0.16  HD
ATOM     18  C   ILE D 645     -67.468   9.470  -6.474  1.00 94.17 LIG 0.26  C 
ATOM     19 O    ILE D 645     -67.996  10.444  -5.926  1.00104.89 LIG-0.27  OA
BRANCH 18 20
ATOM     20  CA  ILE D 645     -67.803   9.117  -7.919  1.00 87.61 LIG 0.40  C 
ATOM     21  N   ILE D 645     -66.984   9.866  -8.920  1.00 97.17 LIG 0.61  N 
BRANCH 20 22
ATOM     22  CB  ILE D 645     -67.549   7.584  -7.955  1.00 83.91 LIG 0.03  C 
ATOM     23  CG2 ILE D 645     -68.713   6.833  -7.313  1.00 71.96 LIG 0.01  C 
BRANCH 22 24
ATOM     24  CG1 ILE D 645     -67.241   7.075  -9.376  1.00 78.38 LIG 0.00  C 
ATOM     25  CD1 ILE D 645     -68.346   7.329 -10.387  1.00 60.94 LIG 0.01  C 
ENDBRANCH 22 24
ENDBRANCH 20 22
ENDBRANCH 18 20
ENDBRANCH 15 16
BRANCH 15 26
ATOM     26  CB  LEU D 646     -66.262   7.611  -3.731  1.00 77.70 LIG 0.04  C 
BRANCH 26 27
ATOM     27  CG  LEU D 646     -67.594   7.329  -3.029  1.00 75.60 LIG-0.02  C 
ATOM     28  CD1 LEU D 646     -67.704   8.060  -1.697  1.00 71.06 LIG 0.01  C 
ATOM     29  CD2 LEU D 646     -68.742   7.704  -3.946  1.00 73.48 LIG 0.01  C 
ENDBRANCH 26 27
ENDBRANCH 15 26
ENDBRANCH 12 15
ENDBRANCH 6 11
ENDBRANCH 3 6
ENDBRANCH 1 2
BRANCH 1 30
ATOM     30  CB  THR D 648     -58.728   9.022  -5.968  1.00 65.76 LIG 0.15  C 
ATOM     31  CG2 THR D 648     -58.296  10.012  -4.885  1.00 59.42 LIG 0.04  C 
BRANCH 30 32
ATOM     32 OG1  THR D 648     -58.696   7.696  -5.422  1.00 66.48 LIG-0.39  OA
ATOM     33 HG1  THR D 648     -58.288   7.705  -4.688  1.00 66.48 LIG 0.21  HD
ENDBRANCH 30 32
ENDBRANCH 1 30
BRANCH 1 34
ATOM     34  C   THR D 648     -60.745   8.155  -7.315  1.00 62.56 LIG 0.24  C 
ATOM     35 O    THR D 648     -60.102   7.107  -7.452  1.00 59.73 LIG-0.27  OA
ATOM     36  N   PRO D 649     -61.986   8.321  -7.823  1.00 65.34 LIG-0.34  N 
ATOM     37  CA  PRO D 649     -62.638   7.297  -8.652  1.00 70.60 LIG 0.18  C 
ATOM     38  CD  PRO D 649     -62.907   9.427  -7.487  1.00 66.58 LIG 0.13  C 
ATOM     39  CB  PRO D 649     -64.103   7.750  -8.684  1.00 67.49 LIG 0.04  C 
ATOM     40  CG  PRO D 649     -64.061   9.218  -8.421  1.00 65.73 LIG 0.02  C 
BRANCH 37 41
ATOM     41  C   PRO D 649     -62.094   7.203 -10.082  1.00 77.20 LIG 0.24  C 
ATOM     42  N   ARG D 650     -63.007   7.140 -11.052  1.00 83.37 LIG-0.35  N 
ATOM     43 H    ARG D 650     -63.853   7.110 -10.901  1.00 83.37 LIG 0.16  HD
ATOM     44 O    PRO D 649     -60.875   7.201 -10.289  1.00 68.92 LIG-0.27  OA
BRANCH 42 45
ATOM     45  CA  ARG D 650     -62.657   7.116 -12.471  1.00 76.40 LIG 0.16  C 
BRANCH 45 46
ATOM     46  C   ARG D 650     -63.891   7.253 -13.355  1.00 81.79 LIG 0.22  C 
ATOM     47 O    ARG D 650     -65.003   6.929 -12.938  1.00 80.18 LIG-0.29  OA
ENDBRANCH 45 46
BRANCH 45 48
ATOM     48  CB  ARG D 650     -61.906   5.829 -12.807  1.00 77.84 LIG 0.04  C 
BRANCH 48 49
ATOM     49  CG  ARG D 650     -60.686   6.052 -13.685  1.00 87.31 LIG 0.02  C 
BRANCH 49 50
ATOM     50  CD  ARG D 650     -59.395   6.161 -12.885  1.00 89.00 LIG 0.14  C 
BRANCH 50 51
ATOM     51  NE  ARG D 650     -59.306   5.191 -11.794  1.00 88.84 LIG-0.23  N 
ATOM     52 HE   ARG D 650     -60.010   5.055 -11.320  1.00 88.84 LIG 0.18  HD
ATOM     53  CZ  ARG D 650     -58.208   4.503 -11.483  1.00 89.69 LIG 0.67  C 
ATOM     54  NH2 ARG D 650     -57.091   4.656 -12.188  1.00 88.97 LIG-0.23  N 
ATOM     55  NH1 ARG D 650     -58.228   3.649 -10.467  1.00 77.77 LIG-0.23  N 
ATOM     56 2HH2 ARG D 650     -56.387   4.208 -11.981  1.00 88.97 LIG 0.17  HD
ATOM     57 1HH2 ARG D 650     -57.073   5.203 -12.851  1.00 88.97 LIG 0.17  HD
ATOM     58 1HH1 ARG D 650     -58.949   3.540 -10.011  1.00 77.77 LIG 0.17  HD
ATOM     59 2HH1 ARG D 650     -57.520   3.204 -10.265  1.00 77.77 LIG 0.17  HD
ENDBRANCH 50 51
ENDBRANCH 49 50
ENDBRANCH 48 49
ENDBRANCH 45 48
ENDBRANCH 42 45
ENDBRANCH 37 41
ENDBRANCH 1 34
TORSDOF 22
ENDMDL
MODEL 3
USER: ADFR SOLUTION from run 147
USER: SCORE 18.372283 LL:  -4.322 LR: -16.270 RR:   0.000 FEB:  -9.708
USER: RMSD 3.574979
USER: SEED 146
USER: STATUS no improvement in best in 11 clusters for 5 generations
USER: GENES 24
USER: genes 0 Translation |==|  0.37784 0.54907 0.60191
USER: genes 1 Rotation |==|  0.48828 0.49784 0.47378 0.99917
USER: genes 2 Torsion [CB]-CA--N-[C] |==|  0.42650
USER: genes 3 Torsion [N]-C--CA-[N] |==|  0.94703
USER: genes 4 Torsion [C]-CA--CB-[CG] |==|  0.58787
USER: genes 5 Torsion [CA]-CB--CG-[CD2] |==|  0.69344
USER: genes 6 Torsion [C]-CA--N-[C] |==|  0.67240
USER: genes 7 Torsion [N]-C--CA-[N] |==|  0.92000
USER: genes 8 Torsion [C]-CA--N-[C] |==|  0.63889
USER: genes 9 Torsion [N]-C--CA-[N] |==|  0.38095
USER: genes 10 Torsion [C]-CA--CB-[CG2] |==|  0.06715
USER: genes 11 Torsion [CA]-CB--CG1-[CD1] |==|  0.02435
USER: genes 12 Torsion [C]-CA--CB-[CG] |==|  0.88891
USER: genes 13 Torsion [CA]-CB--CG-[CD1] |==|  0.32708
USER: genes 14 Torsion [N]-CA--CB-[CG2] |==|  0.80941
USER: genes 15 Torsion [CA]-CB--OG1-[HG1] |==|  0.75435
USER: genes 16 Torsion [N]-CA--C-[N] |==|  0.33091
USER: genes 17 Torsion [N]-CA--C-[N] |==|  0.43113
USER: genes 18 Torsion [C]-N--CA-[C] |==|  0.80786
USER: genes 19 Torsion [N]-CA--C-[O] |==|  0.90903
USER: genes 20 Torsion [N]-CA--CB-[CG] |==|  0.42655
USER: genes 21 Torsion [CA]-CB--CG-[CD] |==|  0.74069
USER: genes 22 Torsion [CB]-CG--CD-[NE] |==|  0.63943
USER: genes 23 Torsion [CG]-CD--NE-[HE] |==|  0.08463
ROOT
ATOM      1  CA  THR D 648     -65.010  10.352  -5.992  1.00 62.87 LIG 0.20  C 
ENDROOT
BRANCH 1 2
ATOM      2  N   THR D 648     -63.726  10.133  -5.330  1.00 56.91 LIG-0.34  N 
ATOM      3  C   LEU D 647     -63.535   9.133  -4.476  1.00 59.35 LIG 0.24  C 
ATOM      4 O    LEU D 647     -64.413   8.316  -4.193  1.00 56.20 LIG-0.27  OA
ATOM      5 H    THR D 648     -63.118  10.703  -5.542  1.00 56.91 LIG 0.16  HD
BRANCH 3 6
ATOM      6  CA  LEU D 647     -62.149   9.038  -3.864  1.00 55.15 LIG 0.18  C 
BRANCH 6 7
ATOM      7  CB  LEU D 647     -62.221   9.468  -2.364  1.00 49.69 LIG 0.04  C 
BRANCH 7 8
ATOM      8  CG  LEU D 647     -61.038  10.159  -1.673  1.00 48.41 LIG-0.02  C 
ATOM      9  CD2 LEU D 647     -60.362   9.279  -0.633  1.00 46.46 LIG 0.01  C 
ATOM     10  CD1 LEU D 647     -61.501  11.456  -1.028  1.00 42.39 LIG 0.01  C 
ENDBRANCH 7 8
ENDBRANCH 6 7
BRANCH 6 11
ATOM     11  N   LEU D 647     -61.155   9.764  -4.623  1.00 57.83 LIG-0.35  N 
ATOM     12  C   LEU D 646     -60.121   9.132  -5.181  1.00 69.64 LIG 0.24  C 
ATOM     13 O    LEU D 646     -59.941   7.918  -5.051  1.00 59.31 LIG-0.27  OA
ATOM     14 H    LEU D 647     -61.291  10.612  -4.677  1.00 57.83 LIG 0.16  HD
BRANCH 12 15
ATOM     15  CA  LEU D 646     -59.133   9.969  -6.053  1.00 75.89 LIG 0.18  C 
BRANCH 15 16
ATOM     16  N   LEU D 646     -59.652  11.123  -6.723  1.00 90.15 LIG-0.35  N 
ATOM     17 H    LEU D 646     -60.102  11.657  -6.221  1.00 90.15 LIG 0.16  HD
ATOM     18  C   ILE D 645     -59.437  11.323  -8.023  1.00 94.17 LIG 0.26  C 
ATOM     19 O    ILE D 645     -58.746  10.567  -8.716  1.00104.89 LIG-0.27  OA
BRANCH 18 20
ATOM     20  CA  ILE D 645     -60.087  12.560  -8.634  1.00 87.61 LIG 0.40  C 
ATOM     21  N   ILE D 645     -59.186  13.307  -9.564  1.00 97.17 LIG 0.61  N 
BRANCH 20 22
ATOM     22  CB  ILE D 645     -61.333  11.964  -9.346  1.00 83.91 LIG 0.03  C 
ATOM     23  CG2 ILE D 645     -61.738  10.642  -8.700  1.00 71.96 LIG 0.01  C 
BRANCH 22 24
ATOM     24  CG1 ILE D 645     -62.503  12.963  -9.412  1.00 78.38 LIG 0.00  C 
ATOM     25  CD1 ILE D 645     -62.149  14.374  -8.971  1.00 60.94 LIG 0.01  C 
ENDBRANCH 22 24
ENDBRANCH 20 22
ENDBRANCH 18 20
ENDBRANCH 15 16
BRANCH 15 26
ATOM     26  CB  LEU D 646     -57.968  10.438  -5.157  1.00 77.70 LIG 0.04  C 
BRANCH 26 27
ATOM     27  CG  LEU D 646     -58.342  10.890  -3.742  1.00 75.60 LIG-0.02  C 
ATOM     28  CD1 LEU D 646     -57.697  10.017  -2.673  1.00 71.06 LIG 0.01  C 
ATOM     29  CD2 LEU D 646     -57.958  12.344  -3.553  1.00 73.48 LIG 0.01  C 
ENDBRANCH 26 27
ENDBRANCH 15 26
ENDBRANCH 12 15
ENDBRANCH 6 11
ENDBRANCH 3 6
ENDBRANCH 1 2
BRANCH 1 30
ATOM     30  CB  THR D 648     -65.188  11.845  -6.370  1.00 65.76 LIG 0.15  C 
ATOM     31  CG2 THR D 648     -65.355  12.735  -5.138  1.00 59.42 LIG 0.04  C 
BRANCH 30 32
ATOM     32 OG1  THR D 648     -64.038  12.285  -7.106  1.00 66.48 LIG-0.39  OA
ATOM     33 HG1  THR D 648     -63.453  12.564  -6.572  1.00 66.48 LIG 0.21  HD
ENDBRANCH 30 32
ENDBRANCH 1 30
BRANCH 1 34
ATOM     34  C   THR D 648     -65.149   9.409  -7.205  1.00 62.56 LIG 0.24  C 
ATOM     35 O    THR D 648     -64.320   9.452  -8.121  1.00 59.73 LIG-0.27  OA
ATOM     36  N   PRO D 649     -66.174   8.528  -7.190  1.00 65.34 LIG-0.34  N 
ATOM     37  CA  PRO D 649     -66.432   7.605  -8.305  1.00 70.60 LIG 0.18  C 
ATOM     38  CD  PRO D 649     -67.040   8.244  -6.026  1.00 66.58 LIG 0.13  C 
ATOM     39  CB  PRO D 649     -67.420   6.596  -7.705  1.00 67.49 LIG 0.04  C 
ATOM     40  CG  PRO D 649     -68.084   7.322  -6.584  1.00 65.73 LIG 0.02  C 
BRANCH 37 41
ATOM     41  C   PRO D 649     -67.055   8.267  -9.539  1.00 77.20 LIG 0.24  C 
ATOM     42  N   ARG D 650     -66.843   7.650 -10.702  1.00 83.37 LIG-0.35  N 
ATOM     43 H    ARG D 650     -66.355   6.946 -10.781  1.00 83.37 LIG 0.16  HD
ATOM     44 O    PRO D 649     -67.718   9.304  -9.426  1.00 68.92 LIG-0.27  OA
BRANCH 42 45
ATOM     45  CA  ARG D 650     -67.423   8.112 -11.962  1.00 76.40 LIG 0.16  C 
BRANCH 45 46
ATOM     46  C   ARG D 650     -68.933   7.908 -11.993  1.00 81.79 LIG 0.22  C 
ATOM     47 O    ARG D 650     -69.451   6.954 -11.413  1.00 80.18 LIG-0.29  OA
ENDBRANCH 45 46
BRANCH 45 48
ATOM     48  CB  ARG D 650     -66.768   7.391 -13.139  1.00 77.84 LIG 0.04  C 
BRANCH 48 49
ATOM     49  CG  ARG D 650     -67.662   7.295 -14.364  1.00 87.31 LIG 0.02  C 
BRANCH 49 50
ATOM     50  CD  ARG D 650     -68.457   5.997 -14.413  1.00 89.00 LIG 0.14  C 
BRANCH 50 51
ATOM     51  NE  ARG D 650     -68.353   5.302 -15.697  1.00 88.84 LIG-0.23  N 
ATOM     52 HE   ARG D 650     -67.624   5.393 -16.143  1.00 88.84 LIG 0.18  HD
ATOM     53  CZ  ARG D 650     -69.310   4.537 -16.221  1.00 89.69 LIG 0.67  C 
ATOM     54  NH2 ARG D 650     -70.453   4.344 -15.571  1.00 88.97 LIG-0.23  N 
ATOM     55  NH1 ARG D 650     -69.120   3.954 -17.398  1.00 77.77 LIG-0.23  N 
ATOM     56 2HH2 ARG D 650     -71.066   3.848 -15.916  1.00 88.97 LIG 0.17  HD
ATOM     57 1HH2 ARG D 650     -70.580   4.713 -14.805  1.00 88.97 LIG 0.17  HD
ATOM     58 1HH1 ARG D 650     -68.381   4.071 -17.821  1.00 77.77 LIG 0.17  HD
ATOM     59 2HH1 ARG D 650     -69.737   3.461 -17.738  1.00 77.77 LIG 0.17  HD
ENDBRANCH 50 51
ENDBRANCH 49 50
ENDBRANCH 48 49
ENDBRANCH 45 48
ENDBRANCH 42 45
ENDBRANCH 37 41
ENDBRANCH 1 34
TORSDOF 22
ENDMDL
MODEL 4
USER: ADFR SOLUTION from run 104
USER: SCORE 19.391517 LL:  -4.217 LR: -16.264 RR:   0.000 FEB:  -9.701
USER: RMSD 7.758237
USER: SEED 103
USER: STATUS 1 or 2 clusters left
USER: GENES 24
USER: genes 0 Translation |==|  0.59214 0.48075 0.59072
USER: genes 1 Rotation |==|  0.41645 0.18264 0.15460 0.65167
USER: genes 2 Torsion [CB]-CA--N-[C] |==|  0.78889
USER: genes 3 Torsion [N]-C--CA-[N] |==|  0.35556
USER: genes 4 Torsion [C]-CA--CB-[CG] |==|  0.09985
USER: genes 5 Torsion [CA]-CB--CG-[CD2] |==|  0.71172
USER: genes 6 Torsion [C]-CA--N-[C] |==|  0.72399
USER: genes 7 Torsion [N]-C--CA-[N] |==|  0.26218
USER: genes 8 Torsion [C]-CA--N-[C] |==|  0.66370
USER: genes 9 Torsion [N]-C--CA-[N] |==|  0.32586
USER: genes 10 Torsion [C]-CA--CB-[CG2] |==|  0.12656
USER: genes 11 Torsion [CA]-CB--CG1-[CD1] |==|  0.87650
USER: genes 12 Torsion [C]-CA--CB-[CG] |==|  0.42262
USER: genes 13 Torsion [CA]-CB--CG-[CD1] |==|  0.36927
USER: genes 14 Torsion [N]-CA--CB-[CG2] |==|  0.88958
USER: genes 15 Torsion [CA]-CB--OG1-[HG1] |==|  0.92954
USER: genes 16 Torsion [N]-CA--C-[N] |==|  0.12829
USER: genes 17 Torsion [N]-CA--C-[N] |==|  0.60029
USER: genes 18 Torsion [C]-N--CA-[C] |==|  0.49687
USER: genes 19 Torsion [N]-CA--C-[O] |==|  0.05216
USER: genes 20 Torsion [N]-CA--CB-[CG] |==|  0.67751
USER: genes 21 Torsion [CA]-CB--CG-[CD] |==|  0.35593
USER: genes 22 Torsion [CB]-CG--CD-[NE] |==|  0.21783
USER: genes 23 Torsion [CG]-CD--NE-[HE] |==|  0.23835
ROOT
ATOM      1  CA  THR D 648     -60.349   9.276  -6.261  1.00 62.87 LIG 0.20  C 
ENDROOT
BRANCH 1 2
ATOM      2  N   THR D 648     -61.513   9.636  -5.454  1.00 56.91 LIG-0.34  N 
ATOM      3  C   LEU D 647     -62.193   8.731  -4.756  1.00 59.35 LIG 0.24  C 
ATOM      4 O    LEU D 647     -61.887   7.539  -4.726  1.00 56.20 LIG-0.27  OA
ATOM      5 H    THR D 648     -61.712  10.472  -5.474  1.00 56.91 LIG 0.16  HD
BRANCH 3 6
ATOM      6  CA  LEU D 647     -63.382   9.256  -3.971  1.00 55.15 LIG 0.18  C 
BRANCH 6 7
ATOM      7  CB  LEU D 647     -63.011   9.310  -2.454  1.00 49.69 LIG 0.04  C 
BRANCH 7 8
ATOM      8  CG  LEU D 647     -61.597   9.681  -1.991  1.00 48.41 LIG-0.02  C 
ATOM      9  CD2 LEU D 647     -60.787   8.477  -1.535  1.00 46.46 LIG 0.01  C 
ATOM     10  CD1 LEU D 647     -61.672  10.705  -0.869  1.00 42.39 LIG 0.01  C 
ENDBRANCH 7 8
ENDBRANCH 6 7
BRANCH 6 11
ATOM     11  N   LEU D 647     -64.596   8.516  -4.240  1.00 57.83 LIG-0.35  N 
ATOM     12  C   LEU D 646     -65.509   8.983  -5.094  1.00 69.64 LIG 0.24  C 
ATOM     13 O    LEU D 646     -65.385  10.071  -5.662  1.00 59.31 LIG-0.27  OA
ATOM     14 H    LEU D 647     -64.667   7.774  -3.811  1.00 57.83 LIG 0.16  HD
BRANCH 12 15
ATOM     15  CA  LEU D 646     -66.755   8.092  -5.394  1.00 75.89 LIG 0.18  C 
BRANCH 15 16
ATOM     16  N   LEU D 646     -67.939   8.324  -4.623  1.00 90.15 LIG-0.35  N 
ATOM     17 H    LEU D 646     -68.255   9.121  -4.682  1.00 90.15 LIG 0.16  HD
ATOM     18  C   ILE D 645     -68.481   7.357  -3.882  1.00 94.17 LIG 0.26  C 
ATOM     19 O    ILE D 645     -68.037   6.204  -3.849  1.00104.89 LIG-0.27  OA
BRANCH 18 20
ATOM     20  CA  ILE D 645     -69.708   7.740  -3.063  1.00 87.61 LIG 0.40  C 
ATOM     21  N   ILE D 645     -70.942   6.992  -3.453  1.00 97.17 LIG 0.61  N 
BRANCH 20 22
ATOM     22  CB  ILE D 645     -69.248   7.435  -1.611  1.00 83.91 LIG 0.03  C 
ATOM     23  CG2 ILE D 645     -67.844   7.981  -1.367  1.00 71.96 LIG 0.01  C 
BRANCH 22 24
ATOM     24  CG1 ILE D 645     -70.258   7.933  -0.559  1.00 78.38 LIG 0.00  C 
ATOM     25  CD1 ILE D 645     -70.794   9.331  -0.817  1.00 60.94 LIG 0.01  C 
ENDBRANCH 22 24
ENDBRANCH 20 22
ENDBRANCH 18 20
ENDBRANCH 15 16
BRANCH 15 26
ATOM     26  CB  LEU D 646     -67.130   8.263  -6.881  1.00 77.70 LIG 0.04  C 
BRANCH 26 27
ATOM     27  CG  LEU D 646     -67.831   7.073  -7.544  1.00 75.60 LIG-0.02  C 
ATOM     28  CD1 LEU D 646     -69.054   7.504  -8.344  1.00 71.06 LIG 0.01  C 
ATOM     29  CD2 LEU D 646     -66.848   6.327  -8.423  1.00 73.48 LIG 0.01  C 
ENDBRANCH 26 27
ENDBRANCH 15 26
ENDBRANCH 12 15
ENDBRANCH 6 11
ENDBRANCH 3 6
ENDBRANCH 1 2
BRANCH 1 30
ATOM     30  CB  THR D 648     -59.110   9.031  -5.361  1.00 65.76 LIG 0.15  C 
ATOM     31  CG2 THR D 648     -59.025  10.037  -4.212  1.00 59.42 LIG 0.04  C 
BRANCH 30 32
ATOM     32 OG1  THR D 648     -59.180   7.708  -4.813  1.00 66.48 LIG-0.39  OA
ATOM     33 HG1  THR D 648     -59.982   7.458  -4.782  1.00 66.48 LIG 0.21  HD
ENDBRANCH 30 32
ENDBRANCH 1 30
BRANCH 1 34
ATOM     34  C   THR D 648     -60.680   8.068  -7.161  1.00 62.56 LIG 0.24  C 
ATOM     35 O    THR D 648     -59.907   7.104  -7.214  1.00 59.73 LIG-0.27  OA
ATOM     36  N   PRO D 649     -61.850   8.102  -7.836  1.00 65.34 LIG-0.34  N 
ATOM     37  CA  PRO D 649     -62.258   7.028  -8.754  1.00 70.60 LIG 0.18  C 
ATOM     38  CD  PRO D 649     -62.932   9.088  -7.625  1.00 66.58 LIG 0.13  C 
ATOM     39  CB  PRO D 649     -63.747   7.311  -8.987  1.00 67.49 LIG 0.04  C 
ATOM     40  CG  PRO D 649     -63.914   8.769  -8.712  1.00 65.73 LIG 0.02  C 
BRANCH 37 41
ATOM     41  C   PRO D 649     -61.516   7.030 -10.095  1.00 77.20 LIG 0.24  C 
ATOM     42  N   ARG D 650     -62.234   6.677 -11.161  1.00 83.37 LIG-0.35  N 
ATOM     43 H    ARG D 650     -63.053   6.420 -11.114  1.00 83.37 LIG 0.16  HD
ATOM     44 O    PRO D 649     -60.324   7.356 -10.150  1.00 68.92 LIG-0.27  OA
BRANCH 42 45
ATOM     45  CA  ARG D 650     -61.696   6.692 -12.521  1.00 76.40 LIG 0.16  C 
BRANCH 45 46
ATOM     46  C   ARG D 650     -62.727   6.215 -13.537  1.00 81.79 LIG 0.22  C 
ATOM     47 O    ARG D 650     -63.926   6.204 -13.259  1.00 80.18 LIG-0.29  OA
ENDBRANCH 45 46
BRANCH 45 48
ATOM     48  CB  ARG D 650     -60.438   5.830 -12.599  1.00 77.84 LIG 0.04  C 
BRANCH 48 49
ATOM     49  CG  ARG D 650     -59.184   6.618 -12.939  1.00 87.31 LIG 0.02  C 
BRANCH 49 50
ATOM     50  CD  ARG D 650     -58.046   6.366 -11.959  1.00 89.00 LIG 0.14  C 
BRANCH 50 51
ATOM     51  NE  ARG D 650     -57.345   5.103 -12.197  1.00 88.84 LIG-0.23  N 
ATOM     52 HE   ARG D 650     -56.707   5.102 -12.772  1.00 88.84 LIG 0.18  HD
ATOM     53  CZ  ARG D 650     -57.629   3.955 -11.583  1.00 89.69 LIG 0.67  C 
ATOM     54  NH2 ARG D 650     -58.594   3.896 -10.671  1.00 88.97 LIG-0.23  N 
ATOM     55  NH1 ARG D 650     -56.937   2.860 -11.875  1.00 77.77 LIG-0.23  N 
ATOM     56 2HH2 ARG D 650     -58.771   3.151 -10.280  1.00 88.97 LIG 0.17  HD
ATOM     57 1HH2 ARG D 650     -59.042   4.603 -10.473  1.00 88.97 LIG 0.17  HD
ATOM     58 1HH1 ARG D 650     -56.307   2.893 -12.460  1.00 77.77 LIG 0.17  HD
ATOM     59 2HH1 ARG D 650     -57.119   2.119 -11.480  1.00 77.77 LIG 0.17  HD
ENDBRANCH 50 51
ENDBRANCH 49 50
ENDBRANCH 48 49
ENDBRANCH 45 48
ENDBRANCH 42 45
ENDBRANCH 37 41
ENDBRANCH 1 34
TORSDOF 22
ENDMDL
MODEL 5
USER: ADFR SOLUTION from run 73
USER: SCORE 18.265992 LL:  -4.341 LR: -15.856 RR:   0.000 FEB:  -9.293
USER: RMSD 3.463288
USER: SEED 72
USER: STATUS no improvement in best in 7 clusters for 5 generations
USER: GENES 24
USER: genes 0 Translation |==|  0.40291 0.52751 0.60600
USER: genes 1 Rotation |==|  0.45949 0.46966 0.53139 0.99644
USER: genes 2 Torsion [CB]-CA--N-[C] |==|  0.38461
USER: genes 3 Torsion [N]-C--CA-[N] |==|  0.93521
USER: genes 4 Torsion [C]-CA--CB-[CG] |==|  0.43821
USER: genes 5 Torsion [CA]-CB--CG-[CD2] |==|  0.94362
USER: genes 6 Torsion [C]-CA--N-[C] |==|  0.73333
USER: genes 7 Torsion [N]-C--CA-[N] |==|  0.87799
USER: genes 8 Torsion [C]-CA--N-[C] |==|  0.84573
USER: genes 9 Torsion [N]-C--CA-[N] |==|  0.91728
USER: genes 10 Torsion [C]-CA--CB-[CG2] |==|  0.38155
USER: genes 11 Torsion [CA]-CB--CG1-[CD1] |==|  0.69127
USER: genes 12 Torsion [C]-CA--CB-[CG] |==|  0.95358
USER: genes 13 Torsion [CA]-CB--CG-[CD1] |==|  0.31660
USER: genes 14 Torsion [N]-CA--CB-[CG2] |==|  0.81586
USER: genes 15 Torsion [CA]-CB--OG1-[HG1] |==|  0.85721
USER: genes 16 Torsion [N]-CA--C-[N] |==|  0.50260
USER: genes 17 Torsion [N]-CA--C-[N] |==|  0.37083
USER: genes 18 Torsion [C]-N--CA-[C] |==|  0.67878
USER: genes 19 Torsion [N]-CA--C-[O] |==|  0.87877
USER: genes 20 Torsion [N]-CA--CB-[CG] |==|  0.30832
USER: genes 21 Torsion [CA]-CB--CG-[CD] |==|  0.53996
USER: genes 22 Torsion [CB]-CG--CD-[NE] |==|  0.51166
USER: genes 23 Torsion [CG]-CD--NE-[HE] |==|  0.16561
ROOT
ATOM      1  CA  THR D 648     -64.465  10.012  -5.894  1.00 62.87 LIG 0.20  C 
ENDROOT
BRANCH 1 2
ATOM      2  N   THR D 648     -63.249  10.176  -5.101  1.00 56.91 LIG-0.34  N 
ATOM      3  C   LEU D 647     -63.074   9.550  -3.941  1.00 59.35 LIG 0.24  C 
ATOM      4 O    LEU D 647     -63.910   8.784  -3.461  1.00 56.20 LIG-0.27  OA
ATOM      5 H    THR D 648     -62.668  10.705  -5.450  1.00 56.91 LIG 0.16  HD
BRANCH 3 6
ATOM      6  CA  LEU D 647     -61.761   9.824  -3.229  1.00 55.15 LIG 0.18  C 
BRANCH 6 7
ATOM      7  CB  LEU D 647     -62.016  10.812  -2.046  1.00 49.69 LIG 0.04  C 
BRANCH 7 8
ATOM      8  CG  LEU D 647     -61.052  10.898  -0.856  1.00 48.41 LIG-0.02  C 
ATOM      9  CD2 LEU D 647     -60.179   9.661  -0.709  1.00 46.46 LIG 0.01  C 
ATOM     10  CD1 LEU D 647     -61.834  11.132   0.427  1.00 42.39 LIG 0.01  C 
ENDBRANCH 7 8
ENDBRANCH 6 7
BRANCH 6 11
ATOM     11  N   LEU D 647     -60.721  10.266  -4.133  1.00 57.83 LIG-0.35  N 
ATOM     12  C   LEU D 646     -59.837   9.402  -4.635  1.00 69.64 LIG 0.24  C 
ATOM     13 O    LEU D 646     -59.837   8.207  -4.332  1.00 59.31 LIG-0.27  OA
ATOM     14 H    LEU D 647     -60.730  11.108  -4.307  1.00 57.83 LIG 0.16  HD
BRANCH 12 15
ATOM     15  CA  LEU D 646     -58.793   9.938  -5.665  1.00 75.89 LIG 0.18  C 
BRANCH 15 16
ATOM     16  N   LEU D 646     -59.264  10.816  -6.693  1.00 90.15 LIG-0.35  N 
ATOM     17 H    LEU D 646     -58.857  11.573  -6.733  1.00 90.15 LIG 0.16  HD
ATOM     18  C   ILE D 645     -60.259  10.459  -7.505  1.00 94.17 LIG 0.26  C 
ATOM     19 O    ILE D 645     -60.799   9.348  -7.461  1.00104.89 LIG-0.27  OA
BRANCH 18 20
ATOM     20  CA  ILE D 645     -60.708  11.501  -8.524  1.00 87.61 LIG 0.40  C 
ATOM     21  N   ILE D 645     -60.520  12.908  -8.058  1.00 97.17 LIG 0.61  N 
BRANCH 20 22
ATOM     22  CB  ILE D 645     -59.840  11.152  -9.763  1.00 83.91 LIG 0.03  C 
ATOM     23  CG2 ILE D 645     -60.675  11.215 -11.039  1.00 71.96 LIG 0.01  C 
BRANCH 22 24
ATOM     24  CG1 ILE D 645     -58.572  12.022  -9.854  1.00 78.38 LIG 0.00  C 
ATOM     25  CD1 ILE D 645     -58.570  13.010 -11.008  1.00 60.94 LIG 0.01  C 
ENDBRANCH 22 24
ENDBRANCH 20 22
ENDBRANCH 18 20
ENDBRANCH 15 16
BRANCH 15 26
ATOM     26  CB  LEU D 646     -57.682  10.679  -4.894  1.00 77.70 LIG 0.04  C 
BRANCH 26 27
ATOM     27  CG  LEU D 646     -58.009  11.078  -3.452  1.00 75.60 LIG-0.02  C 
ATOM     28  CD1 LEU D 646     -57.145  10.331  -2.443  1.00 71.06 LIG 0.01  C 
ATOM     29  CD2 LEU D 646     -57.853  12.577  -3.289  1.00 73.48 LIG 0.01  C 
ENDBRANCH 26 27
ENDBRANCH 15 26
ENDBRANCH 12 15
ENDBRANCH 6 11
ENDBRANCH 3 6
ENDBRANCH 1 2
BRANCH 1 30
ATOM     30  CB  THR D 648     -64.927  11.371  -6.481  1.00 65.76 LIG 0.15  C 
ATOM     31  CG2 THR D 648     -65.375  12.346  -5.391  1.00 59.42 LIG 0.04  C 
BRANCH 30 32
ATOM     32 OG1  THR D 648     -63.844  11.961  -7.213  1.00 66.48 LIG-0.39  OA
ATOM     33 HG1  THR D 648     -63.155  11.976  -6.732  1.00 66.48 LIG 0.21  HD
ENDBRANCH 30 32
ENDBRANCH 1 30
BRANCH 1 34
ATOM     34  C   THR D 648     -64.250   8.937  -6.978  1.00 62.56 LIG 0.24  C 
ATOM     35 O    THR D 648     -63.180   8.319  -7.036  1.00 59.73 LIG-0.27  OA
ATOM     36  N   PRO D 649     -65.284   8.682  -7.811  1.00 65.34 LIG-0.34  N 
ATOM     37  CA  PRO D 649     -65.187   7.707  -8.907  1.00 70.60 LIG 0.18  C 
ATOM     38  CD  PRO D 649     -66.663   9.187  -7.641  1.00 66.58 LIG 0.13  C 
ATOM     39  CB  PRO D 649     -66.649   7.499  -9.323  1.00 67.49 LIG 0.04  C 
ATOM     40  CG  PRO D 649     -67.355   8.741  -8.895  1.00 65.73 LIG 0.02  C 
BRANCH 37 41
ATOM     41  C   PRO D 649     -64.371   8.191 -10.112  1.00 77.20 LIG 0.24  C 
ATOM     42  N   ARG D 650     -63.478   7.330 -10.597  1.00 83.37 LIG-0.35  N 
ATOM     43 H    ARG D 650     -63.324   6.560 -10.244  1.00 83.37 LIG 0.16  HD
ATOM     44 O    PRO D 649     -64.565   9.316 -10.587  1.00 68.92 LIG-0.27  OA
BRANCH 42 45
ATOM     45  CA  ARG D 650     -62.668   7.609 -11.782  1.00 76.40 LIG 0.16  C 
BRANCH 45 46
ATOM     46  C   ARG D 650     -62.990   6.648 -12.920  1.00 81.79 LIG 0.22  C 
ATOM     47 O    ARG D 650     -63.131   5.444 -12.707  1.00 80.18 LIG-0.29  OA
ENDBRANCH 45 46
BRANCH 45 48
ATOM     48  CB  ARG D 650     -61.183   7.537 -11.433  1.00 77.84 LIG 0.04  C 
BRANCH 48 49
ATOM     49  CG  ARG D 650     -60.470   6.351 -12.062  1.00 87.31 LIG 0.02  C 
BRANCH 49 50
ATOM     50  CD  ARG D 650     -59.104   6.089 -11.443  1.00 89.00 LIG 0.14  C 
BRANCH 50 51
ATOM     51  NE  ARG D 650     -58.365   5.012 -12.102  1.00 88.84 LIG-0.23  N 
ATOM     52 HE   ARG D 650     -58.186   5.103 -12.938  1.00 88.84 LIG 0.18  HD
ATOM     53  CZ  ARG D 650     -57.950   3.900 -11.496  1.00 89.69 LIG 0.67  C 
ATOM     54  NH2 ARG D 650     -58.182   3.709 -10.202  1.00 88.97 LIG-0.23  N 
ATOM     55  NH1 ARG D 650     -57.292   2.977 -12.187  1.00 77.77 LIG-0.23  N 
ATOM     56 2HH2 ARG D 650     -57.910   2.988  -9.818  1.00 88.97 LIG 0.17  HD
ATOM     57 1HH2 ARG D 650     -58.603   4.305  -9.747  1.00 88.97 LIG 0.17  HD
ATOM     58 1HH1 ARG D 650     -57.133   3.098 -13.023  1.00 77.77 LIG 0.17  HD
ATOM     59 2HH1 ARG D 650     -57.023   2.259 -11.797  1.00 77.77 LIG 0.17  HD
ENDBRANCH 50 51
ENDBRANCH 49 50
ENDBRANCH 48 49
ENDBRANCH 45 48
ENDBRANCH 42 45
ENDBRANCH 37 41
ENDBRANCH 1 34
TORSDOF 22
ENDMDL
MODEL 6
USER: ADFR SOLUTION from run 93
USER: SCORE 17.811646 LL:  -3.989 LR: -15.727 RR:   0.000 FEB:  -9.164
USER: RMSD 5.522841
USER: SEED 92
USER: STATUS no improvement in best in 8 clusters for 5 generations
USER: GENES 24
USER: genes 0 Translation |==|  0.41201 0.43737 0.51509
USER: genes 1 Rotation |==|  0.29167 0.41367 0.14253 0.76714
USER: genes 2 Torsion [CB]-CA--N-[C] |==|  0.48373
USER: genes 3 Torsion [N]-C--CA-[N] |==|  0.20699
USER: genes 4 Torsion [C]-CA--CB-[CG] |==|  0.23335
USER: genes 5 Torsion [CA]-CB--CG-[CD2] |==|  0.75464
USER: genes 6 Torsion [C]-CA--N-[C] |==|  0.78223
USER: genes 7 Torsion [N]-C--CA-[N] |==|  0.68600
USER: genes 8 Torsion [C]-CA--N-[C] |==|  0.68778
USER: genes 9 Torsion [N]-C--CA-[N] |==|  0.95474
USER: genes 10 Torsion [C]-CA--CB-[CG2] |==|  0.90356
USER: genes 11 Torsion [CA]-CB--CG1-[CD1] |==|  0.10430
USER: genes 12 Torsion [C]-CA--CB-[CG] |==|  0.32309
USER: genes 13 Torsion [CA]-CB--CG-[CD1] |==|  0.02532
USER: genes 14 Torsion [N]-CA--CB-[CG2] |==|  0.89291
USER: genes 15 Torsion [CA]-CB--OG1-[HG1] |==|  0.19494
USER: genes 16 Torsion [N]-CA--C-[N] |==|  0.36112
USER: genes 17 Torsion [N]-CA--C-[N] |==|  0.92717
USER: genes 18 Torsion [C]-N--CA-[C] |==|  0.56938
USER: genes 19 Torsion [N]-CA--C-[O] |==|  0.06841
USER: genes 20 Torsion [N]-CA--CB-[CG] |==|  0.71085
USER: genes 21 Torsion [CA]-CB--CG-[CD] |==|  0.58838
USER: genes 22 Torsion [CB]-CG--CD-[NE] |==|  0.48469
USER: genes 23 Torsion [CG]-CD--NE-[HE] |==|  0.18524
ROOT
ATOM      1  CA  THR D 648     -64.267   8.593  -8.076  1.00 62.87 LIG 0.20  C 
ENDROOT
BRANCH 1 2
ATOM      2  N   THR D 648     -64.212   8.269  -6.652  1.00 56.91 LIG-0.34  N 
ATOM      3  C   LEU D 647     -65.111   8.732  -5.789  1.00 59.35 LIG 0.24  C 
ATOM      4 O    LEU D 647     -66.055   9.449  -6.124  1.00 56.20 LIG-0.27  OA
ATOM      5 H    THR D 648     -63.555   7.760  -6.430  1.00 56.91 LIG 0.16  HD
BRANCH 3 6
ATOM      6  CA  LEU D 647     -64.919   8.314  -4.342  1.00 55.15 LIG 0.18  C 
BRANCH 6 7
ATOM      7  CB  LEU D 647     -66.278   8.454  -3.584  1.00 49.69 LIG 0.04  C 
BRANCH 7 8
ATOM      8  CG  LEU D 647     -67.335   7.343  -3.627  1.00 48.41 LIG-0.02  C 
ATOM      9  CD2 LEU D 647     -68.291   7.478  -4.801  1.00 46.46 LIG 0.01  C 
ATOM     10  CD1 LEU D 647     -68.120   7.325  -2.324  1.00 42.39 LIG 0.01  C 
ENDBRANCH 7 8
ENDBRANCH 6 7
BRANCH 6 11
ATOM     11  N   LEU D 647     -63.828   9.014  -3.701  1.00 57.83 LIG-0.35  N 
ATOM     12  C   LEU D 646     -62.561   8.657  -3.919  1.00 69.64 LIG 0.24  C 
ATOM     13 O    LEU D 646     -62.260   7.701  -4.639  1.00 59.31 LIG-0.27  OA
ATOM     14 H    LEU D 647     -64.068   9.659  -3.185  1.00 57.83 LIG 0.16  HD
BRANCH 12 15
ATOM     15  CA  LEU D 646     -61.434   9.509  -3.255  1.00 75.89 LIG 0.18  C 
BRANCH 15 16
ATOM     16  N   LEU D 646     -60.579  10.266  -4.119  1.00 90.15 LIG-0.35  N 
ATOM     17 H    LEU D 646     -60.966  10.917  -4.527  1.00 90.15 LIG 0.16  HD
ATOM     18  C   ILE D 645     -59.289   9.959  -4.256  1.00 94.17 LIG 0.26  C 
ATOM     19 O    ILE D 645     -58.742   9.049  -3.623  1.00104.89 LIG-0.27  OA
BRANCH 18 20
ATOM     20  CA  ILE D 645     -58.494  10.805  -5.245  1.00 87.61 LIG 0.40  C 
ATOM     21  N   ILE D 645     -59.353  11.588  -6.185  1.00 97.17 LIG 0.61  N 
BRANCH 20 22
ATOM     22  CB  ILE D 645     -57.646  11.706  -4.306  1.00 83.91 LIG 0.03  C 
ATOM     23  CG2 ILE D 645     -58.432  12.058  -3.046  1.00 71.96 LIG 0.01  C 
BRANCH 22 24
ATOM     24  CG1 ILE D 645     -56.273  11.086  -3.982  1.00 78.38 LIG 0.00  C 
ATOM     25  CD1 ILE D 645     -55.627  10.350  -5.144  1.00 60.94 LIG 0.01  C 
ENDBRANCH 22 24
ENDBRANCH 20 22
ENDBRANCH 18 20
ENDBRANCH 15 16
BRANCH 15 26
ATOM     26  CB  LEU D 646     -62.087  10.497  -2.267  1.00 77.70 LIG 0.04  C 
BRANCH 26 27
ATOM     27  CG  LEU D 646     -61.724  10.317  -0.790  1.00 75.60 LIG-0.02  C 
ATOM     28  CD1 LEU D 646     -60.593   9.314  -0.597  1.00 71.06 LIG 0.01  C 
ATOM     29  CD2 LEU D 646     -61.360  11.660  -0.187  1.00 73.48 LIG 0.01  C 
ENDBRANCH 26 27
ENDBRANCH 15 26
ENDBRANCH 12 15
ENDBRANCH 6 11
ENDBRANCH 3 6
ENDBRANCH 1 2
BRANCH 1 30
ATOM     30  CB  THR D 648     -63.020   8.042  -8.814  1.00 65.76 LIG 0.15  C 
ATOM     31  CG2 THR D 648     -61.747   8.183  -7.978  1.00 59.42 LIG 0.04  C 
BRANCH 30 32
ATOM     32 OG1  THR D 648     -63.224   6.655  -9.115  1.00 66.48 LIG-0.39  OA
ATOM     33 HG1  THR D 648     -63.811   6.581  -9.712  1.00 66.48 LIG 0.21  HD
ENDBRANCH 30 32
ENDBRANCH 1 30
BRANCH 1 34
ATOM     34  C   THR D 648     -65.591   8.088  -8.684  1.00 62.56 LIG 0.24  C 
ATOM     35 O    THR D 648     -65.976   6.934  -8.459  1.00 59.73 LIG-0.27  OA
ATOM     36  N   PRO D 649     -66.309   8.965  -9.419  1.00 65.34 LIG-0.34  N 
ATOM     37  CA  PRO D 649     -67.567   8.591 -10.081  1.00 70.60 LIG 0.18  C 
ATOM     38  CD  PRO D 649     -66.047  10.417  -9.515  1.00 66.58 LIG 0.13  C 
ATOM     39  CB  PRO D 649     -68.178   9.943 -10.467  1.00 67.49 LIG 0.04  C 
ATOM     40  CG  PRO D 649     -67.022  10.882 -10.555  1.00 65.73 LIG 0.02  C 
BRANCH 37 41
ATOM     41  C   PRO D 649     -67.387   7.728 -11.336  1.00 77.20 LIG 0.24  C 
ATOM     42  N   ARG D 650     -66.227   7.864 -11.977  1.00 83.37 LIG-0.35  N 
ATOM     43 H    ARG D 650     -65.620   8.427 -11.741  1.00 83.37 LIG 0.16  HD
ATOM     44 O    PRO D 649     -68.281   6.954 -11.696  1.00 68.92 LIG-0.27  OA
BRANCH 42 45
ATOM     45  CA  ARG D 650     -65.869   7.067 -13.149  1.00 76.40 LIG 0.16  C 
BRANCH 45 46
ATOM     46  C   ARG D 650     -64.358   6.957 -13.313  1.00 81.79 LIG 0.22  C 
ATOM     47 O    ARG D 650     -63.609   7.083 -12.344  1.00 80.18 LIG-0.29  OA
ENDBRANCH 45 46
BRANCH 45 48
ATOM     48  CB  ARG D 650     -66.495   7.668 -14.406  1.00 77.84 LIG 0.04  C 
BRANCH 48 49
ATOM     49  CG  ARG D 650     -67.704   6.896 -14.908  1.00 87.31 LIG 0.02  C 
BRANCH 49 50
ATOM     50  CD  ARG D 650     -67.852   6.953 -16.423  1.00 89.00 LIG 0.14  C 
BRANCH 50 51
ATOM     51  NE  ARG D 650     -68.935   6.111 -16.932  1.00 88.84 LIG-0.23  N 
ATOM     52 HE   ARG D 650     -69.741   6.329 -16.727  1.00 88.84 LIG 0.18  HD
ATOM     53  CZ  ARG D 650     -68.758   5.031 -17.692  1.00 89.69 LIG 0.67  C 
ATOM     54  NH2 ARG D 650     -67.538   4.653 -18.057  1.00 88.97 LIG-0.23  N 
ATOM     55  NH1 ARG D 650     -69.810   4.329 -18.097  1.00 77.77 LIG-0.23  N 
ATOM     56 2HH2 ARG D 650     -67.433   3.954 -18.548  1.00 88.97 LIG 0.17  HD
ATOM     57 1HH2 ARG D 650     -66.853   5.106 -17.802  1.00 88.97 LIG 0.17  HD
ATOM     58 1HH1 ARG D 650     -70.602   4.572 -17.870  1.00 77.77 LIG 0.17  HD
ATOM     59 2HH1 ARG D 650     -69.697   3.632 -18.588  1.00 77.77 LIG 0.17  HD
ENDBRANCH 50 51
ENDBRANCH 49 50
ENDBRANCH 48 49
ENDBRANCH 45 48
ENDBRANCH 42 45
ENDBRANCH 37 41
ENDBRANCH 1 34
TORSDOF 22
ENDMDL
MODEL 7
USER: ADFR SOLUTION from run 141
USER: SCORE 17.870131 LL:  -4.399 LR: -15.561 RR:   0.000 FEB:  -8.999
USER: RMSD 4.496047
USER: SEED 140
USER: STATUS no improvement in best in 6 clusters for 5 generations
USER: GENES 24
USER: genes 0 Translation |==|  0.37670 0.56745 0.58915
USER: genes 1 Rotation |==|  0.50206 0.47708 0.49198 0.99941
USER: genes 2 Torsion [CB]-CA--N-[C] |==|  0.35692
USER: genes 3 Torsion [N]-C--CA-[N] |==|  0.92979
USER: genes 4 Torsion [C]-CA--CB-[CG] |==|  0.42870
USER: genes 5 Torsion [CA]-CB--CG-[CD2] |==|  0.90634
USER: genes 6 Torsion [C]-CA--N-[C] |==|  0.73552
USER: genes 7 Torsion [N]-C--CA-[N] |==|  0.22312
USER: genes 8 Torsion [C]-CA--N-[C] |==|  0.75968
USER: genes 9 Torsion [N]-C--CA-[N] |==|  0.39847
USER: genes 10 Torsion [C]-CA--CB-[CG2] |==|  0.84419
USER: genes 11 Torsion [CA]-CB--CG1-[CD1] |==|  0.57994
USER: genes 12 Torsion [C]-CA--CB-[CG] |==|  0.23416
USER: genes 13 Torsion [CA]-CB--CG-[CD1] |==|  0.69734
USER: genes 14 Torsion [N]-CA--CB-[CG2] |==|  0.82206
USER: genes 15 Torsion [CA]-CB--OG1-[HG1] |==|  0.83461
USER: genes 16 Torsion [N]-CA--C-[N] |==|  0.31566
USER: genes 17 Torsion [N]-CA--C-[N] |==|  0.50505
USER: genes 18 Torsion [C]-N--CA-[C] |==|  0.79557
USER: genes 19 Torsion [N]-CA--C-[O] |==|  0.91523
USER: genes 20 Torsion [N]-CA--CB-[CG] |==|  0.34912
USER: genes 21 Torsion [CA]-CB--CG-[CD] |==|  0.39188
USER: genes 22 Torsion [CB]-CG--CD-[NE] |==|  0.46676
USER: genes 23 Torsion [CG]-CD--NE-[HE] |==|  0.11022
ROOT
ATOM      1  CA  THR D 648     -65.035  10.641  -6.298  1.00 62.87 LIG 0.20  C 
ENDROOT
BRANCH 1 2
ATOM      2  N   THR D 648     -63.797  10.482  -5.540  1.00 56.91 LIG-0.34  N 
ATOM      3  C   LEU D 647     -63.750   9.794  -4.403  1.00 59.35 LIG 0.24  C 
ATOM      4 O    LEU D 647     -64.734   9.234  -3.918  1.00 56.20 LIG-0.27  OA
ATOM      5 H    THR D 648     -63.114  10.868  -5.892  1.00 56.91 LIG 0.16  HD
BRANCH 3 6
ATOM      6  CA  LEU D 647     -62.393   9.720  -3.726  1.00 55.15 LIG 0.18  C 
BRANCH 6 7
ATOM      7  CB  LEU D 647     -62.358  10.736  -2.539  1.00 49.69 LIG 0.04  C 
BRANCH 7 8
ATOM      8  CG  LEU D 647     -61.428  10.527  -1.337  1.00 48.41 LIG-0.02  C 
ATOM      9  CD2 LEU D 647     -61.227   9.059  -0.990  1.00 46.46 LIG 0.01  C 
ATOM     10  CD1 LEU D 647     -61.972  11.271  -0.127  1.00 42.39 LIG 0.01  C 
ENDBRANCH 7 8
ENDBRANCH 6 7
BRANCH 6 11
ATOM     11  N   LEU D 647     -61.298   9.885  -4.657  1.00 57.83 LIG-0.35  N 
ATOM     12  C   LEU D 646     -60.687   8.826  -5.191  1.00 69.64 LIG 0.24  C 
ATOM     13 O    LEU D 646     -60.994   7.669  -4.896  1.00 59.31 LIG-0.27  OA
ATOM     14 H    LEU D 647     -61.089  10.702  -4.825  1.00 57.83 LIG 0.16  HD
BRANCH 12 15
ATOM     15  CA  LEU D 646     -59.567   9.082  -6.248  1.00 75.89 LIG 0.18  C 
BRANCH 15 16
ATOM     16  N   LEU D 646     -58.266   9.434  -5.765  1.00 90.15 LIG-0.35  N 
ATOM     17 H    LEU D 646     -57.729   8.770  -5.664  1.00 90.15 LIG 0.16  HD
ATOM     18  C   ILE D 645     -57.946  10.701  -5.502  1.00 94.17 LIG 0.26  C 
ATOM     19 O    ILE D 645     -58.717  11.646  -5.699  1.00104.89 LIG-0.27  OA
BRANCH 18 20
ATOM     20  CA  ILE D 645     -56.548  10.944  -4.941  1.00 87.61 LIG 0.40  C 
ATOM     21  N   ILE D 645     -55.918  12.204  -5.439  1.00 97.17 LIG 0.61  N 
BRANCH 20 22
ATOM     22  CB  ILE D 645     -56.802  10.957  -3.408  1.00 83.91 LIG 0.03  C 
ATOM     23  CG2 ILE D 645     -57.853  12.004  -3.048  1.00 71.96 LIG 0.01  C 
BRANCH 22 24
ATOM     24  CG1 ILE D 645     -57.158   9.562  -2.861  1.00 78.38 LIG 0.00  C 
ATOM     25  CD1 ILE D 645     -58.049   9.579  -1.630  1.00 60.94 LIG 0.01  C 
ENDBRANCH 22 24
ENDBRANCH 20 22
ENDBRANCH 18 20
ENDBRANCH 15 16
BRANCH 15 26
ATOM     26  CB  LEU D 646     -59.413   7.815  -7.113  1.00 77.70 LIG 0.04  C 
BRANCH 26 27
ATOM     27  CG  LEU D 646     -60.379   7.680  -8.294  1.00 75.60 LIG-0.02  C 
ATOM     28  CD1 LEU D 646     -61.416   6.588  -8.063  1.00 71.06 LIG 0.01  C 
ATOM     29  CD2 LEU D 646     -61.050   9.013  -8.559  1.00 73.48 LIG 0.01  C 
ENDBRANCH 26 27
ENDBRANCH 15 26
ENDBRANCH 12 15
ENDBRANCH 6 11
ENDBRANCH 3 6
ENDBRANCH 1 2
BRANCH 1 30
ATOM     30  CB  THR D 648     -65.295  12.136  -6.620  1.00 65.76 LIG 0.15  C 
ATOM     31  CG2 THR D 648     -65.521  12.965  -5.355  1.00 59.42 LIG 0.04  C 
BRANCH 30 32
ATOM     32 OG1  THR D 648     -64.168  12.669  -7.328  1.00 66.48 LIG-0.39  OA
ATOM     33 HG1  THR D 648     -63.478  12.593  -6.855  1.00 66.48 LIG 0.21  HD
ENDBRANCH 30 32
ENDBRANCH 1 30
BRANCH 1 34
ATOM     34  C   THR D 648     -65.001   9.757  -7.562  1.00 62.56 LIG 0.24  C 
ATOM     35 O    THR D 648     -64.167   9.975  -8.448  1.00 59.73 LIG-0.27  OA
ATOM     36  N   PRO D 649     -65.880   8.733  -7.624  1.00 65.34 LIG-0.34  N 
ATOM     37  CA  PRO D 649     -65.969   7.844  -8.792  1.00 70.60 LIG 0.18  C 
ATOM     38  CD  PRO D 649     -66.720   8.257  -6.504  1.00 66.58 LIG 0.13  C 
ATOM     39  CB  PRO D 649     -66.805   6.667  -8.276  1.00 67.49 LIG 0.04  C 
ATOM     40  CG  PRO D 649     -67.598   7.221  -7.140  1.00 65.73 LIG 0.02  C 
BRANCH 37 41
ATOM     41  C   PRO D 649     -66.656   8.472 -10.010  1.00 77.20 LIG 0.24  C 
ATOM     42  N   ARG D 650     -66.790   7.684 -11.077  1.00 83.37 LIG-0.35  N 
ATOM     43 H    ARG D 650     -66.478   6.883 -11.113  1.00 83.37 LIG 0.16  HD
ATOM     44 O    PRO D 649     -67.062   9.640  -9.967  1.00 68.92 LIG-0.27  OA
BRANCH 42 45
ATOM     45  CA  ARG D 650     -67.481   8.106 -12.294  1.00 76.40 LIG 0.16  C 
BRANCH 45 46
ATOM     46  C   ARG D 650     -68.992   8.146 -12.095  1.00 81.79 LIG 0.22  C 
ATOM     47 O    ARG D 650     -69.543   7.377 -11.309  1.00 80.18 LIG-0.29  OA
ENDBRANCH 45 46
BRANCH 45 48
ATOM     48  CB  ARG D 650     -67.124   7.176 -13.452  1.00 77.84 LIG 0.04  C 
BRANCH 48 49
ATOM     49  CG  ARG D 650     -68.337   6.572 -14.139  1.00 87.31 LIG 0.02  C 
BRANCH 49 50
ATOM     50  CD  ARG D 650     -68.175   6.486 -15.651  1.00 89.00 LIG 0.14  C 
BRANCH 50 51
ATOM     51  NE  ARG D 650     -69.198   5.664 -16.298  1.00 88.84 LIG-0.23  N 
ATOM     52 HE   ARG D 650     -70.005   5.725 -16.006  1.00 88.84 LIG 0.18  HD
ATOM     53  CZ  ARG D 650     -68.967   4.826 -17.308  1.00 89.69 LIG 0.67  C 
ATOM     54  NH2 ARG D 650     -67.745   4.700 -17.815  1.00 88.97 LIG-0.23  N 
ATOM     55  NH1 ARG D 650     -69.965   4.118 -17.822  1.00 77.77 LIG-0.23  N 
ATOM     56 2HH2 ARG D 650     -67.604   4.157 -18.468  1.00 88.97 LIG 0.17  HD
ATOM     57 1HH2 ARG D 650     -67.095   5.160 -17.491  1.00 88.97 LIG 0.17  HD
ATOM     58 1HH1 ARG D 650     -70.759   4.200 -17.503  1.00 77.77 LIG 0.17  HD
ATOM     59 2HH1 ARG D 650     -69.817   3.578 -18.474  1.00 77.77 LIG 0.17  HD
ENDBRANCH 50 51
ENDBRANCH 49 50
ENDBRANCH 48 49
ENDBRANCH 45 48
ENDBRANCH 42 45
ENDBRANCH 37 41
ENDBRANCH 1 34
TORSDOF 22
ENDMDL
MODEL 8
USER: ADFR SOLUTION from run 147
USER: SCORE 18.287353 LL:  -4.531 LR: -15.482 RR:   0.000 FEB:  -8.919
USER: RMSD 2.726786
USER: SEED 146
USER: STATUS no improvement in best in 11 clusters for 5 generations
USER: GENES 24
USER: genes 0 Translation |==|  0.39928 0.52110 0.63243
USER: genes 1 Rotation |==|  0.48917 0.52433 0.50357 0.99928
USER: genes 2 Torsion [CB]-CA--N-[C] |==|  0.45794
USER: genes 3 Torsion [N]-C--CA-[N] |==|  0.92223
USER: genes 4 Torsion [C]-CA--CB-[CG] |==|  0.64028
USER: genes 5 Torsion [CA]-CB--CG-[CD2] |==|  0.67258
USER: genes 6 Torsion [C]-CA--N-[C] |==|  0.66215
USER: genes 7 Torsion [N]-C--CA-[N] |==|  0.91477
USER: genes 8 Torsion [C]-CA--N-[C] |==|  0.66439
USER: genes 9 Torsion [N]-C--CA-[N] |==|  0.36217
USER: genes 10 Torsion [C]-CA--CB-[CG2] |==|  0.08535
USER: genes 11 Torsion [CA]-CB--CG1-[CD1] |==|  0.98943
USER: genes 12 Torsion [C]-CA--CB-[CG] |==|  0.92734
USER: genes 13 Torsion [CA]-CB--CG-[CD1] |==|  0.32685
USER: genes 14 Torsion [N]-CA--CB-[CG2] |==|  0.86461
USER: genes 15 Torsion [CA]-CB--OG1-[HG1] |==|  0.75642
USER: genes 16 Torsion [N]-CA--C-[N] |==|  0.42041
USER: genes 17 Torsion [N]-CA--C-[N] |==|  0.32769
USER: genes 18 Torsion [C]-N--CA-[C] |==|  0.76106
USER: genes 19 Torsion [N]-CA--C-[O] |==|  0.05273
USER: genes 20 Torsion [N]-CA--CB-[CG] |==|  0.08322
USER: genes 21 Torsion [CA]-CB--CG-[CD] |==|  0.44919
USER: genes 22 Torsion [CB]-CG--CD-[NE] |==|  0.46587
USER: genes 23 Torsion [CG]-CD--NE-[HE] |==|  0.96783
ROOT
ATOM      1  CA  THR D 648     -64.544   9.911  -5.260  1.00 62.87 LIG 0.20  C 
ENDROOT
BRANCH 1 2
ATOM      2  N   THR D 648     -63.179   9.843  -4.743  1.00 56.91 LIG-0.34  N 
ATOM      3  C   LEU D 647     -62.716   8.766  -4.115  1.00 59.35 LIG 0.24  C 
ATOM      4 O    LEU D 647     -63.393   7.752  -3.936  1.00 56.20 LIG-0.27  OA
ATOM      5 H    THR D 648     -62.712  10.552  -4.882  1.00 56.91 LIG 0.16  HD
BRANCH 3 6
ATOM      6  CA  LEU D 647     -61.280   8.846  -3.630  1.00 55.15 LIG 0.18  C 
BRANCH 6 7
ATOM      7  CB  LEU D 647     -61.272   9.207  -2.110  1.00 49.69 LIG 0.04  C 
BRANCH 7 8
ATOM      8  CG  LEU D 647     -60.411  10.354  -1.566  1.00 48.41 LIG-0.02  C 
ATOM      9  CD2 LEU D 647     -59.362   9.887  -0.569  1.00 46.46 LIG 0.01  C 
ATOM     10  CD1 LEU D 647     -61.299  11.407  -0.923  1.00 42.39 LIG 0.01  C 
ENDBRANCH 7 8
ENDBRANCH 6 7
BRANCH 6 11
ATOM     11  N   LEU D 647     -60.470   9.733  -4.436  1.00 57.83 LIG-0.35  N 
ATOM     12  C   LEU D 646     -59.373   9.289  -5.053  1.00 69.64 LIG 0.24  C 
ATOM     13 O    LEU D 646     -58.978   8.126  -4.940  1.00 59.31 LIG-0.27  OA
ATOM     14 H    LEU D 647     -60.754  10.543  -4.476  1.00 57.83 LIG 0.16  HD
BRANCH 12 15
ATOM     15  CA  LEU D 646     -58.594  10.284  -5.969  1.00 75.89 LIG 0.18  C 
BRANCH 15 16
ATOM     16  N   LEU D 646     -59.347  11.303  -6.635  1.00 90.15 LIG-0.35  N 
ATOM     17 H    LEU D 646     -59.780  11.829  -6.110  1.00 90.15 LIG 0.16  HD
ATOM     18  C   ILE D 645     -59.356  11.400  -7.964  1.00 94.17 LIG 0.26  C 
ATOM     19 O    ILE D 645     -58.689  10.662  -8.698  1.00104.89 LIG-0.27  OA
BRANCH 18 20
ATOM     20  CA  ILE D 645     -60.239  12.492  -8.558  1.00 87.61 LIG 0.40  C 
ATOM     21  N   ILE D 645     -59.536  13.345  -9.563  1.00 97.17 LIG 0.61  N 
BRANCH 20 22
ATOM     22  CB  ILE D 645     -61.412  11.676  -9.170  1.00 83.91 LIG 0.03  C 
ATOM     23  CG2 ILE D 645     -61.655  10.401  -8.366  1.00 71.96 LIG 0.01  C 
BRANCH 22 24
ATOM     24  CG1 ILE D 645     -62.691  12.519  -9.327  1.00 78.38 LIG 0.00  C 
ATOM     25  CD1 ILE D 645     -62.584  13.931  -8.778  1.00 60.94 LIG 0.01  C 
ENDBRANCH 22 24
ENDBRANCH 20 22
ENDBRANCH 18 20
ENDBRANCH 15 16
BRANCH 15 26
ATOM     26  CB  LEU D 646     -57.513  10.985  -5.121  1.00 77.70 LIG 0.04  C 
BRANCH 26 27
ATOM     27  CG  LEU D 646     -57.794  11.090  -3.619  1.00 75.60 LIG-0.02  C 
ATOM     28  CD1 LEU D 646     -56.757  10.340  -2.790  1.00 71.06 LIG 0.01  C 
ATOM     29  CD2 LEU D 646     -57.856  12.549  -3.212  1.00 73.48 LIG 0.01  C 
ENDBRANCH 26 27
ENDBRANCH 15 26
ENDBRANCH 12 15
ENDBRANCH 6 11
ENDBRANCH 3 6
ENDBRANCH 1 2
BRANCH 1 30
ATOM     30  CB  THR D 648     -64.933  11.374  -5.594  1.00 65.76 LIG 0.15  C 
ATOM     31  CG2 THR D 648     -64.602  12.334  -4.450  1.00 59.42 LIG 0.04  C 
BRANCH 30 32
ATOM     32 OG1  THR D 648     -64.226  11.793  -6.769  1.00 66.48 LIG-0.39  OA
ATOM     33 HG1  THR D 648     -63.478  12.108  -6.550  1.00 66.48 LIG 0.21  HD
ENDBRANCH 30 32
ENDBRANCH 1 30
BRANCH 1 34
ATOM     34  C   THR D 648     -64.703   8.961  -6.464  1.00 62.56 LIG 0.24  C 
ATOM     35 O    THR D 648     -63.722   8.669  -7.158  1.00 59.73 LIG-0.27  OA
ATOM     36  N   PRO D 649     -65.932   8.446  -6.687  1.00 65.34 LIG-0.34  N 
ATOM     37  CA  PRO D 649     -66.218   7.560  -7.825  1.00 70.60 LIG 0.18  C 
ATOM     38  CD  PRO D 649     -67.081   8.541  -5.761  1.00 66.58 LIG 0.13  C 
ATOM     39  CB  PRO D 649     -67.584   6.960  -7.471  1.00 67.49 LIG 0.04  C 
ATOM     40  CG  PRO D 649     -68.213   7.946  -6.545  1.00 65.73 LIG 0.02  C 
BRANCH 37 41
ATOM     41  C   PRO D 649     -66.303   8.278  -9.177  1.00 77.20 LIG 0.24  C 
ATOM     42  N   ARG D 650     -65.404   7.913 -10.091  1.00 83.37 LIG-0.35  N 
ATOM     43 H    ARG D 650     -64.779   7.342  -9.936  1.00 83.37 LIG 0.16  HD
ATOM     44 O    PRO D 649     -67.175   9.131  -9.378  1.00 68.92 LIG-0.27  OA
BRANCH 42 45
ATOM     45  CA  ARG D 650     -65.390   8.450 -11.451  1.00 76.40 LIG 0.16  C 
BRANCH 45 46
ATOM     46  C   ARG D 650     -66.316   7.666 -12.373  1.00 81.79 LIG 0.22  C 
ATOM     47 O    ARG D 650     -67.208   6.954 -11.911  1.00 80.18 LIG-0.29  OA
ENDBRANCH 45 46
BRANCH 45 48
ATOM     48  CB  ARG D 650     -63.967   8.449 -12.003  1.00 77.84 LIG 0.04  C 
BRANCH 48 49
ATOM     49  CG  ARG D 650     -63.100   7.335 -11.441  1.00 87.31 LIG 0.02  C 
BRANCH 49 50
ATOM     50  CD  ARG D 650     -61.867   7.061 -12.291  1.00 89.00 LIG 0.14  C 
BRANCH 50 51
ATOM     51  NE  ARG D 650     -60.883   6.204 -11.628  1.00 88.84 LIG-0.23  N 
ATOM     52 HE   ARG D 650     -60.988   6.051 -10.789  1.00 88.84 LIG 0.18  HD
ATOM     53  CZ  ARG D 650     -59.838   5.645 -12.236  1.00 89.69 LIG 0.67  C 
ATOM     54  NH2 ARG D 650     -59.632   5.830 -13.536  1.00 88.97 LIG-0.23  N 
ATOM     55  NH1 ARG D 650     -58.997   4.887 -11.542  1.00 77.77 LIG-0.23  N 
ATOM     56 2HH2 ARG D 650     -58.954   5.465 -13.920  1.00 88.97 LIG 0.17  HD
ATOM     57 1HH2 ARG D 650     -60.176   6.315 -13.992  1.00 88.97 LIG 0.17  HD
ATOM     58 1HH1 ARG D 650     -59.128   4.758 -10.702  1.00 77.77 LIG 0.17  HD
ATOM     59 2HH1 ARG D 650     -58.322   4.525 -11.933  1.00 77.77 LIG 0.17  HD
ENDBRANCH 50 51
ENDBRANCH 49 50
ENDBRANCH 48 49
ENDBRANCH 45 48
ENDBRANCH 42 45
ENDBRANCH 37 41
ENDBRANCH 1 34
TORSDOF 22
ENDMDL
MODEL 9
USER: ADFR SOLUTION from run 168
USER: SCORE 18.508227 LL:  -3.535 LR: -15.455 RR:   0.000 FEB:  -8.892
USER: RMSD 9.071280
USER: SEED 167
USER: STATUS no improvement in best in 16 clusters for 5 generations
USER: GENES 24
USER: genes 0 Translation |==|  0.61619 0.49849 0.60125
USER: genes 1 Rotation |==|  0.44455 0.14577 0.18222 0.64304
USER: genes 2 Torsion [CB]-CA--N-[C] |==|  0.82142
USER: genes 3 Torsion [N]-C--CA-[N] |==|  0.31693
USER: genes 4 Torsion [C]-CA--CB-[CG] |==|  0.05626
USER: genes 5 Torsion [CA]-CB--CG-[CD2] |==|  0.69418
USER: genes 6 Torsion [C]-CA--N-[C] |==|  0.61228
USER: genes 7 Torsion [N]-C--CA-[N] |==|  0.35944
USER: genes 8 Torsion [C]-CA--N-[C] |==|  0.67960
USER: genes 9 Torsion [N]-C--CA-[N] |==|  0.32571
USER: genes 10 Torsion [C]-CA--CB-[CG2] |==|  0.10456
USER: genes 11 Torsion [CA]-CB--CG1-[CD1] |==|  0.91113
USER: genes 12 Torsion [C]-CA--CB-[CG] |==|  0.49563
USER: genes 13 Torsion [CA]-CB--CG-[CD1] |==|  0.31388
USER: genes 14 Torsion [N]-CA--CB-[CG2] |==|  0.90901
USER: genes 15 Torsion [CA]-CB--OG1-[HG1] |==|  0.17015
USER: genes 16 Torsion [N]-CA--C-[N] |==|  0.40847
USER: genes 17 Torsion [N]-CA--C-[N] |==|  0.51084
USER: genes 18 Torsion [C]-N--CA-[C] |==|  0.20800
USER: genes 19 Torsion [N]-CA--C-[O] |==|  0.05382
USER: genes 20 Torsion [N]-CA--CB-[CG] |==|  0.82297
USER: genes 21 Torsion [CA]-CB--CG-[CD] |==|  0.81248
USER: genes 22 Torsion [CB]-CG--CD-[NE] |==|  0.17596
USER: genes 23 Torsion [CG]-CD--NE-[HE] |==|  0.74416
ROOT
ATOM      1  CA  THR D 648     -59.826   9.555  -6.008  1.00 62.87 LIG 0.20  C 
ENDROOT
BRANCH 1 2
ATOM      2  N   THR D 648     -61.116   9.886  -5.407  1.00 56.91 LIG-0.34  N 
ATOM      3  C   LEU D 647     -61.685   9.112  -4.488  1.00 59.35 LIG 0.24  C 
ATOM      4 O    LEU D 647     -61.165   8.076  -4.069  1.00 56.20 LIG-0.27  OA
ATOM      5 H    THR D 648     -61.465  10.616  -5.699  1.00 56.91 LIG 0.16  HD
BRANCH 3 6
ATOM      6  CA  LEU D 647     -63.027   9.584  -3.960  1.00 55.15 LIG 0.18  C 
BRANCH 6 7
ATOM      7  CB  LEU D 647     -62.914   9.835  -2.422  1.00 49.69 LIG 0.04  C 
BRANCH 7 8
ATOM      8  CG  LEU D 647     -61.554  10.057  -1.748  1.00 48.41 LIG-0.02  C 
ATOM      9  CD2 LEU D 647     -61.137   8.896  -0.858  1.00 46.46 LIG 0.01  C 
ATOM     10  CD1 LEU D 647     -61.583  11.343  -0.936  1.00 42.39 LIG 0.01  C 
ENDBRANCH 7 8
ENDBRANCH 6 7
BRANCH 6 11
ATOM     11  N   LEU D 647     -64.110   8.694  -4.319  1.00 57.83 LIG-0.35  N 
ATOM     12  C   LEU D 646     -65.296   9.175  -4.696  1.00 69.64 LIG 0.24  C 
ATOM     13 O    LEU D 646     -65.540  10.383  -4.723  1.00 59.31 LIG-0.27  OA
ATOM     14 H    LEU D 647     -63.920   7.857  -4.267  1.00 57.83 LIG 0.16  HD
BRANCH 12 15
ATOM     15  CA  LEU D 646     -66.391   8.156  -5.145  1.00 75.89 LIG 0.18  C 
BRANCH 15 16
ATOM     16  N   LEU D 646     -67.687   8.266  -4.546  1.00 90.15 LIG-0.35  N 
ATOM     17 H    LEU D 646     -68.105   8.995  -4.728  1.00 90.15 LIG 0.16  HD
ATOM     18  C   ILE D 645     -68.175   7.297  -3.773  1.00 94.17 LIG 0.26  C 
ATOM     19 O    ILE D 645     -67.577   6.235  -3.563  1.00104.89 LIG-0.27  OA
BRANCH 18 20
ATOM     20  CA  ILE D 645     -69.542   7.553  -3.148  1.00 87.61 LIG 0.40  C 
ATOM     21  N   ILE D 645     -70.592   6.589  -3.596  1.00 97.17 LIG 0.61  N 
BRANCH 20 22
ATOM     22  CB  ILE D 645     -69.238   7.454  -1.628  1.00 83.91 LIG 0.03  C 
ATOM     23  CG2 ILE D 645     -67.875   8.065  -1.313  1.00 71.96 LIG 0.01  C 
BRANCH 22 24
ATOM     24  CG1 ILE D 645     -70.361   8.060  -0.765  1.00 78.38 LIG 0.00  C 
ATOM     25  CD1 ILE D 645     -71.086   9.230  -1.409  1.00 60.94 LIG 0.01  C 
ENDBRANCH 22 24
ENDBRANCH 20 22
ENDBRANCH 18 20
ENDBRANCH 15 16
BRANCH 15 26
ATOM     26  CB  LEU D 646     -66.574   8.278  -6.672  1.00 77.70 LIG 0.04  C 
BRANCH 26 27
ATOM     27  CG  LEU D 646     -67.588   7.324  -7.311  1.00 75.60 LIG-0.02  C 
ATOM     28  CD1 LEU D 646     -68.800   8.065  -7.862  1.00 71.06 LIG 0.01  C 
ATOM     29  CD2 LEU D 646     -66.911   6.514  -8.399  1.00 73.48 LIG 0.01  C 
ENDBRANCH 26 27
ENDBRANCH 15 26
ENDBRANCH 12 15
ENDBRANCH 6 11
ENDBRANCH 3 6
ENDBRANCH 1 2
BRANCH 1 30
ATOM     30  CB  THR D 648     -58.700   9.578  -4.943  1.00 65.76 LIG 0.15  C 
ATOM     31  CG2 THR D 648     -58.955  10.625  -3.857  1.00 59.42 LIG 0.04  C 
BRANCH 30 32
ATOM     32 OG1  THR D 648     -58.607   8.286  -4.327  1.00 66.48 LIG-0.39  OA
ATOM     33 HG1  THR D 648     -58.414   7.711  -4.908  1.00 66.48 LIG 0.21  HD
ENDBRANCH 30 32
ENDBRANCH 1 30
BRANCH 1 34
ATOM     34  C   THR D 648     -59.917   8.206  -6.750  1.00 62.56 LIG 0.24  C 
ATOM     35 O    THR D 648     -60.691   7.329  -6.349  1.00 59.73 LIG-0.27  OA
ATOM     36  N   PRO D 649     -59.159   8.058  -7.859  1.00 65.34 LIG-0.34  N 
ATOM     37  CA  PRO D 649     -59.131   6.805  -8.629  1.00 70.60 LIG 0.18  C 
ATOM     38  CD  PRO D 649     -58.417   9.140  -8.540  1.00 66.58 LIG 0.13  C 
ATOM     39  CB  PRO D 649     -58.452   7.214  -9.942  1.00 67.49 LIG 0.04  C 
ATOM     40  CG  PRO D 649     -57.640   8.419  -9.601  1.00 65.73 LIG 0.02  C 
BRANCH 37 41
ATOM     41  C   PRO D 649     -58.336   5.675  -7.966  1.00 77.20 LIG 0.24  C 
ATOM     42  N   ARG D 650     -58.221   4.550  -8.671  1.00 83.37 LIG-0.35  N 
ATOM     43 H    ARG D 650     -58.597   4.431  -9.436  1.00 83.37 LIG 0.16  HD
ATOM     44 O    PRO D 649     -57.835   5.835  -6.847  1.00 68.92 LIG-0.27  OA
BRANCH 42 45
ATOM     45  CA  ARG D 650     -57.439   3.402  -8.213  1.00 76.40 LIG 0.16  C 
BRANCH 45 46
ATOM     46  C   ARG D 650     -58.157   2.641  -7.106  1.00 81.79 LIG 0.22  C 
ATOM     47 O    ARG D 650     -59.369   2.769  -6.938  1.00 80.18 LIG-0.29  OA
ENDBRANCH 45 46
BRANCH 45 48
ATOM     48  CB  ARG D 650     -56.062   3.859  -7.735  1.00 77.84 LIG 0.04  C 
BRANCH 48 49
ATOM     49  CG  ARG D 650     -55.212   4.471  -8.836  1.00 87.31 LIG 0.02  C 
BRANCH 49 50
ATOM     50  CD  ARG D 650     -54.794   3.456  -9.892  1.00 89.00 LIG 0.14  C 
BRANCH 50 51
ATOM     51  NE  ARG D 650     -55.923   2.884 -10.625  1.00 88.84 LIG-0.23  N 
ATOM     52 HE   ARG D 650     -56.267   2.155 -10.325  1.00 88.84 LIG 0.18  HD
ATOM     53  CZ  ARG D 650     -56.456   3.415 -11.725  1.00 89.69 LIG 0.67  C 
ATOM     54  NH2 ARG D 650     -55.981   4.550 -12.227  1.00 88.97 LIG-0.23  N 
ATOM     55  NH1 ARG D 650     -57.478   2.813 -12.322  1.00 77.77 LIG-0.23  N 
ATOM     56 2HH2 ARG D 650     -56.331   4.886 -12.937  1.00 88.97 LIG 0.17  HD
ATOM     57 1HH2 ARG D 650     -55.323   4.948 -11.842  1.00 88.97 LIG 0.17  HD
ATOM     58 1HH1 ARG D 650     -57.794   2.082 -11.998  1.00 77.77 LIG 0.17  HD
ATOM     59 2HH1 ARG D 650     -57.823   3.154 -13.031  1.00 77.77 LIG 0.17  HD
ENDBRANCH 50 51
ENDBRANCH 49 50
ENDBRANCH 48 49
ENDBRANCH 45 48
ENDBRANCH 42 45
ENDBRANCH 37 41
ENDBRANCH 1 34
TORSDOF 22
ENDMDL
MODEL 10
USER: ADFR SOLUTION from run 187
USER: SCORE 18.694334 LL:  -4.797 LR: -15.410 RR:   0.000 FEB:  -8.847
USER: RMSD 3.979426
USER: SEED 186
USER: STATUS no improvement in best in 8 clusters for 5 generations
USER: GENES 24
USER: genes 0 Translation |==|  0.42158 0.47543 0.59057
USER: genes 1 Rotation |==|  0.70956 0.49385 0.70502 0.90499
USER: genes 2 Torsion [CB]-CA--N-[C] |==|  0.24075
USER: genes 3 Torsion [N]-C--CA-[N] |==|  0.89779
USER: genes 4 Torsion [C]-CA--CB-[CG] |==|  0.43417
USER: genes 5 Torsion [CA]-CB--CG-[CD2] |==|  0.92199
USER: genes 6 Torsion [C]-CA--N-[C] |==|  0.73498
USER: genes 7 Torsion [N]-C--CA-[N] |==|  0.88454
USER: genes 8 Torsion [C]-CA--N-[C] |==|  0.86111
USER: genes 9 Torsion [N]-C--CA-[N] |==|  0.78849
USER: genes 10 Torsion [C]-CA--CB-[CG2] |==|  0.17989
USER: genes 11 Torsion [CA]-CB--CG1-[CD1] |==|  0.47835
USER: genes 12 Torsion [C]-CA--CB-[CG] |==|  0.93856
USER: genes 13 Torsion [CA]-CB--CG-[CD1] |==|  0.30364
USER: genes 14 Torsion [N]-CA--CB-[CG2] |==|  0.74409
USER: genes 15 Torsion [CA]-CB--OG1-[HG1] |==|  0.14675
USER: genes 16 Torsion [N]-CA--C-[N] |==|  0.27800
USER: genes 17 Torsion [N]-CA--C-[N] |==|  0.82328
USER: genes 18 Torsion [C]-N--CA-[C] |==|  0.67492
USER: genes 19 Torsion [N]-CA--C-[O] |==|  0.64436
USER: genes 20 Torsion [N]-CA--CB-[CG] |==|  0.54802
USER: genes 21 Torsion [CA]-CB--CG-[CD] |==|  0.53229
USER: genes 22 Torsion [CB]-CG--CD-[NE] |==|  0.31055
USER: genes 23 Torsion [CG]-CD--NE-[HE] |==|  0.00023
ROOT
ATOM      1  CA  THR D 648     -64.059   9.192  -6.264  1.00 62.87 LIG 0.20  C 
ENDROOT
BRANCH 1 2
ATOM      2  N   THR D 648     -62.907   9.568  -5.448  1.00 56.91 LIG-0.34  N 
ATOM      3  C   LEU D 647     -62.454   8.792  -4.467  1.00 59.35 LIG 0.24  C 
ATOM      4 O    LEU D 647     -62.958   7.704  -4.187  1.00 56.20 LIG-0.27  OA
ATOM      5 H    THR D 648     -62.557  10.325  -5.658  1.00 56.91 LIG 0.16  HD
BRANCH 3 6
ATOM      6  CA  LEU D 647     -61.253   9.320  -3.704  1.00 55.15 LIG 0.18  C 
BRANCH 6 7
ATOM      7  CB  LEU D 647     -61.751  10.173  -2.493  1.00 49.69 LIG 0.04  C 
BRANCH 7 8
ATOM      8  CG  LEU D 647     -60.871  10.392  -1.256  1.00 48.41 LIG-0.02  C 
ATOM      9  CD2 LEU D 647     -59.893   9.253  -1.014  1.00 46.46 LIG 0.01  C 
ATOM     10  CD1 LEU D 647     -61.746  10.588  -0.027  1.00 42.39 LIG 0.01  C 
ENDBRANCH 7 8
ENDBRANCH 6 7
BRANCH 6 11
ATOM     11  N   LEU D 647     -60.318  10.022  -4.555  1.00 57.83 LIG-0.35  N 
ATOM     12  C   LEU D 646     -59.257   9.397  -5.070  1.00 69.64 LIG 0.24  C 
ATOM     13 O    LEU D 646     -59.002   8.216  -4.821  1.00 59.31 LIG-0.27  OA
ATOM     14 H    LEU D 647     -60.506  10.850  -4.691  1.00 57.83 LIG 0.16  HD
BRANCH 12 15
ATOM     15  CA  LEU D 646     -58.335  10.197  -6.044  1.00 75.89 LIG 0.18  C 
BRANCH 15 16
ATOM     16  N   LEU D 646     -58.967  11.043  -7.010  1.00 90.15 LIG-0.35  N 
ATOM     17 H    LEU D 646     -58.659  11.846  -7.040  1.00 90.15 LIG 0.16  HD
ATOM     18  C   ILE D 645     -59.951  10.591  -7.786  1.00 94.17 LIG 0.26  C 
ATOM     19 O    ILE D 645     -60.347   9.420  -7.760  1.00104.89 LIG-0.27  OA
BRANCH 18 20
ATOM     20  CA  ILE D 645     -60.581  11.602  -8.739  1.00 87.61 LIG 0.40  C 
ATOM     21  N   ILE D 645     -61.512  12.556  -8.063  1.00 97.17 LIG 0.61  N 
BRANCH 20 22
ATOM     22  CB  ILE D 645     -59.337  12.301  -9.353  1.00 83.91 LIG 0.03  C 
ATOM     23  CG2 ILE D 645     -58.518  11.311 -10.177  1.00 71.96 LIG 0.01  C 
BRANCH 22 24
ATOM     24  CG1 ILE D 645     -59.711  13.560 -10.158  1.00 78.38 LIG 0.00  C 
ATOM     25  CD1 ILE D 645     -58.522  14.383 -10.623  1.00 60.94 LIG 0.01  C 
ENDBRANCH 22 24
ENDBRANCH 20 22
ENDBRANCH 18 20
ENDBRANCH 15 16
BRANCH 15 26
ATOM     26  CB  LEU D 646     -57.386  11.077  -5.205  1.00 77.70 LIG 0.04  C 
BRANCH 26 27
ATOM     27  CG  LEU D 646     -57.847  11.403  -3.781  1.00 75.60 LIG-0.02  C 
ATOM     28  CD1 LEU D 646     -57.012  10.681  -2.731  1.00 71.06 LIG 0.01  C 
ATOM     29  CD2 LEU D 646     -57.806  12.903  -3.563  1.00 73.48 LIG 0.01  C 
ENDBRANCH 26 27
ENDBRANCH 15 26
ENDBRANCH 12 15
ENDBRANCH 6 11
ENDBRANCH 3 6
ENDBRANCH 1 2
BRANCH 1 30
ATOM     30  CB  THR D 648     -65.381   9.645  -5.594  1.00 65.76 LIG 0.15  C 
ATOM     31  CG2 THR D 648     -65.978   8.555  -4.703  1.00 59.42 LIG 0.04  C 
BRANCH 30 32
ATOM     32 OG1  THR D 648     -65.129  10.810  -4.795  1.00 66.48 LIG-0.39  OA
ATOM     33 HG1  THR D 648     -64.744  11.392  -5.262  1.00 66.48 LIG 0.21  HD
ENDBRANCH 30 32
ENDBRANCH 1 30
BRANCH 1 34
ATOM     34  C   THR D 648     -63.896   9.742  -7.696  1.00 62.56 LIG 0.24  C 
ATOM     35 O    THR D 648     -64.122  10.936  -7.930  1.00 59.73 LIG-0.27  OA
ATOM     36  N   PRO D 649     -63.463   8.883  -8.644  1.00 65.34 LIG-0.34  N 
ATOM     37  CA  PRO D 649     -63.306   9.279 -10.051  1.00 70.60 LIG 0.18  C 
ATOM     38  CD  PRO D 649     -62.931   7.527  -8.391  1.00 66.58 LIG 0.13  C 
ATOM     39  CB  PRO D 649     -62.479   8.136 -10.650  1.00 67.49 LIG 0.04  C 
ATOM     40  CG  PRO D 649     -62.743   6.962  -9.768  1.00 65.73 LIG 0.02  C 
BRANCH 37 41
ATOM     41  C   PRO D 649     -64.627   9.418 -10.818  1.00 77.20 LIG 0.24  C 
ATOM     42  N   ARG D 650     -65.342   8.302 -10.957  1.00 83.37 LIG-0.35  N 
ATOM     43 H    ARG D 650     -65.076   7.534 -10.677  1.00 83.37 LIG 0.16  HD
ATOM     44 O    PRO D 649     -64.982  10.518 -11.258  1.00 68.92 LIG-0.27  OA
BRANCH 42 45
ATOM     45  CA  ARG D 650     -66.654   8.276 -11.601  1.00 76.40 LIG 0.16  C 
BRANCH 45 46
ATOM     46  C   ARG D 650     -67.747   7.846 -10.630  1.00 81.79 LIG 0.22  C 
ATOM     47 O    ARG D 650     -68.521   6.933 -10.917  1.00 80.18 LIG-0.29  OA
ENDBRANCH 45 46
BRANCH 45 48
ATOM     48  CB  ARG D 650     -66.628   7.346 -12.813  1.00 77.84 LIG 0.04  C 
BRANCH 48 49
ATOM     49  CG  ARG D 650     -67.787   7.567 -13.771  1.00 87.31 LIG 0.02  C 
BRANCH 49 50
ATOM     50  CD  ARG D 650     -67.908   6.464 -14.813  1.00 89.00 LIG 0.14  C 
BRANCH 50 51
ATOM     51  NE  ARG D 650     -69.103   5.636 -14.645  1.00 88.84 LIG-0.23  N 
ATOM     52 HE   ARG D 650     -69.632   5.825 -13.994  1.00 88.84 LIG 0.18  HD
ATOM     53  CZ  ARG D 650     -69.427   4.610 -15.430  1.00 89.69 LIG 0.67  C 
ATOM     54  NH2 ARG D 650     -68.658   4.278 -16.462  1.00 88.97 LIG-0.23  N 
ATOM     55  NH1 ARG D 650     -70.532   3.915 -15.188  1.00 77.77 LIG-0.23  N 
ATOM     56 2HH2 ARG D 650     -68.875   3.614 -16.964  1.00 88.97 LIG 0.17  HD
ATOM     57 1HH2 ARG D 650     -67.944   4.728 -16.628  1.00 88.97 LIG 0.17  HD
ATOM     58 1HH1 ARG D 650     -71.037   4.128 -14.525  1.00 77.77 LIG 0.17  HD
ATOM     59 2HH1 ARG D 650     -70.743   3.253 -15.694  1.00 77.77 LIG 0.17  HD
ENDBRANCH 50 51
ENDBRANCH 49 50
ENDBRANCH 48 49
ENDBRANCH 45 48
ENDBRANCH 42 45
ENDBRANCH 37 41
ENDBRANCH 1 34
TORSDOF 22
ENDMDL
MODEL 11
USER: ADFR SOLUTION from run 76
USER: SCORE 18.541294 LL:  -5.132 LR: -15.324 RR:   0.000 FEB:  -8.762
USER: RMSD 3.513239
USER: SEED 75
USER: STATUS 1 or 2 clusters left
USER: GENES 24
USER: genes 0 Translation |==|  0.37420 0.55872 0.61117
USER: genes 1 Rotation |==|  0.37284 0.48475 0.45124 0.98085
USER: genes 2 Torsion [CB]-CA--N-[C] |==|  0.48337
USER: genes 3 Torsion [N]-C--CA-[N] |==|  0.87875
USER: genes 4 Torsion [C]-CA--CB-[CG] |==|  0.45419
USER: genes 5 Torsion [CA]-CB--CG-[CD2] |==|  0.97226
USER: genes 6 Torsion [C]-CA--N-[C] |==|  0.71175
USER: genes 7 Torsion [N]-C--CA-[N] |==|  0.80218
USER: genes 8 Torsion [C]-CA--N-[C] |==|  0.84602
USER: genes 9 Torsion [N]-C--CA-[N] |==|  0.14380
USER: genes 10 Torsion [C]-CA--CB-[CG2] |==|  0.24816
USER: genes 11 Torsion [CA]-CB--CG1-[CD1] |==|  0.71463
USER: genes 12 Torsion [C]-CA--CB-[CG] |==|  0.09477
USER: genes 13 Torsion [CA]-CB--CG-[CD1] |==|  0.21112
USER: genes 14 Torsion [N]-CA--CB-[CG2] |==|  0.49698
USER: genes 15 Torsion [CA]-CB--OG1-[HG1] |==|  0.30012
USER: genes 16 Torsion [N]-CA--C-[N] |==|  0.40921
USER: genes 17 Torsion [N]-CA--C-[N] |==|  0.04962
USER: genes 18 Torsion [C]-N--CA-[C] |==|  0.53465
USER: genes 19 Torsion [N]-CA--C-[O] |==|  0.08138
USER: genes 20 Torsion [N]-CA--CB-[CG] |==|  0.65270
USER: genes 21 Torsion [CA]-CB--CG-[CD] |==|  0.29934
USER: genes 22 Torsion [CB]-CG--CD-[NE] |==|  0.08124
USER: genes 23 Torsion [CG]-CD--NE-[HE] |==|  0.85710
ROOT
ATOM      1  CA  THR D 648     -65.089  10.504  -5.770  1.00 62.87 LIG 0.20  C 
ENDROOT
BRANCH 1 2
ATOM      2  N   THR D 648     -63.838  10.501  -5.015  1.00 56.91 LIG-0.34  N 
ATOM      3  C   LEU D 647     -63.628   9.666  -4.002  1.00 59.35 LIG 0.24  C 
ATOM      4 O    LEU D 647     -64.458   8.832  -3.638  1.00 56.20 LIG-0.27  OA
ATOM      5 H    THR D 648     -63.262  11.080  -5.284  1.00 56.91 LIG 0.16  HD
BRANCH 3 6
ATOM      6  CA  LEU D 647     -62.282   9.786  -3.311  1.00 55.15 LIG 0.18  C 
BRANCH 6 7
ATOM      7  CB  LEU D 647     -62.347  10.939  -2.259  1.00 49.69 LIG 0.04  C 
BRANCH 7 8
ATOM      8  CG  LEU D 647     -61.294  11.069  -1.151  1.00 48.41 LIG-0.02  C 
ATOM      9  CD2 LEU D 647     -60.378   9.859  -1.057  1.00 46.46 LIG 0.01  C 
ATOM     10  CD1 LEU D 647     -61.978  11.301   0.188  1.00 42.39 LIG 0.01  C 
ENDBRANCH 7 8
ENDBRANCH 6 7
BRANCH 6 11
ATOM     11  N   LEU D 647     -61.187   9.922  -4.247  1.00 57.83 LIG-0.35  N 
ATOM     12  C   LEU D 646     -60.379   8.894  -4.512  1.00 69.64 LIG 0.24  C 
ATOM     13 O    LEU D 646     -60.499   7.800  -3.954  1.00 59.31 LIG-0.27  OA
ATOM     14 H    LEU D 647     -61.111  10.702  -4.601  1.00 57.83 LIG 0.16  HD
BRANCH 12 15
ATOM     15  CA  LEU D 646     -59.269   9.093  -5.592  1.00 75.89 LIG 0.18  C 
BRANCH 15 16
ATOM     16  N   LEU D 646     -59.682   9.184  -6.960  1.00 90.15 LIG-0.35  N 
ATOM     17 H    LEU D 646     -59.419   9.894  -7.367  1.00 90.15 LIG 0.16  HD
ATOM     18  C   ILE D 645     -60.416   8.225  -7.525  1.00 94.17 LIG 0.26  C 
ATOM     19 O    ILE D 645     -60.743   7.190  -6.934  1.00104.89 LIG-0.27  OA
BRANCH 18 20
ATOM     20  CA  ILE D 645     -60.840   8.461  -8.971  1.00 87.61 LIG 0.40  C 
ATOM     21  N   ILE D 645     -59.703   8.813  -9.874  1.00 97.17 LIG 0.61  N 
BRANCH 20 22
ATOM     22  CB  ILE D 645     -61.515   7.112  -9.344  1.00 83.91 LIG 0.03  C 
ATOM     23  CG2 ILE D 645     -63.003   7.146  -9.007  1.00 71.96 LIG 0.01  C 
BRANCH 22 24
ATOM     24  CG1 ILE D 645     -61.258   6.716 -10.810  1.00 78.38 LIG 0.00  C 
ATOM     25  CD1 ILE D 645     -62.434   6.962 -11.742  1.00 60.94 LIG 0.01  C 
ENDBRANCH 22 24
ENDBRANCH 20 22
ENDBRANCH 18 20
ENDBRANCH 15 16
BRANCH 15 26
ATOM     26  CB  LEU D 646     -58.487  10.379  -5.257  1.00 77.70 LIG 0.04  C 
BRANCH 26 27
ATOM     27  CG  LEU D 646     -58.312  10.698  -3.769  1.00 75.60 LIG-0.02  C 
ATOM     28  CD1 LEU D 646     -57.252   9.819  -3.117  1.00 71.06 LIG 0.01  C 
ATOM     29  CD2 LEU D 646     -57.975  12.166  -3.598  1.00 73.48 LIG 0.01  C 
ENDBRANCH 26 27
ENDBRANCH 15 26
ENDBRANCH 12 15
ENDBRANCH 6 11
ENDBRANCH 3 6
ENDBRANCH 1 2
BRANCH 1 30
ATOM     30  CB  THR D 648     -65.115  11.672  -6.788  1.00 65.76 LIG 0.15  C 
ATOM     31  CG2 THR D 648     -66.403  11.687  -7.614  1.00 59.42 LIG 0.04  C 
BRANCH 30 32
ATOM     32 OG1  THR D 648     -65.004  12.916  -6.082  1.00 66.48 LIG-0.39  OA
ATOM     33 HG1  THR D 648     -64.244  13.247  -6.215  1.00 66.48 LIG 0.21  HD
ENDBRANCH 30 32
ENDBRANCH 1 30
BRANCH 1 34
ATOM     34  C   THR D 648     -65.311   9.129  -6.433  1.00 62.56 LIG 0.24  C 
ATOM     35 O    THR D 648     -64.342   8.445  -6.782  1.00 59.73 LIG-0.27  OA
ATOM     36  N   PRO D 649     -66.588   8.707  -6.569  1.00 65.34 LIG-0.34  N 
ATOM     37  CA  PRO D 649     -66.928   7.433  -7.220  1.00 70.60 LIG 0.18  C 
ATOM     38  CD  PRO D 649     -67.770   9.343  -5.950  1.00 66.58 LIG 0.13  C 
ATOM     39  CB  PRO D 649     -68.395   7.218  -6.826  1.00 67.49 LIG 0.04  C 
ATOM     40  CG  PRO D 649     -68.923   8.582  -6.533  1.00 65.73 LIG 0.02  C 
BRANCH 37 41
ATOM     41  C   PRO D 649     -66.800   7.451  -8.747  1.00 77.20 LIG 0.24  C 
ATOM     42  N   ARG D 650     -66.069   8.440  -9.261  1.00 83.37 LIG-0.35  N 
ATOM     43 H    ARG D 650     -65.717   9.064  -8.784  1.00 83.37 LIG 0.16  HD
ATOM     44 O    PRO D 649     -67.346   6.578  -9.431  1.00 68.92 LIG-0.27  OA
BRANCH 42 45
ATOM     45  CA  ARG D 650     -65.792   8.563 -10.691  1.00 76.40 LIG 0.16  C 
BRANCH 45 46
ATOM     46  C   ARG D 650     -64.698   9.588 -10.965  1.00 81.79 LIG 0.22  C 
ATOM     47 O    ARG D 650     -63.815   9.802 -10.135  1.00 80.18 LIG-0.29  OA
ENDBRANCH 45 46
BRANCH 45 48
ATOM     48  CB  ARG D 650     -67.067   8.935 -11.445  1.00 77.84 LIG 0.04  C 
BRANCH 48 49
ATOM     49  CG  ARG D 650     -67.404   7.975 -12.574  1.00 87.31 LIG 0.02  C 
BRANCH 49 50
ATOM     50  CD  ARG D 650     -68.602   7.090 -12.256  1.00 89.00 LIG 0.14  C 
BRANCH 50 51
ATOM     51  NE  ARG D 650     -69.564   7.718 -11.350  1.00 88.84 LIG-0.23  N 
ATOM     52 HE   ARG D 650     -69.264   8.051 -10.617  1.00 88.84 LIG 0.18  HD
ATOM     53  CZ  ARG D 650     -70.872   7.810 -11.583  1.00 89.69 LIG 0.67  C 
ATOM     54  NH2 ARG D 650     -71.395   7.329 -12.707  1.00 88.97 LIG-0.23  N 
ATOM     55  NH1 ARG D 650     -71.664   8.395 -10.692  1.00 77.77 LIG-0.23  N 
ATOM     56 2HH2 ARG D 650     -72.241   7.393 -12.850  1.00 88.97 LIG 0.17  HD
ATOM     57 1HH2 ARG D 650     -70.887   6.954 -13.291  1.00 88.97 LIG 0.17  HD
ATOM     58 1HH1 ARG D 650     -71.331   8.713  -9.966  1.00 77.77 LIG 0.17  HD
ATOM     59 2HH1 ARG D 650     -72.508   8.454 -10.841  1.00 77.77 LIG 0.17  HD
ENDBRANCH 50 51
ENDBRANCH 49 50
ENDBRANCH 48 49
ENDBRANCH 45 48
ENDBRANCH 42 45
ENDBRANCH 37 41
ENDBRANCH 1 34
TORSDOF 22
ENDMDL
MODEL 12
USER: ADFR SOLUTION from run 189
USER: SCORE 17.409564 LL:  -4.917 LR: -15.274 RR:   0.000 FEB:  -8.711
USER: RMSD 1.754329
USER: SEED 188
USER: STATUS no improvement in best in 10 clusters for 5 generations
USER: GENES 24
USER: genes 0 Translation |==|  0.38397 0.56769 0.60040
USER: genes 1 Rotation |==|  0.50638 0.46493 0.50539 0.99870
USER: genes 2 Torsion [CB]-CA--N-[C] |==|  0.37298
USER: genes 3 Torsion [N]-C--CA-[N] |==|  0.90556
USER: genes 4 Torsion [C]-CA--CB-[CG] |==|  0.46697
USER: genes 5 Torsion [CA]-CB--CG-[CD2] |==|  0.94158
USER: genes 6 Torsion [C]-CA--N-[C] |==|  0.69148
USER: genes 7 Torsion [N]-C--CA-[N] |==|  0.75023
USER: genes 8 Torsion [C]-CA--N-[C] |==|  0.73708
USER: genes 9 Torsion [N]-C--CA-[N] |==|  0.49901
USER: genes 10 Torsion [C]-CA--CB-[CG2] |==|  0.51870
USER: genes 11 Torsion [CA]-CB--CG1-[CD1] |==|  0.32761
USER: genes 12 Torsion [C]-CA--CB-[CG] |==|  0.21923
USER: genes 13 Torsion [CA]-CB--CG-[CD1] |==|  0.70411
USER: genes 14 Torsion [N]-CA--CB-[CG2] |==|  0.56391
USER: genes 15 Torsion [CA]-CB--OG1-[HG1] |==|  0.31730
USER: genes 16 Torsion [N]-CA--C-[N] |==|  0.33279
USER: genes 17 Torsion [N]-CA--C-[N] |==|  0.53492
USER: genes 18 Torsion [C]-N--CA-[C] |==|  0.64646
USER: genes 19 Torsion [N]-CA--C-[O] |==|  0.01771
USER: genes 20 Torsion [N]-CA--CB-[CG] |==|  0.83978
USER: genes 21 Torsion [CA]-CB--CG-[CD] |==|  0.27668
USER: genes 22 Torsion [CB]-CG--CD-[NE] |==|  0.23906
USER: genes 23 Torsion [CG]-CD--NE-[HE] |==|  0.15123
ROOT
ATOM      1  CA  THR D 648     -64.877  10.645  -6.028  1.00 62.87 LIG 0.20  C 
ENDROOT
BRANCH 1 2
ATOM      2  N   THR D 648     -63.670  10.541  -5.211  1.00 56.91 LIG-0.34  N 
ATOM      3  C   LEU D 647     -63.607   9.750  -4.144  1.00 59.35 LIG 0.24  C 
ATOM      4 O    LEU D 647     -64.548   9.043  -3.778  1.00 56.20 LIG-0.27  OA
ATOM      5 H    THR D 648     -63.017  11.030  -5.482  1.00 56.91 LIG 0.16  HD
BRANCH 3 6
ATOM      6  CA  LEU D 647     -62.289   9.751  -3.393  1.00 55.15 LIG 0.18  C 
BRANCH 6 7
ATOM      7  CB  LEU D 647     -62.355  10.808  -2.244  1.00 49.69 LIG 0.04  C 
BRANCH 7 8
ATOM      8  CG  LEU D 647     -61.287  10.860  -1.144  1.00 48.41 LIG-0.02  C 
ATOM      9  CD2 LEU D 647     -60.524   9.553  -0.996  1.00 46.46 LIG 0.01  C 
ATOM     10  CD1 LEU D 647     -61.929  11.236   0.183  1.00 42.39 LIG 0.01  C 
ENDBRANCH 7 8
ENDBRANCH 6 7
BRANCH 6 11
ATOM     11  N   LEU D 647     -61.150   9.925  -4.268  1.00 57.83 LIG-0.35  N 
ATOM     12  C   LEU D 646     -60.289   8.928  -4.479  1.00 69.64 LIG 0.24  C 
ATOM     13 O    LEU D 646     -60.395   7.835  -3.918  1.00 59.31 LIG-0.27  OA
ATOM     14 H    LEU D 647     -61.087  10.705  -4.626  1.00 57.83 LIG 0.16  HD
BRANCH 12 15
ATOM     15  CA  LEU D 646     -59.129   9.164  -5.498  1.00 75.89 LIG 0.18  C 
BRANCH 15 16
ATOM     16  N   LEU D 646     -59.372   8.828  -6.869  1.00 90.15 LIG-0.35  N 
ATOM     17 H    LEU D 646     -59.753   9.448  -7.328  1.00 90.15 LIG 0.16  HD
ATOM     18  C   ILE D 645     -59.022   7.640  -7.362  1.00 94.17 LIG 0.26  C 
ATOM     19 O    ILE D 645     -58.432   6.782  -6.696  1.00104.89 LIG-0.27  OA
BRANCH 18 20
ATOM     20  CA  ILE D 645     -59.382   7.380  -8.820  1.00 87.61 LIG 0.40  C 
ATOM     21  N   ILE D 645     -58.953   6.034  -9.308  1.00 97.17 LIG 0.61  N 
BRANCH 20 22
ATOM     22  CB  ILE D 645     -60.925   7.561  -8.821  1.00 83.91 LIG 0.03  C 
ATOM     23  CG2 ILE D 645     -61.510   7.176 -10.177  1.00 71.96 LIG 0.01  C 
BRANCH 22 24
ATOM     24  CG1 ILE D 645     -61.603   6.809  -7.659  1.00 78.38 LIG 0.00  C 
ATOM     25  CD1 ILE D 645     -62.342   7.704  -6.679  1.00 60.94 LIG 0.01  C 
ENDBRANCH 22 24
ENDBRANCH 20 22
ENDBRANCH 18 20
ENDBRANCH 15 16
BRANCH 15 26
ATOM     26  CB  LEU D 646     -58.731  10.653  -5.449  1.00 77.70 LIG 0.04  C 
BRANCH 26 27
ATOM     27  CG  LEU D 646     -57.837  11.077  -4.279  1.00 75.60 LIG-0.02  C 
ATOM     28  CD1 LEU D 646     -58.603  11.882  -3.237  1.00 71.06 LIG 0.01  C 
ATOM     29  CD2 LEU D 646     -57.202   9.851  -3.654  1.00 73.48 LIG 0.01  C 
ENDBRANCH 26 27
ENDBRANCH 15 26
ENDBRANCH 12 15
ENDBRANCH 6 11
ENDBRANCH 3 6
ENDBRANCH 1 2
BRANCH 1 30
ATOM     30  CB  THR D 648     -65.202  12.128  -6.343  1.00 65.76 LIG 0.15  C 
ATOM     31  CG2 THR D 648     -66.680  12.334  -6.680  1.00 59.42 LIG 0.04  C 
BRANCH 30 32
ATOM     32 OG1  THR D 648     -64.870  12.935  -5.205  1.00 66.48 LIG-0.39  OA
ATOM     33 HG1  THR D 648     -64.236  13.450  -5.401  1.00 66.48 LIG 0.21  HD
ENDBRANCH 30 32
ENDBRANCH 1 30
BRANCH 1 34
ATOM     34  C   THR D 648     -64.733   9.783  -7.300  1.00 62.56 LIG 0.24  C 
ATOM     35 O    THR D 648     -63.800   9.988  -8.084  1.00 59.73 LIG-0.27  OA
ATOM     36  N   PRO D 649     -65.633   8.792  -7.480  1.00 65.34 LIG-0.34  N 
ATOM     37  CA  PRO D 649     -65.623   7.929  -8.670  1.00 70.60 LIG 0.18  C 
ATOM     38  CD  PRO D 649     -66.607   8.326  -6.470  1.00 66.58 LIG 0.13  C 
ATOM     39  CB  PRO D 649     -66.550   6.773  -8.276  1.00 67.49 LIG 0.04  C 
ATOM     40  CG  PRO D 649     -67.444   7.334  -7.221  1.00 65.73 LIG 0.02  C 
BRANCH 37 41
ATOM     41  C   PRO D 649     -66.150   8.603  -9.942  1.00 77.20 LIG 0.24  C 
ATOM     42  N   ARG D 650     -66.402   7.794 -10.971  1.00 83.37 LIG-0.35  N 
ATOM     43 H    ARG D 650     -66.244   6.948 -10.956  1.00 83.37 LIG 0.16  HD
ATOM     44 O    PRO D 649     -66.332   9.826  -9.973  1.00 68.92 LIG-0.27  OA
BRANCH 42 45
ATOM     45  CA  ARG D 650     -66.972   8.266 -12.232  1.00 76.40 LIG 0.16  C 
BRANCH 45 46
ATOM     46  C   ARG D 650     -68.205   7.462 -12.626  1.00 81.79 LIG 0.22  C 
ATOM     47 O    ARG D 650     -68.678   6.620 -11.862  1.00 80.18 LIG-0.29  OA
ENDBRANCH 45 46
BRANCH 45 48
ATOM     48  CB  ARG D 650     -65.924   8.205 -13.340  1.00 77.84 LIG 0.04  C 
BRANCH 48 49
ATOM     49  CG  ARG D 650     -64.672   9.012 -13.035  1.00 87.31 LIG 0.02  C 
BRANCH 49 50
ATOM     50  CD  ARG D 650     -63.526   8.150 -12.522  1.00 89.00 LIG 0.14  C 
BRANCH 50 51
ATOM     51  NE  ARG D 650     -62.718   7.564 -13.592  1.00 88.84 LIG-0.23  N 
ATOM     52 HE   ARG D 650     -62.384   8.096 -14.179  1.00 88.84 LIG 0.18  HD
ATOM     53  CZ  ARG D 650     -62.463   6.262 -13.719  1.00 89.69 LIG 0.67  C 
ATOM     54  NH2 ARG D 650     -62.936   5.391 -12.834  1.00 88.97 LIG-0.23  N 
ATOM     55  NH1 ARG D 650     -61.722   5.829 -14.732  1.00 77.77 LIG-0.23  N 
ATOM     56 2HH2 ARG D 650     -62.767   4.552 -12.923  1.00 88.97 LIG 0.17  HD
ATOM     57 1HH2 ARG D 650     -63.412   5.665 -12.172  1.00 88.97 LIG 0.17  HD
ATOM     58 1HH1 ARG D 650     -61.408   6.388 -15.304  1.00 77.77 LIG 0.17  HD
ATOM     59 2HH1 ARG D 650     -61.557   4.989 -14.815  1.00 77.77 LIG 0.17  HD
ENDBRANCH 50 51
ENDBRANCH 49 50
ENDBRANCH 48 49
ENDBRANCH 45 48
ENDBRANCH 42 45
ENDBRANCH 37 41
ENDBRANCH 1 34
TORSDOF 22
ENDMDL
MODEL 13
USER: ADFR SOLUTION from run 184
USER: SCORE 17.656043 LL:  -3.941 LR: -15.248 RR:   0.000 FEB:  -8.686
USER: RMSD 4.712171
USER: SEED 183
USER: STATUS no improvement in best in 15 clusters for 5 generations
USER: GENES 24
USER: genes 0 Translation |==|  0.42437 0.50358 0.62541
USER: genes 1 Rotation |==|  0.47498 0.49002 0.54107 0.99758
USER: genes 2 Torsion [CB]-CA--N-[C] |==|  0.46704
USER: genes 3 Torsion [N]-C--CA-[N] |==|  0.83425
USER: genes 4 Torsion [C]-CA--CB-[CG] |==|  0.31671
USER: genes 5 Torsion [CA]-CB--CG-[CD2] |==|  0.56912
USER: genes 6 Torsion [C]-CA--N-[C] |==|  0.77911
USER: genes 7 Torsion [N]-C--CA-[N] |==|  0.35552
USER: genes 8 Torsion [C]-CA--N-[C] |==|  0.81820
USER: genes 9 Torsion [N]-C--CA-[N] |==|  0.21318
USER: genes 10 Torsion [C]-CA--CB-[CG2] |==|  0.39844
USER: genes 11 Torsion [CA]-CB--CG1-[CD1] |==|  0.71773
USER: genes 12 Torsion [C]-CA--CB-[CG] |==|  0.25727
USER: genes 13 Torsion [CA]-CB--CG-[CD1] |==|  0.66849
USER: genes 14 Torsion [N]-CA--CB-[CG2] |==|  0.85557
USER: genes 15 Torsion [CA]-CB--OG1-[HG1] |==|  0.85486
USER: genes 16 Torsion [N]-CA--C-[N] |==|  0.50556
USER: genes 17 Torsion [N]-CA--C-[N] |==|  0.37653
USER: genes 18 Torsion [C]-N--CA-[C] |==|  0.66676
USER: genes 19 Torsion [N]-CA--C-[O] |==|  0.88631
USER: genes 20 Torsion [N]-CA--CB-[CG] |==|  0.30121
USER: genes 21 Torsion [CA]-CB--CG-[CD] |==|  0.53924
USER: genes 22 Torsion [CB]-CG--CD-[NE] |==|  0.49954
USER: genes 23 Torsion [CG]-CD--NE-[HE] |==|  0.19044
ROOT
ATOM      1  CA  THR D 648     -63.998   9.635  -5.428  1.00 62.87 LIG 0.20  C 
ENDROOT
BRANCH 1 2
ATOM      2  N   THR D 648     -62.722   9.803  -4.736  1.00 56.91 LIG-0.34  N 
ATOM      3  C   LEU D 647     -62.161   8.816  -4.043  1.00 59.35 LIG 0.24  C 
ATOM      4 O    LEU D 647     -62.663   7.695  -3.947  1.00 56.20 LIG-0.27  OA
ATOM      5 H    THR D 648     -62.375  10.585  -4.818  1.00 56.91 LIG 0.16  HD
BRANCH 3 6
ATOM      6  CA  LEU D 647     -60.838   9.143  -3.375  1.00 55.15 LIG 0.18  C 
BRANCH 6 7
ATOM      7  CB  LEU D 647     -61.082  10.190  -2.242  1.00 49.69 LIG 0.04  C 
BRANCH 7 8
ATOM      8  CG  LEU D 647     -60.862   9.836  -0.766  1.00 48.41 LIG-0.02  C 
ATOM      9  CD2 LEU D 647     -61.681  10.701   0.180  1.00 46.46 LIG 0.01  C 
ATOM     10  CD1 LEU D 647     -59.385   9.952  -0.420  1.00 42.39 LIG 0.01  C 
ENDBRANCH 7 8
ENDBRANCH 6 7
BRANCH 6 11
ATOM     11  N   LEU D 647     -59.821   9.545  -4.322  1.00 57.83 LIG-0.35  N 
ATOM     12  C   LEU D 646     -59.154   8.639  -5.039  1.00 69.64 LIG 0.24  C 
ATOM     13 O    LEU D 646     -59.340   7.427  -4.907  1.00 59.31 LIG-0.27  OA
ATOM     14 H    LEU D 647     -59.695  10.394  -4.375  1.00 57.83 LIG 0.16  HD
BRANCH 12 15
ATOM     15  CA  LEU D 646     -58.128   9.152  -6.098  1.00 75.89 LIG 0.18  C 
BRANCH 15 16
ATOM     16  N   LEU D 646     -56.801   8.619  -6.050  1.00 90.15 LIG-0.35  N 
ATOM     17 H    LEU D 646     -56.579   8.146  -6.734  1.00 90.15 LIG 0.16  HD
ATOM     18  C   ILE D 645     -55.998   8.854  -5.013  1.00 94.17 LIG 0.26  C 
ATOM     19 O    ILE D 645     -56.320   9.576  -4.062  1.00104.89 LIG-0.27  OA
BRANCH 18 20
ATOM     20  CA  ILE D 645     -54.627   8.187  -5.051  1.00 87.61 LIG 0.40  C 
ATOM     21  N   ILE D 645     -53.663   8.861  -5.973  1.00 97.17 LIG 0.61  N 
BRANCH 20 22
ATOM     22  CB  ILE D 645     -54.186   8.247  -3.563  1.00 83.91 LIG 0.03  C 
ATOM     23  CG2 ILE D 645     -53.413   6.987  -3.182  1.00 71.96 LIG 0.01  C 
BRANCH 22 24
ATOM     24  CG1 ILE D 645     -53.402   9.532  -3.236  1.00 78.38 LIG 0.00  C 
ATOM     25  CD1 ILE D 645     -51.896   9.346  -3.158  1.00 60.94 LIG 0.01  C 
ENDBRANCH 22 24
ENDBRANCH 20 22
ENDBRANCH 18 20
ENDBRANCH 15 16
BRANCH 15 26
ATOM     26  CB  LEU D 646     -58.693   8.865  -7.504  1.00 77.70 LIG 0.04  C 
BRANCH 26 27
ATOM     27  CG  LEU D 646     -59.507   9.990  -8.150  1.00 75.60 LIG-0.02  C 
ATOM     28  CD1 LEU D 646     -60.940   9.563  -8.445  1.00 71.06 LIG 0.01  C 
ATOM     29  CD2 LEU D 646     -59.483  11.215  -7.257  1.00 73.48 LIG 0.01  C 
ENDBRANCH 26 27
ENDBRANCH 15 26
ENDBRANCH 12 15
ENDBRANCH 6 11
ENDBRANCH 3 6
ENDBRANCH 1 2
BRANCH 1 30
ATOM     30  CB  THR D 648     -64.555  11.005  -5.895  1.00 65.76 LIG 0.15  C 
ATOM     31  CG2 THR D 648     -64.607  12.024  -4.756  1.00 59.42 LIG 0.04  C 
BRANCH 30 32
ATOM     32 OG1  THR D 648     -63.720  11.521  -6.941  1.00 66.48 LIG-0.39  OA
ATOM     33 HG1  THR D 648     -62.919  11.519  -6.687  1.00 66.48 LIG 0.21  HD
ENDBRANCH 30 32
ENDBRANCH 1 30
BRANCH 1 34
ATOM     34  C   THR D 648     -63.845   8.627  -6.586  1.00 62.56 LIG 0.24  C 
ATOM     35 O    THR D 648     -62.771   8.040  -6.758  1.00 59.73 LIG-0.27  OA
ATOM     36  N   PRO D 649     -64.934   8.395  -7.351  1.00 65.34 LIG-0.34  N 
ATOM     37  CA  PRO D 649     -64.903   7.485  -8.506  1.00 70.60 LIG 0.18  C 
ATOM     38  CD  PRO D 649     -66.307   8.856  -7.050  1.00 66.58 LIG 0.13  C 
ATOM     39  CB  PRO D 649     -66.387   7.266  -8.822  1.00 67.49 LIG 0.04  C 
ATOM     40  CG  PRO D 649     -67.083   8.465  -8.272  1.00 65.73 LIG 0.02  C 
BRANCH 37 41
ATOM     41  C   PRO D 649     -64.190   8.055  -9.738  1.00 77.20 LIG 0.24  C 
ATOM     42  N   ARG D 650     -63.352   7.229 -10.363  1.00 83.37 LIG-0.35  N 
ATOM     43 H    ARG D 650     -63.175   6.435 -10.083  1.00 83.37 LIG 0.16  HD
ATOM     44 O    PRO D 649     -64.414   9.213 -10.110  1.00 68.92 LIG-0.27  OA
BRANCH 42 45
ATOM     45  CA  ARG D 650     -62.646   7.593 -11.591  1.00 76.40 LIG 0.16  C 
BRANCH 45 46
ATOM     46  C   ARG D 650     -62.997   6.654 -12.739  1.00 81.79 LIG 0.22  C 
ATOM     47 O    ARG D 650     -63.104   5.443 -12.550  1.00 80.18 LIG-0.29  OA
ENDBRANCH 45 46
BRANCH 45 48
ATOM     48  CB  ARG D 650     -61.138   7.595 -11.350  1.00 77.84 LIG 0.04  C 
BRANCH 48 49
ATOM     49  CG  ARG D 650     -60.417   6.437 -12.021  1.00 87.31 LIG 0.02  C 
BRANCH 49 50
ATOM     50  CD  ARG D 650     -58.996   6.249 -11.505  1.00 89.00 LIG 0.14  C 
BRANCH 50 51
ATOM     51  NE  ARG D 650     -58.291   5.135 -12.139  1.00 88.84 LIG-0.23  N 
ATOM     52 HE   ARG D 650     -58.083   5.214 -12.970  1.00 88.84 LIG 0.18  HD
ATOM     53  CZ  ARG D 650     -57.949   4.007 -11.518  1.00 89.69 LIG 0.67  C 
ATOM     54  NH2 ARG D 650     -58.228   3.832 -10.231  1.00 88.97 LIG-0.23  N 
ATOM     55  NH1 ARG D 650     -57.316   3.050 -12.187  1.00 77.77 LIG-0.23  N 
ATOM     56 2HH2 ARG D 650     -58.003   3.100  -9.838  1.00 88.97 LIG 0.17  HD
ATOM     57 1HH2 ARG D 650     -58.632   4.450  -9.791  1.00 88.97 LIG 0.17  HD
ATOM     58 1HH1 ARG D 650     -57.127   3.160 -13.018  1.00 77.77 LIG 0.17  HD
ATOM     59 2HH1 ARG D 650     -57.094   2.322 -11.787  1.00 77.77 LIG 0.17  HD
ENDBRANCH 50 51
ENDBRANCH 49 50
ENDBRANCH 48 49
ENDBRANCH 45 48
ENDBRANCH 42 45
ENDBRANCH 37 41
ENDBRANCH 1 34
TORSDOF 22
ENDMDL
MODEL 14
USER: ADFR SOLUTION from run 141
USER: SCORE 17.851981 LL:  -4.621 LR: -15.237 RR:   0.000 FEB:  -8.674
USER: RMSD 3.781902
USER: SEED 140
USER: STATUS no improvement in best in 6 clusters for 5 generations
USER: GENES 24
USER: genes 0 Translation |==|  0.38022 0.55484 0.59765
USER: genes 1 Rotation |==|  0.46611 0.48770 0.49167 0.99863
USER: genes 2 Torsion [CB]-CA--N-[C] |==|  0.37142
USER: genes 3 Torsion [N]-C--CA-[N] |==|  0.92595
USER: genes 4 Torsion [C]-CA--CB-[CG] |==|  0.41936
USER: genes 5 Torsion [CA]-CB--CG-[CD2] |==|  0.87831
USER: genes 6 Torsion [C]-CA--N-[C] |==|  0.76707
USER: genes 7 Torsion [N]-C--CA-[N] |==|  0.20418
USER: genes 8 Torsion [C]-CA--N-[C] |==|  0.76790
USER: genes 9 Torsion [N]-C--CA-[N] |==|  0.38856
USER: genes 10 Torsion [C]-CA--CB-[CG2] |==|  0.83815
USER: genes 11 Torsion [CA]-CB--CG1-[CD1] |==|  0.60494
USER: genes 12 Torsion [C]-CA--CB-[CG] |==|  0.24535
USER: genes 13 Torsion [CA]-CB--CG-[CD1] |==|  0.70841
USER: genes 14 Torsion [N]-CA--CB-[CG2] |==|  0.80565
USER: genes 15 Torsion [CA]-CB--OG1-[HG1] |==|  0.78539
USER: genes 16 Torsion [N]-CA--C-[N] |==|  0.37010
USER: genes 17 Torsion [N]-CA--C-[N] |==|  0.34618
USER: genes 18 Torsion [C]-N--CA-[C] |==|  0.82562
USER: genes 19 Torsion [N]-CA--C-[O] |==|  0.99189
USER: genes 20 Torsion [N]-CA--CB-[CG] |==|  0.94250
USER: genes 21 Torsion [CA]-CB--CG-[CD] |==|  0.47117
USER: genes 22 Torsion [CB]-CG--CD-[NE] |==|  0.54850
USER: genes 23 Torsion [CG]-CD--NE-[HE] |==|  0.05574
ROOT
ATOM      1  CA  THR D 648     -64.958  10.443  -6.094  1.00 62.87 LIG 0.20  C 
ENDROOT
BRANCH 1 2
ATOM      2  N   THR D 648     -63.688  10.379  -5.376  1.00 56.91 LIG-0.34  N 
ATOM      3  C   LEU D 647     -63.573   9.769  -4.200  1.00 59.35 LIG 0.24  C 
ATOM      4 O    LEU D 647     -64.516   9.206  -3.642  1.00 56.20 LIG-0.27  OA
ATOM      5 H    THR D 648     -63.034  10.767  -5.779  1.00 56.91 LIG 0.16  HD
BRANCH 3 6
ATOM      6  CA  LEU D 647     -62.190   9.791  -3.573  1.00 55.15 LIG 0.18  C 
BRANCH 6 7
ATOM      7  CB  LEU D 647     -62.141  10.906  -2.480  1.00 49.69 LIG 0.04  C 
BRANCH 7 8
ATOM      8  CG  LEU D 647     -61.217  10.790  -1.262  1.00 48.41 LIG-0.02  C 
ATOM      9  CD2 LEU D 647     -61.228   9.403  -0.638  1.00 46.46 LIG 0.01  C 
ATOM     10  CD1 LEU D 647     -61.603  11.827  -0.218  1.00 42.39 LIG 0.01  C 
ENDBRANCH 7 8
ENDBRANCH 6 7
BRANCH 6 11
ATOM     11  N   LEU D 647     -61.136   9.903  -4.557  1.00 57.83 LIG-0.35  N 
ATOM     12  C   LEU D 646     -60.668   8.824  -5.187  1.00 69.64 LIG 0.24  C 
ATOM     13 O    LEU D 646     -61.079   7.687  -4.941  1.00 59.31 LIG-0.27  OA
ATOM     14 H    LEU D 647     -60.851  10.704  -4.690  1.00 57.83 LIG 0.16  HD
BRANCH 12 15
ATOM     15  CA  LEU D 646     -59.586   9.032  -6.293  1.00 75.89 LIG 0.18  C 
BRANCH 15 16
ATOM     16  N   LEU D 646     -58.260   9.367  -5.870  1.00 90.15 LIG-0.35  N 
ATOM     17 H    LEU D 646     -57.722   8.699  -5.813  1.00 90.15 LIG 0.16  HD
ATOM     18  C   ILE D 645     -57.920  10.626  -5.593  1.00 94.17 LIG 0.26  C 
ATOM     19 O    ILE D 645     -58.696  11.579  -5.727  1.00104.89 LIG-0.27  OA
BRANCH 18 20
ATOM     20  CA  ILE D 645     -56.495  10.850  -5.100  1.00 87.61 LIG 0.40  C 
ATOM     21  N   ILE D 645     -55.855  12.076  -5.666  1.00 97.17 LIG 0.61  N 
BRANCH 20 22
ATOM     22  CB  ILE D 645     -56.682  10.921  -3.559  1.00 83.91 LIG 0.03  C 
ATOM     23  CG2 ILE D 645     -57.649  12.042  -3.188  1.00 71.96 LIG 0.01  C 
BRANCH 22 24
ATOM     24  CG1 ILE D 645     -57.102   9.566  -2.957  1.00 78.38 LIG 0.00  C 
ATOM     25  CD1 ILE D 645     -58.109   9.668  -1.824  1.00 60.94 LIG 0.01  C 
ENDBRANCH 22 24
ENDBRANCH 20 22
ENDBRANCH 18 20
ENDBRANCH 15 16
BRANCH 15 26
ATOM     26  CB  LEU D 646     -59.492   7.742  -7.133  1.00 77.70 LIG 0.04  C 
BRANCH 26 27
ATOM     27  CG  LEU D 646     -60.443   7.643  -8.330  1.00 75.60 LIG-0.02  C 
ATOM     28  CD1 LEU D 646     -61.602   6.691  -8.063  1.00 71.06 LIG 0.01  C 
ATOM     29  CD2 LEU D 646     -60.952   9.024  -8.693  1.00 73.48 LIG 0.01  C 
ENDBRANCH 26 27
ENDBRANCH 15 26
ENDBRANCH 12 15
ENDBRANCH 6 11
ENDBRANCH 3 6
ENDBRANCH 1 2
BRANCH 1 30
ATOM     30  CB  THR D 648     -65.226  11.879  -6.614  1.00 65.76 LIG 0.15  C 
ATOM     31  CG2 THR D 648     -65.534  12.854  -5.476  1.00 59.42 LIG 0.04  C 
BRANCH 30 32
ATOM     32 OG1  THR D 648     -64.071  12.346  -7.324  1.00 66.48 LIG-0.39  OA
ATOM     33 HG1  THR D 648     -63.478  12.577  -6.775  1.00 66.48 LIG 0.21  HD
ENDBRANCH 30 32
ENDBRANCH 1 30
BRANCH 1 34
ATOM     34  C   THR D 648     -64.985   9.387  -7.219  1.00 62.56 LIG 0.24  C 
ATOM     35 O    THR D 648     -64.001   9.239  -7.953  1.00 59.73 LIG-0.27  OA
ATOM     36  N   PRO D 649     -66.096   8.625  -7.326  1.00 65.34 LIG-0.34  N 
ATOM     37  CA  PRO D 649     -66.255   7.613  -8.380  1.00 70.60 LIG 0.18  C 
ATOM     38  CD  PRO D 649     -67.193   8.567  -6.336  1.00 66.58 LIG 0.13  C 
ATOM     39  CB  PRO D 649     -67.454   6.788  -7.898  1.00 67.49 LIG 0.04  C 
ATOM     40  CG  PRO D 649     -68.221   7.702  -7.002  1.00 65.73 LIG 0.02  C 
BRANCH 37 41
ATOM     41  C   PRO D 649     -66.550   8.191  -9.769  1.00 77.20 LIG 0.24  C 
ATOM     42  N   ARG D 650     -65.717   7.824 -10.744  1.00 83.37 LIG-0.35  N 
ATOM     43 H    ARG D 650     -65.027   7.329 -10.612  1.00 83.37 LIG 0.16  HD
ATOM     44 O    PRO D 649     -67.519   8.939  -9.943  1.00 68.92 LIG-0.27  OA
BRANCH 42 45
ATOM     45  CA  ARG D 650     -65.897   8.231 -12.136  1.00 76.40 LIG 0.16  C 
BRANCH 45 46
ATOM     46  C   ARG D 650     -67.198   7.688 -12.716  1.00 81.79 LIG 0.22  C 
ATOM     47 O    ARG D 650     -67.926   6.954 -12.048  1.00 80.18 LIG-0.29  OA
ENDBRANCH 45 46
BRANCH 45 48
ATOM     48  CB  ARG D 650     -64.710   7.769 -12.978  1.00 77.84 LIG 0.04  C 
BRANCH 48 49
ATOM     49  CG  ARG D 650     -63.463   7.480 -12.158  1.00 87.31 LIG 0.02  C 
BRANCH 49 50
ATOM     50  CD  ARG D 650     -62.374   6.786 -12.965  1.00 89.00 LIG 0.14  C 
BRANCH 50 51
ATOM     51  NE  ARG D 650     -61.356   6.143 -12.134  1.00 88.84 LIG-0.23  N 
ATOM     52 HE   ARG D 650     -61.560   5.966 -11.318  1.00 88.84 LIG 0.18  HD
ATOM     53  CZ  ARG D 650     -60.136   5.813 -12.555  1.00 89.69 LIG 0.67  C 
ATOM     54  NH2 ARG D 650     -59.768   6.045 -13.811  1.00 88.97 LIG-0.23  N 
ATOM     55  NH1 ARG D 650     -59.281   5.238 -11.719  1.00 77.77 LIG-0.23  N 
ATOM     56 2HH2 ARG D 650     -58.978   5.829 -14.075  1.00 88.97 LIG 0.17  HD
ATOM     57 1HH2 ARG D 650     -60.319   6.412 -14.360  1.00 88.97 LIG 0.17  HD
ATOM     58 1HH1 ARG D 650     -59.515   5.079 -10.907  1.00 77.77 LIG 0.17  HD
ATOM     59 2HH1 ARG D 650     -58.493   5.024 -11.989  1.00 77.77 LIG 0.17  HD
ENDBRANCH 50 51
ENDBRANCH 49 50
ENDBRANCH 48 49
ENDBRANCH 45 48
ENDBRANCH 42 45
ENDBRANCH 37 41
ENDBRANCH 1 34
TORSDOF 22
ENDMDL
MODEL 15
USER: ADFR SOLUTION from run 67
USER: SCORE 18.351532 LL:  -4.429 LR: -15.186 RR:   0.000 FEB:  -8.623
USER: RMSD 6.543648
USER: SEED 66
USER: STATUS no improvement in best in 5 clusters for 5 generations
USER: GENES 24
USER: genes 0 Translation |==|  0.60155 0.48041 0.58774
USER: genes 1 Rotation |==|  0.35800 0.22092 0.14164 0.65339
USER: genes 2 Torsion [CB]-CA--N-[C] |==|  0.78610
USER: genes 3 Torsion [N]-C--CA-[N] |==|  0.32686
USER: genes 4 Torsion [C]-CA--CB-[CG] |==|  0.26201
USER: genes 5 Torsion [CA]-CB--CG-[CD2] |==|  0.34939
USER: genes 6 Torsion [C]-CA--N-[C] |==|  0.79049
USER: genes 7 Torsion [N]-C--CA-[N] |==|  0.61652
USER: genes 8 Torsion [C]-CA--N-[C] |==|  0.67876
USER: genes 9 Torsion [N]-C--CA-[N] |==|  0.80283
USER: genes 10 Torsion [C]-CA--CB-[CG2] |==|  0.35563
USER: genes 11 Torsion [CA]-CB--CG1-[CD1] |==|  0.42260
USER: genes 12 Torsion [C]-CA--CB-[CG] |==|  0.42557
USER: genes 13 Torsion [CA]-CB--CG-[CD1] |==|  0.27906
USER: genes 14 Torsion [N]-CA--CB-[CG2] |==|  0.88868
USER: genes 15 Torsion [CA]-CB--OG1-[HG1] |==|  0.12881
USER: genes 16 Torsion [N]-CA--C-[N] |==|  0.16112
USER: genes 17 Torsion [N]-CA--C-[N] |==|  0.48329
USER: genes 18 Torsion [C]-N--CA-[C] |==|  0.10393
USER: genes 19 Torsion [N]-CA--C-[O] |==|  0.23731
USER: genes 20 Torsion [N]-CA--CB-[CG] |==|  0.77916
USER: genes 21 Torsion [CA]-CB--CG-[CD] |==|  0.26943
USER: genes 22 Torsion [CB]-CG--CD-[NE] |==|  0.58666
USER: genes 23 Torsion [CG]-CD--NE-[HE] |==|  0.25757
ROOT
ATOM      1  CA  THR D 648     -60.144   9.270  -6.332  1.00 62.87 LIG 0.20  C 
ENDROOT
BRANCH 1 2
ATOM      2  N   THR D 648     -61.038   9.758  -5.285  1.00 56.91 LIG-0.34  N 
ATOM      3  C   LEU D 647     -61.743   8.931  -4.518  1.00 59.35 LIG 0.24  C 
ATOM      4 O    LEU D 647     -61.684   7.705  -4.624  1.00 56.20 LIG-0.27  OA
ATOM      5 H    THR D 648     -61.064  10.614  -5.212  1.00 56.91 LIG 0.16  HD
BRANCH 3 6
ATOM      6  CA  LEU D 647     -62.632   9.586  -3.477  1.00 55.15 LIG 0.18  C 
BRANCH 6 7
ATOM      7  CB  LEU D 647     -62.124   9.196  -2.052  1.00 49.69 LIG 0.04  C 
BRANCH 7 8
ATOM      8  CG  LEU D 647     -61.156  10.097  -1.275  1.00 48.41 LIG-0.02  C 
ATOM      9  CD2 LEU D 647     -61.666  10.460   0.112  1.00 46.46 LIG 0.01  C 
ATOM     10  CD1 LEU D 647     -60.878  11.364  -2.069  1.00 42.39 LIG 0.01  C 
ENDBRANCH 7 8
ENDBRANCH 6 7
BRANCH 6 11
ATOM     11  N   LEU D 647     -64.035   9.301  -3.685  1.00 57.83 LIG-0.35  N 
ATOM     12  C   LEU D 646     -64.721   9.908  -4.655  1.00 69.64 LIG 0.24  C 
ATOM     13 O    LEU D 646     -64.212  10.757  -5.392  1.00 59.31 LIG-0.27  OA
ATOM     14 H    LEU D 647     -64.370   8.725  -3.141  1.00 57.83 LIG 0.16  HD
BRANCH 12 15
ATOM     15  CA  LEU D 646     -66.210   9.491  -4.871  1.00 75.89 LIG 0.18  C 
BRANCH 15 16
ATOM     16  N   LEU D 646     -66.668   9.335  -6.219  1.00 90.15 LIG-0.35  N 
ATOM     17 H    LEU D 646     -66.286   8.700  -6.656  1.00 90.15 LIG 0.16  HD
ATOM     18  C   ILE D 645     -67.611  10.129  -6.725  1.00 94.17 LIG 0.26  C 
ATOM     19 O    ILE D 645     -68.180  11.006  -6.064  1.00104.89 LIG-0.27  OA
BRANCH 18 20
ATOM     20  CA  ILE D 645     -67.975   9.901  -8.188  1.00 87.61 LIG 0.40  C 
ATOM     21  N   ILE D 645     -66.908  10.332  -9.141  1.00 97.17 LIG 0.61  N 
BRANCH 20 22
ATOM     22  CB  ILE D 645     -68.242   8.371  -8.230  1.00 83.91 LIG 0.03  C 
ATOM     23  CG2 ILE D 645     -69.601   8.081  -8.862  1.00 71.96 LIG 0.01  C 
BRANCH 22 24
ATOM     24  CG1 ILE D 645     -67.102   7.596  -8.917  1.00 78.38 LIG 0.00  C 
ATOM     25  CD1 ILE D 645     -66.939   6.163  -8.438  1.00 60.94 LIG 0.01  C 
ENDBRANCH 22 24
ENDBRANCH 20 22
ENDBRANCH 18 20
ENDBRANCH 15 16
BRANCH 15 26
ATOM     26  CB  LEU D 646     -66.454   8.154  -4.141  1.00 77.70 LIG 0.04  C 
BRANCH 26 27
ATOM     27  CG  LEU D 646     -67.890   7.885  -3.681  1.00 75.60 LIG-0.02  C 
ATOM     28  CD1 LEU D 646     -68.627   6.946  -4.627  1.00 71.06 LIG 0.01  C 
ATOM     29  CD2 LEU D 646     -67.877   7.329  -2.271  1.00 73.48 LIG 0.01  C 
ENDBRANCH 26 27
ENDBRANCH 15 26
ENDBRANCH 12 15
ENDBRANCH 6 11
ENDBRANCH 3 6
ENDBRANCH 1 2
BRANCH 1 30
ATOM     30  CB  THR D 648     -58.823   8.734  -5.723  1.00 65.76 LIG 0.15  C 
ATOM     31  CG2 THR D 648     -58.321   9.610  -4.574  1.00 59.42 LIG 0.04  C 
BRANCH 30 32
ATOM     32 OG1  THR D 648     -59.037   7.404  -5.232  1.00 66.48 LIG-0.39  OA
ATOM     33 HG1  THR D 648     -59.451   6.955  -5.808  1.00 66.48 LIG 0.21  HD
ENDBRANCH 30 32
ENDBRANCH 1 30
BRANCH 1 34
ATOM     34  C   THR D 648     -60.868   8.223  -7.203  1.00 62.56 LIG 0.24  C 
ATOM     35 O    THR D 648     -60.424   7.072  -7.284  1.00 59.73 LIG-0.27  OA
ATOM     36  N   PRO D 649     -62.007   8.611  -7.818  1.00 65.34 LIG-0.34  N 
ATOM     37  CA  PRO D 649     -62.765   7.714  -8.704  1.00 70.60 LIG 0.18  C 
ATOM     38  CD  PRO D 649     -62.731   9.875  -7.562  1.00 66.58 LIG 0.13  C 
ATOM     39  CB  PRO D 649     -64.110   8.433  -8.865  1.00 67.49 LIG 0.04  C 
ATOM     40  CG  PRO D 649     -63.817   9.871  -8.596  1.00 65.73 LIG 0.02  C 
BRANCH 37 41
ATOM     41  C   PRO D 649     -62.126   7.500 -10.081  1.00 77.20 LIG 0.24  C 
ATOM     42  N   ARG D 650     -62.716   6.598 -10.865  1.00 83.37 LIG-0.35  N 
ATOM     43 H    ARG D 650     -63.390   6.125 -10.616  1.00 83.37 LIG 0.16  HD
ATOM     44 O    PRO D 649     -61.129   8.151 -10.416  1.00 68.92 LIG-0.27  OA
BRANCH 42 45
ATOM     45  CA  ARG D 650     -62.273   6.324 -12.231  1.00 76.40 LIG 0.16  C 
BRANCH 45 46
ATOM     46  C   ARG D 650     -60.755   6.382 -12.352  1.00 81.79 LIG 0.22  C 
ATOM     47 O    ARG D 650     -60.066   5.395 -12.094  1.00 80.18 LIG-0.29  OA
ENDBRANCH 45 46
BRANCH 45 48
ATOM     48  CB  ARG D 650     -62.919   7.310 -13.202  1.00 77.84 LIG 0.04  C 
BRANCH 48 49
ATOM     49  CG  ARG D 650     -64.352   6.954 -13.563  1.00 87.31 LIG 0.02  C 
BRANCH 49 50
ATOM     50  CD  ARG D 650     -65.376   7.711 -12.728  1.00 89.00 LIG 0.14  C 
BRANCH 50 51
ATOM     51  NE  ARG D 650     -66.608   6.958 -12.497  1.00 88.84 LIG-0.23  N 
ATOM     52 HE   ARG D 650     -66.660   6.485 -11.781  1.00 88.84 LIG 0.18  HD
ATOM     53  CZ  ARG D 650     -67.656   6.954 -13.320  1.00 89.69 LIG 0.67  C 
ATOM     54  NH2 ARG D 650     -67.644   7.678 -14.434  1.00 88.97 LIG-0.23  N 
ATOM     55  NH1 ARG D 650     -68.728   6.229 -13.022  1.00 77.77 LIG-0.23  N 
ATOM     56 2HH2 ARG D 650     -68.325   7.670 -14.960  1.00 88.97 LIG 0.17  HD
ATOM     57 1HH2 ARG D 650     -66.956   8.155 -14.630  1.00 88.97 LIG 0.17  HD
ATOM     58 1HH1 ARG D 650     -68.745   5.763 -12.300  1.00 77.77 LIG 0.17  HD
ATOM     59 2HH1 ARG D 650     -69.405   6.226 -13.552  1.00 77.77 LIG 0.17  HD
ENDBRANCH 50 51
ENDBRANCH 49 50
ENDBRANCH 48 49
ENDBRANCH 45 48
ENDBRANCH 42 45
ENDBRANCH 37 41
ENDBRANCH 1 34
TORSDOF 22
ENDMDL
MODEL 16
USER: ADFR SOLUTION from run 7
USER: SCORE 18.882772 LL:  -4.268 LR: -15.095 RR:   0.000 FEB:  -8.533
USER: RMSD 7.279891
USER: SEED 907995
USER: STATUS searching
USER: GENES 24
USER: genes 0 Translation |==|  0.65051 0.51872 0.62468
USER: genes 1 Rotation |==|  0.38969 0.16260 0.19684 0.67913
USER: genes 2 Torsion [CB]-CA--N-[C] |==|  0.86021
USER: genes 3 Torsion [N]-C--CA-[N] |==|  0.14443
USER: genes 4 Torsion [C]-CA--CB-[CG] |==|  0.30320
USER: genes 5 Torsion [CA]-CB--CG-[CD2] |==|  0.27914
USER: genes 6 Torsion [C]-CA--N-[C] |==|  0.16209
USER: genes 7 Torsion [N]-C--CA-[N] |==|  0.28249
USER: genes 8 Torsion [C]-CA--N-[C] |==|  0.72275
USER: genes 9 Torsion [N]-C--CA-[N] |==|  0.65781
USER: genes 10 Torsion [C]-CA--CB-[CG2] |==|  0.31259
USER: genes 11 Torsion [CA]-CB--CG1-[CD1] |==|  0.45985
USER: genes 12 Torsion [C]-CA--CB-[CG] |==|  0.42360
USER: genes 13 Torsion [CA]-CB--CG-[CD1] |==|  0.23658
USER: genes 14 Torsion [N]-CA--CB-[CG2] |==|  0.50968
USER: genes 15 Torsion [CA]-CB--OG1-[HG1] |==|  0.99628
USER: genes 16 Torsion [N]-CA--C-[N] |==|  0.37189
USER: genes 17 Torsion [N]-CA--C-[N] |==|  0.51084
USER: genes 18 Torsion [C]-N--CA-[C] |==|  0.17558
USER: genes 19 Torsion [N]-CA--C-[O] |==|  0.14742
USER: genes 20 Torsion [N]-CA--CB-[CG] |==|  0.83202
USER: genes 21 Torsion [CA]-CB--CG-[CD] |==|  0.88822
USER: genes 22 Torsion [CB]-CG--CD-[NE] |==|  0.24762
USER: genes 23 Torsion [CG]-CD--NE-[HE] |==|  0.72914
ROOT
ATOM      1  CA  THR D 648     -59.079   9.874  -5.446  1.00 62.87 LIG 0.20  C 
ENDROOT
BRANCH 1 2
ATOM      2  N   THR D 648     -60.145  10.304  -4.544  1.00 56.91 LIG-0.34  N 
ATOM      3  C   LEU D 647     -60.309   9.766  -3.339  1.00 59.35 LIG 0.24  C 
ATOM      4 O    LEU D 647     -59.574   8.884  -2.893  1.00 56.20 LIG-0.27  OA
ATOM      5 H    THR D 648     -60.647  10.927  -4.861  1.00 56.91 LIG 0.16  HD
BRANCH 3 6
ATOM      6  CA  LEU D 647     -61.464  10.313  -2.519  1.00 55.15 LIG 0.18  C 
BRANCH 6 7
ATOM      7  CB  LEU D 647     -61.527   9.555  -1.155  1.00 49.69 LIG 0.04  C 
BRANCH 7 8
ATOM      8  CG  LEU D 647     -61.144  10.244   0.161  1.00 48.41 LIG-0.02  C 
ATOM      9  CD2 LEU D 647     -62.352  10.704   0.963  1.00 46.46 LIG 0.01  C 
ATOM     10  CD1 LEU D 647     -60.233  11.428  -0.122  1.00 42.39 LIG 0.01  C 
ENDBRANCH 7 8
ENDBRANCH 6 7
BRANCH 6 11
ATOM     11  N   LEU D 647     -62.716  10.299  -3.244  1.00 57.83 LIG-0.35  N 
ATOM     12  C   LEU D 646     -63.216   9.160  -3.727  1.00 69.64 LIG 0.24  C 
ATOM     13 O    LEU D 646     -62.628   8.081  -3.614  1.00 59.31 LIG-0.27  OA
ATOM     14 H    LEU D 647     -63.091  11.068  -3.329  1.00 57.83 LIG 0.16  HD
BRANCH 12 15
ATOM     15  CA  LEU D 646     -64.610   9.210  -4.428  1.00 75.89 LIG 0.18  C 
BRANCH 15 16
ATOM     16  N   LEU D 646     -64.635   9.196  -5.859  1.00 90.15 LIG-0.35  N 
ATOM     17 H    LEU D 646     -64.539   8.418  -6.212  1.00 90.15 LIG 0.16  HD
ATOM     18  C   ILE D 645     -64.794  10.320  -6.558  1.00 94.17 LIG 0.26  C 
ATOM     19 O    ILE D 645     -64.978  11.422  -6.030  1.00104.89 LIG-0.27  OA
BRANCH 18 20
ATOM     20  CA  ILE D 645     -64.749  10.185  -8.076  1.00 87.61 LIG 0.40  C 
ATOM     21  N   ILE D 645     -63.709  11.043  -8.719  1.00 97.17 LIG 0.61  N 
BRANCH 20 22
ATOM     22  CB  ILE D 645     -64.484   8.666  -8.268  1.00 83.91 LIG 0.03  C 
ATOM     23  CG2 ILE D 645     -65.696   7.984  -8.896  1.00 71.96 LIG 0.01  C 
BRANCH 22 24
ATOM     24  CG1 ILE D 645     -63.188   8.392  -9.056  1.00 78.38 LIG 0.00  C 
ATOM     25  CD1 ILE D 645     -62.698   6.956  -8.978  1.00 60.94 LIG 0.01  C 
ENDBRANCH 22 24
ENDBRANCH 20 22
ENDBRANCH 18 20
ENDBRANCH 15 16
BRANCH 15 26
ATOM     26  CB  LEU D 646     -65.446   8.010  -3.938  1.00 77.70 LIG 0.04  C 
BRANCH 26 27
ATOM     27  CG  LEU D 646     -66.967   8.192  -3.952  1.00 75.60 LIG-0.02  C 
ATOM     28  CD1 LEU D 646     -67.569   7.868  -5.314  1.00 71.06 LIG 0.01  C 
ATOM     29  CD2 LEU D 646     -67.593   7.337  -2.868  1.00 73.48 LIG 0.01  C 
ENDBRANCH 26 27
ENDBRANCH 15 26
ENDBRANCH 12 15
ENDBRANCH 6 11
ENDBRANCH 3 6
ENDBRANCH 1 2
BRANCH 1 30
ATOM     30  CB  THR D 648     -57.711   9.869  -4.718  1.00 65.76 LIG 0.15  C 
ATOM     31  CG2 THR D 648     -56.560   9.505  -5.658  1.00 59.42 LIG 0.04  C 
BRANCH 30 32
ATOM     32 OG1  THR D 648     -57.465  11.171  -4.168  1.00 66.48 LIG-0.39  OA
ATOM     33 HG1  THR D 648     -58.101  11.683  -4.364  1.00 66.48 LIG 0.21  HD
ENDBRANCH 30 32
ENDBRANCH 1 30
BRANCH 1 34
ATOM     34  C   THR D 648     -59.430   8.506  -6.066  1.00 62.56 LIG 0.24  C 
ATOM     35 O    THR D 648     -59.892   7.604  -5.358  1.00 59.73 LIG-0.27  OA
ATOM     36  N   PRO D 649     -59.249   8.366  -7.398  1.00 65.34 LIG-0.34  N 
ATOM     37  CA  PRO D 649     -59.511   7.100  -8.098  1.00 70.60 LIG 0.18  C 
ATOM     38  CD  PRO D 649     -58.952   9.466  -8.341  1.00 66.58 LIG 0.13  C 
ATOM     39  CB  PRO D 649     -59.522   7.509  -9.575  1.00 67.49 LIG 0.04  C 
ATOM     40  CG  PRO D 649     -58.705   8.756  -9.640  1.00 65.73 LIG 0.02  C 
BRANCH 37 41
ATOM     41  C   PRO D 649     -58.446   6.021  -7.868  1.00 77.20 LIG 0.24  C 
ATOM     42  N   ARG D 650     -58.607   4.887  -8.549  1.00 83.37 LIG-0.35  N 
ATOM     43 H    ARG D 650     -59.282   4.734  -9.059  1.00 83.37 LIG 0.16  HD
ATOM     44 O    PRO D 649     -57.501   6.229  -7.098  1.00 68.92 LIG-0.27  OA
BRANCH 42 45
ATOM     45  CA  ARG D 650     -57.646   3.786  -8.496  1.00 76.40 LIG 0.16  C 
BRANCH 45 46
ATOM     46  C   ARG D 650     -57.540   3.201  -7.093  1.00 81.79 LIG 0.22  C 
ATOM     47 O    ARG D 650     -58.547   2.829  -6.489  1.00 80.18 LIG-0.29  OA
ENDBRANCH 45 46
BRANCH 45 48
ATOM     48  CB  ARG D 650     -56.275   4.259  -8.976  1.00 77.84 LIG 0.04  C 
BRANCH 48 49
ATOM     49  CG  ARG D 650     -56.278   4.767 -10.409  1.00 87.31 LIG 0.02  C 
BRANCH 49 50
ATOM     50  CD  ARG D 650     -57.144   3.920 -11.332  1.00 89.00 LIG 0.14  C 
BRANCH 50 51
ATOM     51  NE  ARG D 650     -58.537   4.364 -11.391  1.00 88.84 LIG-0.23  N 
ATOM     52 HE   ARG D 650     -59.108   3.956 -10.894  1.00 88.84 LIG 0.18  HD
ATOM     53  CZ  ARG D 650     -58.981   5.357 -12.160  1.00 89.69 LIG 0.67  C 
ATOM     54  NH2 ARG D 650     -58.144   6.036 -12.938  1.00 88.97 LIG-0.23  N 
ATOM     55  NH1 ARG D 650     -60.269   5.679 -12.146  1.00 77.77 LIG-0.23  N 
ATOM     56 2HH2 ARG D 650     -58.440   6.676 -13.432  1.00 88.97 LIG 0.17  HD
ATOM     57 1HH2 ARG D 650     -57.308   5.837 -12.947  1.00 88.97 LIG 0.17  HD
ATOM     58 1HH1 ARG D 650     -60.814   5.247 -11.641  1.00 77.77 LIG 0.17  HD
ATOM     59 2HH1 ARG D 650     -60.557   6.319 -12.642  1.00 77.77 LIG 0.17  HD
ENDBRANCH 50 51
ENDBRANCH 49 50
ENDBRANCH 48 49
ENDBRANCH 45 48
ENDBRANCH 42 45
ENDBRANCH 37 41
ENDBRANCH 1 34
TORSDOF 22
ENDMDL
MODEL 17
USER: ADFR SOLUTION from run 146
USER: SCORE 18.899050 LL:  -4.599 LR: -14.999 RR:   0.000 FEB:  -8.437
USER: RMSD 8.493085
USER: SEED 145
USER: STATUS no improvement in best in 8 clusters for 5 generations
USER: GENES 24
USER: genes 0 Translation |==|  0.62266 0.50376 0.61820
USER: genes 1 Rotation |==|  0.44194 0.13887 0.19949 0.66097
USER: genes 2 Torsion [CB]-CA--N-[C] |==|  0.77058
USER: genes 3 Torsion [N]-C--CA-[N] |==|  0.34398
USER: genes 4 Torsion [C]-CA--CB-[CG] |==|  0.08955
USER: genes 5 Torsion [CA]-CB--CG-[CD2] |==|  0.72532
USER: genes 6 Torsion [C]-CA--N-[C] |==|  0.66110
USER: genes 7 Torsion [N]-C--CA-[N] |==|  0.33333
USER: genes 8 Torsion [C]-CA--N-[C] |==|  0.66207
USER: genes 9 Torsion [N]-C--CA-[N] |==|  0.33090
USER: genes 10 Torsion [C]-CA--CB-[CG2] |==|  0.10848
USER: genes 11 Torsion [CA]-CB--CG1-[CD1] |==|  0.75599
USER: genes 12 Torsion [C]-CA--CB-[CG] |==|  0.50422
USER: genes 13 Torsion [CA]-CB--CG-[CD1] |==|  0.27835
USER: genes 14 Torsion [N]-CA--CB-[CG2] |==|  0.88577
USER: genes 15 Torsion [CA]-CB--OG1-[HG1] |==|  0.96637
USER: genes 16 Torsion [N]-CA--C-[N] |==|  0.18045
USER: genes 17 Torsion [N]-CA--C-[N] |==|  0.17531
USER: genes 18 Torsion [C]-N--CA-[C] |==|  0.57839
USER: genes 19 Torsion [N]-CA--C-[O] |==|  0.89672
USER: genes 20 Torsion [N]-CA--CB-[CG] |==|  0.67596
USER: genes 21 Torsion [CA]-CB--CG-[CD] |==|  0.06053
USER: genes 22 Torsion [CB]-CG--CD-[NE] |==|  0.74104
USER: genes 23 Torsion [CG]-CD--NE-[HE] |==|  0.84389
ROOT
ATOM      1  CA  THR D 648     -59.685   9.638  -5.601  1.00 62.87 LIG 0.20  C 
ENDROOT
BRANCH 1 2
ATOM      2  N   THR D 648     -60.958   9.930  -4.946  1.00 56.91 LIG-0.34  N 
ATOM      3  C   LEU D 647     -61.601   9.021  -4.218  1.00 59.35 LIG 0.24  C 
ATOM      4 O    LEU D 647     -61.168   7.882  -4.033  1.00 56.20 LIG-0.27  OA
ATOM      5 H    THR D 648     -61.246  10.730  -5.073  1.00 56.91 LIG 0.16  HD
BRANCH 3 6
ATOM      6  CA  LEU D 647     -62.914   9.470  -3.604  1.00 55.15 LIG 0.18  C 
BRANCH 6 7
ATOM      7  CB  LEU D 647     -62.735   9.611  -2.059  1.00 49.69 LIG 0.04  C 
BRANCH 7 8
ATOM      8  CG  LEU D 647     -61.396  10.039  -1.446  1.00 48.41 LIG-0.02  C 
ATOM      9  CD2 LEU D 647     -60.575   8.864  -0.934  1.00 46.46 LIG 0.01  C 
ATOM     10  CD1 LEU D 647     -61.636  11.029  -0.317  1.00 42.39 LIG 0.01  C 
ENDBRANCH 7 8
ENDBRANCH 6 7
BRANCH 6 11
ATOM     11  N   LEU D 647     -64.023   8.619  -3.979  1.00 57.83 LIG-0.35  N 
ATOM     12  C   LEU D 646     -65.093   9.120  -4.599  1.00 69.64 LIG 0.24  C 
ATOM     13 O    LEU D 646     -65.207  10.323  -4.848  1.00 59.31 LIG-0.27  OA
ATOM     14 H    LEU D 647     -63.927   7.790  -3.770  1.00 57.83 LIG 0.16  HD
BRANCH 12 15
ATOM     15  CA  LEU D 646     -66.214   8.129  -5.044  1.00 75.89 LIG 0.18  C 
BRANCH 15 16
ATOM     16  N   LEU D 646     -67.525   8.322  -4.502  1.00 90.15 LIG-0.35  N 
ATOM     17 H    LEU D 646     -67.869   9.094  -4.662  1.00 90.15 LIG 0.16  HD
ATOM     18  C   ILE D 645     -68.134   7.361  -3.808  1.00 94.17 LIG 0.26  C 
ATOM     19 O    ILE D 645     -67.640   6.241  -3.631  1.00104.89 LIG-0.27  OA
BRANCH 18 20
ATOM     20  CA  ILE D 645     -69.505   7.704  -3.235  1.00 87.61 LIG 0.40  C 
ATOM     21  N   ILE D 645     -70.602   6.831  -3.753  1.00 97.17 LIG 0.61  N 
BRANCH 20 22
ATOM     22  CB  ILE D 645     -69.276   7.547  -1.707  1.00 83.91 LIG 0.03  C 
ATOM     23  CG2 ILE D 645     -67.900   8.078  -1.313  1.00 71.96 LIG 0.01  C 
BRANCH 22 24
ATOM     24  CG1 ILE D 645     -70.406   8.184  -0.877  1.00 78.38 LIG 0.00  C 
ATOM     25  CD1 ILE D 645     -70.200   9.657  -0.563  1.00 60.94 LIG 0.01  C 
ENDBRANCH 22 24
ENDBRANCH 20 22
ENDBRANCH 18 20
ENDBRANCH 15 16
BRANCH 15 26
ATOM     26  CB  LEU D 646     -66.334   8.187  -6.581  1.00 77.70 LIG 0.04  C 
BRANCH 26 27
ATOM     27  CG  LEU D 646     -67.416   7.302  -7.209  1.00 75.60 LIG-0.02  C 
ATOM     28  CD1 LEU D 646     -68.669   8.094  -7.560  1.00 71.06 LIG 0.01  C 
ATOM     29  CD2 LEU D 646     -66.857   6.607  -8.435  1.00 73.48 LIG 0.01  C 
ENDBRANCH 26 27
ENDBRANCH 15 26
ENDBRANCH 12 15
ENDBRANCH 6 11
ENDBRANCH 3 6
ENDBRANCH 1 2
BRANCH 1 30
ATOM     30  CB  THR D 648     -58.505   9.795  -4.608  1.00 65.76 LIG 0.15  C 
ATOM     31  CG2 THR D 648     -58.671  11.019  -3.706  1.00 59.42 LIG 0.04  C 
BRANCH 30 32
ATOM     32 OG1  THR D 648     -58.422   8.622  -3.786  1.00 66.48 LIG-0.39  OA
ATOM     33 HG1  THR D 648     -59.117   8.160  -3.886  1.00 66.48 LIG 0.21  HD
ENDBRANCH 30 32
ENDBRANCH 1 30
BRANCH 1 34
ATOM     34  C   THR D 648     -59.733   8.242  -6.255  1.00 62.56 LIG 0.24  C 
ATOM     35 O    THR D 648     -59.022   7.329  -5.819  1.00 59.73 LIG-0.27  OA
ATOM     36  N   PRO D 649     -60.602   8.066  -7.275  1.00 65.34 LIG-0.34  N 
ATOM     37  CA  PRO D 649     -60.711   6.792  -8.002  1.00 70.60 LIG 0.18  C 
ATOM     38  CD  PRO D 649     -61.656   9.022  -7.676  1.00 66.58 LIG 0.13  C 
ATOM     39  CB  PRO D 649     -62.021   6.945  -8.784  1.00 67.49 LIG 0.04  C 
ATOM     40  CG  PRO D 649     -62.220   8.416  -8.927  1.00 65.73 LIG 0.02  C 
BRANCH 37 41
ATOM     41  C   PRO D 649     -59.557   6.521  -8.974  1.00 77.20 LIG 0.24  C 
ATOM     42  N   ARG D 650     -58.348   6.397  -8.426  1.00 83.37 LIG-0.35  N 
ATOM     43 H    ARG D 650     -58.198   6.502  -7.586  1.00 83.37 LIG 0.16  HD
ATOM     44 O    PRO D 649     -59.773   6.416 -10.187  1.00 68.92 LIG-0.27  OA
BRANCH 42 45
ATOM     45  CA  ARG D 650     -57.154   6.070  -9.204  1.00 76.40 LIG 0.16  C 
BRANCH 45 46
ATOM     46  C   ARG D 650     -56.119   5.335  -8.361  1.00 81.79 LIG 0.22  C 
ATOM     47 O    ARG D 650     -55.945   5.632  -7.179  1.00 80.18 LIG-0.29  OA
ENDBRANCH 45 46
BRANCH 45 48
ATOM     48  CB  ARG D 650     -56.547   7.340  -9.797  1.00 77.84 LIG 0.04  C 
BRANCH 48 49
ATOM     49  CG  ARG D 650     -56.556   7.363 -11.317  1.00 87.31 LIG 0.02  C 
BRANCH 49 50
ATOM     50  CD  ARG D 650     -57.597   6.425 -11.914  1.00 89.00 LIG 0.14  C 
BRANCH 50 51
ATOM     51  NE  ARG D 650     -57.068   5.098 -12.231  1.00 88.84 LIG-0.23  N 
ATOM     52 HE   ARG D 650     -56.389   5.053 -12.757  1.00 88.84 LIG 0.18  HD
ATOM     53  CZ  ARG D 650     -57.565   3.955 -11.761  1.00 89.69 LIG 0.67  C 
ATOM     54  NH2 ARG D 650     -58.603   3.959 -10.931  1.00 88.97 LIG-0.23  N 
ATOM     55  NH1 ARG D 650     -57.016   2.799 -12.115  1.00 77.77 LIG-0.23  N 
ATOM     56 2HH2 ARG D 650     -58.918   3.217 -10.632  1.00 88.97 LIG 0.17  HD
ATOM     57 1HH2 ARG D 650     -58.960   4.704 -10.693  1.00 88.97 LIG 0.17  HD
ATOM     58 1HH1 ARG D 650     -56.340   2.790 -12.647  1.00 77.77 LIG 0.17  HD
ATOM     59 2HH1 ARG D 650     -57.336   2.061 -11.813  1.00 77.77 LIG 0.17  HD
ENDBRANCH 50 51
ENDBRANCH 49 50
ENDBRANCH 48 49
ENDBRANCH 45 48
ENDBRANCH 42 45
ENDBRANCH 37 41
ENDBRANCH 1 34
TORSDOF 22
ENDMDL
MODEL 18
USER: ADFR SOLUTION from run 18
USER: SCORE 17.206091 LL:  -4.563 LR: -14.966 RR:   0.000 FEB:  -8.404
USER: RMSD 5.960229
USER: SEED 17
USER: STATUS no improvement in best in 12 clusters for 5 generations
USER: GENES 24
USER: genes 0 Translation |==|  0.48512 0.49817 0.68517
USER: genes 1 Rotation |==|  0.77922 0.71064 0.52154 0.85666
USER: genes 2 Torsion [CB]-CA--N-[C] |==|  0.24444
USER: genes 3 Torsion [N]-C--CA-[N] |==|  0.75591
USER: genes 4 Torsion [C]-CA--CB-[CG] |==|  0.26790
USER: genes 5 Torsion [CA]-CB--CG-[CD2] |==|  0.05592
USER: genes 6 Torsion [C]-CA--N-[C] |==|  0.75832
USER: genes 7 Torsion [N]-C--CA-[N] |==|  0.49331
USER: genes 8 Torsion [C]-CA--N-[C] |==|  0.70106
USER: genes 9 Torsion [N]-C--CA-[N] |==|  0.45453
USER: genes 10 Torsion [C]-CA--CB-[CG2] |==|  0.86674
USER: genes 11 Torsion [CA]-CB--CG1-[CD1] |==|  0.58243
USER: genes 12 Torsion [C]-CA--CB-[CG] |==|  0.34604
USER: genes 13 Torsion [CA]-CB--CG-[CD1] |==|  0.45658
USER: genes 14 Torsion [N]-CA--CB-[CG2] |==|  0.78382
USER: genes 15 Torsion [CA]-CB--OG1-[HG1] |==|  0.01437
USER: genes 16 Torsion [N]-CA--C-[N] |==|  0.18264
USER: genes 17 Torsion [N]-CA--C-[N] |==|  0.87370
USER: genes 18 Torsion [C]-N--CA-[C] |==|  0.66181
USER: genes 19 Torsion [N]-CA--C-[O] |==|  0.20971
USER: genes 20 Torsion [N]-CA--CB-[CG] |==|  0.91443
USER: genes 21 Torsion [CA]-CB--CG-[CD] |==|  0.73921
USER: genes 22 Torsion [CB]-CG--CD-[NE] |==|  0.57055
USER: genes 23 Torsion [CG]-CD--NE-[HE] |==|  0.93465
ROOT
ATOM      1  CA  THR D 648     -62.677   9.550  -3.994  1.00 62.87 LIG 0.20  C 
ENDROOT
BRANCH 1 2
ATOM      2  N   THR D 648     -61.467   9.714  -4.797  1.00 56.91 LIG-0.34  N 
ATOM      3  C   LEU D 647     -60.484   8.820  -4.781  1.00 59.35 LIG 0.24  C 
ATOM      4 O    LEU D 647     -60.525   7.790  -4.106  1.00 56.20 LIG-0.27  OA
ATOM      5 H    THR D 648     -61.453  10.431  -5.272  1.00 56.91 LIG 0.16  HD
BRANCH 3 6
ATOM      6  CA  LEU D 647     -59.289   9.131  -5.664  1.00 55.15 LIG 0.18  C 
BRANCH 6 7
ATOM      7  CB  LEU D 647     -58.988  10.663  -5.598  1.00 49.69 LIG 0.04  C 
BRANCH 7 8
ATOM      8  CG  LEU D 647     -57.925  11.227  -4.648  1.00 48.41 LIG-0.02  C 
ATOM      9  CD2 LEU D 647     -56.919  10.181  -4.193  1.00 46.46 LIG 0.01  C 
ATOM     10  CD1 LEU D 647     -58.595  11.858  -3.437  1.00 42.39 LIG 0.01  C 
ENDBRANCH 7 8
ENDBRANCH 6 7
BRANCH 6 11
ATOM     11  N   LEU D 647     -59.450   8.635  -7.013  1.00 57.83 LIG-0.35  N 
ATOM     12  C   LEU D 646     -59.097   7.388  -7.332  1.00 69.64 LIG 0.24  C 
ATOM     13 O    LEU D 646     -58.588   6.617  -6.515  1.00 59.31 LIG-0.27  OA
ATOM     14 H    LEU D 647     -59.784   9.201  -7.568  1.00 57.83 LIG 0.16  HD
BRANCH 12 15
ATOM     15  CA  LEU D 646     -59.374   6.897  -8.788  1.00 75.89 LIG 0.18  C 
BRANCH 15 16
ATOM     16  N   LEU D 646     -58.944   5.577  -9.137  1.00 90.15 LIG-0.35  N 
ATOM     17 H    LEU D 646     -59.410   4.944  -8.788  1.00 90.15 LIG 0.16  HD
ATOM     18  C   ILE D 645     -57.900   5.380  -9.941  1.00 94.17 LIG 0.26  C 
ATOM     19 O    ILE D 645     -57.273   6.305 -10.470  1.00104.89 LIG-0.27  OA
BRANCH 18 20
ATOM     20  CA  ILE D 645     -57.505   3.929 -10.195  1.00 87.61 LIG 0.40  C 
ATOM     21  N   ILE D 645     -56.606   3.756 -11.377  1.00 97.17 LIG 0.61  N 
BRANCH 20 22
ATOM     22  CB  ILE D 645     -56.828   3.529  -8.855  1.00 83.91 LIG 0.03  C 
ATOM     23  CG2 ILE D 645     -55.818   4.590  -8.426  1.00 71.96 LIG 0.01  C 
BRANCH 22 24
ATOM     24  CG1 ILE D 645     -57.855   3.221  -7.750  1.00 78.38 LIG 0.00  C 
ATOM     25  CD1 ILE D 645     -57.369   3.517  -6.341  1.00 60.94 LIG 0.01  C 
ENDBRANCH 22 24
ENDBRANCH 20 22
ENDBRANCH 18 20
ENDBRANCH 15 16
BRANCH 15 26
ATOM     26  CB  LEU D 646     -60.893   6.974  -9.048  1.00 77.70 LIG 0.04  C 
BRANCH 26 27
ATOM     27  CG  LEU D 646     -61.331   7.795 -10.265  1.00 75.60 LIG-0.02  C 
ATOM     28  CD1 LEU D 646     -62.774   7.506 -10.659  1.00 71.06 LIG 0.01  C 
ATOM     29  CD2 LEU D 646     -61.135   9.271  -9.981  1.00 73.48 LIG 0.01  C 
ENDBRANCH 26 27
ENDBRANCH 15 26
ENDBRANCH 12 15
ENDBRANCH 6 11
ENDBRANCH 3 6
ENDBRANCH 1 2
BRANCH 1 30
ATOM     30  CB  THR D 648     -62.485  10.156  -2.580  1.00 65.76 LIG 0.15  C 
ATOM     31  CG2 THR D 648     -61.665   9.241  -1.668  1.00 59.42 LIG 0.04  C 
BRANCH 30 32
ATOM     32 OG1  THR D 648     -61.813  11.418  -2.694  1.00 66.48 LIG-0.39  OA
ATOM     33 HG1  THR D 648     -61.720  11.613  -3.506  1.00 66.48 LIG 0.21  HD
ENDBRANCH 30 32
ENDBRANCH 1 30
BRANCH 1 34
ATOM     34  C   THR D 648     -63.891  10.143  -4.737  1.00 62.56 LIG 0.24  C 
ATOM     35 O    THR D 648     -64.453  11.153  -4.298  1.00 59.73 LIG-0.27  OA
ATOM     36  N   PRO D 649     -64.269   9.539  -5.885  1.00 65.34 LIG-0.34  N 
ATOM     37  CA  PRO D 649     -65.434   9.988  -6.662  1.00 70.60 LIG 0.18  C 
ATOM     38  CD  PRO D 649     -63.498   8.500  -6.600  1.00 66.58 LIG 0.13  C 
ATOM     39  CB  PRO D 649     -65.257   9.274  -8.007  1.00 67.49 LIG 0.04  C 
ATOM     40  CG  PRO D 649     -64.419   8.077  -7.705  1.00 65.73 LIG 0.02  C 
BRANCH 37 41
ATOM     41  C   PRO D 649     -66.786   9.607  -6.048  1.00 77.20 LIG 0.24  C 
ATOM     42  N   ARG D 650     -66.897   8.352  -5.612  1.00 83.37 LIG-0.35  N 
ATOM     43 H    ARG D 650     -66.274   7.765  -5.700  1.00 83.37 LIG 0.16  HD
ATOM     44 O    PRO D 649     -67.694  10.442  -5.967  1.00 68.92 LIG-0.27  OA
BRANCH 42 45
ATOM     45  CA  ARG D 650     -68.094   7.848  -4.941  1.00 76.40 LIG 0.16  C 
BRANCH 45 46
ATOM     46  C   ARG D 650     -67.773   7.313  -3.550  1.00 81.79 LIG 0.22  C 
ATOM     47 O    ARG D 650     -67.555   8.084  -2.615  1.00 80.18 LIG-0.29  OA
ENDBRANCH 45 46
BRANCH 45 48
ATOM     48  CB  ARG D 650     -68.754   6.760  -5.786  1.00 77.84 LIG 0.04  C 
BRANCH 48 49
ATOM     49  CG  ARG D 650     -68.556   6.952  -7.281  1.00 87.31 LIG 0.02  C 
BRANCH 49 50
ATOM     50  CD  ARG D 650     -69.705   7.706  -7.936  1.00 89.00 LIG 0.14  C 
BRANCH 50 51
ATOM     51  NE  ARG D 650     -69.857   7.409  -9.360  1.00 88.84 LIG-0.23  N 
ATOM     52 HE   ARG D 650     -69.168   7.118  -9.784  1.00 88.84 LIG 0.18  HD
ATOM     53  CZ  ARG D 650     -70.990   7.557 -10.046  1.00 89.69 LIG 0.67  C 
ATOM     54  NH2 ARG D 650     -72.094   7.987  -9.443  1.00 88.97 LIG-0.23  N 
ATOM     55  NH1 ARG D 650     -71.023   7.265 -11.340  1.00 77.77 LIG-0.23  N 
ATOM     56 2HH2 ARG D 650     -72.821   8.080  -9.893  1.00 88.97 LIG 0.17  HD
ATOM     57 1HH2 ARG D 650     -72.081   8.172  -8.603  1.00 88.97 LIG 0.17  HD
ATOM     58 1HH1 ARG D 650     -70.313   6.981 -11.735  1.00 77.77 LIG 0.17  HD
ATOM     59 2HH1 ARG D 650     -71.753   7.360 -11.784  1.00 77.77 LIG 0.17  HD
ENDBRANCH 50 51
ENDBRANCH 49 50
ENDBRANCH 48 49
ENDBRANCH 45 48
ENDBRANCH 42 45
ENDBRANCH 37 41
ENDBRANCH 1 34
TORSDOF 22
ENDMDL
MODEL 19
USER: ADFR SOLUTION from run 162
USER: SCORE 17.850324 LL:  -3.869 LR: -14.963 RR:   0.000 FEB:  -8.400
USER: RMSD 5.582603
USER: SEED 161
USER: STATUS searching
USER: GENES 24
USER: genes 0 Translation |==|  0.42320 0.47411 0.48187
USER: genes 1 Rotation |==|  0.21986 0.33575 0.17121 0.69089
USER: genes 2 Torsion [CB]-CA--N-[C] |==|  0.56111
USER: genes 3 Torsion [N]-C--CA-[N] |==|  0.97675
USER: genes 4 Torsion [C]-CA--CB-[CG] |==|  0.01074
USER: genes 5 Torsion [CA]-CB--CG-[CD2] |==|  0.78492
USER: genes 6 Torsion [C]-CA--N-[C] |==|  0.73463
USER: genes 7 Torsion [N]-C--CA-[N] |==|  0.97402
USER: genes 8 Torsion [C]-CA--N-[C] |==|  0.62809
USER: genes 9 Torsion [N]-C--CA-[N] |==|  0.88279
USER: genes 10 Torsion [C]-CA--CB-[CG2] |==|  0.74315
USER: genes 11 Torsion [CA]-CB--CG1-[CD1] |==|  0.64827
USER: genes 12 Torsion [C]-CA--CB-[CG] |==|  0.86681
USER: genes 13 Torsion [CA]-CB--CG-[CD1] |==|  0.49553
USER: genes 14 Torsion [N]-CA--CB-[CG2] |==|  0.09183
USER: genes 15 Torsion [CA]-CB--OG1-[HG1] |==|  0.80858
USER: genes 16 Torsion [N]-CA--C-[N] |==|  0.28169
USER: genes 17 Torsion [N]-CA--C-[N] |==|  0.88741
USER: genes 18 Torsion [C]-N--CA-[C] |==|  0.62525
USER: genes 19 Torsion [N]-CA--C-[O] |==|  0.14880
USER: genes 20 Torsion [N]-CA--CB-[CG] |==|  0.70079
USER: genes 21 Torsion [CA]-CB--CG-[CD] |==|  0.92596
USER: genes 22 Torsion [CB]-CG--CD-[NE] |==|  0.55356
USER: genes 23 Torsion [CG]-CD--NE-[HE] |==|  0.74634
ROOT
ATOM      1  CA  THR D 648     -64.023   9.171  -8.873  1.00 62.87 LIG 0.20  C 
ENDROOT
BRANCH 1 2
ATOM      2  N   THR D 648     -63.915   9.605  -7.482  1.00 56.91 LIG-0.34  N 
ATOM      3  C   LEU D 647     -64.965  10.048  -6.797  1.00 59.35 LIG 0.24  C 
ATOM      4 O    LEU D 647     -66.098  10.111  -7.276  1.00 56.20 LIG-0.27  OA
ATOM      5 H    THR D 648     -63.121   9.547  -7.155  1.00 56.91 LIG 0.16  HD
BRANCH 3 6
ATOM      6  CA  LEU D 647     -64.694  10.467  -5.364  1.00 55.15 LIG 0.18  C 
BRANCH 6 7
ATOM      7  CB  LEU D 647     -65.035  11.983  -5.201  1.00 49.69 LIG 0.04  C 
BRANCH 7 8
ATOM      8  CG  LEU D 647     -65.637  12.795  -6.355  1.00 48.41 LIG-0.02  C 
ATOM      9  CD2 LEU D 647     -64.608  13.188  -7.404  1.00 46.46 LIG 0.01  C 
ATOM     10  CD1 LEU D 647     -66.319  14.041  -5.811  1.00 42.39 LIG 0.01  C 
ENDBRANCH 7 8
ENDBRANCH 6 7
BRANCH 6 11
ATOM     11  N   LEU D 647     -63.357  10.128  -4.928  1.00 57.83 LIG-0.35  N 
ATOM     12  C   LEU D 646     -63.121   9.000  -4.256  1.00 69.64 LIG 0.24  C 
ATOM     13 O    LEU D 646     -64.021   8.217  -3.943  1.00 59.31 LIG-0.27  OA
ATOM     14 H    LEU D 647     -62.754  10.704  -5.138  1.00 57.83 LIG 0.16  HD
BRANCH 12 15
ATOM     15  CA  LEU D 646     -61.641   8.662  -3.889  1.00 75.89 LIG 0.18  C 
BRANCH 15 16
ATOM     16  N   LEU D 646     -60.612   9.471  -4.469  1.00 90.15 LIG-0.35  N 
ATOM     17 H    LEU D 646     -60.758  10.317  -4.433  1.00 90.15 LIG 0.16  HD
ATOM     18  C   ILE D 645     -59.526   8.922  -5.012  1.00 94.17 LIG 0.26  C 
ATOM     19 O    ILE D 645     -59.312   7.704  -5.009  1.00104.89 LIG-0.27  OA
BRANCH 18 20
ATOM     20  CA  ILE D 645     -58.526   9.883  -5.645  1.00 87.61 LIG 0.40  C 
ATOM     21  N   ILE D 645     -59.170  10.969  -6.446  1.00 97.17 LIG 0.61  N 
BRANCH 20 22
ATOM     22  CB  ILE D 645     -57.750  10.419  -4.411  1.00 83.91 LIG 0.03  C 
ATOM     23  CG2 ILE D 645     -58.390  11.704  -3.892  1.00 71.96 LIG 0.01  C 
BRANCH 22 24
ATOM     24  CG1 ILE D 645     -57.601   9.356  -3.306  1.00 78.38 LIG 0.00  C 
ATOM     25  CD1 ILE D 645     -58.083   9.802  -1.936  1.00 60.94 LIG 0.01  C 
ENDBRANCH 22 24
ENDBRANCH 20 22
ENDBRANCH 18 20
ENDBRANCH 15 16
BRANCH 15 26
ATOM     26  CB  LEU D 646     -61.488   8.744  -2.356  1.00 77.70 LIG 0.04  C 
BRANCH 26 27
ATOM     27  CG  LEU D 646     -62.064   9.994  -1.684  1.00 75.60 LIG-0.02  C 
ATOM     28  CD1 LEU D 646     -61.896   9.957  -0.170  1.00 71.06 LIG 0.01  C 
ATOM     29  CD2 LEU D 646     -61.415  11.233  -2.269  1.00 73.48 LIG 0.01  C 
ENDBRANCH 26 27
ENDBRANCH 15 26
ENDBRANCH 12 15
ENDBRANCH 6 11
ENDBRANCH 3 6
ENDBRANCH 1 2
BRANCH 1 30
ATOM     30  CB  THR D 648     -62.855   8.223  -9.247  1.00 65.76 LIG 0.15  C 
ATOM     31  CG2 THR D 648     -62.409   7.364  -8.063  1.00 59.42 LIG 0.04  C 
BRANCH 30 32
ATOM     32 OG1  THR D 648     -63.272   7.360 -10.314  1.00 66.48 LIG-0.39  OA
ATOM     33 HG1  THR D 648     -63.852   6.823 -10.030  1.00 66.48 LIG 0.21  HD
ENDBRANCH 30 32
ENDBRANCH 1 30
BRANCH 1 34
ATOM     34  C   THR D 648     -65.408   8.540  -9.125  1.00 62.56 LIG 0.24  C 
ATOM     35 O    THR D 648     -65.648   7.394  -8.727  1.00 59.73 LIG-0.27  OA
ATOM     36  N   PRO D 649     -66.332   9.304  -9.749  1.00 65.34 LIG-0.34  N 
ATOM     37  CA  PRO D 649     -67.674   8.801 -10.079  1.00 70.60 LIG 0.18  C 
ATOM     38  CD  PRO D 649     -66.204  10.753 -10.018  1.00 66.58 LIG 0.13  C 
ATOM     39  CB  PRO D 649     -68.452  10.076 -10.425  1.00 67.49 LIG 0.04  C 
ATOM     40  CG  PRO D 649     -67.415  11.063 -10.847  1.00 65.73 LIG 0.02  C 
BRANCH 37 41
ATOM     41  C   PRO D 649     -67.710   7.834 -11.268  1.00 77.20 LIG 0.24  C 
ATOM     42  N   ARG D 650     -66.927   8.148 -12.300  1.00 83.37 LIG-0.35  N 
ATOM     43 H    ARG D 650     -66.456   8.867 -12.334  1.00 83.37 LIG 0.16  HD
ATOM     44 O    PRO D 649     -68.424   6.826 -11.233  1.00 68.92 LIG-0.27  OA
BRANCH 42 45
ATOM     45  CA  ARG D 650     -66.794   7.298 -13.483  1.00 76.40 LIG 0.16  C 
BRANCH 45 46
ATOM     46  C   ARG D 650     -65.336   7.146 -13.902  1.00 81.79 LIG 0.22  C 
ATOM     47 O    ARG D 650     -64.486   6.767 -13.097  1.00 80.18 LIG-0.29  OA
ENDBRANCH 45 46
BRANCH 45 48
ATOM     48  CB  ARG D 650     -67.620   7.864 -14.635  1.00 77.84 LIG 0.04  C 
BRANCH 48 49
ATOM     49  CG  ARG D 650     -68.867   7.051 -14.942  1.00 87.31 LIG 0.02  C 
BRANCH 49 50
ATOM     50  CD  ARG D 650     -68.728   5.587 -14.547  1.00 89.00 LIG 0.14  C 
BRANCH 50 51
ATOM     51  NE  ARG D 650     -69.691   4.712 -15.215  1.00 88.84 LIG-0.23  N 
ATOM     52 HE   ARG D 650     -70.440   4.565 -14.819  1.00 88.84 LIG 0.18  HD
ATOM     53  CZ  ARG D 650     -69.487   4.125 -16.394  1.00 89.69 LIG 0.67  C 
ATOM     54  NH2 ARG D 650     -68.356   4.326 -17.062  1.00 88.97 LIG-0.23  N 
ATOM     55  NH1 ARG D 650     -70.424   3.341 -16.913  1.00 77.77 LIG-0.23  N 
ATOM     56 2HH2 ARG D 650     -68.233   3.943 -17.823  1.00 88.97 LIG 0.17  HD
ATOM     57 1HH2 ARG D 650     -67.748   4.837 -16.735  1.00 88.97 LIG 0.17  HD
ATOM     58 1HH1 ARG D 650     -71.161   3.212 -16.489  1.00 77.77 LIG 0.17  HD
ATOM     59 2HH1 ARG D 650     -70.294   2.962 -17.674  1.00 77.77 LIG 0.17  HD
ENDBRANCH 50 51
ENDBRANCH 49 50
ENDBRANCH 48 49
ENDBRANCH 45 48
ENDBRANCH 42 45
ENDBRANCH 37 41
ENDBRANCH 1 34
TORSDOF 22
ENDMDL
MODEL 20
USER: ADFR SOLUTION from run 92
USER: SCORE 17.772913 LL:  -4.428 LR: -14.946 RR:   0.000 FEB:  -8.383
USER: RMSD 6.508760
USER: SEED 91
USER: STATUS no improvement in best in 4 clusters for 5 generations
USER: GENES 24
USER: genes 0 Translation |==|  0.60525 0.47820 0.57591
USER: genes 1 Rotation |==|  0.33532 0.23226 0.14045 0.64806
USER: genes 2 Torsion [CB]-CA--N-[C] |==|  0.79992
USER: genes 3 Torsion [N]-C--CA-[N] |==|  0.26363
USER: genes 4 Torsion [C]-CA--CB-[CG] |==|  0.31061
USER: genes 5 Torsion [CA]-CB--CG-[CD2] |==|  0.10622
USER: genes 6 Torsion [C]-CA--N-[C] |==|  0.18164
USER: genes 7 Torsion [N]-C--CA-[N] |==|  0.12133
USER: genes 8 Torsion [C]-CA--N-[C] |==|  0.17221
USER: genes 9 Torsion [N]-C--CA-[N] |==|  0.86926
USER: genes 10 Torsion [C]-CA--CB-[CG2] |==|  0.42280
USER: genes 11 Torsion [CA]-CB--CG1-[CD1] |==|  0.31989
USER: genes 12 Torsion [C]-CA--CB-[CG] |==|  0.43410
USER: genes 13 Torsion [CA]-CB--CG-[CD1] |==|  0.39038
USER: genes 14 Torsion [N]-CA--CB-[CG2] |==|  0.86621
USER: genes 15 Torsion [CA]-CB--OG1-[HG1] |==|  0.10793
USER: genes 16 Torsion [N]-CA--C-[N] |==|  0.18528
USER: genes 17 Torsion [N]-CA--C-[N] |==|  0.58531
USER: genes 18 Torsion [C]-N--CA-[C] |==|  0.48351
USER: genes 19 Torsion [N]-CA--C-[O] |==|  0.42358
USER: genes 20 Torsion [N]-CA--CB-[CG] |==|  0.60996
USER: genes 21 Torsion [CA]-CB--CG-[CD] |==|  0.31802
USER: genes 22 Torsion [CB]-CG--CD-[NE] |==|  0.11710
USER: genes 23 Torsion [CG]-CD--NE-[HE] |==|  0.88724
ROOT
ATOM      1  CA  THR D 648     -60.064   9.236  -6.616  1.00 62.87 LIG 0.20  C 
ENDROOT
BRANCH 1 2
ATOM      2  N   THR D 648     -60.845   9.789  -5.513  1.00 56.91 LIG-0.34  N 
ATOM      3  C   LEU D 647     -61.484   9.013  -4.642  1.00 59.35 LIG 0.24  C 
ATOM      4 O    LEU D 647     -61.453   7.782  -4.693  1.00 56.20 LIG-0.27  OA
ATOM      5 H    THR D 648     -60.852  10.648  -5.481  1.00 56.91 LIG 0.16  HD
BRANCH 3 6
ATOM      6  CA  LEU D 647     -62.259   9.733  -3.554  1.00 55.15 LIG 0.18  C 
BRANCH 6 7
ATOM      7  CB  LEU D 647     -62.037   8.996  -2.194  1.00 49.69 LIG 0.04  C 
BRANCH 7 8
ATOM      8  CG  LEU D 647     -61.244   9.646  -1.054  1.00 48.41 LIG-0.02  C 
ATOM      9  CD2 LEU D 647     -61.503  11.139  -0.926  1.00 46.46 LIG 0.01  C 
ATOM     10  CD1 LEU D 647     -59.756   9.397  -1.251  1.00 42.39 LIG 0.01  C 
ENDBRANCH 7 8
ENDBRANCH 6 7
BRANCH 6 11
ATOM     11  N   LEU D 647     -63.654   9.912  -3.890  1.00 57.83 LIG-0.35  N 
ATOM     12  C   LEU D 646     -64.468   8.862  -4.021  1.00 69.64 LIG 0.24  C 
ATOM     13 O    LEU D 646     -64.071   7.701  -3.899  1.00 59.31 LIG-0.27  OA
ATOM     14 H    LEU D 647     -63.898  10.730  -3.994  1.00 57.83 LIG 0.16  HD
BRANCH 12 15
ATOM     15  CA  LEU D 646     -65.978   9.137  -4.306  1.00 75.89 LIG 0.18  C 
BRANCH 15 16
ATOM     16  N   LEU D 646     -66.300  10.140  -5.276  1.00 90.15 LIG-0.35  N 
ATOM     17 H    LEU D 646     -66.745  10.808  -4.967  1.00 90.15 LIG 0.16  HD
ATOM     18  C   ILE D 645     -65.923  10.016  -6.548  1.00 94.17 LIG 0.26  C 
ATOM     19 O    ILE D 645     -65.242   9.071  -6.961  1.00104.89 LIG-0.27  OA
BRANCH 18 20
ATOM     20  CA  ILE D 645     -66.371  11.123  -7.497  1.00 87.61 LIG 0.40  C 
ATOM     21  N   ILE D 645     -67.817  11.476  -7.360  1.00 97.17 LIG 0.61  N 
BRANCH 20 22
ATOM     22  CB  ILE D 645     -65.423  12.293  -7.115  1.00 83.91 LIG 0.03  C 
ATOM     23  CG2 ILE D 645     -65.204  13.217  -8.310  1.00 71.96 LIG 0.01  C 
BRANCH 22 24
ATOM     24  CG1 ILE D 645     -65.908  13.057  -5.869  1.00 78.38 LIG 0.00  C 
ATOM     25  CD1 ILE D 645     -64.981  12.954  -4.669  1.00 60.94 LIG 0.01  C 
ENDBRANCH 22 24
ENDBRANCH 20 22
ENDBRANCH 18 20
ENDBRANCH 15 16
BRANCH 15 26
ATOM     26  CB  LEU D 646     -66.635   7.819  -4.766  1.00 77.70 LIG 0.04  C 
BRANCH 26 27
ATOM     27  CG  LEU D 646     -68.149   7.709  -4.560  1.00 75.60 LIG-0.02  C 
ATOM     28  CD1 LEU D 646     -68.837   7.020  -5.732  1.00 71.06 LIG 0.01  C 
ATOM     29  CD2 LEU D 646     -68.435   6.978  -3.263  1.00 73.48 LIG 0.01  C 
ENDBRANCH 26 27
ENDBRANCH 15 26
ENDBRANCH 12 15
ENDBRANCH 6 11
ENDBRANCH 3 6
ENDBRANCH 1 2
BRANCH 1 30
ATOM     30  CB  THR D 648     -58.753   8.593  -6.094  1.00 65.76 LIG 0.15  C 
ATOM     31  CG2 THR D 648     -58.006   9.513  -5.127  1.00 59.42 LIG 0.04  C 
BRANCH 30 32
ATOM     32 OG1  THR D 648     -59.066   7.367  -5.419  1.00 66.48 LIG-0.39  OA
ATOM     33 HG1  THR D 648     -59.677   6.966  -5.833  1.00 66.48 LIG 0.21  HD
ENDBRANCH 30 32
ENDBRANCH 1 30
BRANCH 1 34
ATOM     34  C   THR D 648     -60.925   8.253  -7.436  1.00 62.56 LIG 0.24  C 
ATOM     35 O    THR D 648     -60.673   7.042  -7.414  1.00 59.73 LIG-0.27  OA
ATOM     36  N   PRO D 649     -61.967   8.769  -8.124  1.00 65.34 LIG-0.34  N 
ATOM     37  CA  PRO D 649     -62.837   7.939  -8.971  1.00 70.60 LIG 0.18  C 
ATOM     38  CD  PRO D 649     -62.481  10.149  -7.991  1.00 66.58 LIG 0.13  C 
ATOM     39  CB  PRO D 649     -64.041   8.850  -9.239  1.00 67.49 LIG 0.04  C 
ATOM     40  CG  PRO D 649     -63.524  10.239  -9.065  1.00 65.73 LIG 0.02  C 
BRANCH 37 41
ATOM     41  C   PRO D 649     -62.203   7.516 -10.301  1.00 77.20 LIG 0.24  C 
ATOM     42  N   ARG D 650     -63.043   7.350 -11.322  1.00 83.37 LIG-0.35  N 
ATOM     43 H    ARG D 650     -63.896   7.429 -11.249  1.00 83.37 LIG 0.16  HD
ATOM     44 O    PRO D 649     -60.979   7.359 -10.389  1.00 68.92 LIG-0.27  OA
BRANCH 42 45
ATOM     45  CA  ARG D 650     -62.594   7.014 -12.673  1.00 76.40 LIG 0.16  C 
BRANCH 45 46
ATOM     46  C   ARG D 650     -63.771   6.743 -13.603  1.00 81.79 LIG 0.22  C 
ATOM     47 O    ARG D 650     -63.673   6.938 -14.814  1.00 80.18 LIG-0.29  OA
ENDBRANCH 45 46
BRANCH 45 48
ATOM     48  CB  ARG D 650     -61.661   5.807 -12.633  1.00 77.84 LIG 0.04  C 
BRANCH 48 49
ATOM     49  CG  ARG D 650     -60.484   5.920 -13.589  1.00 87.31 LIG 0.02  C 
BRANCH 49 50
ATOM     50  CD  ARG D 650     -59.146   6.006 -12.867  1.00 89.00 LIG 0.14  C 
BRANCH 50 51
ATOM     51  NE  ARG D 650     -59.035   5.084 -11.737  1.00 88.84 LIG-0.23  N 
ATOM     52 HE   ARG D 650     -59.724   4.986 -11.232  1.00 88.84 LIG 0.18  HD
ATOM     53  CZ  ARG D 650     -57.941   4.386 -11.436  1.00 89.69 LIG 0.67  C 
ATOM     54  NH2 ARG D 650     -56.850   4.482 -12.188  1.00 88.97 LIG-0.23  N 
ATOM     55  NH1 ARG D 650     -57.941   3.579 -10.382  1.00 77.77 LIG-0.23  N 
ATOM     56 2HH2 ARG D 650     -56.147   4.027 -11.987  1.00 88.97 LIG 0.17  HD
ATOM     57 1HH2 ARG D 650     -56.845   4.998 -12.876  1.00 88.97 LIG 0.17  HD
ATOM     58 1HH1 ARG D 650     -58.646   3.508  -9.894  1.00 77.77 LIG 0.17  HD
ATOM     59 2HH1 ARG D 650     -57.235   3.128 -10.186  1.00 77.77 LIG 0.17  HD
ENDBRANCH 50 51
ENDBRANCH 49 50
ENDBRANCH 48 49
ENDBRANCH 45 48
ENDBRANCH 42 45
ENDBRANCH 37 41
ENDBRANCH 1 34
TORSDOF 22
ENDMDL
MODEL 21
USER: ADFR SOLUTION from run 124
USER: SCORE 18.054316 LL:  -4.487 LR: -14.953 RR:   0.000 FEB:  -8.390
USER: RMSD 5.186776
USER: SEED 123
USER: STATUS no improvement in best in 5 clusters for 5 generations
USER: GENES 24
USER: genes 0 Translation |==|  0.45312 0.45748 0.61505
USER: genes 1 Rotation |==|  0.73451 0.55865 0.75335 0.85690
USER: genes 2 Torsion [CB]-CA--N-[C] |==|  0.20216
USER: genes 3 Torsion [N]-C--CA-[N] |==|  0.89242
USER: genes 4 Torsion [C]-CA--CB-[CG] |==|  0.32807
USER: genes 5 Torsion [CA]-CB--CG-[CD2] |==|  0.98967
USER: genes 6 Torsion [C]-CA--N-[C] |==|  0.72778
USER: genes 7 Torsion [N]-C--CA-[N] |==|  0.39507
USER: genes 8 Torsion [C]-CA--N-[C] |==|  0.81017
USER: genes 9 Torsion [N]-C--CA-[N] |==|  0.99416
USER: genes 10 Torsion [C]-CA--CB-[CG2] |==|  0.41487
USER: genes 11 Torsion [CA]-CB--CG1-[CD1] |==|  0.57206
USER: genes 12 Torsion [C]-CA--CB-[CG] |==|  0.09182
USER: genes 13 Torsion [CA]-CB--CG-[CD1] |==|  0.31387
USER: genes 14 Torsion [N]-CA--CB-[CG2] |==|  0.41531
USER: genes 15 Torsion [CA]-CB--OG1-[HG1] |==|  0.13938
USER: genes 16 Torsion [N]-CA--C-[N] |==|  0.31805
USER: genes 17 Torsion [N]-CA--C-[N] |==|  0.68662
USER: genes 18 Torsion [C]-N--CA-[C] |==|  0.83616
USER: genes 19 Torsion [N]-CA--C-[O] |==|  0.77105
USER: genes 20 Torsion [N]-CA--CB-[CG] |==|  0.61487
USER: genes 21 Torsion [CA]-CB--CG-[CD] |==|  0.61872
USER: genes 22 Torsion [CB]-CG--CD-[NE] |==|  0.72718
USER: genes 23 Torsion [CG]-CD--NE-[HE] |==|  0.03210
ROOT
ATOM      1  CA  THR D 648     -63.373   8.909  -5.677  1.00 62.87 LIG 0.20  C 
ENDROOT
BRANCH 1 2
ATOM      2  N   THR D 648     -62.290   9.639  -5.021  1.00 56.91 LIG-0.34  N 
ATOM      3  C   LEU D 647     -61.615   9.128  -3.996  1.00 59.35 LIG 0.24  C 
ATOM      4 O    LEU D 647     -61.840   8.007  -3.537  1.00 56.20 LIG-0.27  OA
ATOM      5 H    THR D 648     -62.134  10.416  -5.355  1.00 56.91 LIG 0.16  HD
BRANCH 3 6
ATOM      6  CA  LEU D 647     -60.522  10.007  -3.416  1.00 55.15 LIG 0.18  C 
BRANCH 6 7
ATOM      7  CB  LEU D 647     -61.137  10.930  -2.316  1.00 49.69 LIG 0.04  C 
BRANCH 7 8
ATOM      8  CG  LEU D 647     -60.674  10.850  -0.856  1.00 48.41 LIG-0.02  C 
ATOM      9  CD2 LEU D 647     -59.657   9.745  -0.616  1.00 46.46 LIG 0.01  C 
ATOM     10  CD1 LEU D 647     -61.874  10.652   0.057  1.00 42.39 LIG 0.01  C 
ENDBRANCH 7 8
ENDBRANCH 6 7
BRANCH 6 11
ATOM     11  N   LEU D 647     -59.794  10.733  -4.434  1.00 57.83 LIG-0.35  N 
ATOM     12  C   LEU D 646     -58.622  10.285  -4.889  1.00 69.64 LIG 0.24  C 
ATOM     13 O    LEU D 646     -58.089   9.265  -4.447  1.00 59.31 LIG-0.27  OA
ATOM     14 H    LEU D 647     -60.176  11.454  -4.705  1.00 57.83 LIG 0.16  HD
BRANCH 12 15
ATOM     15  CA  LEU D 646     -57.932  11.078  -6.044  1.00 75.89 LIG 0.18  C 
BRANCH 15 16
ATOM     16  N   LEU D 646     -56.507  11.203  -6.005  1.00 90.15 LIG-0.35  N 
ATOM     17 H    LEU D 646     -56.092  10.773  -6.624  1.00 90.15 LIG 0.16  HD
ATOM     18  C   ILE D 645     -55.902  11.936  -5.071  1.00 94.17 LIG 0.26  C 
ATOM     19 O    ILE D 645     -56.520  12.586  -4.219  1.00104.89 LIG-0.27  OA
BRANCH 18 20
ATOM     20  CA  ILE D 645     -54.378  11.948  -5.101  1.00 87.61 LIG 0.40  C 
ATOM     21  N   ILE D 645     -53.796  11.077  -6.167  1.00 97.17 LIG 0.61  N 
BRANCH 20 22
ATOM     22  CB  ILE D 645     -54.061  13.455  -5.309  1.00 83.91 LIG 0.03  C 
ATOM     23  CG2 ILE D 645     -52.734  13.820  -4.648  1.00 71.96 LIG 0.01  C 
BRANCH 22 24
ATOM     24  CG1 ILE D 645     -54.103  13.862  -6.794  1.00 78.38 LIG 0.00  C 
ATOM     25  CD1 ILE D 645     -53.242  15.066  -7.140  1.00 60.94 LIG 0.01  C 
ENDBRANCH 22 24
ENDBRANCH 20 22
ENDBRANCH 18 20
ENDBRANCH 15 16
BRANCH 15 26
ATOM     26  CB  LEU D 646     -58.304  10.410  -7.384  1.00 77.70 LIG 0.04  C 
BRANCH 26 27
ATOM     27  CG  LEU D 646     -59.696   9.777  -7.462  1.00 75.60 LIG-0.02  C 
ATOM     28  CD1 LEU D 646     -60.605  10.514  -8.439  1.00 71.06 LIG 0.01  C 
ATOM     29  CD2 LEU D 646     -59.571   8.315  -7.841  1.00 73.48 LIG 0.01  C 
ENDBRANCH 26 27
ENDBRANCH 15 26
ENDBRANCH 12 15
ENDBRANCH 6 11
ENDBRANCH 3 6
ENDBRANCH 1 2
BRANCH 1 30
ATOM     30  CB  THR D 648     -64.633   8.866  -4.775  1.00 65.76 LIG 0.15  C 
ATOM     31  CG2 THR D 648     -65.925   8.822  -5.593  1.00 59.42 LIG 0.04  C 
BRANCH 30 32
ATOM     32 OG1  THR D 648     -64.575   7.702  -3.939  1.00 66.48 LIG-0.39  OA
ATOM     33 HG1  THR D 648     -63.826   7.666  -3.560  1.00 66.48 LIG 0.21  HD
ENDBRANCH 30 32
ENDBRANCH 1 30
BRANCH 1 34
ATOM     34  C   THR D 648     -63.655   9.515  -7.067  1.00 62.56 LIG 0.24  C 
ATOM     35 O    THR D 648     -64.061  10.679  -7.165  1.00 59.73 LIG-0.27  OA
ATOM     36  N   PRO D 649     -63.398   8.739  -8.143  1.00 65.34 LIG-0.34  N 
ATOM     37  CA  PRO D 649     -63.662   9.190  -9.518  1.00 70.60 LIG 0.18  C 
ATOM     38  CD  PRO D 649     -62.675   7.449  -8.116  1.00 66.58 LIG 0.13  C 
ATOM     39  CB  PRO D 649     -62.904   8.170 -10.376  1.00 67.49 LIG 0.04  C 
ATOM     40  CG  PRO D 649     -62.799   6.949  -9.525  1.00 65.73 LIG 0.02  C 
BRANCH 37 41
ATOM     41  C   PRO D 649     -65.145   9.193  -9.906  1.00 77.20 LIG 0.24  C 
ATOM     42  N   ARG D 650     -65.507   8.310 -10.837  1.00 83.37 LIG-0.35  N 
ATOM     43 H    ARG D 650     -64.949   7.791 -11.237  1.00 83.37 LIG 0.16  HD
ATOM     44 O    PRO D 649     -65.934   9.973  -9.360  1.00 68.92 LIG-0.27  OA
BRANCH 42 45
ATOM     45  CA  ARG D 650     -66.892   8.136 -11.271  1.00 76.40 LIG 0.16  C 
BRANCH 45 46
ATOM     46  C   ARG D 650     -67.799   7.749 -10.109  1.00 81.79 LIG 0.22  C 
ATOM     47 O    ARG D 650     -67.877   6.579  -9.735  1.00 80.18 LIG-0.29  OA
ENDBRANCH 45 46
BRANCH 45 48
ATOM     48  CB  ARG D 650     -66.970   7.086 -12.377  1.00 77.84 LIG 0.04  C 
BRANCH 48 49
ATOM     49  CG  ARG D 650     -67.922   7.460 -13.501  1.00 87.31 LIG 0.02  C 
BRANCH 49 50
ATOM     50  CD  ARG D 650     -68.782   6.290 -13.959  1.00 89.00 LIG 0.14  C 
BRANCH 50 51
ATOM     51  NE  ARG D 650     -68.268   5.626 -15.158  1.00 88.84 LIG-0.23  N 
ATOM     52 HE   ARG D 650     -67.474   5.829 -15.418  1.00 88.84 LIG 0.18  HD
ATOM     53  CZ  ARG D 650     -68.945   4.730 -15.874  1.00 89.69 LIG 0.67  C 
ATOM     54  NH2 ARG D 650     -70.171   4.363 -15.514  1.00 88.97 LIG-0.23  N 
ATOM     55  NH1 ARG D 650     -68.391   4.190 -16.952  1.00 77.77 LIG-0.23  N 
ATOM     56 2HH2 ARG D 650     -70.601   3.783 -15.982  1.00 88.97 LIG 0.17  HD
ATOM     57 1HH2 ARG D 650     -70.534   4.705 -14.813  1.00 88.97 LIG 0.17  HD
ATOM     58 1HH1 ARG D 650     -67.596   4.419 -17.187  1.00 77.77 LIG 0.17  HD
ATOM     59 2HH1 ARG D 650     -68.827   3.611 -17.415  1.00 77.77 LIG 0.17  HD
ENDBRANCH 50 51
ENDBRANCH 49 50
ENDBRANCH 48 49
ENDBRANCH 45 48
ENDBRANCH 42 45
ENDBRANCH 37 41
ENDBRANCH 1 34
TORSDOF 22
ENDMDL
MODEL 22
USER: ADFR SOLUTION from run 186
USER: SCORE 19.122593 LL:  -5.542 LR: -14.861 RR:   0.000 FEB:  -8.299
USER: RMSD 6.749540
USER: SEED 185
USER: STATUS no improvement in best in 5 clusters for 5 generations
USER: GENES 24
USER: genes 0 Translation |==|  0.64198 0.51325 0.62417
USER: genes 1 Rotation |==|  0.36640 0.17052 0.18924 0.66438
USER: genes 2 Torsion [CB]-CA--N-[C] |==|  0.80555
USER: genes 3 Torsion [N]-C--CA-[N] |==|  0.18332
USER: genes 4 Torsion [C]-CA--CB-[CG] |==|  0.28493
USER: genes 5 Torsion [CA]-CB--CG-[CD2] |==|  0.30200
USER: genes 6 Torsion [C]-CA--N-[C] |==|  0.14265
USER: genes 7 Torsion [N]-C--CA-[N] |==|  0.18131
USER: genes 8 Torsion [C]-CA--N-[C] |==|  0.75905
USER: genes 9 Torsion [N]-C--CA-[N] |==|  0.85052
USER: genes 10 Torsion [C]-CA--CB-[CG2] |==|  0.74970
USER: genes 11 Torsion [CA]-CB--CG1-[CD1] |==|  0.64785
USER: genes 12 Torsion [C]-CA--CB-[CG] |==|  0.35318
USER: genes 13 Torsion [CA]-CB--CG-[CD1] |==|  0.40602
USER: genes 14 Torsion [N]-CA--CB-[CG2] |==|  0.88222
USER: genes 15 Torsion [CA]-CB--OG1-[HG1] |==|  0.13232
USER: genes 16 Torsion [N]-CA--C-[N] |==|  0.16149
USER: genes 17 Torsion [N]-CA--C-[N] |==|  0.79944
USER: genes 18 Torsion [C]-N--CA-[C] |==|  0.58292
USER: genes 19 Torsion [N]-CA--C-[O] |==|  0.03519
USER: genes 20 Torsion [N]-CA--CB-[CG] |==|  0.54534
USER: genes 21 Torsion [CA]-CB--CG-[CD] |==|  0.12336
USER: genes 22 Torsion [CB]-CG--CD-[NE] |==|  0.08869
USER: genes 23 Torsion [CG]-CD--NE-[HE] |==|  0.88509
ROOT
ATOM      1  CA  THR D 648     -59.265   9.788  -5.458  1.00 62.87 LIG 0.20  C 
ENDROOT
BRANCH 1 2
ATOM      2  N   THR D 648     -60.254  10.344  -4.537  1.00 56.91 LIG-0.34  N 
ATOM      3  C   LEU D 647     -60.733   9.647  -3.511  1.00 59.35 LIG 0.24  C 
ATOM      4 O    LEU D 647     -60.371   8.497  -3.256  1.00 56.20 LIG-0.27  OA
ATOM      5 H    THR D 648     -60.492  11.150  -4.719  1.00 56.91 LIG 0.16  HD
BRANCH 3 6
ATOM      6  CA  LEU D 647     -61.758  10.357  -2.647  1.00 55.15 LIG 0.18  C 
BRANCH 6 7
ATOM      7  CB  LEU D 647     -61.966   9.545  -1.328  1.00 49.69 LIG 0.04  C 
BRANCH 7 8
ATOM      8  CG  LEU D 647     -61.328   9.992  -0.006  1.00 48.41 LIG-0.02  C 
ATOM      9  CD2 LEU D 647     -62.343  10.535   0.988  1.00 46.46 LIG 0.01  C 
ATOM     10  CD1 LEU D 647     -60.260  11.040  -0.276  1.00 42.39 LIG 0.01  C 
ENDBRANCH 7 8
ENDBRANCH 6 7
BRANCH 6 11
ATOM     11  N   LEU D 647     -62.990  10.629  -3.355  1.00 57.83 LIG-0.35  N 
ATOM     12  C   LEU D 646     -63.630   9.661  -4.014  1.00 69.64 LIG 0.24  C 
ATOM     13 O    LEU D 646     -63.192   8.510  -4.084  1.00 59.31 LIG-0.27  OA
ATOM     14 H    LEU D 647     -63.258  11.445  -3.310  1.00 57.83 LIG 0.16  HD
BRANCH 12 15
ATOM     15  CA  LEU D 646     -64.994  10.011  -4.688  1.00 75.89 LIG 0.18  C 
BRANCH 15 16
ATOM     16  N   LEU D 646     -64.980  10.953  -5.766  1.00 90.15 LIG-0.35  N 
ATOM     17 H    LEU D 646     -64.919  10.601  -6.549  1.00 90.15 LIG 0.16  HD
ATOM     18  C   ILE D 645     -65.057  12.264  -5.539  1.00 94.17 LIG 0.26  C 
ATOM     19 O    ILE D 645     -65.192  12.746  -4.409  1.00104.89 LIG-0.27  OA
BRANCH 18 20
ATOM     20  CA  ILE D 645     -64.978  13.169  -6.764  1.00 87.61 LIG 0.40  C 
ATOM     21  N   ILE D 645     -63.774  12.917  -7.613  1.00 97.17 LIG 0.61  N 
BRANCH 20 22
ATOM     22  CB  ILE D 645     -66.312  12.855  -7.497  1.00 83.91 LIG 0.03  C 
ATOM     23  CG2 ILE D 645     -66.125  11.704  -8.482  1.00 71.96 LIG 0.01  C 
BRANCH 22 24
ATOM     24  CG1 ILE D 645     -67.472  12.601  -6.517  1.00 78.38 LIG 0.00  C 
ATOM     25  CD1 ILE D 645     -68.210  11.292  -6.743  1.00 60.94 LIG 0.01  C 
ENDBRANCH 22 24
ENDBRANCH 20 22
ENDBRANCH 18 20
ENDBRANCH 15 16
BRANCH 15 26
ATOM     26  CB  LEU D 646     -65.625   8.708  -5.218  1.00 77.70 LIG 0.04  C 
BRANCH 26 27
ATOM     27  CG  LEU D 646     -67.063   8.421  -4.775  1.00 75.60 LIG-0.02  C 
ATOM     28  CD1 LEU D 646     -67.863   7.704  -5.856  1.00 71.06 LIG 0.01  C 
ATOM     29  CD2 LEU D 646     -67.050   7.616  -3.491  1.00 73.48 LIG 0.01  C 
ENDBRANCH 26 27
ENDBRANCH 15 26
ENDBRANCH 12 15
ENDBRANCH 6 11
ENDBRANCH 3 6
ENDBRANCH 1 2
BRANCH 1 30
ATOM     30  CB  THR D 648     -57.890   9.628  -4.759  1.00 65.76 LIG 0.15  C 
ATOM     31  CG2 THR D 648     -57.543  10.837  -3.888  1.00 59.42 LIG 0.04  C 
BRANCH 30 32
ATOM     32 OG1  THR D 648     -57.915   8.455  -3.934  1.00 66.48 LIG-0.39  OA
ATOM     33 HG1  THR D 648     -58.232   7.811  -4.370  1.00 66.48 LIG 0.21  HD
ENDBRANCH 30 32
ENDBRANCH 1 30
BRANCH 1 34
ATOM     34  C   THR D 648     -59.785   8.466  -6.060  1.00 62.56 LIG 0.24  C 
ATOM     35 O    THR D 648     -59.158   7.415  -5.882  1.00 59.73 LIG-0.27  OA
ATOM     36  N   PRO D 649     -60.954   8.513  -6.737  1.00 65.34 LIG-0.34  N 
ATOM     37  CA  PRO D 649     -61.532   7.327  -7.388  1.00 70.60 LIG 0.18  C 
ATOM     38  CD  PRO D 649     -61.880   9.665  -6.768  1.00 66.58 LIG 0.13  C 
ATOM     39  CB  PRO D 649     -62.970   7.760  -7.694  1.00 67.49 LIG 0.04  C 
ATOM     40  CG  PRO D 649     -62.922   9.250  -7.763  1.00 65.73 LIG 0.02  C 
BRANCH 37 41
ATOM     41  C   PRO D 649     -60.828   6.915  -8.686  1.00 77.20 LIG 0.24  C 
ATOM     42  N   ARG D 650     -61.031   7.708  -9.738  1.00 83.37 LIG-0.35  N 
ATOM     43 H    ARG D 650     -61.555   8.390  -9.720  1.00 83.37 LIG 0.16  HD
ATOM     44 O    PRO D 649     -60.111   5.908  -8.716  1.00 68.92 LIG-0.27  OA
BRANCH 42 45
ATOM     45  CA  ARG D 650     -60.380   7.495 -11.030  1.00 76.40 LIG 0.16  C 
BRANCH 45 46
ATOM     46  C   ARG D 650     -60.169   8.808 -11.774  1.00 81.79 LIG 0.22  C 
ATOM     47 O    ARG D 650     -60.312   9.887 -11.200  1.00 80.18 LIG-0.29  OA
ENDBRANCH 45 46
BRANCH 45 48
ATOM     48  CB  ARG D 650     -61.202   6.530 -11.881  1.00 77.84 LIG 0.04  C 
BRANCH 48 49
ATOM     49  CG  ARG D 650     -60.429   5.949 -13.054  1.00 87.31 LIG 0.02  C 
BRANCH 49 50
ATOM     50  CD  ARG D 650     -59.026   5.500 -12.670  1.00 89.00 LIG 0.14  C 
BRANCH 50 51
ATOM     51  NE  ARG D 650     -58.928   5.014 -11.293  1.00 88.84 LIG-0.23  N 
ATOM     52 HE   ARG D 650     -59.352   5.449 -10.685  1.00 88.84 LIG 0.18  HD
ATOM     53  CZ  ARG D 650     -58.227   3.944 -10.918  1.00 89.69 LIG 0.67  C 
ATOM     54  NH2 ARG D 650     -57.565   3.221 -11.815  1.00 88.97 LIG-0.23  N 
ATOM     55  NH1 ARG D 650     -58.197   3.589  -9.639  1.00 77.77 LIG-0.23  N 
ATOM     56 2HH2 ARG D 650     -57.115   2.532 -11.564  1.00 88.97 LIG 0.17  HD
ATOM     57 1HH2 ARG D 650     -57.585   3.442 -12.645  1.00 88.97 LIG 0.17  HD
ATOM     58 1HH1 ARG D 650     -58.629   4.049  -9.055  1.00 77.77 LIG 0.17  HD
ATOM     59 2HH1 ARG D 650     -57.745   2.899  -9.396  1.00 77.77 LIG 0.17  HD
ENDBRANCH 50 51
ENDBRANCH 49 50
ENDBRANCH 48 49
ENDBRANCH 45 48
ENDBRANCH 42 45
ENDBRANCH 37 41
ENDBRANCH 1 34
TORSDOF 22
ENDMDL
MODEL 23
USER: ADFR SOLUTION from run 77
USER: SCORE 17.824313 LL:  -4.236 LR: -14.854 RR:   0.000 FEB:  -8.291
USER: RMSD 5.970223
USER: SEED 76
USER: STATUS no improvement in best in 10 clusters for 5 generations
USER: GENES 24
USER: genes 0 Translation |==|  0.19588 0.33981 0.66669
USER: genes 1 Rotation |==|  0.70633 0.73336 0.68630 0.84389
USER: genes 2 Torsion [CB]-CA--N-[C] |==|  0.19313
USER: genes 3 Torsion [N]-C--CA-[N] |==|  0.52104
USER: genes 4 Torsion [C]-CA--CB-[CG] |==|  0.72896
USER: genes 5 Torsion [CA]-CB--CG-[CD2] |==|  0.81751
USER: genes 6 Torsion [C]-CA--N-[C] |==|  0.59444
USER: genes 7 Torsion [N]-C--CA-[N] |==|  0.29780
USER: genes 8 Torsion [C]-CA--N-[C] |==|  0.72583
USER: genes 9 Torsion [N]-C--CA-[N] |==|  0.88347
USER: genes 10 Torsion [C]-CA--CB-[CG2] |==|  0.71423
USER: genes 11 Torsion [CA]-CB--CG1-[CD1] |==|  0.58172
USER: genes 12 Torsion [C]-CA--CB-[CG] |==|  0.42507
USER: genes 13 Torsion [CA]-CB--CG-[CD1] |==|  0.59364
USER: genes 14 Torsion [N]-CA--CB-[CG2] |==|  0.45024
USER: genes 15 Torsion [CA]-CB--OG1-[HG1] |==|  0.85981
USER: genes 16 Torsion [N]-CA--C-[N] |==|  0.86997
USER: genes 17 Torsion [N]-CA--C-[N] |==|  0.94171
USER: genes 18 Torsion [C]-N--CA-[C] |==|  0.61893
USER: genes 19 Torsion [N]-CA--C-[O] |==|  0.05461
USER: genes 20 Torsion [N]-CA--CB-[CG] |==|  0.61343
USER: genes 21 Torsion [CA]-CB--CG-[CD] |==|  0.81673
USER: genes 22 Torsion [CB]-CG--CD-[NE] |==|  0.32211
USER: genes 23 Torsion [CG]-CD--NE-[HE] |==|  0.88537
ROOT
ATOM      1  CA  THR D 648     -68.968   7.056  -4.438  1.00 62.87 LIG 0.20  C 
ENDROOT
BRANCH 1 2
ATOM      2  N   THR D 648     -67.968   8.045  -4.834  1.00 56.91 LIG-0.34  N 
ATOM      3  C   LEU D 647     -66.783   8.129  -4.236  1.00 59.35 LIG 0.24  C 
ATOM      4 O    LEU D 647     -66.439   7.377  -3.323  1.00 56.20 LIG-0.27  OA
ATOM      5 H    THR D 648     -68.215   8.558  -5.479  1.00 56.91 LIG 0.16  HD
BRANCH 3 6
ATOM      6  CA  LEU D 647     -65.853   9.210  -4.755  1.00 55.15 LIG 0.18  C 
BRANCH 6 7
ATOM      7  CB  LEU D 647     -65.854   9.181  -6.317  1.00 49.69 LIG 0.04  C 
BRANCH 7 8
ATOM      8  CG  LEU D 647     -64.755   8.454  -7.103  1.00 48.41 LIG-0.02  C 
ATOM      9  CD2 LEU D 647     -63.384   9.091  -6.933  1.00 46.46 LIG 0.01  C 
ATOM     10  CD1 LEU D 647     -65.120   8.406  -8.579  1.00 42.39 LIG 0.01  C 
ENDBRANCH 7 8
ENDBRANCH 6 7
BRANCH 6 11
ATOM     11  N   LEU D 647     -64.528   9.127  -4.180  1.00 57.83 LIG-0.35  N 
ATOM     12  C   LEU D 646     -63.815  10.228  -3.938  1.00 69.64 LIG 0.24  C 
ATOM     13 O    LEU D 646     -64.226  11.356  -4.223  1.00 59.31 LIG-0.27  OA
ATOM     14 H    LEU D 647     -64.257   8.327  -4.015  1.00 57.83 LIG 0.16  HD
BRANCH 12 15
ATOM     15  CA  LEU D 646     -62.427  10.065  -3.242  1.00 75.89 LIG 0.18  C 
BRANCH 15 16
ATOM     16  N   LEU D 646     -61.256  10.261  -4.042  1.00 90.15 LIG-0.35  N 
ATOM     17 H    LEU D 646     -61.033  11.084  -4.157  1.00 90.15 LIG 0.16  HD
ATOM     18  C   ILE D 645     -60.588   9.227  -4.555  1.00 94.17 LIG 0.26  C 
ATOM     19 O    ILE D 645     -60.898   8.050  -4.339  1.00104.89 LIG-0.27  OA
BRANCH 18 20
ATOM     20  CA  ILE D 645     -59.389   9.565  -5.434  1.00 87.61 LIG 0.40  C 
ATOM     21  N   ILE D 645     -59.638  10.704  -6.369  1.00 97.17 LIG 0.61  N 
BRANCH 20 22
ATOM     22  CB  ILE D 645     -58.283   9.871  -4.387  1.00 83.91 LIG 0.03  C 
ATOM     23  CG2 ILE D 645     -58.070  11.377  -4.257  1.00 71.96 LIG 0.01  C 
BRANCH 22 24
ATOM     24  CG1 ILE D 645     -58.563   9.203  -3.027  1.00 78.38 LIG 0.00  C 
ATOM     25  CD1 ILE D 645     -58.002   9.954  -1.831  1.00 60.94 LIG 0.01  C 
ENDBRANCH 22 24
ENDBRANCH 20 22
ENDBRANCH 18 20
ENDBRANCH 15 16
BRANCH 15 26
ATOM     26  CB  LEU D 646     -62.353  11.056  -2.062  1.00 77.70 LIG 0.04  C 
BRANCH 26 27
ATOM     27  CG  LEU D 646     -61.433  10.661  -0.903  1.00 75.60 LIG-0.02  C 
ATOM     28  CD1 LEU D 646     -61.973  11.134   0.442  1.00 71.06 LIG 0.01  C 
ATOM     29  CD2 LEU D 646     -61.229   9.158  -0.903  1.00 73.48 LIG 0.01  C 
ENDBRANCH 26 27
ENDBRANCH 15 26
ENDBRANCH 12 15
ENDBRANCH 6 11
ENDBRANCH 3 6
ENDBRANCH 1 2
BRANCH 1 30
ATOM     30  CB  THR D 648     -69.544   7.386  -3.037  1.00 65.76 LIG 0.15  C 
ATOM     31  CG2 THR D 648     -70.866   6.665  -2.773  1.00 59.42 LIG 0.04  C 
BRANCH 30 32
ATOM     32 OG1  THR D 648     -68.596   6.996  -2.033  1.00 66.48 LIG-0.39  OA
ATOM     33 HG1  THR D 648     -68.351   6.204  -2.171  1.00 66.48 LIG 0.21  HD
ENDBRANCH 30 32
ENDBRANCH 1 30
BRANCH 1 34
ATOM     34  C   THR D 648     -70.060   6.943  -5.520  1.00 62.56 LIG 0.24  C 
ATOM     35 O    THR D 648     -70.459   5.830  -5.884  1.00 59.73 LIG-0.27  OA
ATOM     36  N   PRO D 649     -70.575   8.095  -6.003  1.00 65.34 LIG-0.34  N 
ATOM     37  CA  PRO D 649     -71.594   8.117  -7.063  1.00 70.60 LIG 0.18  C 
ATOM     38  CD  PRO D 649     -70.339   9.441  -5.438  1.00 66.58 LIG 0.13  C 
ATOM     39  CB  PRO D 649     -72.115   9.558  -7.021  1.00 67.49 LIG 0.04  C 
ATOM     40  CG  PRO D 649     -71.006  10.356  -6.422  1.00 65.73 LIG 0.02  C 
BRANCH 37 41
ATOM     41  C   PRO D 649     -71.053   7.803  -8.463  1.00 77.20 LIG 0.24  C 
ATOM     42  N   ARG D 650     -69.744   7.979  -8.637  1.00 83.37 LIG-0.35  N 
ATOM     43 H    ARG D 650     -69.224   8.290  -8.026  1.00 83.37 LIG 0.16  HD
ATOM     44 O    PRO D 649     -71.813   7.400  -9.351  1.00 68.92 LIG-0.27  OA
BRANCH 42 45
ATOM     45  CA  ARG D 650     -69.059   7.661  -9.889  1.00 76.40 LIG 0.16  C 
BRANCH 45 46
ATOM     46  C   ARG D 650     -67.732   6.954  -9.639  1.00 81.79 LIG 0.22  C 
ATOM     47 O    ARG D 650     -67.509   6.398  -8.564  1.00 80.18 LIG-0.29  OA
ENDBRANCH 45 46
BRANCH 45 48
ATOM     48  CB  ARG D 650     -68.836   8.933 -10.705  1.00 77.84 LIG 0.04  C 
BRANCH 48 49
ATOM     49  CG  ARG D 650     -69.083   8.748 -12.193  1.00 87.31 LIG 0.02  C 
BRANCH 49 50
ATOM     50  CD  ARG D 650     -68.080   7.806 -12.845  1.00 89.00 LIG 0.14  C 
BRANCH 50 51
ATOM     51  NE  ARG D 650     -68.690   6.586 -13.375  1.00 88.84 LIG-0.23  N 
ATOM     52 HE   ARG D 650     -69.297   6.204 -12.902  1.00 88.84 LIG 0.18  HD
ATOM     53  CZ  ARG D 650     -68.368   6.027 -14.541  1.00 89.69 LIG 0.67  C 
ATOM     54  NH2 ARG D 650     -67.449   6.579 -15.326  1.00 88.97 LIG-0.23  N 
ATOM     55  NH1 ARG D 650     -68.977   4.913 -14.930  1.00 77.77 LIG-0.23  N 
ATOM     56 2HH2 ARG D 650     -67.248   6.211 -16.077  1.00 88.97 LIG 0.17  HD
ATOM     57 1HH2 ARG D 650     -67.055   7.304 -15.083  1.00 88.97 LIG 0.17  HD
ATOM     58 1HH1 ARG D 650     -69.577   4.554 -14.430  1.00 77.77 LIG 0.17  HD
ATOM     59 2HH1 ARG D 650     -68.771   4.551 -15.682  1.00 77.77 LIG 0.17  HD
ENDBRANCH 50 51
ENDBRANCH 49 50
ENDBRANCH 48 49
ENDBRANCH 45 48
ENDBRANCH 42 45
ENDBRANCH 37 41
ENDBRANCH 1 34
TORSDOF 22
ENDMDL
MODEL 24
USER: ADFR SOLUTION from run 108
USER: SCORE 18.964103 LL:  -5.318 LR: -14.842 RR:   0.000 FEB:  -8.280
USER: RMSD 7.093090
USER: SEED 107
USER: STATUS searching
USER: GENES 24
USER: genes 0 Translation |==|  0.64097 0.51074 0.62317
USER: genes 1 Rotation |==|  0.35894 0.16145 0.20113 0.66176
USER: genes 2 Torsion [CB]-CA--N-[C] |==|  0.79839
USER: genes 3 Torsion [N]-C--CA-[N] |==|  0.18874
USER: genes 4 Torsion [C]-CA--CB-[CG] |==|  0.28506
USER: genes 5 Torsion [CA]-CB--CG-[CD2] |==|  0.29694
USER: genes 6 Torsion [C]-CA--N-[C] |==|  0.14323
USER: genes 7 Torsion [N]-C--CA-[N] |==|  0.17452
USER: genes 8 Torsion [C]-CA--N-[C] |==|  0.77192
USER: genes 9 Torsion [N]-C--CA-[N] |==|  0.83157
USER: genes 10 Torsion [C]-CA--CB-[CG2] |==|  0.75726
USER: genes 11 Torsion [CA]-CB--CG1-[CD1] |==|  0.28370
USER: genes 12 Torsion [C]-CA--CB-[CG] |==|  0.35441
USER: genes 13 Torsion [CA]-CB--CG-[CD1] |==|  0.40584
USER: genes 14 Torsion [N]-CA--CB-[CG2] |==|  0.89311
USER: genes 15 Torsion [CA]-CB--OG1-[HG1] |==|  0.93796
USER: genes 16 Torsion [N]-CA--C-[N] |==|  0.19129
USER: genes 17 Torsion [N]-CA--C-[N] |==|  0.19447
USER: genes 18 Torsion [C]-N--CA-[C] |==|  0.59844
USER: genes 19 Torsion [N]-CA--C-[O] |==|  0.03394
USER: genes 20 Torsion [N]-CA--CB-[CG] |==|  0.65020
USER: genes 21 Torsion [CA]-CB--CG-[CD] |==|  0.97602
USER: genes 22 Torsion [CB]-CG--CD-[NE] |==|  0.22120
USER: genes 23 Torsion [CG]-CD--NE-[HE] |==|  0.80789
ROOT
ATOM      1  CA  THR D 648     -59.287   9.748  -5.482  1.00 62.87 LIG 0.20  C 
ENDROOT
BRANCH 1 2
ATOM      2  N   THR D 648     -60.264  10.366  -4.588  1.00 56.91 LIG-0.34  N 
ATOM      3  C   LEU D 647     -60.768   9.720  -3.541  1.00 59.35 LIG 0.24  C 
ATOM      4 O    LEU D 647     -60.441   8.571  -3.241  1.00 56.20 LIG-0.27  OA
ATOM      5 H    THR D 648     -60.478  11.171  -4.801  1.00 56.91 LIG 0.16  HD
BRANCH 3 6
ATOM      6  CA  LEU D 647     -61.777  10.491  -2.709  1.00 55.15 LIG 0.18  C 
BRANCH 6 7
ATOM      7  CB  LEU D 647     -61.978   9.760  -1.342  1.00 49.69 LIG 0.04  C 
BRANCH 7 8
ATOM      8  CG  LEU D 647     -61.322  10.278  -0.056  1.00 48.41 LIG-0.02  C 
ATOM      9  CD2 LEU D 647     -62.315  10.928   0.896  1.00 46.46 LIG 0.01  C 
ATOM     10  CD1 LEU D 647     -60.217  11.265  -0.400  1.00 42.39 LIG 0.01  C 
ENDBRANCH 7 8
ENDBRANCH 6 7
BRANCH 6 11
ATOM     11  N   LEU D 647     -63.014  10.733  -3.418  1.00 57.83 LIG-0.35  N 
ATOM     12  C   LEU D 646     -63.672   9.734  -4.009  1.00 69.64 LIG 0.24  C 
ATOM     13 O    LEU D 646     -63.249   8.575  -4.013  1.00 59.31 LIG-0.27  OA
ATOM     14 H    LEU D 647     -63.272  11.553  -3.422  1.00 57.83 LIG 0.16  HD
BRANCH 12 15
ATOM     15  CA  LEU D 646     -65.041  10.058  -4.688  1.00 75.89 LIG 0.18  C 
BRANCH 15 16
ATOM     16  N   LEU D 646     -65.036  10.972  -5.789  1.00 90.15 LIG-0.35  N 
ATOM     17 H    LEU D 646     -65.038  10.600  -6.565  1.00 90.15 LIG 0.16  HD
ATOM     18  C   ILE D 645     -65.029  12.290  -5.593  1.00 94.17 LIG 0.26  C 
ATOM     19 O    ILE D 645     -65.075  12.805  -4.469  1.00104.89 LIG-0.27  OA
BRANCH 18 20
ATOM     20  CA  ILE D 645     -64.969  13.161  -6.843  1.00 87.61 LIG 0.40  C 
ATOM     21  N   ILE D 645     -63.743  12.936  -7.667  1.00 97.17 LIG 0.61  N 
BRANCH 20 22
ATOM     22  CB  ILE D 645     -66.278  12.770  -7.584  1.00 83.91 LIG 0.03  C 
ATOM     23  CG2 ILE D 645     -66.044  11.557  -8.481  1.00 71.96 LIG 0.01  C 
BRANCH 22 24
ATOM     24  CG1 ILE D 645     -67.458  12.562  -6.617  1.00 78.38 LIG 0.00  C 
ATOM     25  CD1 ILE D 645     -68.438  13.722  -6.564  1.00 60.94 LIG 0.01  C 
ENDBRANCH 22 24
ENDBRANCH 20 22
ENDBRANCH 18 20
ENDBRANCH 15 16
BRANCH 15 26
ATOM     26  CB  LEU D 646     -65.664   8.737  -5.185  1.00 77.70 LIG 0.04  C 
BRANCH 26 27
ATOM     27  CG  LEU D 646     -67.103   8.457  -4.739  1.00 75.60 LIG-0.02  C 
ATOM     28  CD1 LEU D 646     -67.895   7.708  -5.803  1.00 71.06 LIG 0.01  C 
ATOM     29  CD2 LEU D 646     -67.091   7.687  -3.434  1.00 73.48 LIG 0.01  C 
ENDBRANCH 26 27
ENDBRANCH 15 26
ENDBRANCH 12 15
ENDBRANCH 6 11
ENDBRANCH 3 6
ENDBRANCH 1 2
BRANCH 1 30
ATOM     30  CB  THR D 648     -57.904   9.633  -4.791  1.00 65.76 LIG 0.15  C 
ATOM     31  CG2 THR D 648     -57.587  10.857  -3.929  1.00 59.42 LIG 0.04  C 
BRANCH 30 32
ATOM     32 OG1  THR D 648     -57.888   8.465  -3.959  1.00 66.48 LIG-0.39  OA
ATOM     33 HG1  THR D 648     -58.676   8.250  -3.763  1.00 66.48 LIG 0.21  HD
ENDBRANCH 30 32
ENDBRANCH 1 30
BRANCH 1 34
ATOM     34  C   THR D 648     -59.815   8.391  -5.989  1.00 62.56 LIG 0.24  C 
ATOM     35 O    THR D 648     -59.304   7.338  -5.588  1.00 59.73 LIG-0.27  OA
ATOM     36  N   PRO D 649     -60.867   8.413  -6.837  1.00 65.34 LIG-0.34  N 
ATOM     37  CA  PRO D 649     -61.434   7.187  -7.417  1.00 70.60 LIG 0.18  C 
ATOM     38  CD  PRO D 649     -61.686   9.603  -7.153  1.00 66.58 LIG 0.13  C 
ATOM     39  CB  PRO D 649     -62.775   7.657  -7.993  1.00 67.49 LIG 0.04  C 
ATOM     40  CG  PRO D 649     -62.602   9.119  -8.237  1.00 65.73 LIG 0.02  C 
BRANCH 37 41
ATOM     41  C   PRO D 649     -60.583   6.565  -8.531  1.00 77.20 LIG 0.24  C 
ATOM     42  N   ARG D 650     -59.433   6.011  -8.147  1.00 83.37 LIG-0.35  N 
ATOM     43 H    ARG D 650     -59.148   6.028  -7.336  1.00 83.37 LIG 0.16  HD
ATOM     44 O    PRO D 649     -60.977   6.582  -9.703  1.00 68.92 LIG-0.27  OA
BRANCH 42 45
ATOM     45  CA  ARG D 650     -58.540   5.316  -9.073  1.00 76.40 LIG 0.16  C 
BRANCH 45 46
ATOM     46  C   ARG D 650     -57.858   4.126  -8.407  1.00 81.79 LIG 0.22  C 
ATOM     47 O    ARG D 650     -58.242   3.712  -7.314  1.00 80.18 LIG-0.29  OA
ENDBRANCH 45 46
BRANCH 45 48
ATOM     48  CB  ARG D 650     -57.495   6.284  -9.624  1.00 77.84 LIG 0.04  C 
BRANCH 48 49
ATOM     49  CG  ARG D 650     -57.443   6.318 -11.142  1.00 87.31 LIG 0.02  C 
BRANCH 49 50
ATOM     50  CD  ARG D 650     -58.293   5.231 -11.786  1.00 89.00 LIG 0.14  C 
BRANCH 50 51
ATOM     51  NE  ARG D 650     -59.718   5.559 -11.829  1.00 88.84 LIG-0.23  N 
ATOM     52 HE   ARG D 650     -60.147   5.579 -11.084  1.00 88.84 LIG 0.18  HD
ATOM     53  CZ  ARG D 650     -60.398   5.828 -12.943  1.00 89.69 LIG 0.67  C 
ATOM     54  NH2 ARG D 650     -59.787   5.830 -14.124  1.00 88.97 LIG-0.23  N 
ATOM     55  NH1 ARG D 650     -61.694   6.108 -12.876  1.00 77.77 LIG-0.23  N 
ATOM     56 2HH2 ARG D 650     -60.234   6.005 -14.838  1.00 88.97 LIG 0.17  HD
ATOM     57 1HH2 ARG D 650     -58.947   5.655 -14.174  1.00 88.97 LIG 0.17  HD
ATOM     58 1HH1 ARG D 650     -62.093   6.115 -12.115  1.00 77.77 LIG 0.17  HD
ATOM     59 2HH1 ARG D 650     -62.133   6.282 -13.594  1.00 77.77 LIG 0.17  HD
ENDBRANCH 50 51
ENDBRANCH 49 50
ENDBRANCH 48 49
ENDBRANCH 45 48
ENDBRANCH 42 45
ENDBRANCH 37 41
ENDBRANCH 1 34
TORSDOF 22
ENDMDL
MODEL 25
USER: ADFR SOLUTION from run 33
USER: SCORE 17.623481 LL:  -4.411 LR: -14.832 RR:   0.000 FEB:  -8.270
USER: RMSD 3.203969
USER: SEED 32
USER: STATUS no improvement in best in 13 clusters for 5 generations
USER: GENES 24
USER: genes 0 Translation |==|  0.37463 0.56306 0.62028
USER: genes 1 Rotation |==|  0.47378 0.48668 0.50364 0.99912
USER: genes 2 Torsion [CB]-CA--N-[C] |==|  0.43417
USER: genes 3 Torsion [N]-C--CA-[N] |==|  0.87192
USER: genes 4 Torsion [C]-CA--CB-[CG] |==|  0.43900
USER: genes 5 Torsion [CA]-CB--CG-[CD2] |==|  0.97472
USER: genes 6 Torsion [C]-CA--N-[C] |==|  0.72349
USER: genes 7 Torsion [N]-C--CA-[N] |==|  0.89239
USER: genes 8 Torsion [C]-CA--N-[C] |==|  0.85966
USER: genes 9 Torsion [N]-C--CA-[N] |==|  0.90803
USER: genes 10 Torsion [C]-CA--CB-[CG2] |==|  0.76099
USER: genes 11 Torsion [CA]-CB--CG1-[CD1] |==|  0.48870
USER: genes 12 Torsion [C]-CA--CB-[CG] |==|  0.91012
USER: genes 13 Torsion [CA]-CB--CG-[CD1] |==|  0.34532
USER: genes 14 Torsion [N]-CA--CB-[CG2] |==|  0.56529
USER: genes 15 Torsion [CA]-CB--OG1-[HG1] |==|  0.35917
USER: genes 16 Torsion [N]-CA--C-[N] |==|  0.41249
USER: genes 17 Torsion [N]-CA--C-[N] |==|  0.36433
USER: genes 18 Torsion [C]-N--CA-[C] |==|  0.19940
USER: genes 19 Torsion [N]-CA--C-[O] |==|  0.11289
USER: genes 20 Torsion [N]-CA--CB-[CG] |==|  0.81055
USER: genes 21 Torsion [CA]-CB--CG-[CD] |==|  0.64862
USER: genes 22 Torsion [CB]-CG--CD-[NE] |==|  0.59063
USER: genes 23 Torsion [CG]-CD--NE-[HE] |==|  0.09203
ROOT
ATOM      1  CA  THR D 648     -65.080  10.572  -5.551  1.00 62.87 LIG 0.20  C 
ENDROOT
BRANCH 1 2
ATOM      2  N   THR D 648     -63.808  10.550  -4.832  1.00 56.91 LIG-0.34  N 
ATOM      3  C   LEU D 647     -63.514   9.600  -3.949  1.00 59.35 LIG 0.24  C 
ATOM      4 O    LEU D 647     -64.279   8.670  -3.685  1.00 56.20 LIG-0.27  OA
ATOM      5 H    THR D 648     -63.278  11.197  -5.031  1.00 56.91 LIG 0.16  HD
BRANCH 3 6
ATOM      6  CA  LEU D 647     -62.157   9.713  -3.279  1.00 55.15 LIG 0.18  C 
BRANCH 6 7
ATOM      7  CB  LEU D 647     -62.246  10.752  -2.115  1.00 49.69 LIG 0.04  C 
BRANCH 7 8
ATOM      8  CG  LEU D 647     -61.242  10.741  -0.956  1.00 48.41 LIG-0.02  C 
ATOM      9  CD2 LEU D 647     -60.340   9.516  -0.964  1.00 46.46 LIG 0.01  C 
ATOM     10  CD1 LEU D 647     -61.981  10.827   0.370  1.00 42.39 LIG 0.01  C 
ENDBRANCH 7 8
ENDBRANCH 6 7
BRANCH 6 11
ATOM     11  N   LEU D 647     -61.094   9.993  -4.219  1.00 57.83 LIG-0.35  N 
ATOM     12  C   LEU D 646     -60.301   9.018  -4.667  1.00 69.64 LIG 0.24  C 
ATOM     13 O    LEU D 646     -60.407   7.851  -4.281  1.00 59.31 LIG-0.27  OA
ATOM     14 H    LEU D 647     -61.027  10.818  -4.452  1.00 57.83 LIG 0.16  HD
BRANCH 12 15
ATOM     15  CA  LEU D 646     -59.227   9.381  -5.741  1.00 75.89 LIG 0.18  C 
BRANCH 15 16
ATOM     16  N   LEU D 646     -59.597  10.317  -6.760  1.00 90.15 LIG-0.35  N 
ATOM     17 H    LEU D 646     -59.044  10.966  -6.869  1.00 90.15 LIG 0.16  HD
ATOM     18  C   ILE D 645     -60.718  10.164  -7.464  1.00 94.17 LIG 0.26  C 
ATOM     19 O    ILE D 645     -61.476   9.197  -7.324  1.00104.89 LIG-0.27  OA
BRANCH 18 20
ATOM     20  CA  ILE D 645     -61.031  11.254  -8.483  1.00 87.61 LIG 0.40  C 
ATOM     21  N   ILE D 645     -60.573  12.613  -8.061  1.00 97.17 LIG 0.61  N 
BRANCH 20 22
ATOM     22  CB  ILE D 645     -60.306  10.739  -9.757  1.00 83.91 LIG 0.03  C 
ATOM     23  CG2 ILE D 645     -58.845  11.183  -9.759  1.00 71.96 LIG 0.01  C 
BRANCH 22 24
ATOM     24  CG1 ILE D 645     -60.452   9.216  -9.938  1.00 78.38 LIG 0.00  C 
ATOM     25  CD1 ILE D 645     -59.843   8.675 -11.221  1.00 60.94 LIG 0.01  C 
ENDBRANCH 22 24
ENDBRANCH 20 22
ENDBRANCH 18 20
ENDBRANCH 15 16
BRANCH 15 26
ATOM     26  CB  LEU D 646     -57.987   9.947  -5.020  1.00 77.70 LIG 0.04  C 
BRANCH 26 27
ATOM     27  CG  LEU D 646     -58.253  10.731  -3.730  1.00 75.60 LIG-0.02  C 
ATOM     28  CD1 LEU D 646     -57.480  10.164  -2.547  1.00 71.06 LIG 0.01  C 
ATOM     29  CD2 LEU D 646     -57.914  12.193  -3.944  1.00 73.48 LIG 0.01  C 
ENDBRANCH 26 27
ENDBRANCH 15 26
ENDBRANCH 12 15
ENDBRANCH 6 11
ENDBRANCH 3 6
ENDBRANCH 1 2
BRANCH 1 30
ATOM     30  CB  THR D 648     -65.417  12.008  -6.029  1.00 65.76 LIG 0.15  C 
ATOM     31  CG2 THR D 648     -66.918  12.203  -6.252  1.00 59.42 LIG 0.04  C 
BRANCH 30 32
ATOM     32 OG1  THR D 648     -64.971  12.949  -5.043  1.00 66.48 LIG-0.39  OA
ATOM     33 HG1  THR D 648     -64.509  13.546  -5.413  1.00 66.48 LIG 0.21  HD
ENDBRANCH 30 32
ENDBRANCH 1 30
BRANCH 1 34
ATOM     34  C   THR D 648     -65.055   9.550  -6.706  1.00 62.56 LIG 0.24  C 
ATOM     35 O    THR D 648     -63.986   9.268  -7.260  1.00 59.73 LIG-0.27  OA
ATOM     36  N   PRO D 649     -66.226   8.965  -7.040  1.00 65.34 LIG-0.34  N 
ATOM     37  CA  PRO D 649     -66.336   8.004  -8.148  1.00 70.60 LIG 0.18  C 
ATOM     38  CD  PRO D 649     -67.480   9.055  -6.263  1.00 66.58 LIG 0.13  C 
ATOM     39  CB  PRO D 649     -67.708   7.360  -7.921  1.00 67.49 LIG 0.04  C 
ATOM     40  CG  PRO D 649     -68.484   8.364  -7.136  1.00 65.73 LIG 0.02  C 
BRANCH 37 41
ATOM     41  C   PRO D 649     -66.288   8.641  -9.542  1.00 77.20 LIG 0.24  C 
ATOM     42  N   ARG D 650     -65.448   8.081 -10.412  1.00 83.37 LIG-0.35  N 
ATOM     43 H    ARG D 650     -64.926   7.428 -10.210  1.00 83.37 LIG 0.16  HD
ATOM     44 O    PRO D 649     -67.008   9.609  -9.812  1.00 68.92 LIG-0.27  OA
BRANCH 42 45
ATOM     45  CA  ARG D 650     -65.332   8.523 -11.801  1.00 76.40 LIG 0.16  C 
BRANCH 45 46
ATOM     46  C   ARG D 650     -64.640   9.878 -11.902  1.00 81.79 LIG 0.22  C 
ATOM     47 O    ARG D 650     -63.668  10.142 -11.194  1.00 80.18 LIG-0.29  OA
ENDBRANCH 45 46
BRANCH 45 48
ATOM     48  CB  ARG D 650     -66.712   8.584 -12.452  1.00 77.84 LIG 0.04  C 
BRANCH 48 49
ATOM     49  CG  ARG D 650     -67.349   7.218 -12.648  1.00 87.31 LIG 0.02  C 
BRANCH 49 50
ATOM     50  CD  ARG D 650     -67.789   6.975 -14.086  1.00 89.00 LIG 0.14  C 
BRANCH 50 51
ATOM     51  NE  ARG D 650     -68.983   6.137 -14.193  1.00 88.84 LIG-0.23  N 
ATOM     52 HE   ARG D 650     -69.574   6.201 -13.571  1.00 88.84 LIG 0.18  HD
ATOM     53  CZ  ARG D 650     -69.219   5.282 -15.187  1.00 89.69 LIG 0.67  C 
ATOM     54  NH2 ARG D 650     -68.353   5.151 -16.187  1.00 88.97 LIG-0.23  N 
ATOM     55  NH1 ARG D 650     -70.334   4.561 -15.188  1.00 77.77 LIG-0.23  N 
ATOM     56 2HH2 ARG D 650     -68.513   4.597 -16.825  1.00 88.97 LIG 0.17  HD
ATOM     57 1HH2 ARG D 650     -67.632   5.620 -16.195  1.00 88.97 LIG 0.17  HD
ATOM     58 1HH1 ARG D 650     -70.901   4.645 -14.548  1.00 77.77 LIG 0.17  HD
ATOM     59 2HH1 ARG D 650     -70.487   4.009 -15.830  1.00 77.77 LIG 0.17  HD
ENDBRANCH 50 51
ENDBRANCH 49 50
ENDBRANCH 48 49
ENDBRANCH 45 48
ENDBRANCH 42 45
ENDBRANCH 37 41
ENDBRANCH 1 34
TORSDOF 22
ENDMDL
MODEL 26
USER: ADFR SOLUTION from run 187
USER: SCORE 17.192610 LL:  -5.227 LR: -14.654 RR:   0.000 FEB:  -8.092
USER: RMSD 3.801343
USER: SEED 186
USER: STATUS no improvement in best in 8 clusters for 5 generations
USER: GENES 24
USER: genes 0 Translation |==|  0.46766 0.48241 0.59458
USER: genes 1 Rotation |==|  0.69616 0.51178 0.68419 0.92126
USER: genes 2 Torsion [CB]-CA--N-[C] |==|  0.23882
USER: genes 3 Torsion [N]-C--CA-[N] |==|  0.83663
USER: genes 4 Torsion [C]-CA--CB-[CG] |==|  0.32890
USER: genes 5 Torsion [CA]-CB--CG-[CD2] |==|  0.00301
USER: genes 6 Torsion [C]-CA--N-[C] |==|  0.83002
USER: genes 7 Torsion [N]-C--CA-[N] |==|  0.54460
USER: genes 8 Torsion [C]-CA--N-[C] |==|  0.11726
USER: genes 9 Torsion [N]-C--CA-[N] |==|  0.34483
USER: genes 10 Torsion [C]-CA--CB-[CG2] |==|  0.20598
USER: genes 11 Torsion [CA]-CB--CG1-[CD1] |==|  0.46918
USER: genes 12 Torsion [C]-CA--CB-[CG] |==|  0.88357
USER: genes 13 Torsion [CA]-CB--CG-[CD1] |==|  0.35275
USER: genes 14 Torsion [N]-CA--CB-[CG2] |==|  0.72399
USER: genes 15 Torsion [CA]-CB--OG1-[HG1] |==|  0.16468
USER: genes 16 Torsion [N]-CA--C-[N] |==|  0.28474
USER: genes 17 Torsion [N]-CA--C-[N] |==|  0.80881
USER: genes 18 Torsion [C]-N--CA-[C] |==|  0.65685
USER: genes 19 Torsion [N]-CA--C-[O] |==|  0.60958
USER: genes 20 Torsion [N]-CA--CB-[CG] |==|  0.53410
USER: genes 21 Torsion [CA]-CB--CG-[CD] |==|  0.52615
USER: genes 22 Torsion [CB]-CG--CD-[NE] |==|  0.34447
USER: genes 23 Torsion [CG]-CD--NE-[HE] |==|  0.00056
ROOT
ATOM      1  CA  THR D 648     -63.056   9.302  -6.168  1.00 62.87 LIG 0.20  C 
ENDROOT
BRANCH 1 2
ATOM      2  N   THR D 648     -61.826   9.676  -5.475  1.00 56.91 LIG-0.34  N 
ATOM      3  C   LEU D 647     -61.357   8.977  -4.445  1.00 59.35 LIG 0.24  C 
ATOM      4 O    LEU D 647     -61.911   7.965  -4.014  1.00 56.20 LIG-0.27  OA
ATOM      5 H    THR D 648     -61.442  10.378  -5.790  1.00 56.91 LIG 0.16  HD
BRANCH 3 6
ATOM      6  CA  LEU D 647     -60.071   9.492  -3.824  1.00 55.15 LIG 0.18  C 
BRANCH 6 7
ATOM      7  CB  LEU D 647     -60.354  10.857  -3.119  1.00 49.69 LIG 0.04  C 
BRANCH 7 8
ATOM      8  CG  LEU D 647     -60.150  11.034  -1.610  1.00 48.41 LIG-0.02  C 
ATOM      9  CD2 LEU D 647     -59.636   9.775  -0.929  1.00 46.46 LIG 0.01  C 
ATOM     10  CD1 LEU D 647     -61.452  11.475  -0.960  1.00 42.39 LIG 0.01  C 
ENDBRANCH 7 8
ENDBRANCH 6 7
BRANCH 6 11
ATOM     11  N   LEU D 647     -58.980   9.549  -4.772  1.00 57.83 LIG-0.35  N 
ATOM     12  C   LEU D 646     -58.536   8.445  -5.375  1.00 69.64 LIG 0.24  C 
ATOM     13 O    LEU D 646     -59.002   7.328  -5.132  1.00 59.31 LIG-0.27  OA
ATOM     14 H    LEU D 647     -58.658  10.336  -4.903  1.00 57.83 LIG 0.16  HD
BRANCH 12 15
ATOM     15  CA  LEU D 646     -57.409   8.595  -6.446  1.00 75.89 LIG 0.18  C 
BRANCH 15 16
ATOM     16  N   LEU D 646     -57.182   7.493  -7.330  1.00 90.15 LIG-0.35  N 
ATOM     17 H    LEU D 646     -56.353   7.313  -7.474  1.00 90.15 LIG 0.16  HD
ATOM     18  C   ILE D 645     -58.197   6.820  -7.870  1.00 94.17 LIG 0.26  C 
ATOM     19 O    ILE D 645     -59.382   7.064  -7.613  1.00104.89 LIG-0.27  OA
BRANCH 18 20
ATOM     20  CA  ILE D 645     -57.829   5.701  -8.838  1.00 87.61 LIG 0.40  C 
ATOM     21  N   ILE D 645     -58.402   4.373  -8.460  1.00 97.17 LIG 0.61  N 
BRANCH 20 22
ATOM     22  CB  ILE D 645     -58.379   6.235 -10.190  1.00 83.91 LIG 0.03  C 
ATOM     23  CG2 ILE D 645     -57.490   7.354 -10.726  1.00 71.96 LIG 0.01  C 
BRANCH 22 24
ATOM     24  CG1 ILE D 645     -58.588   5.111 -11.222  1.00 78.38 LIG 0.00  C 
ATOM     25  CD1 ILE D 645     -59.366   5.531 -12.458  1.00 60.94 LIG 0.01  C 
ENDBRANCH 22 24
ENDBRANCH 20 22
ENDBRANCH 18 20
ENDBRANCH 15 16
BRANCH 15 26
ATOM     26  CB  LEU D 646     -57.724   9.830  -7.315  1.00 77.70 LIG 0.04  C 
BRANCH 26 27
ATOM     27  CG  LEU D 646     -59.188  10.013  -7.728  1.00 75.60 LIG-0.02  C 
ATOM     28  CD1 LEU D 646     -59.714  11.398  -7.371  1.00 71.06 LIG 0.01  C 
ATOM     29  CD2 LEU D 646     -59.335   9.746  -9.213  1.00 73.48 LIG 0.01  C 
ENDBRANCH 26 27
ENDBRANCH 15 26
ENDBRANCH 12 15
ENDBRANCH 6 11
ENDBRANCH 3 6
ENDBRANCH 1 2
BRANCH 1 30
ATOM     30  CB  THR D 648     -64.295   9.907  -5.458  1.00 65.76 LIG 0.15  C 
ATOM     31  CG2 THR D 648     -64.994   8.890  -4.554  1.00 59.42 LIG 0.04  C 
BRANCH 30 32
ATOM     32 OG1  THR D 648     -63.881  11.027  -4.662  1.00 66.48 LIG-0.39  OA
ATOM     33 HG1  THR D 648     -63.520  11.603  -5.155  1.00 66.48 LIG 0.21  HD
ENDBRANCH 30 32
ENDBRANCH 1 30
BRANCH 1 34
ATOM     34  C   THR D 648     -62.968   9.699  -7.656  1.00 62.56 LIG 0.24  C 
ATOM     35 O    THR D 648     -63.093  10.884  -7.989  1.00 59.73 LIG-0.27  OA
ATOM     36  N   PRO D 649     -62.711   8.715  -8.545  1.00 65.34 LIG-0.34  N 
ATOM     37  CA  PRO D 649     -62.641   8.963  -9.993  1.00 70.60 LIG 0.18  C 
ATOM     38  CD  PRO D 649     -62.296   7.338  -8.201  1.00 66.58 LIG 0.13  C 
ATOM     39  CB  PRO D 649     -61.990   7.687 -10.538  1.00 67.49 LIG 0.04  C 
ATOM     40  CG  PRO D 649     -62.290   6.633  -9.525  1.00 65.73 LIG 0.02  C 
BRANCH 37 41
ATOM     41  C   PRO D 649     -64.004   9.174 -10.662  1.00 77.20 LIG 0.24  C 
ATOM     42  N   ARG D 650     -64.795   8.104 -10.727  1.00 83.37 LIG-0.35  N 
ATOM     43 H    ARG D 650     -64.557   7.324 -10.454  1.00 83.37 LIG 0.16  HD
ATOM     44 O    PRO D 649     -64.323  10.288 -11.094  1.00 68.92 LIG-0.27  OA
BRANCH 42 45
ATOM     45  CA  ARG D 650     -66.151   8.151 -11.272  1.00 76.40 LIG 0.16  C 
BRANCH 45 46
ATOM     46  C   ARG D 650     -67.179   7.651 -10.263  1.00 81.79 LIG 0.22  C 
ATOM     47 O    ARG D 650     -68.127   6.954 -10.624  1.00 80.18 LIG-0.29  OA
ENDBRANCH 45 46
BRANCH 45 48
ATOM     48  CB  ARG D 650     -66.231   7.332 -12.558  1.00 77.84 LIG 0.04  C 
BRANCH 48 49
ATOM     49  CG  ARG D 650     -67.511   7.563 -13.345  1.00 87.31 LIG 0.02  C 
BRANCH 49 50
ATOM     50  CD  ARG D 650     -67.681   6.580 -14.496  1.00 89.00 LIG 0.14  C 
BRANCH 50 51
ATOM     51  NE  ARG D 650     -68.939   5.834 -14.441  1.00 88.84 LIG-0.23  N 
ATOM     52 HE   ARG D 650     -69.474   6.000 -13.788  1.00 88.84 LIG 0.18  HD
ATOM     53  CZ  ARG D 650     -69.312   4.917 -15.332  1.00 89.69 LIG 0.67  C 
ATOM     54  NH2 ARG D 650     -68.536   4.629 -16.372  1.00 88.97 LIG-0.23  N 
ATOM     55  NH1 ARG D 650     -70.473   4.290 -15.188  1.00 77.77 LIG-0.23  N 
ATOM     56 2HH2 ARG D 650     -68.785   4.035 -16.942  1.00 88.97 LIG 0.17  HD
ATOM     57 1HH2 ARG D 650     -67.786   5.036 -16.474  1.00 88.97 LIG 0.17  HD
ATOM     58 1HH1 ARG D 650     -70.983   4.476 -14.521  1.00 77.77 LIG 0.17  HD
ATOM     59 2HH1 ARG D 650     -70.716   3.697 -15.762  1.00 77.77 LIG 0.17  HD
ENDBRANCH 50 51
ENDBRANCH 49 50
ENDBRANCH 48 49
ENDBRANCH 45 48
ENDBRANCH 42 45
ENDBRANCH 37 41
ENDBRANCH 1 34
TORSDOF 22
ENDMDL
MODEL 27
USER: ADFR SOLUTION from run 43
USER: SCORE 18.252945 LL:  -3.863 LR: -14.638 RR:   0.000 FEB:  -8.075
USER: RMSD 5.954214
USER: SEED 42
USER: STATUS no improvement in best in 3 clusters for 5 generations
USER: GENES 24
USER: genes 0 Translation |==|  0.50759 0.48721 0.60574
USER: genes 1 Rotation |==|  0.12668 0.43378 0.20364 0.63572
USER: genes 2 Torsion [CB]-CA--N-[C] |==|  0.84825
USER: genes 3 Torsion [N]-C--CA-[N] |==|  0.87432
USER: genes 4 Torsion [C]-CA--CB-[CG] |==|  0.44141
USER: genes 5 Torsion [CA]-CB--CG-[CD2] |==|  0.62566
USER: genes 6 Torsion [C]-CA--N-[C] |==|  0.85555
USER: genes 7 Torsion [N]-C--CA-[N] |==|  0.42566
USER: genes 8 Torsion [C]-CA--N-[C] |==|  0.66820
USER: genes 9 Torsion [N]-C--CA-[N] |==|  0.39192
USER: genes 10 Torsion [C]-CA--CB-[CG2] |==|  0.38405
USER: genes 11 Torsion [CA]-CB--CG1-[CD1] |==|  0.47769
USER: genes 12 Torsion [C]-CA--CB-[CG] |==|  0.86878
USER: genes 13 Torsion [CA]-CB--CG-[CD1] |==|  0.38111
USER: genes 14 Torsion [N]-CA--CB-[CG2] |==|  0.60975
USER: genes 15 Torsion [CA]-CB--OG1-[HG1] |==|  0.89078
USER: genes 16 Torsion [N]-CA--C-[N] |==|  0.36783
USER: genes 17 Torsion [N]-CA--C-[N] |==|  0.53263
USER: genes 18 Torsion [C]-N--CA-[C] |==|  0.19656
USER: genes 19 Torsion [N]-CA--C-[O] |==|  0.01371
USER: genes 20 Torsion [N]-CA--CB-[CG] |==|  0.65703
USER: genes 21 Torsion [CA]-CB--CG-[CD] |==|  0.38719
USER: genes 22 Torsion [CB]-CG--CD-[NE] |==|  0.43361
USER: genes 23 Torsion [CG]-CD--NE-[HE] |==|  0.68467
ROOT
ATOM      1  CA  THR D 648     -62.188   9.377  -5.900  1.00 62.87 LIG 0.20  C 
ENDROOT
BRANCH 1 2
ATOM      2  N   THR D 648     -61.381   9.669  -4.718  1.00 56.91 LIG-0.34  N 
ATOM      3  C   LEU D 647     -61.267   8.807  -3.712  1.00 59.35 LIG 0.24  C 
ATOM      4 O    LEU D 647     -61.816   7.705  -3.709  1.00 56.20 LIG-0.27  OA
ATOM      5 H    THR D 648     -60.994  10.437  -4.735  1.00 56.91 LIG 0.16  HD
BRANCH 3 6
ATOM      6  CA  LEU D 647     -60.398   9.254  -2.550  1.00 55.15 LIG 0.18  C 
BRANCH 6 7
ATOM      7  CB  LEU D 647     -61.234  10.187  -1.615  1.00 49.69 LIG 0.04  C 
BRANCH 7 8
ATOM      8  CG  LEU D 647     -60.834  10.417  -0.152  1.00 48.41 LIG-0.02  C 
ATOM      9  CD2 LEU D 647     -62.013  10.330   0.805  1.00 46.46 LIG 0.01  C 
ATOM     10  CD1 LEU D 647     -60.152  11.769  -0.008  1.00 42.39 LIG 0.01  C 
ENDBRANCH 7 8
ENDBRANCH 6 7
BRANCH 6 11
ATOM     11  N   LEU D 647     -59.150   9.843  -2.983  1.00 57.83 LIG-0.35  N 
ATOM     12  C   LEU D 646     -58.351   9.204  -3.840  1.00 69.64 LIG 0.24  C 
ATOM     13 O    LEU D 646     -58.614   8.079  -4.273  1.00 59.31 LIG-0.27  OA
ATOM     14 H    LEU D 647     -58.980  10.616  -2.646  1.00 57.83 LIG 0.16  HD
BRANCH 12 15
ATOM     15  CA  LEU D 646     -57.060   9.936  -4.324  1.00 75.89 LIG 0.18  C 
BRANCH 15 16
ATOM     16  N   LEU D 646     -55.950   9.127  -4.729  1.00 90.15 LIG-0.35  N 
ATOM     17 H    LEU D 646     -56.112   8.602  -5.391  1.00 90.15 LIG 0.16  HD
ATOM     18  C   ILE D 645     -54.774   9.205  -4.107  1.00 94.17 LIG 0.26  C 
ATOM     19 O    ILE D 645     -54.550  10.001  -3.188  1.00104.89 LIG-0.27  OA
BRANCH 18 20
ATOM     20  CA  ILE D 645     -53.686   8.254  -4.594  1.00 87.61 LIG 0.40  C 
ATOM     21  N   ILE D 645     -52.326   8.874  -4.629  1.00 97.17 LIG 0.61  N 
BRANCH 20 22
ATOM     22  CB  ILE D 645     -53.791   7.081  -3.582  1.00 83.91 LIG 0.03  C 
ATOM     23  CG2 ILE D 645     -53.664   5.740  -4.300  1.00 71.96 LIG 0.01  C 
BRANCH 22 24
ATOM     24  CG1 ILE D 645     -52.789   7.218  -2.420  1.00 78.38 LIG 0.00  C 
ATOM     25  CD1 ILE D 645     -52.978   6.204  -1.305  1.00 60.94 LIG 0.01  C 
ENDBRANCH 22 24
ENDBRANCH 20 22
ENDBRANCH 18 20
ENDBRANCH 15 16
BRANCH 15 26
ATOM     26  CB  LEU D 646     -57.431  10.844  -5.514  1.00 77.70 LIG 0.04  C 
BRANCH 26 27
ATOM     27  CG  LEU D 646     -58.291  10.207  -6.610  1.00 75.60 LIG-0.02  C 
ATOM     28  CD1 LEU D 646     -59.397  11.142  -7.084  1.00 71.06 LIG 0.01  C 
ATOM     29  CD2 LEU D 646     -57.410   9.784  -7.769  1.00 73.48 LIG 0.01  C 
ENDBRANCH 26 27
ENDBRANCH 15 26
ENDBRANCH 12 15
ENDBRANCH 6 11
ENDBRANCH 3 6
ENDBRANCH 1 2
BRANCH 1 30
ATOM     30  CB  THR D 648     -61.755   8.036  -6.545  1.00 65.76 LIG 0.15  C 
ATOM     31  CG2 THR D 648     -61.761   8.103  -8.073  1.00 59.42 LIG 0.04  C 
BRANCH 30 32
ATOM     32 OG1  THR D 648     -60.432   7.705  -6.101  1.00 66.48 LIG-0.39  OA
ATOM     33 HG1  THR D 648     -59.964   8.402  -6.069  1.00 66.48 LIG 0.21  HD
ENDBRANCH 30 32
ENDBRANCH 1 30
BRANCH 1 34
ATOM     34  C   THR D 648     -63.687   9.410  -5.540  1.00 62.56 LIG 0.24  C 
ATOM     35 O    THR D 648     -64.092   8.844  -4.518  1.00 59.73 LIG-0.27  OA
ATOM     36  N   PRO D 649     -64.505  10.109  -6.358  1.00 65.34 LIG-0.34  N 
ATOM     37  CA  PRO D 649     -65.957  10.182  -6.141  1.00 70.60 LIG 0.18  C 
ATOM     38  CD  PRO D 649     -64.063  11.016  -7.439  1.00 66.58 LIG 0.13  C 
ATOM     39  CB  PRO D 649     -66.393  11.332  -7.057  1.00 67.49 LIG 0.04  C 
ATOM     40  CG  PRO D 649     -65.343  11.406  -8.115  1.00 65.73 LIG 0.02  C 
BRANCH 37 41
ATOM     41  C   PRO D 649     -66.716   8.905  -6.519  1.00 77.20 LIG 0.24  C 
ATOM     42  N   ARG D 650     -68.044   9.007  -6.570  1.00 83.37 LIG-0.35  N 
ATOM     43 H    ARG D 650     -68.470   9.726  -6.365  1.00 83.37 LIG 0.16  HD
ATOM     44 O    PRO D 649     -66.100   7.862  -6.768  1.00 68.92 LIG-0.27  OA
BRANCH 42 45
ATOM     45  CA  ARG D 650     -68.910   7.902  -6.979  1.00 76.40 LIG 0.16  C 
BRANCH 45 46
ATOM     46  C   ARG D 650     -68.947   6.799  -5.929  1.00 81.79 LIG 0.22  C 
ATOM     47 O    ARG D 650     -68.372   6.939  -4.850  1.00 80.18 LIG-0.29  OA
ENDBRANCH 45 46
BRANCH 45 48
ATOM     48  CB  ARG D 650     -68.448   7.340  -8.321  1.00 77.84 LIG 0.04  C 
BRANCH 48 49
ATOM     49  CG  ARG D 650     -69.530   7.353  -9.389  1.00 87.31 LIG 0.02  C 
BRANCH 49 50
ATOM     50  CD  ARG D 650     -69.003   7.761 -10.758  1.00 89.00 LIG 0.14  C 
BRANCH 50 51
ATOM     51  NE  ARG D 650     -69.822   7.268 -11.865  1.00 88.84 LIG-0.23  N 
ATOM     52 HE   ARG D 650     -69.474   6.685 -12.392  1.00 88.84 LIG 0.18  HD
ATOM     53  CZ  ARG D 650     -71.071   7.661 -12.114  1.00 89.69 LIG 0.67  C 
ATOM     54  NH2 ARG D 650     -71.670   8.548 -11.326  1.00 88.97 LIG-0.23  N 
ATOM     55  NH1 ARG D 650     -71.728   7.158 -13.152  1.00 77.77 LIG-0.23  N 
ATOM     56 2HH2 ARG D 650     -72.477   8.796 -11.494  1.00 88.97 LIG 0.17  HD
ATOM     57 1HH2 ARG D 650     -71.252   8.874 -10.649  1.00 88.97 LIG 0.17  HD
ATOM     58 1HH1 ARG D 650     -71.348   6.579 -13.661  1.00 77.77 LIG 0.17  HD
ATOM     59 2HH1 ARG D 650     -72.534   7.410 -13.313  1.00 77.77 LIG 0.17  HD
ENDBRANCH 50 51
ENDBRANCH 49 50
ENDBRANCH 48 49
ENDBRANCH 45 48
ENDBRANCH 42 45
ENDBRANCH 37 41
ENDBRANCH 1 34
TORSDOF 22
ENDMDL
MODEL 28
USER: ADFR SOLUTION from run 67
USER: SCORE 17.184198 LL:  -3.691 LR: -14.613 RR:   0.000 FEB:  -8.051
USER: RMSD 7.211287
USER: SEED 66
USER: STATUS no improvement in best in 5 clusters for 5 generations
USER: GENES 24
USER: genes 0 Translation |==|  0.64209 0.50909 0.63310
USER: genes 1 Rotation |==|  0.42777 0.14484 0.18963 0.64937
USER: genes 2 Torsion [CB]-CA--N-[C] |==|  0.77359
USER: genes 3 Torsion [N]-C--CA-[N] |==|  0.32166
USER: genes 4 Torsion [C]-CA--CB-[CG] |==|  0.25511
USER: genes 5 Torsion [CA]-CB--CG-[CD2] |==|  0.86078
USER: genes 6 Torsion [C]-CA--N-[C] |==|  0.68482
USER: genes 7 Torsion [N]-C--CA-[N] |==|  0.75192
USER: genes 8 Torsion [C]-CA--N-[C] |==|  0.66164
USER: genes 9 Torsion [N]-C--CA-[N] |==|  0.97717
USER: genes 10 Torsion [C]-CA--CB-[CG2] |==|  0.89438
USER: genes 11 Torsion [CA]-CB--CG1-[CD1] |==|  0.32332
USER: genes 12 Torsion [C]-CA--CB-[CG] |==|  0.34034
USER: genes 13 Torsion [CA]-CB--CG-[CD1] |==|  0.27937
USER: genes 14 Torsion [N]-CA--CB-[CG2] |==|  0.82984
USER: genes 15 Torsion [CA]-CB--OG1-[HG1] |==|  0.07678
USER: genes 16 Torsion [N]-CA--C-[N] |==|  0.21317
USER: genes 17 Torsion [N]-CA--C-[N] |==|  0.41620
USER: genes 18 Torsion [C]-N--CA-[C] |==|  0.19646
USER: genes 19 Torsion [N]-CA--C-[O] |==|  0.04993
USER: genes 20 Torsion [N]-CA--CB-[CG] |==|  0.81991
USER: genes 21 Torsion [CA]-CB--CG-[CD] |==|  0.39150
USER: genes 22 Torsion [CB]-CG--CD-[NE] |==|  0.37529
USER: genes 23 Torsion [CG]-CD--NE-[HE] |==|  0.78006
ROOT
ATOM      1  CA  THR D 648     -59.263   9.722  -5.244  1.00 62.87 LIG 0.20  C 
ENDROOT
BRANCH 1 2
ATOM      2  N   THR D 648     -60.504  10.107  -4.577  1.00 56.91 LIG-0.34  N 
ATOM      3  C   LEU D 647     -61.208   9.247  -3.847  1.00 59.35 LIG 0.24  C 
ATOM      4 O    LEU D 647     -60.861   8.079  -3.668  1.00 56.20 LIG-0.27  OA
ATOM      5 H    THR D 648     -60.732  10.927  -4.700  1.00 56.91 LIG 0.16  HD
BRANCH 3 6
ATOM      6  CA  LEU D 647     -62.479   9.792  -3.221  1.00 55.15 LIG 0.18  C 
BRANCH 6 7
ATOM      7  CB  LEU D 647     -62.354   9.723  -1.665  1.00 49.69 LIG 0.04  C 
BRANCH 7 8
ATOM      8  CG  LEU D 647     -61.808  10.905  -0.854  1.00 48.41 LIG-0.02  C 
ATOM      9  CD2 LEU D 647     -60.491  11.438  -1.396  1.00 46.46 LIG 0.01  C 
ATOM     10  CD1 LEU D 647     -61.640  10.500   0.602  1.00 42.39 LIG 0.01  C 
ENDBRANCH 7 8
ENDBRANCH 6 7
BRANCH 6 11
ATOM     11  N   LEU D 647     -63.670   9.149  -3.731  1.00 57.83 LIG-0.35  N 
ATOM     12  C   LEU D 646     -64.556   9.828  -4.462  1.00 69.64 LIG 0.24  C 
ATOM     13 O    LEU D 646     -64.427  11.030  -4.707  1.00 59.31 LIG-0.27  OA
ATOM     14 H    LEU D 647     -63.748   8.318  -3.524  1.00 57.83 LIG 0.16  HD
BRANCH 12 15
ATOM     15  CA  LEU D 646     -65.777   9.048  -5.046  1.00 75.89 LIG 0.18  C 
BRANCH 15 16
ATOM     16  N   LEU D 646     -65.624   8.445  -6.335  1.00 90.15 LIG-0.35  N 
ATOM     17 H    LEU D 646     -64.980   7.878  -6.392  1.00 90.15 LIG 0.16  HD
ATOM     18  C   ILE D 645     -66.434   8.761  -7.346  1.00 94.17 LIG 0.26  C 
ATOM     19 O    ILE D 645     -67.383   9.544  -7.230  1.00104.89 LIG-0.27  OA
BRANCH 18 20
ATOM     20  CA  ILE D 645     -66.138   8.093  -8.684  1.00 87.61 LIG 0.40  C 
ATOM     21  N   ILE D 645     -64.854   7.328  -8.697  1.00 97.17 LIG 0.61  N 
BRANCH 20 22
ATOM     22  CB  ILE D 645     -67.384   7.188  -8.888  1.00 83.91 LIG 0.03  C 
ATOM     23  CG2 ILE D 645     -67.827   6.579  -7.561  1.00 71.96 LIG 0.01  C 
BRANCH 22 24
ATOM     24  CG1 ILE D 645     -68.532   7.926  -9.603  1.00 78.38 LIG 0.00  C 
ATOM     25  CD1 ILE D 645     -68.899   7.349 -10.961  1.00 60.94 LIG 0.01  C 
ENDBRANCH 22 24
ENDBRANCH 20 22
ENDBRANCH 18 20
ENDBRANCH 15 16
BRANCH 15 26
ATOM     26  CB  LEU D 646     -66.162   7.932  -4.054  1.00 77.70 LIG 0.04  C 
BRANCH 26 27
ATOM     27  CG  LEU D 646     -67.601   7.958  -3.529  1.00 75.60 LIG-0.02  C 
ATOM     28  CD1 LEU D 646     -68.491   6.954  -4.251  1.00 71.06 LIG 0.01  C 
ATOM     29  CD2 LEU D 646     -67.603   7.704  -2.035  1.00 73.48 LIG 0.01  C 
ENDBRANCH 26 27
ENDBRANCH 15 26
ENDBRANCH 12 15
ENDBRANCH 6 11
ENDBRANCH 3 6
ENDBRANCH 1 2
BRANCH 1 30
ATOM     30  CB  THR D 648     -58.071   9.760  -4.252  1.00 65.76 LIG 0.15  C 
ATOM     31  CG2 THR D 648     -57.840  11.160  -3.683  1.00 59.42 LIG 0.04  C 
BRANCH 30 32
ATOM     32 OG1  THR D 648     -58.330   8.856  -3.169  1.00 66.48 LIG-0.39  OA
ATOM     33 HG1  THR D 648     -58.833   8.237  -3.434  1.00 66.48 LIG 0.21  HD
ENDBRANCH 30 32
ENDBRANCH 1 30
BRANCH 1 34
ATOM     34  C   THR D 648     -59.429   8.348  -5.924  1.00 62.56 LIG 0.24  C 
ATOM     35 O    THR D 648     -58.976   7.331  -5.386  1.00 59.73 LIG-0.27  OA
ATOM     36  N   PRO D 649     -60.118   8.312  -7.086  1.00 65.34 LIG-0.34  N 
ATOM     37  CA  PRO D 649     -60.311   7.069  -7.847  1.00 70.60 LIG 0.18  C 
ATOM     38  CD  PRO D 649     -60.904   9.431  -7.650  1.00 66.58 LIG 0.13  C 
ATOM     39  CB  PRO D 649     -61.413   7.435  -8.847  1.00 67.49 LIG 0.04  C 
ATOM     40  CG  PRO D 649     -61.329   8.918  -8.993  1.00 65.73 LIG 0.02  C 
BRANCH 37 41
ATOM     41  C   PRO D 649     -59.064   6.593  -8.602  1.00 77.20 LIG 0.24  C 
ATOM     42  N   ARG D 650     -58.948   5.275  -8.767  1.00 83.37 LIG-0.35  N 
ATOM     43 H    ARG D 650     -59.507   4.708  -8.440  1.00 83.37 LIG 0.16  HD
ATOM     44 O    PRO D 649     -58.242   7.411  -9.030  1.00 68.92 LIG-0.27  OA
BRANCH 42 45
ATOM     45  CA  ARG D 650     -57.856   4.662  -9.522  1.00 76.40 LIG 0.16  C 
BRANCH 45 46
ATOM     46  C   ARG D 650     -56.529   4.776  -8.781  1.00 81.79 LIG 0.22  C 
ATOM     47 O    ARG D 650     -56.501   5.020  -7.575  1.00 80.18 LIG-0.29  OA
ENDBRANCH 45 46
BRANCH 45 48
ATOM     48  CB  ARG D 650     -57.747   5.303 -10.904  1.00 77.84 LIG 0.04  C 
BRANCH 48 49
ATOM     49  CG  ARG D 650     -58.961   5.054 -11.784  1.00 87.31 LIG 0.02  C 
BRANCH 49 50
ATOM     50  CD  ARG D 650     -59.346   6.270 -12.615  1.00 89.00 LIG 0.14  C 
BRANCH 50 51
ATOM     51  NE  ARG D 650     -59.649   5.948 -14.010  1.00 88.84 LIG-0.23  N 
ATOM     52 HE   ARG D 650     -58.987   5.826 -14.545  1.00 88.84 LIG 0.18  HD
ATOM     53  CZ  ARG D 650     -60.879   5.830 -14.508  1.00 89.69 LIG 0.67  C 
ATOM     54  NH2 ARG D 650     -61.943   5.989 -13.727  1.00 88.97 LIG-0.23  N 
ATOM     55  NH1 ARG D 650     -61.047   5.540 -15.792  1.00 77.77 LIG-0.23  N 
ATOM     56 2HH2 ARG D 650     -62.733   5.911 -14.057  1.00 88.97 LIG 0.17  HD
ATOM     57 1HH2 ARG D 650     -61.841   6.171 -12.893  1.00 88.97 LIG 0.17  HD
ATOM     58 1HH1 ARG D 650     -60.363   5.430 -16.301  1.00 77.77 LIG 0.17  HD
ATOM     59 2HH1 ARG D 650     -61.840   5.464 -16.115  1.00 77.77 LIG 0.17  HD
ENDBRANCH 50 51
ENDBRANCH 49 50
ENDBRANCH 48 49
ENDBRANCH 45 48
ENDBRANCH 42 45
ENDBRANCH 37 41
ENDBRANCH 1 34
TORSDOF 22
ENDMDL
MODEL 29
USER: ADFR SOLUTION from run 69
USER: SCORE 17.920165 LL:  -4.438 LR: -14.610 RR:   0.000 FEB:  -8.047
USER: RMSD 3.443021
USER: SEED 68
USER: STATUS no improvement in best in 9 clusters for 5 generations
USER: GENES 24
USER: genes 0 Translation |==|  0.41244 0.51422 0.64834
USER: genes 1 Rotation |==|  0.47865 0.41574 0.54054 0.99071
USER: genes 2 Torsion [CB]-CA--N-[C] |==|  0.51684
USER: genes 3 Torsion [N]-C--CA-[N] |==|  0.68860
USER: genes 4 Torsion [C]-CA--CB-[CG] |==|  0.46907
USER: genes 5 Torsion [CA]-CB--CG-[CD2] |==|  0.07970
USER: genes 6 Torsion [C]-CA--N-[C] |==|  0.18952
USER: genes 7 Torsion [N]-C--CA-[N] |==|  0.35814
USER: genes 8 Torsion [C]-CA--N-[C] |==|  0.84276
USER: genes 9 Torsion [N]-C--CA-[N] |==|  0.33428
USER: genes 10 Torsion [C]-CA--CB-[CG2] |==|  0.75817
USER: genes 11 Torsion [CA]-CB--CG1-[CD1] |==|  0.29880
USER: genes 12 Torsion [C]-CA--CB-[CG] |==|  0.78578
USER: genes 13 Torsion [CA]-CB--CG-[CD1] |==|  0.31697
USER: genes 14 Torsion [N]-CA--CB-[CG2] |==|  0.91629
USER: genes 15 Torsion [CA]-CB--OG1-[HG1] |==|  0.77132
USER: genes 16 Torsion [N]-CA--C-[N] |==|  0.46136
USER: genes 17 Torsion [N]-CA--C-[N] |==|  0.48171
USER: genes 18 Torsion [C]-N--CA-[C] |==|  0.61121
USER: genes 19 Torsion [N]-CA--C-[O] |==|  0.87562
USER: genes 20 Torsion [N]-CA--CB-[CG] |==|  0.24996
USER: genes 21 Torsion [CA]-CB--CG-[CD] |==|  0.47004
USER: genes 22 Torsion [CB]-CG--CD-[NE] |==|  0.51287
USER: genes 23 Torsion [CG]-CD--NE-[HE] |==|  0.29985
ROOT
ATOM      1  CA  THR D 648     -64.257   9.803  -4.878  1.00 62.87 LIG 0.20  C 
ENDROOT
BRANCH 1 2
ATOM      2  N   THR D 648     -63.243   9.955  -3.838  1.00 56.91 LIG-0.34  N 
ATOM      3  C   LEU D 647     -62.635   8.908  -3.288  1.00 59.35 LIG 0.24  C 
ATOM      4 O    LEU D 647     -62.870   7.746  -3.621  1.00 56.20 LIG-0.27  OA
ATOM      5 H    THR D 648     -63.079  10.771  -3.620  1.00 56.91 LIG 0.16  HD
BRANCH 3 6
ATOM      6  CA  LEU D 647     -61.607   9.225  -2.216  1.00 55.15 LIG 0.18  C 
BRANCH 6 7
ATOM      7  CB  LEU D 647     -61.785  10.708  -1.759  1.00 49.69 LIG 0.04  C 
BRANCH 7 8
ATOM      8  CG  LEU D 647     -61.067  11.252  -0.517  1.00 48.41 LIG-0.02  C 
ATOM      9  CD2 LEU D 647     -59.752  10.542  -0.233  1.00 46.46 LIG 0.01  C 
ATOM     10  CD1 LEU D 647     -61.980  11.148   0.695  1.00 42.39 LIG 0.01  C 
ENDBRANCH 7 8
ENDBRANCH 6 7
BRANCH 6 11
ATOM     11  N   LEU D 647     -60.258   8.908  -2.629  1.00 57.83 LIG-0.35  N 
ATOM     12  C   LEU D 646     -59.655   9.604  -3.595  1.00 69.64 LIG 0.24  C 
ATOM     13 O    LEU D 646     -60.221  10.517  -4.202  1.00 59.31 LIG-0.27  OA
ATOM     14 H    LEU D 647     -59.896   8.252  -2.207  1.00 57.83 LIG 0.16  HD
BRANCH 12 15
ATOM     15  CA  LEU D 646     -58.170   9.257  -3.932  1.00 75.89 LIG 0.18  C 
BRANCH 15 16
ATOM     16  N   LEU D 646     -57.840   9.015  -5.304  1.00 90.15 LIG-0.35  N 
ATOM     17 H    LEU D 646     -57.218   9.519  -5.618  1.00 90.15 LIG 0.16  HD
ATOM     18  C   ILE D 645     -58.468   8.075  -6.010  1.00 94.17 LIG 0.26  C 
ATOM     19 O    ILE D 645     -59.327   7.329  -5.526  1.00104.89 LIG-0.27  OA
BRANCH 18 20
ATOM     20  CA  ILE D 645     -58.066   7.948  -7.476  1.00 87.61 LIG 0.40  C 
ATOM     21  N   ILE D 645     -57.527   6.600  -7.831  1.00 97.17 LIG 0.61  N 
BRANCH 20 22
ATOM     22  CB  ILE D 645     -59.392   8.284  -8.215  1.00 83.91 LIG 0.03  C 
ATOM     23  CG2 ILE D 645     -60.244   7.029  -8.384  1.00 71.96 LIG 0.01  C 
BRANCH 22 24
ATOM     24  CG1 ILE D 645     -60.167   9.427  -7.534  1.00 78.38 LIG 0.00  C 
ATOM     25  CD1 ILE D 645     -60.143  10.742  -8.295  1.00 60.94 LIG 0.01  C 
ENDBRANCH 22 24
ENDBRANCH 20 22
ENDBRANCH 18 20
ENDBRANCH 15 16
BRANCH 15 26
ATOM     26  CB  LEU D 646     -57.275  10.411  -3.436  1.00 77.70 LIG 0.04  C 
BRANCH 26 27
ATOM     27  CG  LEU D 646     -57.256  11.674  -4.302  1.00 75.60 LIG-0.02  C 
ATOM     28  CD1 LEU D 646     -57.868  12.870  -3.583  1.00 71.06 LIG 0.01  C 
ATOM     29  CD2 LEU D 646     -55.835  11.975  -4.735  1.00 73.48 LIG 0.01  C 
ENDBRANCH 26 27
ENDBRANCH 15 26
ENDBRANCH 12 15
ENDBRANCH 6 11
ENDBRANCH 3 6
ENDBRANCH 1 2
BRANCH 1 30
ATOM     30  CB  THR D 648     -64.682  11.184  -5.439  1.00 65.76 LIG 0.15  C 
ATOM     31  CG2 THR D 648     -64.568  12.292  -4.390  1.00 59.42 LIG 0.04  C 
BRANCH 30 32
ATOM     32 OG1  THR D 648     -63.845  11.517  -6.556  1.00 66.48 LIG-0.39  OA
ATOM     33 HG1  THR D 648     -63.123  11.843  -6.278  1.00 66.48 LIG 0.21  HD
ENDBRANCH 30 32
ENDBRANCH 1 30
BRANCH 1 34
ATOM     34  C   THR D 648     -63.753   8.843  -5.975  1.00 62.56 LIG 0.24  C 
ATOM     35 O    THR D 648     -62.564   8.504  -6.003  1.00 59.73 LIG-0.27  OA
ATOM     36  N   PRO D 649     -64.667   8.371  -6.852  1.00 65.34 LIG-0.34  N 
ATOM     37  CA  PRO D 649     -64.301   7.480  -7.963  1.00 70.60 LIG 0.18  C 
ATOM     38  CD  PRO D 649     -66.132   8.522  -6.725  1.00 66.58 LIG 0.13  C 
ATOM     39  CB  PRO D 649     -65.654   6.937  -8.439  1.00 67.49 LIG 0.04  C 
ATOM     40  CG  PRO D 649     -66.655   7.959  -8.013  1.00 65.73 LIG 0.02  C 
BRANCH 37 41
ATOM     41  C   PRO D 649     -63.588   8.182  -9.125  1.00 77.20 LIG 0.24  C 
ATOM     42  N   ARG D 650     -63.120   7.388 -10.088  1.00 83.37 LIG-0.35  N 
ATOM     43 H    ARG D 650     -63.168   6.530 -10.057  1.00 83.37 LIG 0.16  HD
ATOM     44 O    PRO D 649     -63.482   9.414  -9.141  1.00 68.92 LIG-0.27  OA
BRANCH 42 45
ATOM     45  CA  ARG D 650     -62.476   7.901 -11.296  1.00 76.40 LIG 0.16  C 
BRANCH 45 46
ATOM     46  C   ARG D 650     -62.894   7.113 -12.532  1.00 81.79 LIG 0.22  C 
ATOM     47 O    ARG D 650     -62.933   5.883 -12.510  1.00 80.18 LIG-0.29  OA
ENDBRANCH 45 46
BRANCH 45 48
ATOM     48  CB  ARG D 650     -60.958   7.871 -11.138  1.00 77.84 LIG 0.04  C 
BRANCH 48 49
ATOM     49  CG  ARG D 650     -60.326   6.571 -11.605  1.00 87.31 LIG 0.02  C 
BRANCH 49 50
ATOM     50  CD  ARG D 650     -58.807   6.649 -11.687  1.00 89.00 LIG 0.14  C 
BRANCH 50 51
ATOM     51  NE  ARG D 650     -58.193   5.441 -12.238  1.00 88.84 LIG-0.23  N 
ATOM     52 HE   ARG D 650     -57.863   5.486 -13.031  1.00 88.84 LIG 0.18  HD
ATOM     53  CZ  ARG D 650     -58.108   4.277 -11.596  1.00 89.69 LIG 0.67  C 
ATOM     54  NH2 ARG D 650     -58.584   4.149 -10.362  1.00 88.97 LIG-0.23  N 
ATOM     55  NH1 ARG D 650     -57.536   3.235 -12.188  1.00 77.77 LIG-0.23  N 
ATOM     56 2HH2 ARG D 650     -58.526   3.394  -9.954  1.00 88.97 LIG 0.17  HD
ATOM     57 1HH2 ARG D 650     -58.951   4.821  -9.970  1.00 88.97 LIG 0.17  HD
ATOM     58 1HH1 ARG D 650     -57.221   3.313 -12.984  1.00 77.77 LIG 0.17  HD
ATOM     59 2HH1 ARG D 650     -57.481   2.483 -11.774  1.00 77.77 LIG 0.17  HD
ENDBRANCH 50 51
ENDBRANCH 49 50
ENDBRANCH 48 49
ENDBRANCH 45 48
ENDBRANCH 42 45
ENDBRANCH 37 41
ENDBRANCH 1 34
TORSDOF 22
ENDMDL
