MODEL 1
USER: ADFR SOLUTION from run 81
USER: SCORE 25.842256 LL:  -3.779 LR: -24.289 RR:   0.000 FEB: -13.849
USER: RMSD 6.602121
USER: SEED 80
USER: STATUS 1 or 2 clusters left
USER: GENES 37
USER: genes 0 Translation |==|  0.40914 0.54240 0.57126
USER: genes 1 Rotation |==|  0.70577 0.55066 0.61318 0.93850
USER: genes 2 Torsion [N]-CA--C-[N] |==|  0.58055
USER: genes 3 Torsion [C]-N--CA-[C] |==|  0.57445
USER: genes 4 Torsion [N]-CA--CB-[CG] |==|  0.17671
USER: genes 5 Torsion [CA]-CB--CG-[CD] |==|  0.32811
USER: genes 6 Torsion [CB]-CG--CD-[CE] |==|  0.31930
USER: genes 7 Torsion [CG]-CD--CE-[NZ] |==|  0.26082
USER: genes 8 Torsion [CD]-CE--NZ-[HZ3] |==|  0.50725
USER: genes 9 Torsion [N]-CA--C-[N] |==|  0.11033
USER: genes 10 Torsion [C]-N--CA-[C] |==|  0.86600
USER: genes 11 Torsion [N]-CA--C-[N] |==|  0.34476
USER: genes 12 Torsion [C]-N--CA-[C] |==|  0.62386
USER: genes 13 Torsion [N]-CA--C-[O] |==|  0.73906
USER: genes 14 Torsion [N]-CA--CB-[OG] |==|  0.01266
USER: genes 15 Torsion [CA]-CB--OG-[HG] |==|  0.72479
USER: genes 16 Torsion [N]-CA--CB-[CG] |==|  0.29250
USER: genes 17 Torsion [CA]-CB--CG-[CD] |==|  0.48325
USER: genes 18 Torsion [CB]-CG--CD-[NE] |==|  0.25013
USER: genes 19 Torsion [CG]-CD--NE-[CZ] |==|  0.54588
USER: genes 20 Torsion [C]-CA--CB-[CG] |==|  0.41185
USER: genes 21 Torsion [CA]-CB--CG-[CD] |==|  0.77167
USER: genes 22 Torsion [CB]-CG--CD-[NE] |==|  0.20785
USER: genes 23 Torsion [CG]-CD--NE-[CZ] |==|  0.66696
USER: genes 24 Torsion [C]-CA--N-[C] |==|  0.18333
USER: genes 25 Torsion [N]-C--CA-[N] |==|  0.19604
USER: genes 26 Torsion [C]-CA--CB-[CG] |==|  0.16676
USER: genes 27 Torsion [CA]-CB--CG-[CD] |==|  0.63721
USER: genes 28 Torsion [CB]-CG--CD-[NE2] |==|  0.84973
USER: genes 29 Torsion [C]-CA--N-[C] |==|  0.58179
USER: genes 30 Torsion [N]-C--CA-[N] |==|  0.41392
USER: genes 31 Torsion [C]-CA--CB-[CG2] |==|  0.84285
USER: genes 32 Torsion [CA]-CB--OG1-[HG1] |==|  0.78809
USER: genes 33 Torsion [C]-CA--N-[C] |==|  0.78428
USER: genes 34 Torsion [N]-C--CA-[N] |==|  0.26324
USER: genes 35 Torsion [C]-CA--CB-[OG1] |==|  0.49989
USER: genes 36 Torsion [CA]-CB--OG1-[HG1] |==|  0.29597
ROOT
ATOM      1  CA  ARG F 167      -3.460  19.127  40.054  1.00 38.85 LIG 0.18  C 
ENDROOT
BRANCH 1 2
ATOM      2  C   ARG F 167      -3.421  17.784  39.348  1.00 41.97 LIG 0.24  C 
ATOM      3  N   LYS F 168      -4.604  17.286  38.984  1.00 42.42 LIG-0.35  N 
ATOM      4 H    LYS F 168      -5.366  17.628  39.192  1.00 42.42 LIG 0.16  HD
ATOM      5 O    ARG F 167      -2.351  17.203  39.146  1.00 34.60 LIG-0.27  OA
BRANCH 3 6
ATOM      6  CA  LYS F 168      -4.670  16.076  38.175  1.00 39.35 LIG 0.18  C 
BRANCH 6 7
ATOM      7  CB  LYS F 168      -4.595  14.827  39.055  1.00 43.51 LIG 0.04  C 
BRANCH 7 8
ATOM      8  CG  LYS F 168      -5.757  14.668  40.017  1.00 39.69 LIG 0.00  C 
BRANCH 8 9
ATOM      9  CD  LYS F 168      -6.558  13.396  39.747  1.00 48.24 LIG 0.03  C 
BRANCH 9 10
ATOM     10  CE  LYS F 168      -6.464  12.406  40.911  1.00 54.37 LIG 0.23  C 
BRANCH 10 11
ATOM     11  NZ  LYS F 168      -7.585  12.529  41.897  1.00 52.23 LIG-0.08  N 
ATOM     12 HZ3  LYS F 168      -7.456  11.956  42.567  1.00 52.23 LIG 0.27  HD
ATOM     13 HZ1  LYS F 168      -7.609  13.359  42.218  1.00 52.23 LIG 0.27  HD
ATOM     14 HZ2  LYS F 168      -8.357  12.345  41.495  1.00 52.23 LIG 0.27  HD
ENDBRANCH 10 11
ENDBRANCH 9 10
ENDBRANCH 8 9
ENDBRANCH 7 8
ENDBRANCH 6 7
BRANCH 6 15
ATOM     15  C   LYS F 168      -5.958  16.073  37.360  1.00 30.99 LIG 0.24  C 
ATOM     16 O    LYS F 168      -6.626  15.041  37.228  1.00 32.09 LIG-0.27  OA
ATOM     17  N   ARG F 169      -6.328  17.242  36.845  1.00 23.74 LIG-0.35  N 
ATOM     18 H    ARG F 169      -5.903  17.982  36.956  1.00 23.74 LIG 0.16  HD
BRANCH 17 19
ATOM     19  CA  ARG F 169      -7.528  17.335  36.027  1.00 28.77 LIG 0.18  C 
BRANCH 19 20
ATOM     20  C   ARG F 169      -7.529  16.231  34.974  1.00 37.10 LIG 0.24  C 
ATOM     21  N   SER F 170      -8.600  15.441  34.981  1.00 32.48 LIG-0.34  N 
ATOM     22 H    SER F 170      -9.307  15.607  35.441  1.00 32.48 LIG 0.16  HD
ATOM     23 O    ARG F 169      -6.575  16.076  34.199  1.00 33.53 LIG-0.27  OA
BRANCH 21 24
ATOM     24  CA  SER F 170      -8.677  14.205  34.201  1.00 32.11 LIG 0.19  C 
BRANCH 24 25
ATOM     25  C   SER F 170     -10.016  14.046  33.471  1.00 36.47 LIG 0.22  C 
ATOM     26 O    SER F 170     -10.945  13.414  33.976  1.00 35.83 LIG-0.29  OA
ENDBRANCH 24 25
BRANCH 24 27
ATOM     27  CB  SER F 170      -8.431  13.001  35.117  1.00 36.26 LIG 0.20  C 
BRANCH 27 28
ATOM     28 OG   SER F 170      -8.303  13.416  36.472  1.00 19.66 LIG-0.40  OA
ATOM     29 HG   SER F 170      -7.490  13.462  36.676  1.00 19.66 LIG 0.21  HD
ENDBRANCH 27 28
ENDBRANCH 24 27
ENDBRANCH 21 24
ENDBRANCH 19 20
BRANCH 19 30
ATOM     30  CB  ARG F 169      -7.640  18.723  35.381  1.00 32.99 LIG 0.04  C 
BRANCH 30 31
ATOM     31  CG  ARG F 169      -7.323  18.820  33.897  1.00 34.51 LIG 0.02  C 
BRANCH 31 32
ATOM     32  CD  ARG F 169      -7.637  20.245  33.405  1.00 39.71 LIG 0.14  C 
BRANCH 32 33
ATOM     33  NE  ARG F 169      -6.461  21.103  33.539  1.00 37.23 LIG-0.23  N 
ATOM     34  CZ  ARG F 169      -6.466  22.435  33.505  1.00 33.71 LIG 0.67  C 
ATOM     35  NH2 ARG F 169      -5.314  23.080  33.646  1.00 35.73 LIG-0.23  N 
ATOM     36  NH1 ARG F 169      -7.602  23.120  33.331  1.00 22.18 LIG-0.23  N 
ATOM     37 2HH2 ARG F 169      -5.298  23.939  33.627  1.00 35.73 LIG 0.17  HD
ATOM     38 1HH2 ARG F 169      -4.585  22.638  33.758  1.00 35.73 LIG 0.17  HD
ATOM     39 1HH1 ARG F 169      -8.347  22.701  33.240  1.00 22.18 LIG 0.17  HD
ATOM     40 2HH1 ARG F 169      -7.586  23.980  33.312  1.00 22.18 LIG 0.17  HD
ATOM     41 HE   ARG F 169      -5.701  20.716  33.650  1.00 37.23 LIG 0.18  HD
ENDBRANCH 32 33
ENDBRANCH 31 32
ENDBRANCH 30 31
ENDBRANCH 19 30
ENDBRANCH 17 19
ENDBRANCH 6 15
ENDBRANCH 3 6
ENDBRANCH 1 2
BRANCH 1 42
ATOM     42  CB  ARG F 167      -4.687  19.925  39.594  1.00 34.27 LIG 0.04  C 
BRANCH 42 43
ATOM     43  CG  ARG F 167      -5.249  20.832  40.671  1.00 36.76 LIG 0.02  C 
BRANCH 43 44
ATOM     44  CD  ARG F 167      -6.141  20.058  41.601  1.00 47.53 LIG 0.14  C 
BRANCH 44 45
ATOM     45  NE  ARG F 167      -5.360  19.222  42.503  1.00 46.15 LIG-0.23  N 
ATOM     46 HE   ARG F 167      -4.798  19.605  43.029  1.00 46.15 LIG 0.18  HD
ATOM     47  CZ  ARG F 167      -5.471  17.902  42.554  1.00 54.25 LIG 0.67  C 
ATOM     48  NH2 ARG F 167      -4.731  17.198  43.405  1.00 44.38 LIG-0.23  N 
ATOM     49  NH1 ARG F 167      -6.329  17.291  41.742  1.00 45.80 LIG-0.23  N 
ATOM     50 1HH2 ARG F 167      -4.177  17.598  43.925  1.00 44.38 LIG 0.17  HD
ATOM     51 2HH2 ARG F 167      -4.807  16.342  43.434  1.00 44.38 LIG 0.17  HD
ATOM     52 2HH1 ARG F 167      -6.409  16.435  41.767  1.00 45.80 LIG 0.17  HD
ATOM     53 1HH1 ARG F 167      -6.803  17.751  41.191  1.00 45.80 LIG 0.17  HD
ENDBRANCH 44 45
ENDBRANCH 43 44
ENDBRANCH 42 43
ENDBRANCH 1 42
BRANCH 1 54
ATOM     54  N   ARG F 167      -2.219  19.834  39.774  1.00 32.00 LIG-0.35  N 
ATOM     55 H    ARG F 167      -1.722  19.953  40.466  1.00 32.00 LIG 0.16  HD
ATOM     56  C   GLN F 166      -1.890  20.255  38.554  1.00 42.00 LIG 0.24  C 
ATOM     57 O    GLN F 166      -2.558  20.011  37.543  1.00 37.97 LIG-0.27  OA
BRANCH 56 58
ATOM     58  CA  GLN F 166      -0.607  21.063  38.470  1.00 41.36 LIG 0.18  C 
BRANCH 58 59
ATOM     59  CB  GLN F 166      -0.538  21.758  37.105  1.00 34.92 LIG 0.04  C 
BRANCH 59 60
ATOM     60  CG  GLN F 166      -1.671  22.710  36.815  1.00 32.73 LIG 0.10  C 
BRANCH 60 61
ATOM     61  CD  GLN F 166      -2.286  22.454  35.453  1.00 43.28 LIG 0.21  C 
ATOM     62  NE2 GLN F 166      -1.455  22.451  34.415  1.00 36.91 LIG-0.37  N 
ATOM     63 21HE GLN F 166      -0.615  22.587  34.537  1.00 36.91 LIG 0.16  HD
ATOM     64 22HE GLN F 166      -1.759  22.313  33.622  1.00 36.91 LIG 0.16  HD
ATOM     65 OE1  GLN F 166      -3.501  22.263  35.334  1.00 42.55 LIG-0.27  OA
ENDBRANCH 60 61
ENDBRANCH 59 60
ENDBRANCH 58 59
BRANCH 58 66
ATOM     66  N   GLN F 166       0.525  20.179  38.701  1.00 35.11 LIG-0.35  N 
ATOM     67  C   THR F 165       1.661  20.606  39.245  1.00 35.16 LIG 0.24  C 
ATOM     68 O    THR F 165       1.854  21.797  39.522  1.00 30.91 LIG-0.27  OA
ATOM     69 H    GLN F 166       0.392  19.365  38.455  1.00 35.11 LIG 0.16  HD
BRANCH 67 70
ATOM     70  CA  THR F 165       2.750  19.581  39.529  1.00 44.00 LIG 0.20  C 
BRANCH 70 71
ATOM     71  CB  THR F 165       2.538  18.966  40.916  1.00 46.85 LIG 0.15  C 
ATOM     72  CG2 THR F 165       2.505  20.060  41.985  1.00 37.95 LIG 0.04  C 
BRANCH 71 73
ATOM     73 OG1  THR F 165       1.312  18.222  40.929  1.00 45.14 LIG-0.39  OA
ATOM     74 HG1  THR F 165       0.663  18.753  40.974  1.00 45.14 LIG 0.21  HD
ENDBRANCH 71 73
ENDBRANCH 70 71
BRANCH 70 75
ATOM     75  N   THR F 165       4.088  20.150  39.420  1.00 38.01 LIG-0.34  N 
ATOM     76 H    THR F 165       4.459  20.324  40.175  1.00 38.01 LIG 0.16  HD
ATOM     77  C   THR F 164       4.671  20.374  38.241  1.00 57.69 LIG 0.26  C 
ATOM     78 O    THR F 164       4.123  20.117  37.164  1.00 49.67 LIG-0.27  OA
BRANCH 77 79
ATOM     79  CA  THR F 164       6.076  20.982  38.285  1.00 56.73 LIG 0.43  C 
ATOM     80  N   THR F 164       7.096  19.938  38.215  1.00 65.32 LIG 0.62  N 
BRANCH 79 81
ATOM     81  CB  THR F 164       6.237  22.014  37.136  1.00 58.05 LIG 0.16  C 
ATOM     82  CG2 THR F 164       5.196  23.123  37.270  1.00 51.52 LIG 0.04  C 
BRANCH 81 83
ATOM     83 OG1  THR F 164       7.550  22.589  37.171  1.00 58.15 LIG-0.39  OA
ATOM     84 HG1  THR F 164       8.009  22.278  36.539  1.00 58.15 LIG 0.21  HD
ENDBRANCH 81 83
ENDBRANCH 79 81
ENDBRANCH 77 79
ENDBRANCH 70 75
ENDBRANCH 67 70
ENDBRANCH 58 66
ENDBRANCH 56 58
ENDBRANCH 1 54
TORSDOF 35
ENDMDL
MODEL 2
USER: ADFR SOLUTION from run 64
USER: SCORE 27.598770 LL:  -4.057 LR: -24.221 RR:   0.000 FEB: -13.780
USER: RMSD 6.667311
USER: SEED 63
USER: STATUS no improvement in best in 2 clusters for 5 generations
USER: GENES 37
USER: genes 0 Translation |==|  0.32720 0.44958 0.52805
USER: genes 1 Rotation |==|  0.67149 0.60315 0.69925 0.91261
USER: genes 2 Torsion [N]-CA--C-[N] |==|  0.35122
USER: genes 3 Torsion [C]-N--CA-[C] |==|  0.81761
USER: genes 4 Torsion [N]-CA--CB-[CG] |==|  0.16560
USER: genes 5 Torsion [CA]-CB--CG-[CD] |==|  0.38226
USER: genes 6 Torsion [CB]-CG--CD-[CE] |==|  0.44584
USER: genes 7 Torsion [CG]-CD--CE-[NZ] |==|  0.78772
USER: genes 8 Torsion [CD]-CE--NZ-[HZ3] |==|  0.65354
USER: genes 9 Torsion [N]-CA--C-[N] |==|  0.94698
USER: genes 10 Torsion [C]-N--CA-[C] |==|  0.66025
USER: genes 11 Torsion [N]-CA--C-[N] |==|  0.34221
USER: genes 12 Torsion [C]-N--CA-[C] |==|  0.14577
USER: genes 13 Torsion [N]-CA--C-[O] |==|  0.17909
USER: genes 14 Torsion [N]-CA--CB-[OG] |==|  0.54115
USER: genes 15 Torsion [CA]-CB--OG-[HG] |==|  0.19022
USER: genes 16 Torsion [N]-CA--CB-[CG] |==|  0.85512
USER: genes 17 Torsion [CA]-CB--CG-[CD] |==|  0.59676
USER: genes 18 Torsion [CB]-CG--CD-[NE] |==|  0.67251
USER: genes 19 Torsion [CG]-CD--NE-[CZ] |==|  0.45831
USER: genes 20 Torsion [C]-CA--CB-[CG] |==|  0.35468
USER: genes 21 Torsion [CA]-CB--CG-[CD] |==|  0.12274
USER: genes 22 Torsion [CB]-CG--CD-[NE] |==|  0.76094
USER: genes 23 Torsion [CG]-CD--NE-[CZ] |==|  0.43045
USER: genes 24 Torsion [C]-CA--N-[C] |==|  0.83659
USER: genes 25 Torsion [N]-C--CA-[N] |==|  0.09249
USER: genes 26 Torsion [C]-CA--CB-[CG] |==|  0.45821
USER: genes 27 Torsion [CA]-CB--CG-[CD] |==|  0.59190
USER: genes 28 Torsion [CB]-CG--CD-[NE2] |==|  0.88972
USER: genes 29 Torsion [C]-CA--N-[C] |==|  0.64325
USER: genes 30 Torsion [N]-C--CA-[N] |==|  0.47749
USER: genes 31 Torsion [C]-CA--CB-[CG2] |==|  0.88141
USER: genes 32 Torsion [CA]-CB--OG1-[HG1] |==|  0.05218
USER: genes 33 Torsion [C]-CA--N-[C] |==|  0.78088
USER: genes 34 Torsion [N]-C--CA-[N] |==|  0.31542
USER: genes 35 Torsion [C]-CA--CB-[OG1] |==|  0.09428
USER: genes 36 Torsion [CA]-CB--OG1-[HG1] |==|  0.19241
ROOT
ATOM      1  CA  ARG F 167      -5.488  16.552  39.211  1.00 38.85 LIG 0.18  C 
ENDROOT
BRANCH 1 2
ATOM      2  C   ARG F 167      -4.895  15.286  38.619  1.00 41.97 LIG 0.24  C 
ATOM      3  N   LYS F 168      -4.658  14.297  39.483  1.00 42.42 LIG-0.35  N 
ATOM      4 H    LYS F 168      -4.741  14.361  40.336  1.00 42.42 LIG 0.16  HD
ATOM      5 O    ARG F 167      -4.644  15.206  37.413  1.00 34.60 LIG-0.27  OA
BRANCH 3 6
ATOM      6  CA  LYS F 168      -4.227  12.993  38.999  1.00 39.35 LIG 0.18  C 
BRANCH 6 7
ATOM      7  CB  LYS F 168      -3.835  12.081  40.164  1.00 43.51 LIG 0.04  C 
BRANCH 7 8
ATOM      8  CG  LYS F 168      -4.950  11.823  41.160  1.00 39.69 LIG 0.00  C 
BRANCH 8 9
ATOM      9  CD  LYS F 168      -5.005  10.361  41.596  1.00 48.24 LIG 0.03  C 
BRANCH 9 10
ATOM     10  CE  LYS F 168      -5.772  10.186  42.909  1.00 54.37 LIG 0.23  C 
BRANCH 10 11
ATOM     11  NZ  LYS F 168      -4.992  10.596  44.121  1.00 52.23 LIG-0.08  N 
ATOM     12 HZ3  LYS F 168      -4.961   9.918  44.698  1.00 52.23 LIG 0.27  HD
ATOM     13 HZ1  LYS F 168      -4.164  10.818  43.880  1.00 52.23 LIG 0.27  HD
ATOM     14 HZ2  LYS F 168      -5.386  11.295  44.505  1.00 52.23 LIG 0.27  HD
ENDBRANCH 10 11
ENDBRANCH 9 10
ENDBRANCH 8 9
ENDBRANCH 7 8
ENDBRANCH 6 7
BRANCH 6 15
ATOM     15  C   LYS F 168      -5.343  12.354  38.180  1.00 30.99 LIG 0.24  C 
ATOM     16 O    LYS F 168      -5.114  11.410  37.417  1.00 32.09 LIG-0.27  OA
ATOM     17  N   ARG F 169      -6.564  12.847  38.371  1.00 23.74 LIG-0.35  N 
ATOM     18 H    ARG F 169      -6.757  13.475  38.926  1.00 23.74 LIG 0.16  HD
BRANCH 17 19
ATOM     19  CA  ARG F 169      -7.691  12.323  37.615  1.00 28.77 LIG 0.18  C 
BRANCH 19 20
ATOM     20  C   ARG F 169      -8.366  13.449  36.837  1.00 37.10 LIG 0.24  C 
ATOM     21  N   SER F 170      -8.446  13.262  35.521  1.00 32.48 LIG-0.34  N 
ATOM     22 H    SER F 170      -8.264  12.514  35.138  1.00 32.48 LIG 0.16  HD
ATOM     23 O    ARG F 169      -8.773  14.473  37.404  1.00 33.53 LIG-0.27  OA
BRANCH 21 24
ATOM     24  CA  SER F 170      -8.856  14.318  34.595  1.00 32.11 LIG 0.19  C 
BRANCH 24 25
ATOM     25  C   SER F 170      -8.045  15.608  34.770  1.00 36.47 LIG 0.22  C 
ATOM     26 O    SER F 170      -6.835  15.635  34.539  1.00 35.83 LIG-0.29  OA
ENDBRANCH 24 25
BRANCH 24 27
ATOM     27  CB  SER F 170     -10.350  14.608  34.771  1.00 36.26 LIG 0.20  C 
BRANCH 27 28
ATOM     28 OG   SER F 170     -10.848  15.368  33.676  1.00 19.66 LIG-0.40  OA
ATOM     29 HG   SER F 170     -10.845  14.895  32.982  1.00 19.66 LIG 0.21  HD
ENDBRANCH 27 28
ENDBRANCH 24 27
ENDBRANCH 21 24
ENDBRANCH 19 20
BRANCH 19 30
ATOM     30  CB  ARG F 169      -8.686  11.611  38.541  1.00 32.99 LIG 0.04  C 
BRANCH 30 31
ATOM     31  CG  ARG F 169      -8.123  10.543  39.466  1.00 34.51 LIG 0.02  C 
BRANCH 31 32
ATOM     32  CD  ARG F 169      -9.161   9.417  39.629  1.00 39.71 LIG 0.14  C 
BRANCH 32 33
ATOM     33  NE  ARG F 169      -9.580   9.304  41.025  1.00 37.23 LIG-0.23  N 
ATOM     34  CZ  ARG F 169     -10.649   8.642  41.462  1.00 33.71 LIG 0.67  C 
ATOM     35  NH2 ARG F 169     -10.899   8.624  42.765  1.00 35.73 LIG-0.23  N 
ATOM     36  NH1 ARG F 169     -11.463   8.002  40.614  1.00 22.18 LIG-0.23  N 
ATOM     37 2HH2 ARG F 169     -11.585   8.201  43.066  1.00 35.73 LIG 0.17  HD
ATOM     38 1HH2 ARG F 169     -10.375   9.036  43.309  1.00 35.73 LIG 0.17  HD
ATOM     39 1HH1 ARG F 169     -11.300   8.014  39.770  1.00 22.18 LIG 0.17  HD
ATOM     40 2HH1 ARG F 169     -12.150   7.579  40.914  1.00 22.18 LIG 0.17  HD
ATOM     41 HE   ARG F 169      -9.094   9.699  41.615  1.00 37.23 LIG 0.18  HD
ENDBRANCH 32 33
ENDBRANCH 31 32
ENDBRANCH 30 31
ENDBRANCH 19 30
ENDBRANCH 17 19
ENDBRANCH 6 15
ENDBRANCH 3 6
ENDBRANCH 1 2
BRANCH 1 42
ATOM     42  CB  ARG F 167      -6.937  16.723  38.737  1.00 34.27 LIG 0.04  C 
BRANCH 42 43
ATOM     43  CG  ARG F 167      -7.917  16.937  39.873  1.00 36.76 LIG 0.02  C 
BRANCH 43 44
ATOM     44  CD  ARG F 167      -7.365  17.919  40.868  1.00 47.53 LIG 0.14  C 
BRANCH 44 45
ATOM     45  NE  ARG F 167      -6.521  17.254  41.851  1.00 46.15 LIG-0.23  N 
ATOM     46 HE   ARG F 167      -6.657  16.419  42.006  1.00 46.15 LIG 0.18  HD
ATOM     47  CZ  ARG F 167      -5.555  17.869  42.519  1.00 54.25 LIG 0.67  C 
ATOM     48  NH2 ARG F 167      -4.817  17.201  43.400  1.00 44.38 LIG-0.23  N 
ATOM     49  NH1 ARG F 167      -5.336  19.162  42.300  1.00 45.80 LIG-0.23  N 
ATOM     50 1HH2 ARG F 167      -4.965  16.366  43.539  1.00 44.38 LIG 0.17  HD
ATOM     51 2HH2 ARG F 167      -4.192  17.604  43.830  1.00 44.38 LIG 0.17  HD
ATOM     52 2HH1 ARG F 167      -4.712  19.570  42.727  1.00 45.80 LIG 0.17  HD
ATOM     53 1HH1 ARG F 167      -5.818  19.590  41.731  1.00 45.80 LIG 0.17  HD
ENDBRANCH 44 45
ENDBRANCH 43 44
ENDBRANCH 42 43
ENDBRANCH 1 42
BRANCH 1 54
ATOM     54  N   ARG F 167      -4.655  17.680  38.823  1.00 32.00 LIG-0.35  N 
ATOM     55 H    ARG F 167      -5.073  18.287  38.381  1.00 32.00 LIG 0.16  HD
ATOM     56  C   GLN F 166      -3.361  17.757  39.131  1.00 42.00 LIG 0.24  C 
ATOM     57 O    GLN F 166      -2.776  16.933  39.840  1.00 37.97 LIG-0.27  OA
BRANCH 56 58
ATOM     58  CA  GLN F 166      -2.628  18.957  38.555  1.00 41.36 LIG 0.18  C 
BRANCH 58 59
ATOM     59  CB  GLN F 166      -1.393  19.252  39.414  1.00 34.92 LIG 0.04  C 
BRANCH 59 60
ATOM     60  CG  GLN F 166      -0.381  20.174  38.781  1.00 32.73 LIG 0.10  C 
BRANCH 60 61
ATOM     61  CD  GLN F 166       1.035  19.826  39.198  1.00 43.28 LIG 0.21  C 
ATOM     62  NE2 GLN F 166       1.213  19.475  40.467  1.00 36.91 LIG-0.37  N 
ATOM     63 21HE GLN F 166       0.542  19.451  41.005  1.00 36.91 LIG 0.16  HD
ATOM     64 22HE GLN F 166       1.999  19.271  40.751  1.00 36.91 LIG 0.16  HD
ATOM     65 OE1  GLN F 166       1.963  19.877  38.384  1.00 42.55 LIG-0.27  OA
ENDBRANCH 60 61
ENDBRANCH 59 60
ENDBRANCH 58 59
BRANCH 58 66
ATOM     66  N   GLN F 166      -3.544  20.087  38.494  1.00 35.11 LIG-0.35  N 
ATOM     67  C   THR F 165      -3.726  20.793  37.383  1.00 35.16 LIG 0.24  C 
ATOM     68 O    THR F 165      -3.074  20.583  36.351  1.00 30.91 LIG-0.27  OA
ATOM     69 H    GLN F 166      -3.950  20.251  39.234  1.00 35.11 LIG 0.16  HD
BRANCH 67 70
ATOM     70  CA  THR F 165      -4.775  21.897  37.399  1.00 44.00 LIG 0.20  C 
BRANCH 70 71
ATOM     71  CB  THR F 165      -6.167  21.289  37.599  1.00 46.85 LIG 0.15  C 
ATOM     72  CG2 THR F 165      -6.329  20.031  36.743  1.00 37.95 LIG 0.04  C 
BRANCH 71 73
ATOM     73 OG1  THR F 165      -6.359  20.974  38.985  1.00 45.14 LIG-0.39  OA
ATOM     74 HG1  THR F 165      -5.805  21.402  39.449  1.00 45.14 LIG 0.21  HD
ENDBRANCH 71 73
ENDBRANCH 70 71
BRANCH 70 75
ATOM     75  N   THR F 165      -4.741  22.711  36.190  1.00 38.01 LIG-0.34  N 
ATOM     76 H    THR F 165      -5.352  22.517  35.617  1.00 38.01 LIG 0.16  HD
ATOM     77  C   THR F 164      -3.833  23.671  36.005  1.00 57.69 LIG 0.26  C 
ATOM     78 O    THR F 164      -2.962  23.938  36.840  1.00 49.67 LIG-0.27  OA
BRANCH 77 79
ATOM     79  CA  THR F 164      -3.919  24.439  34.682  1.00 56.73 LIG 0.43  C 
ATOM     80  N   THR F 164      -4.289  25.833  34.914  1.00 65.32 LIG 0.62  N 
BRANCH 79 81
ATOM     81  CB  THR F 164      -2.570  24.326  33.923  1.00 58.05 LIG 0.16  C 
ATOM     82  CG2 THR F 164      -1.611  25.424  34.378  1.00 51.52 LIG 0.04  C 
BRANCH 81 83
ATOM     83 OG1  THR F 164      -1.973  23.044  34.166  1.00 58.15 LIG-0.39  OA
ATOM     84 HG1  THR F 164      -2.428  22.447  33.789  1.00 58.15 LIG 0.21  HD
ENDBRANCH 81 83
ENDBRANCH 79 81
ENDBRANCH 77 79
ENDBRANCH 70 75
ENDBRANCH 67 70
ENDBRANCH 58 66
ENDBRANCH 56 58
ENDBRANCH 1 54
TORSDOF 35
ENDMDL
MODEL 3
USER: ADFR SOLUTION from run 9
USER: SCORE 24.927794 LL:  -3.645 LR: -23.898 RR:   0.000 FEB: -13.458
USER: RMSD 6.176291
USER: SEED 736038
USER: STATUS searching
USER: GENES 37
USER: genes 0 Translation |==|  0.46343 0.59313 0.45645
USER: genes 1 Rotation |==|  0.78666 0.87417 0.33712 0.53590
USER: genes 2 Torsion [N]-CA--C-[N] |==|  0.60518
USER: genes 3 Torsion [C]-N--CA-[C] |==|  0.21270
USER: genes 4 Torsion [N]-CA--CB-[CG] |==|  0.42819
USER: genes 5 Torsion [CA]-CB--CG-[CD] |==|  0.21394
USER: genes 6 Torsion [CB]-CG--CD-[CE] |==|  0.04976
USER: genes 7 Torsion [CG]-CD--CE-[NZ] |==|  0.70018
USER: genes 8 Torsion [CD]-CE--NZ-[HZ3] |==|  0.80352
USER: genes 9 Torsion [N]-CA--C-[N] |==|  0.37453
USER: genes 10 Torsion [C]-N--CA-[C] |==|  0.79190
USER: genes 11 Torsion [N]-CA--C-[N] |==|  0.29075
USER: genes 12 Torsion [C]-N--CA-[C] |==|  0.72640
USER: genes 13 Torsion [N]-CA--C-[O] |==|  0.03436
USER: genes 14 Torsion [N]-CA--CB-[OG] |==|  0.13367
USER: genes 15 Torsion [CA]-CB--OG-[HG] |==|  0.79115
USER: genes 16 Torsion [N]-CA--CB-[CG] |==|  0.54320
USER: genes 17 Torsion [CA]-CB--CG-[CD] |==|  0.65484
USER: genes 18 Torsion [CB]-CG--CD-[NE] |==|  0.84144
USER: genes 19 Torsion [CG]-CD--NE-[CZ] |==|  0.32153
USER: genes 20 Torsion [C]-CA--CB-[CG] |==|  0.30974
USER: genes 21 Torsion [CA]-CB--CG-[CD] |==|  0.50435
USER: genes 22 Torsion [CB]-CG--CD-[NE] |==|  0.29233
USER: genes 23 Torsion [CG]-CD--NE-[CZ] |==|  0.24098
USER: genes 24 Torsion [C]-CA--N-[C] |==|  0.66599
USER: genes 25 Torsion [N]-C--CA-[N] |==|  0.41661
USER: genes 26 Torsion [C]-CA--CB-[CG] |==|  0.05671
USER: genes 27 Torsion [CA]-CB--CG-[CD] |==|  0.64829
USER: genes 28 Torsion [CB]-CG--CD-[NE2] |==|  0.04804
USER: genes 29 Torsion [C]-CA--N-[C] |==|  0.83333
USER: genes 30 Torsion [N]-C--CA-[N] |==|  0.20721
USER: genes 31 Torsion [C]-CA--CB-[CG2] |==|  0.28184
USER: genes 32 Torsion [CA]-CB--OG1-[HG1] |==|  0.03123
USER: genes 33 Torsion [C]-CA--N-[C] |==|  0.66902
USER: genes 34 Torsion [N]-C--CA-[N] |==|  0.87311
USER: genes 35 Torsion [C]-CA--CB-[OG1] |==|  0.02514
USER: genes 36 Torsion [CA]-CB--OG1-[HG1] |==|  0.17129
ROOT
ATOM      1  CA  ARG F 167      -2.116  20.535  37.815  1.00 38.85 LIG 0.18  C 
ENDROOT
BRANCH 1 2
ATOM      2  C   ARG F 167      -3.217  19.596  38.275  1.00 41.97 LIG 0.24  C 
ATOM      3  N   LYS F 168      -2.931  18.848  39.342  1.00 42.42 LIG-0.35  N 
ATOM      4 H    LYS F 168      -2.160  18.806  39.720  1.00 42.42 LIG 0.16  HD
ATOM      5 O    ARG F 167      -4.294  19.538  37.676  1.00 34.60 LIG-0.27  OA
BRANCH 3 6
ATOM      6  CA  LYS F 168      -3.964  18.021  39.952  1.00 39.35 LIG 0.18  C 
BRANCH 6 7
ATOM      7  CB  LYS F 168      -5.269  18.806  40.108  1.00 43.51 LIG 0.04  C 
BRANCH 7 8
ATOM      8  CG  LYS F 168      -6.517  17.946  40.135  1.00 39.69 LIG 0.00  C 
BRANCH 8 9
ATOM      9  CD  LYS F 168      -6.711  17.253  41.482  1.00 48.24 LIG 0.03  C 
BRANCH 9 10
ATOM     10  CE  LYS F 168      -5.884  17.915  42.587  1.00 54.37 LIG 0.23  C 
BRANCH 10 11
ATOM     11  NZ  LYS F 168      -4.712  17.096  43.034  1.00 52.23 LIG-0.08  N 
ATOM     12 HZ3  LYS F 168      -5.000  16.387  43.488  1.00 52.23 LIG 0.27  HD
ATOM     13 HZ1  LYS F 168      -4.250  16.825  42.322  1.00 52.23 LIG 0.27  HD
ATOM     14 HZ2  LYS F 168      -4.186  17.589  43.557  1.00 52.23 LIG 0.27  HD
ENDBRANCH 10 11
ENDBRANCH 9 10
ENDBRANCH 8 9
ENDBRANCH 7 8
ENDBRANCH 6 7
BRANCH 6 15
ATOM     15  C   LYS F 168      -4.195  16.777  39.102  1.00 30.99 LIG 0.24  C 
ATOM     16 O    LYS F 168      -4.259  16.849  37.870  1.00 32.09 LIG-0.27  OA
ATOM     17  N   ARG F 169      -4.280  15.625  39.762  1.00 23.74 LIG-0.35  N 
ATOM     18 H    ARG F 169      -4.198  15.543  40.614  1.00 23.74 LIG 0.16  HD
BRANCH 17 19
ATOM     19  CA  ARG F 169      -4.529  14.385  39.042  1.00 28.77 LIG 0.18  C 
BRANCH 19 20
ATOM     20  C   ARG F 169      -5.991  14.316  38.612  1.00 37.10 LIG 0.24  C 
ATOM     21  N   SER F 170      -6.214  14.547  37.320  1.00 32.48 LIG-0.34  N 
ATOM     22 H    SER F 170      -5.587  14.596  36.733  1.00 32.48 LIG 0.16  HD
ATOM     23 O    ARG F 169      -6.895  14.094  39.428  1.00 33.53 LIG-0.27  OA
BRANCH 21 24
ATOM     24  CA  SER F 170      -7.556  14.741  36.770  1.00 32.11 LIG 0.19  C 
BRANCH 24 25
ATOM     25  C   SER F 170      -8.125  13.469  36.129  1.00 36.47 LIG 0.22  C 
ATOM     26 O    SER F 170      -7.586  12.375  36.300  1.00 35.83 LIG-0.29  OA
ENDBRANCH 24 25
BRANCH 24 27
ATOM     27  CB  SER F 170      -7.535  15.882  35.747  1.00 36.26 LIG 0.20  C 
BRANCH 27 28
ATOM     28 OG   SER F 170      -6.458  15.718  34.832  1.00 19.66 LIG-0.40  OA
ATOM     29 HG   SER F 170      -5.736  15.923  35.210  1.00 19.66 LIG 0.21  HD
ENDBRANCH 27 28
ENDBRANCH 24 27
ENDBRANCH 21 24
ENDBRANCH 19 20
BRANCH 19 30
ATOM     30  CB  ARG F 169      -4.140  13.172  39.897  1.00 32.99 LIG 0.04  C 
BRANCH 30 31
ATOM     31  CG  ARG F 169      -3.994  11.840  39.177  1.00 34.51 LIG 0.02  C 
BRANCH 31 32
ATOM     32  CD  ARG F 169      -4.916  10.802  39.843  1.00 39.71 LIG 0.14  C 
BRANCH 32 33
ATOM     33  NE  ARG F 169      -4.604  10.678  41.266  1.00 37.23 LIG-0.23  N 
ATOM     34  CZ  ARG F 169      -5.423  10.991  42.268  1.00 33.71 LIG 0.67  C 
ATOM     35  NH2 ARG F 169      -5.000  10.819  43.514  1.00 35.73 LIG-0.23  N 
ATOM     36  NH1 ARG F 169      -6.651  11.471  42.037  1.00 22.18 LIG-0.23  N 
ATOM     37 2HH2 ARG F 169      -5.515  11.016  44.175  1.00 35.73 LIG 0.17  HD
ATOM     38 1HH2 ARG F 169      -4.211  10.511  43.661  1.00 35.73 LIG 0.17  HD
ATOM     39 1HH1 ARG F 169      -6.924  11.581  41.229  1.00 22.18 LIG 0.17  HD
ATOM     40 2HH1 ARG F 169      -7.166  11.669  42.696  1.00 22.18 LIG 0.17  HD
ATOM     41 HE   ARG F 169      -3.826  10.377  41.474  1.00 37.23 LIG 0.18  HD
ENDBRANCH 32 33
ENDBRANCH 31 32
ENDBRANCH 30 31
ENDBRANCH 19 30
ENDBRANCH 17 19
ENDBRANCH 6 15
ENDBRANCH 3 6
ENDBRANCH 1 2
BRANCH 1 42
ATOM     42  CB  ARG F 167      -1.111  20.762  38.951  1.00 34.27 LIG 0.04  C 
BRANCH 42 43
ATOM     43  CG  ARG F 167       0.246  20.145  38.682  1.00 36.76 LIG 0.02  C 
BRANCH 43 44
ATOM     44  CD  ARG F 167       1.169  20.369  39.847  1.00 47.53 LIG 0.14  C 
BRANCH 44 45
ATOM     45  NE  ARG F 167       1.346  19.147  40.620  1.00 46.15 LIG-0.23  N 
ATOM     46 HE   ARG F 167       0.830  19.013  41.295  1.00 46.15 LIG 0.18  HD
ATOM     47  CZ  ARG F 167       2.261  18.231  40.335  1.00 54.25 LIG 0.67  C 
ATOM     48  NH2 ARG F 167       2.367  17.133  41.079  1.00 44.38 LIG-0.23  N 
ATOM     49  NH1 ARG F 167       3.073  18.423  39.301  1.00 45.80 LIG-0.23  N 
ATOM     50 1HH2 ARG F 167       1.840  17.016  41.748  1.00 44.38 LIG 0.17  HD
ATOM     51 2HH2 ARG F 167       2.961  16.542  40.890  1.00 44.38 LIG 0.17  HD
ATOM     52 2HH1 ARG F 167       3.670  17.835  39.107  1.00 45.80 LIG 0.17  HD
ATOM     53 1HH1 ARG F 167       3.003  19.136  38.825  1.00 45.80 LIG 0.17  HD
ENDBRANCH 44 45
ENDBRANCH 43 44
ENDBRANCH 42 43
ENDBRANCH 1 42
BRANCH 1 54
ATOM     54  N   ARG F 167      -2.724  21.781  37.373  1.00 32.00 LIG-0.35  N 
ATOM     55 H    ARG F 167      -3.177  22.184  37.984  1.00 32.00 LIG 0.16  HD
ATOM     56  C   GLN F 166      -2.587  22.249  36.134  1.00 42.00 LIG 0.24  C 
ATOM     57 O    GLN F 166      -1.868  21.721  35.279  1.00 37.97 LIG-0.27  OA
BRANCH 56 58
ATOM     58  CA  GLN F 166      -3.376  23.509  35.825  1.00 41.36 LIG 0.18  C 
BRANCH 58 59
ATOM     59  CB  GLN F 166      -4.787  23.121  35.368  1.00 34.92 LIG 0.04  C 
BRANCH 59 60
ATOM     60  CG  GLN F 166      -5.231  21.738  35.772  1.00 32.73 LIG 0.10  C 
BRANCH 60 61
ATOM     61  CD  GLN F 166      -5.709  20.929  34.581  1.00 43.28 LIG 0.21  C 
ATOM     62  NE2 GLN F 166      -5.351  21.371  33.380  1.00 36.91 LIG-0.37  N 
ATOM     63 21HE GLN F 166      -4.870  22.080  33.308  1.00 36.91 LIG 0.16  HD
ATOM     64 22HE GLN F 166      -5.600  20.947  32.674  1.00 36.91 LIG 0.16  HD
ATOM     65 OE1  GLN F 166      -6.398  19.916  34.741  1.00 42.55 LIG-0.27  OA
ENDBRANCH 60 61
ENDBRANCH 59 60
ENDBRANCH 58 59
BRANCH 58 66
ATOM     66  N   GLN F 166      -2.661  24.282  34.820  1.00 35.11 LIG-0.35  N 
ATOM     67  C   THR F 165      -1.429  24.740  35.022  1.00 35.16 LIG 0.24  C 
ATOM     68 O    THR F 165      -0.841  24.603  36.102  1.00 30.91 LIG-0.27  OA
ATOM     69 H    GLN F 166      -3.104  24.412  34.095  1.00 35.11 LIG 0.16  HD
BRANCH 67 70
ATOM     70  CA  THR F 165      -0.734  25.458  33.872  1.00 44.00 LIG 0.20  C 
BRANCH 70 71
ATOM     71  CB  THR F 165       0.777  25.504  34.124  1.00 46.85 LIG 0.15  C 
ATOM     72  CG2 THR F 165       1.489  24.436  33.293  1.00 37.95 LIG 0.04  C 
BRANCH 71 73
ATOM     73 OG1  THR F 165       1.278  26.806  33.793  1.00 45.14 LIG-0.39  OA
ATOM     74 HG1  THR F 165       0.635  27.333  33.675  1.00 45.14 LIG 0.21  HD
ENDBRANCH 71 73
ENDBRANCH 70 71
BRANCH 70 75
ATOM     75  N   THR F 165      -1.260  26.801  33.660  1.00 38.01 LIG-0.34  N 
ATOM     76 H    THR F 165      -1.167  27.326  34.335  1.00 38.01 LIG 0.16  HD
ATOM     77  C   THR F 164      -1.831  27.167  32.512  1.00 57.69 LIG 0.26  C 
ATOM     78 O    THR F 164      -1.956  26.400  31.552  1.00 49.67 LIG-0.27  OA
BRANCH 77 79
ATOM     79  CA  THR F 164      -2.342  28.610  32.439  1.00 56.73 LIG 0.43  C 
ATOM     80  N   THR F 164      -3.084  28.960  33.648  1.00 65.32 LIG 0.62  N 
BRANCH 79 81
ATOM     81  CB  THR F 164      -1.150  29.576  32.202  1.00 58.05 LIG 0.16  C 
ATOM     82  CG2 THR F 164      -0.913  30.441  33.438  1.00 51.52 LIG 0.04  C 
BRANCH 81 83
ATOM     83 OG1  THR F 164       0.040  28.828  31.912  1.00 58.15 LIG-0.39  OA
ATOM     84 HG1  THR F 164      -0.074  28.383  31.209  1.00 58.15 LIG 0.21  HD
ENDBRANCH 81 83
ENDBRANCH 79 81
ENDBRANCH 77 79
ENDBRANCH 70 75
ENDBRANCH 67 70
ENDBRANCH 58 66
ENDBRANCH 56 58
ENDBRANCH 1 54
TORSDOF 35
ENDMDL
MODEL 4
USER: ADFR SOLUTION from run 130
USER: SCORE 26.630623 LL:  -3.937 LR: -23.847 RR:   0.000 FEB: -13.406
USER: RMSD 12.252298
USER: SEED 129
USER: STATUS no improvement in best in 6 clusters for 5 generations
USER: GENES 37
USER: genes 0 Translation |==|  0.38033 0.45943 0.50623
USER: genes 1 Rotation |==|  0.17276 0.78606 0.28228 0.61697
USER: genes 2 Torsion [N]-CA--C-[N] |==|  0.44577
USER: genes 3 Torsion [C]-N--CA-[C] |==|  0.72799
USER: genes 4 Torsion [N]-CA--CB-[CG] |==|  0.52904
USER: genes 5 Torsion [CA]-CB--CG-[CD] |==|  0.31049
USER: genes 6 Torsion [CB]-CG--CD-[CE] |==|  0.72650
USER: genes 7 Torsion [CG]-CD--CE-[NZ] |==|  0.04636
USER: genes 8 Torsion [CD]-CE--NZ-[HZ3] |==|  0.08221
USER: genes 9 Torsion [N]-CA--C-[N] |==|  0.38772
USER: genes 10 Torsion [C]-N--CA-[C] |==|  0.83183
USER: genes 11 Torsion [N]-CA--C-[N] |==|  0.93630
USER: genes 12 Torsion [C]-N--CA-[C] |==|  0.85174
USER: genes 13 Torsion [N]-CA--C-[O] |==|  0.26719
USER: genes 14 Torsion [N]-CA--CB-[OG] |==|  0.22852
USER: genes 15 Torsion [CA]-CB--OG-[HG] |==|  0.47063
USER: genes 16 Torsion [N]-CA--CB-[CG] |==|  0.60806
USER: genes 17 Torsion [CA]-CB--CG-[CD] |==|  0.08833
USER: genes 18 Torsion [CB]-CG--CD-[NE] |==|  0.19683
USER: genes 19 Torsion [CG]-CD--NE-[CZ] |==|  0.33067
USER: genes 20 Torsion [C]-CA--CB-[CG] |==|  0.03205
USER: genes 21 Torsion [CA]-CB--CG-[CD] |==|  0.67633
USER: genes 22 Torsion [CB]-CG--CD-[NE] |==|  0.21077
USER: genes 23 Torsion [CG]-CD--NE-[CZ] |==|  0.74251
USER: genes 24 Torsion [C]-CA--N-[C] |==|  0.62263
USER: genes 25 Torsion [N]-C--CA-[N] |==|  0.21048
USER: genes 26 Torsion [C]-CA--CB-[CG] |==|  0.44761
USER: genes 27 Torsion [CA]-CB--CG-[CD] |==|  0.17400
USER: genes 28 Torsion [CB]-CG--CD-[NE2] |==|  0.24084
USER: genes 29 Torsion [C]-CA--N-[C] |==|  0.18889
USER: genes 30 Torsion [N]-C--CA-[N] |==|  0.90118
USER: genes 31 Torsion [C]-CA--CB-[CG2] |==|  0.57385
USER: genes 32 Torsion [CA]-CB--OG1-[HG1] |==|  0.84025
USER: genes 33 Torsion [C]-CA--N-[C] |==|  0.76214
USER: genes 34 Torsion [N]-C--CA-[N] |==|  0.13388
USER: genes 35 Torsion [C]-CA--CB-[OG1] |==|  0.12350
USER: genes 36 Torsion [CA]-CB--OG1-[HG1] |==|  0.62851
ROOT
ATOM      1  CA  ARG F 167      -4.173  16.825  38.785  1.00 38.85 LIG 0.18  C 
ENDROOT
BRANCH 1 2
ATOM      2  C   ARG F 167      -3.047  17.631  39.408  1.00 41.97 LIG 0.24  C 
ATOM      3  N   LYS F 168      -2.552  18.614  38.654  1.00 42.42 LIG-0.35  N 
ATOM      4 H    LYS F 168      -2.768  18.760  37.834  1.00 42.42 LIG 0.16  HD
ATOM      5 O    ARG F 167      -2.625  17.365  40.537  1.00 34.60 LIG-0.27  OA
BRANCH 3 6
ATOM      6  CA  LYS F 168      -1.572  19.538  39.209  1.00 39.35 LIG 0.18  C 
BRANCH 6 7
ATOM      7  CB  LYS F 168      -0.484  19.860  38.183  1.00 43.51 LIG 0.04  C 
BRANCH 7 8
ATOM      8  CG  LYS F 168       0.707  20.611  38.749  1.00 39.69 LIG 0.00  C 
BRANCH 8 9
ATOM      9  CD  LYS F 168       1.973  19.758  38.757  1.00 48.24 LIG 0.03  C 
BRANCH 9 10
ATOM     10  CE  LYS F 168       2.234  19.137  40.131  1.00 54.37 LIG 0.23  C 
BRANCH 10 11
ATOM     11  NZ  LYS F 168       1.039  19.152  41.035  1.00 52.23 LIG-0.08  N 
ATOM     12 HZ3  LYS F 168       0.296  19.112  40.546  1.00 52.23 LIG 0.27  HD
ATOM     13 HZ1  LYS F 168       1.072  18.452  41.583  1.00 52.23 LIG 0.27  HD
ATOM     14 HZ2  LYS F 168       1.038  19.903  41.514  1.00 52.23 LIG 0.27  HD
ENDBRANCH 10 11
ENDBRANCH 9 10
ENDBRANCH 8 9
ENDBRANCH 7 8
ENDBRANCH 6 7
BRANCH 6 15
ATOM     15  C   LYS F 168      -2.269  20.816  39.661  1.00 30.99 LIG 0.24  C 
ATOM     16 O    LYS F 168      -3.195  21.304  39.004  1.00 32.09 LIG-0.27  OA
ATOM     17  N   ARG F 169      -1.846  21.339  40.809  1.00 23.74 LIG-0.35  N 
ATOM     18 H    ARG F 169      -1.232  20.998  41.305  1.00 23.74 LIG 0.16  HD
BRANCH 17 19
ATOM     19  CA  ARG F 169      -2.428  22.575  41.309  1.00 28.77 LIG 0.18  C 
BRANCH 19 20
ATOM     20  C   ARG F 169      -2.197  23.703  40.308  1.00 37.10 LIG 0.24  C 
ATOM     21  N   SER F 170      -1.172  23.524  39.478  1.00 32.48 LIG-0.34  N 
ATOM     22 H    SER F 170      -0.748  22.779  39.403  1.00 32.48 LIG 0.16  HD
ATOM     23 O    ARG F 169      -2.903  24.721  40.307  1.00 33.53 LIG-0.27  OA
BRANCH 21 24
ATOM     24  CA  SER F 170      -0.665  24.585  38.606  1.00 32.11 LIG 0.19  C 
BRANCH 24 25
ATOM     25  C   SER F 170      -1.761  25.217  37.739  1.00 36.47 LIG 0.22  C 
ATOM     26 O    SER F 170      -2.325  26.255  38.086  1.00 35.83 LIG-0.29  OA
ENDBRANCH 24 25
BRANCH 24 27
ATOM     27  CB  SER F 170       0.454  24.031  37.718  1.00 36.26 LIG 0.20  C 
BRANCH 27 28
ATOM     28 OG   SER F 170      -0.087  23.360  36.585  1.00 19.66 LIG-0.40  OA
ATOM     29 HG   SER F 170       0.528  23.191  36.039  1.00 19.66 LIG 0.21  HD
ENDBRANCH 27 28
ENDBRANCH 24 27
ENDBRANCH 21 24
ENDBRANCH 19 20
BRANCH 19 30
ATOM     30  CB  ARG F 169      -1.857  22.927  42.689  1.00 32.99 LIG 0.04  C 
BRANCH 30 31
ATOM     31  CG  ARG F 169      -2.825  23.507  43.708  1.00 34.51 LIG 0.02  C 
BRANCH 31 32
ATOM     32  CD  ARG F 169      -4.227  22.915  43.468  1.00 39.71 LIG 0.14  C 
BRANCH 32 33
ATOM     33  NE  ARG F 169      -4.260  21.506  43.856  1.00 37.23 LIG-0.23  N 
ATOM     34  CZ  ARG F 169      -5.039  20.981  44.800  1.00 33.71 LIG 0.67  C 
ATOM     35  NH2 ARG F 169      -4.961  19.678  45.039  1.00 35.73 LIG-0.23  N 
ATOM     36  NH1 ARG F 169      -5.888  21.741  45.501  1.00 22.18 LIG-0.23  N 
ATOM     37 2HH2 ARG F 169      -5.457  19.321  45.644  1.00 35.73 LIG 0.17  HD
ATOM     38 1HH2 ARG F 169      -4.415  19.190  44.587  1.00 35.73 LIG 0.17  HD
ATOM     39 1HH1 ARG F 169      -5.938  22.585  45.345  1.00 22.18 LIG 0.17  HD
ATOM     40 2HH1 ARG F 169      -6.384  21.386  46.107  1.00 22.18 LIG 0.17  HD
ATOM     41 HE   ARG F 169      -3.731  20.970  43.440  1.00 37.23 LIG 0.18  HD
ENDBRANCH 32 33
ENDBRANCH 31 32
ENDBRANCH 30 31
ENDBRANCH 19 30
ENDBRANCH 17 19
ENDBRANCH 6 15
ENDBRANCH 3 6
ENDBRANCH 1 2
BRANCH 1 42
ATOM     42  CB  ARG F 167      -5.482  17.622  38.845  1.00 34.27 LIG 0.04  C 
BRANCH 42 43
ATOM     43  CG  ARG F 167      -5.282  19.073  39.234  1.00 36.76 LIG 0.02  C 
BRANCH 43 44
ATOM     44  CD  ARG F 167      -5.964  19.368  40.540  1.00 47.53 LIG 0.14  C 
BRANCH 44 45
ATOM     45  NE  ARG F 167      -5.205  18.831  41.661  1.00 46.15 LIG-0.23  N 
ATOM     46 HE   ARG F 167      -4.586  19.319  42.005  1.00 46.15 LIG 0.18  HD
ATOM     47  CZ  ARG F 167      -5.420  17.629  42.179  1.00 54.25 LIG 0.67  C 
ATOM     48  NH2 ARG F 167      -4.693  17.201  43.207  1.00 44.38 LIG-0.23  N 
ATOM     49  NH1 ARG F 167      -6.367  16.857  41.655  1.00 45.80 LIG-0.23  N 
ATOM     50 1HH2 ARG F 167      -4.081  17.704  43.539  1.00 44.38 LIG 0.17  HD
ATOM     51 2HH2 ARG F 167      -4.836  16.421  43.539  1.00 44.38 LIG 0.17  HD
ATOM     52 2HH1 ARG F 167      -6.514  16.076  41.983  1.00 45.80 LIG 0.17  HD
ATOM     53 1HH1 ARG F 167      -6.832  17.138  40.989  1.00 45.80 LIG 0.17  HD
ENDBRANCH 44 45
ENDBRANCH 43 44
ENDBRANCH 42 43
ENDBRANCH 1 42
BRANCH 1 54
ATOM     54  N   ARG F 167      -4.279  15.556  39.489  1.00 32.00 LIG-0.35  N 
ATOM     55 H    ARG F 167      -4.232  15.627  40.345  1.00 32.00 LIG 0.16  HD
ATOM     56  C   GLN F 166      -4.435  14.394  38.857  1.00 42.00 LIG 0.24  C 
ATOM     57 O    GLN F 166      -4.591  14.295  37.636  1.00 37.97 LIG-0.27  OA
BRANCH 56 58
ATOM     58  CA  GLN F 166      -4.423  13.164  39.748  1.00 41.36 LIG 0.18  C 
BRANCH 58 59
ATOM     59  CB  GLN F 166      -4.137  11.925  38.893  1.00 34.92 LIG 0.04  C 
BRANCH 59 60
ATOM     60  CG  GLN F 166      -3.658  10.717  39.658  1.00 32.73 LIG 0.10  C 
BRANCH 60 61
ATOM     61  CD  GLN F 166      -4.700  10.225  40.644  1.00 43.28 LIG 0.21  C 
ATOM     62  NE2 GLN F 166      -5.607   9.373  40.176  1.00 36.91 LIG-0.37  N 
ATOM     63 21HE GLN F 166      -5.580   9.126  39.353  1.00 36.91 LIG 0.16  HD
ATOM     64 22HE GLN F 166      -6.219   9.068  40.698  1.00 36.91 LIG 0.16  HD
ATOM     65 OE1  GLN F 166      -4.692  10.612  41.817  1.00 42.55 LIG-0.27  OA
ENDBRANCH 60 61
ENDBRANCH 59 60
ENDBRANCH 58 59
BRANCH 58 66
ATOM     66  N   GLN F 166      -5.697  13.074  40.447  1.00 35.11 LIG-0.35  N 
ATOM     67  C   THR F 165      -6.836  12.811  39.815  1.00 35.16 LIG 0.24  C 
ATOM     68 O    THR F 165      -6.899  12.700  38.583  1.00 30.91 LIG-0.27  OA
ATOM     69 H    GLN F 166      -5.642  13.205  41.296  1.00 35.11 LIG 0.16  HD
BRANCH 67 70
ATOM     70  CA  THR F 165      -8.098  12.646  40.651  1.00 44.00 LIG 0.20  C 
BRANCH 70 71
ATOM     71  CB  THR F 165      -8.764  14.010  40.865  1.00 46.85 LIG 0.15  C 
ATOM     72  CG2 THR F 165      -9.580  14.009  42.158  1.00 37.95 LIG 0.04  C 
BRANCH 71 73
ATOM     73 OG1  THR F 165      -7.758  15.032  40.914  1.00 45.14 LIG-0.39  OA
ATOM     74 HG1  THR F 165      -7.211  14.858  41.527  1.00 45.14 LIG 0.21  HD
ENDBRANCH 71 73
ENDBRANCH 70 71
BRANCH 70 75
ATOM     75  N   THR F 165      -7.834  11.999  41.931  1.00 38.01 LIG-0.34  N 
ATOM     76 H    THR F 165      -7.703  12.546  42.581  1.00 38.01 LIG 0.16  HD
ATOM     77  C   THR F 164      -7.803  10.672  42.063  1.00 57.69 LIG 0.26  C 
ATOM     78 O    THR F 164      -7.995   9.901  41.117  1.00 49.67 LIG-0.27  OA
BRANCH 77 79
ATOM     79  CA  THR F 164      -7.507  10.138  43.468  1.00 56.73 LIG 0.43  C 
ATOM     80  N   THR F 164      -8.340  10.807  44.463  1.00 65.32 LIG 0.62  N 
BRANCH 79 81
ATOM     81  CB  THR F 164      -7.708   8.600  43.496  1.00 58.05 LIG 0.16  C 
ATOM     82  CG2 THR F 164      -9.197   8.260  43.527  1.00 51.52 LIG 0.04  C 
BRANCH 81 83
ATOM     83 OG1  THR F 164      -7.109   8.003  42.338  1.00 58.15 LIG-0.39  OA
ATOM     84 HG1  THR F 164      -7.644   7.451  41.999  1.00 58.15 LIG 0.21  HD
ENDBRANCH 81 83
ENDBRANCH 79 81
ENDBRANCH 77 79
ENDBRANCH 70 75
ENDBRANCH 67 70
ENDBRANCH 58 66
ENDBRANCH 56 58
ENDBRANCH 1 54
TORSDOF 35
ENDMDL
MODEL 5
USER: ADFR SOLUTION from run 175
USER: SCORE 27.223703 LL:  -4.736 LR: -23.602 RR:   0.000 FEB: -13.162
USER: RMSD 7.398887
USER: SEED 174
USER: STATUS no improvement in best in 3 clusters for 5 generations
USER: GENES 37
USER: genes 0 Translation |==|  0.33962 0.45606 0.53962
USER: genes 1 Rotation |==|  0.70164 0.67017 0.67006 0.88918
USER: genes 2 Torsion [N]-CA--C-[N] |==|  0.40899
USER: genes 3 Torsion [C]-N--CA-[C] |==|  0.79815
USER: genes 4 Torsion [N]-CA--CB-[CG] |==|  0.28031
USER: genes 5 Torsion [CA]-CB--CG-[CD] |==|  0.69561
USER: genes 6 Torsion [CB]-CG--CD-[CE] |==|  0.67153
USER: genes 7 Torsion [CG]-CD--CE-[NZ] |==|  0.40814
USER: genes 8 Torsion [CD]-CE--NZ-[HZ3] |==|  0.81002
USER: genes 9 Torsion [N]-CA--C-[N] |==|  0.97554
USER: genes 10 Torsion [C]-N--CA-[C] |==|  0.18443
USER: genes 11 Torsion [N]-CA--C-[N] |==|  0.08076
USER: genes 12 Torsion [C]-N--CA-[C] |==|  0.14416
USER: genes 13 Torsion [N]-CA--C-[O] |==|  0.32197
USER: genes 14 Torsion [N]-CA--CB-[OG] |==|  0.92432
USER: genes 15 Torsion [CA]-CB--OG-[HG] |==|  0.39460
USER: genes 16 Torsion [N]-CA--CB-[CG] |==|  0.65289
USER: genes 17 Torsion [CA]-CB--CG-[CD] |==|  0.44870
USER: genes 18 Torsion [CB]-CG--CD-[NE] |==|  0.33423
USER: genes 19 Torsion [CG]-CD--NE-[CZ] |==|  0.69499
USER: genes 20 Torsion [C]-CA--CB-[CG] |==|  0.53762
USER: genes 21 Torsion [CA]-CB--CG-[CD] |==|  0.73357
USER: genes 22 Torsion [CB]-CG--CD-[NE] |==|  0.10980
USER: genes 23 Torsion [CG]-CD--NE-[CZ] |==|  0.27745
USER: genes 24 Torsion [C]-CA--N-[C] |==|  0.77788
USER: genes 25 Torsion [N]-C--CA-[N] |==|  0.04124
USER: genes 26 Torsion [C]-CA--CB-[CG] |==|  0.69741
USER: genes 27 Torsion [CA]-CB--CG-[CD] |==|  0.20852
USER: genes 28 Torsion [CB]-CG--CD-[NE2] |==|  0.18051
USER: genes 29 Torsion [C]-CA--N-[C] |==|  0.55241
USER: genes 30 Torsion [N]-C--CA-[N] |==|  0.46111
USER: genes 31 Torsion [C]-CA--CB-[CG2] |==|  0.31704
USER: genes 32 Torsion [CA]-CB--OG1-[HG1] |==|  0.35908
USER: genes 33 Torsion [C]-CA--N-[C] |==|  0.80329
USER: genes 34 Torsion [N]-C--CA-[N] |==|  0.39671
USER: genes 35 Torsion [C]-CA--CB-[OG1] |==|  0.08187
USER: genes 36 Torsion [CA]-CB--OG1-[HG1] |==|  0.13579
ROOT
ATOM      1  CA  ARG F 167      -5.180  16.732  39.437  1.00 38.85 LIG 0.18  C 
ENDROOT
BRANCH 1 2
ATOM      2  C   ARG F 167      -4.802  15.470  38.681  1.00 41.97 LIG 0.24  C 
ATOM      3  N   LYS F 168      -4.706  14.361  39.417  1.00 42.42 LIG-0.35  N 
ATOM      4 H    LYS F 168      -4.762  14.335  40.274  1.00 42.42 LIG 0.16  HD
ATOM      5 O    ARG F 167      -4.588  15.498  37.466  1.00 34.60 LIG-0.27  OA
BRANCH 3 6
ATOM      6  CA  LYS F 168      -4.491  13.073  38.771  1.00 39.35 LIG 0.18  C 
BRANCH 6 7
ATOM      7  CB  LYS F 168      -4.055  12.018  39.789  1.00 43.51 LIG 0.04  C 
BRANCH 7 8
ATOM      8  CG  LYS F 168      -5.162  11.081  40.233  1.00 39.69 LIG 0.00  C 
BRANCH 8 9
ATOM      9  CD  LYS F 168      -5.583  11.333  41.679  1.00 48.24 LIG 0.03  C 
BRANCH 9 10
ATOM     10  CE  LYS F 168      -5.340  10.109  42.565  1.00 54.37 LIG 0.23  C 
BRANCH 10 11
ATOM     11  NZ  LYS F 168      -4.972  10.451  43.977  1.00 52.23 LIG-0.08  N 
ATOM     12 HZ3  LYS F 168      -4.164  10.826  43.990  1.00 52.23 LIG 0.27  HD
ATOM     13 HZ1  LYS F 168      -5.568  11.021  44.310  1.00 52.23 LIG 0.27  HD
ATOM     14 HZ2  LYS F 168      -4.962   9.710  44.470  1.00 52.23 LIG 0.27  HD
ENDBRANCH 10 11
ENDBRANCH 9 10
ENDBRANCH 8 9
ENDBRANCH 7 8
ENDBRANCH 6 7
BRANCH 6 15
ATOM     15  C   LYS F 168      -5.769  12.632  38.067  1.00 30.99 LIG 0.24  C 
ATOM     16 O    LYS F 168      -5.786  11.629  37.345  1.00 32.09 LIG-0.27  OA
ATOM     17  N   ARG F 169      -6.853  13.364  38.310  1.00 23.74 LIG-0.35  N 
ATOM     18 H    ARG F 169      -6.878  14.041  38.839  1.00 23.74 LIG 0.16  HD
BRANCH 17 19
ATOM     19  CA  ARG F 169      -8.115  13.040  37.662  1.00 28.77 LIG 0.18  C 
BRANCH 19 20
ATOM     20  C   ARG F 169      -8.627  11.692  38.160  1.00 37.10 LIG 0.24  C 
ATOM     21  N   SER F 170      -8.265  11.370  39.400  1.00 32.48 LIG-0.34  N 
ATOM     22 H    SER F 170      -7.890  11.922  39.942  1.00 32.48 LIG 0.16  HD
ATOM     23 O    ARG F 169      -9.302  10.948  37.434  1.00 33.53 LIG-0.27  OA
BRANCH 21 24
ATOM     24  CA  SER F 170      -8.471  10.035  39.963  1.00 32.11 LIG 0.19  C 
BRANCH 24 25
ATOM     25  C   SER F 170      -7.916   8.919  39.068  1.00 36.47 LIG 0.22  C 
ATOM     26 O    SER F 170      -6.991   8.201  39.448  1.00 35.83 LIG-0.29  OA
ENDBRANCH 24 25
BRANCH 24 27
ATOM     27  CB  SER F 170      -9.965   9.809  40.219  1.00 36.26 LIG 0.20  C 
BRANCH 27 28
ATOM     28 OG   SER F 170     -10.629  11.046  40.452  1.00 19.66 LIG-0.40  OA
ATOM     29 HG   SER F 170     -11.389  11.028  40.095  1.00 19.66 LIG 0.21  HD
ENDBRANCH 27 28
ENDBRANCH 24 27
ENDBRANCH 21 24
ENDBRANCH 19 20
BRANCH 19 30
ATOM     30  CB  ARG F 169      -7.962  13.050  36.135  1.00 32.99 LIG 0.04  C 
BRANCH 30 31
ATOM     31  CG  ARG F 169      -8.909  13.946  35.353  1.00 34.51 LIG 0.02  C 
BRANCH 31 32
ATOM     32  CD  ARG F 169      -8.331  14.187  33.946  1.00 39.71 LIG 0.14  C 
BRANCH 32 33
ATOM     33  NE  ARG F 169      -9.257  13.708  32.922  1.00 37.23 LIG-0.23  N 
ATOM     34  CZ  ARG F 169      -9.069  12.643  32.144  1.00 33.71 LIG 0.67  C 
ATOM     35  NH2 ARG F 169     -10.006  12.326  31.260  1.00 35.73 LIG-0.23  N 
ATOM     36  NH1 ARG F 169      -7.960  11.900  32.243  1.00 22.18 LIG-0.23  N 
ATOM     37 2HH2 ARG F 169      -9.902  11.642  30.749  1.00 35.73 LIG 0.17  HD
ATOM     38 1HH2 ARG F 169     -10.718  12.805  31.198  1.00 35.73 LIG 0.17  HD
ATOM     39 1HH1 ARG F 169      -7.354  12.106  32.817  1.00 22.18 LIG 0.17  HD
ATOM     40 2HH1 ARG F 169      -7.855  11.216  31.732  1.00 22.18 LIG 0.17  HD
ATOM     41 HE   ARG F 169      -9.987  14.150  32.813  1.00 37.23 LIG 0.18  HD
ENDBRANCH 32 33
ENDBRANCH 31 32
ENDBRANCH 30 31
ENDBRANCH 19 30
ENDBRANCH 17 19
ENDBRANCH 6 15
ENDBRANCH 3 6
ENDBRANCH 1 2
BRANCH 1 42
ATOM     42  CB  ARG F 167      -6.706  16.890  39.458  1.00 34.27 LIG 0.04  C 
BRANCH 42 43
ATOM     43  CG  ARG F 167      -7.158  18.268  39.898  1.00 36.76 LIG 0.02  C 
BRANCH 43 44
ATOM     44  CD  ARG F 167      -7.480  18.274  41.367  1.00 47.53 LIG 0.14  C 
BRANCH 44 45
ATOM     45  NE  ARG F 167      -6.524  17.472  42.117  1.00 46.15 LIG-0.23  N 
ATOM     46 HE   ARG F 167      -6.625  16.618  42.124  1.00 46.15 LIG 0.18  HD
ATOM     47  CZ  ARG F 167      -5.505  17.991  42.789  1.00 54.25 LIG 0.67  C 
ATOM     48  NH2 ARG F 167      -4.664  17.201  43.450  1.00 44.38 LIG-0.23  N 
ATOM     49  NH1 ARG F 167      -5.336  19.310  42.797  1.00 45.80 LIG-0.23  N 
ATOM     50 1HH2 ARG F 167      -4.780  16.349  43.443  1.00 44.38 LIG 0.17  HD
ATOM     51 2HH2 ARG F 167      -4.005  17.542  43.884  1.00 44.38 LIG 0.17  HD
ATOM     52 2HH1 ARG F 167      -4.679  19.656  43.229  1.00 45.80 LIG 0.17  HD
ATOM     53 1HH1 ARG F 167      -5.885  19.816  42.369  1.00 45.80 LIG 0.17  HD
ENDBRANCH 44 45
ENDBRANCH 43 44
ENDBRANCH 42 43
ENDBRANCH 1 42
BRANCH 1 54
ATOM     54  N   ARG F 167      -4.527  17.866  38.802  1.00 32.00 LIG-0.35  N 
ATOM     55 H    ARG F 167      -5.040  18.316  38.278  1.00 32.00 LIG 0.16  HD
ATOM     56  C   GLN F 166      -3.249  18.173  39.018  1.00 42.00 LIG 0.24  C 
ATOM     57 O    GLN F 166      -2.533  17.585  39.835  1.00 37.97 LIG-0.27  OA
BRANCH 56 58
ATOM     58  CA  GLN F 166      -2.710  19.328  38.192  1.00 41.36 LIG 0.18  C 
BRANCH 58 59
ATOM     59  CB  GLN F 166      -1.838  20.220  39.082  1.00 34.92 LIG 0.04  C 
BRANCH 59 60
ATOM     60  CG  GLN F 166      -2.433  21.565  39.418  1.00 32.73 LIG 0.10  C 
BRANCH 60 61
ATOM     61  CD  GLN F 166      -3.533  21.451  40.455  1.00 43.28 LIG 0.21  C 
ATOM     62  NE2 GLN F 166      -3.170  21.034  41.664  1.00 36.91 LIG-0.37  N 
ATOM     63 21HE GLN F 166      -2.346  20.848  41.826  1.00 36.91 LIG 0.16  HD
ATOM     64 22HE GLN F 166      -3.759  20.951  42.286  1.00 36.91 LIG 0.16  HD
ATOM     65 OE1  GLN F 166      -4.701  21.731  40.171  1.00 42.55 LIG-0.27  OA
ENDBRANCH 60 61
ENDBRANCH 59 60
ENDBRANCH 58 59
BRANCH 58 66
ATOM     66  N   GLN F 166      -3.828  20.053  37.606  1.00 35.11 LIG-0.35  N 
ATOM     67  C   THR F 165      -3.679  20.864  36.563  1.00 35.16 LIG 0.24  C 
ATOM     68 O    THR F 165      -2.571  21.111  36.070  1.00 30.91 LIG-0.27  OA
ATOM     69 H    GLN F 166      -4.582  19.909  37.993  1.00 35.11 LIG 0.16  HD
BRANCH 67 70
ATOM     70  CA  THR F 165      -4.927  21.502  35.968  1.00 44.00 LIG 0.20  C 
BRANCH 70 71
ATOM     71  CB  THR F 165      -5.765  20.438  35.250  1.00 46.85 LIG 0.15  C 
ATOM     72  CG2 THR F 165      -7.102  20.239  35.966  1.00 37.95 LIG 0.04  C 
BRANCH 71 73
ATOM     73 OG1  THR F 165      -5.985  20.837  33.890  1.00 45.14 LIG-0.39  OA
ATOM     74 HG1  THR F 165      -5.778  20.207  33.375  1.00 45.14 LIG 0.21  HD
ENDBRANCH 71 73
ENDBRANCH 70 71
BRANCH 70 75
ATOM     75  N   THR F 165      -4.610  22.600  35.062  1.00 38.01 LIG-0.34  N 
ATOM     76 H    THR F 165      -4.757  22.426  34.233  1.00 38.01 LIG 0.16  HD
ATOM     77  C   THR F 164      -4.132  23.766  35.500  1.00 57.69 LIG 0.26  C 
ATOM     78 O    THR F 164      -3.927  23.999  36.696  1.00 49.67 LIG-0.27  OA
BRANCH 77 79
ATOM     79  CA  THR F 164      -3.840  24.823  34.430  1.00 56.73 LIG 0.43  C 
ATOM     80  N   THR F 164      -4.179  26.159  34.914  1.00 65.32 LIG 0.62  N 
BRANCH 79 81
ATOM     81  CB  THR F 164      -2.352  24.733  33.999  1.00 58.05 LIG 0.16  C 
ATOM     82  CG2 THR F 164      -1.494  25.664  34.854  1.00 51.52 LIG 0.04  C 
BRANCH 81 83
ATOM     83 OG1  THR F 164      -1.878  23.387  34.142  1.00 58.15 LIG-0.39  OA
ATOM     84 HG1  THR F 164      -2.423  22.858  33.783  1.00 58.15 LIG 0.21  HD
ENDBRANCH 81 83
ENDBRANCH 79 81
ENDBRANCH 77 79
ENDBRANCH 70 75
ENDBRANCH 67 70
ENDBRANCH 58 66
ENDBRANCH 56 58
ENDBRANCH 1 54
TORSDOF 35
ENDMDL
MODEL 6
USER: ADFR SOLUTION from run 82
USER: SCORE 28.531013 LL:  -6.264 LR: -23.558 RR:   0.000 FEB: -13.118
USER: RMSD 7.013907
USER: SEED 81
USER: STATUS no improvement in best in 2 clusters for 5 generations
USER: GENES 37
USER: genes 0 Translation |==|  0.41761 0.55644 0.46507
USER: genes 1 Rotation |==|  0.06084 0.27501 0.56927 0.54142
USER: genes 2 Torsion [N]-CA--C-[N] |==|  0.27359
USER: genes 3 Torsion [C]-N--CA-[C] |==|  0.71468
USER: genes 4 Torsion [N]-CA--CB-[CG] |==|  0.13810
USER: genes 5 Torsion [CA]-CB--CG-[CD] |==|  0.43894
USER: genes 6 Torsion [CB]-CG--CD-[CE] |==|  0.09196
USER: genes 7 Torsion [CG]-CD--CE-[NZ] |==|  0.29240
USER: genes 8 Torsion [CD]-CE--NZ-[HZ3] |==|  0.86128
USER: genes 9 Torsion [N]-CA--C-[N] |==|  0.00088
USER: genes 10 Torsion [C]-N--CA-[C] |==|  0.57703
USER: genes 11 Torsion [N]-CA--C-[N] |==|  0.39790
USER: genes 12 Torsion [C]-N--CA-[C] |==|  0.65090
USER: genes 13 Torsion [N]-CA--C-[O] |==|  0.01685
USER: genes 14 Torsion [N]-CA--CB-[OG] |==|  0.75522
USER: genes 15 Torsion [CA]-CB--OG-[HG] |==|  0.59294
USER: genes 16 Torsion [N]-CA--CB-[CG] |==|  0.63659
USER: genes 17 Torsion [CA]-CB--CG-[CD] |==|  0.68895
USER: genes 18 Torsion [CB]-CG--CD-[NE] |==|  0.61599
USER: genes 19 Torsion [CG]-CD--NE-[CZ] |==|  0.42799
USER: genes 20 Torsion [C]-CA--CB-[CG] |==|  0.20018
USER: genes 21 Torsion [CA]-CB--CG-[CD] |==|  0.76856
USER: genes 22 Torsion [CB]-CG--CD-[NE] |==|  0.74282
USER: genes 23 Torsion [CG]-CD--NE-[CZ] |==|  0.23039
USER: genes 24 Torsion [C]-CA--N-[C] |==|  0.51124
USER: genes 25 Torsion [N]-C--CA-[N] |==|  0.93312
USER: genes 26 Torsion [C]-CA--CB-[CG] |==|  0.95384
USER: genes 27 Torsion [CA]-CB--CG-[CD] |==|  0.79405
USER: genes 28 Torsion [CB]-CG--CD-[NE2] |==|  0.46919
USER: genes 29 Torsion [C]-CA--N-[C] |==|  0.80590
USER: genes 30 Torsion [N]-C--CA-[N] |==|  0.34201
USER: genes 31 Torsion [C]-CA--CB-[CG2] |==|  0.31358
USER: genes 32 Torsion [CA]-CB--OG1-[HG1] |==|  0.21396
USER: genes 33 Torsion [C]-CA--N-[C] |==|  0.76755
USER: genes 34 Torsion [N]-C--CA-[N] |==|  0.31838
USER: genes 35 Torsion [C]-CA--CB-[OG1] |==|  0.52427
USER: genes 36 Torsion [CA]-CB--OG1-[HG1] |==|  0.74032
ROOT
ATOM      1  CA  ARG F 167      -3.250  19.517  37.983  1.00 38.85 LIG 0.18  C 
ENDROOT
BRANCH 1 2
ATOM      2  C   ARG F 167      -4.745  19.783  37.994  1.00 41.97 LIG 0.24  C 
ATOM      3  N   LYS F 168      -5.354  19.723  36.809  1.00 42.42 LIG-0.35  N 
ATOM      4 H    LYS F 168      -4.951  19.628  36.055  1.00 42.42 LIG 0.16  HD
ATOM      5 O    ARG F 167      -5.335  20.049  39.046  1.00 34.60 LIG-0.27  OA
BRANCH 3 6
ATOM      6  CA  LYS F 168      -6.805  19.818  36.727  1.00 39.35 LIG 0.18  C 
BRANCH 6 7
ATOM      7  CB  LYS F 168      -7.227  20.763  35.600  1.00 43.51 LIG 0.04  C 
BRANCH 7 8
ATOM      8  CG  LYS F 168      -6.557  20.487  34.268  1.00 39.69 LIG 0.00  C 
BRANCH 8 9
ATOM      9  CD  LYS F 168      -7.356  21.050  33.094  1.00 48.24 LIG 0.03  C 
BRANCH 9 10
ATOM     10  CE  LYS F 168      -8.087  22.341  33.469  1.00 54.37 LIG 0.23  C 
BRANCH 10 11
ATOM     11  NZ  LYS F 168      -7.455  23.576  32.903  1.00 52.23 LIG-0.08  N 
ATOM     12 HZ3  LYS F 168      -6.583  23.573  33.082  1.00 52.23 LIG 0.27  HD
ATOM     13 HZ1  LYS F 168      -7.576  23.595  32.021  1.00 52.23 LIG 0.27  HD
ATOM     14 HZ2  LYS F 168      -7.831  24.296  33.268  1.00 52.23 LIG 0.27  HD
ENDBRANCH 10 11
ENDBRANCH 9 10
ENDBRANCH 8 9
ENDBRANCH 7 8
ENDBRANCH 6 7
BRANCH 6 15
ATOM     15  C   LYS F 168      -7.399  18.432  36.505  1.00 30.99 LIG 0.24  C 
ATOM     16 O    LYS F 168      -8.617  18.275  36.364  1.00 32.09 LIG-0.27  OA
ATOM     17  N   ARG F 169      -6.530  17.428  36.435  1.00 23.74 LIG-0.35  N 
ATOM     18 H    ARG F 169      -5.676  17.515  36.490  1.00 23.74 LIG 0.16  HD
BRANCH 17 19
ATOM     19  CA  ARG F 169      -7.001  16.063  36.255  1.00 28.77 LIG 0.18  C 
BRANCH 19 20
ATOM     20  C   ARG F 169      -6.006  15.082  36.866  1.00 37.10 LIG 0.24  C 
ATOM     21  N   SER F 170      -6.547  14.017  37.455  1.00 32.48 LIG-0.34  N 
ATOM     22 H    SER F 170      -7.379  13.810  37.387  1.00 32.48 LIG 0.16  HD
ATOM     23 O    ARG F 169      -4.786  15.295  36.837  1.00 33.53 LIG-0.27  OA
BRANCH 21 24
ATOM     24  CA  SER F 170      -5.772  13.090  38.281  1.00 32.11 LIG 0.19  C 
BRANCH 24 25
ATOM     25  C   SER F 170      -5.903  11.633  37.821  1.00 36.47 LIG 0.22  C 
ATOM     26 O    SER F 170      -6.509  11.344  36.788  1.00 35.83 LIG-0.29  OA
ENDBRANCH 24 25
BRANCH 24 27
ATOM     27  CB  SER F 170      -6.204  13.220  39.746  1.00 36.26 LIG 0.20  C 
BRANCH 27 28
ATOM     28 OG   SER F 170      -5.452  14.233  40.405  1.00 19.66 LIG-0.40  OA
ATOM     29 HG   SER F 170      -5.336  14.018  41.208  1.00 19.66 LIG 0.21  HD
ENDBRANCH 27 28
ENDBRANCH 24 27
ENDBRANCH 21 24
ENDBRANCH 19 20
BRANCH 19 30
ATOM     30  CB  ARG F 169      -7.241  15.761  34.769  1.00 32.99 LIG 0.04  C 
BRANCH 30 31
ATOM     31  CG  ARG F 169      -8.573  15.126  34.402  1.00 34.51 LIG 0.02  C 
BRANCH 31 32
ATOM     32  CD  ARG F 169      -8.328  13.684  33.917  1.00 39.71 LIG 0.14  C 
BRANCH 32 33
ATOM     33  NE  ARG F 169      -9.159  13.389  32.751  1.00 37.23 LIG-0.23  N 
ATOM     34  CZ  ARG F 169      -8.882  12.487  31.811  1.00 33.71 LIG 0.67  C 
ATOM     35  NH2 ARG F 169      -9.738  12.326  30.810  1.00 35.73 LIG-0.23  N 
ATOM     36  NH1 ARG F 169      -7.765  11.751  31.863  1.00 22.18 LIG-0.23  N 
ATOM     37 2HH2 ARG F 169      -9.576  11.748  30.194  1.00 35.73 LIG 0.17  HD
ATOM     38 1HH2 ARG F 169     -10.455  12.800  30.778  1.00 35.73 LIG 0.17  HD
ATOM     39 1HH1 ARG F 169      -7.212  11.856  32.513  1.00 22.18 LIG 0.17  HD
ATOM     40 2HH1 ARG F 169      -7.602  11.174  31.247  1.00 22.18 LIG 0.17  HD
ATOM     41 HE   ARG F 169      -9.889  13.835  32.664  1.00 37.23 LIG 0.18  HD
ENDBRANCH 32 33
ENDBRANCH 31 32
ENDBRANCH 30 31
ENDBRANCH 19 30
ENDBRANCH 17 19
ENDBRANCH 6 15
ENDBRANCH 3 6
ENDBRANCH 1 2
BRANCH 1 42
ATOM     42  CB  ARG F 167      -2.864  18.646  39.185  1.00 34.27 LIG 0.04  C 
BRANCH 42 43
ATOM     43  CG  ARG F 167      -3.323  17.207  39.053  1.00 36.76 LIG 0.02  C 
BRANCH 43 44
ATOM     44  CD  ARG F 167      -4.756  17.068  39.486  1.00 47.53 LIG 0.14  C 
BRANCH 44 45
ATOM     45  NE  ARG F 167      -4.846  16.713  40.896  1.00 46.15 LIG-0.23  N 
ATOM     46 HE   ARG F 167      -4.948  15.885  41.101  1.00 46.15 LIG 0.18  HD
ATOM     47  CZ  ARG F 167      -4.777  17.602  41.877  1.00 54.25 LIG 0.67  C 
ATOM     48  NH2 ARG F 167      -4.862  17.210  43.145  1.00 44.38 LIG-0.23  N 
ATOM     49  NH1 ARG F 167      -4.628  18.889  41.579  1.00 45.80 LIG-0.23  N 
ATOM     50 1HH2 ARG F 167      -4.960  16.377  43.331  1.00 44.38 LIG 0.17  HD
ATOM     51 2HH2 ARG F 167      -4.816  17.790  43.778  1.00 44.38 LIG 0.17  HD
ATOM     52 2HH1 ARG F 167      -4.583  19.473  42.208  1.00 45.80 LIG 0.17  HD
ATOM     53 1HH1 ARG F 167      -4.577  19.137  40.757  1.00 45.80 LIG 0.17  HD
ENDBRANCH 44 45
ENDBRANCH 43 44
ENDBRANCH 42 43
ENDBRANCH 1 42
BRANCH 1 54
ATOM     54  N   ARG F 167      -2.552  20.794  37.993  1.00 32.00 LIG-0.35  N 
ATOM     55 H    ARG F 167      -3.073  21.475  38.059  1.00 32.00 LIG 0.16  HD
ATOM     56  C   GLN F 166      -1.226  20.889  37.908  1.00 42.00 LIG 0.24  C 
ATOM     57 O    GLN F 166      -0.469  19.913  37.901  1.00 37.97 LIG-0.27  OA
BRANCH 56 58
ATOM     58  CA  GLN F 166      -0.682  22.305  37.830  1.00 41.36 LIG 0.18  C 
BRANCH 58 59
ATOM     59  CB  GLN F 166      -0.200  22.736  39.221  1.00 34.92 LIG 0.04  C 
BRANCH 59 60
ATOM     60  CG  GLN F 166      -0.709  21.892  40.362  1.00 32.73 LIG 0.10  C 
BRANCH 60 61
ATOM     61  CD  GLN F 166      -2.170  22.171  40.661  1.00 43.28 LIG 0.21  C 
ATOM     62  NE2 GLN F 166      -2.779  21.329  41.490  1.00 36.91 LIG-0.37  N 
ATOM     63 21HE GLN F 166      -2.344  20.669  41.828  1.00 36.91 LIG 0.16  HD
ATOM     64 22HE GLN F 166      -3.608  21.444  41.687  1.00 36.91 LIG 0.16  HD
ATOM     65 OE1  GLN F 166      -2.747  23.134  40.147  1.00 42.55 LIG-0.27  OA
ENDBRANCH 60 61
ENDBRANCH 59 60
ENDBRANCH 58 59
BRANCH 58 66
ATOM     66  N   GLN F 166      -1.717  23.183  37.305  1.00 35.11 LIG-0.35  N 
ATOM     67  C   THR F 165      -2.122  23.125  36.040  1.00 35.16 LIG 0.24  C 
ATOM     68 O    THR F 165      -1.594  22.373  35.210  1.00 30.91 LIG-0.27  OA
ATOM     69 H    GLN F 166      -2.036  23.734  37.882  1.00 35.11 LIG 0.16  HD
BRANCH 67 70
ATOM     70  CA  THR F 165      -3.275  24.024  35.615  1.00 44.00 LIG 0.20  C 
BRANCH 70 71
ATOM     71  CB  THR F 165      -4.497  23.170  35.257  1.00 46.85 LIG 0.15  C 
ATOM     72  CG2 THR F 165      -5.622  23.399  36.268  1.00 37.95 LIG 0.04  C 
BRANCH 71 73
ATOM     73 OG1  THR F 165      -4.942  23.501  33.935  1.00 45.14 LIG-0.39  OA
ATOM     74 HG1  THR F 165      -4.434  23.143  33.370  1.00 45.14 LIG 0.21  HD
ENDBRANCH 71 73
ENDBRANCH 70 71
BRANCH 70 75
ATOM     75  N   THR F 165      -2.917  24.896  34.503  1.00 38.01 LIG-0.34  N 
ATOM     76 H    THR F 165      -3.149  24.596  33.732  1.00 38.01 LIG 0.16  HD
ATOM     77  C   THR F 164      -2.284  26.056  34.686  1.00 57.69 LIG 0.26  C 
ATOM     78 O    THR F 164      -1.959  26.473  35.803  1.00 49.67 LIG-0.27  OA
BRANCH 77 79
ATOM     79  CA  THR F 164      -1.968  26.862  33.422  1.00 56.73 LIG 0.43  C 
ATOM     80  N   THR F 164      -2.711  28.119  33.408  1.00 65.32 LIG 0.62  N 
BRANCH 79 81
ATOM     81  CB  THR F 164      -0.438  27.102  33.322  1.00 58.05 LIG 0.16  C 
ATOM     82  CG2 THR F 164       0.290  25.785  33.060  1.00 51.52 LIG 0.04  C 
BRANCH 81 83
ATOM     83 OG1  THR F 164      -0.152  28.022  32.260  1.00 58.15 LIG-0.39  OA
ATOM     84 HG1  THR F 164       0.013  27.595  31.556  1.00 58.15 LIG 0.21  HD
ENDBRANCH 81 83
ENDBRANCH 79 81
ENDBRANCH 77 79
ENDBRANCH 70 75
ENDBRANCH 67 70
ENDBRANCH 58 66
ENDBRANCH 56 58
ENDBRANCH 1 54
TORSDOF 35
ENDMDL
MODEL 7
USER: ADFR SOLUTION from run 82
USER: SCORE 27.650143 LL:  -5.512 LR: -23.466 RR:   0.000 FEB: -13.025
USER: RMSD 6.888402
USER: SEED 81
USER: STATUS no improvement in best in 2 clusters for 5 generations
USER: GENES 37
USER: genes 0 Translation |==|  0.41732 0.55574 0.47077
USER: genes 1 Rotation |==|  0.06083 0.27414 0.55110 0.55918
USER: genes 2 Torsion [N]-CA--C-[N] |==|  0.27572
USER: genes 3 Torsion [C]-N--CA-[C] |==|  0.72510
USER: genes 4 Torsion [N]-CA--CB-[CG] |==|  0.14456
USER: genes 5 Torsion [CA]-CB--CG-[CD] |==|  0.42074
USER: genes 6 Torsion [CB]-CG--CD-[CE] |==|  0.09609
USER: genes 7 Torsion [CG]-CD--CE-[NZ] |==|  0.30310
USER: genes 8 Torsion [CD]-CE--NZ-[HZ3] |==|  0.87802
USER: genes 9 Torsion [N]-CA--C-[N] |==|  0.00556
USER: genes 10 Torsion [C]-N--CA-[C] |==|  0.57366
USER: genes 11 Torsion [N]-CA--C-[N] |==|  0.37827
USER: genes 12 Torsion [C]-N--CA-[C] |==|  0.68825
USER: genes 13 Torsion [N]-CA--C-[O] |==|  0.99244
USER: genes 14 Torsion [N]-CA--CB-[OG] |==|  0.89287
USER: genes 15 Torsion [CA]-CB--OG-[HG] |==|  0.58963
USER: genes 16 Torsion [N]-CA--CB-[CG] |==|  0.63003
USER: genes 17 Torsion [CA]-CB--CG-[CD] |==|  0.69161
USER: genes 18 Torsion [CB]-CG--CD-[NE] |==|  0.60196
USER: genes 19 Torsion [CG]-CD--NE-[CZ] |==|  0.44092
USER: genes 20 Torsion [C]-CA--CB-[CG] |==|  0.18378
USER: genes 21 Torsion [CA]-CB--CG-[CD] |==|  0.76097
USER: genes 22 Torsion [CB]-CG--CD-[NE] |==|  0.75666
USER: genes 23 Torsion [CG]-CD--NE-[CZ] |==|  0.23934
USER: genes 24 Torsion [C]-CA--N-[C] |==|  0.78029
USER: genes 25 Torsion [N]-C--CA-[N] |==|  0.04568
USER: genes 26 Torsion [C]-CA--CB-[CG] |==|  0.29868
USER: genes 27 Torsion [CA]-CB--CG-[CD] |==|  0.71414
USER: genes 28 Torsion [CB]-CG--CD-[NE2] |==|  0.00389
USER: genes 29 Torsion [C]-CA--N-[C] |==|  0.19950
USER: genes 30 Torsion [N]-C--CA-[N] |==|  0.13946
USER: genes 31 Torsion [C]-CA--CB-[CG2] |==|  0.30860
USER: genes 32 Torsion [CA]-CB--OG1-[HG1] |==|  0.15719
USER: genes 33 Torsion [C]-CA--N-[C] |==|  0.77764
USER: genes 34 Torsion [N]-C--CA-[N] |==|  0.34653
USER: genes 35 Torsion [C]-CA--CB-[OG1] |==|  0.42222
USER: genes 36 Torsion [CA]-CB--OG1-[HG1] |==|  0.94996
ROOT
ATOM      1  CA  ARG F 167      -3.257  19.498  38.094  1.00 38.85 LIG 0.18  C 
ENDROOT
BRANCH 1 2
ATOM      2  C   ARG F 167      -4.749  19.783  38.084  1.00 41.97 LIG 0.24  C 
ATOM      3  N   LYS F 168      -5.322  19.829  36.880  1.00 42.42 LIG-0.35  N 
ATOM      4 H    LYS F 168      -4.897  19.791  36.133  1.00 42.42 LIG 0.16  HD
ATOM      5 O    ARG F 167      -5.366  19.969  39.136  1.00 34.60 LIG-0.27  OA
BRANCH 3 6
ATOM      6  CA  LYS F 168      -6.769  19.951  36.764  1.00 39.35 LIG 0.18  C 
BRANCH 6 7
ATOM      7  CB  LYS F 168      -7.146  20.922  35.644  1.00 43.51 LIG 0.04  C 
BRANCH 7 8
ATOM      8  CG  LYS F 168      -6.490  20.624  34.309  1.00 39.69 LIG 0.00  C 
BRANCH 8 9
ATOM      9  CD  LYS F 168      -7.343  21.091  33.132  1.00 48.24 LIG 0.03  C 
BRANCH 9 10
ATOM     10  CE  LYS F 168      -8.106  22.378  33.456  1.00 54.37 LIG 0.23  C 
BRANCH 10 11
ATOM     11  NZ  LYS F 168      -7.591  23.583  32.729  1.00 52.23 LIG-0.08  N 
ATOM     12 HZ3  LYS F 168      -6.701  23.588  32.756  1.00 52.23 LIG 0.27  HD
ATOM     13 HZ1  LYS F 168      -7.863  23.558  31.882  1.00 52.23 LIG 0.27  HD
ATOM     14 HZ2  LYS F 168      -7.903  24.320  33.118  1.00 52.23 LIG 0.27  HD
ENDBRANCH 10 11
ENDBRANCH 9 10
ENDBRANCH 8 9
ENDBRANCH 7 8
ENDBRANCH 6 7
BRANCH 6 15
ATOM     15  C   LYS F 168      -7.381  18.579  36.504  1.00 30.99 LIG 0.24  C 
ATOM     16 O    LYS F 168      -8.593  18.450  36.299  1.00 32.09 LIG-0.27  OA
ATOM     17  N   ARG F 169      -6.531  17.556  36.472  1.00 23.74 LIG-0.35  N 
ATOM     18 H    ARG F 169      -5.679  17.624  36.571  1.00 23.74 LIG 0.16  HD
BRANCH 17 19
ATOM     19  CA  ARG F 169      -7.022  16.203  36.259  1.00 28.77 LIG 0.18  C 
BRANCH 19 20
ATOM     20  C   ARG F 169      -6.066  15.196  36.889  1.00 37.10 LIG 0.24  C 
ATOM     21  N   SER F 170      -6.647  14.212  37.573  1.00 32.48 LIG-0.34  N 
ATOM     22 H    SER F 170      -7.493  14.060  37.557  1.00 32.48 LIG 0.16  HD
ATOM     23 O    ARG F 169      -4.837  15.320  36.789  1.00 33.53 LIG-0.27  OA
BRANCH 21 24
ATOM     24  CA  SER F 170      -5.895  13.287  38.423  1.00 32.11 LIG 0.19  C 
BRANCH 24 25
ATOM     25  C   SER F 170      -5.881  11.855  37.875  1.00 36.47 LIG 0.22  C 
ATOM     26 O    SER F 170      -6.500  11.559  36.853  1.00 35.83 LIG-0.29  OA
ENDBRANCH 24 25
BRANCH 24 27
ATOM     27  CB  SER F 170      -6.475  13.303  39.841  1.00 36.26 LIG 0.20  C 
BRANCH 27 28
ATOM     28 OG   SER F 170      -6.854  14.622  40.216  1.00 19.66 LIG-0.40  OA
ATOM     29 HG   SER F 170      -6.746  14.721  41.043  1.00 19.66 LIG 0.21  HD
ENDBRANCH 27 28
ENDBRANCH 24 27
ENDBRANCH 21 24
ENDBRANCH 19 20
BRANCH 19 30
ATOM     30  CB  ARG F 169      -7.221  15.925  34.763  1.00 32.99 LIG 0.04  C 
BRANCH 30 31
ATOM     31  CG  ARG F 169      -8.530  15.269  34.352  1.00 34.51 LIG 0.02  C 
BRANCH 31 32
ATOM     32  CD  ARG F 169      -8.246  13.834  33.869  1.00 39.71 LIG 0.14  C 
BRANCH 32 33
ATOM     33  NE  ARG F 169      -9.121  13.488  32.750  1.00 37.23 LIG-0.23  N 
ATOM     34  CZ  ARG F 169      -8.892  12.527  31.856  1.00 33.71 LIG 0.67  C 
ATOM     35  NH2 ARG F 169      -9.785  12.326  30.895  1.00 35.73 LIG-0.23  N 
ATOM     36  NH1 ARG F 169      -7.788  11.774  31.915  1.00 22.18 LIG-0.23  N 
ATOM     37 2HH2 ARG F 169      -9.654  11.710  30.309  1.00 35.73 LIG 0.17  HD
ATOM     38 1HH2 ARG F 169     -10.494  12.811  30.859  1.00 35.73 LIG 0.17  HD
ATOM     39 1HH1 ARG F 169      -7.211  11.905  32.539  1.00 22.18 LIG 0.17  HD
ATOM     40 2HH1 ARG F 169      -7.656  11.158  31.329  1.00 22.18 LIG 0.17  HD
ATOM     41 HE   ARG F 169      -9.845  13.943  32.661  1.00 37.23 LIG 0.18  HD
ENDBRANCH 32 33
ENDBRANCH 31 32
ENDBRANCH 30 31
ENDBRANCH 19 30
ENDBRANCH 17 19
ENDBRANCH 6 15
ENDBRANCH 3 6
ENDBRANCH 1 2
BRANCH 1 42
ATOM     42  CB  ARG F 167      -2.921  18.510  39.219  1.00 34.27 LIG 0.04  C 
BRANCH 42 43
ATOM     43  CG  ARG F 167      -3.513  17.132  39.002  1.00 36.76 LIG 0.02  C 
BRANCH 43 44
ATOM     44  CD  ARG F 167      -4.918  17.072  39.533  1.00 47.53 LIG 0.14  C 
BRANCH 44 45
ATOM     45  NE  ARG F 167      -4.931  16.712  40.944  1.00 46.15 LIG-0.23  N 
ATOM     46 HE   ARG F 167      -5.025  15.883  41.152  1.00 46.15 LIG 0.18  HD
ATOM     47  CZ  ARG F 167      -4.806  17.597  41.923  1.00 54.25 LIG 0.67  C 
ATOM     48  NH2 ARG F 167      -4.821  17.201  43.193  1.00 44.38 LIG-0.23  N 
ATOM     49  NH1 ARG F 167      -4.669  18.885  41.622  1.00 45.80 LIG-0.23  N 
ATOM     50 1HH2 ARG F 167      -4.913  16.367  43.381  1.00 44.38 LIG 0.17  HD
ATOM     51 2HH2 ARG F 167      -4.740  17.779  43.824  1.00 44.38 LIG 0.17  HD
ATOM     52 2HH1 ARG F 167      -4.587  19.467  42.250  1.00 45.80 LIG 0.17  HD
ATOM     53 1HH1 ARG F 167      -4.663  19.136  40.799  1.00 45.80 LIG 0.17  HD
ENDBRANCH 44 45
ENDBRANCH 43 44
ENDBRANCH 42 43
ENDBRANCH 1 42
BRANCH 1 54
ATOM     54  N   ARG F 167      -2.546  20.757  38.248  1.00 32.00 LIG-0.35  N 
ATOM     55 H    ARG F 167      -2.266  20.904  39.049  1.00 32.00 LIG 0.16  HD
ATOM     56  C   GLN F 166      -2.349  21.601  37.237  1.00 42.00 LIG 0.24  C 
ATOM     57 O    GLN F 166      -2.670  21.356  36.069  1.00 37.97 LIG-0.27  OA
BRANCH 56 58
ATOM     58  CA  GLN F 166      -1.676  22.912  37.606  1.00 41.36 LIG 0.18  C 
BRANCH 58 59
ATOM     59  CB  GLN F 166      -0.663  23.282  36.517  1.00 34.92 LIG 0.04  C 
BRANCH 59 60
ATOM     60  CG  GLN F 166      -1.069  24.433  35.631  1.00 32.73 LIG 0.10  C 
BRANCH 60 61
ATOM     61  CD  GLN F 166      -1.558  23.957  34.277  1.00 43.28 LIG 0.21  C 
ATOM     62  NE2 GLN F 166      -1.586  22.642  34.083  1.00 36.91 LIG-0.37  N 
ATOM     63 21HE GLN F 166      -1.336  22.110  34.711  1.00 36.91 LIG 0.16  HD
ATOM     64 22HE GLN F 166      -1.853  22.324  33.330  1.00 36.91 LIG 0.16  HD
ATOM     65 OE1  GLN F 166      -1.905  24.766  33.411  1.00 42.55 LIG-0.27  OA
ENDBRANCH 60 61
ENDBRANCH 59 60
ENDBRANCH 58 59
BRANCH 58 66
ATOM     66  N   GLN F 166      -1.058  22.774  38.916  1.00 35.11 LIG-0.35  N 
ATOM     67  C   THR F 165       0.035  22.042  39.112  1.00 35.16 LIG 0.24  C 
ATOM     68 O    THR F 165       0.553  21.372  38.208  1.00 30.91 LIG-0.27  OA
ATOM     69 H    GLN F 166      -1.460  23.204  39.542  1.00 35.11 LIG 0.16  HD
BRANCH 67 70
ATOM     70  CA  THR F 165       0.656  22.038  40.502  1.00 44.00 LIG 0.20  C 
BRANCH 70 71
ATOM     71  CB  THR F 165       1.801  21.021  40.559  1.00 46.85 LIG 0.15  C 
ATOM     72  CG2 THR F 165       3.146  21.738  40.690  1.00 37.95 LIG 0.04  C 
BRANCH 71 73
ATOM     73 OG1  THR F 165       1.601  20.135  41.668  1.00 45.14 LIG-0.39  OA
ATOM     74 HG1  THR F 165       0.850  19.764  41.599  1.00 45.14 LIG 0.21  HD
ENDBRANCH 71 73
ENDBRANCH 70 71
BRANCH 70 75
ATOM     75  N   THR F 165      -0.325  21.764  41.546  1.00 38.01 LIG-0.34  N 
ATOM     76 H    THR F 165      -0.322  20.951  41.826  1.00 38.01 LIG 0.16  HD
ATOM     77  C   THR F 164      -1.147  22.704  42.013  1.00 57.69 LIG 0.26  C 
ATOM     78 O    THR F 164      -1.137  23.868  41.599  1.00 49.67 LIG-0.27  OA
BRANCH 77 79
ATOM     79  CA  THR F 164      -2.128  22.265  43.105  1.00 56.73 LIG 0.43  C 
ATOM     80  N   THR F 164      -1.995  23.107  44.291  1.00 65.32 LIG 0.62  N 
BRANCH 79 81
ATOM     81  CB  THR F 164      -3.576  22.288  42.548  1.00 58.05 LIG 0.16  C 
ATOM     82  CG2 THR F 164      -3.576  21.969  41.054  1.00 51.52 LIG 0.04  C 
BRANCH 81 83
ATOM     83 OG1  THR F 164      -4.385  21.326  43.238  1.00 58.15 LIG-0.39  OA
ATOM     84 HG1  THR F 164      -3.889  20.771  43.628  1.00 58.15 LIG 0.21  HD
ENDBRANCH 81 83
ENDBRANCH 79 81
ENDBRANCH 77 79
ENDBRANCH 70 75
ENDBRANCH 67 70
ENDBRANCH 58 66
ENDBRANCH 56 58
ENDBRANCH 1 54
TORSDOF 35
ENDMDL
MODEL 8
USER: ADFR SOLUTION from run 53
USER: SCORE 25.582014 LL:  -3.904 LR: -23.434 RR:   0.000 FEB: -12.994
USER: RMSD 10.421032
USER: SEED 52
USER: STATUS 1 or 2 clusters left
USER: GENES 37
USER: genes 0 Translation |==|  0.45753 0.56601 0.50465
USER: genes 1 Rotation |==|  0.38535 0.70758 0.85270 0.76337
USER: genes 2 Torsion [N]-CA--C-[N] |==|  0.06514
USER: genes 3 Torsion [C]-N--CA-[C] |==|  0.12406
USER: genes 4 Torsion [N]-CA--CB-[CG] |==|  0.10160
USER: genes 5 Torsion [CA]-CB--CG-[CD] |==|  0.63776
USER: genes 6 Torsion [CB]-CG--CD-[CE] |==|  0.31627
USER: genes 7 Torsion [CG]-CD--CE-[NZ] |==|  0.13618
USER: genes 8 Torsion [CD]-CE--NZ-[HZ3] |==|  0.90939
USER: genes 9 Torsion [N]-CA--C-[N] |==|  0.69444
USER: genes 10 Torsion [C]-N--CA-[C] |==|  0.56211
USER: genes 11 Torsion [N]-CA--C-[N] |==|  0.45849
USER: genes 12 Torsion [C]-N--CA-[C] |==|  0.80644
USER: genes 13 Torsion [N]-CA--C-[O] |==|  0.90256
USER: genes 14 Torsion [N]-CA--CB-[OG] |==|  0.31315
USER: genes 15 Torsion [CA]-CB--OG-[HG] |==|  0.20078
USER: genes 16 Torsion [N]-CA--CB-[CG] |==|  0.66023
USER: genes 17 Torsion [CA]-CB--CG-[CD] |==|  0.62899
USER: genes 18 Torsion [CB]-CG--CD-[NE] |==|  0.13555
USER: genes 19 Torsion [CG]-CD--NE-[CZ] |==|  0.54949
USER: genes 20 Torsion [C]-CA--CB-[CG] |==|  0.44706
USER: genes 21 Torsion [CA]-CB--CG-[CD] |==|  0.89638
USER: genes 22 Torsion [CB]-CG--CD-[NE] |==|  0.77214
USER: genes 23 Torsion [CG]-CD--NE-[CZ] |==|  0.81673
USER: genes 24 Torsion [C]-CA--N-[C] |==|  0.69046
USER: genes 25 Torsion [N]-C--CA-[N] |==|  0.37540
USER: genes 26 Torsion [C]-CA--CB-[CG] |==|  0.49135
USER: genes 27 Torsion [CA]-CB--CG-[CD] |==|  0.59896
USER: genes 28 Torsion [CB]-CG--CD-[NE2] |==|  0.09340
USER: genes 29 Torsion [C]-CA--N-[C] |==|  0.64962
USER: genes 30 Torsion [N]-C--CA-[N] |==|  0.18544
USER: genes 31 Torsion [C]-CA--CB-[CG2] |==|  0.26062
USER: genes 32 Torsion [CA]-CB--OG1-[HG1] |==|  0.28660
USER: genes 33 Torsion [C]-CA--N-[C] |==|  0.68009
USER: genes 34 Torsion [N]-C--CA-[N] |==|  0.37076
USER: genes 35 Torsion [C]-CA--CB-[OG1] |==|  0.42841
USER: genes 36 Torsion [CA]-CB--OG1-[HG1] |==|  0.75206
ROOT
ATOM      1  CA  ARG F 167      -2.262  19.783  38.755  1.00 38.85 LIG 0.18  C 
ENDROOT
BRANCH 1 2
ATOM      2  C   ARG F 167      -0.780  19.961  39.034  1.00 41.97 LIG 0.24  C 
ATOM      3  N   LYS F 168      -0.195  20.993  38.424  1.00 42.42 LIG-0.35  N 
ATOM      4 H    LYS F 168      -0.574  21.495  37.838  1.00 42.42 LIG 0.16  HD
ATOM      5 O    ARG F 167      -0.175  19.179  39.773  1.00 34.60 LIG-0.27  OA
BRANCH 3 6
ATOM      6  CA  LYS F 168       1.185  21.339  38.736  1.00 39.35 LIG 0.18  C 
BRANCH 6 7
ATOM      7  CB  LYS F 168       1.272  22.083  40.071  1.00 43.51 LIG 0.04  C 
BRANCH 7 8
ATOM      8  CG  LYS F 168       0.298  21.594  41.125  1.00 39.69 LIG 0.00  C 
BRANCH 8 9
ATOM      9  CD  LYS F 168      -0.479  22.741  41.766  1.00 48.24 LIG 0.03  C 
BRANCH 9 10
ATOM     10  CE  LYS F 168      -1.971  22.676  41.432  1.00 54.37 LIG 0.23  C 
BRANCH 10 11
ATOM     11  NZ  LYS F 168      -2.581  21.326  41.656  1.00 52.23 LIG-0.08  N 
ATOM     12 HZ3  LYS F 168      -1.975  20.695  41.489  1.00 52.23 LIG 0.27  HD
ATOM     13 HZ1  LYS F 168      -2.854  21.259  42.500  1.00 52.23 LIG 0.27  HD
ATOM     14 HZ2  LYS F 168      -3.276  21.220  41.110  1.00 52.23 LIG 0.27  HD
ENDBRANCH 10 11
ENDBRANCH 9 10
ENDBRANCH 8 9
ENDBRANCH 7 8
ENDBRANCH 6 7
BRANCH 6 15
ATOM     15  C   LYS F 168       2.034  20.074  38.780  1.00 30.99 LIG 0.24  C 
ATOM     16 O    LYS F 168       2.322  19.462  37.745  1.00 32.09 LIG-0.27  OA
ATOM     17  N   ARG F 169       2.469  19.703  39.981  1.00 23.74 LIG-0.35  N 
ATOM     18 H    ARG F 169       2.318  20.132  40.711  1.00 23.74 LIG 0.16  HD
BRANCH 17 19
ATOM     19  CA  ARG F 169       3.263  18.492  40.130  1.00 28.77 LIG 0.18  C 
BRANCH 19 20
ATOM     20  C   ARG F 169       3.173  17.983  41.565  1.00 37.10 LIG 0.24  C 
ATOM     21  N   SER F 170       3.592  16.733  41.752  1.00 32.48 LIG-0.34  N 
ATOM     22 H    SER F 170       4.011  16.280  41.153  1.00 32.48 LIG 0.16  HD
ATOM     23 O    ARG F 169       2.707  18.685  42.473  1.00 33.53 LIG-0.27  OA
BRANCH 21 24
ATOM     24  CA  SER F 170       3.377  16.004  43.003  1.00 32.11 LIG 0.19  C 
BRANCH 24 25
ATOM     25  C   SER F 170       4.216  16.556  44.163  1.00 36.47 LIG 0.22  C 
ATOM     26 O    SER F 170       5.348  17.001  43.973  1.00 35.83 LIG-0.29  OA
ENDBRANCH 24 25
BRANCH 24 27
ATOM     27  CB  SER F 170       3.684  14.517  42.793  1.00 36.26 LIG 0.20  C 
BRANCH 27 28
ATOM     28 OG   SER F 170       4.838  14.132  43.531  1.00 19.66 LIG-0.40  OA
ATOM     29 HG   SER F 170       4.653  14.107  44.349  1.00 19.66 LIG 0.21  HD
ENDBRANCH 27 28
ENDBRANCH 24 27
ENDBRANCH 21 24
ENDBRANCH 19 20
BRANCH 19 30
ATOM     30  CB  ARG F 169       4.720  18.741  39.717  1.00 32.99 LIG 0.04  C 
BRANCH 30 31
ATOM     31  CG  ARG F 169       5.281  17.864  38.609  1.00 34.51 LIG 0.02  C 
BRANCH 31 32
ATOM     32  CD  ARG F 169       6.671  17.348  39.027  1.00 39.71 LIG 0.14  C 
BRANCH 32 33
ATOM     33  NE  ARG F 169       6.626  16.796  40.380  1.00 37.23 LIG-0.23  N 
ATOM     34  CZ  ARG F 169       7.681  16.580  41.164  1.00 33.71 LIG 0.67  C 
ATOM     35  NH2 ARG F 169       7.481  16.076  42.376  1.00 35.73 LIG-0.23  N 
ATOM     36  NH1 ARG F 169       8.921  16.860  40.750  1.00 22.18 LIG-0.23  N 
ATOM     37 2HH2 ARG F 169       8.150  15.930  42.896  1.00 35.73 LIG 0.17  HD
ATOM     38 1HH2 ARG F 169       6.683  15.897  42.641  1.00 35.73 LIG 0.17  HD
ATOM     39 1HH1 ARG F 169       9.049  17.186  39.965  1.00 22.18 LIG 0.17  HD
ATOM     40 2HH1 ARG F 169       9.591  16.713  41.269  1.00 22.18 LIG 0.17  HD
ATOM     41 HE   ARG F 169       5.852  16.594  40.698  1.00 37.23 LIG 0.18  HD
ENDBRANCH 32 33
ENDBRANCH 31 32
ENDBRANCH 30 31
ENDBRANCH 19 30
ENDBRANCH 17 19
ENDBRANCH 6 15
ENDBRANCH 3 6
ENDBRANCH 1 2
BRANCH 1 42
ATOM     42  CB  ARG F 167      -2.617  18.291  38.745  1.00 34.27 LIG 0.04  C 
BRANCH 42 43
ATOM     43  CG  ARG F 167      -4.098  18.027  38.933  1.00 36.76 LIG 0.02  C 
BRANCH 43 44
ATOM     44  CD  ARG F 167      -4.689  19.004  39.910  1.00 47.53 LIG 0.14  C 
BRANCH 44 45
ATOM     45  NE  ARG F 167      -4.448  18.584  41.283  1.00 46.15 LIG-0.23  N 
ATOM     46 HE   ARG F 167      -3.937  19.070  41.775  1.00 46.15 LIG 0.18  HD
ATOM     47  CZ  ARG F 167      -4.977  17.490  41.814  1.00 54.25 LIG 0.67  C 
ATOM     48  NH2 ARG F 167      -4.720  17.165  43.078  1.00 44.38 LIG-0.23  N 
ATOM     49  NH1 ARG F 167      -5.764  16.720  41.068  1.00 45.80 LIG-0.23  N 
ATOM     50 1HH2 ARG F 167      -4.209  17.665  43.555  1.00 44.38 LIG 0.17  HD
ATOM     51 2HH2 ARG F 167      -5.066  16.455  43.418  1.00 44.38 LIG 0.17  HD
ATOM     52 2HH1 ARG F 167      -6.112  16.009  41.403  1.00 45.80 LIG 0.17  HD
ATOM     53 1HH1 ARG F 167      -5.924  16.934  40.251  1.00 45.80 LIG 0.17  HD
ENDBRANCH 44 45
ENDBRANCH 43 44
ENDBRANCH 42 43
ENDBRANCH 1 42
BRANCH 1 54
ATOM     54  N   ARG F 167      -2.575  20.422  37.486  1.00 32.00 LIG-0.35  N 
ATOM     55 H    ARG F 167      -2.233  20.026  36.803  1.00 32.00 LIG 0.16  HD
ATOM     56  C   GLN F 166      -3.323  21.520  37.399  1.00 42.00 LIG 0.24  C 
ATOM     57 O    GLN F 166      -3.888  22.042  38.366  1.00 37.97 LIG-0.27  OA
BRANCH 56 58
ATOM     58  CA  GLN F 166      -3.458  22.104  36.003  1.00 41.36 LIG 0.18  C 
BRANCH 58 59
ATOM     59  CB  GLN F 166      -2.525  23.313  35.871  1.00 34.92 LIG 0.04  C 
BRANCH 59 60
ATOM     60  CG  GLN F 166      -2.499  23.954  34.506  1.00 32.73 LIG 0.10  C 
BRANCH 60 61
ATOM     61  CD  GLN F 166      -1.117  24.465  34.149  1.00 43.28 LIG 0.21  C 
ATOM     62  NE2 GLN F 166      -0.086  23.764  34.611  1.00 36.91 LIG-0.37  N 
ATOM     63 21HE GLN F 166      -0.223  23.058  35.083  1.00 36.91 LIG 0.16  HD
ATOM     64 22HE GLN F 166       0.718  24.016  34.437  1.00 36.91 LIG 0.16  HD
ATOM     65 OE1  GLN F 166      -0.977  25.484  33.467  1.00 42.55 LIG-0.27  OA
ENDBRANCH 60 61
ENDBRANCH 59 60
ENDBRANCH 58 59
BRANCH 58 66
ATOM     66  N   GLN F 166      -4.852  22.451  35.768  1.00 35.11 LIG-0.35  N 
ATOM     67  C   THR F 165      -5.526  22.004  34.712  1.00 35.16 LIG 0.24  C 
ATOM     68 O    THR F 165      -4.992  21.326  33.825  1.00 30.91 LIG-0.27  OA
ATOM     69 H    GLN F 166      -5.193  22.965  36.367  1.00 35.11 LIG 0.16  HD
BRANCH 67 70
ATOM     70  CA  THR F 165      -7.005  22.350  34.608  1.00 44.00 LIG 0.20  C 
BRANCH 70 71
ATOM     71  CB  THR F 165      -7.651  21.542  33.476  1.00 46.85 LIG 0.15  C 
ATOM     72  CG2 THR F 165      -8.269  20.255  34.025  1.00 37.95 LIG 0.04  C 
BRANCH 71 73
ATOM     73 OG1  THR F 165      -8.653  22.338  32.830  1.00 45.14 LIG-0.39  OA
ATOM     74 HG1  THR F 165      -8.356  22.624  32.099  1.00 45.14 LIG 0.21  HD
ENDBRANCH 71 73
ENDBRANCH 70 71
BRANCH 70 75
ATOM     75  N   THR F 165      -7.228  23.777  34.409  1.00 38.01 LIG-0.34  N 
ATOM     76 H    THR F 165      -6.924  24.080  33.664  1.00 38.01 LIG 0.16  HD
ATOM     77  C   THR F 164      -7.850  24.532  35.316  1.00 57.69 LIG 0.26  C 
ATOM     78 O    THR F 164      -8.281  24.079  36.382  1.00 49.67 LIG-0.27  OA
BRANCH 77 79
ATOM     79  CA  THR F 164      -8.005  26.016  34.970  1.00 56.73 LIG 0.43  C 
ATOM     80  N   THR F 164      -9.367  26.471  35.233  1.00 65.32 LIG 0.62  N 
BRANCH 79 81
ATOM     81  CB  THR F 164      -6.962  26.850  35.762  1.00 58.05 LIG 0.16  C 
ATOM     82  CG2 THR F 164      -5.673  26.052  35.946  1.00 51.52 LIG 0.04  C 
BRANCH 81 83
ATOM     83 OG1  THR F 164      -6.671  28.068  35.062  1.00 58.15 LIG-0.39  OA
ATOM     84 HG1  THR F 164      -6.034  27.939  34.529  1.00 58.15 LIG 0.21  HD
ENDBRANCH 81 83
ENDBRANCH 79 81
ENDBRANCH 77 79
ENDBRANCH 70 75
ENDBRANCH 67 70
ENDBRANCH 58 66
ENDBRANCH 56 58
ENDBRANCH 1 54
TORSDOF 35
ENDMDL
MODEL 9
USER: ADFR SOLUTION from run 106
USER: SCORE 25.954127 LL:  -4.388 LR: -23.420 RR:   0.000 FEB: -12.980
USER: RMSD 8.585344
USER: SEED 105
USER: STATUS no improvement in best in 5 clusters for 5 generations
USER: GENES 37
USER: genes 0 Translation |==|  0.38178 0.53448 0.47792
USER: genes 1 Rotation |==|  0.81867 0.83232 0.43247 0.68289
USER: genes 2 Torsion [N]-CA--C-[N] |==|  0.35860
USER: genes 3 Torsion [C]-N--CA-[C] |==|  0.56921
USER: genes 4 Torsion [N]-CA--CB-[CG] |==|  0.52841
USER: genes 5 Torsion [CA]-CB--CG-[CD] |==|  0.45897
USER: genes 6 Torsion [CB]-CG--CD-[CE] |==|  0.36723
USER: genes 7 Torsion [CG]-CD--CE-[NZ] |==|  0.41396
USER: genes 8 Torsion [CD]-CE--NZ-[HZ3] |==|  0.72981
USER: genes 9 Torsion [N]-CA--C-[N] |==|  0.37624
USER: genes 10 Torsion [C]-N--CA-[C] |==|  0.68925
USER: genes 11 Torsion [N]-CA--C-[N] |==|  0.38667
USER: genes 12 Torsion [C]-N--CA-[C] |==|  0.15736
USER: genes 13 Torsion [N]-CA--C-[O] |==|  0.03647
USER: genes 14 Torsion [N]-CA--CB-[OG] |==|  0.91375
USER: genes 15 Torsion [CA]-CB--OG-[HG] |==|  0.18762
USER: genes 16 Torsion [N]-CA--CB-[CG] |==|  0.53986
USER: genes 17 Torsion [CA]-CB--CG-[CD] |==|  0.55808
USER: genes 18 Torsion [CB]-CG--CD-[NE] |==|  0.28469
USER: genes 19 Torsion [CG]-CD--NE-[CZ] |==|  0.60527
USER: genes 20 Torsion [C]-CA--CB-[CG] |==|  0.79073
USER: genes 21 Torsion [CA]-CB--CG-[CD] |==|  0.33573
USER: genes 22 Torsion [CB]-CG--CD-[NE] |==|  0.11822
USER: genes 23 Torsion [CG]-CD--NE-[CZ] |==|  0.68702
USER: genes 24 Torsion [C]-CA--N-[C] |==|  0.57659
USER: genes 25 Torsion [N]-C--CA-[N] |==|  0.99489
USER: genes 26 Torsion [C]-CA--CB-[CG] |==|  0.37910
USER: genes 27 Torsion [CA]-CB--CG-[CD] |==|  0.82443
USER: genes 28 Torsion [CB]-CG--CD-[NE2] |==|  0.23442
USER: genes 29 Torsion [C]-CA--N-[C] |==|  0.55042
USER: genes 30 Torsion [N]-C--CA-[N] |==|  0.39515
USER: genes 31 Torsion [C]-CA--CB-[CG2] |==|  0.23696
USER: genes 32 Torsion [CA]-CB--OG1-[HG1] |==|  0.14553
USER: genes 33 Torsion [C]-CA--N-[C] |==|  0.60807
USER: genes 34 Torsion [N]-C--CA-[N] |==|  0.85433
USER: genes 35 Torsion [C]-CA--CB-[OG1] |==|  0.00956
USER: genes 36 Torsion [CA]-CB--OG1-[HG1] |==|  0.66309
ROOT
ATOM      1  CA  ARG F 167      -4.137  18.908  38.233  1.00 38.85 LIG 0.18  C 
ENDROOT
BRANCH 1 2
ATOM      2  C   ARG F 167      -5.273  17.945  37.939  1.00 41.97 LIG 0.24  C 
ATOM      3  N   LYS F 168      -4.915  16.684  37.692  1.00 42.42 LIG-0.35  N 
ATOM      4 H    LYS F 168      -4.103  16.411  37.610  1.00 42.42 LIG 0.16  HD
ATOM      5 O    ARG F 167      -6.445  18.332  37.923  1.00 34.60 LIG-0.27  OA
BRANCH 3 6
ATOM      6  CA  LYS F 168      -5.932  15.652  37.541  1.00 39.35 LIG 0.18  C 
BRANCH 6 7
ATOM      7  CB  LYS F 168      -6.495  15.644  36.118  1.00 43.51 LIG 0.04  C 
BRANCH 7 8
ATOM      8  CG  LYS F 168      -7.723  14.774  35.935  1.00 39.69 LIG 0.00  C 
BRANCH 8 9
ATOM      9  CD  LYS F 168      -8.450  15.072  34.626  1.00 48.24 LIG 0.03  C 
BRANCH 9 10
ATOM     10  CE  LYS F 168      -8.786  13.793  33.856  1.00 54.37 LIG 0.23  C 
BRANCH 10 11
ATOM     11  NZ  LYS F 168     -10.038  13.893  33.039  1.00 52.23 LIG-0.08  N 
ATOM     12 HZ3  LYS F 168     -10.717  13.538  33.492  1.00 52.23 LIG 0.27  HD
ATOM     13 HZ1  LYS F 168     -10.212  14.748  32.865  1.00 52.23 LIG 0.27  HD
ATOM     14 HZ2  LYS F 168      -9.930  13.451  32.274  1.00 52.23 LIG 0.27  HD
ENDBRANCH 10 11
ENDBRANCH 9 10
ENDBRANCH 8 9
ENDBRANCH 7 8
ENDBRANCH 6 7
BRANCH 6 15
ATOM     15  C   LYS F 168      -5.337  14.290  37.882  1.00 30.99 LIG 0.24  C 
ATOM     16 O    LYS F 168      -4.211  13.969  37.486  1.00 32.09 LIG-0.27  OA
ATOM     17  N   ARG F 169      -6.083  13.502  38.652  1.00 23.74 LIG-0.35  N 
ATOM     18 H    ARG F 169      -6.851  13.717  38.974  1.00 23.74 LIG 0.16  HD
BRANCH 17 19
ATOM     19  CA  ARG F 169      -5.614  12.171  39.008  1.00 28.77 LIG 0.18  C 
BRANCH 19 20
ATOM     20  C   ARG F 169      -6.485  11.115  38.335  1.00 37.10 LIG 0.24  C 
ATOM     21  N   SER F 170      -5.828  10.066  37.844  1.00 32.48 LIG-0.34  N 
ATOM     22 H    SER F 170      -4.998   9.910  38.004  1.00 32.48 LIG 0.16  HD
ATOM     23 O    ARG F 169      -7.712  11.257  38.232  1.00 33.53 LIG-0.27  OA
BRANCH 21 24
ATOM     24  CA  SER F 170      -6.461   9.070  36.979  1.00 32.11 LIG 0.19  C 
BRANCH 24 25
ATOM     25  C   SER F 170      -7.088   9.687  35.722  1.00 36.47 LIG 0.22  C 
ATOM     26 O    SER F 170      -6.836  10.845  35.390  1.00 35.83 LIG-0.29  OA
ENDBRANCH 24 25
BRANCH 24 27
ATOM     27  CB  SER F 170      -7.521   8.297  37.771  1.00 36.26 LIG 0.20  C 
BRANCH 27 28
ATOM     28 OG   SER F 170      -7.155   8.201  39.142  1.00 19.66 LIG-0.40  OA
ATOM     29 HG   SER F 170      -7.182   8.963  39.494  1.00 19.66 LIG 0.21  HD
ENDBRANCH 27 28
ENDBRANCH 24 27
ENDBRANCH 21 24
ENDBRANCH 19 20
BRANCH 19 30
ATOM     30  CB  ARG F 169      -5.594  11.990  40.532  1.00 32.99 LIG 0.04  C 
BRANCH 30 31
ATOM     31  CG  ARG F 169      -4.823  10.797  41.073  1.00 34.51 LIG 0.02  C 
BRANCH 31 32
ATOM     32  CD  ARG F 169      -5.327  10.472  42.493  1.00 39.71 LIG 0.14  C 
BRANCH 32 33
ATOM     33  NE  ARG F 169      -6.219   9.314  42.467  1.00 37.23 LIG-0.23  N 
ATOM     34  CZ  ARG F 169      -7.316   9.165  43.207  1.00 33.71 LIG 0.67  C 
ATOM     35  NH2 ARG F 169      -8.032   8.056  43.069  1.00 35.73 LIG-0.23  N 
ATOM     36  NH1 ARG F 169      -7.700  10.107  44.075  1.00 22.18 LIG-0.23  N 
ATOM     37 2HH2 ARG F 169      -8.744   7.942  43.538  1.00 35.73 LIG 0.17  HD
ATOM     38 1HH2 ARG F 169      -7.784   7.451  42.510  1.00 35.73 LIG 0.17  HD
ATOM     39 1HH1 ARG F 169      -7.236  10.826  44.163  1.00 22.18 LIG 0.17  HD
ATOM     40 2HH1 ARG F 169      -8.412   9.995  44.546  1.00 22.18 LIG 0.17  HD
ATOM     41 HE   ARG F 169      -6.019   8.675  41.928  1.00 37.23 LIG 0.18  HD
ENDBRANCH 32 33
ENDBRANCH 31 32
ENDBRANCH 30 31
ENDBRANCH 19 30
ENDBRANCH 17 19
ENDBRANCH 6 15
ENDBRANCH 3 6
ENDBRANCH 1 2
BRANCH 1 42
ATOM     42  CB  ARG F 167      -4.143  19.285  39.720  1.00 34.27 LIG 0.04  C 
BRANCH 42 43
ATOM     43  CG  ARG F 167      -5.239  20.266  40.085  1.00 36.76 LIG 0.02  C 
BRANCH 43 44
ATOM     44  CD  ARG F 167      -6.146  19.680  41.130  1.00 47.53 LIG 0.14  C 
BRANCH 44 45
ATOM     45  NE  ARG F 167      -5.383  18.987  42.159  1.00 46.15 LIG-0.23  N 
ATOM     46 HE   ARG F 167      -4.880  19.454  42.677  1.00 46.15 LIG 0.18  HD
ATOM     47  CZ  ARG F 167      -5.424  17.674  42.337  1.00 54.25 LIG 0.67  C 
ATOM     48  NH2 ARG F 167      -4.705  17.104  43.300  1.00 44.38 LIG-0.23  N 
ATOM     49  NH1 ARG F 167      -6.188  16.933  41.540  1.00 45.80 LIG-0.23  N 
ATOM     50 1HH2 ARG F 167      -4.211  17.588  43.810  1.00 44.38 LIG 0.17  HD
ATOM     51 2HH2 ARG F 167      -4.735  16.252  43.412  1.00 44.38 LIG 0.17  HD
ATOM     52 2HH1 ARG F 167      -6.221  16.081  41.647  1.00 45.80 LIG 0.17  HD
ATOM     53 1HH1 ARG F 167      -6.649  17.307  40.917  1.00 45.80 LIG 0.17  HD
ENDBRANCH 44 45
ENDBRANCH 43 44
ENDBRANCH 42 43
ENDBRANCH 1 42
BRANCH 1 54
ATOM     54  N   ARG F 167      -4.285  20.075  37.378  1.00 32.00 LIG-0.35  N 
ATOM     55 H    ARG F 167      -5.098  20.238  37.148  1.00 32.00 LIG 0.16  HD
ATOM     56  C   GLN F 166      -3.250  20.819  36.991  1.00 42.00 LIG 0.24  C 
ATOM     57 O    GLN F 166      -2.094  20.642  37.388  1.00 37.97 LIG-0.27  OA
BRANCH 56 58
ATOM     58  CA  GLN F 166      -3.583  21.936  36.017  1.00 41.36 LIG 0.18  C 
BRANCH 58 59
ATOM     59  CB  GLN F 166      -3.166  23.279  36.629  1.00 34.92 LIG 0.04  C 
BRANCH 59 60
ATOM     60  CG  GLN F 166      -2.464  24.221  35.684  1.00 32.73 LIG 0.10  C 
BRANCH 60 61
ATOM     61  CD  GLN F 166      -1.146  23.651  35.196  1.00 43.28 LIG 0.21  C 
ATOM     62  NE2 GLN F 166      -1.204  22.829  34.153  1.00 36.91 LIG-0.37  N 
ATOM     63 21HE GLN F 166      -1.962  22.648  33.789  1.00 36.91 LIG 0.16  HD
ATOM     64 22HE GLN F 166      -0.483  22.479  33.841  1.00 36.91 LIG 0.16  HD
ATOM     65 OE1  GLN F 166      -0.085  23.945  35.755  1.00 42.55 LIG-0.27  OA
ENDBRANCH 60 61
ENDBRANCH 59 60
ENDBRANCH 58 59
BRANCH 58 66
ATOM     66  N   GLN F 166      -5.003  21.885  35.705  1.00 35.11 LIG-0.35  N 
ATOM     67  C   THR F 165      -5.518  22.490  34.638  1.00 35.16 LIG 0.24  C 
ATOM     68 O    THR F 165      -4.835  23.195  33.884  1.00 30.91 LIG-0.27  OA
ATOM     69 H    GLN F 166      -5.471  21.434  36.268  1.00 35.11 LIG 0.16  HD
BRANCH 67 70
ATOM     70  CA  THR F 165      -7.001  22.298  34.352  1.00 44.00 LIG 0.20  C 
BRANCH 70 71
ATOM     71  CB  THR F 165      -7.196  21.140  33.366  1.00 46.85 LIG 0.15  C 
ATOM     72  CG2 THR F 165      -7.240  19.806  34.113  1.00 37.95 LIG 0.04  C 
BRANCH 71 73
ATOM     73 OG1  THR F 165      -8.410  21.337  32.629  1.00 45.14 LIG-0.39  OA
ATOM     74 HG1  THR F 165      -8.411  22.105  32.289  1.00 45.14 LIG 0.21  HD
ENDBRANCH 71 73
ENDBRANCH 70 71
BRANCH 70 75
ATOM     75  N   THR F 165      -7.629  23.513  33.845  1.00 38.01 LIG-0.34  N 
ATOM     76 H    THR F 165      -7.139  23.960  33.298  1.00 38.01 LIG 0.16  HD
ATOM     77  C   THR F 164      -8.858  23.881  34.208  1.00 57.69 LIG 0.26  C 
ATOM     78 O    THR F 164      -9.549  23.225  34.994  1.00 49.67 LIG-0.27  OA
BRANCH 77 79
ATOM     79  CA  THR F 164      -9.382  25.185  33.598  1.00 56.73 LIG 0.43  C 
ATOM     80  N   THR F 164      -8.433  26.275  33.807  1.00 65.32 LIG 0.62  N 
BRANCH 79 81
ATOM     81  CB  THR F 164      -9.684  24.973  32.090  1.00 58.05 LIG 0.16  C 
ATOM     82  CG2 THR F 164      -8.789  25.871  31.238  1.00 51.52 LIG 0.04  C 
BRANCH 81 83
ATOM     83 OG1  THR F 164      -9.461  23.603  31.731  1.00 58.15 LIG-0.39  OA
ATOM     84 HG1  THR F 164      -8.882  23.563  31.123  1.00 58.15 LIG 0.21  HD
ENDBRANCH 81 83
ENDBRANCH 79 81
ENDBRANCH 77 79
ENDBRANCH 70 75
ENDBRANCH 67 70
ENDBRANCH 58 66
ENDBRANCH 56 58
ENDBRANCH 1 54
TORSDOF 35
ENDMDL
MODEL 10
USER: ADFR SOLUTION from run 152
USER: SCORE 26.378697 LL:  -4.382 LR: -23.415 RR:   0.000 FEB: -12.975
USER: RMSD 10.454548
USER: SEED 151
USER: STATUS 1 or 2 clusters left
USER: GENES 37
USER: genes 0 Translation |==|  0.48769 0.57057 0.47972
USER: genes 1 Rotation |==|  0.03591 0.49324 0.31495 0.51826
USER: genes 2 Torsion [N]-CA--C-[N] |==|  0.47773
USER: genes 3 Torsion [C]-N--CA-[C] |==|  0.19259
USER: genes 4 Torsion [N]-CA--CB-[CG] |==|  0.71778
USER: genes 5 Torsion [CA]-CB--CG-[CD] |==|  0.07640
USER: genes 6 Torsion [CB]-CG--CD-[CE] |==|  0.65856
USER: genes 7 Torsion [CG]-CD--CE-[NZ] |==|  0.11576
USER: genes 8 Torsion [CD]-CE--NZ-[HZ3] |==|  0.55559
USER: genes 9 Torsion [N]-CA--C-[N] |==|  0.73232
USER: genes 10 Torsion [C]-N--CA-[C] |==|  0.68200
USER: genes 11 Torsion [N]-CA--C-[N] |==|  0.38460
USER: genes 12 Torsion [C]-N--CA-[C] |==|  0.11451
USER: genes 13 Torsion [N]-CA--C-[O] |==|  0.25946
USER: genes 14 Torsion [N]-CA--CB-[OG] |==|  0.60974
USER: genes 15 Torsion [CA]-CB--OG-[HG] |==|  0.41165
USER: genes 16 Torsion [N]-CA--CB-[CG] |==|  0.72000
USER: genes 17 Torsion [CA]-CB--CG-[CD] |==|  0.16164
USER: genes 18 Torsion [CB]-CG--CD-[NE] |==|  0.36136
USER: genes 19 Torsion [CG]-CD--NE-[CZ] |==|  0.19602
USER: genes 20 Torsion [C]-CA--CB-[CG] |==|  0.48034
USER: genes 21 Torsion [CA]-CB--CG-[CD] |==|  0.53876
USER: genes 22 Torsion [CB]-CG--CD-[NE] |==|  0.65713
USER: genes 23 Torsion [CG]-CD--NE-[CZ] |==|  0.19007
USER: genes 24 Torsion [C]-CA--N-[C] |==|  0.78327
USER: genes 25 Torsion [N]-C--CA-[N] |==|  0.45139
USER: genes 26 Torsion [C]-CA--CB-[CG] |==|  0.26025
USER: genes 27 Torsion [CA]-CB--CG-[CD] |==|  0.73476
USER: genes 28 Torsion [CB]-CG--CD-[NE2] |==|  0.31541
USER: genes 29 Torsion [C]-CA--N-[C] |==|  0.79711
USER: genes 30 Torsion [N]-C--CA-[N] |==|  0.41193
USER: genes 31 Torsion [C]-CA--CB-[CG2] |==|  0.31551
USER: genes 32 Torsion [CA]-CB--OG1-[HG1] |==|  0.18946
USER: genes 33 Torsion [C]-CA--N-[C] |==|  0.68915
USER: genes 34 Torsion [N]-C--CA-[N] |==|  0.46958
USER: genes 35 Torsion [C]-CA--CB-[OG1] |==|  0.16022
USER: genes 36 Torsion [CA]-CB--OG1-[HG1] |==|  0.10223
ROOT
ATOM      1  CA  ARG F 167      -1.516  19.909  38.269  1.00 38.85 LIG 0.18  C 
ENDROOT
BRANCH 1 2
ATOM      2  C   ARG F 167      -1.710  21.248  37.579  1.00 41.97 LIG 0.24  C 
ATOM      3  N   LYS F 168      -2.362  21.212  36.415  1.00 42.42 LIG-0.35  N 
ATOM      4 H    LYS F 168      -2.597  20.492  36.007  1.00 42.42 LIG 0.16  HD
ATOM      5 O    ARG F 167      -1.271  22.288  38.077  1.00 34.60 LIG-0.27  OA
BRANCH 3 6
ATOM      6  CA  LYS F 168      -2.727  22.452  35.744  1.00 39.35 LIG 0.18  C 
BRANCH 6 7
ATOM      7  CB  LYS F 168      -3.493  23.379  36.691  1.00 43.51 LIG 0.04  C 
BRANCH 7 8
ATOM      8  CG  LYS F 168      -4.995  23.388  36.478  1.00 39.69 LIG 0.00  C 
BRANCH 8 9
ATOM      9  CD  LYS F 168      -5.501  22.071  35.894  1.00 48.24 LIG 0.03  C 
BRANCH 9 10
ATOM     10  CE  LYS F 168      -6.253  22.282  34.577  1.00 54.37 LIG 0.23  C 
BRANCH 10 11
ATOM     11  NZ  LYS F 168      -5.603  23.279  33.666  1.00 52.23 LIG-0.08  N 
ATOM     12 HZ3  LYS F 168      -6.200  23.576  33.076  1.00 52.23 LIG 0.27  HD
ATOM     13 HZ1  LYS F 168      -5.294  23.963  34.145  1.00 52.23 LIG 0.27  HD
ATOM     14 HZ2  LYS F 168      -4.928  22.891  33.235  1.00 52.23 LIG 0.27  HD
ENDBRANCH 10 11
ENDBRANCH 9 10
ENDBRANCH 8 9
ENDBRANCH 7 8
ENDBRANCH 6 7
BRANCH 6 15
ATOM     15  C   LYS F 168      -1.472  23.145  35.227  1.00 30.99 LIG 0.24  C 
ATOM     16 O    LYS F 168      -0.990  22.854  34.127  1.00 32.09 LIG-0.27  OA
ATOM     17  N   ARG F 169      -0.965  24.095  36.008  1.00 23.74 LIG-0.35  N 
ATOM     18 H    ARG F 169      -1.304  24.345  36.758  1.00 23.74 LIG 0.16  HD
BRANCH 17 19
ATOM     19  CA  ARG F 169       0.249  24.795  35.615  1.00 28.77 LIG 0.18  C 
BRANCH 19 20
ATOM     20  C   ARG F 169       1.375  24.476  36.594  1.00 37.10 LIG 0.24  C 
ATOM     21  N   SER F 170       2.567  24.263  36.039  1.00 32.48 LIG-0.34  N 
ATOM     22 H    SER F 170       2.739  24.423  35.211  1.00 32.48 LIG 0.16  HD
ATOM     23 O    ARG F 169       1.169  24.391  37.812  1.00 33.53 LIG-0.27  OA
BRANCH 21 24
ATOM     24  CA  SER F 170       3.706  23.731  36.788  1.00 32.11 LIG 0.19  C 
BRANCH 24 25
ATOM     25  C   SER F 170       3.311  22.602  37.749  1.00 36.47 LIG 0.22  C 
ATOM     26 O    SER F 170       3.378  21.422  37.403  1.00 35.83 LIG-0.29  OA
ENDBRANCH 24 25
BRANCH 24 27
ATOM     27  CB  SER F 170       4.388  24.865  37.562  1.00 36.26 LIG 0.20  C 
BRANCH 27 28
ATOM     28 OG   SER F 170       5.803  24.719  37.526  1.00 19.66 LIG-0.40  OA
ATOM     29 HG   SER F 170       6.164  25.477  37.540  1.00 19.66 LIG 0.21  HD
ENDBRANCH 27 28
ENDBRANCH 24 27
ENDBRANCH 21 24
ENDBRANCH 19 20
BRANCH 19 30
ATOM     30  CB  ARG F 169       0.001  26.307  35.523  1.00 32.99 LIG 0.04  C 
BRANCH 30 31
ATOM     31  CG  ARG F 169      -0.206  26.888  34.133  1.00 34.51 LIG 0.02  C 
BRANCH 31 32
ATOM     32  CD  ARG F 169      -1.406  26.189  33.467  1.00 39.71 LIG 0.14  C 
BRANCH 32 33
ATOM     33  NE  ARG F 169      -2.336  27.176  32.924  1.00 37.23 LIG-0.23  N 
ATOM     34  CZ  ARG F 169      -2.112  27.950  31.863  1.00 33.71 LIG 0.67  C 
ATOM     35  NH2 ARG F 169      -3.058  28.800  31.483  1.00 35.73 LIG-0.23  N 
ATOM     36  NH1 ARG F 169      -0.961  27.881  31.185  1.00 22.18 LIG-0.23  N 
ATOM     37 2HH2 ARG F 169      -2.931  29.307  30.800  1.00 35.73 LIG 0.17  HD
ATOM     38 1HH2 ARG F 169      -3.797  28.843  31.920  1.00 35.73 LIG 0.17  HD
ATOM     39 1HH1 ARG F 169      -0.349  27.329  31.432  1.00 22.18 LIG 0.17  HD
ATOM     40 2HH1 ARG F 169      -0.833  28.388  30.502  1.00 22.18 LIG 0.17  HD
ATOM     41 HE   ARG F 169      -3.093  27.266  33.323  1.00 37.23 LIG 0.18  HD
ENDBRANCH 32 33
ENDBRANCH 31 32
ENDBRANCH 30 31
ENDBRANCH 19 30
ENDBRANCH 17 19
ENDBRANCH 6 15
ENDBRANCH 3 6
ENDBRANCH 1 2
BRANCH 1 42
ATOM     42  CB  ARG F 167      -2.875  19.335  38.687  1.00 34.27 LIG 0.04  C 
BRANCH 42 43
ATOM     43  CG  ARG F 167      -2.786  17.923  39.230  1.00 36.76 LIG 0.02  C 
BRANCH 43 44
ATOM     44  CD  ARG F 167      -4.151  17.297  39.302  1.00 47.53 LIG 0.14  C 
BRANCH 44 45
ATOM     45  NE  ARG F 167      -4.452  16.848  40.654  1.00 46.15 LIG-0.23  N 
ATOM     46 HE   ARG F 167      -4.505  16.003  40.801  1.00 46.15 LIG 0.18  HD
ATOM     47  CZ  ARG F 167      -4.649  17.677  41.671  1.00 54.25 LIG 0.67  C 
ATOM     48  NH2 ARG F 167      -4.916  17.201  42.883  1.00 44.38 LIG-0.23  N 
ATOM     49  NH1 ARG F 167      -4.581  18.988  41.463  1.00 45.80 LIG-0.23  N 
ATOM     50 1HH2 ARG F 167      -4.962  16.352  43.011  1.00 44.38 LIG 0.17  HD
ATOM     51 2HH2 ARG F 167      -5.043  17.742  43.539  1.00 44.38 LIG 0.17  HD
ATOM     52 2HH1 ARG F 167      -4.707  19.534  42.115  1.00 45.80 LIG 0.17  HD
ATOM     53 1HH1 ARG F 167      -4.410  19.291  40.676  1.00 45.80 LIG 0.17  HD
ENDBRANCH 44 45
ENDBRANCH 43 44
ENDBRANCH 42 43
ENDBRANCH 1 42
BRANCH 1 54
ATOM     54  N   ARG F 167      -0.633  20.099  39.409  1.00 32.00 LIG-0.35  N 
ATOM     55 H    ARG F 167      -1.042  20.128  40.166  1.00 32.00 LIG 0.16  HD
ATOM     56  C   GLN F 166       0.688  20.216  39.285  1.00 42.00 LIG 0.24  C 
ATOM     57 O    GLN F 166       1.288  20.088  38.213  1.00 37.97 LIG-0.27  OA
BRANCH 56 58
ATOM     58  CA  GLN F 166       1.437  20.511  40.573  1.00 41.36 LIG 0.18  C 
BRANCH 58 59
ATOM     59  CB  GLN F 166       1.205  21.975  40.967  1.00 34.92 LIG 0.04  C 
BRANCH 59 60
ATOM     60  CG  GLN F 166       0.062  22.206  41.924  1.00 32.73 LIG 0.10  C 
BRANCH 60 61
ATOM     61  CD  GLN F 166      -1.216  22.576  41.196  1.00 43.28 LIG 0.21  C 
ATOM     62  NE2 GLN F 166      -2.213  21.699  41.260  1.00 36.91 LIG-0.37  N 
ATOM     63 21HE GLN F 166      -2.114  20.967  41.701  1.00 36.91 LIG 0.16  HD
ATOM     64 22HE GLN F 166      -2.957  21.864  40.861  1.00 36.91 LIG 0.16  HD
ATOM     65 OE1  GLN F 166      -1.304  23.642  40.578  1.00 42.55 LIG-0.27  OA
ENDBRANCH 60 61
ENDBRANCH 59 60
ENDBRANCH 58 59
BRANCH 58 66
ATOM     66  N   GLN F 166       2.847  20.205  40.382  1.00 35.11 LIG-0.35  N 
ATOM     67  C   THR F 165       3.299  18.957  40.311  1.00 35.16 LIG 0.24  C 
ATOM     68 O    THR F 165       2.562  17.976  40.478  1.00 30.91 LIG-0.27  OA
ATOM     69 H    GLN F 166       3.352  20.898  40.320  1.00 35.11 LIG 0.16  HD
BRANCH 67 70
ATOM     70  CA  THR F 165       4.778  18.746  40.017  1.00 44.00 LIG 0.20  C 
BRANCH 70 71
ATOM     71  CB  THR F 165       5.005  18.695  38.502  1.00 46.85 LIG 0.15  C 
ATOM     72  CG2 THR F 165       5.828  19.900  38.045  1.00 37.95 LIG 0.04  C 
BRANCH 71 73
ATOM     73 OG1  THR F 165       5.678  17.476  38.159  1.00 45.14 LIG-0.39  OA
ATOM     74 HG1  THR F 165       5.164  16.825  38.289  1.00 45.14 LIG 0.21  HD
ENDBRANCH 71 73
ENDBRANCH 70 71
BRANCH 70 75
ATOM     75  N   THR F 165       5.303  17.544  40.654  1.00 38.01 LIG-0.34  N 
ATOM     76 H    THR F 165       4.993  16.810  40.331  1.00 38.01 LIG 0.16  HD
ATOM     77  C   THR F 164       6.188  17.598  41.651  1.00 57.69 LIG 0.26  C 
ATOM     78 O    THR F 164       6.624  18.662  42.102  1.00 49.67 LIG-0.27  OA
BRANCH 77 79
ATOM     79  CA  THR F 164       6.645  16.253  42.225  1.00 56.73 LIG 0.43  C 
ATOM     80  N   THR F 164       7.788  16.430  43.116  1.00 65.32 LIG 0.62  N 
BRANCH 79 81
ATOM     81  CB  THR F 164       5.458  15.563  42.949  1.00 58.05 LIG 0.16  C 
ATOM     82  CG2 THR F 164       4.999  16.406  44.137  1.00 51.52 LIG 0.04  C 
BRANCH 81 83
ATOM     83 OG1  THR F 164       4.362  15.386  42.041  1.00 58.15 LIG-0.39  OA
ATOM     84 HG1  THR F 164       4.658  15.199  41.278  1.00 58.15 LIG 0.21  HD
ENDBRANCH 81 83
ENDBRANCH 79 81
ENDBRANCH 77 79
ENDBRANCH 70 75
ENDBRANCH 67 70
ENDBRANCH 58 66
ENDBRANCH 56 58
ENDBRANCH 1 54
TORSDOF 35
ENDMDL
MODEL 11
USER: ADFR SOLUTION from run 36
USER: SCORE 26.571508 LL:  -4.855 LR: -23.295 RR:   0.000 FEB: -12.854
USER: RMSD 11.615714
USER: SEED 35
USER: STATUS no improvement in best in 6 clusters for 5 generations
USER: GENES 37
USER: genes 0 Translation |==|  0.40938 0.57393 0.43789
USER: genes 1 Rotation |==|  0.22047 0.70556 0.15260 0.59448
USER: genes 2 Torsion [N]-CA--C-[N] |==|  0.41715
USER: genes 3 Torsion [C]-N--CA-[C] |==|  0.65151
USER: genes 4 Torsion [N]-CA--CB-[CG] |==|  0.99144
USER: genes 5 Torsion [CA]-CB--CG-[CD] |==|  0.55394
USER: genes 6 Torsion [CB]-CG--CD-[CE] |==|  0.30923
USER: genes 7 Torsion [CG]-CD--CE-[NZ] |==|  0.00658
USER: genes 8 Torsion [CD]-CE--NZ-[HZ3] |==|  0.16187
USER: genes 9 Torsion [N]-CA--C-[N] |==|  0.88889
USER: genes 10 Torsion [C]-N--CA-[C] |==|  0.19657
USER: genes 11 Torsion [N]-CA--C-[N] |==|  0.00093
USER: genes 12 Torsion [C]-N--CA-[C] |==|  0.57161
USER: genes 13 Torsion [N]-CA--C-[O] |==|  0.96474
USER: genes 14 Torsion [N]-CA--CB-[OG] |==|  0.92891
USER: genes 15 Torsion [CA]-CB--OG-[HG] |==|  0.16901
USER: genes 16 Torsion [N]-CA--CB-[CG] |==|  0.57278
USER: genes 17 Torsion [CA]-CB--CG-[CD] |==|  0.71968
USER: genes 18 Torsion [CB]-CG--CD-[NE] |==|  0.39442
USER: genes 19 Torsion [CG]-CD--NE-[CZ] |==|  0.26706
USER: genes 20 Torsion [C]-CA--CB-[CG] |==|  0.00883
USER: genes 21 Torsion [CA]-CB--CG-[CD] |==|  0.32733
USER: genes 22 Torsion [CB]-CG--CD-[NE] |==|  0.28423
USER: genes 23 Torsion [CG]-CD--NE-[CZ] |==|  0.68732
USER: genes 24 Torsion [C]-CA--N-[C] |==|  0.80534
USER: genes 25 Torsion [N]-C--CA-[N] |==|  0.82586
USER: genes 26 Torsion [C]-CA--CB-[CG] |==|  0.17676
USER: genes 27 Torsion [CA]-CB--CG-[CD] |==|  0.29561
USER: genes 28 Torsion [CB]-CG--CD-[NE2] |==|  0.03808
USER: genes 29 Torsion [C]-CA--N-[C] |==|  0.20940
USER: genes 30 Torsion [N]-C--CA-[N] |==|  0.87810
USER: genes 31 Torsion [C]-CA--CB-[CG2] |==|  0.36422
USER: genes 32 Torsion [CA]-CB--OG1-[HG1] |==|  0.15724
USER: genes 33 Torsion [C]-CA--N-[C] |==|  0.81904
USER: genes 34 Torsion [N]-C--CA-[N] |==|  0.56426
USER: genes 35 Torsion [C]-CA--CB-[OG1] |==|  0.86294
USER: genes 36 Torsion [CA]-CB--OG1-[HG1] |==|  0.29825
ROOT
ATOM      1  CA  ARG F 167      -3.454  20.003  37.453  1.00 38.85 LIG 0.18  C 
ENDROOT
BRANCH 1 2
ATOM      2  C   ARG F 167      -2.571  21.050  38.107  1.00 41.97 LIG 0.24  C 
ATOM      3  N   LYS F 168      -1.531  21.466  37.383  1.00 42.42 LIG-0.35  N 
ATOM      4 H    LYS F 168      -1.291  21.128  36.629  1.00 42.42 LIG 0.16  HD
ATOM      5 O    ARG F 167      -2.814  21.465  39.244  1.00 34.60 LIG-0.27  OA
BRANCH 3 6
ATOM      6  CA  LYS F 168      -0.706  22.570  37.856  1.00 39.35 LIG 0.18  C 
BRANCH 6 7
ATOM      7  CB  LYS F 168       0.698  22.085  38.220  1.00 43.51 LIG 0.04  C 
BRANCH 7 8
ATOM      8  CG  LYS F 168       0.898  20.588  38.085  1.00 39.69 LIG 0.00  C 
BRANCH 8 9
ATOM      9  CD  LYS F 168       2.103  20.094  38.882  1.00 48.24 LIG 0.03  C 
BRANCH 9 10
ATOM     10  CE  LYS F 168       1.683  19.227  40.072  1.00 54.37 LIG 0.23  C 
BRANCH 10 11
ATOM     11  NZ  LYS F 168       0.204  19.007  40.164  1.00 52.23 LIG-0.08  N 
ATOM     12 HZ3  LYS F 168      -0.086  18.622  39.415  1.00 52.23 LIG 0.27  HD
ATOM     13 HZ1  LYS F 168       0.025  18.478  40.857  1.00 52.23 LIG 0.27  HD
ATOM     14 HZ2  LYS F 168      -0.207  19.789  40.274  1.00 52.23 LIG 0.27  HD
ENDBRANCH 10 11
ENDBRANCH 9 10
ENDBRANCH 8 9
ENDBRANCH 7 8
ENDBRANCH 6 7
BRANCH 6 15
ATOM     15  C   LYS F 168      -0.631  23.651  36.784  1.00 30.99 LIG 0.24  C 
ATOM     16 O    LYS F 168      -0.643  24.850  37.085  1.00 32.09 LIG-0.27  OA
ATOM     17  N   ARG F 169      -0.513  23.223  35.530  1.00 23.74 LIG-0.35  N 
ATOM     18 H    ARG F 169      -0.461  22.397  35.297  1.00 23.74 LIG 0.16  HD
BRANCH 17 19
ATOM     19  CA  ARG F 169      -0.463  24.178  34.433  1.00 28.77 LIG 0.18  C 
BRANCH 19 20
ATOM     20  C   ARG F 169       0.864  24.930  34.455  1.00 37.10 LIG 0.24  C 
ATOM     21  N   SER F 170       1.698  24.580  35.433  1.00 32.48 LIG-0.34  N 
ATOM     22 H    SER F 170       1.576  23.894  35.936  1.00 32.48 LIG 0.16  HD
ATOM     23 O    ARG F 169       1.116  25.823  33.635  1.00 33.53 LIG-0.27  OA
BRANCH 21 24
ATOM     24  CA  SER F 170       2.912  25.336  35.746  1.00 32.11 LIG 0.19  C 
BRANCH 24 25
ATOM     25  C   SER F 170       3.992  24.476  36.414  1.00 36.47 LIG 0.22  C 
ATOM     26 O    SER F 170       3.732  23.353  36.847  1.00 35.83 LIG-0.29  OA
ENDBRANCH 24 25
BRANCH 24 27
ATOM     27  CB  SER F 170       2.559  26.528  36.644  1.00 36.26 LIG 0.20  C 
BRANCH 27 28
ATOM     28 OG   SER F 170       1.205  26.921  36.451  1.00 19.66 LIG-0.40  OA
ATOM     29 HG   SER F 170       0.697  26.283  36.651  1.00 19.66 LIG 0.21  HD
ENDBRANCH 27 28
ENDBRANCH 24 27
ENDBRANCH 21 24
ENDBRANCH 19 20
BRANCH 19 30
ATOM     30  CB  ARG F 169      -1.653  25.144  34.496  1.00 32.99 LIG 0.04  C 
BRANCH 30 31
ATOM     31  CG  ARG F 169      -2.106  25.767  33.185  1.00 34.51 LIG 0.02  C 
BRANCH 31 32
ATOM     32  CD  ARG F 169      -1.557  27.203  33.092  1.00 39.71 LIG 0.14  C 
BRANCH 32 33
ATOM     33  NE  ARG F 169      -1.153  27.508  31.721  1.00 37.23 LIG-0.23  N 
ATOM     34  CZ  ARG F 169      -1.898  28.142  30.816  1.00 33.71 LIG 0.67  C 
ATOM     35  NH2 ARG F 169      -1.391  28.352  29.608  1.00 35.73 LIG-0.23  N 
ATOM     36  NH1 ARG F 169      -3.134  28.562  31.108  1.00 22.18 LIG-0.23  N 
ATOM     37 2HH2 ARG F 169      -1.857  28.760  29.011  1.00 35.73 LIG 0.17  HD
ATOM     38 1HH2 ARG F 169      -0.596  28.081  29.422  1.00 35.73 LIG 0.17  HD
ATOM     39 1HH1 ARG F 169      -3.461  28.426  31.892  1.00 22.18 LIG 0.17  HD
ATOM     40 2HH1 ARG F 169      -3.601  28.970  30.512  1.00 22.18 LIG 0.17  HD
ATOM     41 HE   ARG F 169      -0.367  27.258  31.477  1.00 37.23 LIG 0.18  HD
ENDBRANCH 32 33
ENDBRANCH 31 32
ENDBRANCH 30 31
ENDBRANCH 19 30
ENDBRANCH 17 19
ENDBRANCH 6 15
ENDBRANCH 3 6
ENDBRANCH 1 2
BRANCH 1 42
ATOM     42  CB  ARG F 167      -4.530  20.685  36.598  1.00 34.27 LIG 0.04  C 
BRANCH 42 43
ATOM     43  CG  ARG F 167      -4.396  22.194  36.560  1.00 36.76 LIG 0.02  C 
BRANCH 43 44
ATOM     44  CD  ARG F 167      -4.140  22.666  35.156  1.00 47.53 LIG 0.14  C 
BRANCH 44 45
ATOM     45  NE  ARG F 167      -5.350  23.215  34.559  1.00 46.15 LIG-0.23  N 
ATOM     46 HE   ARG F 167      -5.667  23.947  34.880  1.00 46.15 LIG 0.18  HD
ATOM     47  CZ  ARG F 167      -5.986  22.645  33.545  1.00 54.25 LIG 0.67  C 
ATOM     48  NH2 ARG F 167      -7.084  23.202  33.042  1.00 44.38 LIG-0.23  N 
ATOM     49  NH1 ARG F 167      -5.516  21.508  33.040  1.00 45.80 LIG-0.23  N 
ATOM     50 1HH2 ARG F 167      -7.384  23.935  33.375  1.00 44.38 LIG 0.17  HD
ATOM     51 2HH2 ARG F 167      -7.493  22.828  32.385  1.00 44.38 LIG 0.17  HD
ATOM     52 2HH1 ARG F 167      -5.922  21.130  32.383  1.00 45.80 LIG 0.17  HD
ATOM     53 1HH1 ARG F 167      -4.808  21.150  33.371  1.00 45.80 LIG 0.17  HD
ENDBRANCH 44 45
ENDBRANCH 43 44
ENDBRANCH 42 43
ENDBRANCH 1 42
BRANCH 1 54
ATOM     54  N   ARG F 167      -4.036  19.171  38.494  1.00 32.00 LIG-0.35  N 
ATOM     55 H    ARG F 167      -4.882  19.287  38.602  1.00 32.00 LIG 0.16  HD
ATOM     56  C   GLN F 166      -3.318  18.309  39.213  1.00 42.00 LIG 0.24  C 
ATOM     57 O    GLN F 166      -2.123  18.074  39.005  1.00 37.97 LIG-0.27  OA
BRANCH 56 58
ATOM     58  CA  GLN F 166      -4.074  17.602  40.324  1.00 41.36 LIG 0.18  C 
BRANCH 58 59
ATOM     59  CB  GLN F 166      -5.228  16.797  39.714  1.00 34.92 LIG 0.04  C 
BRANCH 59 60
ATOM     60  CG  GLN F 166      -4.811  15.681  38.791  1.00 32.73 LIG 0.10  C 
BRANCH 60 61
ATOM     61  CD  GLN F 166      -4.997  14.319  39.433  1.00 43.28 LIG 0.21  C 
ATOM     62  NE2 GLN F 166      -5.733  14.279  40.539  1.00 36.91 LIG-0.37  N 
ATOM     63 21HE GLN F 166      -6.077  15.002  40.853  1.00 36.91 LIG 0.16  HD
ATOM     64 22HE GLN F 166      -5.865  13.529  40.940  1.00 36.91 LIG 0.16  HD
ATOM     65 OE1  GLN F 166      -4.480  13.313  38.939  1.00 42.55 LIG-0.27  OA
ENDBRANCH 60 61
ENDBRANCH 59 60
ENDBRANCH 58 59
BRANCH 58 66
ATOM     66  N   GLN F 166      -4.535  18.590  41.287  1.00 35.11 LIG-0.35  N 
ATOM     67  C   THR F 165      -5.567  19.391  41.044  1.00 35.16 LIG 0.24  C 
ATOM     68 O    THR F 165      -6.156  19.399  39.955  1.00 30.91 LIG-0.27  OA
ATOM     69 H    GLN F 166      -4.082  18.607  42.018  1.00 35.11 LIG 0.16  HD
BRANCH 67 70
ATOM     70  CA  THR F 165      -6.026  20.327  42.154  1.00 44.00 LIG 0.20  C 
BRANCH 70 71
ATOM     71  CB  THR F 165      -5.110  21.553  42.215  1.00 46.85 LIG 0.15  C 
ATOM     72  CG2 THR F 165      -5.939  22.838  42.255  1.00 37.95 LIG 0.04  C 
BRANCH 71 73
ATOM     73 OG1  THR F 165      -4.270  21.468  43.375  1.00 45.14 LIG-0.39  OA
ATOM     74 HG1  THR F 165      -3.837  20.749  43.355  1.00 45.14 LIG 0.21  HD
ENDBRANCH 71 73
ENDBRANCH 70 71
BRANCH 70 75
ATOM     75  N   THR F 165      -6.079  19.662  43.452  1.00 38.01 LIG-0.34  N 
ATOM     76 H    THR F 165      -5.518  19.969  44.027  1.00 38.01 LIG 0.16  HD
ATOM     77  C   THR F 164      -6.929  18.667  43.706  1.00 57.69 LIG 0.26  C 
ATOM     78 O    THR F 164      -7.730  18.239  42.867  1.00 49.67 LIG-0.27  OA
BRANCH 77 79
ATOM     79  CA  THR F 164      -6.864  18.063  45.112  1.00 56.73 LIG 0.43  C 
ATOM     80  N   THR F 164      -7.396  16.703  45.118  1.00 65.32 LIG 0.62  N 
BRANCH 79 81
ATOM     81  CB  THR F 164      -5.402  18.105  45.633  1.00 58.05 LIG 0.16  C 
ATOM     82  CG2 THR F 164      -5.273  17.292  46.919  1.00 51.52 LIG 0.04  C 
BRANCH 81 83
ATOM     83 OG1  THR F 164      -4.511  17.573  44.643  1.00 58.15 LIG-0.39  OA
ATOM     84 HG1  THR F 164      -4.068  18.198  44.299  1.00 58.15 LIG 0.21  HD
ENDBRANCH 81 83
ENDBRANCH 79 81
ENDBRANCH 77 79
ENDBRANCH 70 75
ENDBRANCH 67 70
ENDBRANCH 58 66
ENDBRANCH 56 58
ENDBRANCH 1 54
TORSDOF 35
ENDMDL
MODEL 12
USER: ADFR SOLUTION from run 119
USER: SCORE 27.410734 LL:  -4.333 LR: -23.292 RR:   0.000 FEB: -12.851
USER: RMSD 7.435117
USER: SEED 118
USER: STATUS 1 or 2 clusters left
USER: GENES 37
USER: genes 0 Translation |==|  0.36659 0.49513 0.58475
USER: genes 1 Rotation |==|  0.77524 0.66714 0.61346 0.86529
USER: genes 2 Torsion [N]-CA--C-[N] |==|  0.36606
USER: genes 3 Torsion [C]-N--CA-[C] |==|  0.80367
USER: genes 4 Torsion [N]-CA--CB-[CG] |==|  0.38065
USER: genes 5 Torsion [CA]-CB--CG-[CD] |==|  0.64339
USER: genes 6 Torsion [CB]-CG--CD-[CE] |==|  0.33586
USER: genes 7 Torsion [CG]-CD--CE-[NZ] |==|  0.79525
USER: genes 8 Torsion [CD]-CE--NZ-[HZ3] |==|  0.03960
USER: genes 9 Torsion [N]-CA--C-[N] |==|  0.33333
USER: genes 10 Torsion [C]-N--CA-[C] |==|  0.75668
USER: genes 11 Torsion [N]-CA--C-[N] |==|  0.98430
USER: genes 12 Torsion [C]-N--CA-[C] |==|  0.52411
USER: genes 13 Torsion [N]-CA--C-[O] |==|  0.29499
USER: genes 14 Torsion [N]-CA--CB-[OG] |==|  0.06851
USER: genes 15 Torsion [CA]-CB--OG-[HG] |==|  0.29694
USER: genes 16 Torsion [N]-CA--CB-[CG] |==|  0.37712
USER: genes 17 Torsion [CA]-CB--CG-[CD] |==|  0.70982
USER: genes 18 Torsion [CB]-CG--CD-[NE] |==|  0.54571
USER: genes 19 Torsion [CG]-CD--NE-[CZ] |==|  0.58636
USER: genes 20 Torsion [C]-CA--CB-[CG] |==|  0.11346
USER: genes 21 Torsion [CA]-CB--CG-[CD] |==|  0.34223
USER: genes 22 Torsion [CB]-CG--CD-[NE] |==|  0.00071
USER: genes 23 Torsion [CG]-CD--NE-[CZ] |==|  0.78116
USER: genes 24 Torsion [C]-CA--N-[C] |==|  0.85824
USER: genes 25 Torsion [N]-C--CA-[N] |==|  0.96265
USER: genes 26 Torsion [C]-CA--CB-[CG] |==|  0.33090
USER: genes 27 Torsion [CA]-CB--CG-[CD] |==|  0.65033
USER: genes 28 Torsion [CB]-CG--CD-[NE2] |==|  0.95774
USER: genes 29 Torsion [C]-CA--N-[C] |==|  0.80738
USER: genes 30 Torsion [N]-C--CA-[N] |==|  0.42178
USER: genes 31 Torsion [C]-CA--CB-[CG2] |==|  0.81640
USER: genes 32 Torsion [CA]-CB--OG1-[HG1] |==|  0.14810
USER: genes 33 Torsion [C]-CA--N-[C] |==|  0.79073
USER: genes 34 Torsion [N]-C--CA-[N] |==|  0.76715
USER: genes 35 Torsion [C]-CA--CB-[OG1] |==|  0.46609
USER: genes 36 Torsion [CA]-CB--OG1-[HG1] |==|  0.86587
ROOT
ATOM      1  CA  ARG F 167      -4.513  17.816  40.317  1.00 38.85 LIG 0.18  C 
ENDROOT
BRANCH 1 2
ATOM      2  C   ARG F 167      -4.630  16.697  39.297  1.00 41.97 LIG 0.24  C 
ATOM      3  N   LYS F 168      -4.376  15.469  39.752  1.00 42.42 LIG-0.35  N 
ATOM      4 H    LYS F 168      -4.081  15.289  40.539  1.00 42.42 LIG 0.16  HD
ATOM      5 O    ARG F 167      -4.929  16.937  38.123  1.00 34.60 LIG-0.27  OA
BRANCH 3 6
ATOM      6  CA  LYS F 168      -4.600  14.312  38.895  1.00 39.35 LIG 0.18  C 
BRANCH 6 7
ATOM      7  CB  LYS F 168      -3.958  13.058  39.492  1.00 43.51 LIG 0.04  C 
BRANCH 7 8
ATOM      8  CG  LYS F 168      -4.822  11.814  39.412  1.00 39.69 LIG 0.00  C 
BRANCH 8 9
ATOM      9  CD  LYS F 168      -4.961  11.122  40.766  1.00 48.24 LIG 0.03  C 
BRANCH 9 10
ATOM     10  CE  LYS F 168      -6.423  11.023  41.208  1.00 54.37 LIG 0.23  C 
BRANCH 10 11
ATOM     11  NZ  LYS F 168      -7.004  12.326  41.665  1.00 52.23 LIG-0.08  N 
ATOM     12 HZ3  LYS F 168      -6.470  12.993  41.415  1.00 52.23 LIG 0.27  HD
ATOM     13 HZ1  LYS F 168      -7.808  12.437  41.301  1.00 52.23 LIG 0.27  HD
ATOM     14 HZ2  LYS F 168      -7.079  12.324  42.552  1.00 52.23 LIG 0.27  HD
ENDBRANCH 10 11
ENDBRANCH 9 10
ENDBRANCH 8 9
ENDBRANCH 7 8
ENDBRANCH 6 7
BRANCH 6 15
ATOM     15  C   LYS F 168      -6.097  14.099  38.701  1.00 30.99 LIG 0.24  C 
ATOM     16 O    LYS F 168      -6.846  13.920  39.668  1.00 32.09 LIG-0.27  OA
ATOM     17  N   ARG F 169      -6.539  14.156  37.447  1.00 23.74 LIG-0.35  N 
ATOM     18 H    ARG F 169      -6.045  14.319  36.762  1.00 23.74 LIG 0.16  HD
BRANCH 17 19
ATOM     19  CA  ARG F 169      -7.947  13.936  37.157  1.00 28.77 LIG 0.18  C 
BRANCH 19 20
ATOM     20  C   ARG F 169      -8.212  12.446  36.958  1.00 37.10 LIG 0.24  C 
ATOM     21  N   SER F 170      -7.130  11.671  36.967  1.00 32.48 LIG-0.34  N 
ATOM     22 H    SER F 170      -6.350  11.949  37.201  1.00 32.48 LIG 0.16  HD
ATOM     23 O    ARG F 169      -9.357  12.012  36.770  1.00 33.53 LIG-0.27  OA
BRANCH 21 24
ATOM     24  CA  SER F 170      -7.162  10.261  36.575  1.00 32.11 LIG 0.19  C 
BRANCH 24 25
ATOM     25  C   SER F 170      -5.845   9.532  36.869  1.00 36.47 LIG 0.22  C 
ATOM     26 O    SER F 170      -5.756   8.733  37.802  1.00 35.83 LIG-0.29  OA
ENDBRANCH 24 25
BRANCH 24 27
ATOM     27  CB  SER F 170      -7.505  10.148  35.085  1.00 36.26 LIG 0.20  C 
BRANCH 27 28
ATOM     28 OG   SER F 170      -7.146  11.338  34.394  1.00 19.66 LIG-0.40  OA
ATOM     29 HG   SER F 170      -6.465  11.195  33.924  1.00 19.66 LIG 0.21  HD
ENDBRANCH 27 28
ENDBRANCH 24 27
ENDBRANCH 21 24
ENDBRANCH 19 20
BRANCH 19 30
ATOM     30  CB  ARG F 169      -8.384  14.748  35.930  1.00 32.99 LIG 0.04  C 
BRANCH 30 31
ATOM     31  CG  ARG F 169      -9.251  14.036  34.905  1.00 34.51 LIG 0.02  C 
BRANCH 31 32
ATOM     32  CD  ARG F 169      -8.393  13.685  33.674  1.00 39.71 LIG 0.14  C 
BRANCH 32 33
ATOM     33  NE  ARG F 169      -9.246  13.362  32.531  1.00 37.23 LIG-0.23  N 
ATOM     34  CZ  ARG F 169      -8.945  12.503  31.559  1.00 33.71 LIG 0.67  C 
ATOM     35  NH2 ARG F 169      -9.825  12.309  30.585  1.00 35.73 LIG-0.23  N 
ATOM     36  NH1 ARG F 169      -7.781  11.844  31.552  1.00 22.18 LIG-0.23  N 
ATOM     37 2HH2 ARG F 169      -9.649  11.758  29.949  1.00 35.73 LIG 0.17  HD
ATOM     38 1HH2 ARG F 169     -10.573  12.733  30.591  1.00 35.73 LIG 0.17  HD
ATOM     39 1HH1 ARG F 169      -7.211  11.970  32.183  1.00 22.18 LIG 0.17  HD
ATOM     40 2HH1 ARG F 169      -7.603  11.293  30.915  1.00 22.18 LIG 0.17  HD
ATOM     41 HE   ARG F 169     -10.007  13.760  32.483  1.00 37.23 LIG 0.18  HD
ENDBRANCH 32 33
ENDBRANCH 31 32
ENDBRANCH 30 31
ENDBRANCH 19 30
ENDBRANCH 17 19
ENDBRANCH 6 15
ENDBRANCH 3 6
ENDBRANCH 1 2
BRANCH 1 42
ATOM     42  CB  ARG F 167      -5.910  18.303  40.722  1.00 34.27 LIG 0.04  C 
BRANCH 42 43
ATOM     43  CG  ARG F 167      -6.908  17.176  40.902  1.00 36.76 LIG 0.02  C 
BRANCH 43 44
ATOM     44  CD  ARG F 167      -7.501  17.212  42.282  1.00 47.53 LIG 0.14  C 
BRANCH 44 45
ATOM     45  NE  ARG F 167      -6.959  18.319  43.058  1.00 46.15 LIG-0.23  N 
ATOM     46 HE   ARG F 167      -7.436  19.029  43.144  1.00 46.15 LIG 0.18  HD
ATOM     47  CZ  ARG F 167      -5.767  18.288  43.638  1.00 54.25 LIG 0.67  C 
ATOM     48  NH2 ARG F 167      -5.332  19.333  44.337  1.00 44.38 LIG-0.23  N 
ATOM     49  NH1 ARG F 167      -5.010  17.202  43.510  1.00 45.80 LIG-0.23  N 
ATOM     50 1HH2 ARG F 167      -5.825  20.032  44.414  1.00 44.38 LIG 0.17  HD
ATOM     51 2HH2 ARG F 167      -4.559  19.307  44.712  1.00 44.38 LIG 0.17  HD
ATOM     52 2HH1 ARG F 167      -4.236  17.172  43.882  1.00 45.80 LIG 0.17  HD
ATOM     53 1HH1 ARG F 167      -5.295  16.531  43.054  1.00 45.80 LIG 0.17  HD
ENDBRANCH 44 45
ENDBRANCH 43 44
ENDBRANCH 42 43
ENDBRANCH 1 42
BRANCH 1 54
ATOM     54  N   ARG F 167      -3.712  18.886  39.742  1.00 32.00 LIG-0.35  N 
ATOM     55 H    ARG F 167      -4.078  19.663  39.795  1.00 32.00 LIG 0.16  HD
ATOM     56  C   GLN F 166      -2.521  18.673  39.185  1.00 42.00 LIG 0.24  C 
ATOM     57 O    GLN F 166      -1.952  17.576  39.184  1.00 37.97 LIG-0.27  OA
BRANCH 56 58
ATOM     58  CA  GLN F 166      -1.877  19.891  38.546  1.00 41.36 LIG 0.18  C 
BRANCH 58 59
ATOM     59  CB  GLN F 166      -0.672  20.324  39.390  1.00 34.92 LIG 0.04  C 
BRANCH 59 60
ATOM     60  CG  GLN F 166       0.655  20.291  38.673  1.00 32.73 LIG 0.10  C 
BRANCH 60 61
ATOM     61  CD  GLN F 166       1.681  19.464  39.424  1.00 43.28 LIG 0.21  C 
ATOM     62  NE2 GLN F 166       1.398  19.172  40.690  1.00 36.91 LIG-0.37  N 
ATOM     63 21HE GLN F 166       0.662  19.447  41.041  1.00 36.91 LIG 0.16  HD
ATOM     64 22HE GLN F 166       1.951  18.707  41.157  1.00 36.91 LIG 0.16  HD
ATOM     65 OE1  GLN F 166       2.721  19.095  38.871  1.00 42.55 LIG-0.27  OA
ENDBRANCH 60 61
ENDBRANCH 59 60
ENDBRANCH 58 59
BRANCH 58 66
ATOM     66  N   GLN F 166      -2.874  20.944  38.422  1.00 35.11 LIG-0.35  N 
ATOM     67  C   THR F 165      -3.894  20.859  37.573  1.00 35.16 LIG 0.24  C 
ATOM     68 O    THR F 165      -4.020  19.914  36.783  1.00 30.91 LIG-0.27  OA
ATOM     69 H    GLN F 166      -2.742  21.616  38.942  1.00 35.11 LIG 0.16  HD
BRANCH 67 70
ATOM     70  CA  THR F 165      -4.932  21.973  37.587  1.00 44.00 LIG 0.20  C 
BRANCH 70 71
ATOM     71  CB  THR F 165      -5.978  21.697  38.673  1.00 46.85 LIG 0.15  C 
ATOM     72  CG2 THR F 165      -6.788  20.446  38.328  1.00 37.95 LIG 0.04  C 
BRANCH 71 73
ATOM     73 OG1  THR F 165      -5.323  21.530  39.938  1.00 45.14 LIG-0.39  OA
ATOM     74 HG1  THR F 165      -4.827  22.191  40.087  1.00 45.14 LIG 0.21  HD
ENDBRANCH 71 73
ENDBRANCH 70 71
BRANCH 70 75
ATOM     75  N   THR F 165      -5.575  22.147  36.289  1.00 38.01 LIG-0.34  N 
ATOM     76 H    THR F 165      -6.375  21.835  36.249  1.00 38.01 LIG 0.16  HD
ATOM     77  C   THR F 164      -4.959  22.740  35.266  1.00 57.69 LIG 0.26  C 
ATOM     78 O    THR F 164      -3.808  23.183  35.343  1.00 49.67 LIG-0.27  OA
BRANCH 77 79
ATOM     79  CA  THR F 164      -5.759  22.845  33.963  1.00 56.73 LIG 0.43  C 
ATOM     80  N   THR F 164      -5.650  21.613  33.187  1.00 65.32 LIG 0.62  N 
BRANCH 79 81
ATOM     81  CB  THR F 164      -7.238  23.189  34.283  1.00 58.05 LIG 0.16  C 
ATOM     82  CG2 THR F 164      -7.311  24.336  35.290  1.00 51.52 LIG 0.04  C 
BRANCH 81 83
ATOM     83 OG1  THR F 164      -7.926  23.567  33.083  1.00 58.15 LIG-0.39  OA
ATOM     84 HG1  THR F 164      -7.468  24.132  32.663  1.00 58.15 LIG 0.21  HD
ENDBRANCH 81 83
ENDBRANCH 79 81
ENDBRANCH 77 79
ENDBRANCH 70 75
ENDBRANCH 67 70
ENDBRANCH 58 66
ENDBRANCH 56 58
ENDBRANCH 1 54
TORSDOF 35
ENDMDL
MODEL 13
USER: ADFR SOLUTION from run 83
USER: SCORE 26.083540 LL:  -4.494 LR: -23.281 RR:   0.000 FEB: -12.840
USER: RMSD 11.987206
USER: SEED 82
USER: STATUS 1 or 2 clusters left
USER: GENES 37
USER: genes 0 Translation |==|  0.40080 0.53140 0.52916
USER: genes 1 Rotation |==|  0.36050 0.83416 0.84429 0.51852
USER: genes 2 Torsion [N]-CA--C-[N] |==|  0.15344
USER: genes 3 Torsion [C]-N--CA-[C] |==|  0.82961
USER: genes 4 Torsion [N]-CA--CB-[CG] |==|  0.35204
USER: genes 5 Torsion [CA]-CB--CG-[CD] |==|  0.30710
USER: genes 6 Torsion [CB]-CG--CD-[CE] |==|  0.40170
USER: genes 7 Torsion [CG]-CD--CE-[NZ] |==|  0.91626
USER: genes 8 Torsion [CD]-CE--NZ-[HZ3] |==|  0.52626
USER: genes 9 Torsion [N]-CA--C-[N] |==|  0.35812
USER: genes 10 Torsion [C]-N--CA-[C] |==|  0.70189
USER: genes 11 Torsion [N]-CA--C-[N] |==|  0.94495
USER: genes 12 Torsion [C]-N--CA-[C] |==|  0.49216
USER: genes 13 Torsion [N]-CA--C-[O] |==|  0.76833
USER: genes 14 Torsion [N]-CA--CB-[OG] |==|  0.12296
USER: genes 15 Torsion [CA]-CB--OG-[HG] |==|  0.11793
USER: genes 16 Torsion [N]-CA--CB-[CG] |==|  0.09840
USER: genes 17 Torsion [CA]-CB--CG-[CD] |==|  0.62255
USER: genes 18 Torsion [CB]-CG--CD-[NE] |==|  0.98077
USER: genes 19 Torsion [CG]-CD--NE-[CZ] |==|  0.27886
USER: genes 20 Torsion [C]-CA--CB-[CG] |==|  0.46038
USER: genes 21 Torsion [CA]-CB--CG-[CD] |==|  0.99824
USER: genes 22 Torsion [CB]-CG--CD-[NE] |==|  0.48742
USER: genes 23 Torsion [CG]-CD--NE-[CZ] |==|  0.27707
USER: genes 24 Torsion [C]-CA--N-[C] |==|  0.76550
USER: genes 25 Torsion [N]-C--CA-[N] |==|  0.21961
USER: genes 26 Torsion [C]-CA--CB-[CG] |==|  0.45225
USER: genes 27 Torsion [CA]-CB--CG-[CD] |==|  0.84809
USER: genes 28 Torsion [CB]-CG--CD-[NE2] |==|  0.79291
USER: genes 29 Torsion [C]-CA--N-[C] |==|  0.80338
USER: genes 30 Torsion [N]-C--CA-[N] |==|  0.55468
USER: genes 31 Torsion [C]-CA--CB-[CG2] |==|  0.36483
USER: genes 32 Torsion [CA]-CB--OG1-[HG1] |==|  0.04337
USER: genes 33 Torsion [C]-CA--N-[C] |==|  0.71522
USER: genes 34 Torsion [N]-C--CA-[N] |==|  0.27421
USER: genes 35 Torsion [C]-CA--CB-[OG1] |==|  0.50785
USER: genes 36 Torsion [CA]-CB--OG1-[HG1] |==|  0.58808
ROOT
ATOM      1  CA  ARG F 167      -3.666  18.822  39.233  1.00 38.85 LIG 0.18  C 
ENDROOT
BRANCH 1 2
ATOM      2  C   ARG F 167      -2.750  19.599  38.304  1.00 41.97 LIG 0.24  C 
ATOM      3  N   LYS F 168      -3.347  20.501  37.522  1.00 42.42 LIG-0.35  N 
ATOM      4 H    LYS F 168      -4.198  20.606  37.456  1.00 42.42 LIG 0.16  HD
ATOM      5 O    ARG F 167      -1.535  19.382  38.282  1.00 34.60 LIG-0.27  OA
BRANCH 3 6
ATOM      6  CA  LYS F 168      -2.546  21.399  36.701  1.00 39.35 LIG 0.18  C 
BRANCH 6 7
ATOM      7  CB  LYS F 168      -3.440  22.284  35.830  1.00 43.51 LIG 0.04  C 
BRANCH 7 8
ATOM      8  CG  LYS F 168      -3.164  23.770  35.958  1.00 39.69 LIG 0.00  C 
BRANCH 8 9
ATOM      9  CD  LYS F 168      -2.537  24.350  34.692  1.00 48.24 LIG 0.03  C 
BRANCH 9 10
ATOM     10  CE  LYS F 168      -3.019  25.777  34.419  1.00 54.37 LIG 0.23  C 
BRANCH 10 11
ATOM     11  NZ  LYS F 168      -4.406  26.049  34.914  1.00 52.23 LIG-0.08  N 
ATOM     12 HZ3  LYS F 168      -4.681  26.840  34.610  1.00 52.23 LIG 0.27  HD
ATOM     13 HZ1  LYS F 168      -4.956  25.413  34.623  1.00 52.23 LIG 0.27  HD
ATOM     14 HZ2  LYS F 168      -4.408  26.058  35.804  1.00 52.23 LIG 0.27  HD
ENDBRANCH 10 11
ENDBRANCH 9 10
ENDBRANCH 8 9
ENDBRANCH 7 8
ENDBRANCH 6 7
BRANCH 6 15
ATOM     15  C   LYS F 168      -1.660  22.259  37.594  1.00 30.99 LIG 0.24  C 
ATOM     16 O    LYS F 168      -2.127  22.859  38.569  1.00 32.09 LIG-0.27  OA
ATOM     17  N   ARG F 169      -0.367  22.287  37.282  1.00 23.74 LIG-0.35  N 
ATOM     18 H    ARG F 169      -0.010  21.847  36.635  1.00 23.74 LIG 0.16  HD
BRANCH 17 19
ATOM     19  CA  ARG F 169       0.556  23.103  38.057  1.00 28.77 LIG 0.18  C 
BRANCH 19 20
ATOM     20  C   ARG F 169       0.983  24.322  37.246  1.00 37.10 LIG 0.24  C 
ATOM     21  N   SER F 170       0.808  24.218  35.930  1.00 32.48 LIG-0.34  N 
ATOM     22 H    SER F 170       0.364  23.580  35.561  1.00 32.48 LIG 0.16  HD
ATOM     23 O    ARG F 169       1.487  25.315  37.787  1.00 33.53 LIG-0.27  OA
BRANCH 21 24
ATOM     24  CA  SER F 170       1.357  25.185  34.979  1.00 32.11 LIG 0.19  C 
BRANCH 24 25
ATOM     25  C   SER F 170       1.076  24.808  33.519  1.00 36.47 LIG 0.22  C 
ATOM     26 O    SER F 170       1.798  24.011  32.918  1.00 35.83 LIG-0.29  OA
ENDBRANCH 24 25
BRANCH 24 27
ATOM     27  CB  SER F 170       2.866  25.330  35.204  1.00 36.26 LIG 0.20  C 
BRANCH 27 28
ATOM     28 OG   SER F 170       3.474  24.055  35.379  1.00 19.66 LIG-0.40  OA
ATOM     29 HG   SER F 170       3.155  23.514  34.822  1.00 19.66 LIG 0.21  HD
ENDBRANCH 27 28
ENDBRANCH 24 27
ENDBRANCH 21 24
ENDBRANCH 19 20
BRANCH 19 30
ATOM     30  CB  ARG F 169       1.769  22.277  38.505  1.00 32.99 LIG 0.04  C 
BRANCH 30 31
ATOM     31  CG  ARG F 169       2.275  21.217  37.540  1.00 34.51 LIG 0.02  C 
BRANCH 31 32
ATOM     32  CD  ARG F 169       2.574  19.923  38.321  1.00 39.71 LIG 0.14  C 
BRANCH 32 33
ATOM     33  NE  ARG F 169       2.441  20.152  39.759  1.00 37.23 LIG-0.23  N 
ATOM     34  CZ  ARG F 169       1.388  19.817  40.502  1.00 33.71 LIG 0.67  C 
ATOM     35  NH2 ARG F 169       1.414  20.085  41.802  1.00 35.73 LIG-0.23  N 
ATOM     36  NH1 ARG F 169       0.319  19.221  39.961  1.00 22.18 LIG-0.23  N 
ATOM     37 2HH2 ARG F 169       0.743  19.875  42.298  1.00 35.73 LIG 0.17  HD
ATOM     38 1HH2 ARG F 169       2.102  20.467  42.148  1.00 35.73 LIG 0.17  HD
ATOM     39 1HH1 ARG F 169       0.303  19.047  39.119  1.00 22.18 LIG 0.17  HD
ATOM     40 2HH1 ARG F 169      -0.353  19.012  40.456  1.00 22.18 LIG 0.17  HD
ATOM     41 HE   ARG F 169       3.099  20.535  40.159  1.00 37.23 LIG 0.18  HD
ENDBRANCH 32 33
ENDBRANCH 31 32
ENDBRANCH 30 31
ENDBRANCH 19 30
ENDBRANCH 17 19
ENDBRANCH 6 15
ENDBRANCH 3 6
ENDBRANCH 1 2
BRANCH 1 42
ATOM     42  CB  ARG F 167      -2.854  17.792  40.028  1.00 34.27 LIG 0.04  C 
BRANCH 42 43
ATOM     43  CG  ARG F 167      -3.609  17.217  41.209  1.00 36.76 LIG 0.02  C 
BRANCH 43 44
ATOM     44  CD  ARG F 167      -4.979  17.827  41.307  1.00 47.53 LIG 0.14  C 
BRANCH 44 45
ATOM     45  NE  ARG F 167      -5.754  17.207  42.373  1.00 46.15 LIG-0.23  N 
ATOM     46 HE   ARG F 167      -6.132  16.451  42.216  1.00 46.15 LIG 0.18  HD
ATOM     47  CZ  ARG F 167      -5.907  17.749  43.574  1.00 54.25 LIG 0.67  C 
ATOM     48  NH2 ARG F 167      -6.625  17.128  44.505  1.00 44.38 LIG-0.23  N 
ATOM     49  NH1 ARG F 167      -5.338  18.922  43.834  1.00 45.80 LIG-0.23  N 
ATOM     50 1HH2 ARG F 167      -6.992  16.371  44.330  1.00 44.38 LIG 0.17  HD
ATOM     51 2HH2 ARG F 167      -6.720  17.483  45.282  1.00 44.38 LIG 0.17  HD
ATOM     52 2HH1 ARG F 167      -5.431  19.282  44.609  1.00 45.80 LIG 0.17  HD
ATOM     53 1HH1 ARG F 167      -4.877  19.321  43.227  1.00 45.80 LIG 0.17  HD
ENDBRANCH 44 45
ENDBRANCH 43 44
ENDBRANCH 42 43
ENDBRANCH 1 42
BRANCH 1 54
ATOM     54  N   ARG F 167      -4.708  18.192  38.437  1.00 32.00 LIG-0.35  N 
ATOM     55 H    ARG F 167      -4.538  17.377  38.222  1.00 32.00 LIG 0.16  HD
ATOM     56  C   GLN F 166      -5.822  18.828  38.076  1.00 42.00 LIG 0.24  C 
ATOM     57 O    GLN F 166      -6.111  19.969  38.454  1.00 37.97 LIG-0.27  OA
BRANCH 56 58
ATOM     58  CA  GLN F 166      -6.748  18.047  37.161  1.00 41.36 LIG 0.18  C 
BRANCH 58 59
ATOM     59  CB  GLN F 166      -7.651  19.027  36.402  1.00 34.92 LIG 0.04  C 
BRANCH 59 60
ATOM     60  CG  GLN F 166      -8.329  18.456  35.182  1.00 32.73 LIG 0.10  C 
BRANCH 60 61
ATOM     61  CD  GLN F 166      -7.331  17.847  34.216  1.00 43.28 LIG 0.21  C 
ATOM     62  NE2 GLN F 166      -6.599  18.696  33.502  1.00 36.91 LIG-0.37  N 
ATOM     63 21HE GLN F 166      -6.703  19.544  33.604  1.00 36.91 LIG 0.16  HD
ATOM     64 22HE GLN F 166      -6.021  18.397  32.939  1.00 36.91 LIG 0.16  HD
ATOM     65 OE1  GLN F 166      -7.222  16.621  34.111  1.00 42.55 LIG-0.27  OA
ENDBRANCH 60 61
ENDBRANCH 59 60
ENDBRANCH 58 59
BRANCH 58 66
ATOM     66  N   GLN F 166      -7.509  17.095  37.958  1.00 35.11 LIG-0.35  N 
ATOM     67  C   THR F 165      -6.949  16.021  38.506  1.00 35.16 LIG 0.24  C 
ATOM     68 O    THR F 165      -5.764  15.722  38.313  1.00 30.91 LIG-0.27  OA
ATOM     69 H    GLN F 166      -8.342  17.291  38.039  1.00 35.11 LIG 0.16  HD
BRANCH 67 70
ATOM     70  CA  THR F 165      -7.813  15.139  39.397  1.00 44.00 LIG 0.20  C 
BRANCH 70 71
ATOM     71  CB  THR F 165      -8.779  16.008  40.211  1.00 46.85 LIG 0.15  C 
ATOM     72  CG2 THR F 165     -10.202  15.455  40.116  1.00 37.95 LIG 0.04  C 
BRANCH 71 73
ATOM     73 OG1  THR F 165      -8.352  16.047  41.579  1.00 45.14 LIG-0.39  OA
ATOM     74 HG1  THR F 165      -7.559  15.775  41.634  1.00 45.14 LIG 0.21  HD
ENDBRANCH 71 73
ENDBRANCH 70 71
BRANCH 70 75
ATOM     75  N   THR F 165      -7.016  14.295  40.280  1.00 38.01 LIG-0.34  N 
ATOM     76 H    THR F 165      -6.692  14.706  40.961  1.00 38.01 LIG 0.16  HD
ATOM     77  C   THR F 164      -6.820  12.998  40.036  1.00 57.69 LIG 0.26  C 
ATOM     78 O    THR F 164      -7.295  12.423  39.051  1.00 49.67 LIG-0.27  OA
BRANCH 77 79
ATOM     79  CA  THR F 164      -5.955  12.242  41.049  1.00 56.73 LIG 0.43  C 
ATOM     80  N   THR F 164      -6.789  11.509  41.998  1.00 65.32 LIG 0.62  N 
BRANCH 79 81
ATOM     81  CB  THR F 164      -4.977  11.297  40.301  1.00 58.05 LIG 0.16  C 
ATOM     82  CG2 THR F 164      -4.031  12.105  39.415  1.00 51.52 LIG 0.04  C 
BRANCH 81 83
ATOM     83 OG1  THR F 164      -4.209  10.536  41.244  1.00 58.15 LIG-0.39  OA
ATOM     84 HG1  THR F 164      -3.449  10.379  40.925  1.00 58.15 LIG 0.21  HD
ENDBRANCH 81 83
ENDBRANCH 79 81
ENDBRANCH 77 79
ENDBRANCH 70 75
ENDBRANCH 67 70
ENDBRANCH 58 66
ENDBRANCH 56 58
ENDBRANCH 1 54
TORSDOF 35
ENDMDL
MODEL 14
USER: ADFR SOLUTION from run 194
USER: SCORE 26.920642 LL:  -4.209 LR: -23.263 RR:   0.000 FEB: -12.823
USER: RMSD 7.166210
USER: SEED 193
USER: STATUS no improvement in best in 4 clusters for 5 generations
USER: GENES 37
USER: genes 0 Translation |==|  0.44338 0.57447 0.46999
USER: genes 1 Rotation |==|  0.62475 0.92875 0.27504 0.50190
USER: genes 2 Torsion [N]-CA--C-[N] |==|  0.97537
USER: genes 3 Torsion [C]-N--CA-[C] |==|  0.79170
USER: genes 4 Torsion [N]-CA--CB-[CG] |==|  0.13098
USER: genes 5 Torsion [CA]-CB--CG-[CD] |==|  0.75615
USER: genes 6 Torsion [CB]-CG--CD-[CE] |==|  0.89847
USER: genes 7 Torsion [CG]-CD--CE-[NZ] |==|  0.26816
USER: genes 8 Torsion [CD]-CE--NZ-[HZ3] |==|  0.17203
USER: genes 9 Torsion [N]-CA--C-[N] |==|  0.41918
USER: genes 10 Torsion [C]-N--CA-[C] |==|  0.81599
USER: genes 11 Torsion [N]-CA--C-[N] |==|  0.90340
USER: genes 12 Torsion [C]-N--CA-[C] |==|  0.86906
USER: genes 13 Torsion [N]-CA--C-[O] |==|  0.36573
USER: genes 14 Torsion [N]-CA--CB-[OG] |==|  0.09900
USER: genes 15 Torsion [CA]-CB--OG-[HG] |==|  0.78042
USER: genes 16 Torsion [N]-CA--CB-[CG] |==|  0.49633
USER: genes 17 Torsion [CA]-CB--CG-[CD] |==|  0.63820
USER: genes 18 Torsion [CB]-CG--CD-[NE] |==|  0.17764
USER: genes 19 Torsion [CG]-CD--NE-[CZ] |==|  0.70984
USER: genes 20 Torsion [C]-CA--CB-[CG] |==|  0.21155
USER: genes 21 Torsion [CA]-CB--CG-[CD] |==|  0.67137
USER: genes 22 Torsion [CB]-CG--CD-[NE] |==|  0.41243
USER: genes 23 Torsion [CG]-CD--NE-[CZ] |==|  0.56500
USER: genes 24 Torsion [C]-CA--N-[C] |==|  0.64444
USER: genes 25 Torsion [N]-C--CA-[N] |==|  0.32814
USER: genes 26 Torsion [C]-CA--CB-[CG] |==|  0.72044
USER: genes 27 Torsion [CA]-CB--CG-[CD] |==|  0.26629
USER: genes 28 Torsion [CB]-CG--CD-[NE2] |==|  0.70785
USER: genes 29 Torsion [C]-CA--N-[C] |==|  0.74450
USER: genes 30 Torsion [N]-C--CA-[N] |==|  0.88877
USER: genes 31 Torsion [C]-CA--CB-[CG2] |==|  0.24897
USER: genes 32 Torsion [CA]-CB--OG1-[HG1] |==|  0.20127
USER: genes 33 Torsion [C]-CA--N-[C] |==|  0.83848
USER: genes 34 Torsion [N]-C--CA-[N] |==|  0.21010
USER: genes 35 Torsion [C]-CA--CB-[OG1] |==|  0.12827
USER: genes 36 Torsion [CA]-CB--OG1-[HG1] |==|  0.26788
ROOT
ATOM      1  CA  ARG F 167      -2.612  20.017  38.079  1.00 38.85 LIG 0.18  C 
ENDROOT
BRANCH 1 2
ATOM      2  C   ARG F 167      -2.737  18.777  38.946  1.00 41.97 LIG 0.24  C 
ATOM      3  N   LYS F 168      -3.884  18.650  39.615  1.00 42.42 LIG-0.35  N 
ATOM      4 H    LYS F 168      -4.501  19.248  39.648  1.00 42.42 LIG 0.16  HD
ATOM      5 O    ARG F 167      -1.815  17.960  39.021  1.00 34.60 LIG-0.27  OA
BRANCH 3 6
ATOM      6  CA  LYS F 168      -4.164  17.430  40.360  1.00 39.35 LIG 0.18  C 
BRANCH 6 7
ATOM      7  CB  LYS F 168      -5.295  17.652  41.365  1.00 43.51 LIG 0.04  C 
BRANCH 7 8
ATOM      8  CG  LYS F 168      -6.508  18.364  40.796  1.00 39.69 LIG 0.00  C 
BRANCH 8 9
ATOM      9  CD  LYS F 168      -6.380  19.882  40.890  1.00 48.24 LIG 0.03  C 
BRANCH 9 10
ATOM     10  CE  LYS F 168      -5.676  20.317  42.178  1.00 54.37 LIG 0.23  C 
BRANCH 10 11
ATOM     11  NZ  LYS F 168      -4.211  20.576  42.005  1.00 52.23 LIG-0.08  N 
ATOM     12 HZ3  LYS F 168      -4.093  21.243  41.427  1.00 52.23 LIG 0.27  HD
ATOM     13 HZ1  LYS F 168      -3.853  20.797  42.790  1.00 52.23 LIG 0.27  HD
ATOM     14 HZ2  LYS F 168      -3.814  19.842  41.695  1.00 52.23 LIG 0.27  HD
ENDBRANCH 10 11
ENDBRANCH 9 10
ENDBRANCH 8 9
ENDBRANCH 7 8
ENDBRANCH 6 7
BRANCH 6 15
ATOM     15  C   LYS F 168      -4.528  16.310  39.392  1.00 30.99 LIG 0.24  C 
ATOM     16 O    LYS F 168      -5.036  16.557  38.293  1.00 32.09 LIG-0.27  OA
ATOM     17  N   ARG F 169      -4.232  15.075  39.789  1.00 23.74 LIG-0.35  N 
ATOM     18 H    ARG F 169      -3.842  14.879  40.531  1.00 23.74 LIG 0.16  HD
BRANCH 17 19
ATOM     19  CA  ARG F 169      -4.567  13.936  38.948  1.00 28.77 LIG 0.18  C 
BRANCH 19 20
ATOM     20  C   ARG F 169      -6.082  13.793  38.844  1.00 37.10 LIG 0.24  C 
ATOM     21  N   SER F 170      -6.761  14.123  39.941  1.00 32.48 LIG-0.34  N 
ATOM     22 H    SER F 170      -6.405  14.517  40.617  1.00 32.48 LIG 0.16  HD
ATOM     23 O    ARG F 169      -6.622  13.366  37.814  1.00 33.53 LIG-0.27  OA
BRANCH 21 24
ATOM     24  CA  SER F 170      -8.189  13.843  40.103  1.00 32.11 LIG 0.19  C 
BRANCH 24 25
ATOM     25  C   SER F 170      -9.016  14.250  38.877  1.00 36.47 LIG 0.22  C 
ATOM     26 O    SER F 170      -9.837  13.477  38.380  1.00 35.83 LIG-0.29  OA
ENDBRANCH 24 25
BRANCH 24 27
ATOM     27  CB  SER F 170      -8.715  14.556  41.353  1.00 36.26 LIG 0.20  C 
BRANCH 27 28
ATOM     28 OG   SER F 170      -8.071  15.814  41.525  1.00 19.66 LIG-0.40  OA
ATOM     29 HG   SER F 170      -7.311  15.696  41.861  1.00 19.66 LIG 0.21  HD
ENDBRANCH 27 28
ENDBRANCH 24 27
ENDBRANCH 21 24
ENDBRANCH 19 20
BRANCH 19 30
ATOM     30  CB  ARG F 169      -3.922  12.652  39.487  1.00 32.99 LIG 0.04  C 
BRANCH 30 31
ATOM     31  CG  ARG F 169      -4.208  11.366  38.728  1.00 34.51 LIG 0.02  C 
BRANCH 31 32
ATOM     32  CD  ARG F 169      -4.660  10.281  39.725  1.00 39.71 LIG 0.14  C 
BRANCH 32 33
ATOM     33  NE  ARG F 169      -5.921  10.662  40.358  1.00 37.23 LIG-0.23  N 
ATOM     34  CZ  ARG F 169      -6.057  11.117  41.603  1.00 33.71 LIG 0.67  C 
ATOM     35  NH2 ARG F 169      -7.271  11.428  42.039  1.00 35.73 LIG-0.23  N 
ATOM     36  NH1 ARG F 169      -4.997  11.262  42.407  1.00 22.18 LIG-0.23  N 
ATOM     37 2HH2 ARG F 169      -7.378  11.723  42.840  1.00 35.73 LIG 0.17  HD
ATOM     38 1HH2 ARG F 169      -7.951  11.334  41.521  1.00 35.73 LIG 0.17  HD
ATOM     39 1HH1 ARG F 169      -4.211  11.061  42.123  1.00 22.18 LIG 0.17  HD
ATOM     40 2HH1 ARG F 169      -5.103  11.557  43.208  1.00 22.18 LIG 0.17  HD
ATOM     41 HE   ARG F 169      -6.637  10.586  39.888  1.00 37.23 LIG 0.18  HD
ENDBRANCH 32 33
ENDBRANCH 31 32
ENDBRANCH 30 31
ENDBRANCH 19 30
ENDBRANCH 17 19
ENDBRANCH 6 15
ENDBRANCH 3 6
ENDBRANCH 1 2
BRANCH 1 42
ATOM     42  CB  ARG F 167      -1.517  20.937  38.634  1.00 34.27 LIG 0.04  C 
BRANCH 42 43
ATOM     43  CG  ARG F 167      -0.115  20.449  38.328  1.00 36.76 LIG 0.02  C 
BRANCH 43 44
ATOM     44  CD  ARG F 167       0.633  20.161  39.600  1.00 47.53 LIG 0.14  C 
BRANCH 44 45
ATOM     45  NE  ARG F 167       1.586  19.076  39.414  1.00 46.15 LIG-0.23  N 
ATOM     46 HE   ARG F 167       1.869  18.914  38.619  1.00 46.15 LIG 0.18  HD
ATOM     47  CZ  ARG F 167       2.040  18.326  40.409  1.00 54.25 LIG 0.67  C 
ATOM     48  NH2 ARG F 167       2.914  17.352  40.172  1.00 44.38 LIG-0.23  N 
ATOM     49  NH1 ARG F 167       1.607  18.555  41.645  1.00 45.80 LIG-0.23  N 
ATOM     50 1HH2 ARG F 167       3.188  17.207  39.370  1.00 44.38 LIG 0.17  HD
ATOM     51 2HH2 ARG F 167       3.205  16.869  40.820  1.00 44.38 LIG 0.17  HD
ATOM     52 2HH1 ARG F 167       1.895  18.074  42.297  1.00 45.80 LIG 0.17  HD
ATOM     53 1HH1 ARG F 167       1.039  19.184  41.793  1.00 45.80 LIG 0.17  HD
ENDBRANCH 44 45
ENDBRANCH 43 44
ENDBRANCH 42 43
ENDBRANCH 1 42
BRANCH 1 54
ATOM     54  N   ARG F 167      -3.905  20.682  38.032  1.00 32.00 LIG-0.35  N 
ATOM     55 H    ARG F 167      -4.248  20.833  38.807  1.00 32.00 LIG 0.16  HD
ATOM     56  C   GLN F 166      -4.498  21.024  36.890  1.00 42.00 LIG 0.24  C 
ATOM     57 O    GLN F 166      -3.972  20.890  35.780  1.00 37.97 LIG-0.27  OA
BRANCH 56 58
ATOM     58  CA  GLN F 166      -5.889  21.617  37.032  1.00 41.36 LIG 0.18  C 
BRANCH 58 59
ATOM     59  CB  GLN F 166      -6.896  20.720  36.301  1.00 34.92 LIG 0.04  C 
BRANCH 59 60
ATOM     60  CG  GLN F 166      -7.315  21.210  34.938  1.00 32.73 LIG 0.10  C 
BRANCH 60 61
ATOM     61  CD  GLN F 166      -6.501  20.566  33.832  1.00 43.28 LIG 0.21  C 
ATOM     62  NE2 GLN F 166      -5.575  21.326  33.256  1.00 36.91 LIG-0.37  N 
ATOM     63 21HE GLN F 166      -5.461  22.138  33.517  1.00 36.91 LIG 0.16  HD
ATOM     64 22HE GLN F 166      -5.089  21.006  32.622  1.00 36.91 LIG 0.16  HD
ATOM     65 OE1  GLN F 166      -6.706  19.396  33.497  1.00 42.55 LIG-0.27  OA
ENDBRANCH 60 61
ENDBRANCH 59 60
ENDBRANCH 58 59
BRANCH 58 66
ATOM     66  N   GLN F 166      -5.880  22.977  36.514  1.00 35.11 LIG-0.35  N 
ATOM     67  C   THR F 165      -5.645  24.030  37.291  1.00 35.16 LIG 0.24  C 
ATOM     68 O    THR F 165      -5.491  23.929  38.515  1.00 30.91 LIG-0.27  OA
ATOM     69 H    GLN F 166      -6.040  23.033  35.671  1.00 35.11 LIG 0.16  HD
BRANCH 67 70
ATOM     70  CA  THR F 165      -5.566  25.401  36.633  1.00 44.00 LIG 0.20  C 
BRANCH 70 71
ATOM     71  CB  THR F 165      -6.976  25.975  36.454  1.00 46.85 LIG 0.15  C 
ATOM     72  CG2 THR F 165      -7.384  26.782  37.688  1.00 37.95 LIG 0.04  C 
BRANCH 71 73
ATOM     73 OG1  THR F 165      -7.011  26.805  35.285  1.00 45.14 LIG-0.39  OA
ATOM     74 HG1  THR F 165      -6.978  26.323  34.598  1.00 45.14 LIG 0.21  HD
ENDBRANCH 71 73
ENDBRANCH 70 71
BRANCH 70 75
ATOM     75  N   THR F 165      -4.863  25.364  35.356  1.00 38.01 LIG-0.34  N 
ATOM     76 H    THR F 165      -5.328  25.645  34.690  1.00 38.01 LIG 0.16  HD
ATOM     77  C   THR F 164      -3.606  24.928  35.250  1.00 57.69 LIG 0.26  C 
ATOM     78 O    THR F 164      -2.952  24.528  36.219  1.00 49.67 LIG-0.27  OA
BRANCH 77 79
ATOM     79  CA  THR F 164      -3.002  24.941  33.842  1.00 56.73 LIG 0.43  C 
ATOM     80  N   THR F 164      -2.643  26.300  33.444  1.00 65.32 LIG 0.62  N 
BRANCH 79 81
ATOM     81  CB  THR F 164      -1.777  23.989  33.789  1.00 58.05 LIG 0.16  C 
ATOM     82  CG2 THR F 164      -0.583  24.619  34.504  1.00 51.52 LIG 0.04  C 
BRANCH 81 83
ATOM     83 OG1  THR F 164      -2.098  22.739  34.414  1.00 58.15 LIG-0.39  OA
ATOM     84 HG1  THR F 164      -2.328  22.183  33.828  1.00 58.15 LIG 0.21  HD
ENDBRANCH 81 83
ENDBRANCH 79 81
ENDBRANCH 77 79
ENDBRANCH 70 75
ENDBRANCH 67 70
ENDBRANCH 58 66
ENDBRANCH 56 58
ENDBRANCH 1 54
TORSDOF 35
ENDMDL
MODEL 15
USER: ADFR SOLUTION from run 106
USER: SCORE 25.647552 LL:  -3.592 LR: -23.234 RR:   0.000 FEB: -12.793
USER: RMSD 7.185585
USER: SEED 105
USER: STATUS no improvement in best in 5 clusters for 5 generations
USER: GENES 37
USER: genes 0 Translation |==|  0.37786 0.53407 0.47932
USER: genes 1 Rotation |==|  0.81772 0.84880 0.43871 0.65373
USER: genes 2 Torsion [N]-CA--C-[N] |==|  0.37137
USER: genes 3 Torsion [C]-N--CA-[C] |==|  0.57895
USER: genes 4 Torsion [N]-CA--CB-[CG] |==|  0.52777
USER: genes 5 Torsion [CA]-CB--CG-[CD] |==|  0.45500
USER: genes 6 Torsion [CB]-CG--CD-[CE] |==|  0.36726
USER: genes 7 Torsion [CG]-CD--CE-[NZ] |==|  0.40614
USER: genes 8 Torsion [CD]-CE--NZ-[HZ3] |==|  0.71288
USER: genes 9 Torsion [N]-CA--C-[N] |==|  0.38440
USER: genes 10 Torsion [C]-N--CA-[C] |==|  0.69933
USER: genes 11 Torsion [N]-CA--C-[N] |==|  0.39444
USER: genes 12 Torsion [C]-N--CA-[C] |==|  0.16878
USER: genes 13 Torsion [N]-CA--C-[O] |==|  0.92471
USER: genes 14 Torsion [N]-CA--CB-[OG] |==|  0.90989
USER: genes 15 Torsion [CA]-CB--OG-[HG] |==|  0.24235
USER: genes 16 Torsion [N]-CA--CB-[CG] |==|  0.56086
USER: genes 17 Torsion [CA]-CB--CG-[CD] |==|  0.53366
USER: genes 18 Torsion [CB]-CG--CD-[NE] |==|  0.26775
USER: genes 19 Torsion [CG]-CD--NE-[CZ] |==|  0.59646
USER: genes 20 Torsion [C]-CA--CB-[CG] |==|  0.75829
USER: genes 21 Torsion [CA]-CB--CG-[CD] |==|  0.32974
USER: genes 22 Torsion [CB]-CG--CD-[NE] |==|  0.15085
USER: genes 23 Torsion [CG]-CD--NE-[CZ] |==|  0.70896
USER: genes 24 Torsion [C]-CA--N-[C] |==|  0.59284
USER: genes 25 Torsion [N]-C--CA-[N] |==|  0.52160
USER: genes 26 Torsion [C]-CA--CB-[CG] |==|  0.47875
USER: genes 27 Torsion [CA]-CB--CG-[CD] |==|  0.50288
USER: genes 28 Torsion [CB]-CG--CD-[NE2] |==|  0.48009
USER: genes 29 Torsion [C]-CA--N-[C] |==|  0.68387
USER: genes 30 Torsion [N]-C--CA-[N] |==|  0.35149
USER: genes 31 Torsion [C]-CA--CB-[CG2] |==|  0.11554
USER: genes 32 Torsion [CA]-CB--OG1-[HG1] |==|  0.81818
USER: genes 33 Torsion [C]-CA--N-[C] |==|  0.83678
USER: genes 34 Torsion [N]-C--CA-[N] |==|  0.82013
USER: genes 35 Torsion [C]-CA--CB-[OG1] |==|  0.38781
USER: genes 36 Torsion [CA]-CB--OG1-[HG1] |==|  0.64990
ROOT
ATOM      1  CA  ARG F 167      -4.234  18.896  38.261  1.00 38.85 LIG 0.18  C 
ENDROOT
BRANCH 1 2
ATOM      2  C   ARG F 167      -5.359  17.919  37.968  1.00 41.97 LIG 0.24  C 
ATOM      3  N   LYS F 168      -4.982  16.677  37.660  1.00 42.42 LIG-0.35  N 
ATOM      4 H    LYS F 168      -4.168  16.427  37.539  1.00 42.42 LIG 0.16  HD
ATOM      5 O    ARG F 167      -6.539  18.279  38.007  1.00 34.60 LIG-0.27  OA
BRANCH 3 6
ATOM      6  CA  LYS F 168      -5.981  15.629  37.504  1.00 39.35 LIG 0.18  C 
BRANCH 6 7
ATOM      7  CB  LYS F 168      -6.531  15.607  36.076  1.00 43.51 LIG 0.04  C 
BRANCH 7 8
ATOM      8  CG  LYS F 168      -7.740  14.712  35.885  1.00 39.69 LIG 0.00  C 
BRANCH 8 9
ATOM      9  CD  LYS F 168      -8.482  15.017  34.585  1.00 48.24 LIG 0.03  C 
BRANCH 9 10
ATOM     10  CE  LYS F 168      -8.793  13.745  33.794  1.00 54.37 LIG 0.23  C 
BRANCH 10 11
ATOM     11  NZ  LYS F 168     -10.086  13.806  33.039  1.00 52.23 LIG-0.08  N 
ATOM     12 HZ3  LYS F 168     -10.704  13.332  33.470  1.00 52.23 LIG 0.27  HD
ATOM     13 HZ1  LYS F 168     -10.353  14.652  32.975  1.00 52.23 LIG 0.27  HD
ATOM     14 HZ2  LYS F 168      -9.970  13.469  32.223  1.00 52.23 LIG 0.27  HD
ENDBRANCH 10 11
ENDBRANCH 9 10
ENDBRANCH 8 9
ENDBRANCH 7 8
ENDBRANCH 6 7
BRANCH 6 15
ATOM     15  C   LYS F 168      -5.368  14.278  37.854  1.00 30.99 LIG 0.24  C 
ATOM     16 O    LYS F 168      -4.213  13.995  37.516  1.00 32.09 LIG-0.27  OA
ATOM     17  N   ARG F 169      -6.131  13.457  38.570  1.00 23.74 LIG-0.35  N 
ATOM     18 H    ARG F 169      -6.921  13.645  38.853  1.00 23.74 LIG 0.16  HD
BRANCH 17 19
ATOM     19  CA  ARG F 169      -5.646  12.133  38.930  1.00 28.77 LIG 0.18  C 
BRANCH 19 20
ATOM     20  C   ARG F 169      -6.388  11.069  38.127  1.00 37.10 LIG 0.24  C 
ATOM     21  N   SER F 170      -5.645  10.039  37.726  1.00 32.48 LIG-0.34  N 
ATOM     22 H    SER F 170      -4.844   9.897  38.004  1.00 32.48 LIG 0.16  HD
ATOM     23 O    ARG F 169      -7.589  11.190  37.847  1.00 33.53 LIG-0.27  OA
BRANCH 21 24
ATOM     24  CA  SER F 170      -6.125   9.043  36.767  1.00 32.11 LIG 0.19  C 
BRANCH 24 25
ATOM     25  C   SER F 170      -6.481   9.652  35.405  1.00 36.47 LIG 0.22  C 
ATOM     26 O    SER F 170      -6.836  10.827  35.308  1.00 35.83 LIG-0.29  OA
ENDBRANCH 24 25
BRANCH 24 27
ATOM     27  CB  SER F 170      -7.339   8.310  37.349  1.00 36.26 LIG 0.20  C 
BRANCH 27 28
ATOM     28 OG   SER F 170      -7.232   8.202  38.764  1.00 19.66 LIG-0.40  OA
ATOM     29 HG   SER F 170      -7.555   8.889  39.123  1.00 19.66 LIG 0.21  HD
ENDBRANCH 27 28
ENDBRANCH 24 27
ENDBRANCH 21 24
ENDBRANCH 19 20
BRANCH 19 30
ATOM     30  CB  ARG F 169      -5.786  11.892  40.439  1.00 32.99 LIG 0.04  C 
BRANCH 30 31
ATOM     31  CG  ARG F 169      -4.894  10.825  41.052  1.00 34.51 LIG 0.02  C 
BRANCH 31 32
ATOM     32  CD  ARG F 169      -5.383  10.517  42.480  1.00 39.71 LIG 0.14  C 
BRANCH 32 33
ATOM     33  NE  ARG F 169      -6.255   9.344  42.481  1.00 37.23 LIG-0.23  N 
ATOM     34  CZ  ARG F 169      -7.311   9.163  43.273  1.00 33.71 LIG 0.67  C 
ATOM     35  NH2 ARG F 169      -8.013   8.044  43.153  1.00 35.73 LIG-0.23  N 
ATOM     36  NH1 ARG F 169      -7.666  10.085  44.174  1.00 22.18 LIG-0.23  N 
ATOM     37 2HH2 ARG F 169      -8.698   7.910  43.656  1.00 35.73 LIG 0.17  HD
ATOM     38 1HH2 ARG F 169      -7.783   7.452  42.573  1.00 35.73 LIG 0.17  HD
ATOM     39 1HH1 ARG F 169      -7.211  10.811  44.250  1.00 22.18 LIG 0.17  HD
ATOM     40 2HH1 ARG F 169      -8.351   9.952  44.678  1.00 22.18 LIG 0.17  HD
ATOM     41 HE   ARG F 169      -6.071   8.716  41.922  1.00 37.23 LIG 0.18  HD
ENDBRANCH 32 33
ENDBRANCH 31 32
ENDBRANCH 30 31
ENDBRANCH 19 30
ENDBRANCH 17 19
ENDBRANCH 6 15
ENDBRANCH 3 6
ENDBRANCH 1 2
BRANCH 1 42
ATOM     42  CB  ARG F 167      -4.122  19.128  39.773  1.00 34.27 LIG 0.04  C 
BRANCH 42 43
ATOM     43  CG  ARG F 167      -5.028  20.231  40.279  1.00 36.76 LIG 0.02  C 
BRANCH 43 44
ATOM     44  CD  ARG F 167      -6.014  19.690  41.276  1.00 47.53 LIG 0.14  C 
BRANCH 44 45
ATOM     45  NE  ARG F 167      -5.334  18.987  42.356  1.00 46.15 LIG-0.23  N 
ATOM     46 HE   ARG F 167      -4.932  19.453  42.956  1.00 46.15 LIG 0.18  HD
ATOM     47  CZ  ARG F 167      -5.305  17.665  42.461  1.00 54.25 LIG 0.67  C 
ATOM     48  NH2 ARG F 167      -4.670  17.086  43.475  1.00 44.38 LIG-0.23  N 
ATOM     49  NH1 ARG F 167      -5.913  16.927  41.538  1.00 45.80 LIG-0.23  N 
ATOM     50 1HH2 ARG F 167      -4.276  17.569  44.068  1.00 44.38 LIG 0.17  HD
ATOM     51 2HH2 ARG F 167      -4.654  16.229  43.539  1.00 44.38 LIG 0.17  HD
ATOM     52 2HH1 ARG F 167      -5.900  16.069  41.596  1.00 45.80 LIG 0.17  HD
ATOM     53 1HH1 ARG F 167      -6.320  17.307  40.882  1.00 45.80 LIG 0.17  HD
ENDBRANCH 44 45
ENDBRANCH 43 44
ENDBRANCH 42 43
ENDBRANCH 1 42
BRANCH 1 54
ATOM     54  N   ARG F 167      -4.496  20.134  37.542  1.00 32.00 LIG-0.35  N 
ATOM     55 H    ARG F 167      -5.331  20.324  37.467  1.00 32.00 LIG 0.16  HD
ATOM     56  C   GLN F 166      -3.523  20.897  37.046  1.00 42.00 LIG 0.24  C 
ATOM     57 O    GLN F 166      -2.321  20.675  37.224  1.00 37.97 LIG-0.27  OA
BRANCH 56 58
ATOM     58  CA  GLN F 166      -3.988  22.096  36.238  1.00 41.36 LIG 0.18  C 
BRANCH 58 59
ATOM     59  CB  GLN F 166      -5.031  21.638  35.212  1.00 34.92 LIG 0.04  C 
BRANCH 59 60
ATOM     60  CG  GLN F 166      -5.716  22.750  34.458  1.00 32.73 LIG 0.10  C 
BRANCH 60 61
ATOM     61  CD  GLN F 166      -6.749  22.217  33.483  1.00 43.28 LIG 0.21  C 
ATOM     62  NE2 GLN F 166      -7.514  23.118  32.874  1.00 36.91 LIG-0.37  N 
ATOM     63 21HE GLN F 166      -7.406  23.955  33.040  1.00 36.91 LIG 0.16  HD
ATOM     64 22HE GLN F 166      -8.115  22.864  32.315  1.00 36.91 LIG 0.16  HD
ATOM     65 OE1  GLN F 166      -6.860  21.004  33.282  1.00 42.55 LIG-0.27  OA
ENDBRANCH 60 61
ENDBRANCH 59 60
ENDBRANCH 58 59
BRANCH 58 66
ATOM     66  N   GLN F 166      -2.833  22.722  35.612  1.00 35.11 LIG-0.35  N 
ATOM     67  C   THR F 165      -2.420  23.942  35.944  1.00 35.16 LIG 0.24  C 
ATOM     68 O    THR F 165      -3.035  24.651  36.751  1.00 30.91 LIG-0.27  OA
ATOM     69 H    GLN F 166      -2.448  22.235  35.017  1.00 35.11 LIG 0.16  HD
BRANCH 67 70
ATOM     70  CA  THR F 165      -1.146  24.468  35.296  1.00 44.00 LIG 0.20  C 
BRANCH 70 71
ATOM     71  CB  THR F 165      -0.026  24.546  36.339  1.00 46.85 LIG 0.15  C 
ATOM     72  CG2 THR F 165      -0.046  23.308  37.238  1.00 37.95 LIG 0.04  C 
BRANCH 71 73
ATOM     73 OG1  THR F 165       1.241  24.656  35.675  1.00 45.14 LIG-0.39  OA
ATOM     74 HG1  THR F 165       1.394  23.951  35.245  1.00 45.14 LIG 0.21  HD
ENDBRANCH 71 73
ENDBRANCH 70 71
BRANCH 70 75
ATOM     75  N   THR F 165      -1.344  25.765  34.659  1.00 38.01 LIG-0.34  N 
ATOM     76 H    THR F 165      -0.836  26.388  34.965  1.00 38.01 LIG 0.16  HD
ATOM     77  C   THR F 164      -2.239  25.950  33.688  1.00 57.69 LIG 0.26  C 
ATOM     78 O    THR F 164      -2.960  25.042  33.260  1.00 49.67 LIG-0.27  OA
BRANCH 77 79
ATOM     79  CA  THR F 164      -2.338  27.369  33.119  1.00 56.73 LIG 0.43  C 
ATOM     80  N   THR F 164      -2.812  28.304  34.136  1.00 65.32 LIG 0.62  N 
BRANCH 79 81
ATOM     81  CB  THR F 164      -0.962  27.800  32.545  1.00 58.05 LIG 0.16  C 
ATOM     82  CG2 THR F 164      -0.086  26.575  32.290  1.00 51.52 LIG 0.04  C 
BRANCH 81 83
ATOM     83 OG1  THR F 164      -1.144  28.517  31.316  1.00 58.15 LIG-0.39  OA
ATOM     84 HG1  THR F 164      -0.682  28.160  30.712  1.00 58.15 LIG 0.21  HD
ENDBRANCH 81 83
ENDBRANCH 79 81
ENDBRANCH 77 79
ENDBRANCH 70 75
ENDBRANCH 67 70
ENDBRANCH 58 66
ENDBRANCH 56 58
ENDBRANCH 1 54
TORSDOF 35
ENDMDL
MODEL 16
USER: ADFR SOLUTION from run 9
USER: SCORE 24.090188 LL:  -3.547 LR: -23.179 RR:   0.000 FEB: -12.739
USER: RMSD 5.390521
USER: SEED 736038
USER: STATUS searching
USER: GENES 37
USER: genes 0 Translation |==|  0.48301 0.58785 0.47295
USER: genes 1 Rotation |==|  0.80596 0.87050 0.36189 0.50684
USER: genes 2 Torsion [N]-CA--C-[N] |==|  0.63250
USER: genes 3 Torsion [C]-N--CA-[C] |==|  0.21114
USER: genes 4 Torsion [N]-CA--CB-[CG] |==|  0.44137
USER: genes 5 Torsion [CA]-CB--CG-[CD] |==|  0.21440
USER: genes 6 Torsion [CB]-CG--CD-[CE] |==|  0.04146
USER: genes 7 Torsion [CG]-CD--CE-[NZ] |==|  0.70273
USER: genes 8 Torsion [CD]-CE--NZ-[HZ3] |==|  0.81888
USER: genes 9 Torsion [N]-CA--C-[N] |==|  0.38247
USER: genes 10 Torsion [C]-N--CA-[C] |==|  0.77183
USER: genes 11 Torsion [N]-CA--C-[N] |==|  0.28814
USER: genes 12 Torsion [C]-N--CA-[C] |==|  0.73485
USER: genes 13 Torsion [N]-CA--C-[O] |==|  0.02833
USER: genes 14 Torsion [N]-CA--CB-[OG] |==|  0.16956
USER: genes 15 Torsion [CA]-CB--OG-[HG] |==|  0.84090
USER: genes 16 Torsion [N]-CA--CB-[CG] |==|  0.55350
USER: genes 17 Torsion [CA]-CB--CG-[CD] |==|  0.63992
USER: genes 18 Torsion [CB]-CG--CD-[NE] |==|  0.84818
USER: genes 19 Torsion [CG]-CD--NE-[CZ] |==|  0.29562
USER: genes 20 Torsion [C]-CA--CB-[CG] |==|  0.37110
USER: genes 21 Torsion [CA]-CB--CG-[CD] |==|  0.49081
USER: genes 22 Torsion [CB]-CG--CD-[NE] |==|  0.21925
USER: genes 23 Torsion [CG]-CD--NE-[CZ] |==|  0.24883
USER: genes 24 Torsion [C]-CA--N-[C] |==|  0.70291
USER: genes 25 Torsion [N]-C--CA-[N] |==|  0.35250
USER: genes 26 Torsion [C]-CA--CB-[CG] |==|  0.10634
USER: genes 27 Torsion [CA]-CB--CG-[CD] |==|  0.64313
USER: genes 28 Torsion [CB]-CG--CD-[NE2] |==|  0.01329
USER: genes 29 Torsion [C]-CA--N-[C] |==|  0.87488
USER: genes 30 Torsion [N]-C--CA-[N] |==|  0.50927
USER: genes 31 Torsion [C]-CA--CB-[CG2] |==|  0.28462
USER: genes 32 Torsion [CA]-CB--OG1-[HG1] |==|  0.89159
USER: genes 33 Torsion [C]-CA--N-[C] |==|  0.79921
USER: genes 34 Torsion [N]-C--CA-[N] |==|  0.52791
USER: genes 35 Torsion [C]-CA--CB-[OG1] |==|  0.19341
USER: genes 36 Torsion [CA]-CB--OG1-[HG1] |==|  0.72401
ROOT
ATOM      1  CA  ARG F 167      -1.631  20.389  38.136  1.00 38.85 LIG 0.18  C 
ENDROOT
BRANCH 1 2
ATOM      2  C   ARG F 167      -2.819  19.504  38.472  1.00 41.97 LIG 0.24  C 
ATOM      3  N   LYS F 168      -2.680  18.732  39.551  1.00 42.42 LIG-0.35  N 
ATOM      4 H    LYS F 168      -1.953  18.646  40.003  1.00 42.42 LIG 0.16  HD
ATOM      5 O    ARG F 167      -3.833  19.509  37.768  1.00 34.60 LIG-0.27  OA
BRANCH 3 6
ATOM      6  CA  LYS F 168      -3.810  17.955  40.043  1.00 39.35 LIG 0.18  C 
BRANCH 6 7
ATOM      7  CB  LYS F 168      -5.078  18.810  40.095  1.00 43.51 LIG 0.04  C 
BRANCH 7 8
ATOM      8  CG  LYS F 168      -6.369  18.014  40.099  1.00 39.69 LIG 0.00  C 
BRANCH 8 9
ATOM      9  CD  LYS F 168      -6.665  17.405  41.468  1.00 48.24 LIG 0.03  C 
BRANCH 9 10
ATOM     10  CE  LYS F 168      -5.808  18.034  42.569  1.00 54.37 LIG 0.23  C 
BRANCH 10 11
ATOM     11  NZ  LYS F 168      -4.719  17.136  43.071  1.00 52.23 LIG-0.08  N 
ATOM     12 HZ3  LYS F 168      -5.079  16.428  43.474  1.00 52.23 LIG 0.27  HD
ATOM     13 HZ1  LYS F 168      -4.218  16.865  42.388  1.00 52.23 LIG 0.27  HD
ATOM     14 HZ2  LYS F 168      -4.211  17.581  43.652  1.00 52.23 LIG 0.27  HD
ENDBRANCH 10 11
ENDBRANCH 9 10
ENDBRANCH 8 9
ENDBRANCH 7 8
ENDBRANCH 6 7
BRANCH 6 15
ATOM     15  C   LYS F 168      -4.027  16.740  39.148  1.00 30.99 LIG 0.24  C 
ATOM     16 O    LYS F 168      -3.919  16.826  37.920  1.00 32.09 LIG-0.27  OA
ATOM     17  N   ARG F 169      -4.295  15.596  39.771  1.00 23.74 LIG-0.35  N 
ATOM     18 H    ARG F 169      -4.336  15.501  40.625  1.00 23.74 LIG 0.16  HD
BRANCH 17 19
ATOM     19  CA  ARG F 169      -4.547  14.386  39.002  1.00 28.77 LIG 0.18  C 
BRANCH 19 20
ATOM     20  C   ARG F 169      -5.998  14.361  38.529  1.00 37.10 LIG 0.24  C 
ATOM     21  N   SER F 170      -6.181  14.659  37.245  1.00 32.48 LIG-0.34  N 
ATOM     22 H    SER F 170      -5.538  14.727  36.678  1.00 32.48 LIG 0.16  HD
ATOM     23 O    ARG F 169      -6.928  14.113  39.309  1.00 33.53 LIG-0.27  OA
BRANCH 21 24
ATOM     24  CA  SER F 170      -7.505  14.900  36.669  1.00 32.11 LIG 0.19  C 
BRANCH 24 25
ATOM     25  C   SER F 170      -8.106  13.650  36.015  1.00 36.47 LIG 0.22  C 
ATOM     26 O    SER F 170      -7.586  12.543  36.163  1.00 35.83 LIG-0.29  OA
ENDBRANCH 24 25
BRANCH 24 27
ATOM     27  CB  SER F 170      -7.424  16.040  35.648  1.00 36.26 LIG 0.20  C 
BRANCH 27 28
ATOM     28 OG   SER F 170      -6.540  15.703  34.585  1.00 19.66 LIG-0.40  OA
ATOM     29 HG   SER F 170      -5.781  15.523  34.897  1.00 19.66 LIG 0.21  HD
ENDBRANCH 27 28
ENDBRANCH 24 27
ENDBRANCH 21 24
ENDBRANCH 19 20
BRANCH 19 30
ATOM     30  CB  ARG F 169      -4.207  13.136  39.826  1.00 32.99 LIG 0.04  C 
BRANCH 30 31
ATOM     31  CG  ARG F 169      -3.980  11.845  39.056  1.00 34.51 LIG 0.02  C 
BRANCH 31 32
ATOM     32  CD  ARG F 169      -4.836  10.727  39.682  1.00 39.71 LIG 0.14  C 
BRANCH 32 33
ATOM     33  NE  ARG F 169      -4.555  10.608  41.112  1.00 37.23 LIG-0.23  N 
ATOM     34  CZ  ARG F 169      -5.361  11.006  42.095  1.00 33.71 LIG 0.67  C 
ATOM     35  NH2 ARG F 169      -4.971  10.826  43.350  1.00 35.73 LIG-0.23  N 
ATOM     36  NH1 ARG F 169      -6.543  11.576  41.835  1.00 22.18 LIG-0.23  N 
ATOM     37 2HH2 ARG F 169      -5.478  11.076  43.998  1.00 35.73 LIG 0.17  HD
ATOM     38 1HH2 ARG F 169      -4.211  10.459  43.516  1.00 35.73 LIG 0.17  HD
ATOM     39 1HH1 ARG F 169      -6.795  11.691  41.020  1.00 22.18 LIG 0.17  HD
ATOM     40 2HH1 ARG F 169      -7.051  11.827  42.482  1.00 22.18 LIG 0.17  HD
ATOM     41 HE   ARG F 169      -3.806  10.250  41.338  1.00 37.23 LIG 0.18  HD
ENDBRANCH 32 33
ENDBRANCH 31 32
ENDBRANCH 30 31
ENDBRANCH 19 30
ENDBRANCH 17 19
ENDBRANCH 6 15
ENDBRANCH 3 6
ENDBRANCH 1 2
BRANCH 1 42
ATOM     42  CB  ARG F 167      -0.613  20.355  39.283  1.00 34.27 LIG 0.04  C 
BRANCH 42 43
ATOM     43  CG  ARG F 167       0.814  20.160  38.810  1.00 36.76 LIG 0.02  C 
BRANCH 43 44
ATOM     44  CD  ARG F 167       1.767  20.216  39.971  1.00 47.53 LIG 0.14  C 
BRANCH 44 45
ATOM     45  NE  ARG F 167       1.774  18.958  40.705  1.00 46.15 LIG-0.23  N 
ATOM     46 HE   ARG F 167       1.224  18.864  41.359  1.00 46.15 LIG 0.18  HD
ATOM     47  CZ  ARG F 167       2.587  17.950  40.417  1.00 54.25 LIG 0.67  C 
ATOM     48  NH2 ARG F 167       2.539  16.825  41.125  1.00 44.38 LIG-0.23  N 
ATOM     49  NH1 ARG F 167       3.452  18.079  39.416  1.00 45.80 LIG-0.23  N 
ATOM     50 1HH2 ARG F 167       1.979  16.749  41.773  1.00 44.38 LIG 0.17  HD
ATOM     51 2HH2 ARG F 167       3.068  16.175  40.934  1.00 44.38 LIG 0.17  HD
ATOM     52 2HH1 ARG F 167       3.983  17.432  39.221  1.00 45.80 LIG 0.17  HD
ATOM     53 1HH1 ARG F 167       3.480  18.810  38.963  1.00 45.80 LIG 0.17  HD
ENDBRANCH 44 45
ENDBRANCH 43 44
ENDBRANCH 42 43
ENDBRANCH 1 42
BRANCH 1 54
ATOM     54  N   ARG F 167      -2.115  21.737  37.882  1.00 32.00 LIG-0.35  N 
ATOM     55 H    ARG F 167      -2.364  22.158  38.589  1.00 32.00 LIG 0.16  HD
ATOM     56  C   GLN F 166      -2.164  22.265  36.660  1.00 42.00 LIG 0.24  C 
ATOM     57 O    GLN F 166      -1.727  21.699  35.652  1.00 37.97 LIG-0.27  OA
BRANCH 56 58
ATOM     58  CA  GLN F 166      -2.792  23.645  36.573  1.00 41.36 LIG 0.18  C 
BRANCH 58 59
ATOM     59  CB  GLN F 166      -4.145  23.538  35.859  1.00 34.92 LIG 0.04  C 
BRANCH 59 60
ATOM     60  CG  GLN F 166      -4.950  22.308  36.197  1.00 32.73 LIG 0.10  C 
BRANCH 60 61
ATOM     61  CD  GLN F 166      -5.405  21.573  34.951  1.00 43.28 LIG 0.21  C 
ATOM     62  NE2 GLN F 166      -4.961  22.041  33.789  1.00 36.91 LIG-0.37  N 
ATOM     63 21HE GLN F 166      -4.441  22.726  33.771  1.00 36.91 LIG 0.16  HD
ATOM     64 22HE GLN F 166      -5.194  21.658  33.055  1.00 36.91 LIG 0.16  HD
ATOM     65 OE1  GLN F 166      -6.152  20.593  35.034  1.00 42.55 LIG-0.27  OA
ENDBRANCH 60 61
ENDBRANCH 59 60
ENDBRANCH 58 59
BRANCH 58 66
ATOM     66  N   GLN F 166      -1.873  24.542  35.889  1.00 35.11 LIG-0.35  N 
ATOM     67  C   THR F 165      -0.574  24.578  36.171  1.00 35.16 LIG 0.24  C 
ATOM     68 O    THR F 165      -0.077  23.907  37.084  1.00 30.91 LIG-0.27  OA
ATOM     69 H    GLN F 166      -2.245  25.038  35.293  1.00 35.11 LIG 0.16  HD
BRANCH 67 70
ATOM     70  CA  THR F 165       0.316  25.486  35.334  1.00 44.00 LIG 0.20  C 
BRANCH 70 71
ATOM     71  CB  THR F 165       0.119  25.179  33.845  1.00 46.85 LIG 0.15  C 
ATOM     72  CG2 THR F 165      -0.769  26.241  33.194  1.00 37.95 LIG 0.04  C 
BRANCH 71 73
ATOM     73 OG1  THR F 165       1.395  25.131  33.192  1.00 45.14 LIG-0.39  OA
ATOM     74 HG1  THR F 165       1.892  25.733  33.502  1.00 45.14 LIG 0.21  HD
ENDBRANCH 71 73
ENDBRANCH 70 71
BRANCH 70 75
ATOM     75  N   THR F 165       1.723  25.372  35.698  1.00 38.01 LIG-0.34  N 
ATOM     76 H    THR F 165       2.204  24.958  35.118  1.00 38.01 LIG 0.16  HD
ATOM     77  C   THR F 164       2.204  25.871  36.838  1.00 57.69 LIG 0.26  C 
ATOM     78 O    THR F 164       1.498  26.463  37.660  1.00 49.67 LIG-0.27  OA
BRANCH 77 79
ATOM     79  CA  THR F 164       3.702  25.668  37.087  1.00 56.73 LIG 0.43  C 
ATOM     80  N   THR F 164       4.057  26.041  38.453  1.00 65.32 LIG 0.62  N 
BRANCH 79 81
ATOM     81  CB  THR F 164       4.090  24.197  36.779  1.00 58.05 LIG 0.16  C 
ATOM     82  CG2 THR F 164       3.155  23.237  37.512  1.00 51.52 LIG 0.04  C 
BRANCH 81 83
ATOM     83 OG1  THR F 164       4.009  23.951  35.368  1.00 58.15 LIG-0.39  OA
ATOM     84 HG1  THR F 164       3.283  23.568  35.191  1.00 58.15 LIG 0.21  HD
ENDBRANCH 81 83
ENDBRANCH 79 81
ENDBRANCH 77 79
ENDBRANCH 70 75
ENDBRANCH 67 70
ENDBRANCH 58 66
ENDBRANCH 56 58
ENDBRANCH 1 54
TORSDOF 35
ENDMDL
MODEL 17
USER: ADFR SOLUTION from run 106
USER: SCORE 25.343826 LL:  -3.710 LR: -23.120 RR:   0.000 FEB: -12.680
USER: RMSD 6.648003
USER: SEED 105
USER: STATUS no improvement in best in 5 clusters for 5 generations
USER: GENES 37
USER: genes 0 Translation |==|  0.38498 0.53305 0.48819
USER: genes 1 Rotation |==|  0.82546 0.83634 0.44119 0.66580
USER: genes 2 Torsion [N]-CA--C-[N] |==|  0.36395
USER: genes 3 Torsion [C]-N--CA-[C] |==|  0.57627
USER: genes 4 Torsion [N]-CA--CB-[CG] |==|  0.52459
USER: genes 5 Torsion [CA]-CB--CG-[CD] |==|  0.46574
USER: genes 6 Torsion [CB]-CG--CD-[CE] |==|  0.37246
USER: genes 7 Torsion [CG]-CD--CE-[NZ] |==|  0.39359
USER: genes 8 Torsion [CD]-CE--NZ-[HZ3] |==|  0.71373
USER: genes 9 Torsion [N]-CA--C-[N] |==|  0.37157
USER: genes 10 Torsion [C]-N--CA-[C] |==|  0.68928
USER: genes 11 Torsion [N]-CA--C-[N] |==|  0.39117
USER: genes 12 Torsion [C]-N--CA-[C] |==|  0.15771
USER: genes 13 Torsion [N]-CA--C-[O] |==|  0.03880
USER: genes 14 Torsion [N]-CA--CB-[OG] |==|  0.90549
USER: genes 15 Torsion [CA]-CB--OG-[HG] |==|  0.18747
USER: genes 16 Torsion [N]-CA--CB-[CG] |==|  0.54164
USER: genes 17 Torsion [CA]-CB--CG-[CD] |==|  0.55261
USER: genes 18 Torsion [CB]-CG--CD-[NE] |==|  0.28792
USER: genes 19 Torsion [CG]-CD--NE-[CZ] |==|  0.60279
USER: genes 20 Torsion [C]-CA--CB-[CG] |==|  0.76065
USER: genes 21 Torsion [CA]-CB--CG-[CD] |==|  0.34121
USER: genes 22 Torsion [CB]-CG--CD-[NE] |==|  0.12835
USER: genes 23 Torsion [CG]-CD--NE-[CZ] |==|  0.70353
USER: genes 24 Torsion [C]-CA--N-[C] |==|  0.57804
USER: genes 25 Torsion [N]-C--CA-[N] |==|  0.51395
USER: genes 26 Torsion [C]-CA--CB-[CG] |==|  0.45939
USER: genes 27 Torsion [CA]-CB--CG-[CD] |==|  0.55221
USER: genes 28 Torsion [CB]-CG--CD-[NE2] |==|  0.48094
USER: genes 29 Torsion [C]-CA--N-[C] |==|  0.60311
USER: genes 30 Torsion [N]-C--CA-[N] |==|  0.88898
USER: genes 31 Torsion [C]-CA--CB-[CG2] |==|  0.24790
USER: genes 32 Torsion [CA]-CB--OG1-[HG1] |==|  0.13546
USER: genes 33 Torsion [C]-CA--N-[C] |==|  0.70591
USER: genes 34 Torsion [N]-C--CA-[N] |==|  0.88812
USER: genes 35 Torsion [C]-CA--CB-[OG1] |==|  0.91938
USER: genes 36 Torsion [CA]-CB--OG1-[HG1] |==|  0.68016
ROOT
ATOM      1  CA  ARG F 167      -4.058  18.868  38.434  1.00 38.85 LIG 0.18  C 
ENDROOT
BRANCH 1 2
ATOM      2  C   ARG F 167      -5.206  17.935  38.094  1.00 41.97 LIG 0.24  C 
ATOM      3  N   LYS F 168      -4.863  16.685  37.778  1.00 42.42 LIG-0.35  N 
ATOM      4 H    LYS F 168      -4.055  16.408  37.678  1.00 42.42 LIG 0.16  HD
ATOM      5 O    ARG F 167      -6.374  18.336  38.103  1.00 34.60 LIG-0.27  OA
BRANCH 3 6
ATOM      6  CA  LYS F 168      -5.893  15.674  37.577  1.00 39.35 LIG 0.18  C 
BRANCH 6 7
ATOM      7  CB  LYS F 168      -6.417  15.708  36.139  1.00 43.51 LIG 0.04  C 
BRANCH 7 8
ATOM      8  CG  LYS F 168      -7.635  14.837  35.897  1.00 39.69 LIG 0.00  C 
BRANCH 8 9
ATOM      9  CD  LYS F 168      -8.294  15.131  34.551  1.00 48.24 LIG 0.03  C 
BRANCH 9 10
ATOM     10  CE  LYS F 168      -8.631  13.848  33.789  1.00 54.37 LIG 0.23  C 
BRANCH 10 11
ATOM     11  NZ  LYS F 168      -9.935  13.910  33.052  1.00 52.23 LIG-0.08  N 
ATOM     12 HZ3  LYS F 168     -10.553  13.455  33.503  1.00 52.23 LIG 0.27  HD
ATOM     13 HZ1  LYS F 168     -10.191  14.759  32.972  1.00 52.23 LIG 0.27  HD
ATOM     14 HZ2  LYS F 168      -9.836  13.553  32.243  1.00 52.23 LIG 0.27  HD
ENDBRANCH 10 11
ENDBRANCH 9 10
ENDBRANCH 8 9
ENDBRANCH 7 8
ENDBRANCH 6 7
BRANCH 6 15
ATOM     15  C   LYS F 168      -5.330  14.296  37.902  1.00 30.99 LIG 0.24  C 
ATOM     16 O    LYS F 168      -4.211  13.953  37.503  1.00 32.09 LIG-0.27  OA
ATOM     17  N   ARG F 169      -6.093  13.517  38.663  1.00 23.74 LIG-0.35  N 
ATOM     18 H    ARG F 169      -6.857  13.745  38.987  1.00 23.74 LIG 0.16  HD
BRANCH 17 19
ATOM     19  CA  ARG F 169      -5.656  12.171  39.004  1.00 28.77 LIG 0.18  C 
BRANCH 19 20
ATOM     20  C   ARG F 169      -6.551  11.143  38.319  1.00 37.10 LIG 0.24  C 
ATOM     21  N   SER F 170      -5.922  10.068  37.846  1.00 32.48 LIG-0.34  N 
ATOM     22 H    SER F 170      -5.101   9.884  38.023  1.00 32.48 LIG 0.16  HD
ATOM     23 O    ARG F 169      -7.769  11.328  38.191  1.00 33.53 LIG-0.27  OA
BRANCH 21 24
ATOM     24  CA  SER F 170      -6.573   9.091  36.973  1.00 32.11 LIG 0.19  C 
BRANCH 24 25
ATOM     25  C   SER F 170      -7.150   9.722  35.700  1.00 36.47 LIG 0.22  C 
ATOM     26 O    SER F 170      -6.836  10.863  35.358  1.00 35.83 LIG-0.29  OA
ENDBRANCH 24 25
BRANCH 24 27
ATOM     27  CB  SER F 170      -7.677   8.363  37.746  1.00 36.26 LIG 0.20  C 
BRANCH 27 28
ATOM     28 OG   SER F 170      -7.313   8.202  39.112  1.00 19.66 LIG-0.40  OA
ATOM     29 HG   SER F 170      -7.290   8.953  39.487  1.00 19.66 LIG 0.21  HD
ENDBRANCH 27 28
ENDBRANCH 24 27
ENDBRANCH 21 24
ENDBRANCH 19 20
BRANCH 19 30
ATOM     30  CB  ARG F 169      -5.641  11.972  40.526  1.00 32.99 LIG 0.04  C 
BRANCH 30 31
ATOM     31  CG  ARG F 169      -4.886  10.763  41.055  1.00 34.51 LIG 0.02  C 
BRANCH 31 32
ATOM     32  CD  ARG F 169      -5.361  10.459  42.488  1.00 39.71 LIG 0.14  C 
BRANCH 32 33
ATOM     33  NE  ARG F 169      -6.259   9.306  42.495  1.00 37.23 LIG-0.23  N 
ATOM     34  CZ  ARG F 169      -7.332   9.164  43.272  1.00 33.71 LIG 0.67  C 
ATOM     35  NH2 ARG F 169      -8.057   8.058  43.161  1.00 35.73 LIG-0.23  N 
ATOM     36  NH1 ARG F 169      -7.682  10.111  44.150  1.00 22.18 LIG-0.23  N 
ATOM     37 2HH2 ARG F 169      -8.754   7.949  43.654  1.00 35.73 LIG 0.17  HD
ATOM     38 1HH2 ARG F 169      -7.831   7.451  42.596  1.00 35.73 LIG 0.17  HD
ATOM     39 1HH1 ARG F 169      -7.211  10.827  44.221  1.00 22.18 LIG 0.17  HD
ATOM     40 2HH1 ARG F 169      -8.377  10.003  44.644  1.00 22.18 LIG 0.17  HD
ATOM     41 HE   ARG F 169      -6.080   8.664  41.952  1.00 37.23 LIG 0.18  HD
ENDBRANCH 32 33
ENDBRANCH 31 32
ENDBRANCH 30 31
ENDBRANCH 19 30
ENDBRANCH 17 19
ENDBRANCH 6 15
ENDBRANCH 3 6
ENDBRANCH 1 2
BRANCH 1 42
ATOM     42  CB  ARG F 167      -4.024  19.127  39.945  1.00 34.27 LIG 0.04  C 
BRANCH 42 43
ATOM     43  CG  ARG F 167      -4.924  20.267  40.378  1.00 36.76 LIG 0.02  C 
BRANCH 43 44
ATOM     44  CD  ARG F 167      -5.916  19.796  41.404  1.00 47.53 LIG 0.14  C 
BRANCH 44 45
ATOM     45  NE  ARG F 167      -5.268  18.993  42.431  1.00 46.15 LIG-0.23  N 
ATOM     46 HE   ARG F 167      -4.774  19.393  43.010  1.00 46.15 LIG 0.18  HD
ATOM     47  CZ  ARG F 167      -5.400  17.676  42.519  1.00 54.25 LIG 0.67  C 
ATOM     48  NH2 ARG F 167      -4.784  17.003  43.486  1.00 44.38 LIG-0.23  N 
ATOM     49  NH1 ARG F 167      -6.153  17.038  41.628  1.00 45.80 LIG-0.23  N 
ATOM     50 1HH2 ARG F 167      -4.297  17.421  44.057  1.00 44.38 LIG 0.17  HD
ATOM     51 2HH2 ARG F 167      -4.873  16.149  43.539  1.00 44.38 LIG 0.17  HD
ATOM     52 2HH1 ARG F 167      -6.245  16.185  41.676  1.00 45.80 LIG 0.17  HD
ATOM     53 1HH1 ARG F 167      -6.547  17.479  41.003  1.00 45.80 LIG 0.17  HD
ENDBRANCH 44 45
ENDBRANCH 43 44
ENDBRANCH 42 43
ENDBRANCH 1 42
BRANCH 1 54
ATOM     54  N   ARG F 167      -4.221  20.100  37.677  1.00 32.00 LIG-0.35  N 
ATOM     55 H    ARG F 167      -5.039  20.287  37.487  1.00 32.00 LIG 0.16  HD
ATOM     56  C   GLN F 166      -3.192  20.863  37.314  1.00 42.00 LIG 0.24  C 
ATOM     57 O    GLN F 166      -2.025  20.647  37.658  1.00 37.97 LIG-0.27  OA
BRANCH 56 58
ATOM     58  CA  GLN F 166      -3.544  22.055  36.442  1.00 41.36 LIG 0.18  C 
BRANCH 58 59
ATOM     59  CB  GLN F 166      -4.377  21.577  35.247  1.00 34.92 LIG 0.04  C 
BRANCH 59 60
ATOM     60  CG  GLN F 166      -5.088  22.667  34.486  1.00 32.73 LIG 0.10  C 
BRANCH 60 61
ATOM     61  CD  GLN F 166      -6.221  22.118  33.640  1.00 43.28 LIG 0.21  C 
ATOM     62  NE2 GLN F 166      -7.001  23.011  33.039  1.00 36.91 LIG-0.37  N 
ATOM     63 21HE GLN F 166      -6.848  23.852  33.138  1.00 36.91 LIG 0.16  HD
ATOM     64 22HE GLN F 166      -7.658  22.748  32.551  1.00 36.91 LIG 0.16  HD
ATOM     65 OE1  GLN F 166      -6.395  20.901  33.532  1.00 42.55 LIG-0.27  OA
ENDBRANCH 60 61
ENDBRANCH 59 60
ENDBRANCH 58 59
BRANCH 58 66
ATOM     66  N   GLN F 166      -2.316  22.720  36.030  1.00 35.11 LIG-0.35  N 
ATOM     67  C   THR F 165      -2.227  24.043  35.923  1.00 35.16 LIG 0.24  C 
ATOM     68 O    THR F 165      -3.200  24.787  36.094  1.00 30.91 LIG-0.27  OA
ATOM     69 H    GLN F 166      -1.664  22.184  35.866  1.00 35.11 LIG 0.16  HD
BRANCH 67 70
ATOM     70  CA  THR F 165      -0.871  24.643  35.576  1.00 44.00 LIG 0.20  C 
BRANCH 70 71
ATOM     71  CB  THR F 165      -0.660  24.608  34.058  1.00 46.85 LIG 0.15  C 
ATOM     72  CG2 THR F 165      -1.206  25.884  33.414  1.00 37.95 LIG 0.04  C 
BRANCH 71 73
ATOM     73 OG1  THR F 165       0.738  24.468  33.772  1.00 45.14 LIG-0.39  OA
ATOM     74 HG1  THR F 165       1.058  23.842  34.232  1.00 45.14 LIG 0.21  HD
ENDBRANCH 71 73
ENDBRANCH 70 71
BRANCH 70 75
ATOM     75  N   THR F 165       0.226  23.969  36.261  1.00 38.01 LIG-0.34  N 
ATOM     76 H    THR F 165       0.415  23.193  35.943  1.00 38.01 LIG 0.16  HD
ATOM     77  C   THR F 164       0.868  24.524  37.290  1.00 57.69 LIG 0.26  C 
ATOM     78 O    THR F 164       0.583  25.641  37.733  1.00 49.67 LIG-0.27  OA
BRANCH 77 79
ATOM     79  CA  THR F 164       1.994  23.693  37.912  1.00 56.73 LIG 0.43  C 
ATOM     80  N   THR F 164       1.616  22.284  37.994  1.00 65.32 LIG 0.62  N 
BRANCH 79 81
ATOM     81  CB  THR F 164       3.300  23.887  37.097  1.00 58.05 LIG 0.16  C 
ATOM     82  CG2 THR F 164       4.161  22.626  37.164  1.00 51.52 LIG 0.04  C 
BRANCH 81 83
ATOM     83 OG1  THR F 164       2.987  24.174  35.727  1.00 58.15 LIG-0.39  OA
ATOM     84 HG1  THR F 164       3.265  23.549  35.239  1.00 58.15 LIG 0.21  HD
ENDBRANCH 81 83
ENDBRANCH 79 81
ENDBRANCH 77 79
ENDBRANCH 70 75
ENDBRANCH 67 70
ENDBRANCH 58 66
ENDBRANCH 56 58
ENDBRANCH 1 54
TORSDOF 35
ENDMDL
MODEL 18
USER: ADFR SOLUTION from run 28
USER: SCORE 25.802633 LL:  -4.441 LR: -22.947 RR:   0.000 FEB: -12.506
USER: RMSD 6.438653
USER: SEED 27
USER: STATUS no improvement in best in 7 clusters for 5 generations
USER: GENES 37
USER: genes 0 Translation |==|  0.41292 0.57786 0.52169
USER: genes 1 Rotation |==|  0.75472 0.61259 0.53199 0.91403
USER: genes 2 Torsion [N]-CA--C-[N] |==|  0.32452
USER: genes 3 Torsion [C]-N--CA-[C] |==|  0.87778
USER: genes 4 Torsion [N]-CA--CB-[CG] |==|  0.49510
USER: genes 5 Torsion [CA]-CB--CG-[CD] |==|  0.39134
USER: genes 6 Torsion [CB]-CG--CD-[CE] |==|  0.30655
USER: genes 7 Torsion [CG]-CD--CE-[NZ] |==|  0.70753
USER: genes 8 Torsion [CD]-CE--NZ-[HZ3] |==|  0.47908
USER: genes 9 Torsion [N]-CA--C-[N] |==|  0.35111
USER: genes 10 Torsion [C]-N--CA-[C] |==|  0.64063
USER: genes 11 Torsion [N]-CA--C-[N] |==|  0.29658
USER: genes 12 Torsion [C]-N--CA-[C] |==|  0.19288
USER: genes 13 Torsion [N]-CA--C-[O] |==|  0.68744
USER: genes 14 Torsion [N]-CA--CB-[OG] |==|  0.85488
USER: genes 15 Torsion [CA]-CB--OG-[HG] |==|  0.50451
USER: genes 16 Torsion [N]-CA--CB-[CG] |==|  0.71877
USER: genes 17 Torsion [CA]-CB--CG-[CD] |==|  0.28704
USER: genes 18 Torsion [CB]-CG--CD-[NE] |==|  0.37333
USER: genes 19 Torsion [CG]-CD--NE-[CZ] |==|  0.76682
USER: genes 20 Torsion [C]-CA--CB-[CG] |==|  0.27713
USER: genes 21 Torsion [CA]-CB--CG-[CD] |==|  0.83052
USER: genes 22 Torsion [CB]-CG--CD-[NE] |==|  0.31682
USER: genes 23 Torsion [CG]-CD--NE-[CZ] |==|  0.52320
USER: genes 24 Torsion [C]-CA--N-[C] |==|  0.62972
USER: genes 25 Torsion [N]-C--CA-[N] |==|  0.08425
USER: genes 26 Torsion [C]-CA--CB-[CG] |==|  0.19773
USER: genes 27 Torsion [CA]-CB--CG-[CD] |==|  0.05253
USER: genes 28 Torsion [CB]-CG--CD-[NE2] |==|  0.70936
USER: genes 29 Torsion [C]-CA--N-[C] |==|  0.15003
USER: genes 30 Torsion [N]-C--CA-[N] |==|  0.85972
USER: genes 31 Torsion [C]-CA--CB-[CG2] |==|  0.08485
USER: genes 32 Torsion [CA]-CB--OG1-[HG1] |==|  0.03207
USER: genes 33 Torsion [C]-CA--N-[C] |==|  0.60406
USER: genes 34 Torsion [N]-C--CA-[N] |==|  0.46983
USER: genes 35 Torsion [C]-CA--CB-[OG1] |==|  0.15415
USER: genes 36 Torsion [CA]-CB--OG1-[HG1] |==|  0.20174
ROOT
ATOM      1  CA  ARG F 167      -3.366  20.112  39.087  1.00 38.85 LIG 0.18  C 
ENDROOT
BRANCH 1 2
ATOM      2  C   ARG F 167      -3.872  18.905  38.317  1.00 41.97 LIG 0.24  C 
ATOM      3  N   LYS F 168      -3.810  17.738  38.962  1.00 42.42 LIG-0.35  N 
ATOM      4 H    LYS F 168      -3.438  17.621  39.728  1.00 42.42 LIG 0.16  HD
ATOM      5 O    ARG F 167      -4.296  19.020  37.164  1.00 34.60 LIG-0.27  OA
BRANCH 3 6
ATOM      6  CA  LYS F 168      -4.401  16.545  38.371  1.00 39.35 LIG 0.18  C 
BRANCH 6 7
ATOM      7  CB  LYS F 168      -4.522  15.426  39.407  1.00 43.51 LIG 0.04  C 
BRANCH 7 8
ATOM      8  CG  LYS F 168      -5.168  14.157  38.885  1.00 39.69 LIG 0.00  C 
BRANCH 8 9
ATOM      9  CD  LYS F 168      -4.494  12.901  39.432  1.00 48.24 LIG 0.03  C 
BRANCH 9 10
ATOM     10  CE  LYS F 168      -5.397  12.152  40.415  1.00 54.37 LIG 0.23  C 
BRANCH 10 11
ATOM     11  NZ  LYS F 168      -4.991  12.313  41.848  1.00 52.23 LIG-0.08  N 
ATOM     12 HZ3  LYS F 168      -5.610  11.950  42.376  1.00 52.23 LIG 0.27  HD
ATOM     13 HZ1  LYS F 168      -4.211  11.907  41.984  1.00 52.23 LIG 0.27  HD
ATOM     14 HZ2  LYS F 168      -4.911  13.180  42.039  1.00 52.23 LIG 0.27  HD
ENDBRANCH 10 11
ENDBRANCH 9 10
ENDBRANCH 8 9
ENDBRANCH 7 8
ENDBRANCH 6 7
BRANCH 6 15
ATOM     15  C   LYS F 168      -5.772  16.882  37.795  1.00 30.99 LIG 0.24  C 
ATOM     16 O    LYS F 168      -6.626  17.459  38.477  1.00 32.09 LIG-0.27  OA
ATOM     17  N   ARG F 169      -5.967  16.555  36.520  1.00 23.74 LIG-0.35  N 
ATOM     18 H    ARG F 169      -5.377  16.190  36.013  1.00 23.74 LIG 0.16  HD
BRANCH 17 19
ATOM     19  CA  ARG F 169      -7.253  16.809  35.889  1.00 28.77 LIG 0.18  C 
BRANCH 19 20
ATOM     20  C   ARG F 169      -7.753  15.545  35.196  1.00 37.10 LIG 0.24  C 
ATOM     21  N   SER F 170      -8.763  14.926  35.803  1.00 32.48 LIG-0.34  N 
ATOM     22 H    SER F 170      -9.203  15.268  36.458  1.00 32.48 LIG 0.16  HD
ATOM     23 O    ARG F 169      -7.221  15.122  34.160  1.00 33.53 LIG-0.27  OA
BRANCH 21 24
ATOM     24  CA  SER F 170      -9.224  13.593  35.412  1.00 32.11 LIG 0.19  C 
BRANCH 24 25
ATOM     25  C   SER F 170      -8.215  12.490  35.755  1.00 36.47 LIG 0.22  C 
ATOM     26 O    SER F 170      -7.628  11.868  34.869  1.00 35.83 LIG-0.29  OA
ENDBRANCH 24 25
BRANCH 24 27
ATOM     27  CB  SER F 170      -9.534  13.574  33.911  1.00 36.26 LIG 0.20  C 
BRANCH 27 28
ATOM     28 OG   SER F 170     -10.415  14.637  33.565  1.00 19.66 LIG-0.40  OA
ATOM     29 HG   SER F 170     -10.591  14.599  32.745  1.00 19.66 LIG 0.21  HD
ENDBRANCH 27 28
ENDBRANCH 24 27
ENDBRANCH 21 24
ENDBRANCH 19 20
BRANCH 19 30
ATOM     30  CB  ARG F 169      -7.155  17.983  34.905  1.00 32.99 LIG 0.04  C 
BRANCH 30 31
ATOM     31  CG  ARG F 169      -7.680  19.328  35.382  1.00 34.51 LIG 0.02  C 
BRANCH 31 32
ATOM     32  CD  ARG F 169      -6.490  20.231  35.756  1.00 39.71 LIG 0.14  C 
BRANCH 32 33
ATOM     33  NE  ARG F 169      -6.670  21.571  35.201  1.00 37.23 LIG-0.23  N 
ATOM     34  CZ  ARG F 169      -6.353  21.945  33.962  1.00 33.71 LIG 0.67  C 
ATOM     35  NH2 ARG F 169      -6.581  23.201  33.598  1.00 35.73 LIG-0.23  N 
ATOM     36  NH1 ARG F 169      -5.815  21.082  33.094  1.00 22.18 LIG-0.23  N 
ATOM     37 2HH2 ARG F 169      -6.383  23.461  32.802  1.00 35.73 LIG 0.17  HD
ATOM     38 1HH2 ARG F 169      -6.928  23.755  34.158  1.00 35.73 LIG 0.17  HD
ATOM     39 1HH1 ARG F 169      -5.668  20.268  33.331  1.00 22.18 LIG 0.17  HD
ATOM     40 2HH1 ARG F 169      -5.616  21.341  32.298  1.00 22.18 LIG 0.17  HD
ATOM     41 HE   ARG F 169      -7.010  22.169  35.717  1.00 37.23 LIG 0.18  HD
ENDBRANCH 32 33
ENDBRANCH 31 32
ENDBRANCH 30 31
ENDBRANCH 19 30
ENDBRANCH 17 19
ENDBRANCH 6 15
ENDBRANCH 3 6
ENDBRANCH 1 2
BRANCH 1 42
ATOM     42  CB  ARG F 167      -4.489  21.147  39.233  1.00 34.27 LIG 0.04  C 
BRANCH 42 43
ATOM     43  CG  ARG F 167      -5.170  21.105  40.586  1.00 36.76 LIG 0.02  C 
BRANCH 43 44
ATOM     44  CD  ARG F 167      -5.807  19.763  40.815  1.00 47.53 LIG 0.14  C 
BRANCH 44 45
ATOM     45  NE  ARG F 167      -5.156  19.053  41.908  1.00 46.15 LIG-0.23  N 
ATOM     46 HE   ARG F 167      -4.574  19.476  42.379  1.00 46.15 LIG 0.18  HD
ATOM     47  CZ  ARG F 167      -5.414  17.788  42.212  1.00 54.25 LIG 0.67  C 
ATOM     48  NH2 ARG F 167      -4.787  17.200  43.226  1.00 44.38 LIG-0.23  N 
ATOM     49  NH1 ARG F 167      -6.303  17.115  41.489  1.00 45.80 LIG-0.23  N 
ATOM     50 1HH2 ARG F 167      -4.211  17.640  43.689  1.00 44.38 LIG 0.17  HD
ATOM     51 2HH2 ARG F 167      -4.958  16.380  43.420  1.00 44.38 LIG 0.17  HD
ATOM     52 2HH1 ARG F 167      -6.478  16.295  41.678  1.00 45.80 LIG 0.17  HD
ATOM     53 1HH1 ARG F 167      -6.704  17.499  40.832  1.00 45.80 LIG 0.17  HD
ENDBRANCH 44 45
ENDBRANCH 43 44
ENDBRANCH 42 43
ENDBRANCH 1 42
BRANCH 1 54
ATOM     54  N   ARG F 167      -2.213  20.658  38.388  1.00 32.00 LIG-0.35  N 
ATOM     55 H    ARG F 167      -2.328  20.744  37.540  1.00 32.00 LIG 0.16  HD
ATOM     56  C   GLN F 166      -1.085  20.992  39.013  1.00 42.00 LIG 0.24  C 
ATOM     57 O    GLN F 166      -0.946  20.953  40.240  1.00 37.97 LIG-0.27  OA
BRANCH 56 58
ATOM     58  CA  GLN F 166       0.046  21.449  38.109  1.00 41.36 LIG 0.18  C 
BRANCH 58 59
ATOM     59  CB  GLN F 166       0.971  22.387  38.895  1.00 34.92 LIG 0.04  C 
BRANCH 59 60
ATOM     60  CG  GLN F 166       1.810  21.717  39.954  1.00 32.73 LIG 0.10  C 
BRANCH 60 61
ATOM     61  CD  GLN F 166       1.914  20.221  39.727  1.00 43.28 LIG 0.21  C 
ATOM     62  NE2 GLN F 166       1.186  19.446  40.525  1.00 36.91 LIG-0.37  N 
ATOM     63 21HE GLN F 166       0.688  19.800  41.130  1.00 36.91 LIG 0.16  HD
ATOM     64 22HE GLN F 166       1.215  18.591  40.436  1.00 36.91 LIG 0.16  HD
ATOM     65 OE1  GLN F 166       2.646  19.766  38.843  1.00 42.55 LIG-0.27  OA
ENDBRANCH 60 61
ENDBRANCH 59 60
ENDBRANCH 58 59
BRANCH 58 66
ATOM     66  N   GLN F 166      -0.518  22.087  36.929  1.00 35.11 LIG-0.35  N 
ATOM     67  C   THR F 165      -1.386  23.091  37.011  1.00 35.16 LIG 0.24  C 
ATOM     68 O    THR F 165      -1.826  23.498  38.094  1.00 30.91 LIG-0.27  OA
ATOM     69 H    GLN F 166      -0.241  21.757  36.185  1.00 35.11 LIG 0.16  HD
BRANCH 67 70
ATOM     70  CA  THR F 165      -1.845  23.749  35.717  1.00 44.00 LIG 0.20  C 
BRANCH 70 71
ATOM     71  CB  THR F 165      -2.802  22.814  34.968  1.00 46.85 LIG 0.15  C 
ATOM     72  CG2 THR F 165      -3.583  21.947  35.957  1.00 37.95 LIG 0.04  C 
BRANCH 71 73
ATOM     73 OG1  THR F 165      -3.704  23.592  34.170  1.00 45.14 LIG-0.39  OA
ATOM     74 HG1  THR F 165      -3.439  24.388  34.141  1.00 45.14 LIG 0.21  HD
ENDBRANCH 71 73
ENDBRANCH 70 71
BRANCH 70 75
ATOM     75  N   THR F 165      -0.726  24.128  34.862  1.00 38.01 LIG-0.34  N 
ATOM     76 H    THR F 165      -0.074  23.567  34.866  1.00 38.01 LIG 0.16  HD
ATOM     77  C   THR F 164      -0.732  25.251  34.142  1.00 57.69 LIG 0.26  C 
ATOM     78 O    THR F 164      -1.678  26.045  34.147  1.00 49.67 LIG-0.27  OA
BRANCH 77 79
ATOM     79  CA  THR F 164       0.517  25.519  33.295  1.00 56.73 LIG 0.43  C 
ATOM     80  N   THR F 164       0.289  26.625  32.370  1.00 65.32 LIG 0.62  N 
BRANCH 79 81
ATOM     81  CB  THR F 164       1.730  25.792  34.224  1.00 58.05 LIG 0.16  C 
ATOM     82  CG2 THR F 164       1.515  27.082  35.013  1.00 51.52 LIG 0.04  C 
BRANCH 81 83
ATOM     83 OG1  THR F 164       1.907  24.701  35.138  1.00 58.15 LIG-0.39  OA
ATOM     84 HG1  THR F 164       2.211  24.036  34.725  1.00 58.15 LIG 0.21  HD
ENDBRANCH 81 83
ENDBRANCH 79 81
ENDBRANCH 77 79
ENDBRANCH 70 75
ENDBRANCH 67 70
ENDBRANCH 58 66
ENDBRANCH 56 58
ENDBRANCH 1 54
TORSDOF 35
ENDMDL
MODEL 19
USER: ADFR SOLUTION from run 39
USER: SCORE 25.729050 LL:  -4.523 LR: -22.898 RR:   0.000 FEB: -12.457
USER: RMSD 9.287498
USER: SEED 38
USER: STATUS no improvement in best in 5 clusters for 5 generations
USER: GENES 37
USER: genes 0 Translation |==|  0.47987 0.57206 0.51952
USER: genes 1 Rotation |==|  0.46143 0.64488 0.92592 0.71474
USER: genes 2 Torsion [N]-CA--C-[N] |==|  0.41494
USER: genes 3 Torsion [C]-N--CA-[C] |==|  0.71227
USER: genes 4 Torsion [N]-CA--CB-[CG] |==|  0.84927
USER: genes 5 Torsion [CA]-CB--CG-[CD] |==|  0.27039
USER: genes 6 Torsion [CB]-CG--CD-[CE] |==|  0.62739
USER: genes 7 Torsion [CG]-CD--CE-[NZ] |==|  0.33336
USER: genes 8 Torsion [CD]-CE--NZ-[HZ3] |==|  0.21541
USER: genes 9 Torsion [N]-CA--C-[N] |==|  0.72512
USER: genes 10 Torsion [C]-N--CA-[C] |==|  0.56081
USER: genes 11 Torsion [N]-CA--C-[N] |==|  0.38081
USER: genes 12 Torsion [C]-N--CA-[C] |==|  0.14779
USER: genes 13 Torsion [N]-CA--C-[O] |==|  0.36278
USER: genes 14 Torsion [N]-CA--CB-[OG] |==|  0.80860
USER: genes 15 Torsion [CA]-CB--OG-[HG] |==|  0.55332
USER: genes 16 Torsion [N]-CA--CB-[CG] |==|  0.40419
USER: genes 17 Torsion [CA]-CB--CG-[CD] |==|  0.44820
USER: genes 18 Torsion [CB]-CG--CD-[NE] |==|  0.76416
USER: genes 19 Torsion [CG]-CD--NE-[CZ] |==|  0.58838
USER: genes 20 Torsion [C]-CA--CB-[CG] |==|  0.40898
USER: genes 21 Torsion [CA]-CB--CG-[CD] |==|  0.87201
USER: genes 22 Torsion [CB]-CG--CD-[NE] |==|  0.48182
USER: genes 23 Torsion [CG]-CD--NE-[CZ] |==|  0.66809
USER: genes 24 Torsion [C]-CA--N-[C] |==|  0.63252
USER: genes 25 Torsion [N]-C--CA-[N] |==|  0.92677
USER: genes 26 Torsion [C]-CA--CB-[CG] |==|  0.70881
USER: genes 27 Torsion [CA]-CB--CG-[CD] |==|  0.75177
USER: genes 28 Torsion [CB]-CG--CD-[NE2] |==|  0.76526
USER: genes 29 Torsion [C]-CA--N-[C] |==|  0.83889
USER: genes 30 Torsion [N]-C--CA-[N] |==|  0.15247
USER: genes 31 Torsion [C]-CA--CB-[CG2] |==|  0.26492
USER: genes 32 Torsion [CA]-CB--OG1-[HG1] |==|  0.19844
USER: genes 33 Torsion [C]-CA--N-[C] |==|  0.71798
USER: genes 34 Torsion [N]-C--CA-[N] |==|  0.90344
USER: genes 35 Torsion [C]-CA--CB-[OG1] |==|  0.38191
USER: genes 36 Torsion [CA]-CB--OG1-[HG1] |==|  0.54211
ROOT
ATOM      1  CA  ARG F 167      -1.709  19.951  39.045  1.00 38.85 LIG 0.18  C 
ENDROOT
BRANCH 1 2
ATOM      2  C   ARG F 167      -0.258  20.394  39.107  1.00 41.97 LIG 0.24  C 
ATOM      3  N   LYS F 168       0.400  20.066  40.220  1.00 42.42 LIG-0.35  N 
ATOM      4 H    LYS F 168       0.042  19.705  40.914  1.00 42.42 LIG 0.16  HD
ATOM      5 O    ARG F 167       0.253  21.027  38.179  1.00 34.60 LIG-0.27  OA
BRANCH 3 6
ATOM      6  CA  LYS F 168       1.832  20.315  40.322  1.00 39.35 LIG 0.18  C 
BRANCH 6 7
ATOM      7  CB  LYS F 168       2.181  20.953  41.668  1.00 43.51 LIG 0.04  C 
BRANCH 7 8
ATOM      8  CG  LYS F 168       1.399  22.214  41.984  1.00 39.69 LIG 0.00  C 
BRANCH 8 9
ATOM      9  CD  LYS F 168       0.198  21.936  42.884  1.00 48.24 LIG 0.03  C 
BRANCH 9 10
ATOM     10  CE  LYS F 168      -1.066  22.639  42.383  1.00 54.37 LIG 0.23  C 
BRANCH 10 11
ATOM     11  NZ  LYS F 168      -2.187  21.701  42.056  1.00 52.23 LIG-0.08  N 
ATOM     12 HZ3  LYS F 168      -2.579  21.433  42.810  1.00 52.23 LIG 0.27  HD
ATOM     13 HZ1  LYS F 168      -2.784  22.117  41.544  1.00 52.23 LIG 0.27  HD
ATOM     14 HZ2  LYS F 168      -1.866  20.993  41.622  1.00 52.23 LIG 0.27  HD
ENDBRANCH 10 11
ENDBRANCH 9 10
ENDBRANCH 8 9
ENDBRANCH 7 8
ENDBRANCH 6 7
BRANCH 6 15
ATOM     15  C   LYS F 168       2.595  19.007  40.144  1.00 30.99 LIG 0.24  C 
ATOM     16 O    LYS F 168       2.846  18.563  39.018  1.00 32.09 LIG-0.27  OA
ATOM     17  N   ARG F 169       2.998  18.409  41.261  1.00 23.74 LIG-0.35  N 
ATOM     18 H    ARG F 169       2.872  18.717  42.054  1.00 23.74 LIG 0.16  HD
BRANCH 17 19
ATOM     19  CA  ARG F 169       3.708  17.140  41.197  1.00 28.77 LIG 0.18  C 
BRANCH 19 20
ATOM     20  C   ARG F 169       3.587  16.406  42.529  1.00 37.10 LIG 0.24  C 
ATOM     21  N   SER F 170       3.343  15.101  42.437  1.00 32.48 LIG-0.34  N 
ATOM     22 H    SER F 170       3.384  14.662  41.699  1.00 32.48 LIG 0.16  HD
ATOM     23 O    ARG F 169       3.678  17.007  43.609  1.00 33.53 LIG-0.27  OA
BRANCH 21 24
ATOM     24  CA  SER F 170       2.978  14.281  43.594  1.00 32.11 LIG 0.19  C 
BRANCH 24 25
ATOM     25  C   SER F 170       1.785  14.848  44.372  1.00 36.47 LIG 0.22  C 
ATOM     26 O    SER F 170       0.828  14.135  44.677  1.00 35.83 LIG-0.29  OA
ENDBRANCH 24 25
BRANCH 24 27
ATOM     27  CB  SER F 170       4.188  14.131  44.522  1.00 36.26 LIG 0.20  C 
BRANCH 27 28
ATOM     28 OG   SER F 170       5.194  13.329  43.914  1.00 19.66 LIG-0.40  OA
ATOM     29 HG   SER F 170       5.717  13.040  44.504  1.00 19.66 LIG 0.21  HD
ENDBRANCH 27 28
ENDBRANCH 24 27
ENDBRANCH 21 24
ENDBRANCH 19 20
BRANCH 19 30
ATOM     30  CB  ARG F 169       5.178  17.357  40.811  1.00 32.99 LIG 0.04  C 
BRANCH 30 31
ATOM     31  CG  ARG F 169       6.200  16.419  41.434  1.00 34.51 LIG 0.02  C 
BRANCH 31 32
ATOM     32  CD  ARG F 169       7.499  16.466  40.606  1.00 39.71 LIG 0.14  C 
BRANCH 32 33
ATOM     33  NE  ARG F 169       7.418  15.543  39.476  1.00 37.23 LIG-0.23  N 
ATOM     34  CZ  ARG F 169       8.445  14.885  38.939  1.00 33.71 LIG 0.67  C 
ATOM     35  NH2 ARG F 169       8.215  14.073  37.914  1.00 35.73 LIG-0.23  N 
ATOM     36  NH1 ARG F 169       9.687  15.030  39.414  1.00 22.18 LIG-0.23  N 
ATOM     37 2HH2 ARG F 169       8.865  13.640  37.555  1.00 35.73 LIG 0.17  HD
ATOM     38 1HH2 ARG F 169       7.416  13.981  37.610  1.00 35.73 LIG 0.17  HD
ATOM     39 1HH1 ARG F 169       9.834  15.556  40.078  1.00 22.18 LIG 0.17  HD
ATOM     40 2HH1 ARG F 169      10.338  14.598  39.055  1.00 22.18 LIG 0.17  HD
ATOM     41 HE   ARG F 169       6.643  15.413  39.127  1.00 37.23 LIG 0.18  HD
ENDBRANCH 32 33
ENDBRANCH 31 32
ENDBRANCH 30 31
ENDBRANCH 19 30
ENDBRANCH 17 19
ENDBRANCH 6 15
ENDBRANCH 3 6
ENDBRANCH 1 2
BRANCH 1 42
ATOM     42  CB  ARG F 167      -1.799  18.534  38.464  1.00 34.27 LIG 0.04  C 
BRANCH 42 43
ATOM     43  CG  ARG F 167      -2.941  17.722  39.041  1.00 36.76 LIG 0.02  C 
BRANCH 43 44
ATOM     44  CD  ARG F 167      -2.982  17.857  40.538  1.00 47.53 LIG 0.14  C 
BRANCH 44 45
ATOM     45  NE  ARG F 167      -4.163  17.209  41.091  1.00 46.15 LIG-0.23  N 
ATOM     46 HE   ARG F 167      -4.262  16.364  40.963  1.00 46.15 LIG 0.18  HD
ATOM     47  CZ  ARG F 167      -5.092  17.854  41.782  1.00 54.25 LIG 0.67  C 
ATOM     48  NH2 ARG F 167      -6.145  17.201  42.265  1.00 44.38 LIG-0.23  N 
ATOM     49  NH1 ARG F 167      -4.961  19.162  41.984  1.00 45.80 LIG-0.23  N 
ATOM     50 1HH2 ARG F 167      -6.226  16.356  42.129  1.00 44.38 LIG 0.17  HD
ATOM     51 2HH2 ARG F 167      -6.745  17.624  42.713  1.00 44.38 LIG 0.17  HD
ATOM     52 2HH1 ARG F 167      -5.558  19.589  42.431  1.00 45.80 LIG 0.17  HD
ATOM     53 1HH1 ARG F 167      -4.279  19.580  41.667  1.00 45.80 LIG 0.17  HD
ENDBRANCH 44 45
ENDBRANCH 43 44
ENDBRANCH 42 43
ENDBRANCH 1 42
BRANCH 1 54
ATOM     54  N   ARG F 167      -2.453  20.912  38.245  1.00 32.00 LIG-0.35  N 
ATOM     55 H    ARG F 167      -2.074  21.113  37.500  1.00 32.00 LIG 0.16  HD
ATOM     56  C   GLN F 166      -3.616  21.428  38.639  1.00 42.00 LIG 0.24  C 
ATOM     57 O    GLN F 166      -4.207  21.077  39.666  1.00 37.97 LIG-0.27  OA
BRANCH 56 58
ATOM     58  CA  GLN F 166      -4.197  22.492  37.724  1.00 41.36 LIG 0.18  C 
BRANCH 58 59
ATOM     59  CB  GLN F 166      -5.225  21.844  36.788  1.00 34.92 LIG 0.04  C 
BRANCH 59 60
ATOM     60  CG  GLN F 166      -4.760  21.647  35.368  1.00 32.73 LIG 0.10  C 
BRANCH 60 61
ATOM     61  CD  GLN F 166      -5.066  22.853  34.502  1.00 43.28 LIG 0.21  C 
ATOM     62  NE2 GLN F 166      -6.284  22.912  33.972  1.00 36.91 LIG-0.37  N 
ATOM     63 21HE GLN F 166      -6.852  22.286  34.130  1.00 36.91 LIG 0.16  HD
ATOM     64 22HE GLN F 166      -6.504  23.576  33.472  1.00 36.91 LIG 0.16  HD
ATOM     65 OE1  GLN F 166      -4.213  23.725  34.308  1.00 42.55 LIG-0.27  OA
ENDBRANCH 60 61
ENDBRANCH 59 60
ENDBRANCH 58 59
BRANCH 58 66
ATOM     66  N   GLN F 166      -3.113  23.135  36.997  1.00 35.11 LIG-0.35  N 
ATOM     67  C   THR F 165      -2.106  23.743  37.616  1.00 35.16 LIG 0.24  C 
ATOM     68 O    THR F 165      -2.064  23.866  38.847  1.00 30.91 LIG-0.27  OA
ATOM     69 H    GLN F 166      -3.185  23.085  36.141  1.00 35.11 LIG 0.16  HD
BRANCH 67 70
ATOM     70  CA  THR F 165      -0.975  24.304  36.765  1.00 44.00 LIG 0.20  C 
BRANCH 70 71
ATOM     71  CB  THR F 165       0.058  24.996  37.661  1.00 46.85 LIG 0.15  C 
ATOM     72  CG2 THR F 165       1.201  24.036  37.996  1.00 37.95 LIG 0.04  C 
BRANCH 71 73
ATOM     73 OG1  THR F 165       0.567  26.160  36.996  1.00 45.14 LIG-0.39  OA
ATOM     74 HG1  THR F 165      -0.026  26.754  36.976  1.00 45.14 LIG 0.21  HD
ENDBRANCH 71 73
ENDBRANCH 70 71
BRANCH 70 75
ATOM     75  N   THR F 165      -1.457  25.220  35.738  1.00 38.01 LIG-0.34  N 
ATOM     76 H    THR F 165      -1.644  26.008  36.028  1.00 38.01 LIG 0.16  HD
ATOM     77  C   THR F 164      -1.590  24.851  34.463  1.00 57.69 LIG 0.26  C 
ATOM     78 O    THR F 164      -1.316  23.715  34.062  1.00 49.67 LIG-0.27  OA
BRANCH 77 79
ATOM     79  CA  THR F 164      -2.114  25.921  33.499  1.00 56.73 LIG 0.43  C 
ATOM     80  N   THR F 164      -3.086  26.786  34.163  1.00 65.32 LIG 0.62  N 
BRANCH 79 81
ATOM     81  CB  THR F 164      -0.925  26.736  32.924  1.00 58.05 LIG 0.16  C 
ATOM     82  CG2 THR F 164       0.388  25.988  33.148  1.00 51.52 LIG 0.04  C 
BRANCH 81 83
ATOM     83 OG1  THR F 164      -1.112  26.956  31.519  1.00 58.15 LIG-0.39  OA
ATOM     84 HG1  THR F 164      -0.388  27.207  31.176  1.00 58.15 LIG 0.21  HD
ENDBRANCH 81 83
ENDBRANCH 79 81
ENDBRANCH 77 79
ENDBRANCH 70 75
ENDBRANCH 67 70
ENDBRANCH 58 66
ENDBRANCH 56 58
ENDBRANCH 1 54
TORSDOF 35
ENDMDL
MODEL 20
USER: ADFR SOLUTION from run 90
USER: SCORE 25.729506 LL:  -3.475 LR: -22.895 RR:   0.000 FEB: -12.454
USER: RMSD 6.712649
USER: SEED 89
USER: STATUS no improvement in best in 10 clusters for 5 generations
USER: GENES 37
USER: genes 0 Translation |==|  0.60842 0.60116 0.47014
USER: genes 1 Rotation |==|  0.06079 0.28977 0.61257 0.51500
USER: genes 2 Torsion [N]-CA--C-[N] |==|  0.46606
USER: genes 3 Torsion [C]-N--CA-[C] |==|  0.58264
USER: genes 4 Torsion [N]-CA--CB-[CG] |==|  0.75300
USER: genes 5 Torsion [CA]-CB--CG-[CD] |==|  0.44044
USER: genes 6 Torsion [CB]-CG--CD-[CE] |==|  0.31498
USER: genes 7 Torsion [CG]-CD--CE-[NZ] |==|  0.47389
USER: genes 8 Torsion [CD]-CE--NZ-[HZ3] |==|  0.20903
USER: genes 9 Torsion [N]-CA--C-[N] |==|  0.47707
USER: genes 10 Torsion [C]-N--CA-[C] |==|  0.82884
USER: genes 11 Torsion [N]-CA--C-[N] |==|  0.39721
USER: genes 12 Torsion [C]-N--CA-[C] |==|  0.84619
USER: genes 13 Torsion [N]-CA--C-[O] |==|  0.22128
USER: genes 14 Torsion [N]-CA--CB-[OG] |==|  0.13551
USER: genes 15 Torsion [CA]-CB--OG-[HG] |==|  0.83164
USER: genes 16 Torsion [N]-CA--CB-[CG] |==|  0.43118
USER: genes 17 Torsion [CA]-CB--CG-[CD] |==|  0.33337
USER: genes 18 Torsion [CB]-CG--CD-[NE] |==|  0.02034
USER: genes 19 Torsion [CG]-CD--NE-[CZ] |==|  0.77016
USER: genes 20 Torsion [C]-CA--CB-[CG] |==|  0.69312
USER: genes 21 Torsion [CA]-CB--CG-[CD] |==|  0.32864
USER: genes 22 Torsion [CB]-CG--CD-[NE] |==|  0.94392
USER: genes 23 Torsion [CG]-CD--NE-[CZ] |==|  0.73670
USER: genes 24 Torsion [C]-CA--N-[C] |==|  0.55151
USER: genes 25 Torsion [N]-C--CA-[N] |==|  0.95314
USER: genes 26 Torsion [C]-CA--CB-[CG] |==|  0.17024
USER: genes 27 Torsion [CA]-CB--CG-[CD] |==|  0.21298
USER: genes 28 Torsion [CB]-CG--CD-[NE2] |==|  0.84347
USER: genes 29 Torsion [C]-CA--N-[C] |==|  0.70116
USER: genes 30 Torsion [N]-C--CA-[N] |==|  0.41347
USER: genes 31 Torsion [C]-CA--CB-[CG2] |==|  0.76331
USER: genes 32 Torsion [CA]-CB--OG1-[HG1] |==|  0.80265
USER: genes 33 Torsion [C]-CA--N-[C] |==|  0.63603
USER: genes 34 Torsion [N]-C--CA-[N] |==|  0.78202
USER: genes 35 Torsion [C]-CA--CB-[OG1] |==|  0.48586
USER: genes 36 Torsion [CA]-CB--OG1-[HG1] |==|  0.39616
ROOT
ATOM      1  CA  ARG F 167       1.472  20.758  38.082  1.00 38.85 LIG 0.18  C 
ENDROOT
BRANCH 1 2
ATOM      2  C   ARG F 167      -0.009  21.070  38.205  1.00 41.97 LIG 0.24  C 
ATOM      3  N   LYS F 168      -0.824  20.015  38.221  1.00 42.42 LIG-0.35  N 
ATOM      4 H    LYS F 168      -0.577  19.202  38.086  1.00 42.42 LIG 0.16  HD
ATOM      5 O    ARG F 167      -0.408  22.236  38.271  1.00 34.60 LIG-0.27  OA
BRANCH 3 6
ATOM      6  CA  LYS F 168      -2.246  20.195  38.480  1.00 39.35 LIG 0.18  C 
BRANCH 6 7
ATOM      7  CB  LYS F 168      -3.006  20.479  37.183  1.00 43.51 LIG 0.04  C 
BRANCH 7 8
ATOM      8  CG  LYS F 168      -3.090  21.948  36.816  1.00 39.69 LIG 0.00  C 
BRANCH 8 9
ATOM      9  CD  LYS F 168      -3.366  22.156  35.329  1.00 48.24 LIG 0.03  C 
BRANCH 9 10
ATOM     10  CE  LYS F 168      -4.743  22.777  35.085  1.00 54.37 LIG 0.23  C 
BRANCH 10 11
ATOM     11  NZ  LYS F 168      -4.969  23.203  33.666  1.00 52.23 LIG-0.08  N 
ATOM     12 HZ3  LYS F 168      -5.118  22.486  33.160  1.00 52.23 LIG 0.27  HD
ATOM     13 HZ1  LYS F 168      -5.673  23.745  33.627  1.00 52.23 LIG 0.27  HD
ATOM     14 HZ2  LYS F 168      -4.248  23.632  33.367  1.00 52.23 LIG 0.27  HD
ENDBRANCH 10 11
ENDBRANCH 9 10
ENDBRANCH 8 9
ENDBRANCH 7 8
ENDBRANCH 6 7
BRANCH 6 15
ATOM     15  C   LYS F 168      -2.806  18.949  39.158  1.00 30.99 LIG 0.24  C 
ATOM     16 O    LYS F 168      -2.113  17.937  39.305  1.00 32.09 LIG-0.27  OA
ATOM     17  N   ARG F 169      -4.055  19.040  39.607  1.00 23.74 LIG-0.35  N 
ATOM     18 H    ARG F 169      -4.545  19.745  39.554  1.00 23.74 LIG 0.16  HD
BRANCH 17 19
ATOM     19  CA  ARG F 169      -4.689  17.895  40.243  1.00 28.77 LIG 0.18  C 
BRANCH 19 20
ATOM     20  C   ARG F 169      -4.780  16.735  39.256  1.00 37.10 LIG 0.24  C 
ATOM     21  N   SER F 170      -4.590  15.526  39.782  1.00 32.48 LIG-0.34  N 
ATOM     22 H    SER F 170      -4.555  15.378  40.628  1.00 32.48 LIG 0.16  HD
ATOM     23 O    ARG F 169      -4.983  16.926  38.049  1.00 33.53 LIG-0.27  OA
BRANCH 21 24
ATOM     24  CA  SER F 170      -4.421  14.324  38.964  1.00 32.11 LIG 0.19  C 
BRANCH 24 25
ATOM     25  C   SER F 170      -5.580  14.106  37.982  1.00 36.47 LIG 0.22  C 
ATOM     26 O    SER F 170      -5.642  14.732  36.923  1.00 35.83 LIG-0.29  OA
ENDBRANCH 24 25
BRANCH 24 27
ATOM     27  CB  SER F 170      -4.263  13.100  39.872  1.00 36.26 LIG 0.20  C 
BRANCH 27 28
ATOM     28 OG   SER F 170      -5.279  13.078  40.868  1.00 19.66 LIG-0.40  OA
ATOM     29 HG   SER F 170      -5.221  13.768  41.343  1.00 19.66 LIG 0.21  HD
ENDBRANCH 27 28
ENDBRANCH 24 27
ENDBRANCH 21 24
ENDBRANCH 19 20
BRANCH 19 30
ATOM     30  CB  ARG F 169      -6.073  18.272  40.790  1.00 32.99 LIG 0.04  C 
BRANCH 30 31
ATOM     31  CG  ARG F 169      -7.082  17.145  40.948  1.00 34.51 LIG 0.02  C 
BRANCH 31 32
ATOM     32  CD  ARG F 169      -7.498  17.044  42.428  1.00 39.71 LIG 0.14  C 
BRANCH 32 33
ATOM     33  NE  ARG F 169      -6.940  18.157  43.194  1.00 37.23 LIG-0.23  N 
ATOM     34  CZ  ARG F 169      -5.706  18.211  43.693  1.00 33.71 LIG 0.67  C 
ATOM     35  NH2 ARG F 169      -5.339  19.295  44.366  1.00 35.73 LIG-0.23  N 
ATOM     36  NH1 ARG F 169      -4.845  17.201  43.527  1.00 22.18 LIG-0.23  N 
ATOM     37 2HH2 ARG F 169      -4.546  19.349  44.695  1.00 35.73 LIG 0.17  HD
ATOM     38 1HH2 ARG F 169      -5.894  19.944  44.471  1.00 35.73 LIG 0.17  HD
ATOM     39 1HH1 ARG F 169      -5.085  16.500  43.091  1.00 22.18 LIG 0.17  HD
ATOM     40 2HH1 ARG F 169      -4.053  17.253  43.857  1.00 22.18 LIG 0.17  HD
ATOM     41 HE   ARG F 169      -7.451  18.834  43.334  1.00 37.23 LIG 0.18  HD
ENDBRANCH 32 33
ENDBRANCH 31 32
ENDBRANCH 30 31
ENDBRANCH 19 30
ENDBRANCH 17 19
ENDBRANCH 6 15
ENDBRANCH 3 6
ENDBRANCH 1 2
BRANCH 1 42
ATOM     42  CB  ARG F 167       1.978  20.101  39.372  1.00 34.27 LIG 0.04  C 
BRANCH 42 43
ATOM     43  CG  ARG F 167       2.910  20.989  40.171  1.00 36.76 LIG 0.02  C 
BRANCH 43 44
ATOM     44  CD  ARG F 167       2.328  21.282  41.526  1.00 47.53 LIG 0.14  C 
BRANCH 44 45
ATOM     45  NE  ARG F 167       0.888  21.060  41.537  1.00 46.15 LIG-0.23  N 
ATOM     46 HE   ARG F 167       0.600  20.263  41.684  1.00 46.15 LIG 0.18  HD
ATOM     47  CZ  ARG F 167       0.000  22.023  41.334  1.00 54.25 LIG 0.67  C 
ATOM     48  NH2 ARG F 167      -1.302  21.753  41.363  1.00 44.38 LIG-0.23  N 
ATOM     49  NH1 ARG F 167       0.426  23.260  41.097  1.00 45.80 LIG-0.23  N 
ATOM     50 1HH2 ARG F 167      -1.571  20.951  41.514  1.00 44.38 LIG 0.17  HD
ATOM     51 2HH2 ARG F 167      -1.874  22.381  41.231  1.00 44.38 LIG 0.17  HD
ATOM     52 2HH1 ARG F 167      -0.142  23.892  40.964  1.00 45.80 LIG 0.17  HD
ATOM     53 1HH1 ARG F 167       1.269  23.429  41.077  1.00 45.80 LIG 0.17  HD
ENDBRANCH 44 45
ENDBRANCH 43 44
ENDBRANCH 42 43
ENDBRANCH 1 42
BRANCH 1 54
ATOM     54  N   ARG F 167       2.184  21.993  37.789  1.00 32.00 LIG-0.35  N 
ATOM     55 H    ARG F 167       1.739  22.705  37.976  1.00 32.00 LIG 0.16  HD
ATOM     56  C   GLN F 166       3.413  22.010  37.275  1.00 42.00 LIG 0.24  C 
ATOM     57 O    GLN F 166       4.089  20.994  37.086  1.00 37.97 LIG-0.27  OA
BRANCH 56 58
ATOM     58  CA  GLN F 166       3.956  23.388  36.940  1.00 41.36 LIG 0.18  C 
BRANCH 58 59
ATOM     59  CB  GLN F 166       5.015  23.779  37.979  1.00 34.92 LIG 0.04  C 
BRANCH 59 60
ATOM     60  CG  GLN F 166       6.215  22.868  38.040  1.00 32.73 LIG 0.10  C 
BRANCH 60 61
ATOM     61  CD  GLN F 166       7.171  23.118  36.890  1.00 43.28 LIG 0.21  C 
ATOM     62  NE2 GLN F 166       6.667  23.016  35.664  1.00 36.91 LIG-0.37  N 
ATOM     63 21HE GLN F 166       5.836  22.821  35.556  1.00 36.91 LIG 0.16  HD
ATOM     64 22HE GLN F 166       7.171  23.147  34.979  1.00 36.91 LIG 0.16  HD
ATOM     65 OE1  GLN F 166       8.355  23.396  37.102  1.00 42.55 LIG-0.27  OA
ENDBRANCH 60 61
ENDBRANCH 59 60
ENDBRANCH 58 59
BRANCH 58 66
ATOM     66  N   GLN F 166       2.851  24.334  36.891  1.00 35.11 LIG-0.35  N 
ATOM     67  C   THR F 165       2.401  24.842  35.748  1.00 35.16 LIG 0.24  C 
ATOM     68 O    THR F 165       2.940  24.600  34.660  1.00 30.91 LIG-0.27  OA
ATOM     69 H    GLN F 166       2.522  24.531  37.661  1.00 35.11 LIG 0.16  HD
BRANCH 67 70
ATOM     70  CA  THR F 165       1.181  25.752  35.799  1.00 44.00 LIG 0.20  C 
BRANCH 70 71
ATOM     71  CB  THR F 165      -0.098  24.913  35.705  1.00 46.85 LIG 0.15  C 
ATOM     72  CG2 THR F 165      -0.450  24.638  34.242  1.00 37.95 LIG 0.04  C 
BRANCH 71 73
ATOM     73 OG1  THR F 165       0.085  23.679  36.412  1.00 45.14 LIG-0.39  OA
ATOM     74 HG1  THR F 165       0.616  23.187  35.986  1.00 45.14 LIG 0.21  HD
ENDBRANCH 71 73
ENDBRANCH 70 71
BRANCH 70 75
ATOM     75  N   THR F 165       1.204  26.768  34.753  1.00 38.01 LIG-0.34  N 
ATOM     76 H    THR F 165       1.370  26.461  33.968  1.00 38.01 LIG 0.16  HD
ATOM     77  C   THR F 164       0.985  28.058  35.012  1.00 57.69 LIG 0.26  C 
ATOM     78 O    THR F 164       0.746  28.482  36.148  1.00 49.67 LIG-0.27  OA
BRANCH 77 79
ATOM     79  CA  THR F 164       1.047  29.010  33.813  1.00 56.73 LIG 0.43  C 
ATOM     80  N   THR F 164       2.433  29.302  33.455  1.00 65.32 LIG 0.62  N 
BRANCH 79 81
ATOM     81  CB  THR F 164       0.265  28.400  32.619  1.00 58.05 LIG 0.16  C 
ATOM     82  CG2 THR F 164      -1.159  28.046  33.043  1.00 51.52 LIG 0.04  C 
BRANCH 81 83
ATOM     83 OG1  THR F 164       0.218  29.335  31.533  1.00 58.15 LIG-0.39  OA
ATOM     84 HG1  THR F 164       0.288  28.922  30.804  1.00 58.15 LIG 0.21  HD
ENDBRANCH 81 83
ENDBRANCH 79 81
ENDBRANCH 77 79
ENDBRANCH 70 75
ENDBRANCH 67 70
ENDBRANCH 58 66
ENDBRANCH 56 58
ENDBRANCH 1 54
TORSDOF 35
ENDMDL
MODEL 21
USER: ADFR SOLUTION from run 38
USER: SCORE 26.024582 LL:  -4.691 LR: -22.884 RR:   0.000 FEB: -12.444
USER: RMSD 9.762796
USER: SEED 37
USER: STATUS searching
USER: GENES 37
USER: genes 0 Translation |==|  0.41489 0.54038 0.52671
USER: genes 1 Rotation |==|  0.42214 0.77456 0.90086 0.58870
USER: genes 2 Torsion [N]-CA--C-[N] |==|  0.45651
USER: genes 3 Torsion [C]-N--CA-[C] |==|  0.62293
USER: genes 4 Torsion [N]-CA--CB-[CG] |==|  0.91592
USER: genes 5 Torsion [CA]-CB--CG-[CD] |==|  0.29518
USER: genes 6 Torsion [CB]-CG--CD-[CE] |==|  0.68316
USER: genes 7 Torsion [CG]-CD--CE-[NZ] |==|  0.28642
USER: genes 8 Torsion [CD]-CE--NZ-[HZ3] |==|  0.32471
USER: genes 9 Torsion [N]-CA--C-[N] |==|  0.07222
USER: genes 10 Torsion [C]-N--CA-[C] |==|  0.19327
USER: genes 11 Torsion [N]-CA--C-[N] |==|  0.02945
USER: genes 12 Torsion [C]-N--CA-[C] |==|  0.81951
USER: genes 13 Torsion [N]-CA--C-[O] |==|  0.77893
USER: genes 14 Torsion [N]-CA--CB-[OG] |==|  0.94596
USER: genes 15 Torsion [CA]-CB--OG-[HG] |==|  0.11706
USER: genes 16 Torsion [N]-CA--CB-[CG] |==|  0.32804
USER: genes 17 Torsion [CA]-CB--CG-[CD] |==|  0.40357
USER: genes 18 Torsion [CB]-CG--CD-[NE] |==|  0.63197
USER: genes 19 Torsion [CG]-CD--NE-[CZ] |==|  0.27619
USER: genes 20 Torsion [C]-CA--CB-[CG] |==|  0.44082
USER: genes 21 Torsion [CA]-CB--CG-[CD] |==|  0.96014
USER: genes 22 Torsion [CB]-CG--CD-[NE] |==|  0.48573
USER: genes 23 Torsion [CG]-CD--NE-[CZ] |==|  0.42704
USER: genes 24 Torsion [C]-CA--N-[C] |==|  0.74840
USER: genes 25 Torsion [N]-C--CA-[N] |==|  0.67753
USER: genes 26 Torsion [C]-CA--CB-[CG] |==|  0.23318
USER: genes 27 Torsion [CA]-CB--CG-[CD] |==|  0.55335
USER: genes 28 Torsion [CB]-CG--CD-[NE2] |==|  0.72351
USER: genes 29 Torsion [C]-CA--N-[C] |==|  0.18679
USER: genes 30 Torsion [N]-C--CA-[N] |==|  0.44935
USER: genes 31 Torsion [C]-CA--CB-[CG2] |==|  0.98916
USER: genes 32 Torsion [CA]-CB--OG1-[HG1] |==|  0.20877
USER: genes 33 Torsion [C]-CA--N-[C] |==|  0.66469
USER: genes 34 Torsion [N]-C--CA-[N] |==|  0.39601
USER: genes 35 Torsion [C]-CA--CB-[OG1] |==|  0.47121
USER: genes 36 Torsion [CA]-CB--OG1-[HG1] |==|  0.65479
ROOT
ATOM      1  CA  ARG F 167      -3.317  19.072  39.185  1.00 38.85 LIG 0.18  C 
ENDROOT
BRANCH 1 2
ATOM      2  C   ARG F 167      -2.200  19.877  38.546  1.00 41.97 LIG 0.24  C 
ATOM      3  N   LYS F 168      -1.192  20.211  39.354  1.00 42.42 LIG-0.35  N 
ATOM      4 H    LYS F 168      -1.178  20.075  40.203  1.00 42.42 LIG 0.16  HD
ATOM      5 O    ARG F 167      -2.251  20.201  37.356  1.00 34.60 LIG-0.27  OA
BRANCH 3 6
ATOM      6  CA  LYS F 168      -0.005  20.857  38.811  1.00 39.35 LIG 0.18  C 
BRANCH 6 7
ATOM      7  CB  LYS F 168      -0.023  22.361  39.095  1.00 43.51 LIG 0.04  C 
BRANCH 7 8
ATOM      8  CG  LYS F 168      -1.411  22.966  39.171  1.00 39.69 LIG 0.00  C 
BRANCH 8 9
ATOM      9  CD  LYS F 168      -1.816  23.300  40.605  1.00 48.24 LIG 0.03  C 
BRANCH 9 10
ATOM     10  CE  LYS F 168      -2.987  22.437  41.082  1.00 54.37 LIG 0.23  C 
BRANCH 10 11
ATOM     11  NZ  LYS F 168      -2.581  21.326  42.001  1.00 52.23 LIG-0.08  N 
ATOM     12 HZ3  LYS F 168      -2.956  21.448  42.799  1.00 52.23 LIG 0.27  HD
ATOM     13 HZ1  LYS F 168      -2.849  20.548  41.664  1.00 52.23 LIG 0.27  HD
ATOM     14 HZ2  LYS F 168      -1.695  21.321  42.088  1.00 52.23 LIG 0.27  HD
ENDBRANCH 10 11
ENDBRANCH 9 10
ENDBRANCH 8 9
ENDBRANCH 7 8
ENDBRANCH 6 7
BRANCH 6 15
ATOM     15  C   LYS F 168       1.245  20.221  39.409  1.00 30.99 LIG 0.24  C 
ATOM     16 O    LYS F 168       2.294  20.865  39.528  1.00 32.09 LIG-0.27  OA
ATOM     17  N   ARG F 169       1.120  18.964  39.824  1.00 23.74 LIG-0.35  N 
ATOM     18 H    ARG F 169       0.392  18.507  39.790  1.00 23.74 LIG 0.16  HD
BRANCH 17 19
ATOM     19  CA  ARG F 169       2.264  18.260  40.383  1.00 28.77 LIG 0.18  C 
BRANCH 19 20
ATOM     20  C   ARG F 169       2.628  18.851  41.741  1.00 37.10 LIG 0.24  C 
ATOM     21  N   SER F 170       1.739  19.704  42.246  1.00 32.48 LIG-0.34  N 
ATOM     22 H    SER F 170       0.954  19.820  41.915  1.00 32.48 LIG 0.16  HD
ATOM     23 O    ARG F 169       3.696  18.572  42.303  1.00 33.53 LIG-0.27  OA
BRANCH 21 24
ATOM     24  CA  SER F 170       2.014  20.532  43.421  1.00 32.11 LIG 0.19  C 
BRANCH 24 25
ATOM     25  C   SER F 170       2.217  19.705  44.697  1.00 36.47 LIG 0.22  C 
ATOM     26 O    SER F 170       1.255  19.259  45.324  1.00 35.83 LIG-0.29  OA
ENDBRANCH 24 25
BRANCH 24 27
ATOM     27  CB  SER F 170       0.875  21.538  43.621  1.00 36.26 LIG 0.20  C 
BRANCH 27 28
ATOM     28 OG   SER F 170       0.130  21.701  42.420  1.00 19.66 LIG-0.40  OA
ATOM     29 HG   SER F 170       0.010  20.952  42.060  1.00 19.66 LIG 0.21  HD
ENDBRANCH 27 28
ENDBRANCH 24 27
ENDBRANCH 21 24
ENDBRANCH 19 20
BRANCH 19 30
ATOM     30  CB  ARG F 169       3.457  18.305  39.417  1.00 32.99 LIG 0.04  C 
BRANCH 30 31
ATOM     31  CG  ARG F 169       4.715  19.003  39.909  1.00 34.51 LIG 0.02  C 
BRANCH 31 32
ATOM     32  CD  ARG F 169       5.950  18.277  39.340  1.00 39.71 LIG 0.14  C 
BRANCH 32 33
ATOM     33  NE  ARG F 169       6.931  18.033  40.395  1.00 37.23 LIG-0.23  N 
ATOM     34  CZ  ARG F 169       7.100  16.883  41.044  1.00 33.71 LIG 0.67  C 
ATOM     35  NH2 ARG F 169       8.040  16.811  41.979  1.00 35.73 LIG-0.23  N 
ATOM     36  NH1 ARG F 169       6.345  15.814  40.769  1.00 22.18 LIG-0.23  N 
ATOM     37 2HH2 ARG F 169       8.164  16.076  42.408  1.00 35.73 LIG 0.17  HD
ATOM     38 1HH2 ARG F 169       8.525  17.499  42.155  1.00 35.73 LIG 0.17  HD
ATOM     39 1HH1 ARG F 169       5.737  15.861  40.163  1.00 22.18 LIG 0.17  HD
ATOM     40 2HH1 ARG F 169       6.467  15.079  41.199  1.00 22.18 LIG 0.17  HD
ATOM     41 HE   ARG F 169       7.443  18.688  40.616  1.00 37.23 LIG 0.18  HD
ENDBRANCH 32 33
ENDBRANCH 31 32
ENDBRANCH 30 31
ENDBRANCH 19 30
ENDBRANCH 17 19
ENDBRANCH 6 15
ENDBRANCH 3 6
ENDBRANCH 1 2
BRANCH 1 42
ATOM     42  CB  ARG F 167      -2.846  17.635  39.443  1.00 34.27 LIG 0.04  C 
BRANCH 42 43
ATOM     43  CG  ARG F 167      -3.658  16.920  40.503  1.00 36.76 LIG 0.02  C 
BRANCH 43 44
ATOM     44  CD  ARG F 167      -4.494  17.900  41.279  1.00 47.53 LIG 0.14  C 
BRANCH 44 45
ATOM     45  NE  ARG F 167      -5.369  17.214  42.220  1.00 46.15 LIG-0.23  N 
ATOM     46 HE   ARG F 167      -5.606  16.407  42.042  1.00 46.15 LIG 0.18  HD
ATOM     47  CZ  ARG F 167      -5.820  17.771  43.335  1.00 54.25 LIG 0.67  C 
ATOM     48  NH2 ARG F 167      -6.613  17.088  44.155  1.00 44.38 LIG-0.23  N 
ATOM     49  NH1 ARG F 167      -5.472  19.022  43.623  1.00 45.80 LIG-0.23  N 
ATOM     50 1HH2 ARG F 167      -6.836  16.280  43.962  1.00 44.38 LIG 0.17  HD
ATOM     51 2HH2 ARG F 167      -6.902  17.453  44.877  1.00 44.38 LIG 0.17  HD
ATOM     52 2HH1 ARG F 167      -5.759  19.392  44.344  1.00 45.80 LIG 0.17  HD
ATOM     53 1HH1 ARG F 167      -4.961  19.461  43.088  1.00 45.80 LIG 0.17  HD
ENDBRANCH 44 45
ENDBRANCH 43 44
ENDBRANCH 42 43
ENDBRANCH 1 42
BRANCH 1 54
ATOM     54  N   ARG F 167      -4.477  19.111  38.307  1.00 32.00 LIG-0.35  N 
ATOM     55 H    ARG F 167      -4.495  18.479  37.725  1.00 32.00 LIG 0.16  HD
ATOM     56  C   GLN F 166      -5.421  20.046  38.405  1.00 42.00 LIG 0.24  C 
ATOM     57 O    GLN F 166      -5.446  20.903  39.294  1.00 37.97 LIG-0.27  OA
BRANCH 56 58
ATOM     58  CA  GLN F 166      -6.503  19.989  37.340  1.00 41.36 LIG 0.18  C 
BRANCH 58 59
ATOM     59  CB  GLN F 166      -6.314  18.721  36.498  1.00 34.92 LIG 0.04  C 
BRANCH 59 60
ATOM     60  CG  GLN F 166      -6.925  17.471  37.080  1.00 32.73 LIG 0.10  C 
BRANCH 60 61
ATOM     61  CD  GLN F 166      -6.325  16.217  36.475  1.00 43.28 LIG 0.21  C 
ATOM     62  NE2 GLN F 166      -7.028  15.625  35.514  1.00 36.91 LIG-0.37  N 
ATOM     63 21HE GLN F 166      -7.780  15.958  35.264  1.00 36.91 LIG 0.16  HD
ATOM     64 22HE GLN F 166      -6.729  14.909  35.142  1.00 36.91 LIG 0.16  HD
ATOM     65 OE1  GLN F 166      -5.240  15.781  36.871  1.00 42.55 LIG-0.27  OA
ENDBRANCH 60 61
ENDBRANCH 59 60
ENDBRANCH 58 59
BRANCH 58 66
ATOM     66  N   GLN F 166      -6.442  21.202  36.538  1.00 35.11 LIG-0.35  N 
ATOM     67  C   THR F 165      -5.416  21.473  35.738  1.00 35.16 LIG 0.24  C 
ATOM     68 O    THR F 165      -4.413  20.749  35.679  1.00 30.91 LIG-0.27  OA
ATOM     69 H    GLN F 166      -7.124  21.719  36.630  1.00 35.11 LIG 0.16  HD
BRANCH 67 70
ATOM     70  CA  THR F 165      -5.493  22.723  34.872  1.00 44.00 LIG 0.20  C 
BRANCH 70 71
ATOM     71  CB  THR F 165      -6.458  22.489  33.704  1.00 46.85 LIG 0.15  C 
ATOM     72  CG2 THR F 165      -6.968  21.047  33.714  1.00 37.95 LIG 0.04  C 
BRANCH 71 73
ATOM     73 OG1  THR F 165      -7.558  23.405  33.800  1.00 45.14 LIG-0.39  OA
ATOM     74 HG1  THR F 165      -7.306  24.171  33.566  1.00 45.14 LIG 0.21  HD
ENDBRANCH 71 73
ENDBRANCH 70 71
BRANCH 70 75
ATOM     75  N   THR F 165      -4.185  23.138  34.380  1.00 38.01 LIG-0.34  N 
ATOM     76 H    THR F 165      -3.784  22.545  33.904  1.00 38.01 LIG 0.16  HD
ATOM     77  C   THR F 164      -3.671  24.338  34.654  1.00 57.69 LIG 0.26  C 
ATOM     78 O    THR F 164      -4.262  25.179  35.339  1.00 49.67 LIG-0.27  OA
BRANCH 77 79
ATOM     79  CA  THR F 164      -2.283  24.629  34.072  1.00 56.73 LIG 0.43  C 
ATOM     80  N   THR F 164      -2.183  26.021  33.641  1.00 65.32 LIG 0.62  N 
BRANCH 79 81
ATOM     81  CB  THR F 164      -1.193  24.276  35.119  1.00 58.05 LIG 0.16  C 
ATOM     82  CG2 THR F 164      -1.440  22.883  35.694  1.00 51.52 LIG 0.04  C 
BRANCH 81 83
ATOM     83 OG1  THR F 164       0.105  24.314  34.509  1.00 58.15 LIG-0.39  OA
ATOM     84 HG1  THR F 164       0.490  23.576  34.623  1.00 58.15 LIG 0.21  HD
ENDBRANCH 81 83
ENDBRANCH 79 81
ENDBRANCH 77 79
ENDBRANCH 70 75
ENDBRANCH 67 70
ENDBRANCH 58 66
ENDBRANCH 56 58
ENDBRANCH 1 54
TORSDOF 35
ENDMDL
MODEL 22
USER: ADFR SOLUTION from run 83
USER: SCORE 26.314369 LL:  -4.590 LR: -22.816 RR:   0.000 FEB: -12.376
USER: RMSD 12.105639
USER: SEED 82
USER: STATUS 1 or 2 clusters left
USER: GENES 37
USER: genes 0 Translation |==|  0.40337 0.52931 0.52572
USER: genes 1 Rotation |==|  0.33572 0.83307 0.83454 0.51261
USER: genes 2 Torsion [N]-CA--C-[N] |==|  0.16007
USER: genes 3 Torsion [C]-N--CA-[C] |==|  0.84027
USER: genes 4 Torsion [N]-CA--CB-[CG] |==|  0.35211
USER: genes 5 Torsion [CA]-CB--CG-[CD] |==|  0.30004
USER: genes 6 Torsion [CB]-CG--CD-[CE] |==|  0.39970
USER: genes 7 Torsion [CG]-CD--CE-[NZ] |==|  0.91653
USER: genes 8 Torsion [CD]-CE--NZ-[HZ3] |==|  0.52786
USER: genes 9 Torsion [N]-CA--C-[N] |==|  0.35840
USER: genes 10 Torsion [C]-N--CA-[C] |==|  0.69765
USER: genes 11 Torsion [N]-CA--C-[N] |==|  0.94153
USER: genes 12 Torsion [C]-N--CA-[C] |==|  0.50172
USER: genes 13 Torsion [N]-CA--C-[O] |==|  0.76968
USER: genes 14 Torsion [N]-CA--CB-[OG] |==|  0.12378
USER: genes 15 Torsion [CA]-CB--OG-[HG] |==|  0.12088
USER: genes 16 Torsion [N]-CA--CB-[CG] |==|  0.10018
USER: genes 17 Torsion [CA]-CB--CG-[CD] |==|  0.62007
USER: genes 18 Torsion [CB]-CG--CD-[NE] |==|  0.98050
USER: genes 19 Torsion [CG]-CD--NE-[CZ] |==|  0.27642
USER: genes 20 Torsion [C]-CA--CB-[CG] |==|  0.45733
USER: genes 21 Torsion [CA]-CB--CG-[CD] |==|  0.99282
USER: genes 22 Torsion [CB]-CG--CD-[NE] |==|  0.49219
USER: genes 23 Torsion [CG]-CD--NE-[CZ] |==|  0.27045
USER: genes 24 Torsion [C]-CA--N-[C] |==|  0.74453
USER: genes 25 Torsion [N]-C--CA-[N] |==|  0.17957
USER: genes 26 Torsion [C]-CA--CB-[CG] |==|  0.45102
USER: genes 27 Torsion [CA]-CB--CG-[CD] |==|  0.87754
USER: genes 28 Torsion [CB]-CG--CD-[NE2] |==|  0.80293
USER: genes 29 Torsion [C]-CA--N-[C] |==|  0.75606
USER: genes 30 Torsion [N]-C--CA-[N] |==|  0.31276
USER: genes 31 Torsion [C]-CA--CB-[CG2] |==|  0.72066
USER: genes 32 Torsion [CA]-CB--OG1-[HG1] |==|  0.39282
USER: genes 33 Torsion [C]-CA--N-[C] |==|  0.68940
USER: genes 34 Torsion [N]-C--CA-[N] |==|  0.42605
USER: genes 35 Torsion [C]-CA--CB-[OG1] |==|  0.32362
USER: genes 36 Torsion [CA]-CB--OG1-[HG1] |==|  0.58624
ROOT
ATOM      1  CA  ARG F 167      -3.602  18.764  39.166  1.00 38.85 LIG 0.18  C 
ENDROOT
BRANCH 1 2
ATOM      2  C   ARG F 167      -2.694  19.586  38.268  1.00 41.97 LIG 0.24  C 
ATOM      3  N   LYS F 168      -3.308  20.446  37.454  1.00 42.42 LIG-0.35  N 
ATOM      4 H    LYS F 168      -4.160  20.502  37.351  1.00 42.42 LIG 0.16  HD
ATOM      5 O    ARG F 167      -1.469  19.439  38.299  1.00 34.60 LIG-0.27  OA
BRANCH 3 6
ATOM      6  CA  LYS F 168      -2.526  21.383  36.658  1.00 39.35 LIG 0.18  C 
BRANCH 6 7
ATOM      7  CB  LYS F 168      -3.439  22.274  35.812  1.00 43.51 LIG 0.04  C 
BRANCH 7 8
ATOM      8  CG  LYS F 168      -3.192  23.761  35.981  1.00 39.69 LIG 0.00  C 
BRANCH 8 9
ATOM      9  CD  LYS F 168      -2.521  24.376  34.756  1.00 48.24 LIG 0.03  C 
BRANCH 9 10
ATOM     10  CE  LYS F 168      -3.026  25.795  34.481  1.00 54.37 LIG 0.23  C 
BRANCH 10 11
ATOM     11  NZ  LYS F 168      -4.442  26.024  34.914  1.00 52.23 LIG-0.08  N 
ATOM     12 HZ3  LYS F 168      -4.725  26.808  34.601  1.00 52.23 LIG 0.27  HD
ATOM     13 HZ1  LYS F 168      -4.960  25.374  34.596  1.00 52.23 LIG 0.27  HD
ATOM     14 HZ2  LYS F 168      -4.484  26.028  35.803  1.00 52.23 LIG 0.27  HD
ENDBRANCH 10 11
ENDBRANCH 9 10
ENDBRANCH 8 9
ENDBRANCH 7 8
ENDBRANCH 6 7
BRANCH 6 15
ATOM     15  C   LYS F 168      -1.657  22.235  37.575  1.00 30.99 LIG 0.24  C 
ATOM     16 O    LYS F 168      -2.135  22.796  38.567  1.00 32.09 LIG-0.27  OA
ATOM     17  N   ARG F 169      -0.365  22.300  37.262  1.00 23.74 LIG-0.35  N 
ATOM     18 H    ARG F 169      -0.000  21.887  36.602  1.00 23.74 LIG 0.16  HD
BRANCH 17 19
ATOM     19  CA  ARG F 169       0.541  23.112  38.060  1.00 28.77 LIG 0.18  C 
BRANCH 19 20
ATOM     20  C   ARG F 169       0.971  24.344  37.269  1.00 37.10 LIG 0.24  C 
ATOM     21  N   SER F 170       0.838  24.245  35.948  1.00 32.48 LIG-0.34  N 
ATOM     22 H    SER F 170       0.418  23.602  35.561  1.00 32.48 LIG 0.16  HD
ATOM     23 O    ARG F 169       1.440  25.342  37.831  1.00 33.53 LIG-0.27  OA
BRANCH 21 24
ATOM     24  CA  SER F 170       1.398  25.229  35.020  1.00 32.11 LIG 0.19  C 
BRANCH 24 25
ATOM     25  C   SER F 170       1.097  24.900  33.552  1.00 36.47 LIG 0.22  C 
ATOM     26 O    SER F 170       1.791  24.100  32.924  1.00 35.83 LIG-0.29  OA
ENDBRANCH 24 25
BRANCH 24 27
ATOM     27  CB  SER F 170       2.912  25.336  35.234  1.00 36.26 LIG 0.20  C 
BRANCH 27 28
ATOM     28 OG   SER F 170       3.496  24.044  35.359  1.00 19.66 LIG-0.40  OA
ATOM     29 HG   SER F 170       3.172  23.532  34.778  1.00 19.66 LIG 0.21  HD
ENDBRANCH 27 28
ENDBRANCH 24 27
ENDBRANCH 21 24
ENDBRANCH 19 20
BRANCH 19 30
ATOM     30  CB  ARG F 169       1.755  22.289  38.513  1.00 32.99 LIG 0.04  C 
BRANCH 30 31
ATOM     31  CG  ARG F 169       2.290  21.254  37.536  1.00 34.51 LIG 0.02  C 
BRANCH 31 32
ATOM     32  CD  ARG F 169       2.608  19.955  38.299  1.00 39.71 LIG 0.14  C 
BRANCH 32 33
ATOM     33  NE  ARG F 169       2.460  20.158  39.739  1.00 37.23 LIG-0.23  N 
ATOM     34  CZ  ARG F 169       1.401  19.806  40.467  1.00 33.71 LIG 0.67  C 
ATOM     35  NH2 ARG F 169       1.414  20.052  41.771  1.00 35.73 LIG-0.23  N 
ATOM     36  NH1 ARG F 169       0.340  19.216  39.906  1.00 22.18 LIG-0.23  N 
ATOM     37 2HH2 ARG F 169       0.740  19.831  42.257  1.00 35.73 LIG 0.17  HD
ATOM     38 1HH2 ARG F 169       2.097  20.432  42.130  1.00 35.73 LIG 0.17  HD
ATOM     39 1HH1 ARG F 169       0.333  19.056  39.061  1.00 22.18 LIG 0.17  HD
ATOM     40 2HH1 ARG F 169      -0.335  18.995  40.391  1.00 22.18 LIG 0.17  HD
ATOM     41 HE   ARG F 169       3.112  20.537  40.152  1.00 37.23 LIG 0.18  HD
ENDBRANCH 32 33
ENDBRANCH 31 32
ENDBRANCH 30 31
ENDBRANCH 19 30
ENDBRANCH 17 19
ENDBRANCH 6 15
ENDBRANCH 3 6
ENDBRANCH 1 2
BRANCH 1 42
ATOM     42  CB  ARG F 167      -2.762  17.831  40.046  1.00 34.27 LIG 0.04  C 
BRANCH 42 43
ATOM     43  CG  ARG F 167      -3.536  17.252  41.213  1.00 36.76 LIG 0.02  C 
BRANCH 43 44
ATOM     44  CD  ARG F 167      -4.936  17.801  41.243  1.00 47.53 LIG 0.14  C 
BRANCH 44 45
ATOM     45  NE  ARG F 167      -5.711  17.202  42.321  1.00 46.15 LIG-0.23  N 
ATOM     46 HE   ARG F 167      -6.075  16.436  42.185  1.00 46.15 LIG 0.18  HD
ATOM     47  CZ  ARG F 167      -5.884  17.780  43.502  1.00 54.25 LIG 0.67  C 
ATOM     48  NH2 ARG F 167      -6.600  17.177  44.446  1.00 44.38 LIG-0.23  N 
ATOM     49  NH1 ARG F 167      -5.336  18.970  43.730  1.00 45.80 LIG-0.23  N 
ATOM     50 1HH2 ARG F 167      -6.954  16.409  44.292  1.00 44.38 LIG 0.17  HD
ATOM     51 2HH2 ARG F 167      -6.709  17.555  45.211  1.00 44.38 LIG 0.17  HD
ATOM     52 2HH1 ARG F 167      -5.442  19.353  44.492  1.00 45.80 LIG 0.17  HD
ATOM     53 1HH1 ARG F 167      -4.876  19.357  43.115  1.00 45.80 LIG 0.17  HD
ENDBRANCH 44 45
ENDBRANCH 43 44
ENDBRANCH 42 43
ENDBRANCH 1 42
BRANCH 1 54
ATOM     54  N   ARG F 167      -4.536  18.026  38.330  1.00 32.00 LIG-0.35  N 
ATOM     55 H    ARG F 167      -4.242  17.260  38.071  1.00 32.00 LIG 0.16  HD
ATOM     56  C   GLN F 166      -5.736  18.500  37.999  1.00 42.00 LIG 0.24  C 
ATOM     57 O    GLN F 166      -6.198  19.558  38.438  1.00 37.97 LIG-0.27  OA
BRANCH 56 58
ATOM     58  CA  GLN F 166      -6.533  17.637  37.037  1.00 41.36 LIG 0.18  C 
BRANCH 58 59
ATOM     59  CB  GLN F 166      -7.792  18.396  36.602  1.00 34.92 LIG 0.04  C 
BRANCH 59 60
ATOM     60  CG  GLN F 166      -8.459  17.868  35.357  1.00 32.73 LIG 0.10  C 
BRANCH 60 61
ATOM     61  CD  GLN F 166      -7.451  17.549  34.270  1.00 43.28 LIG 0.21  C 
ATOM     62  NE2 GLN F 166      -6.861  18.585  33.683  1.00 36.91 LIG-0.37  N 
ATOM     63 21HE GLN F 166      -7.057  19.386  33.927  1.00 36.91 LIG 0.16  HD
ATOM     64 22HE GLN F 166      -6.284  18.454  33.058  1.00 36.91 LIG 0.16  HD
ATOM     65 OE1  GLN F 166      -7.207  16.379  33.959  1.00 42.55 LIG-0.27  OA
ENDBRANCH 60 61
ENDBRANCH 59 60
ENDBRANCH 58 59
BRANCH 58 66
ATOM     66  N   GLN F 166      -6.844  16.370  37.683  1.00 35.11 LIG-0.35  N 
ATOM     67  C   THR F 165      -6.020  15.328  37.636  1.00 35.16 LIG 0.24  C 
ATOM     68 O    THR F 165      -4.971  15.343  36.978  1.00 30.91 LIG-0.27  OA
ATOM     69 H    GLN F 166      -7.601  16.361  38.091  1.00 35.11 LIG 0.16  HD
BRANCH 67 70
ATOM     70  CA  THR F 165      -6.398  14.080  38.422  1.00 44.00 LIG 0.20  C 
BRANCH 70 71
ATOM     71  CB  THR F 165      -5.268  13.712  39.390  1.00 46.85 LIG 0.15  C 
ATOM     72  CG2 THR F 165      -4.424  12.572  38.816  1.00 37.95 LIG 0.04  C 
BRANCH 71 73
ATOM     73 OG1  THR F 165      -4.448  14.864  39.630  1.00 45.14 LIG-0.39  OA
ATOM     74 HG1  THR F 165      -4.215  14.880  40.437  1.00 45.14 LIG 0.21  HD
ENDBRANCH 71 73
ENDBRANCH 70 71
BRANCH 70 75
ATOM     75  N   THR F 165      -6.716  12.952  37.554  1.00 38.01 LIG-0.34  N 
ATOM     76 H    THR F 165      -6.042  12.641  37.121  1.00 38.01 LIG 0.16  HD
ATOM     77  C   THR F 164      -7.951  12.460  37.453  1.00 57.69 LIG 0.26  C 
ATOM     78 O    THR F 164      -8.909  12.919  38.084  1.00 49.67 LIG-0.27  OA
BRANCH 77 79
ATOM     79  CA  THR F 164      -8.133  11.278  36.495  1.00 56.73 LIG 0.43  C 
ATOM     80  N   THR F 164      -9.266  10.450  36.901  1.00 65.32 LIG 0.62  N 
BRANCH 79 81
ATOM     81  CB  THR F 164      -8.300  11.801  35.043  1.00 58.05 LIG 0.16  C 
ATOM     82  CG2 THR F 164      -8.336  13.328  35.030  1.00 51.52 LIG 0.04  C 
BRANCH 81 83
ATOM     83 OG1  THR F 164      -7.211  11.346  34.228  1.00 58.15 LIG-0.39  OA
ATOM     84 HG1  THR F 164      -7.052  11.914  33.630  1.00 58.15 LIG 0.21  HD
ENDBRANCH 81 83
ENDBRANCH 79 81
ENDBRANCH 77 79
ENDBRANCH 70 75
ENDBRANCH 67 70
ENDBRANCH 58 66
ENDBRANCH 56 58
ENDBRANCH 1 54
TORSDOF 35
ENDMDL
MODEL 23
USER: ADFR SOLUTION from run 49
USER: SCORE 24.573854 LL:  -3.765 LR: -22.795 RR:   0.000 FEB: -12.354
USER: RMSD 12.953780
USER: SEED 48
USER: STATUS no improvement in best in 6 clusters for 5 generations
USER: GENES 37
USER: genes 0 Translation |==|  0.36695 0.32349 0.55500
USER: genes 1 Rotation |==|  0.43889 0.26843 0.07273 0.60041
USER: genes 2 Torsion [N]-CA--C-[N] |==|  0.28071
USER: genes 3 Torsion [C]-N--CA-[C] |==|  0.58994
USER: genes 4 Torsion [N]-CA--CB-[CG] |==|  0.22514
USER: genes 5 Torsion [CA]-CB--CG-[CD] |==|  0.81874
USER: genes 6 Torsion [CB]-CG--CD-[CE] |==|  0.36352
USER: genes 7 Torsion [CG]-CD--CE-[NZ] |==|  0.66707
USER: genes 8 Torsion [CD]-CE--NZ-[HZ3] |==|  0.80732
USER: genes 9 Torsion [N]-CA--C-[N] |==|  0.51044
USER: genes 10 Torsion [C]-N--CA-[C] |==|  0.57861
USER: genes 11 Torsion [N]-CA--C-[N] |==|  0.82028
USER: genes 12 Torsion [C]-N--CA-[C] |==|  0.64371
USER: genes 13 Torsion [N]-CA--C-[O] |==|  0.94316
USER: genes 14 Torsion [N]-CA--CB-[OG] |==|  0.16343
USER: genes 15 Torsion [CA]-CB--OG-[HG] |==|  0.58920
USER: genes 16 Torsion [N]-CA--CB-[CG] |==|  0.40340
USER: genes 17 Torsion [CA]-CB--CG-[CD] |==|  0.29206
USER: genes 18 Torsion [CB]-CG--CD-[NE] |==|  0.84112
USER: genes 19 Torsion [CG]-CD--NE-[CZ] |==|  0.80735
USER: genes 20 Torsion [C]-CA--CB-[CG] |==|  0.67305
USER: genes 21 Torsion [CA]-CB--CG-[CD] |==|  0.59901
USER: genes 22 Torsion [CB]-CG--CD-[NE] |==|  0.06204
USER: genes 23 Torsion [CG]-CD--NE-[CZ] |==|  0.64220
USER: genes 24 Torsion [C]-CA--N-[C] |==|  0.55781
USER: genes 25 Torsion [N]-C--CA-[N] |==|  0.51509
USER: genes 26 Torsion [C]-CA--CB-[CG] |==|  0.62861
USER: genes 27 Torsion [CA]-CB--CG-[CD] |==|  0.43658
USER: genes 28 Torsion [CB]-CG--CD-[NE2] |==|  0.91412
USER: genes 29 Torsion [C]-CA--N-[C] |==|  0.75503
USER: genes 30 Torsion [N]-C--CA-[N] |==|  0.92505
USER: genes 31 Torsion [C]-CA--CB-[CG2] |==|  0.20012
USER: genes 32 Torsion [CA]-CB--OG1-[HG1] |==|  0.47555
USER: genes 33 Torsion [C]-CA--N-[C] |==|  0.77733
USER: genes 34 Torsion [N]-C--CA-[N] |==|  0.08868
USER: genes 35 Torsion [C]-CA--CB-[OG1] |==|  0.16649
USER: genes 36 Torsion [CA]-CB--OG1-[HG1] |==|  0.94470
ROOT
ATOM      1  CA  ARG F 167      -4.504  13.053  39.737  1.00 38.85 LIG 0.18  C 
ENDROOT
BRANCH 1 2
ATOM      2  C   ARG F 167      -4.539  14.230  38.778  1.00 41.97 LIG 0.24  C 
ATOM      3  N   LYS F 168      -4.340  15.430  39.326  1.00 42.42 LIG-0.35  N 
ATOM      4 H    LYS F 168      -4.279  15.579  40.171  1.00 42.42 LIG 0.16  HD
ATOM      5 O    ARG F 167      -4.753  14.062  37.574  1.00 34.60 LIG-0.27  OA
BRANCH 3 6
ATOM      6  CA  LYS F 168      -4.210  16.607  38.478  1.00 39.35 LIG 0.18  C 
BRANCH 6 7
ATOM      7  CB  LYS F 168      -5.574  17.257  38.234  1.00 43.51 LIG 0.04  C 
BRANCH 7 8
ATOM      8  CG  LYS F 168      -6.053  18.150  39.362  1.00 39.69 LIG 0.00  C 
BRANCH 8 9
ATOM      9  CD  LYS F 168      -6.318  17.365  40.644  1.00 48.24 LIG 0.03  C 
BRANCH 9 10
ATOM     10  CE  LYS F 168      -5.651  18.014  41.859  1.00 54.37 LIG 0.23  C 
BRANCH 10 11
ATOM     11  NZ  LYS F 168      -4.656  17.129  42.545  1.00 52.23 LIG-0.08  N 
ATOM     12 HZ3  LYS F 168      -5.082  16.458  42.946  1.00 52.23 LIG 0.27  HD
ATOM     13 HZ1  LYS F 168      -4.086  16.801  41.944  1.00 52.23 LIG 0.27  HD
ATOM     14 HZ2  LYS F 168      -4.207  17.601  43.152  1.00 52.23 LIG 0.27  HD
ENDBRANCH 10 11
ENDBRANCH 9 10
ENDBRANCH 8 9
ENDBRANCH 7 8
ENDBRANCH 6 7
BRANCH 6 15
ATOM     15  C   LYS F 168      -3.258  17.605  39.127  1.00 30.99 LIG 0.24  C 
ATOM     16 O    LYS F 168      -2.644  17.321  40.161  1.00 32.09 LIG-0.27  OA
ATOM     17  N   ARG F 169      -3.107  18.766  38.494  1.00 23.74 LIG-0.35  N 
ATOM     18 H    ARG F 169      -3.491  18.973  37.753  1.00 23.74 LIG 0.16  HD
BRANCH 17 19
ATOM     19  CA  ARG F 169      -2.242  19.795  39.051  1.00 28.77 LIG 0.18  C 
BRANCH 19 20
ATOM     20  C   ARG F 169      -2.729  21.175  38.619  1.00 37.10 LIG 0.24  C 
ATOM     21  N   SER F 170      -2.664  21.417  37.311  1.00 32.48 LIG-0.34  N 
ATOM     22 H    SER F 170      -2.494  20.810  36.726  1.00 32.48 LIG 0.16  HD
ATOM     23 O    ARG F 169      -3.123  22.010  39.445  1.00 33.53 LIG-0.27  OA
BRANCH 21 24
ATOM     24  CA  SER F 170      -2.875  22.748  36.741  1.00 32.11 LIG 0.19  C 
BRANCH 24 25
ATOM     25  C   SER F 170      -3.914  22.752  35.612  1.00 36.47 LIG 0.22  C 
ATOM     26 O    SER F 170      -4.203  21.717  35.011  1.00 35.83 LIG-0.29  OA
ENDBRANCH 24 25
BRANCH 24 27
ATOM     27  CB  SER F 170      -1.543  23.309  36.232  1.00 36.26 LIG 0.20  C 
BRANCH 27 28
ATOM     28 OG   SER F 170      -0.978  22.451  35.248  1.00 19.66 LIG-0.40  OA
ATOM     29 HG   SER F 170      -0.140  22.485  35.293  1.00 19.66 LIG 0.21  HD
ENDBRANCH 27 28
ENDBRANCH 24 27
ENDBRANCH 21 24
ENDBRANCH 19 20
BRANCH 19 30
ATOM     30  CB  ARG F 169      -0.783  19.564  38.636  1.00 32.99 LIG 0.04  C 
BRANCH 30 31
ATOM     31  CG  ARG F 169       0.067  20.800  38.389  1.00 34.51 LIG 0.02  C 
BRANCH 31 32
ATOM     32  CD  ARG F 169       1.032  20.995  39.574  1.00 39.71 LIG 0.14  C 
BRANCH 32 33
ATOM     33  NE  ARG F 169       0.288  21.102  40.827  1.00 37.23 LIG-0.23  N 
ATOM     34  CZ  ARG F 169      -0.491  22.123  41.180  1.00 33.71 LIG 0.67  C 
ATOM     35  NH2 ARG F 169      -1.110  22.076  42.354  1.00 35.73 LIG-0.23  N 
ATOM     36  NH1 ARG F 169      -0.655  23.180  40.378  1.00 22.18 LIG-0.23  N 
ATOM     37 2HH2 ARG F 169      -1.618  22.726  42.598  1.00 35.73 LIG 0.17  HD
ATOM     38 1HH2 ARG F 169      -1.004  21.395  42.868  1.00 35.73 LIG 0.17  HD
ATOM     39 1HH1 ARG F 169      -0.254  23.209  39.617  1.00 22.18 LIG 0.17  HD
ATOM     40 2HH1 ARG F 169      -1.161  23.831  40.622  1.00 22.18 LIG 0.17  HD
ATOM     41 HE   ARG F 169       0.358  20.450  41.384  1.00 37.23 LIG 0.18  HD
ENDBRANCH 32 33
ENDBRANCH 31 32
ENDBRANCH 30 31
ENDBRANCH 19 30
ENDBRANCH 17 19
ENDBRANCH 6 15
ENDBRANCH 3 6
ENDBRANCH 1 2
BRANCH 1 42
ATOM     42  CB  ARG F 167      -3.695  11.903  39.124  1.00 34.27 LIG 0.04  C 
BRANCH 42 43
ATOM     43  CG  ARG F 167      -4.514  10.648  38.900  1.00 36.76 LIG 0.02  C 
BRANCH 43 44
ATOM     44  CD  ARG F 167      -3.681   9.422  39.149  1.00 47.53 LIG 0.14  C 
BRANCH 44 45
ATOM     45  NE  ARG F 167      -2.545   9.725  40.008  1.00 46.15 LIG-0.23  N 
ATOM     46 HE   ARG F 167      -2.692  10.138  40.748  1.00 46.15 LIG 0.18  HD
ATOM     47  CZ  ARG F 167      -1.295   9.398  39.708  1.00 54.25 LIG 0.67  C 
ATOM     48  NH2 ARG F 167      -0.303   9.701  40.540  1.00 44.38 LIG-0.23  N 
ATOM     49  NH1 ARG F 167      -1.046   8.767  38.565  1.00 45.80 LIG-0.23  N 
ATOM     50 1HH2 ARG F 167      -0.471  10.111  41.277  1.00 44.38 LIG 0.17  HD
ATOM     51 2HH2 ARG F 167       0.505   9.486  40.341  1.00 44.38 LIG 0.17  HD
ATOM     52 2HH1 ARG F 167      -0.239   8.551  38.361  1.00 45.80 LIG 0.17  HD
ATOM     53 1HH1 ARG F 167      -1.691   8.576  38.029  1.00 45.80 LIG 0.17  HD
ENDBRANCH 44 45
ENDBRANCH 43 44
ENDBRANCH 42 43
ENDBRANCH 1 42
BRANCH 1 54
ATOM     54  N   ARG F 167      -5.872  12.655  40.033  1.00 32.00 LIG-0.35  N 
ATOM     55 H    ARG F 167      -6.446  12.917  39.449  1.00 32.00 LIG 0.16  HD
ATOM     56  C   GLN F 166      -6.197  11.949  41.115  1.00 42.00 LIG 0.24  C 
ATOM     57 O    GLN F 166      -5.368  11.496  41.911  1.00 37.97 LIG-0.27  OA
BRANCH 56 58
ATOM     58  CA  GLN F 166      -7.684  11.715  41.313  1.00 41.36 LIG 0.18  C 
BRANCH 58 59
ATOM     59  CB  GLN F 166      -8.422  13.056  41.227  1.00 34.92 LIG 0.04  C 
BRANCH 59 60
ATOM     60  CG  GLN F 166      -9.439  13.297  42.314  1.00 32.73 LIG 0.10  C 
BRANCH 60 61
ATOM     61  CD  GLN F 166      -9.713  14.775  42.512  1.00 43.28 LIG 0.21  C 
ATOM     62  NE2 GLN F 166      -8.705  15.605  42.265  1.00 36.91 LIG-0.37  N 
ATOM     63 21HE GLN F 166      -7.946  15.295  42.004  1.00 36.91 LIG 0.16  HD
ATOM     64 22HE GLN F 166      -8.812  16.453  42.365  1.00 36.91 LIG 0.16  HD
ATOM     65 OE1  GLN F 166     -10.822  15.167  42.887  1.00 42.55 LIG-0.27  OA
ENDBRANCH 60 61
ENDBRANCH 59 60
ENDBRANCH 58 59
BRANCH 58 66
ATOM     66  N   GLN F 166      -7.892  11.048  42.590  1.00 35.11 LIG-0.35  N 
ATOM     67  C   THR F 165      -7.869   9.725  42.713  1.00 35.16 LIG 0.24  C 
ATOM     68 O    THR F 165      -7.742   8.973  41.738  1.00 30.91 LIG-0.27  OA
ATOM     69 H    GLN F 166      -8.030  11.585  43.248  1.00 35.11 LIG 0.16  HD
BRANCH 67 70
ATOM     70  CA  THR F 165      -8.006   9.131  44.108  1.00 44.00 LIG 0.20  C 
BRANCH 70 71
ATOM     71  CB  THR F 165      -9.464   8.738  44.367  1.00 46.85 LIG 0.15  C 
ATOM     72  CG2 THR F 165      -9.836   7.500  43.548  1.00 37.95 LIG 0.04  C 
BRANCH 71 73
ATOM     73 OG1  THR F 165      -9.652   8.483  45.765  1.00 45.14 LIG-0.39  OA
ATOM     74 HG1  THR F 165     -10.471   8.386  45.926  1.00 45.14 LIG 0.21  HD
ENDBRANCH 71 73
ENDBRANCH 70 71
BRANCH 70 75
ATOM     75  N   THR F 165      -7.529  10.039  45.145  1.00 38.01 LIG-0.34  N 
ATOM     76 H    THR F 165      -8.153  10.471  45.549  1.00 38.01 LIG 0.16  HD
ATOM     77  C   THR F 164      -6.233  10.175  45.429  1.00 57.69 LIG 0.26  C 
ATOM     78 O    THR F 164      -5.349   9.545  44.839  1.00 49.67 LIG-0.27  OA
BRANCH 77 79
ATOM     79  CA  THR F 164      -5.883  11.171  46.539  1.00 56.73 LIG 0.43  C 
ATOM     80  N   THR F 164      -6.942  11.221  47.544  1.00 65.32 LIG 0.62  N 
BRANCH 79 81
ATOM     81  CB  THR F 164      -4.516  10.795  47.170  1.00 58.05 LIG 0.16  C 
ATOM     82  CG2 THR F 164      -4.581   9.398  47.784  1.00 51.52 LIG 0.04  C 
BRANCH 81 83
ATOM     83 OG1  THR F 164      -3.487  10.826  46.171  1.00 58.15 LIG-0.39  OA
ATOM     84 HG1  THR F 164      -3.836  10.771  45.408  1.00 58.15 LIG 0.21  HD
ENDBRANCH 81 83
ENDBRANCH 79 81
ENDBRANCH 77 79
ENDBRANCH 70 75
ENDBRANCH 67 70
ENDBRANCH 58 66
ENDBRANCH 56 58
ENDBRANCH 1 54
TORSDOF 35
ENDMDL
MODEL 24
USER: ADFR SOLUTION from run 90
USER: SCORE 26.415470 LL:  -4.388 LR: -22.754 RR:   0.000 FEB: -12.313
USER: RMSD 6.956776
USER: SEED 89
USER: STATUS no improvement in best in 10 clusters for 5 generations
USER: GENES 37
USER: genes 0 Translation |==|  0.61035 0.60385 0.46978
USER: genes 1 Rotation |==|  0.07027 0.27698 0.62483 0.50326
USER: genes 2 Torsion [N]-CA--C-[N] |==|  0.45834
USER: genes 3 Torsion [C]-N--CA-[C] |==|  0.57352
USER: genes 4 Torsion [N]-CA--CB-[CG] |==|  0.74702
USER: genes 5 Torsion [CA]-CB--CG-[CD] |==|  0.41525
USER: genes 6 Torsion [CB]-CG--CD-[CE] |==|  0.29972
USER: genes 7 Torsion [CG]-CD--CE-[NZ] |==|  0.44861
USER: genes 8 Torsion [CD]-CE--NZ-[HZ3] |==|  0.27477
USER: genes 9 Torsion [N]-CA--C-[N] |==|  0.44392
USER: genes 10 Torsion [C]-N--CA-[C] |==|  0.83007
USER: genes 11 Torsion [N]-CA--C-[N] |==|  0.43305
USER: genes 12 Torsion [C]-N--CA-[C] |==|  0.82826
USER: genes 13 Torsion [N]-CA--C-[O] |==|  0.74532
USER: genes 14 Torsion [N]-CA--CB-[OG] |==|  0.10701
USER: genes 15 Torsion [CA]-CB--OG-[HG] |==|  0.82212
USER: genes 16 Torsion [N]-CA--CB-[CG] |==|  0.19621
USER: genes 17 Torsion [CA]-CB--CG-[CD] |==|  0.36370
USER: genes 18 Torsion [CB]-CG--CD-[NE] |==|  0.87835
USER: genes 19 Torsion [CG]-CD--NE-[CZ] |==|  0.65367
USER: genes 20 Torsion [C]-CA--CB-[CG] |==|  0.40515
USER: genes 21 Torsion [CA]-CB--CG-[CD] |==|  0.47783
USER: genes 22 Torsion [CB]-CG--CD-[NE] |==|  0.34215
USER: genes 23 Torsion [CG]-CD--NE-[CZ] |==|  0.67871
USER: genes 24 Torsion [C]-CA--N-[C] |==|  0.54049
USER: genes 25 Torsion [N]-C--CA-[N] |==|  0.96449
USER: genes 26 Torsion [C]-CA--CB-[CG] |==|  0.14259
USER: genes 27 Torsion [CA]-CB--CG-[CD] |==|  0.22128
USER: genes 28 Torsion [CB]-CG--CD-[NE2] |==|  0.83662
USER: genes 29 Torsion [C]-CA--N-[C] |==|  0.69141
USER: genes 30 Torsion [N]-C--CA-[N] |==|  0.42347
USER: genes 31 Torsion [C]-CA--CB-[CG2] |==|  0.76484
USER: genes 32 Torsion [CA]-CB--OG1-[HG1] |==|  0.80567
USER: genes 33 Torsion [C]-CA--N-[C] |==|  0.62386
USER: genes 34 Torsion [N]-C--CA-[N] |==|  0.78986
USER: genes 35 Torsion [C]-CA--CB-[OG1] |==|  0.47819
USER: genes 36 Torsion [CA]-CB--OG1-[HG1] |==|  0.35266
ROOT
ATOM      1  CA  ARG F 167       1.520  20.833  38.075  1.00 38.85 LIG 0.18  C 
ENDROOT
BRANCH 1 2
ATOM      2  C   ARG F 167       0.024  21.043  38.230  1.00 41.97 LIG 0.24  C 
ATOM      3  N   LYS F 168      -0.716  19.934  38.265  1.00 42.42 LIG-0.35  N 
ATOM      4 H    LYS F 168      -0.417  19.140  38.126  1.00 42.42 LIG 0.16  HD
ATOM      5 O    ARG F 167      -0.452  22.179  38.305  1.00 34.60 LIG-0.27  OA
BRANCH 3 6
ATOM      6  CA  LYS F 168      -2.141  20.017  38.555  1.00 39.35 LIG 0.18  C 
BRANCH 6 7
ATOM      7  CB  LYS F 168      -2.940  20.327  37.287  1.00 43.51 LIG 0.04  C 
BRANCH 7 8
ATOM      8  CG  LYS F 168      -3.159  21.805  37.031  1.00 39.69 LIG 0.00  C 
BRANCH 8 9
ATOM      9  CD  LYS F 168      -3.250  22.124  35.540  1.00 48.24 LIG 0.03  C 
BRANCH 9 10
ATOM     10  CE  LYS F 168      -4.679  22.474  35.118  1.00 54.37 LIG 0.23  C 
BRANCH 10 11
ATOM     11  NZ  LYS F 168      -4.759  23.204  33.812  1.00 52.23 LIG-0.08  N 
ATOM     12 HZ3  LYS F 168      -4.963  22.630  33.163  1.00 52.23 LIG 0.27  HD
ATOM     13 HZ1  LYS F 168      -5.387  23.833  33.861  1.00 52.23 LIG 0.27  HD
ATOM     14 HZ2  LYS F 168      -3.973  23.584  33.636  1.00 52.23 LIG 0.27  HD
ENDBRANCH 10 11
ENDBRANCH 9 10
ENDBRANCH 8 9
ENDBRANCH 7 8
ENDBRANCH 6 7
BRANCH 6 15
ATOM     15  C   LYS F 168      -2.617  18.707  39.172  1.00 30.99 LIG 0.24  C 
ATOM     16 O    LYS F 168      -1.952  17.671  39.060  1.00 32.09 LIG-0.27  OA
ATOM     17  N   ARG F 169      -3.754  18.763  39.860  1.00 23.74 LIG-0.35  N 
ATOM     18 H    ARG F 169      -4.214  19.479  39.988  1.00 23.74 LIG 0.16  HD
BRANCH 17 19
ATOM     19  CA  ARG F 169      -4.306  17.559  40.462  1.00 28.77 LIG 0.18  C 
BRANCH 19 20
ATOM     20  C   ARG F 169      -4.620  16.531  39.380  1.00 37.10 LIG 0.24  C 
ATOM     21  N   SER F 170      -4.644  15.264  39.789  1.00 32.48 LIG-0.34  N 
ATOM     22 H    SER F 170      -4.625  15.034  40.617  1.00 32.48 LIG 0.16  HD
ATOM     23 O    ARG F 169      -4.802  16.868  38.202  1.00 33.53 LIG-0.27  OA
BRANCH 21 24
ATOM     24  CA  SER F 170      -4.708  14.134  38.862  1.00 32.11 LIG 0.19  C 
BRANCH 24 25
ATOM     25  C   SER F 170      -5.983  14.135  38.009  1.00 36.47 LIG 0.22  C 
ATOM     26 O    SER F 170      -6.994  13.535  38.377  1.00 35.83 LIG-0.29  OA
ENDBRANCH 24 25
BRANCH 24 27
ATOM     27  CB  SER F 170      -4.599  12.819  39.643  1.00 36.26 LIG 0.20  C 
BRANCH 27 28
ATOM     28 OG   SER F 170      -5.313  12.902  40.871  1.00 19.66 LIG-0.40  OA
ATOM     29 HG   SER F 170      -4.961  13.485  41.361  1.00 19.66 LIG 0.21  HD
ENDBRANCH 27 28
ENDBRANCH 24 27
ENDBRANCH 21 24
ENDBRANCH 19 20
BRANCH 19 30
ATOM     30  CB  ARG F 169      -5.551  17.888  41.297  1.00 32.99 LIG 0.04  C 
BRANCH 30 31
ATOM     31  CG  ARG F 169      -6.803  18.293  40.537  1.00 34.51 LIG 0.02  C 
BRANCH 31 32
ATOM     32  CD  ARG F 169      -7.999  17.475  41.059  1.00 39.71 LIG 0.14  C 
BRANCH 32 33
ATOM     33  NE  ARG F 169      -7.625  16.072  41.226  1.00 37.23 LIG-0.23  N 
ATOM     34  CZ  ARG F 169      -8.248  15.033  40.674  1.00 33.71 LIG 0.67  C 
ATOM     35  NH2 ARG F 169      -7.788  13.811  40.914  1.00 35.73 LIG-0.23  N 
ATOM     36  NH1 ARG F 169      -9.319  15.203  39.890  1.00 22.18 LIG-0.23  N 
ATOM     37 2HH2 ARG F 169      -8.177  13.128  40.565  1.00 35.73 LIG 0.17  HD
ATOM     38 1HH2 ARG F 169      -7.099  13.703  41.418  1.00 35.73 LIG 0.17  HD
ATOM     39 1HH1 ARG F 169      -9.616  15.995  39.735  1.00 22.18 LIG 0.17  HD
ATOM     40 2HH1 ARG F 169      -9.710  14.521  39.541  1.00 22.18 LIG 0.17  HD
ATOM     41 HE   ARG F 169      -6.944  15.902  41.724  1.00 37.23 LIG 0.18  HD
ENDBRANCH 32 33
ENDBRANCH 31 32
ENDBRANCH 30 31
ENDBRANCH 19 30
ENDBRANCH 17 19
ENDBRANCH 6 15
ENDBRANCH 3 6
ENDBRANCH 1 2
BRANCH 1 42
ATOM     42  CB  ARG F 167       2.109  20.279  39.378  1.00 34.27 LIG 0.04  C 
BRANCH 42 43
ATOM     43  CG  ARG F 167       3.257  19.316  39.155  1.00 36.76 LIG 0.02  C 
BRANCH 43 44
ATOM     44  CD  ARG F 167       3.912  18.962  40.461  1.00 47.53 LIG 0.14  C 
BRANCH 44 45
ATOM     45  NE  ARG F 167       3.907  17.522  40.677  1.00 46.15 LIG-0.23  N 
ATOM     46 HE   ARG F 167       4.356  17.027  40.136  1.00 46.15 LIG 0.18  HD
ATOM     47  CZ  ARG F 167       3.248  16.936  41.667  1.00 54.25 LIG 0.67  C 
ATOM     48  NH2 ARG F 167       3.289  15.614  41.811  1.00 44.38 LIG-0.23  N 
ATOM     49  NH1 ARG F 167       2.542  17.683  42.510  1.00 45.80 LIG-0.23  N 
ATOM     50 1HH2 ARG F 167       3.745  15.136  41.262  1.00 44.38 LIG 0.17  HD
ATOM     51 2HH2 ARG F 167       2.860  15.239  42.455  1.00 44.38 LIG 0.17  HD
ATOM     52 2HH1 ARG F 167       2.110  17.313  43.154  1.00 45.80 LIG 0.17  HD
ATOM     53 1HH1 ARG F 167       2.516  18.537  42.410  1.00 45.80 LIG 0.17  HD
ENDBRANCH 44 45
ENDBRANCH 43 44
ENDBRANCH 42 43
ENDBRANCH 1 42
BRANCH 1 54
ATOM     54  N   ARG F 167       2.130  22.099  37.700  1.00 32.00 LIG-0.35  N 
ATOM     55 H    ARG F 167       1.619  22.781  37.817  1.00 32.00 LIG 0.16  HD
ATOM     56  C   GLN F 166       3.369  22.187  37.219  1.00 42.00 LIG 0.24  C 
ATOM     57 O    GLN F 166       4.138  21.223  37.130  1.00 37.97 LIG-0.27  OA
BRANCH 56 58
ATOM     58  CA  GLN F 166       3.801  23.577  36.786  1.00 41.36 LIG 0.18  C 
BRANCH 58 59
ATOM     59  CB  GLN F 166       4.863  24.101  37.760  1.00 34.92 LIG 0.04  C 
BRANCH 59 60
ATOM     60  CG  GLN F 166       6.020  23.166  38.005  1.00 32.73 LIG 0.10  C 
BRANCH 60 61
ATOM     61  CD  GLN F 166       7.037  23.222  36.881  1.00 43.28 LIG 0.21  C 
ATOM     62  NE2 GLN F 166       6.596  22.921  35.664  1.00 36.91 LIG-0.37  N 
ATOM     63 21HE GLN F 166       5.770  22.711  35.546  1.00 36.91 LIG 0.16  HD
ATOM     64 22HE GLN F 166       7.137  22.936  34.995  1.00 36.91 LIG 0.16  HD
ATOM     65 OE1  GLN F 166       8.212  23.529  37.107  1.00 42.55 LIG-0.27  OA
ENDBRANCH 60 61
ENDBRANCH 59 60
ENDBRANCH 58 59
BRANCH 58 66
ATOM     66  N   GLN F 166       2.630  24.439  36.725  1.00 35.11 LIG-0.35  N 
ATOM     67  C   THR F 165       2.147  24.901  35.576  1.00 35.16 LIG 0.24  C 
ATOM     68 O    THR F 165       2.704  24.689  34.492  1.00 30.91 LIG-0.27  OA
ATOM     69 H    GLN F 166       2.285  24.618  37.493  1.00 35.11 LIG 0.16  HD
BRANCH 67 70
ATOM     70  CA  THR F 165       0.863  25.720  35.616  1.00 44.00 LIG 0.20  C 
BRANCH 70 71
ATOM     71  CB  THR F 165      -0.351  24.785  35.619  1.00 46.85 LIG 0.15  C 
ATOM     72  CG2 THR F 165      -0.718  24.382  34.189  1.00 37.95 LIG 0.04  C 
BRANCH 71 73
ATOM     73 OG1  THR F 165      -0.058  23.620  36.402  1.00 45.14 LIG-0.39  OA
ATOM     74 HG1  THR F 165       0.509  23.147  36.001  1.00 45.14 LIG 0.21  HD
ENDBRANCH 71 73
ENDBRANCH 70 71
BRANCH 70 75
ATOM     75  N   THR F 165       0.777  26.668  34.511  1.00 38.01 LIG-0.34  N 
ATOM     76 H    THR F 165       0.999  26.340  33.748  1.00 38.01 LIG 0.16  HD
ATOM     77  C   THR F 164       0.385  27.930  34.688  1.00 57.69 LIG 0.26  C 
ATOM     78 O    THR F 164       0.069  28.385  35.792  1.00 49.67 LIG-0.27  OA
BRANCH 77 79
ATOM     79  CA  THR F 164       0.350  28.810  33.434  1.00 56.73 LIG 0.43  C 
ATOM     80  N   THR F 164       1.699  29.206  33.040  1.00 65.32 LIG 0.62  N 
BRANCH 79 81
ATOM     81  CB  THR F 164      -0.383  28.061  32.289  1.00 58.05 LIG 0.16  C 
ATOM     82  CG2 THR F 164      -1.736  27.545  32.773  1.00 51.52 LIG 0.04  C 
BRANCH 81 83
ATOM     83 OG1  THR F 164      -0.582  28.941  31.174  1.00 58.15 LIG-0.39  OA
ATOM     84 HG1  THR F 164      -0.279  28.583  30.477  1.00 58.15 LIG 0.21  HD
ENDBRANCH 81 83
ENDBRANCH 79 81
ENDBRANCH 77 79
ENDBRANCH 70 75
ENDBRANCH 67 70
ENDBRANCH 58 66
ENDBRANCH 56 58
ENDBRANCH 1 54
TORSDOF 35
ENDMDL
MODEL 25
USER: ADFR SOLUTION from run 5
USER: SCORE 27.826920 LL:  -5.301 LR: -22.726 RR:   0.000 FEB: -12.285
USER: RMSD 7.207870
USER: SEED 348802
USER: STATUS searching
USER: GENES 37
USER: genes 0 Translation |==|  0.46828 0.55240 0.50329
USER: genes 1 Rotation |==|  0.26928 0.10215 0.67572 0.58721
USER: genes 2 Torsion [N]-CA--C-[N] |==|  0.99789
USER: genes 3 Torsion [C]-N--CA-[C] |==|  0.86023
USER: genes 4 Torsion [N]-CA--CB-[CG] |==|  0.53678
USER: genes 5 Torsion [CA]-CB--CG-[CD] |==|  0.35995
USER: genes 6 Torsion [CB]-CG--CD-[CE] |==|  0.76716
USER: genes 7 Torsion [CG]-CD--CE-[NZ] |==|  0.16752
USER: genes 8 Torsion [CD]-CE--NZ-[HZ3] |==|  0.76236
USER: genes 9 Torsion [N]-CA--C-[N] |==|  0.36582
USER: genes 10 Torsion [C]-N--CA-[C] |==|  0.77310
USER: genes 11 Torsion [N]-CA--C-[N] |==|  0.91599
USER: genes 12 Torsion [C]-N--CA-[C] |==|  0.64033
USER: genes 13 Torsion [N]-CA--C-[O] |==|  0.87834
USER: genes 14 Torsion [N]-CA--CB-[OG] |==|  0.19927
USER: genes 15 Torsion [CA]-CB--OG-[HG] |==|  0.84182
USER: genes 16 Torsion [N]-CA--CB-[CG] |==|  0.28117
USER: genes 17 Torsion [CA]-CB--CG-[CD] |==|  0.77953
USER: genes 18 Torsion [CB]-CG--CD-[NE] |==|  0.62632
USER: genes 19 Torsion [CG]-CD--NE-[CZ] |==|  0.67710
USER: genes 20 Torsion [C]-CA--CB-[CG] |==|  0.43900
USER: genes 21 Torsion [CA]-CB--CG-[CD] |==|  0.48600
USER: genes 22 Torsion [CB]-CG--CD-[NE] |==|  0.17113
USER: genes 23 Torsion [CG]-CD--NE-[CZ] |==|  0.74293
USER: genes 24 Torsion [C]-CA--N-[C] |==|  0.76838
USER: genes 25 Torsion [N]-C--CA-[N] |==|  0.38326
USER: genes 26 Torsion [C]-CA--CB-[CG] |==|  0.32375
USER: genes 27 Torsion [CA]-CB--CG-[CD] |==|  0.76926
USER: genes 28 Torsion [CB]-CG--CD-[NE2] |==|  0.20428
USER: genes 29 Torsion [C]-CA--N-[C] |==|  0.84075
USER: genes 30 Torsion [N]-C--CA-[N] |==|  0.91436
USER: genes 31 Torsion [C]-CA--CB-[CG2] |==|  0.32039
USER: genes 32 Torsion [CA]-CB--OG1-[HG1] |==|  0.81208
USER: genes 33 Torsion [C]-CA--N-[C] |==|  0.83253
USER: genes 34 Torsion [N]-C--CA-[N] |==|  0.12110
USER: genes 35 Torsion [C]-CA--CB-[OG1] |==|  0.54020
USER: genes 36 Torsion [CA]-CB--OG1-[HG1] |==|  0.22074
ROOT
ATOM      1  CA  ARG F 167      -1.996  19.405  38.728  1.00 38.85 LIG 0.18  C 
ENDROOT
BRANCH 1 2
ATOM      2  C   ARG F 167      -2.760  18.262  39.372  1.00 41.97 LIG 0.24  C 
ATOM      3  N   LYS F 168      -3.888  18.599  39.999  1.00 42.42 LIG-0.35  N 
ATOM      4 H    LYS F 168      -4.156  19.406  40.127  1.00 42.42 LIG 0.16  HD
ATOM      5 O    ARG F 167      -2.336  17.104  39.315  1.00 34.60 LIG-0.27  OA
BRANCH 3 6
ATOM      6  CA  LYS F 168      -4.769  17.564  40.524  1.00 39.35 LIG 0.18  C 
BRANCH 6 7
ATOM      7  CB  LYS F 168      -6.081  18.168  41.029  1.00 43.51 LIG 0.04  C 
BRANCH 7 8
ATOM      8  CG  LYS F 168      -6.920  17.227  41.872  1.00 39.69 LIG 0.00  C 
BRANCH 8 9
ATOM      9  CD  LYS F 168      -7.352  17.865  43.190  1.00 48.24 LIG 0.03  C 
BRANCH 9 10
ATOM     10  CE  LYS F 168      -6.270  17.745  44.265  1.00 54.37 LIG 0.23  C 
BRANCH 10 11
ATOM     11  NZ  LYS F 168      -4.979  18.409  43.896  1.00 52.23 LIG-0.08  N 
ATOM     12 HZ3  LYS F 168      -4.481  17.847  43.417  1.00 52.23 LIG 0.27  HD
ATOM     13 HZ1  LYS F 168      -5.146  19.139  43.416  1.00 52.23 LIG 0.27  HD
ATOM     14 HZ2  LYS F 168      -4.539  18.637  44.636  1.00 52.23 LIG 0.27  HD
ENDBRANCH 10 11
ENDBRANCH 9 10
ENDBRANCH 8 9
ENDBRANCH 7 8
ENDBRANCH 6 7
BRANCH 6 15
ATOM     15  C   LYS F 168      -5.047  16.528  39.440  1.00 30.99 LIG 0.24  C 
ATOM     16 O    LYS F 168      -5.353  16.871  38.293  1.00 32.09 LIG-0.27  OA
ATOM     17  N   ARG F 169      -4.901  15.255  39.797  1.00 23.74 LIG-0.35  N 
ATOM     18 H    ARG F 169      -4.651  14.990  40.576  1.00 23.74 LIG 0.16  HD
BRANCH 17 19
ATOM     19  CA  ARG F 169      -5.173  14.191  38.842  1.00 28.77 LIG 0.18  C 
BRANCH 19 20
ATOM     20  C   ARG F 169      -6.672  13.915  38.780  1.00 37.10 LIG 0.24  C 
ATOM     21  N   SER F 170      -7.338  14.142  39.910  1.00 32.48 LIG-0.34  N 
ATOM     22 H    SER F 170      -6.995  14.542  40.589  1.00 32.48 LIG 0.16  HD
ATOM     23 O    ARG F 169      -7.207  13.479  37.751  1.00 33.53 LIG-0.27  OA
BRANCH 21 24
ATOM     24  CA  SER F 170      -8.729  13.728  40.106  1.00 32.11 LIG 0.19  C 
BRANCH 24 25
ATOM     25  C   SER F 170      -9.620  14.865  40.622  1.00 36.47 LIG 0.22  C 
ATOM     26 O    SER F 170      -9.236  15.615  41.520  1.00 35.83 LIG-0.29  OA
ENDBRANCH 24 25
BRANCH 24 27
ATOM     27  CB  SER F 170      -8.782  12.539  41.071  1.00 36.26 LIG 0.20  C 
BRANCH 27 28
ATOM     28 OG   SER F 170      -8.483  12.954  42.399  1.00 19.66 LIG-0.40  OA
ATOM     29 HG   SER F 170      -7.730  13.325  42.414  1.00 19.66 LIG 0.21  HD
ENDBRANCH 27 28
ENDBRANCH 24 27
ENDBRANCH 21 24
ENDBRANCH 19 20
BRANCH 19 30
ATOM     30  CB  ARG F 169      -4.386  12.923  39.200  1.00 32.99 LIG 0.04  C 
BRANCH 30 31
ATOM     31  CG  ARG F 169      -5.152  11.814  39.904  1.00 34.51 LIG 0.02  C 
BRANCH 31 32
ATOM     32  CD  ARG F 169      -5.289  12.164  41.398  1.00 39.71 LIG 0.14  C 
BRANCH 32 33
ATOM     33  NE  ARG F 169      -4.977  11.001  42.227  1.00 37.23 LIG-0.23  N 
ATOM     34  CZ  ARG F 169      -5.829  10.376  43.038  1.00 33.71 LIG 0.67  C 
ATOM     35  NH2 ARG F 169      -5.400   9.326  43.727  1.00 35.73 LIG-0.23  N 
ATOM     36  NH1 ARG F 169      -7.095  10.789  43.164  1.00 22.18 LIG-0.23  N 
ATOM     37 2HH2 ARG F 169      -5.937   8.909  44.255  1.00 35.73 LIG 0.17  HD
ATOM     38 1HH2 ARG F 169      -4.586   9.061  43.644  1.00 35.73 LIG 0.17  HD
ATOM     39 1HH1 ARG F 169      -7.372  11.470  42.717  1.00 22.18 LIG 0.17  HD
ATOM     40 2HH1 ARG F 169      -7.632  10.374  43.692  1.00 22.18 LIG 0.17  HD
ATOM     41 HE   ARG F 169      -4.175  10.693  42.188  1.00 37.23 LIG 0.18  HD
ENDBRANCH 32 33
ENDBRANCH 31 32
ENDBRANCH 30 31
ENDBRANCH 19 30
ENDBRANCH 17 19
ENDBRANCH 6 15
ENDBRANCH 3 6
ENDBRANCH 1 2
BRANCH 1 42
ATOM     42  CB  ARG F 167      -0.576  19.474  39.302  1.00 34.27 LIG 0.04  C 
BRANCH 42 43
ATOM     43  CG  ARG F 167       0.403  20.193  38.395  1.00 36.76 LIG 0.02  C 
BRANCH 43 44
ATOM     44  CD  ARG F 167       1.740  20.333  39.067  1.00 47.53 LIG 0.14  C 
BRANCH 44 45
ATOM     45  NE  ARG F 167       2.319  19.029  39.360  1.00 46.15 LIG-0.23  N 
ATOM     46 HE   ARG F 167       2.794  18.648  38.753  1.00 46.15 LIG 0.18  HD
ATOM     47  CZ  ARG F 167       2.152  18.401  40.516  1.00 54.25 LIG 0.67  C 
ATOM     48  NH2 ARG F 167       2.712  17.213  40.722  1.00 44.38 LIG-0.23  N 
ATOM     49  NH1 ARG F 167       1.414  18.971  41.464  1.00 45.80 LIG-0.23  N 
ATOM     50 1HH2 ARG F 167       3.186  16.849  40.104  1.00 44.38 LIG 0.17  HD
ATOM     51 2HH2 ARG F 167       2.601  16.810  41.473  1.00 44.38 LIG 0.17  HD
ATOM     52 2HH1 ARG F 167       1.299  18.572  42.217  1.00 45.80 LIG 0.17  HD
ATOM     53 1HH1 ARG F 167       1.051  19.738  41.325  1.00 45.80 LIG 0.17  HD
ENDBRANCH 44 45
ENDBRANCH 43 44
ENDBRANCH 42 43
ENDBRANCH 1 42
BRANCH 1 54
ATOM     54  N   ARG F 167      -2.732  20.640  38.954  1.00 32.00 LIG-0.35  N 
ATOM     55 H    ARG F 167      -2.452  21.094  39.629  1.00 32.00 LIG 0.16  HD
ATOM     56  C   GLN F 166      -3.746  21.024  38.181  1.00 42.00 LIG 0.24  C 
ATOM     57 O    GLN F 166      -4.096  20.421  37.161  1.00 37.97 LIG-0.27  OA
BRANCH 56 58
ATOM     58  CA  GLN F 166      -4.461  22.287  38.628  1.00 41.36 LIG 0.18  C 
BRANCH 58 59
ATOM     59  CB  GLN F 166      -5.735  21.902  39.389  1.00 34.92 LIG 0.04  C 
BRANCH 59 60
ATOM     60  CG  GLN F 166      -5.764  22.318  40.839  1.00 32.73 LIG 0.10  C 
BRANCH 60 61
ATOM     61  CD  GLN F 166      -5.037  21.325  41.724  1.00 43.28 LIG 0.21  C 
ATOM     62  NE2 GLN F 166      -3.709  21.326  41.655  1.00 36.91 LIG-0.37  N 
ATOM     63 21HE GLN F 166      -3.307  21.874  41.128  1.00 36.91 LIG 0.16  HD
ATOM     64 22HE GLN F 166      -3.253  20.778  42.136  1.00 36.91 LIG 0.16  HD
ATOM     65 OE1  GLN F 166      -5.664  20.560  42.463  1.00 42.55 LIG-0.27  OA
ENDBRANCH 60 61
ENDBRANCH 59 60
ENDBRANCH 58 59
BRANCH 58 66
ATOM     66  N   GLN F 166      -4.739  23.113  37.462  1.00 35.11 LIG-0.35  N 
ATOM     67  C   THR F 165      -3.778  23.534  36.645  1.00 35.16 LIG 0.24  C 
ATOM     68 O    THR F 165      -2.580  23.313  36.864  1.00 30.91 LIG-0.27  OA
ATOM     69 H    GLN F 166      -5.571  23.300  37.354  1.00 35.11 LIG 0.16  HD
BRANCH 67 70
ATOM     70  CA  THR F 165      -4.185  24.314  35.403  1.00 44.00 LIG 0.20  C 
BRANCH 70 71
ATOM     71  CB  THR F 165      -4.167  25.817  35.703  1.00 46.85 LIG 0.15  C 
ATOM     72  CG2 THR F 165      -3.097  26.516  34.862  1.00 37.95 LIG 0.04  C 
BRANCH 71 73
ATOM     73 OG1  THR F 165      -5.458  26.377  35.428  1.00 45.14 LIG-0.39  OA
ATOM     74 HG1  THR F 165      -5.606  26.350  34.601  1.00 45.14 LIG 0.21  HD
ENDBRANCH 71 73
ENDBRANCH 70 71
BRANCH 70 75
ATOM     75  N   THR F 165      -5.492  23.909  34.898  1.00 38.01 LIG-0.34  N 
ATOM     76 H    THR F 165      -6.074  24.541  34.881  1.00 38.01 LIG 0.16  HD
ATOM     77  C   THR F 164      -5.743  22.661  34.500  1.00 57.69 LIG 0.26  C 
ATOM     78 O    THR F 164      -4.893  21.765  34.529  1.00 49.67 LIG-0.27  OA
BRANCH 77 79
ATOM     79  CA  THR F 164      -7.164  22.383  33.999  1.00 56.73 LIG 0.43  C 
ATOM     80  N   THR F 164      -7.625  23.458  33.123  1.00 65.32 LIG 0.62  N 
BRANCH 79 81
ATOM     81  CB  THR F 164      -7.207  21.006  33.283  1.00 58.05 LIG 0.16  C 
ATOM     82  CG2 THR F 164      -7.132  19.874  34.305  1.00 51.52 LIG 0.04  C 
BRANCH 81 83
ATOM     83 OG1  THR F 164      -8.419  20.883  32.526  1.00 58.15 LIG-0.39  OA
ATOM     84 HG1  THR F 164      -8.341  21.301  31.802  1.00 58.15 LIG 0.21  HD
ENDBRANCH 81 83
ENDBRANCH 79 81
ENDBRANCH 77 79
ENDBRANCH 70 75
ENDBRANCH 67 70
ENDBRANCH 58 66
ENDBRANCH 56 58
ENDBRANCH 1 54
TORSDOF 35
ENDMDL
MODEL 26
USER: ADFR SOLUTION from run 43
USER: SCORE 25.729124 LL:  -4.800 LR: -22.690 RR:   0.000 FEB: -12.250
USER: RMSD 10.288789
USER: SEED 42
USER: STATUS searching
USER: GENES 37
USER: genes 0 Translation |==|  0.54752 0.58424 0.50262
USER: genes 1 Rotation |==|  0.06351 0.63550 0.33014 0.61073
USER: genes 2 Torsion [N]-CA--C-[N] |==|  0.30623
USER: genes 3 Torsion [C]-N--CA-[C] |==|  0.72972
USER: genes 4 Torsion [N]-CA--CB-[CG] |==|  0.83825
USER: genes 5 Torsion [CA]-CB--CG-[CD] |==|  0.37451
USER: genes 6 Torsion [CB]-CG--CD-[CE] |==|  0.32559
USER: genes 7 Torsion [CG]-CD--CE-[NZ] |==|  0.55435
USER: genes 8 Torsion [CD]-CE--NZ-[HZ3] |==|  0.77033
USER: genes 9 Torsion [N]-CA--C-[N] |==|  0.92425
USER: genes 10 Torsion [C]-N--CA-[C] |==|  0.62150
USER: genes 11 Torsion [N]-CA--C-[N] |==|  0.33758
USER: genes 12 Torsion [C]-N--CA-[C] |==|  0.10392
USER: genes 13 Torsion [N]-CA--C-[O] |==|  0.09942
USER: genes 14 Torsion [N]-CA--CB-[OG] |==|  0.28602
USER: genes 15 Torsion [CA]-CB--OG-[HG] |==|  0.76433
USER: genes 16 Torsion [N]-CA--CB-[CG] |==|  0.69360
USER: genes 17 Torsion [CA]-CB--CG-[CD] |==|  0.70877
USER: genes 18 Torsion [CB]-CG--CD-[NE] |==|  0.66101
USER: genes 19 Torsion [CG]-CD--NE-[CZ] |==|  0.59487
USER: genes 20 Torsion [C]-CA--CB-[CG] |==|  0.56090
USER: genes 21 Torsion [CA]-CB--CG-[CD] |==|  0.51106
USER: genes 22 Torsion [CB]-CG--CD-[NE] |==|  0.69383
USER: genes 23 Torsion [CG]-CD--NE-[CZ] |==|  0.67170
USER: genes 24 Torsion [C]-CA--N-[C] |==|  0.78720
USER: genes 25 Torsion [N]-C--CA-[N] |==|  0.59444
USER: genes 26 Torsion [C]-CA--CB-[CG] |==|  0.73770
USER: genes 27 Torsion [CA]-CB--CG-[CD] |==|  0.21335
USER: genes 28 Torsion [CB]-CG--CD-[NE2] |==|  0.17499
USER: genes 29 Torsion [C]-CA--N-[C] |==|  0.79316
USER: genes 30 Torsion [N]-C--CA-[N] |==|  0.42850
USER: genes 31 Torsion [C]-CA--CB-[CG2] |==|  0.31337
USER: genes 32 Torsion [CA]-CB--OG1-[HG1] |==|  0.24217
USER: genes 33 Torsion [C]-CA--N-[C] |==|  0.80112
USER: genes 34 Torsion [N]-C--CA-[N] |==|  0.33883
USER: genes 35 Torsion [C]-CA--CB-[OG1] |==|  0.53685
USER: genes 36 Torsion [CA]-CB--OG1-[HG1] |==|  0.30117
ROOT
ATOM      1  CA  ARG F 167      -0.035  20.289  38.715  1.00 38.85 LIG 0.18  C 
ENDROOT
BRANCH 1 2
ATOM      2  C   ARG F 167       0.337  21.754  38.852  1.00 41.97 LIG 0.24  C 
ATOM      3  N   LYS F 168       0.993  22.285  37.819  1.00 42.42 LIG-0.35  N 
ATOM      4 H    LYS F 168       1.280  21.842  37.140  1.00 42.42 LIG 0.16  HD
ATOM      5 O    ARG F 167       0.050  22.389  39.871  1.00 34.60 LIG-0.27  OA
BRANCH 3 6
ATOM      6  CA  LYS F 168       1.268  23.715  37.786  1.00 39.35 LIG 0.18  C 
BRANCH 6 7
ATOM      7  CB  LYS F 168       2.666  23.989  37.225  1.00 43.51 LIG 0.04  C 
BRANCH 7 8
ATOM      8  CG  LYS F 168       3.790  23.325  37.996  1.00 39.69 LIG 0.00  C 
BRANCH 8 9
ATOM      9  CD  LYS F 168       4.805  22.656  37.072  1.00 48.24 LIG 0.03  C 
BRANCH 9 10
ATOM     10  CE  LYS F 168       6.193  23.288  37.197  1.00 54.37 LIG 0.23  C 
BRANCH 10 11
ATOM     11  NZ  LYS F 168       7.088  23.011  36.027  1.00 52.23 LIG-0.08  N 
ATOM     12 HZ3  LYS F 168       7.467  22.211  36.126  1.00 52.23 LIG 0.27  HD
ATOM     13 HZ1  LYS F 168       6.609  23.021  35.277  1.00 52.23 LIG 0.27  HD
ATOM     14 HZ2  LYS F 168       7.722  23.635  35.983  1.00 52.23 LIG 0.27  HD
ENDBRANCH 10 11
ENDBRANCH 9 10
ENDBRANCH 8 9
ENDBRANCH 7 8
ENDBRANCH 6 7
BRANCH 6 15
ATOM     15  C   LYS F 168       0.213  24.422  36.943  1.00 30.99 LIG 0.24  C 
ATOM     16 O    LYS F 168      -0.056  25.614  37.126  1.00 32.09 LIG-0.27  OA
ATOM     17  N   ARG F 169      -0.359  23.692  35.989  1.00 23.74 LIG-0.35  N 
ATOM     18 H    ARG F 169      -0.161  22.874  35.814  1.00 23.74 LIG 0.16  HD
BRANCH 17 19
ATOM     19  CA  ARG F 169      -1.399  24.269  35.151  1.00 28.77 LIG 0.18  C 
BRANCH 19 20
ATOM     20  C   ARG F 169      -2.545  23.275  34.983  1.00 37.10 LIG 0.24  C 
ATOM     21  N   SER F 170      -3.735  23.707  35.393  1.00 32.48 LIG-0.34  N 
ATOM     22 H    SER F 170      -3.894  24.524  35.610  1.00 32.48 LIG 0.16  HD
ATOM     23 O    ARG F 169      -2.354  22.139  34.527  1.00 33.53 LIG-0.27  OA
BRANCH 21 24
ATOM     24  CA  SER F 170      -4.898  22.826  35.516  1.00 32.11 LIG 0.19  C 
BRANCH 24 25
ATOM     25  C   SER F 170      -4.531  21.427  36.028  1.00 36.47 LIG 0.22  C 
ATOM     26 O    SER F 170      -3.640  21.270  36.863  1.00 35.83 LIG-0.29  OA
ENDBRANCH 24 25
BRANCH 24 27
ATOM     27  CB  SER F 170      -5.611  22.721  34.164  1.00 36.26 LIG 0.20  C 
BRANCH 27 28
ATOM     28 OG   SER F 170      -5.308  21.484  33.529  1.00 19.66 LIG-0.40  OA
ATOM     29 HG   SER F 170      -4.586  21.555  33.106  1.00 19.66 LIG 0.21  HD
ENDBRANCH 27 28
ENDBRANCH 24 27
ENDBRANCH 21 24
ENDBRANCH 19 20
BRANCH 19 30
ATOM     30  CB  ARG F 169      -0.829  24.698  33.792  1.00 32.99 LIG 0.04  C 
BRANCH 30 31
ATOM     31  CG  ARG F 169      -0.740  26.191  33.522  1.00 34.51 LIG 0.02  C 
BRANCH 31 32
ATOM     32  CD  ARG F 169      -1.861  26.595  32.545  1.00 39.71 LIG 0.14  C 
BRANCH 32 33
ATOM     33  NE  ARG F 169      -1.297  27.215  31.347  1.00 37.23 LIG-0.23  N 
ATOM     34  CZ  ARG F 169      -1.858  28.198  30.646  1.00 33.71 LIG 0.67  C 
ATOM     35  NH2 ARG F 169      -1.221  28.665  29.579  1.00 35.73 LIG-0.23  N 
ATOM     36  NH1 ARG F 169      -3.041  28.715  31.000  1.00 22.18 LIG-0.23  N 
ATOM     37 2HH2 ARG F 169      -1.568  29.300  29.115  1.00 35.73 LIG 0.17  HD
ATOM     38 1HH2 ARG F 169      -0.461  28.332  29.353  1.00 35.73 LIG 0.17  HD
ATOM     39 1HH1 ARG F 169      -3.452  28.412  31.692  1.00 22.18 LIG 0.17  HD
ATOM     40 2HH1 ARG F 169      -3.389  29.349  30.536  1.00 22.18 LIG 0.17  HD
ATOM     41 HE   ARG F 169      -0.538  26.920  31.072  1.00 37.23 LIG 0.18  HD
ENDBRANCH 32 33
ENDBRANCH 31 32
ENDBRANCH 30 31
ENDBRANCH 19 30
ENDBRANCH 17 19
ENDBRANCH 6 15
ENDBRANCH 3 6
ENDBRANCH 1 2
BRANCH 1 42
ATOM     42  CB  ARG F 167      -1.536  20.103  38.971  1.00 34.27 LIG 0.04  C 
BRANCH 42 43
ATOM     43  CG  ARG F 167      -1.904  18.689  39.375  1.00 36.76 LIG 0.02  C 
BRANCH 43 44
ATOM     44  CD  ARG F 167      -3.394  18.552  39.516  1.00 47.53 LIG 0.14  C 
BRANCH 44 45
ATOM     45  NE  ARG F 167      -3.775  18.381  40.912  1.00 46.15 LIG-0.23  N 
ATOM     46 HE   ARG F 167      -3.593  19.013  41.465  1.00 46.15 LIG 0.18  HD
ATOM     47  CZ  ARG F 167      -4.389  17.299  41.372  1.00 54.25 LIG 0.67  C 
ATOM     48  NH2 ARG F 167      -4.714  17.208  42.658  1.00 44.38 LIG-0.23  N 
ATOM     49  NH1 ARG F 167      -4.672  16.306  40.535  1.00 45.80 LIG-0.23  N 
ATOM     50 1HH2 ARG F 167      -4.526  17.852  43.196  1.00 44.38 LIG 0.17  HD
ATOM     51 2HH2 ARG F 167      -5.112  16.505  42.952  1.00 44.38 LIG 0.17  HD
ATOM     52 2HH1 ARG F 167      -5.069  15.601  40.823  1.00 45.80 LIG 0.17  HD
ATOM     53 1HH1 ARG F 167      -4.457  16.369  39.704  1.00 45.80 LIG 0.17  HD
ENDBRANCH 44 45
ENDBRANCH 43 44
ENDBRANCH 42 43
ENDBRANCH 1 42
BRANCH 1 54
ATOM     54  N   ARG F 167       0.773  19.516  39.646  1.00 32.00 LIG-0.35  N 
ATOM     55 H    ARG F 167       0.349  19.264  40.350  1.00 32.00 LIG 0.16  HD
ATOM     56  C   GLN F 166       2.054  19.230  39.421  1.00 42.00 LIG 0.24  C 
ATOM     57 O    GLN F 166       2.645  19.513  38.373  1.00 37.97 LIG-0.27  OA
BRANCH 56 58
ATOM     58  CA  GLN F 166       2.765  18.503  40.549  1.00 41.36 LIG 0.18  C 
BRANCH 58 59
ATOM     59  CB  GLN F 166       2.026  18.772  41.865  1.00 34.92 LIG 0.04  C 
BRANCH 59 60
ATOM     60  CG  GLN F 166       2.569  19.920  42.679  1.00 32.73 LIG 0.10  C 
BRANCH 60 61
ATOM     61  CD  GLN F 166       2.151  21.262  42.109  1.00 43.28 LIG 0.21  C 
ATOM     62  NE2 GLN F 166       0.847  21.521  42.093  1.00 36.91 LIG-0.37  N 
ATOM     63 21HE GLN F 166       0.289  20.942  42.399  1.00 36.91 LIG 0.16  HD
ATOM     64 22HE GLN F 166       0.562  22.269  41.777  1.00 36.91 LIG 0.16  HD
ATOM     65 OE1  GLN F 166       2.994  22.057  41.683  1.00 42.55 LIG-0.27  OA
ENDBRANCH 60 61
ENDBRANCH 59 60
ENDBRANCH 58 59
BRANCH 58 66
ATOM     66  N   GLN F 166       4.153  18.939  40.593  1.00 35.11 LIG-0.35  N 
ATOM     67  C   THR F 165       5.051  18.539  39.698  1.00 35.16 LIG 0.24  C 
ATOM     68 O    THR F 165       4.783  17.714  38.815  1.00 30.91 LIG-0.27  OA
ATOM     69 H    GLN F 166       4.334  19.471  41.244  1.00 35.11 LIG 0.16  HD
BRANCH 67 70
ATOM     70  CA  THR F 165       6.454  19.126  39.779  1.00 44.00 LIG 0.20  C 
BRANCH 70 71
ATOM     71  CB  THR F 165       6.486  20.495  39.091  1.00 46.85 LIG 0.15  C 
ATOM     72  CG2 THR F 165       6.728  21.603  40.118  1.00 37.95 LIG 0.04  C 
BRANCH 71 73
ATOM     73 OG1  THR F 165       7.519  20.508  38.096  1.00 45.14 LIG-0.39  OA
ATOM     74 HG1  THR F 165       7.213  20.215  37.370  1.00 45.14 LIG 0.21  HD
ENDBRANCH 71 73
ENDBRANCH 70 71
BRANCH 70 75
ATOM     75  N   THR F 165       7.459  18.240  39.203  1.00 38.01 LIG-0.34  N 
ATOM     76 H    THR F 165       7.782  18.514  38.455  1.00 38.01 LIG 0.16  HD
ATOM     77  C   THR F 164       7.833  17.108  39.800  1.00 57.69 LIG 0.26  C 
ATOM     78 O    THR F 164       7.359  16.731  40.877  1.00 49.67 LIG-0.27  OA
BRANCH 77 79
ATOM     79  CA  THR F 164       8.895  16.277  39.073  1.00 56.73 LIG 0.43  C 
ATOM     80  N   THR F 164      10.068  16.078  39.920  1.00 65.32 LIG 0.62  N 
BRANCH 79 81
ATOM     81  CB  THR F 164       8.282  14.925  38.619  1.00 58.05 LIG 0.16  C 
ATOM     82  CG2 THR F 164       7.325  15.143  37.448  1.00 51.52 LIG 0.04  C 
BRANCH 81 83
ATOM     83 OG1  THR F 164       9.323  14.022  38.219  1.00 58.15 LIG-0.39  OA
ATOM     84 HG1  THR F 164       9.401  13.414  38.793  1.00 58.15 LIG 0.21  HD
ENDBRANCH 81 83
ENDBRANCH 79 81
ENDBRANCH 77 79
ENDBRANCH 70 75
ENDBRANCH 67 70
ENDBRANCH 58 66
ENDBRANCH 56 58
ENDBRANCH 1 54
TORSDOF 35
ENDMDL
MODEL 27
USER: ADFR SOLUTION from run 90
USER: SCORE 25.791828 LL:  -3.917 LR: -22.644 RR:   0.000 FEB: -12.204
USER: RMSD 7.362818
USER: SEED 89
USER: STATUS no improvement in best in 10 clusters for 5 generations
USER: GENES 37
USER: genes 0 Translation |==|  0.60667 0.60176 0.46553
USER: genes 1 Rotation |==|  0.07224 0.27590 0.62815 0.51942
USER: genes 2 Torsion [N]-CA--C-[N] |==|  0.47222
USER: genes 3 Torsion [C]-N--CA-[C] |==|  0.57452
USER: genes 4 Torsion [N]-CA--CB-[CG] |==|  0.73486
USER: genes 5 Torsion [CA]-CB--CG-[CD] |==|  0.39056
USER: genes 6 Torsion [CB]-CG--CD-[CE] |==|  0.29908
USER: genes 7 Torsion [CG]-CD--CE-[NZ] |==|  0.44244
USER: genes 8 Torsion [CD]-CE--NZ-[HZ3] |==|  0.30066
USER: genes 9 Torsion [N]-CA--C-[N] |==|  0.46082
USER: genes 10 Torsion [C]-N--CA-[C] |==|  0.78006
USER: genes 11 Torsion [N]-CA--C-[N] |==|  0.47581
USER: genes 12 Torsion [C]-N--CA-[C] |==|  0.51813
USER: genes 13 Torsion [N]-CA--C-[O] |==|  0.74275
USER: genes 14 Torsion [N]-CA--CB-[OG] |==|  0.74928
USER: genes 15 Torsion [CA]-CB--OG-[HG] |==|  0.16427
USER: genes 16 Torsion [N]-CA--CB-[CG] |==|  0.14018
USER: genes 17 Torsion [CA]-CB--CG-[CD] |==|  0.70900
USER: genes 18 Torsion [CB]-CG--CD-[NE] |==|  0.08807
USER: genes 19 Torsion [CG]-CD--NE-[CZ] |==|  0.32100
USER: genes 20 Torsion [C]-CA--CB-[CG] |==|  0.40772
USER: genes 21 Torsion [CA]-CB--CG-[CD] |==|  0.44903
USER: genes 22 Torsion [CB]-CG--CD-[NE] |==|  0.33161
USER: genes 23 Torsion [CG]-CD--NE-[CZ] |==|  0.74100
USER: genes 24 Torsion [C]-CA--N-[C] |==|  0.53485
USER: genes 25 Torsion [N]-C--CA-[N] |==|  0.95852
USER: genes 26 Torsion [C]-CA--CB-[CG] |==|  0.14537
USER: genes 27 Torsion [CA]-CB--CG-[CD] |==|  0.21995
USER: genes 28 Torsion [CB]-CG--CD-[NE2] |==|  0.83865
USER: genes 29 Torsion [C]-CA--N-[C] |==|  0.70336
USER: genes 30 Torsion [N]-C--CA-[N] |==|  0.41691
USER: genes 31 Torsion [C]-CA--CB-[CG2] |==|  0.76038
USER: genes 32 Torsion [CA]-CB--OG1-[HG1] |==|  0.80616
USER: genes 33 Torsion [C]-CA--N-[C] |==|  0.62093
USER: genes 34 Torsion [N]-C--CA-[N] |==|  0.78463
USER: genes 35 Torsion [C]-CA--CB-[OG1] |==|  0.47622
USER: genes 36 Torsion [CA]-CB--OG1-[HG1] |==|  0.34843
ROOT
ATOM      1  CA  ARG F 167       1.429  20.775  37.992  1.00 38.85 LIG 0.18  C 
ENDROOT
BRANCH 1 2
ATOM      2  C   ARG F 167      -0.057  20.988  38.221  1.00 41.97 LIG 0.24  C 
ATOM      3  N   LYS F 168      -0.791  19.880  38.334  1.00 42.42 LIG-0.35  N 
ATOM      4 H    LYS F 168      -0.497  19.082  38.207  1.00 42.42 LIG 0.16  HD
ATOM      5 O    ARG F 167      -0.532  22.126  38.281  1.00 34.60 LIG-0.27  OA
BRANCH 3 6
ATOM      6  CA  LYS F 168      -2.198  19.972  38.699  1.00 39.35 LIG 0.18  C 
BRANCH 6 7
ATOM      7  CB  LYS F 168      -3.066  20.227  37.465  1.00 43.51 LIG 0.04  C 
BRANCH 7 8
ATOM      8  CG  LYS F 168      -3.393  21.687  37.220  1.00 39.69 LIG 0.00  C 
BRANCH 8 9
ATOM      9  CD  LYS F 168      -3.351  22.046  35.737  1.00 48.24 LIG 0.03  C 
BRANCH 9 10
ATOM     10  CE  LYS F 168      -4.753  22.275  35.166  1.00 54.37 LIG 0.23  C 
BRANCH 10 11
ATOM     11  NZ  LYS F 168      -4.765  23.083  33.905  1.00 52.23 LIG-0.08  N 
ATOM     12 HZ3  LYS F 168      -4.963  22.556  33.215  1.00 52.23 LIG 0.27  HD
ATOM     13 HZ1  LYS F 168      -5.375  23.728  33.970  1.00 52.23 LIG 0.27  HD
ATOM     14 HZ2  LYS F 168      -3.962  23.447  33.777  1.00 52.23 LIG 0.27  HD
ENDBRANCH 10 11
ENDBRANCH 9 10
ENDBRANCH 8 9
ENDBRANCH 7 8
ENDBRANCH 6 7
BRANCH 6 15
ATOM     15  C   LYS F 168      -2.633  18.687  39.394  1.00 30.99 LIG 0.24  C 
ATOM     16 O    LYS F 168      -1.916  17.680  39.381  1.00 32.09 LIG-0.27  OA
ATOM     17  N   ARG F 169      -3.797  18.734  40.037  1.00 23.74 LIG-0.35  N 
ATOM     18 H    ARG F 169      -4.295  19.433  40.096  1.00 23.74 LIG 0.16  HD
BRANCH 17 19
ATOM     19  CA  ARG F 169      -4.312  17.550  40.707  1.00 28.77 LIG 0.18  C 
BRANCH 19 20
ATOM     20  C   ARG F 169      -4.948  16.609  39.688  1.00 37.10 LIG 0.24  C 
ATOM     21  N   SER F 170      -5.292  15.412  40.158  1.00 32.48 LIG-0.34  N 
ATOM     22 H    SER F 170      -5.292  15.214  40.995  1.00 32.48 LIG 0.16  HD
ATOM     23 O    ARG F 169      -5.094  16.942  38.504  1.00 33.53 LIG-0.27  OA
BRANCH 21 24
ATOM     24  CA  SER F 170      -5.707  14.310  39.289  1.00 32.11 LIG 0.19  C 
BRANCH 24 25
ATOM     25  C   SER F 170      -6.204  13.089  40.074  1.00 36.47 LIG 0.22  C 
ATOM     26 O    SER F 170      -5.437  12.175  40.379  1.00 35.83 LIG-0.29  OA
ENDBRANCH 24 25
BRANCH 24 27
ATOM     27  CB  SER F 170      -4.545  13.909  38.374  1.00 36.26 LIG 0.20  C 
BRANCH 27 28
ATOM     28 OG   SER F 170      -4.582  14.649  37.159  1.00 19.66 LIG-0.40  OA
ATOM     29 HG   SER F 170      -4.535  15.470  37.328  1.00 19.66 LIG 0.21  HD
ENDBRANCH 27 28
ENDBRANCH 24 27
ENDBRANCH 21 24
ENDBRANCH 19 20
BRANCH 19 30
ATOM     30  CB  ARG F 169      -5.309  17.937  41.808  1.00 32.99 LIG 0.04  C 
BRANCH 30 31
ATOM     31  CG  ARG F 169      -6.425  18.894  41.421  1.00 34.51 LIG 0.02  C 
BRANCH 31 32
ATOM     32  CD  ARG F 169      -6.114  20.291  41.992  1.00 39.71 LIG 0.14  C 
BRANCH 32 33
ATOM     33  NE  ARG F 169      -4.670  20.513  42.042  1.00 37.23 LIG-0.23  N 
ATOM     34  CZ  ARG F 169      -4.003  21.431  41.344  1.00 33.71 LIG 0.67  C 
ATOM     35  NH2 ARG F 169      -2.688  21.518  41.499  1.00 35.73 LIG-0.23  N 
ATOM     36  NH1 ARG F 169      -4.635  22.256  40.502  1.00 22.18 LIG-0.23  N 
ATOM     37 2HH2 ARG F 169      -2.241  22.105  41.058  1.00 35.73 LIG 0.17  HD
ATOM     38 1HH2 ARG F 169      -2.283  20.987  42.041  1.00 35.73 LIG 0.17  HD
ATOM     39 1HH1 ARG F 169      -5.488  22.200  40.403  1.00 22.18 LIG 0.17  HD
ATOM     40 2HH1 ARG F 169      -4.189  22.844  40.060  1.00 22.18 LIG 0.17  HD
ATOM     41 HE   ARG F 169      -4.212  20.008  42.565  1.00 37.23 LIG 0.18  HD
ENDBRANCH 32 33
ENDBRANCH 31 32
ENDBRANCH 30 31
ENDBRANCH 19 30
ENDBRANCH 17 19
ENDBRANCH 6 15
ENDBRANCH 3 6
ENDBRANCH 1 2
BRANCH 1 42
ATOM     42  CB  ARG F 167       2.067  20.151  39.240  1.00 34.27 LIG 0.04  C 
BRANCH 42 43
ATOM     43  CG  ARG F 167       3.209  19.208  38.920  1.00 36.76 LIG 0.02  C 
BRANCH 43 44
ATOM     44  CD  ARG F 167       4.064  18.984  40.136  1.00 47.53 LIG 0.14  C 
BRANCH 44 45
ATOM     45  NE  ARG F 167       4.081  17.577  40.513  1.00 46.15 LIG-0.23  N 
ATOM     46 HE   ARG F 167       4.662  17.063  40.142  1.00 46.15 LIG 0.18  HD
ATOM     47  CZ  ARG F 167       3.247  17.050  41.399  1.00 54.25 LIG 0.67  C 
ATOM     48  NH2 ARG F 167       3.319  15.757  41.702  1.00 44.38 LIG-0.23  N 
ATOM     49  NH1 ARG F 167       2.337  17.827  41.977  1.00 45.80 LIG-0.23  N 
ATOM     50 1HH2 ARG F 167       3.909  15.259  41.323  1.00 44.38 LIG 0.17  HD
ATOM     51 2HH2 ARG F 167       2.777  15.419  42.278  1.00 44.38 LIG 0.17  HD
ATOM     52 2HH1 ARG F 167       1.791  17.495  42.553  1.00 45.80 LIG 0.17  HD
ATOM     53 1HH1 ARG F 167       2.293  18.662  41.775  1.00 45.80 LIG 0.17  HD
ENDBRANCH 44 45
ENDBRANCH 43 44
ENDBRANCH 42 43
ENDBRANCH 1 42
BRANCH 1 54
ATOM     54  N   ARG F 167       2.035  22.054  37.656  1.00 32.00 LIG-0.35  N 
ATOM     55 H    ARG F 167       1.526  22.731  37.803  1.00 32.00 LIG 0.16  HD
ATOM     56  C   GLN F 166       3.269  22.158  37.164  1.00 42.00 LIG 0.24  C 
ATOM     57 O    GLN F 166       4.036  21.199  37.032  1.00 37.97 LIG-0.27  OA
BRANCH 56 58
ATOM     58  CA  GLN F 166       3.696  23.563  36.777  1.00 41.36 LIG 0.18  C 
BRANCH 58 59
ATOM     59  CB  GLN F 166       4.730  24.072  37.788  1.00 34.92 LIG 0.04  C 
BRANCH 59 60
ATOM     60  CG  GLN F 166       5.903  23.153  38.019  1.00 32.73 LIG 0.10  C 
BRANCH 60 61
ATOM     61  CD  GLN F 166       6.932  23.264  36.911  1.00 43.28 LIG 0.21  C 
ATOM     62  NE2 GLN F 166       6.508  23.007  35.677  1.00 36.91 LIG-0.37  N 
ATOM     63 21HE GLN F 166       5.686  22.794  35.541  1.00 36.91 LIG 0.16  HD
ATOM     64 22HE GLN F 166       7.056  23.054  35.016  1.00 36.91 LIG 0.16  HD
ATOM     65 OE1  GLN F 166       8.100  23.575  37.162  1.00 42.55 LIG-0.27  OA
ENDBRANCH 60 61
ENDBRANCH 59 60
ENDBRANCH 58 59
BRANCH 58 66
ATOM     66  N   GLN F 166       2.518  24.415  36.711  1.00 35.11 LIG-0.35  N 
ATOM     67  C   THR F 165       2.008  24.834  35.556  1.00 35.16 LIG 0.24  C 
ATOM     68 O    THR F 165       2.545  24.587  34.468  1.00 30.91 LIG-0.27  OA
ATOM     69 H    GLN F 166       2.188  24.620  37.479  1.00 35.11 LIG 0.16  HD
BRANCH 67 70
ATOM     70  CA  THR F 165       0.720  25.645  35.594  1.00 44.00 LIG 0.20  C 
BRANCH 70 71
ATOM     71  CB  THR F 165      -0.489  24.703  35.596  1.00 46.85 LIG 0.15  C 
ATOM     72  CG2 THR F 165      -0.877  24.329  34.164  1.00 37.95 LIG 0.04  C 
BRANCH 71 73
ATOM     73 OG1  THR F 165      -0.177  23.523  36.349  1.00 45.14 LIG-0.39  OA
ATOM     74 HG1  THR F 165       0.388  23.064  35.930  1.00 45.14 LIG 0.21  HD
ENDBRANCH 71 73
ENDBRANCH 70 71
BRANCH 70 75
ATOM     75  N   THR F 165       0.629  26.592  34.489  1.00 38.01 LIG-0.34  N 
ATOM     76 H    THR F 165       0.868  26.269  33.729  1.00 38.01 LIG 0.16  HD
ATOM     77  C   THR F 164       0.211  27.846  34.661  1.00 57.69 LIG 0.26  C 
ATOM     78 O    THR F 164      -0.129  28.294  35.762  1.00 49.67 LIG-0.27  OA
BRANCH 77 79
ATOM     79  CA  THR F 164       0.175  28.726  33.408  1.00 56.73 LIG 0.43  C 
ATOM     80  N   THR F 164       1.516  29.185  33.057  1.00 65.32 LIG 0.62  N 
BRANCH 79 81
ATOM     81  CB  THR F 164      -0.486  27.947  32.239  1.00 58.05 LIG 0.16  C 
ATOM     82  CG2 THR F 164      -1.820  27.352  32.685  1.00 51.52 LIG 0.04  C 
BRANCH 81 83
ATOM     83 OG1  THR F 164      -0.705  28.823  31.124  1.00 58.15 LIG-0.39  OA
ATOM     84 HG1  THR F 164      -0.346  28.498  30.438  1.00 58.15 LIG 0.21  HD
ENDBRANCH 81 83
ENDBRANCH 79 81
ENDBRANCH 77 79
ENDBRANCH 70 75
ENDBRANCH 67 70
ENDBRANCH 58 66
ENDBRANCH 56 58
ENDBRANCH 1 54
TORSDOF 35
ENDMDL
MODEL 28
USER: ADFR SOLUTION from run 116
USER: SCORE 27.108203 LL:  -4.890 LR: -22.639 RR:   0.000 FEB: -12.198
USER: RMSD 7.781736
USER: SEED 115
USER: STATUS searching
USER: GENES 37
USER: genes 0 Translation |==|  0.58632 0.59741 0.58379
USER: genes 1 Rotation |==|  0.80139 0.47425 0.44545 0.89436
USER: genes 2 Torsion [N]-CA--C-[N] |==|  0.40360
USER: genes 3 Torsion [C]-N--CA-[C] |==|  0.71797
USER: genes 4 Torsion [N]-CA--CB-[CG] |==|  0.14829
USER: genes 5 Torsion [CA]-CB--CG-[CD] |==|  0.32099
USER: genes 6 Torsion [CB]-CG--CD-[CE] |==|  0.54982
USER: genes 7 Torsion [CG]-CD--CE-[NZ] |==|  0.85026
USER: genes 8 Torsion [CD]-CE--NZ-[HZ3] |==|  0.69454
USER: genes 9 Torsion [N]-CA--C-[N] |==|  0.38430
USER: genes 10 Torsion [C]-N--CA-[C] |==|  0.73473
USER: genes 11 Torsion [N]-CA--C-[N] |==|  0.91930
USER: genes 12 Torsion [C]-N--CA-[C] |==|  0.56561
USER: genes 13 Torsion [N]-CA--C-[O] |==|  0.06902
USER: genes 14 Torsion [N]-CA--CB-[OG] |==|  0.03826
USER: genes 15 Torsion [CA]-CB--OG-[HG] |==|  0.35512
USER: genes 16 Torsion [N]-CA--CB-[CG] |==|  0.62290
USER: genes 17 Torsion [CA]-CB--CG-[CD] |==|  0.82190
USER: genes 18 Torsion [CB]-CG--CD-[NE] |==|  0.72034
USER: genes 19 Torsion [CG]-CD--NE-[CZ] |==|  0.24444
USER: genes 20 Torsion [C]-CA--CB-[CG] |==|  0.09411
USER: genes 21 Torsion [CA]-CB--CG-[CD] |==|  0.30356
USER: genes 22 Torsion [CB]-CG--CD-[NE] |==|  0.69480
USER: genes 23 Torsion [CG]-CD--NE-[CZ] |==|  0.65897
USER: genes 24 Torsion [C]-CA--N-[C] |==|  0.82416
USER: genes 25 Torsion [N]-C--CA-[N] |==|  0.43650
USER: genes 26 Torsion [C]-CA--CB-[CG] |==|  0.58810
USER: genes 27 Torsion [CA]-CB--CG-[CD] |==|  0.80403
USER: genes 28 Torsion [CB]-CG--CD-[NE2] |==|  0.87007
USER: genes 29 Torsion [C]-CA--N-[C] |==|  0.78894
USER: genes 30 Torsion [N]-C--CA-[N] |==|  0.12778
USER: genes 31 Torsion [C]-CA--CB-[CG2] |==|  0.26247
USER: genes 32 Torsion [CA]-CB--OG1-[HG1] |==|  0.24705
USER: genes 33 Torsion [C]-CA--N-[C] |==|  0.14929
USER: genes 34 Torsion [N]-C--CA-[N] |==|  0.69702
USER: genes 35 Torsion [C]-CA--CB-[OG1] |==|  0.54491
USER: genes 36 Torsion [CA]-CB--OG1-[HG1] |==|  0.53006
ROOT
ATOM      1  CA  ARG F 167       0.925  20.654  40.298  1.00 38.85 LIG 0.18  C 
ENDROOT
BRANCH 1 2
ATOM      2  C   ARG F 167       0.082  20.032  39.199  1.00 41.97 LIG 0.24  C 
ATOM      3  N   LYS F 168      -1.064  19.475  39.594  1.00 42.42 LIG-0.35  N 
ATOM      4 H    LYS F 168      -1.305  19.377  40.414  1.00 42.42 LIG 0.16  HD
ATOM      5 O    ARG F 167       0.461  20.042  38.025  1.00 34.60 LIG-0.27  OA
BRANCH 3 6
ATOM      6  CA  LYS F 168      -2.013  18.979  38.606  1.00 39.35 LIG 0.18  C 
BRANCH 6 7
ATOM      7  CB  LYS F 168      -2.569  17.615  39.020  1.00 43.51 LIG 0.04  C 
BRANCH 7 8
ATOM      8  CG  LYS F 168      -3.163  17.577  40.415  1.00 39.69 LIG 0.00  C 
BRANCH 8 9
ATOM      9  CD  LYS F 168      -4.662  17.293  40.394  1.00 48.24 LIG 0.03  C 
BRANCH 9 10
ATOM     10  CE  LYS F 168      -5.335  17.682  41.713  1.00 54.37 LIG 0.23  C 
BRANCH 10 11
ATOM     11  NZ  LYS F 168      -4.699  17.062  42.919  1.00 52.23 LIG-0.08  N 
ATOM     12 HZ3  LYS F 168      -5.247  16.451  43.263  1.00 52.23 LIG 0.27  HD
ATOM     13 HZ1  LYS F 168      -3.933  16.675  42.686  1.00 52.23 LIG 0.27  HD
ATOM     14 HZ2  LYS F 168      -4.539  17.692  43.528  1.00 52.23 LIG 0.27  HD
ENDBRANCH 10 11
ENDBRANCH 9 10
ENDBRANCH 8 9
ENDBRANCH 7 8
ENDBRANCH 6 7
BRANCH 6 15
ATOM     15  C   LYS F 168      -3.148  19.982  38.436  1.00 30.99 LIG 0.24  C 
ATOM     16 O    LYS F 168      -3.625  20.577  39.409  1.00 32.09 LIG-0.27  OA
ATOM     17  N   ARG F 169      -3.555  20.199  37.188  1.00 23.74 LIG-0.35  N 
ATOM     18 H    ARG F 169      -3.213  19.829  36.490  1.00 23.74 LIG 0.16  HD
BRANCH 17 19
ATOM     19  CA  ARG F 169      -4.653  21.117  36.925  1.00 28.77 LIG 0.18  C 
BRANCH 19 20
ATOM     20  C   ARG F 169      -5.963  20.345  36.812  1.00 37.10 LIG 0.24  C 
ATOM     21  N   SER F 170      -5.849  19.095  36.368  1.00 32.48 LIG-0.34  N 
ATOM     22 H    SER F 170      -5.095  18.691  36.279  1.00 32.48 LIG 0.16  HD
ATOM     23 O    ARG F 169      -7.051  20.872  37.085  1.00 33.53 LIG-0.27  OA
BRANCH 21 24
ATOM     24  CA  SER F 170      -7.004  18.281  35.987  1.00 32.11 LIG 0.19  C 
BRANCH 24 25
ATOM     25  C   SER F 170      -6.723  16.775  36.068  1.00 36.47 LIG 0.22  C 
ATOM     26 O    SER F 170      -5.851  16.331  36.815  1.00 35.83 LIG-0.29  OA
ENDBRANCH 24 25
BRANCH 24 27
ATOM     27  CB  SER F 170      -7.455  18.656  34.572  1.00 36.26 LIG 0.20  C 
BRANCH 27 28
ATOM     28 OG   SER F 170      -6.462  19.436  33.917  1.00 19.66 LIG-0.40  OA
ATOM     29 HG   SER F 170      -6.284  19.095  33.170  1.00 19.66 LIG 0.21  HD
ENDBRANCH 27 28
ENDBRANCH 24 27
ENDBRANCH 21 24
ENDBRANCH 19 20
BRANCH 19 30
ATOM     30  CB  ARG F 169      -4.381  21.944  35.660  1.00 32.99 LIG 0.04  C 
BRANCH 30 31
ATOM     31  CG  ARG F 169      -4.680  23.433  35.733  1.00 34.51 LIG 0.02  C 
BRANCH 31 32
ATOM     32  CD  ARG F 169      -6.192  23.634  35.949  1.00 39.71 LIG 0.14  C 
BRANCH 32 33
ATOM     33  NE  ARG F 169      -6.848  23.980  34.689  1.00 37.23 LIG-0.23  N 
ATOM     34  CZ  ARG F 169      -7.330  23.110  33.803  1.00 33.71 LIG 0.67  C 
ATOM     35  NH2 ARG F 169      -7.905  23.576  32.701  1.00 35.73 LIG-0.23  N 
ATOM     36  NH1 ARG F 169      -7.242  21.791  34.007  1.00 22.18 LIG-0.23  N 
ATOM     37 2HH2 ARG F 169      -8.223  23.029  32.118  1.00 35.73 LIG 0.17  HD
ATOM     38 1HH2 ARG F 169      -7.961  24.424  32.571  1.00 35.73 LIG 0.17  HD
ATOM     39 1HH1 ARG F 169      -6.870  21.490  34.722  1.00 22.18 LIG 0.17  HD
ATOM     40 2HH1 ARG F 169      -7.559  21.244  33.424  1.00 22.18 LIG 0.17  HD
ATOM     41 HE   ARG F 169      -6.929  24.816  34.503  1.00 37.23 LIG 0.18  HD
ENDBRANCH 32 33
ENDBRANCH 31 32
ENDBRANCH 30 31
ENDBRANCH 19 30
ENDBRANCH 17 19
ENDBRANCH 6 15
ENDBRANCH 3 6
ENDBRANCH 1 2
BRANCH 1 42
ATOM     42  CB  ARG F 167       0.574  22.139  40.450  1.00 34.27 LIG 0.04  C 
BRANCH 42 43
ATOM     43  CG  ARG F 167      -0.888  22.439  40.183  1.00 36.76 LIG 0.02  C 
BRANCH 43 44
ATOM     44  CD  ARG F 167      -1.595  22.797  41.460  1.00 47.53 LIG 0.14  C 
BRANCH 44 45
ATOM     45  NE  ARG F 167      -2.523  21.747  41.858  1.00 46.15 LIG-0.23  N 
ATOM     46 HE   ARG F 167      -2.214  20.953  41.975  1.00 46.15 LIG 0.18  HD
ATOM     47  CZ  ARG F 167      -3.818  21.953  42.050  1.00 54.25 LIG 0.67  C 
ATOM     48  NH2 ARG F 167      -4.610  20.950  42.419  1.00 44.38 LIG-0.23  N 
ATOM     49  NH1 ARG F 167      -4.317  23.171  41.867  1.00 45.80 LIG-0.23  N 
ATOM     50 1HH2 ARG F 167      -4.282  20.164  42.534  1.00 44.38 LIG 0.17  HD
ATOM     51 2HH2 ARG F 167      -5.450  21.088  42.542  1.00 44.38 LIG 0.17  HD
ATOM     52 2HH1 ARG F 167      -5.155  23.315  41.989  1.00 45.80 LIG 0.17  HD
ATOM     53 1HH1 ARG F 167      -3.800  23.816  41.626  1.00 45.80 LIG 0.17  HD
ENDBRANCH 44 45
ENDBRANCH 43 44
ENDBRANCH 42 43
ENDBRANCH 1 42
BRANCH 1 54
ATOM     54  N   ARG F 167       2.330  20.461  39.970  1.00 32.00 LIG-0.35  N 
ATOM     55 H    ARG F 167       2.761  21.194  39.840  1.00 32.00 LIG 0.16  HD
ATOM     56  C   GLN F 166       2.888  19.255  39.882  1.00 42.00 LIG 0.24  C 
ATOM     57 O    GLN F 166       2.296  18.205  40.153  1.00 37.97 LIG-0.27  OA
BRANCH 56 58
ATOM     58  CA  GLN F 166       4.338  19.243  39.429  1.00 41.36 LIG 0.18  C 
BRANCH 58 59
ATOM     59  CB  GLN F 166       4.391  19.400  37.905  1.00 34.92 LIG 0.04  C 
BRANCH 59 60
ATOM     60  CG  GLN F 166       5.545  18.701  37.231  1.00 32.73 LIG 0.10  C 
BRANCH 60 61
ATOM     61  CD  GLN F 166       6.868  19.377  37.534  1.00 43.28 LIG 0.21  C 
ATOM     62  NE2 GLN F 166       6.902  20.700  37.414  1.00 36.91 LIG-0.37  N 
ATOM     63 21HE GLN F 166       6.194  21.129  37.178  1.00 36.91 LIG 0.16  HD
ATOM     64 22HE GLN F 166       7.631  21.128  37.573  1.00 36.91 LIG 0.16  HD
ATOM     65 OE1  GLN F 166       7.854  18.713  37.870  1.00 42.55 LIG-0.27  OA
ENDBRANCH 60 61
ENDBRANCH 59 60
ENDBRANCH 58 59
BRANCH 58 66
ATOM     66  N   GLN F 166       4.966  18.011  39.883  1.00 35.11 LIG-0.35  N 
ATOM     67  C   THR F 165       5.331  17.824  41.147  1.00 35.16 LIG 0.24  C 
ATOM     68 O    THR F 165       5.229  18.712  42.004  1.00 30.91 LIG-0.27  OA
ATOM     69 H    GLN F 166       5.076  17.424  39.263  1.00 35.11 LIG 0.16  HD
BRANCH 67 70
ATOM     70  CA  THR F 165       5.894  16.464  41.536  1.00 44.00 LIG 0.20  C 
BRANCH 70 71
ATOM     71  CB  THR F 165       6.491  16.531  42.947  1.00 46.85 LIG 0.15  C 
ATOM     72  CG2 THR F 165       5.461  16.080  43.984  1.00 37.95 LIG 0.04  C 
BRANCH 71 73
ATOM     73 OG1  THR F 165       7.658  15.701  43.014  1.00 45.14 LIG-0.39  OA
ATOM     74 HG1  THR F 165       8.334  16.149  42.793  1.00 45.14 LIG 0.21  HD
ENDBRANCH 71 73
ENDBRANCH 70 71
BRANCH 70 75
ATOM     75  N   THR F 165       6.887  15.982  40.583  1.00 38.01 LIG-0.34  N 
ATOM     76 H    THR F 165       6.725  15.196  40.273  1.00 38.01 LIG 0.16  HD
ATOM     77  C   THR F 164       7.948  16.711  40.233  1.00 57.69 LIG 0.26  C 
ATOM     78 O    THR F 164       8.164  17.839  40.688  1.00 49.67 LIG-0.27  OA
BRANCH 77 79
ATOM     79  CA  THR F 164       8.907  16.070  39.226  1.00 56.73 LIG 0.43  C 
ATOM     80  N   THR F 164      10.165  15.700  39.869  1.00 65.32 LIG 0.62  N 
BRANCH 79 81
ATOM     81  CB  THR F 164       8.226  14.845  38.560  1.00 58.05 LIG 0.16  C 
ATOM     82  CG2 THR F 164       7.197  15.305  37.529  1.00 51.52 LIG 0.04  C 
BRANCH 81 83
ATOM     83 OG1  THR F 164       9.210  14.025  37.914  1.00 58.15 LIG-0.39  OA
ATOM     84 HG1  THR F 164       8.826  13.451  37.435  1.00 58.15 LIG 0.21  HD
ENDBRANCH 81 83
ENDBRANCH 79 81
ENDBRANCH 77 79
ENDBRANCH 70 75
ENDBRANCH 67 70
ENDBRANCH 58 66
ENDBRANCH 56 58
ENDBRANCH 1 54
TORSDOF 35
ENDMDL
MODEL 29
USER: ADFR SOLUTION from run 38
USER: SCORE 26.236481 LL:  -4.932 LR: -22.635 RR:   0.000 FEB: -12.194
USER: RMSD 10.533836
USER: SEED 37
USER: STATUS searching
USER: GENES 37
USER: genes 0 Translation |==|  0.41691 0.54120 0.52460
USER: genes 1 Rotation |==|  0.42949 0.76395 0.90465 0.60778
USER: genes 2 Torsion [N]-CA--C-[N] |==|  0.44818
USER: genes 3 Torsion [C]-N--CA-[C] |==|  0.62227
USER: genes 4 Torsion [N]-CA--CB-[CG] |==|  0.91240
USER: genes 5 Torsion [CA]-CB--CG-[CD] |==|  0.29640
USER: genes 6 Torsion [CB]-CG--CD-[CE] |==|  0.68335
USER: genes 7 Torsion [CG]-CD--CE-[NZ] |==|  0.29180
USER: genes 8 Torsion [CD]-CE--NZ-[HZ3] |==|  0.32493
USER: genes 9 Torsion [N]-CA--C-[N] |==|  0.06822
USER: genes 10 Torsion [C]-N--CA-[C] |==|  0.18851
USER: genes 11 Torsion [N]-CA--C-[N] |==|  0.02701
USER: genes 12 Torsion [C]-N--CA-[C] |==|  0.81813
USER: genes 13 Torsion [N]-CA--C-[O] |==|  0.77882
USER: genes 14 Torsion [N]-CA--CB-[OG] |==|  0.94462
USER: genes 15 Torsion [CA]-CB--OG-[HG] |==|  0.11692
USER: genes 16 Torsion [N]-CA--CB-[CG] |==|  0.32660
USER: genes 17 Torsion [CA]-CB--CG-[CD] |==|  0.45462
USER: genes 18 Torsion [CB]-CG--CD-[NE] |==|  0.62727
USER: genes 19 Torsion [CG]-CD--NE-[CZ] |==|  0.18010
USER: genes 20 Torsion [C]-CA--CB-[CG] |==|  0.45905
USER: genes 21 Torsion [CA]-CB--CG-[CD] |==|  0.87752
USER: genes 22 Torsion [CB]-CG--CD-[NE] |==|  0.46522
USER: genes 23 Torsion [CG]-CD--NE-[CZ] |==|  0.49684
USER: genes 24 Torsion [C]-CA--N-[C] |==|  0.79713
USER: genes 25 Torsion [N]-C--CA-[N] |==|  0.64209
USER: genes 26 Torsion [C]-CA--CB-[CG] |==|  0.40504
USER: genes 27 Torsion [CA]-CB--CG-[CD] |==|  0.21652
USER: genes 28 Torsion [CB]-CG--CD-[NE2] |==|  0.17132
USER: genes 29 Torsion [C]-CA--N-[C] |==|  0.17596
USER: genes 30 Torsion [N]-C--CA-[N] |==|  0.93250
USER: genes 31 Torsion [C]-CA--CB-[CG2] |==|  0.19523
USER: genes 32 Torsion [CA]-CB--OG1-[HG1] |==|  0.12129
USER: genes 33 Torsion [C]-CA--N-[C] |==|  0.82137
USER: genes 34 Torsion [N]-C--CA-[N] |==|  0.22756
USER: genes 35 Torsion [C]-CA--CB-[OG1] |==|  0.87552
USER: genes 36 Torsion [CA]-CB--OG1-[HG1] |==|  0.88783
ROOT
ATOM      1  CA  ARG F 167      -3.267  19.094  39.144  1.00 38.85 LIG 0.18  C 
ENDROOT
BRANCH 1 2
ATOM      2  C   ARG F 167      -2.082  19.857  38.579  1.00 41.97 LIG 0.24  C 
ATOM      3  N   LYS F 168      -1.102  20.128  39.443  1.00 42.42 LIG-0.35  N 
ATOM      4 H    LYS F 168      -1.138  19.975  40.288  1.00 42.42 LIG 0.16  HD
ATOM      5 O    ARG F 167      -2.057  20.205  37.395  1.00 34.60 LIG-0.27  OA
BRANCH 3 6
ATOM      6  CA  LYS F 168       0.140  20.726  38.973  1.00 39.35 LIG 0.18  C 
BRANCH 6 7
ATOM      7  CB  LYS F 168       0.175  22.224  39.282  1.00 43.51 LIG 0.04  C 
BRANCH 7 8
ATOM      8  CG  LYS F 168      -1.183  22.899  39.267  1.00 39.69 LIG 0.00  C 
BRANCH 8 9
ATOM      9  CD  LYS F 168      -1.671  23.241  40.672  1.00 48.24 LIG 0.03  C 
BRANCH 9 10
ATOM     10  CE  LYS F 168      -2.914  22.434  41.057  1.00 54.37 LIG 0.23  C 
BRANCH 10 11
ATOM     11  NZ  LYS F 168      -2.635  21.326  42.027  1.00 52.23 LIG-0.08  N 
ATOM     12 HZ3  LYS F 168      -3.075  21.478  42.786  1.00 52.23 LIG 0.27  HD
ATOM     13 HZ1  LYS F 168      -2.903  20.552  41.678  1.00 52.23 LIG 0.27  HD
ATOM     14 HZ2  LYS F 168      -1.762  21.289  42.193  1.00 52.23 LIG 0.27  HD
ENDBRANCH 10 11
ENDBRANCH 9 10
ENDBRANCH 8 9
ENDBRANCH 7 8
ENDBRANCH 6 7
BRANCH 6 15
ATOM     15  C   LYS F 168       1.326  20.024  39.625  1.00 30.99 LIG 0.24  C 
ATOM     16 O    LYS F 168       2.404  20.608  39.785  1.00 32.09 LIG-0.27  OA
ATOM     17  N   ARG F 169       1.114  18.777  40.037  1.00 23.74 LIG-0.35  N 
ATOM     18 H    ARG F 169       0.363  18.362  39.975  1.00 23.74 LIG 0.16  HD
BRANCH 17 19
ATOM     19  CA  ARG F 169       2.193  18.013  40.645  1.00 28.77 LIG 0.18  C 
BRANCH 19 20
ATOM     20  C   ARG F 169       2.562  18.616  41.997  1.00 37.10 LIG 0.24  C 
ATOM     21  N   SER F 170       1.730  19.554  42.447  1.00 32.48 LIG-0.34  N 
ATOM     22 H    SER F 170       0.968  19.722  42.086  1.00 32.48 LIG 0.16  HD
ATOM     23 O    ARG F 169       3.585  18.269  42.602  1.00 33.53 LIG-0.27  OA
BRANCH 21 24
ATOM     24  CA  SER F 170       2.036  20.394  43.606  1.00 32.11 LIG 0.19  C 
BRANCH 24 25
ATOM     25  C   SER F 170       2.118  19.595  44.913  1.00 36.47 LIG 0.22  C 
ATOM     26 O    SER F 170       1.099  19.257  45.516  1.00 35.83 LIG-0.29  OA
ENDBRANCH 24 25
BRANCH 24 27
ATOM     27  CB  SER F 170       0.985  21.502  43.731  1.00 36.26 LIG 0.20  C 
BRANCH 27 28
ATOM     28 OG   SER F 170       0.308  21.697  42.495  1.00 19.66 LIG-0.40  OA
ATOM     29 HG   SER F 170       0.137  20.952  42.148  1.00 19.66 LIG 0.21  HD
ENDBRANCH 27 28
ENDBRANCH 24 27
ENDBRANCH 21 24
ENDBRANCH 19 20
BRANCH 19 30
ATOM     30  CB  ARG F 169       3.409  17.951  39.711  1.00 32.99 LIG 0.04  C 
BRANCH 30 31
ATOM     31  CG  ARG F 169       4.696  18.586  40.213  1.00 34.51 LIG 0.02  C 
BRANCH 31 32
ATOM     32  CD  ARG F 169       5.875  18.080  39.360  1.00 39.71 LIG 0.14  C 
BRANCH 32 33
ATOM     33  NE  ARG F 169       6.996  17.692  40.215  1.00 37.23 LIG-0.23  N 
ATOM     34  CZ  ARG F 169       6.991  16.690  41.092  1.00 33.71 LIG 0.67  C 
ATOM     35  NH2 ARG F 169       8.090  16.454  41.797  1.00 35.73 LIG-0.23  N 
ATOM     36  NH1 ARG F 169       5.905  15.928  41.268  1.00 22.18 LIG-0.23  N 
ATOM     37 2HH2 ARG F 169       8.106  15.811  42.367  1.00 35.73 LIG 0.17  HD
ATOM     38 1HH2 ARG F 169       8.788  16.944  41.682  1.00 35.73 LIG 0.17  HD
ATOM     39 1HH1 ARG F 169       5.193  16.082  40.811  1.00 22.18 LIG 0.17  HD
ATOM     40 2HH1 ARG F 169       5.919  15.285  41.839  1.00 22.18 LIG 0.17  HD
ATOM     41 HE   ARG F 169       7.721  18.150  40.146  1.00 37.23 LIG 0.18  HD
ENDBRANCH 32 33
ENDBRANCH 31 32
ENDBRANCH 30 31
ENDBRANCH 19 30
ENDBRANCH 17 19
ENDBRANCH 6 15
ENDBRANCH 3 6
ENDBRANCH 1 2
BRANCH 1 42
ATOM     42  CB  ARG F 167      -2.900  17.616  39.325  1.00 34.27 LIG 0.04  C 
BRANCH 42 43
ATOM     43  CG  ARG F 167      -3.879  16.859  40.199  1.00 36.76 LIG 0.02  C 
BRANCH 43 44
ATOM     44  CD  ARG F 167      -4.235  17.667  41.416  1.00 47.53 LIG 0.14  C 
BRANCH 44 45
ATOM     45  NE  ARG F 167      -5.381  17.096  42.109  1.00 46.15 LIG-0.23  N 
ATOM     46 HE   ARG F 167      -5.749  16.393  41.777  1.00 46.15 LIG 0.18  HD
ATOM     47  CZ  ARG F 167      -5.886  17.603  43.225  1.00 54.25 LIG 0.67  C 
ATOM     48  NH2 ARG F 167      -6.932  17.029  43.811  1.00 44.38 LIG-0.23  N 
ATOM     49  NH1 ARG F 167      -5.336  18.694  43.749  1.00 45.80 LIG-0.23  N 
ATOM     50 1HH2 ARG F 167      -7.285  16.325  43.466  1.00 44.38 LIG 0.17  HD
ATOM     51 2HH2 ARG F 167      -7.256  17.362  44.535  1.00 44.38 LIG 0.17  HD
ATOM     52 2HH1 ARG F 167      -5.655  19.031  44.473  1.00 45.80 LIG 0.17  HD
ATOM     53 1HH1 ARG F 167      -4.661  19.063  43.365  1.00 45.80 LIG 0.17  HD
ENDBRANCH 44 45
ENDBRANCH 43 44
ENDBRANCH 42 43
ENDBRANCH 1 42
BRANCH 1 54
ATOM     54  N   ARG F 167      -4.399  19.265  38.246  1.00 32.00 LIG-0.35  N 
ATOM     55 H    ARG F 167      -4.588  18.563  37.785  1.00 32.00 LIG 0.16  HD
ATOM     56  C   GLN F 166      -5.076  20.408  38.151  1.00 42.00 LIG 0.24  C 
ATOM     57 O    GLN F 166      -4.866  21.389  38.871  1.00 37.97 LIG-0.27  OA
BRANCH 56 58
ATOM     58  CA  GLN F 166      -6.161  20.433  37.088  1.00 41.36 LIG 0.18  C 
BRANCH 58 59
ATOM     59  CB  GLN F 166      -6.100  19.134  36.276  1.00 34.92 LIG 0.04  C 
BRANCH 59 60
ATOM     60  CG  GLN F 166      -7.434  18.616  35.799  1.00 32.73 LIG 0.10  C 
BRANCH 60 61
ATOM     61  CD  GLN F 166      -7.936  19.382  34.590  1.00 43.28 LIG 0.21  C 
ATOM     62  NE2 GLN F 166      -7.183  19.328  33.496  1.00 36.91 LIG-0.37  N 
ATOM     63 21HE GLN F 166      -6.453  18.873  33.499  1.00 36.91 LIG 0.16  HD
ATOM     64 22HE GLN F 166      -7.425  19.748  32.786  1.00 36.91 LIG 0.16  HD
ATOM     65 OE1  GLN F 166      -8.992  20.020  34.640  1.00 42.55 LIG-0.27  OA
ENDBRANCH 60 61
ENDBRANCH 59 60
ENDBRANCH 58 59
BRANCH 58 66
ATOM     66  N   GLN F 166      -5.983  21.615  36.258  1.00 35.11 LIG-0.35  N 
ATOM     67  C   THR F 165      -4.900  21.800  35.509  1.00 35.16 LIG 0.24  C 
ATOM     68 O    THR F 165      -3.942  21.016  35.526  1.00 30.91 LIG-0.27  OA
ATOM     69 H    GLN F 166      -6.635  22.174  36.298  1.00 35.11 LIG 0.16  HD
BRANCH 67 70
ATOM     70  CA  THR F 165      -4.854  23.026  34.606  1.00 44.00 LIG 0.20  C 
BRANCH 70 71
ATOM     71  CB  THR F 165      -4.031  24.133  35.274  1.00 46.85 LIG 0.15  C 
ATOM     72  CG2 THR F 165      -2.548  23.756  35.298  1.00 37.95 LIG 0.04  C 
BRANCH 71 73
ATOM     73 OG1  THR F 165      -4.217  25.364  34.562  1.00 45.14 LIG-0.39  OA
ATOM     74 HG1  THR F 165      -5.031  25.462  34.379  1.00 45.14 LIG 0.21  HD
ENDBRANCH 71 73
ENDBRANCH 70 71
BRANCH 70 75
ATOM     75  N   THR F 165      -6.185  23.513  34.265  1.00 38.01 LIG-0.34  N 
ATOM     76 H    THR F 165      -6.361  24.298  34.566  1.00 38.01 LIG 0.16  HD
ATOM     77  C   THR F 164      -7.043  22.788  33.545  1.00 57.69 LIG 0.26  C 
ATOM     78 O    THR F 164      -6.774  21.660  33.119  1.00 49.67 LIG-0.27  OA
BRANCH 77 79
ATOM     79  CA  THR F 164      -8.408  23.429  33.271  1.00 56.73 LIG 0.43  C 
ATOM     80  N   THR F 164      -8.330  24.352  32.142  1.00 65.32 LIG 0.62  N 
BRANCH 79 81
ATOM     81  CB  THR F 164      -9.468  22.321  33.031  1.00 58.05 LIG 0.16  C 
ATOM     82  CG2 THR F 164     -10.730  22.919  32.412  1.00 51.52 LIG 0.04  C 
BRANCH 81 83
ATOM     83 OG1  THR F 164      -8.940  21.316  32.154  1.00 58.15 LIG-0.39  OA
ATOM     84 HG1  THR F 164      -8.496  21.683  31.542  1.00 58.15 LIG 0.21  HD
ENDBRANCH 81 83
ENDBRANCH 79 81
ENDBRANCH 77 79
ENDBRANCH 70 75
ENDBRANCH 67 70
ENDBRANCH 58 66
ENDBRANCH 56 58
ENDBRANCH 1 54
TORSDOF 35
ENDMDL
MODEL 30
USER: ADFR SOLUTION from run 71
USER: SCORE 26.710418 LL:  -4.846 LR: -22.613 RR:   0.000 FEB: -12.172
USER: RMSD 9.460829
USER: SEED 70
USER: STATUS 1 or 2 clusters left
USER: GENES 37
USER: genes 0 Translation |==|  0.47901 0.55967 0.50608
USER: genes 1 Rotation |==|  0.97984 0.57196 0.61885 0.47872
USER: genes 2 Torsion [N]-CA--C-[N] |==|  0.28889
USER: genes 3 Torsion [C]-N--CA-[C] |==|  0.18082
USER: genes 4 Torsion [N]-CA--CB-[CG] |==|  0.52056
USER: genes 5 Torsion [CA]-CB--CG-[CD] |==|  0.38286
USER: genes 6 Torsion [CB]-CG--CD-[CE] |==|  0.40066
USER: genes 7 Torsion [CG]-CD--CE-[NZ] |==|  0.21267
USER: genes 8 Torsion [CD]-CE--NZ-[HZ3] |==|  0.92910
USER: genes 9 Torsion [N]-CA--C-[N] |==|  0.08104
USER: genes 10 Torsion [C]-N--CA-[C] |==|  0.68391
USER: genes 11 Torsion [N]-CA--C-[N] |==|  0.94647
USER: genes 12 Torsion [C]-N--CA-[C] |==|  0.07063
USER: genes 13 Torsion [N]-CA--C-[O] |==|  0.70156
USER: genes 14 Torsion [N]-CA--CB-[OG] |==|  0.72899
USER: genes 15 Torsion [CA]-CB--OG-[HG] |==|  0.97234
USER: genes 16 Torsion [N]-CA--CB-[CG] |==|  0.93323
USER: genes 17 Torsion [CA]-CB--CG-[CD] |==|  0.77085
USER: genes 18 Torsion [CB]-CG--CD-[NE] |==|  0.61959
USER: genes 19 Torsion [CG]-CD--NE-[CZ] |==|  0.80865
USER: genes 20 Torsion [C]-CA--CB-[CG] |==|  0.08348
USER: genes 21 Torsion [CA]-CB--CG-[CD] |==|  0.64269
USER: genes 22 Torsion [CB]-CG--CD-[NE] |==|  0.91253
USER: genes 23 Torsion [CG]-CD--NE-[CZ] |==|  0.73470
USER: genes 24 Torsion [C]-CA--N-[C] |==|  0.74028
USER: genes 25 Torsion [N]-C--CA-[N] |==|  0.39922
USER: genes 26 Torsion [C]-CA--CB-[CG] |==|  0.86237
USER: genes 27 Torsion [CA]-CB--CG-[CD] |==|  0.76358
USER: genes 28 Torsion [CB]-CG--CD-[NE2] |==|  0.42250
USER: genes 29 Torsion [C]-CA--N-[C] |==|  0.80583
USER: genes 30 Torsion [N]-C--CA-[N] |==|  0.47662
USER: genes 31 Torsion [C]-CA--CB-[CG2] |==|  0.24966
USER: genes 32 Torsion [CA]-CB--OG1-[HG1] |==|  0.04260
USER: genes 33 Torsion [C]-CA--N-[C] |==|  0.74274
USER: genes 34 Torsion [N]-C--CA-[N] |==|  0.41071
USER: genes 35 Torsion [C]-CA--CB-[OG1] |==|  0.33412
USER: genes 36 Torsion [CA]-CB--OG1-[HG1] |==|  0.65034
ROOT
ATOM      1  CA  ARG F 167      -1.731  19.607  38.782  1.00 38.85 LIG 0.18  C 
ENDROOT
BRANCH 1 2
ATOM      2  C   ARG F 167      -2.431  20.765  38.095  1.00 41.97 LIG 0.24  C 
ATOM      3  N   LYS F 168      -2.122  20.950  36.811  1.00 42.42 LIG-0.35  N 
ATOM      4 H    LYS F 168      -1.510  20.520  36.387  1.00 42.42 LIG 0.16  HD
ATOM      5 O    ARG F 167      -3.223  21.484  38.712  1.00 34.60 LIG-0.27  OA
BRANCH 3 6
ATOM      6  CA  LYS F 168      -2.843  21.939  36.021  1.00 39.35 LIG 0.18  C 
BRANCH 6 7
ATOM      7  CB  LYS F 168      -4.347  21.657  36.035  1.00 43.51 LIG 0.04  C 
BRANCH 7 8
ATOM      8  CG  LYS F 168      -5.156  22.532  35.097  1.00 39.69 LIG 0.00  C 
BRANCH 8 9
ATOM      9  CD  LYS F 168      -6.228  21.739  34.352  1.00 48.24 LIG 0.03  C 
BRANCH 9 10
ATOM     10  CE  LYS F 168      -7.503  22.559  34.144  1.00 54.37 LIG 0.23  C 
BRANCH 10 11
ATOM     11  NZ  LYS F 168      -7.393  23.576  33.049  1.00 52.23 LIG-0.08  N 
ATOM     12 HZ3  LYS F 168      -6.539  23.805  32.940  1.00 52.23 LIG 0.27  HD
ATOM     13 HZ1  LYS F 168      -7.706  23.232  32.291  1.00 52.23 LIG 0.27  HD
ATOM     14 HZ2  LYS F 168      -7.867  24.298  33.265  1.00 52.23 LIG 0.27  HD
ENDBRANCH 10 11
ENDBRANCH 9 10
ENDBRANCH 8 9
ENDBRANCH 7 8
ENDBRANCH 6 7
BRANCH 6 15
ATOM     15  C   LYS F 168      -2.562  23.335  36.566  1.00 30.99 LIG 0.24  C 
ATOM     16 O    LYS F 168      -3.410  24.231  36.491  1.00 32.09 LIG-0.27  OA
ATOM     17  N   ARG F 169      -1.379  23.507  37.151  1.00 23.74 LIG-0.35  N 
ATOM     18 H    ARG F 169      -0.789  22.890  37.251  1.00 23.74 LIG 0.16  HD
BRANCH 17 19
ATOM     19  CA  ARG F 169      -1.006  24.812  37.675  1.00 28.77 LIG 0.18  C 
BRANCH 19 20
ATOM     20  C   ARG F 169       0.164  25.380  36.878  1.00 37.10 LIG 0.24  C 
ATOM     21  N   SER F 170       0.861  24.487  36.178  1.00 32.48 LIG-0.34  N 
ATOM     22 H    SER F 170       0.606  23.674  36.062  1.00 32.48 LIG 0.16  HD
ATOM     23 O    ARG F 169       0.450  26.585  36.918  1.00 33.53 LIG-0.27  OA
BRANCH 21 24
ATOM     24  CA  SER F 170       2.137  24.806  35.535  1.00 32.11 LIG 0.19  C 
BRANCH 24 25
ATOM     25  C   SER F 170       2.871  25.968  36.216  1.00 36.47 LIG 0.22  C 
ATOM     26 O    SER F 170       2.942  27.075  35.681  1.00 35.83 LIG-0.29  OA
ENDBRANCH 24 25
BRANCH 24 27
ATOM     27  CB  SER F 170       1.903  25.126  34.055  1.00 36.26 LIG 0.20  C 
BRANCH 27 28
ATOM     28 OG   SER F 170       2.163  23.986  33.245  1.00 19.66 LIG-0.40  OA
ATOM     29 HG   SER F 170       2.527  23.389  33.710  1.00 19.66 LIG 0.21  HD
ENDBRANCH 27 28
ENDBRANCH 24 27
ENDBRANCH 21 24
ENDBRANCH 19 20
BRANCH 19 30
ATOM     30  CB  ARG F 169      -0.670  24.722  39.170  1.00 32.99 LIG 0.04  C 
BRANCH 30 31
ATOM     31  CG  ARG F 169      -1.285  23.568  39.946  1.00 34.51 LIG 0.02  C 
BRANCH 31 32
ATOM     32  CD  ARG F 169      -2.723  23.942  40.352  1.00 39.71 LIG 0.14  C 
BRANCH 32 33
ATOM     33  NE  ARG F 169      -2.985  23.544  41.735  1.00 37.23 LIG-0.23  N 
ATOM     34  CZ  ARG F 169      -3.085  22.290  42.174  1.00 33.71 LIG 0.67  C 
ATOM     35  NH2 ARG F 169      -3.321  22.084  43.463  1.00 35.73 LIG-0.23  N 
ATOM     36  NH1 ARG F 169      -2.953  21.251  41.341  1.00 22.18 LIG-0.23  N 
ATOM     37 2HH2 ARG F 169      -3.388  21.281  43.765  1.00 35.73 LIG 0.17  HD
ATOM     38 1HH2 ARG F 169      -3.405  22.753  43.997  1.00 35.73 LIG 0.17  HD
ATOM     39 1HH1 ARG F 169      -2.799  21.386  40.506  1.00 22.18 LIG 0.17  HD
ATOM     40 2HH1 ARG F 169      -3.021  20.448  41.642  1.00 22.18 LIG 0.17  HD
ATOM     41 HE   ARG F 169      -3.082  24.172  42.314  1.00 37.23 LIG 0.18  HD
ENDBRANCH 32 33
ENDBRANCH 31 32
ENDBRANCH 30 31
ENDBRANCH 19 30
ENDBRANCH 17 19
ENDBRANCH 6 15
ENDBRANCH 3 6
ENDBRANCH 1 2
BRANCH 1 42
ATOM     42  CB  ARG F 167      -2.747  18.780  39.580  1.00 34.27 LIG 0.04  C 
BRANCH 42 43
ATOM     43  CG  ARG F 167      -4.138  18.799  38.979  1.00 36.76 LIG 0.02  C 
BRANCH 43 44
ATOM     44  CD  ARG F 167      -5.157  19.171  40.020  1.00 47.53 LIG 0.14  C 
BRANCH 44 45
ATOM     45  NE  ARG F 167      -4.753  18.707  41.340  1.00 46.15 LIG-0.23  N 
ATOM     46 HE   ARG F 167      -4.220  19.201  41.800  1.00 46.15 LIG 0.18  HD
ATOM     47  CZ  ARG F 167      -5.164  17.563  41.869  1.00 54.25 LIG 0.67  C 
ATOM     48  NH2 ARG F 167      -4.760  17.200  43.083  1.00 44.38 LIG-0.23  N 
ATOM     49  NH1 ARG F 167      -5.981  16.781  41.170  1.00 45.80 LIG-0.23  N 
ATOM     50 1HH2 ARG F 167      -4.230  17.709  43.528  1.00 44.38 LIG 0.17  HD
ATOM     51 2HH2 ARG F 167      -5.030  16.457  43.421  1.00 44.38 LIG 0.17  HD
ATOM     52 2HH1 ARG F 167      -6.254  16.037  41.503  1.00 45.80 LIG 0.17  HD
ATOM     53 1HH1 ARG F 167      -6.237  17.019  40.384  1.00 45.80 LIG 0.17  HD
ENDBRANCH 44 45
ENDBRANCH 43 44
ENDBRANCH 42 43
ENDBRANCH 1 42
BRANCH 1 54
ATOM     54  N   ARG F 167      -0.679  20.140  39.634  1.00 32.00 LIG-0.35  N 
ATOM     55 H    ARG F 167      -0.945  20.360  40.422  1.00 32.00 LIG 0.16  HD
ATOM     56  C   GLN F 166       0.581  20.273  39.223  1.00 42.00 LIG 0.24  C 
ATOM     57 O    GLN F 166       0.988  19.879  38.125  1.00 37.97 LIG-0.27  OA
BRANCH 56 58
ATOM     58  CA  GLN F 166       1.519  20.943  40.212  1.00 41.36 LIG 0.18  C 
BRANCH 58 59
ATOM     59  CB  GLN F 166       1.569  22.447  39.920  1.00 34.92 LIG 0.04  C 
BRANCH 59 60
ATOM     60  CG  GLN F 166       1.816  22.809  38.477  1.00 32.73 LIG 0.10  C 
BRANCH 60 61
ATOM     61  CD  GLN F 166       3.296  22.828  38.146  1.00 43.28 LIG 0.21  C 
ATOM     62  NE2 GLN F 166       3.628  22.564  36.886  1.00 36.91 LIG-0.37  N 
ATOM     63 21HE GLN F 166       3.015  22.397  36.306  1.00 36.91 LIG 0.16  HD
ATOM     64 22HE GLN F 166       4.455  22.561  36.651  1.00 36.91 LIG 0.16  HD
ATOM     65 OE1  GLN F 166       4.135  23.075  39.018  1.00 42.55 LIG-0.27  OA
ENDBRANCH 60 61
ENDBRANCH 59 60
ENDBRANCH 58 59
BRANCH 58 66
ATOM     66  N   GLN F 166       2.830  20.316  40.121  1.00 35.11 LIG-0.35  N 
ATOM     67  C   THR F 165       3.054  19.076  40.542  1.00 35.16 LIG 0.24  C 
ATOM     68 O    THR F 165       2.183  18.401  41.106  1.00 30.91 LIG-0.27  OA
ATOM     69 H    GLN F 166       3.436  20.818  39.774  1.00 35.11 LIG 0.16  HD
BRANCH 67 70
ATOM     70  CA  THR F 165       4.438  18.482  40.317  1.00 44.00 LIG 0.20  C 
BRANCH 70 71
ATOM     71  CB  THR F 165       4.703  18.335  38.814  1.00 46.85 LIG 0.15  C 
ATOM     72  CG2 THR F 165       5.354  19.604  38.261  1.00 37.95 LIG 0.04  C 
BRANCH 71 73
ATOM     73 OG1  THR F 165       5.552  17.202  38.586  1.00 45.14 LIG-0.39  OA
ATOM     74 HG1  THR F 165       5.570  16.721  39.274  1.00 45.14 LIG 0.21  HD
ENDBRANCH 71 73
ENDBRANCH 70 71
BRANCH 70 75
ATOM     75  N   THR F 165       4.609  17.202  40.995  1.00 38.01 LIG-0.34  N 
ATOM     76 H    THR F 165       4.353  16.523  40.533  1.00 38.01 LIG 0.16  HD
ATOM     77  C   THR F 164       5.119  17.111  42.223  1.00 57.69 LIG 0.26  C 
ATOM     78 O    THR F 164       5.483  18.098  42.871  1.00 49.67 LIG-0.27  OA
BRANCH 77 79
ATOM     79  CA  THR F 164       5.232  15.700  42.808  1.00 56.73 LIG 0.43  C 
ATOM     80  N   THR F 164       6.388  15.595  43.694  1.00 65.32 LIG 0.62  N 
BRANCH 79 81
ATOM     81  CB  THR F 164       3.915  15.330  43.542  1.00 58.05 LIG 0.16  C 
ATOM     82  CG2 THR F 164       2.921  16.488  43.465  1.00 51.52 LIG 0.04  C 
BRANCH 81 83
ATOM     83 OG1  THR F 164       3.330  14.163  42.948  1.00 58.15 LIG-0.39  OA
ATOM     84 HG1  THR F 164       2.536  14.328  42.730  1.00 58.15 LIG 0.21  HD
ENDBRANCH 81 83
ENDBRANCH 79 81
ENDBRANCH 77 79
ENDBRANCH 70 75
ENDBRANCH 67 70
ENDBRANCH 58 66
ENDBRANCH 56 58
ENDBRANCH 1 54
TORSDOF 35
ENDMDL
MODEL 31
USER: ADFR SOLUTION from run 116
USER: SCORE 26.793893 LL:  -4.347 LR: -22.615 RR:   0.000 FEB: -12.174
USER: RMSD 9.017687
USER: SEED 115
USER: STATUS searching
USER: GENES 37
USER: genes 0 Translation |==|  0.59975 0.60187 0.58709
USER: genes 1 Rotation |==|  0.84667 0.46048 0.42936 0.85110
USER: genes 2 Torsion [N]-CA--C-[N] |==|  0.41930
USER: genes 3 Torsion [C]-N--CA-[C] |==|  0.79067
USER: genes 4 Torsion [N]-CA--CB-[CG] |==|  0.93404
USER: genes 5 Torsion [CA]-CB--CG-[CD] |==|  0.53630
USER: genes 6 Torsion [CB]-CG--CD-[CE] |==|  0.74579
USER: genes 7 Torsion [CG]-CD--CE-[NZ] |==|  0.61056
USER: genes 8 Torsion [CD]-CE--NZ-[HZ3] |==|  0.49019
USER: genes 9 Torsion [N]-CA--C-[N] |==|  0.35617
USER: genes 10 Torsion [C]-N--CA-[C] |==|  0.79270
USER: genes 11 Torsion [N]-CA--C-[N] |==|  0.93458
USER: genes 12 Torsion [C]-N--CA-[C] |==|  0.53417
USER: genes 13 Torsion [N]-CA--C-[O] |==|  0.38216
USER: genes 14 Torsion [N]-CA--CB-[OG] |==|  0.09473
USER: genes 15 Torsion [CA]-CB--OG-[HG] |==|  0.57335
USER: genes 16 Torsion [N]-CA--CB-[CG] |==|  0.64623
USER: genes 17 Torsion [CA]-CB--CG-[CD] |==|  0.68804
USER: genes 18 Torsion [CB]-CG--CD-[NE] |==|  0.57851
USER: genes 19 Torsion [CG]-CD--NE-[CZ] |==|  0.59430
USER: genes 20 Torsion [C]-CA--CB-[CG] |==|  0.06022
USER: genes 21 Torsion [CA]-CB--CG-[CD] |==|  0.31764
USER: genes 22 Torsion [CB]-CG--CD-[NE] |==|  0.74315
USER: genes 23 Torsion [CG]-CD--NE-[CZ] |==|  0.71129
USER: genes 24 Torsion [C]-CA--N-[C] |==|  0.80847
USER: genes 25 Torsion [N]-C--CA-[N] |==|  0.41227
USER: genes 26 Torsion [C]-CA--CB-[CG] |==|  0.57826
USER: genes 27 Torsion [CA]-CB--CG-[CD] |==|  0.80763
USER: genes 28 Torsion [CB]-CG--CD-[NE2] |==|  0.76014
USER: genes 29 Torsion [C]-CA--N-[C] |==|  0.79709
USER: genes 30 Torsion [N]-C--CA-[N] |==|  0.11806
USER: genes 31 Torsion [C]-CA--CB-[CG2] |==|  0.27733
USER: genes 32 Torsion [CA]-CB--OG1-[HG1] |==|  0.27775
USER: genes 33 Torsion [C]-CA--N-[C] |==|  0.15148
USER: genes 34 Torsion [N]-C--CA-[N] |==|  0.68272
USER: genes 35 Torsion [C]-CA--CB-[OG1] |==|  0.55161
USER: genes 36 Torsion [CA]-CB--OG1-[HG1] |==|  0.53029
ROOT
ATOM      1  CA  ARG F 167       1.258  20.778  40.362  1.00 38.85 LIG 0.18  C 
ENDROOT
BRANCH 1 2
ATOM      2  C   ARG F 167       0.412  20.523  39.127  1.00 41.97 LIG 0.24  C 
ATOM      3  N   LYS F 168      -0.836  20.112  39.354  1.00 42.42 LIG-0.35  N 
ATOM      4 H    LYS F 168      -1.153  19.910  40.128  1.00 42.42 LIG 0.16  HD
ATOM      5 O    ARG F 167       0.878  20.681  37.995  1.00 34.60 LIG-0.27  OA
BRANCH 3 6
ATOM      6  CA  LYS F 168      -1.774  19.978  38.247  1.00 39.35 LIG 0.18  C 
BRANCH 6 7
ATOM      7  CB  LYS F 168      -2.968  19.109  38.646  1.00 43.51 LIG 0.04  C 
BRANCH 7 8
ATOM      8  CG  LYS F 168      -2.692  18.150  39.789  1.00 39.69 LIG 0.00  C 
BRANCH 8 9
ATOM      9  CD  LYS F 168      -3.789  17.099  39.936  1.00 48.24 LIG 0.03  C 
BRANCH 9 10
ATOM     10  CE  LYS F 168      -4.882  17.548  40.909  1.00 54.37 LIG 0.23  C 
BRANCH 10 11
ATOM     11  NZ  LYS F 168      -5.384  16.451  41.797  1.00 52.23 LIG-0.08  N 
ATOM     12 HZ3  LYS F 168      -5.978  16.783  42.372  1.00 52.23 LIG 0.27  HD
ATOM     13 HZ1  LYS F 168      -5.772  15.821  41.302  1.00 52.23 LIG 0.27  HD
ATOM     14 HZ2  LYS F 168      -4.703  16.097  42.247  1.00 52.23 LIG 0.27  HD
ENDBRANCH 10 11
ENDBRANCH 9 10
ENDBRANCH 8 9
ENDBRANCH 7 8
ENDBRANCH 6 7
BRANCH 6 15
ATOM     15  C   LYS F 168      -2.248  21.358  37.806  1.00 30.99 LIG 0.24  C 
ATOM     16 O    LYS F 168      -2.670  22.180  38.627  1.00 32.09 LIG-0.27  OA
ATOM     17  N   ARG F 169      -2.141  21.626  36.508  1.00 23.74 LIG-0.35  N 
ATOM     18 H    ARG F 169      -1.813  21.087  35.922  1.00 23.74 LIG 0.16  HD
BRANCH 17 19
ATOM     19  CA  ARG F 169      -2.594  22.905  35.984  1.00 28.77 LIG 0.18  C 
BRANCH 19 20
ATOM     20  C   ARG F 169      -4.118  22.937  35.932  1.00 37.10 LIG 0.24  C 
ATOM     21  N   SER F 170      -4.710  21.746  35.875  1.00 32.48 LIG-0.34  N 
ATOM     22 H    SER F 170      -4.292  21.004  35.996  1.00 32.48 LIG 0.16  HD
ATOM     23 O    ARG F 169      -4.743  24.007  35.911  1.00 33.53 LIG-0.27  OA
BRANCH 21 24
ATOM     24  CA  SER F 170      -6.138  21.583  35.599  1.00 32.11 LIG 0.19  C 
BRANCH 24 25
ATOM     25  C   SER F 170      -6.639  20.160  35.879  1.00 36.47 LIG 0.22  C 
ATOM     26 O    SER F 170      -7.714  19.966  36.446  1.00 35.83 LIG-0.29  OA
ENDBRANCH 24 25
BRANCH 24 27
ATOM     27  CB  SER F 170      -6.428  21.966  34.144  1.00 36.26 LIG 0.20  C 
BRANCH 27 28
ATOM     28 OG   SER F 170      -5.336  21.615  33.302  1.00 19.66 LIG-0.40  OA
ATOM     29 HG   SER F 170      -5.326  22.118  32.630  1.00 19.66 LIG 0.21  HD
ENDBRANCH 27 28
ENDBRANCH 24 27
ENDBRANCH 21 24
ENDBRANCH 19 20
BRANCH 19 30
ATOM     30  CB  ARG F 169      -1.983  23.177  34.603  1.00 32.99 LIG 0.04  C 
BRANCH 30 31
ATOM     31  CG  ARG F 169      -1.268  24.506  34.415  1.00 34.51 LIG 0.02  C 
BRANCH 31 32
ATOM     32  CD  ARG F 169      -2.070  25.376  33.429  1.00 39.71 LIG 0.14  C 
BRANCH 32 33
ATOM     33  NE  ARG F 169      -1.183  26.293  32.717  1.00 37.23 LIG-0.23  N 
ATOM     34  CZ  ARG F 169      -1.498  27.526  32.322  1.00 33.71 LIG 0.67  C 
ATOM     35  NH2 ARG F 169      -0.581  28.246  31.688  1.00 35.73 LIG-0.23  N 
ATOM     36  NH1 ARG F 169      -2.711  28.040  32.555  1.00 22.18 LIG-0.23  N 
ATOM     37 2HH2 ARG F 169      -0.766  29.044  31.426  1.00 35.73 LIG 0.17  HD
ATOM     38 1HH2 ARG F 169       0.199  27.914  31.539  1.00 35.73 LIG 0.17  HD
ATOM     39 1HH1 ARG F 169      -3.304  27.573  32.967  1.00 22.18 LIG 0.17  HD
ATOM     40 2HH1 ARG F 169      -2.897  28.837  32.293  1.00 22.18 LIG 0.17  HD
ATOM     41 HE   ARG F 169      -0.389  26.014  32.538  1.00 37.23 LIG 0.18  HD
ENDBRANCH 32 33
ENDBRANCH 31 32
ENDBRANCH 30 31
ENDBRANCH 19 30
ENDBRANCH 17 19
ENDBRANCH 6 15
ENDBRANCH 3 6
ENDBRANCH 1 2
BRANCH 1 42
ATOM     42  CB  ARG F 167       1.033  22.210  40.864  1.00 34.27 LIG 0.04  C 
BRANCH 42 43
ATOM     43  CG  ARG F 167      -0.276  22.811  40.392  1.00 36.76 LIG 0.02  C 
BRANCH 43 44
ATOM     44  CD  ARG F 167      -1.196  23.052  41.556  1.00 47.53 LIG 0.14  C 
BRANCH 44 45
ATOM     45  NE  ARG F 167      -2.076  21.912  41.775  1.00 46.15 LIG-0.23  N 
ATOM     46 HE   ARG F 167      -1.748  21.211  42.150  1.00 46.15 LIG 0.18  HD
ATOM     47  CZ  ARG F 167      -3.355  21.901  41.427  1.00 54.25 LIG 0.67  C 
ATOM     48  NH2 ARG F 167      -4.105  20.828  41.660  1.00 44.38 LIG-0.23  N 
ATOM     49  NH1 ARG F 167      -3.878  22.972  40.839  1.00 45.80 LIG-0.23  N 
ATOM     50 1HH2 ARG F 167      -3.760  20.137  42.039  1.00 44.38 LIG 0.17  HD
ATOM     51 2HH2 ARG F 167      -4.934  20.825  41.433  1.00 44.38 LIG 0.17  HD
ATOM     52 2HH1 ARG F 167      -4.706  22.975  40.609  1.00 45.80 LIG 0.17  HD
ATOM     53 1HH1 ARG F 167      -3.387  23.662  40.687  1.00 45.80 LIG 0.17  HD
ENDBRANCH 44 45
ENDBRANCH 43 44
ENDBRANCH 42 43
ENDBRANCH 1 42
BRANCH 1 54
ATOM     54  N   ARG F 167       2.653  20.534  40.028  1.00 32.00 LIG-0.35  N 
ATOM     55 H    ARG F 167       3.137  21.245  40.015  1.00 32.00 LIG 0.16  HD
ATOM     56  C   GLN F 166       3.128  19.318  39.766  1.00 42.00 LIG 0.24  C 
ATOM     57 O    GLN F 166       2.457  18.285  39.869  1.00 37.97 LIG-0.27  OA
BRANCH 56 58
ATOM     58  CA  GLN F 166       4.584  19.268  39.337  1.00 41.36 LIG 0.18  C 
BRANCH 58 59
ATOM     59  CB  GLN F 166       4.665  19.430  37.814  1.00 34.92 LIG 0.04  C 
BRANCH 59 60
ATOM     60  CG  GLN F 166       5.856  18.772  37.165  1.00 32.73 LIG 0.10  C 
BRANCH 60 61
ATOM     61  CD  GLN F 166       7.152  19.473  37.524  1.00 43.28 LIG 0.21  C 
ATOM     62  NE2 GLN F 166       7.500  20.507  36.763  1.00 36.91 LIG-0.37  N 
ATOM     63 21HE GLN F 166       6.996  20.748  36.109  1.00 36.91 LIG 0.16  HD
ATOM     64 22HE GLN F 166       8.228  20.935  36.926  1.00 36.91 LIG 0.16  HD
ATOM     65 OE1  GLN F 166       7.837  19.086  38.475  1.00 42.55 LIG-0.27  OA
ENDBRANCH 60 61
ENDBRANCH 59 60
ENDBRANCH 58 59
BRANCH 58 66
ATOM     66  N   GLN F 166       5.170  18.017  39.794  1.00 35.11 LIG-0.35  N 
ATOM     67  C   THR F 165       5.458  17.793  41.072  1.00 35.16 LIG 0.24  C 
ATOM     68 O    THR F 165       5.314  18.660  41.944  1.00 30.91 LIG-0.27  OA
ATOM     69 H    GLN F 166       5.311  17.445  39.167  1.00 35.11 LIG 0.16  HD
BRANCH 67 70
ATOM     70  CA  THR F 165       5.983  16.417  41.458  1.00 44.00 LIG 0.20  C 
BRANCH 70 71
ATOM     71  CB  THR F 165       6.574  16.463  42.871  1.00 46.85 LIG 0.15  C 
ATOM     72  CG2 THR F 165       5.573  15.910  43.887  1.00 37.95 LIG 0.04  C 
BRANCH 71 73
ATOM     73 OG1  THR F 165       7.789  15.701  42.907  1.00 45.14 LIG-0.39  OA
ATOM     74 HG1  THR F 165       8.447  16.220  42.857  1.00 45.14 LIG 0.21  HD
ENDBRANCH 71 73
ENDBRANCH 70 71
BRANCH 70 75
ATOM     75  N   THR F 165       6.966  15.913  40.507  1.00 38.01 LIG-0.34  N 
ATOM     76 H    THR F 165       6.779  15.138  40.185  1.00 38.01 LIG 0.16  HD
ATOM     77  C   THR F 164       8.056  16.608  40.177  1.00 57.69 LIG 0.26  C 
ATOM     78 O    THR F 164       8.308  17.721  40.648  1.00 49.67 LIG-0.27  OA
BRANCH 77 79
ATOM     79  CA  THR F 164       9.001  15.946  39.169  1.00 56.73 LIG 0.43  C 
ATOM     80  N   THR F 164      10.285  15.633  39.790  1.00 65.32 LIG 0.62  N 
BRANCH 79 81
ATOM     81  CB  THR F 164       8.330  14.679  38.576  1.00 58.05 LIG 0.16  C 
ATOM     82  CG2 THR F 164       7.303  15.069  37.515  1.00 51.52 LIG 0.04  C 
BRANCH 81 83
ATOM     83 OG1  THR F 164       9.322  13.827  37.985  1.00 58.15 LIG-0.39  OA
ATOM     84 HG1  THR F 164       8.944  13.224  37.539  1.00 58.15 LIG 0.21  HD
ENDBRANCH 81 83
ENDBRANCH 79 81
ENDBRANCH 77 79
ENDBRANCH 70 75
ENDBRANCH 67 70
ENDBRANCH 58 66
ENDBRANCH 56 58
ENDBRANCH 1 54
TORSDOF 35
ENDMDL
MODEL 32
USER: ADFR SOLUTION from run 113
USER: SCORE 26.183306 LL:  -4.489 LR: -22.603 RR:   0.000 FEB: -12.163
USER: RMSD 8.081198
USER: SEED 112
USER: STATUS no improvement in best in 2 clusters for 5 generations
USER: GENES 37
USER: genes 0 Translation |==|  0.32686 0.54237 0.50591
USER: genes 1 Rotation |==|  0.77178 0.77498 0.48304 0.81660
USER: genes 2 Torsion [N]-CA--C-[N] |==|  0.05631
USER: genes 3 Torsion [C]-N--CA-[C] |==|  0.80266
USER: genes 4 Torsion [N]-CA--CB-[CG] |==|  0.52625
USER: genes 5 Torsion [CA]-CB--CG-[CD] |==|  0.11711
USER: genes 6 Torsion [CB]-CG--CD-[CE] |==|  0.50689
USER: genes 7 Torsion [CG]-CD--CE-[NZ] |==|  0.81127
USER: genes 8 Torsion [CD]-CE--NZ-[HZ3] |==|  0.87206
USER: genes 9 Torsion [N]-CA--C-[N] |==|  0.35195
USER: genes 10 Torsion [C]-N--CA-[C] |==|  0.63102
USER: genes 11 Torsion [N]-CA--C-[N] |==|  0.46649
USER: genes 12 Torsion [C]-N--CA-[C] |==|  0.15546
USER: genes 13 Torsion [N]-CA--C-[O] |==|  0.01380
USER: genes 14 Torsion [N]-CA--CB-[OG] |==|  0.75886
USER: genes 15 Torsion [CA]-CB--OG-[HG] |==|  0.31379
USER: genes 16 Torsion [N]-CA--CB-[CG] |==|  0.18843
USER: genes 17 Torsion [CA]-CB--CG-[CD] |==|  0.26778
USER: genes 18 Torsion [CB]-CG--CD-[NE] |==|  0.27011
USER: genes 19 Torsion [CG]-CD--NE-[CZ] |==|  0.73891
USER: genes 20 Torsion [C]-CA--CB-[CG] |==|  0.28172
USER: genes 21 Torsion [CA]-CB--CG-[CD] |==|  0.95894
USER: genes 22 Torsion [CB]-CG--CD-[NE] |==|  0.22854
USER: genes 23 Torsion [CG]-CD--NE-[CZ] |==|  0.62294
USER: genes 24 Torsion [C]-CA--N-[C] |==|  0.66161
USER: genes 25 Torsion [N]-C--CA-[N] |==|  0.08314
USER: genes 26 Torsion [C]-CA--CB-[CG] |==|  0.49098
USER: genes 27 Torsion [CA]-CB--CG-[CD] |==|  0.21107
USER: genes 28 Torsion [CB]-CG--CD-[NE2] |==|  0.70516
USER: genes 29 Torsion [C]-CA--N-[C] |==|  0.67222
USER: genes 30 Torsion [N]-C--CA-[N] |==|  0.15146
USER: genes 31 Torsion [C]-CA--CB-[CG2] |==|  0.30109
USER: genes 32 Torsion [CA]-CB--OG1-[HG1] |==|  0.18565
USER: genes 33 Torsion [C]-CA--N-[C] |==|  0.75307
USER: genes 34 Torsion [N]-C--CA-[N] |==|  0.85834
USER: genes 35 Torsion [C]-CA--CB-[OG1] |==|  0.89242
USER: genes 36 Torsion [CA]-CB--OG1-[HG1] |==|  0.85150
ROOT
ATOM      1  CA  ARG F 167      -5.496  19.127  38.779  1.00 38.85 LIG 0.18  C 
ENDROOT
BRANCH 1 2
ATOM      2  C   ARG F 167      -6.265  17.912  38.291  1.00 41.97 LIG 0.24  C 
ATOM      3  N   LYS F 168      -6.155  17.641  36.989  1.00 42.42 LIG-0.35  N 
ATOM      4 H    LYS F 168      -5.756  18.143  36.416  1.00 42.42 LIG 0.16  HD
ATOM      5 O    ARG F 167      -6.953  17.242  39.067  1.00 34.60 LIG-0.27  OA
BRANCH 3 6
ATOM      6  CA  LYS F 168      -6.732  16.419  36.447  1.00 39.35 LIG 0.18  C 
BRANCH 6 7
ATOM      7  CB  LYS F 168      -6.774  16.467  34.918  1.00 43.51 LIG 0.04  C 
BRANCH 7 8
ATOM      8  CG  LYS F 168      -7.561  15.340  34.277  1.00 39.69 LIG 0.00  C 
BRANCH 8 9
ATOM      9  CD  LYS F 168      -8.863  15.053  35.021  1.00 48.24 LIG 0.03  C 
BRANCH 9 10
ATOM     10  CE  LYS F 168      -9.624  13.876  34.407  1.00 54.37 LIG 0.23  C 
BRANCH 10 11
ATOM     11  NZ  LYS F 168     -10.170  14.159  33.041  1.00 52.23 LIG-0.08  N 
ATOM     12 HZ3  LYS F 168     -10.568  14.955  33.039  1.00 52.23 LIG 0.27  HD
ATOM     13 HZ1  LYS F 168      -9.505  14.159  32.449  1.00 52.23 LIG 0.27  HD
ATOM     14 HZ2  LYS F 168     -10.762  13.531  32.821  1.00 52.23 LIG 0.27  HD
ENDBRANCH 10 11
ENDBRANCH 9 10
ENDBRANCH 8 9
ENDBRANCH 7 8
ENDBRANCH 6 7
BRANCH 6 15
ATOM     15  C   LYS F 168      -5.923  15.215  36.916  1.00 30.99 LIG 0.24  C 
ATOM     16 O    LYS F 168      -4.695  15.180  36.780  1.00 32.09 LIG-0.27  OA
ATOM     17  N   ARG F 169      -6.611  14.242  37.507  1.00 23.74 LIG-0.35  N 
ATOM     18 H    ARG F 169      -7.459  14.260  37.650  1.00 23.74 LIG 0.16  HD
BRANCH 17 19
ATOM     19  CA  ARG F 169      -5.932  13.039  37.963  1.00 28.77 LIG 0.18  C 
BRANCH 19 20
ATOM     20  C   ARG F 169      -6.705  11.802  37.514  1.00 37.10 LIG 0.24  C 
ATOM     21  N   SER F 170      -6.057  10.647  37.653  1.00 32.48 LIG-0.34  N 
ATOM     22 H    SER F 170      -5.318  10.567  38.085  1.00 32.48 LIG 0.16  HD
ATOM     23 O    ARG F 169      -7.840  11.890  37.026  1.00 33.53 LIG-0.27  OA
BRANCH 21 24
ATOM     24  CA  SER F 170      -6.545   9.392  37.078  1.00 32.11 LIG 0.19  C 
BRANCH 24 25
ATOM     25  C   SER F 170      -6.770   9.481  35.563  1.00 36.47 LIG 0.22  C 
ATOM     26 O    SER F 170      -6.463  10.494  34.933  1.00 35.83 LIG-0.29  OA
ENDBRANCH 24 25
BRANCH 24 27
ATOM     27  CB  SER F 170      -7.841   8.973  37.779  1.00 36.26 LIG 0.20  C 
BRANCH 27 28
ATOM     28 OG   SER F 170      -7.558   8.211  38.947  1.00 19.66 LIG-0.40  OA
ATOM     29 HG   SER F 170      -7.789   8.645  39.628  1.00 19.66 LIG 0.21  HD
ENDBRANCH 27 28
ENDBRANCH 24 27
ENDBRANCH 21 24
ENDBRANCH 19 20
BRANCH 19 30
ATOM     30  CB  ARG F 169      -5.750  13.060  39.487  1.00 32.99 LIG 0.04  C 
BRANCH 30 31
ATOM     31  CG  ARG F 169      -7.009  12.953  40.333  1.00 34.51 LIG 0.02  C 
BRANCH 31 32
ATOM     32  CD  ARG F 169      -7.212  11.485  40.754  1.00 39.71 LIG 0.14  C 
BRANCH 32 33
ATOM     33  NE  ARG F 169      -6.688  11.262  42.100  1.00 37.23 LIG-0.23  N 
ATOM     34  CZ  ARG F 169      -5.466  10.819  42.393  1.00 33.71 LIG 0.67  C 
ATOM     35  NH2 ARG F 169      -5.130  10.671  43.668  1.00 35.73 LIG-0.23  N 
ATOM     36  NH1 ARG F 169      -4.586  10.526  41.429  1.00 22.18 LIG-0.23  N 
ATOM     37 2HH2 ARG F 169      -4.345  10.387  43.876  1.00 35.73 LIG 0.17  HD
ATOM     38 1HH2 ARG F 169      -5.697  10.860  44.287  1.00 35.73 LIG 0.17  HD
ATOM     39 1HH1 ARG F 169      -4.804  10.623  40.603  1.00 22.18 LIG 0.17  HD
ATOM     40 2HH1 ARG F 169      -3.801  10.241  41.636  1.00 22.18 LIG 0.17  HD
ATOM     41 HE   ARG F 169      -7.212  11.432  42.760  1.00 37.23 LIG 0.18  HD
ENDBRANCH 32 33
ENDBRANCH 31 32
ENDBRANCH 30 31
ENDBRANCH 19 30
ENDBRANCH 17 19
ENDBRANCH 6 15
ENDBRANCH 3 6
ENDBRANCH 1 2
BRANCH 1 42
ATOM     42  CB  ARG F 167      -6.308  19.863  39.852  1.00 34.27 LIG 0.04  C 
BRANCH 42 43
ATOM     43  CG  ARG F 167      -5.835  19.576  41.263  1.00 36.76 LIG 0.02  C 
BRANCH 43 44
ATOM     44  CD  ARG F 167      -4.930  18.375  41.282  1.00 47.53 LIG 0.14  C 
BRANCH 44 45
ATOM     45  NE  ARG F 167      -3.569  18.739  40.914  1.00 46.15 LIG-0.23  N 
ATOM     46 HE   ARG F 167      -3.229  19.450  41.258  1.00 46.15 LIG 0.18  HD
ATOM     47  CZ  ARG F 167      -2.826  18.029  40.075  1.00 54.25 LIG 0.67  C 
ATOM     48  NH2 ARG F 167      -1.587  18.414  39.785  1.00 44.38 LIG-0.23  N 
ATOM     49  NH1 ARG F 167      -3.337  16.931  39.525  1.00 45.80 LIG-0.23  N 
ATOM     50 1HH2 ARG F 167      -1.264  19.126  40.141  1.00 44.38 LIG 0.17  HD
ATOM     51 2HH2 ARG F 167      -1.110  17.950  39.240  1.00 44.38 LIG 0.17  HD
ATOM     52 2HH1 ARG F 167      -2.864  16.464  38.980  1.00 45.80 LIG 0.17  HD
ATOM     53 1HH1 ARG F 167      -4.140  16.689  39.715  1.00 45.80 LIG 0.17  HD
ENDBRANCH 44 45
ENDBRANCH 43 44
ENDBRANCH 42 43
ENDBRANCH 1 42
BRANCH 1 54
ATOM     54  N   ARG F 167      -5.206  19.981  37.638  1.00 32.00 LIG-0.35  N 
ATOM     55 H    ARG F 167      -5.905  20.243  37.212  1.00 32.00 LIG 0.16  HD
ATOM     56  C   GLN F 166      -3.965  20.322  37.292  1.00 42.00 LIG 0.24  C 
ATOM     57 O    GLN F 166      -2.964  20.022  37.951  1.00 37.97 LIG-0.27  OA
BRANCH 56 58
ATOM     58  CA  GLN F 166      -3.848  21.135  36.015  1.00 41.36 LIG 0.18  C 
BRANCH 58 59
ATOM     59  CB  GLN F 166      -2.582  21.998  36.081  1.00 34.92 LIG 0.04  C 
BRANCH 59 60
ATOM     60  CG  GLN F 166      -2.295  22.806  34.841  1.00 32.73 LIG 0.10  C 
BRANCH 60 61
ATOM     61  CD  GLN F 166      -3.200  24.018  34.736  1.00 43.28 LIG 0.21  C 
ATOM     62  NE2 GLN F 166      -4.171  23.959  33.830  1.00 36.91 LIG-0.37  N 
ATOM     63 21HE GLN F 166      -4.262  23.256  33.342  1.00 36.91 LIG 0.16  HD
ATOM     64 22HE GLN F 166      -4.709  24.623  33.732  1.00 36.91 LIG 0.16  HD
ATOM     65 OE1  GLN F 166      -3.025  25.002  35.461  1.00 42.55 LIG-0.27  OA
ENDBRANCH 60 61
ENDBRANCH 59 60
ENDBRANCH 58 59
BRANCH 58 66
ATOM     66  N   GLN F 166      -5.055  21.932  35.849  1.00 35.11 LIG-0.35  N 
ATOM     67  C   THR F 165      -5.869  21.779  34.809  1.00 35.16 LIG 0.24  C 
ATOM     68 O    THR F 165      -5.615  21.002  33.879  1.00 30.91 LIG-0.27  OA
ATOM     69 H    GLN F 166      -5.188  22.503  36.478  1.00 35.11 LIG 0.16  HD
BRANCH 67 70
ATOM     70  CA  THR F 165      -7.152  22.598  34.777  1.00 44.00 LIG 0.20  C 
BRANCH 70 71
ATOM     71  CB  THR F 165      -7.920  22.314  33.481  1.00 46.85 LIG 0.15  C 
ATOM     72  CG2 THR F 165      -9.174  21.489  33.774  1.00 37.95 LIG 0.04  C 
BRANCH 71 73
ATOM     73 OG1  THR F 165      -8.277  23.553  32.853  1.00 45.14 LIG-0.39  OA
ATOM     74 HG1  THR F 165      -7.582  23.946  32.592  1.00 45.14 LIG 0.21  HD
ENDBRANCH 71 73
ENDBRANCH 70 71
BRANCH 70 75
ATOM     75  N   THR F 165      -6.900  24.028  34.920  1.00 38.01 LIG-0.34  N 
ATOM     76 H    THR F 165      -6.793  24.442  34.174  1.00 38.01 LIG 0.16  HD
ATOM     77  C   THR F 164      -6.846  24.624  36.112  1.00 57.69 LIG 0.26  C 
ATOM     78 O    THR F 164      -7.004  24.012  37.174  1.00 49.67 LIG-0.27  OA
BRANCH 77 79
ATOM     79  CA  THR F 164      -6.567  26.130  36.104  1.00 56.73 LIG 0.43  C 
ATOM     80  N   THR F 164      -5.393  26.436  35.291  1.00 65.32 LIG 0.62  N 
BRANCH 79 81
ATOM     81  CB  THR F 164      -7.823  26.892  35.602  1.00 58.05 LIG 0.16  C 
ATOM     82  CG2 THR F 164      -7.436  28.284  35.106  1.00 51.52 LIG 0.04  C 
BRANCH 81 83
ATOM     83 OG1  THR F 164      -8.447  26.165  34.535  1.00 58.15 LIG-0.39  OA
ATOM     84 HG1  THR F 164      -7.879  26.001  33.937  1.00 58.15 LIG 0.21  HD
ENDBRANCH 81 83
ENDBRANCH 79 81
ENDBRANCH 77 79
ENDBRANCH 70 75
ENDBRANCH 67 70
ENDBRANCH 58 66
ENDBRANCH 56 58
ENDBRANCH 1 54
TORSDOF 35
ENDMDL
MODEL 33
USER: ADFR SOLUTION from run 49
USER: SCORE 25.617179 LL:  -4.233 LR: -22.558 RR:   0.000 FEB: -12.118
USER: RMSD 13.077134
USER: SEED 48
USER: STATUS no improvement in best in 6 clusters for 5 generations
USER: GENES 37
USER: genes 0 Translation |==|  0.36973 0.32291 0.55151
USER: genes 1 Rotation |==|  0.43315 0.27902 0.06723 0.59699
USER: genes 2 Torsion [N]-CA--C-[N] |==|  0.26501
USER: genes 3 Torsion [C]-N--CA-[C] |==|  0.60912
USER: genes 4 Torsion [N]-CA--CB-[CG] |==|  0.22785
USER: genes 5 Torsion [CA]-CB--CG-[CD] |==|  0.80598
USER: genes 6 Torsion [CB]-CG--CD-[CE] |==|  0.38173
USER: genes 7 Torsion [CG]-CD--CE-[NZ] |==|  0.68363
USER: genes 8 Torsion [CD]-CE--NZ-[HZ3] |==|  0.78966
USER: genes 9 Torsion [N]-CA--C-[N] |==|  0.47483
USER: genes 10 Torsion [C]-N--CA-[C] |==|  0.69639
USER: genes 11 Torsion [N]-CA--C-[N] |==|  0.34052
USER: genes 12 Torsion [C]-N--CA-[C] |==|  0.70851
USER: genes 13 Torsion [N]-CA--C-[O] |==|  0.00430
USER: genes 14 Torsion [N]-CA--CB-[OG] |==|  0.17787
USER: genes 15 Torsion [CA]-CB--OG-[HG] |==|  0.59760
USER: genes 16 Torsion [N]-CA--CB-[CG] |==|  0.48271
USER: genes 17 Torsion [CA]-CB--CG-[CD] |==|  0.21771
USER: genes 18 Torsion [CB]-CG--CD-[NE] |==|  0.75798
USER: genes 19 Torsion [CG]-CD--NE-[CZ] |==|  0.76976
USER: genes 20 Torsion [C]-CA--CB-[CG] |==|  0.66173
USER: genes 21 Torsion [CA]-CB--CG-[CD] |==|  0.60899
USER: genes 22 Torsion [CB]-CG--CD-[NE] |==|  0.06945
USER: genes 23 Torsion [CG]-CD--NE-[CZ] |==|  0.64386
USER: genes 24 Torsion [C]-CA--N-[C] |==|  0.57307
USER: genes 25 Torsion [N]-C--CA-[N] |==|  0.50375
USER: genes 26 Torsion [C]-CA--CB-[CG] |==|  0.62104
USER: genes 27 Torsion [CA]-CB--CG-[CD] |==|  0.44522
USER: genes 28 Torsion [CB]-CG--CD-[NE2] |==|  0.91284
USER: genes 29 Torsion [C]-CA--N-[C] |==|  0.75785
USER: genes 30 Torsion [N]-C--CA-[N] |==|  0.92592
USER: genes 31 Torsion [C]-CA--CB-[CG2] |==|  0.20083
USER: genes 32 Torsion [CA]-CB--OG1-[HG1] |==|  0.47572
USER: genes 33 Torsion [C]-CA--N-[C] |==|  0.77684
USER: genes 34 Torsion [N]-C--CA-[N] |==|  0.08847
USER: genes 35 Torsion [C]-CA--CB-[OG1] |==|  0.16545
USER: genes 36 Torsion [CA]-CB--OG1-[HG1] |==|  0.94217
ROOT
ATOM      1  CA  ARG F 167      -4.435  13.037  39.669  1.00 38.85 LIG 0.18  C 
ENDROOT
BRANCH 1 2
ATOM      2  C   ARG F 167      -4.450  14.252  38.758  1.00 41.97 LIG 0.24  C 
ATOM      3  N   LYS F 168      -4.319  15.433  39.366  1.00 42.42 LIG-0.35  N 
ATOM      4 H    LYS F 168      -4.311  15.548  40.218  1.00 42.42 LIG 0.16  HD
ATOM      5 O    ARG F 167      -4.589  14.130  37.538  1.00 34.60 LIG-0.27  OA
BRANCH 3 6
ATOM      6  CA  LYS F 168      -4.176  16.648  38.576  1.00 39.35 LIG 0.18  C 
BRANCH 6 7
ATOM      7  CB  LYS F 168      -5.521  17.361  38.422  1.00 43.51 LIG 0.04  C 
BRANCH 7 8
ATOM      8  CG  LYS F 168      -5.908  18.228  39.605  1.00 39.69 LIG 0.00  C 
BRANCH 8 9
ATOM      9  CD  LYS F 168      -6.254  17.398  40.838  1.00 48.24 LIG 0.03  C 
BRANCH 9 10
ATOM     10  CE  LYS F 168      -5.657  17.995  42.114  1.00 54.37 LIG 0.23  C 
BRANCH 10 11
ATOM     11  NZ  LYS F 168      -4.605  17.135  42.746  1.00 52.23 LIG-0.08  N 
ATOM     12 HZ3  LYS F 168      -4.992  16.451  43.164  1.00 52.23 LIG 0.27  HD
ATOM     13 HZ1  LYS F 168      -4.056  16.826  42.118  1.00 52.23 LIG 0.27  HD
ATOM     14 HZ2  LYS F 168      -4.141  17.617  43.334  1.00 52.23 LIG 0.27  HD
ENDBRANCH 10 11
ENDBRANCH 9 10
ENDBRANCH 8 9
ENDBRANCH 7 8
ENDBRANCH 6 7
BRANCH 6 15
ATOM     15  C   LYS F 168      -3.160  17.573  39.236  1.00 30.99 LIG 0.24  C 
ATOM     16 O    LYS F 168      -2.691  17.314  40.350  1.00 32.09 LIG-0.27  OA
ATOM     17  N   ARG F 169      -2.790  18.637  38.528  1.00 23.74 LIG-0.35  N 
ATOM     18 H    ARG F 169      -3.070  18.818  37.735  1.00 23.74 LIG 0.16  HD
BRANCH 17 19
ATOM     19  CA  ARG F 169      -1.847  19.595  39.084  1.00 28.77 LIG 0.18  C 
BRANCH 19 20
ATOM     20  C   ARG F 169      -2.563  20.902  39.411  1.00 37.10 LIG 0.24  C 
ATOM     21  N   SER F 170      -2.473  21.297  40.679  1.00 32.48 LIG-0.34  N 
ATOM     22 H    SER F 170      -1.944  20.934  41.252  1.00 32.48 LIG 0.16  HD
ATOM     23 O    ARG F 169      -3.206  21.520  38.551  1.00 33.53 LIG-0.27  OA
BRANCH 21 24
ATOM     24  CA  SER F 170      -3.270  22.397  41.224  1.00 32.11 LIG 0.19  C 
BRANCH 24 25
ATOM     25  C   SER F 170      -2.454  23.680  41.425  1.00 36.47 LIG 0.22  C 
ATOM     26 O    SER F 170      -1.264  23.731  41.114  1.00 35.83 LIG-0.29  OA
ENDBRANCH 24 25
BRANCH 24 27
ATOM     27  CB  SER F 170      -3.906  21.965  42.550  1.00 36.26 LIG 0.20  C 
BRANCH 27 28
ATOM     28 OG   SER F 170      -2.906  21.701  43.526  1.00 19.66 LIG-0.40  OA
ATOM     29 HG   SER F 170      -3.152  21.064  44.015  1.00 19.66 LIG 0.21  HD
ENDBRANCH 27 28
ENDBRANCH 24 27
ENDBRANCH 21 24
ENDBRANCH 19 20
BRANCH 19 30
ATOM     30  CB  ARG F 169      -0.674  19.826  38.122  1.00 32.99 LIG 0.04  C 
BRANCH 30 31
ATOM     31  CG  ARG F 169       0.322  20.912  38.498  1.00 34.51 LIG 0.02  C 
BRANCH 31 32
ATOM     32  CD  ARG F 169       1.274  20.371  39.582  1.00 39.71 LIG 0.14  C 
BRANCH 32 33
ATOM     33  NE  ARG F 169       0.705  20.576  40.912  1.00 37.23 LIG-0.23  N 
ATOM     34  CZ  ARG F 169       0.775  21.702  41.620  1.00 33.71 LIG 0.67  C 
ATOM     35  NH2 ARG F 169       0.203  21.740  42.817  1.00 35.73 LIG-0.23  N 
ATOM     36  NH1 ARG F 169       1.407  22.781  41.144  1.00 22.18 LIG-0.23  N 
ATOM     37 2HH2 ARG F 169       0.238  22.459  43.288  1.00 35.73 LIG 0.17  HD
ATOM     38 1HH2 ARG F 169      -0.203  21.045  43.121  1.00 35.73 LIG 0.17  HD
ATOM     39 1HH1 ARG F 169       1.777  22.756  40.369  1.00 22.18 LIG 0.17  HD
ATOM     40 2HH1 ARG F 169       1.443  23.500  41.615  1.00 22.18 LIG 0.17  HD
ATOM     41 HE   ARG F 169       0.289  19.913  41.269  1.00 37.23 LIG 0.18  HD
ENDBRANCH 32 33
ENDBRANCH 31 32
ENDBRANCH 30 31
ENDBRANCH 19 30
ENDBRANCH 17 19
ENDBRANCH 6 15
ENDBRANCH 3 6
ENDBRANCH 1 2
BRANCH 1 42
ATOM     42  CB  ARG F 167      -3.675  11.888  38.994  1.00 34.27 LIG 0.04  C 
BRANCH 42 43
ATOM     43  CG  ARG F 167      -4.511  10.635  38.826  1.00 36.76 LIG 0.02  C 
BRANCH 43 44
ATOM     44  CD  ARG F 167      -3.685   9.408  39.095  1.00 47.53 LIG 0.14  C 
BRANCH 44 45
ATOM     45  NE  ARG F 167      -2.564   9.714  39.973  1.00 46.15 LIG-0.23  N 
ATOM     46 HE   ARG F 167      -2.724  10.123  40.712  1.00 46.15 LIG 0.18  HD
ATOM     47  CZ  ARG F 167      -1.308   9.392  39.691  1.00 54.25 LIG 0.67  C 
ATOM     48  NH2 ARG F 167      -0.331   9.696  40.539  1.00 44.38 LIG-0.23  N 
ATOM     49  NH1 ARG F 167      -1.039   8.766  38.549  1.00 45.80 LIG-0.23  N 
ATOM     50 1HH2 ARG F 167      -0.511  10.103  41.274  1.00 44.38 LIG 0.17  HD
ATOM     51 2HH2 ARG F 167       0.482   9.485  40.352  1.00 44.38 LIG 0.17  HD
ATOM     52 2HH1 ARG F 167      -0.229   8.554  38.357  1.00 45.80 LIG 0.17  HD
ATOM     53 1HH1 ARG F 167      -1.675   8.575  38.003  1.00 45.80 LIG 0.17  HD
ENDBRANCH 44 45
ENDBRANCH 43 44
ENDBRANCH 42 43
ENDBRANCH 1 42
BRANCH 1 54
ATOM     54  N   ARG F 167      -5.809  12.671  39.976  1.00 32.00 LIG-0.35  N 
ATOM     55 H    ARG F 167      -6.377  12.910  39.375  1.00 32.00 LIG 0.16  HD
ATOM     56  C   GLN F 166      -6.149  12.024  41.090  1.00 42.00 LIG 0.24  C 
ATOM     57 O    GLN F 166      -5.330  11.602  41.913  1.00 37.97 LIG-0.27  OA
BRANCH 56 58
ATOM     58  CA  GLN F 166      -7.641  11.817  41.290  1.00 41.36 LIG 0.18  C 
BRANCH 58 59
ATOM     59  CB  GLN F 166      -8.349  13.176  41.233  1.00 34.92 LIG 0.04  C 
BRANCH 59 60
ATOM     60  CG  GLN F 166      -9.403  13.391  42.291  1.00 32.73 LIG 0.10  C 
BRANCH 60 61
ATOM     61  CD  GLN F 166      -9.711  14.863  42.487  1.00 43.28 LIG 0.21  C 
ATOM     62  NE2 GLN F 166      -8.710  15.713  42.283  1.00 36.91 LIG-0.37  N 
ATOM     63 21HE GLN F 166      -7.937  15.418  42.049  1.00 36.91 LIG 0.16  HD
ATOM     64 22HE GLN F 166      -8.836  16.558  42.385  1.00 36.91 LIG 0.16  HD
ATOM     65 OE1  GLN F 166     -10.841  15.232  42.824  1.00 42.55 LIG-0.27  OA
ENDBRANCH 60 61
ENDBRANCH 59 60
ENDBRANCH 58 59
BRANCH 58 66
ATOM     66  N   GLN F 166      -7.858  11.131  42.555  1.00 35.11 LIG-0.35  N 
ATOM     67  C   THR F 165      -7.842   9.805  42.654  1.00 35.16 LIG 0.24  C 
ATOM     68 O    THR F 165      -7.716   9.069  41.667  1.00 30.91 LIG-0.27  OA
ATOM     69 H    GLN F 166      -7.995  11.656  43.221  1.00 35.11 LIG 0.16  HD
BRANCH 67 70
ATOM     70  CA  THR F 165      -7.988   9.189  44.039  1.00 44.00 LIG 0.20  C 
BRANCH 70 71
ATOM     71  CB  THR F 165      -9.449   8.793  44.282  1.00 46.85 LIG 0.15  C 
ATOM     72  CG2 THR F 165      -9.815   7.565  43.446  1.00 37.95 LIG 0.04  C 
BRANCH 71 73
ATOM     73 OG1  THR F 165      -9.646   8.520  45.676  1.00 45.14 LIG-0.39  OA
ATOM     74 HG1  THR F 165     -10.466   8.421  45.829  1.00 45.14 LIG 0.21  HD
ENDBRANCH 71 73
ENDBRANCH 70 71
BRANCH 70 75
ATOM     75  N   THR F 165      -7.517  10.079  45.094  1.00 38.01 LIG-0.34  N 
ATOM     76 H    THR F 165      -8.143  10.507  45.499  1.00 38.01 LIG 0.16  HD
ATOM     77  C   THR F 164      -6.223  10.206  45.390  1.00 57.69 LIG 0.26  C 
ATOM     78 O    THR F 164      -5.336   9.582  44.798  1.00 49.67 LIG-0.27  OA
BRANCH 77 79
ATOM     79  CA  THR F 164      -5.879  11.184  46.519  1.00 56.73 LIG 0.43  C 
ATOM     80  N   THR F 164      -6.947  11.223  47.515  1.00 65.32 LIG 0.62  N 
BRANCH 79 81
ATOM     81  CB  THR F 164      -4.519  10.792  47.155  1.00 58.05 LIG 0.16  C 
ATOM     82  CG2 THR F 164      -4.598   9.390  47.755  1.00 51.52 LIG 0.04  C 
BRANCH 81 83
ATOM     83 OG1  THR F 164      -3.483  10.826  46.164  1.00 58.15 LIG-0.39  OA
ATOM     84 HG1  THR F 164      -3.825  10.768  45.399  1.00 58.15 LIG 0.21  HD
ENDBRANCH 81 83
ENDBRANCH 79 81
ENDBRANCH 77 79
ENDBRANCH 70 75
ENDBRANCH 67 70
ENDBRANCH 58 66
ENDBRANCH 56 58
ENDBRANCH 1 54
TORSDOF 35
ENDMDL
MODEL 34
USER: ADFR SOLUTION from run 28
USER: SCORE 25.258448 LL:  -4.175 LR: -22.562 RR:   0.000 FEB: -12.121
USER: RMSD 7.128109
USER: SEED 27
USER: STATUS no improvement in best in 7 clusters for 5 generations
USER: GENES 37
USER: genes 0 Translation |==|  0.40365 0.59304 0.52246
USER: genes 1 Rotation |==|  0.75193 0.64285 0.55695 0.90358
USER: genes 2 Torsion [N]-CA--C-[N] |==|  0.35937
USER: genes 3 Torsion [C]-N--CA-[C] |==|  0.85524
USER: genes 4 Torsion [N]-CA--CB-[CG] |==|  0.46496
USER: genes 5 Torsion [CA]-CB--CG-[CD] |==|  0.39027
USER: genes 6 Torsion [CB]-CG--CD-[CE] |==|  0.33980
USER: genes 7 Torsion [CG]-CD--CE-[NZ] |==|  0.70470
USER: genes 8 Torsion [CD]-CE--NZ-[HZ3] |==|  0.47650
USER: genes 9 Torsion [N]-CA--C-[N] |==|  0.34701
USER: genes 10 Torsion [C]-N--CA-[C] |==|  0.64929
USER: genes 11 Torsion [N]-CA--C-[N] |==|  0.31247
USER: genes 12 Torsion [C]-N--CA-[C] |==|  0.18859
USER: genes 13 Torsion [N]-CA--C-[O] |==|  0.64290
USER: genes 14 Torsion [N]-CA--CB-[OG] |==|  0.83999
USER: genes 15 Torsion [CA]-CB--OG-[HG] |==|  0.51942
USER: genes 16 Torsion [N]-CA--CB-[CG] |==|  0.73910
USER: genes 17 Torsion [CA]-CB--CG-[CD] |==|  0.28940
USER: genes 18 Torsion [CB]-CG--CD-[NE] |==|  0.36686
USER: genes 19 Torsion [CG]-CD--NE-[CZ] |==|  0.73890
USER: genes 20 Torsion [C]-CA--CB-[CG] |==|  0.27520
USER: genes 21 Torsion [CA]-CB--CG-[CD] |==|  0.81814
USER: genes 22 Torsion [CB]-CG--CD-[NE] |==|  0.31811
USER: genes 23 Torsion [CG]-CD--NE-[CZ] |==|  0.50944
USER: genes 24 Torsion [C]-CA--N-[C] |==|  0.77070
USER: genes 25 Torsion [N]-C--CA-[N] |==|  0.91735
USER: genes 26 Torsion [C]-CA--CB-[CG] |==|  0.40472
USER: genes 27 Torsion [CA]-CB--CG-[CD] |==|  0.30447
USER: genes 28 Torsion [CB]-CG--CD-[NE2] |==|  0.65345
USER: genes 29 Torsion [C]-CA--N-[C] |==|  0.23754
USER: genes 30 Torsion [N]-C--CA-[N] |==|  0.45445
USER: genes 31 Torsion [C]-CA--CB-[CG2] |==|  0.81253
USER: genes 32 Torsion [CA]-CB--OG1-[HG1] |==|  0.81520
USER: genes 33 Torsion [C]-CA--N-[C] |==|  0.82706
USER: genes 34 Torsion [N]-C--CA-[N] |==|  0.51638
USER: genes 35 Torsion [C]-CA--CB-[OG1] |==|  0.20160
USER: genes 36 Torsion [CA]-CB--OG1-[HG1] |==|  0.20306
ROOT
ATOM      1  CA  ARG F 167      -3.596  20.533  39.102  1.00 38.85 LIG 0.18  C 
ENDROOT
BRANCH 1 2
ATOM      2  C   ARG F 167      -3.962  19.281  38.324  1.00 41.97 LIG 0.24  C 
ATOM      3  N   LYS F 168      -3.936  18.141  39.016  1.00 42.42 LIG-0.35  N 
ATOM      4 H    LYS F 168      -3.655  18.064  39.825  1.00 42.42 LIG 0.16  HD
ATOM      5 O    ARG F 167      -4.248  19.340  37.125  1.00 34.60 LIG-0.27  OA
BRANCH 3 6
ATOM      6  CA  LYS F 168      -4.409  16.906  38.405  1.00 39.35 LIG 0.18  C 
BRANCH 6 7
ATOM      7  CB  LYS F 168      -4.422  15.764  39.424  1.00 43.51 LIG 0.04  C 
BRANCH 7 8
ATOM      8  CG  LYS F 168      -5.174  14.528  38.969  1.00 39.69 LIG 0.00  C 
BRANCH 8 9
ATOM      9  CD  LYS F 168      -4.468  13.239  39.382  1.00 48.24 LIG 0.03  C 
BRANCH 9 10
ATOM     10  CE  LYS F 168      -5.367  12.345  40.238  1.00 54.37 LIG 0.23  C 
BRANCH 10 11
ATOM     11  NZ  LYS F 168      -4.993  12.326  41.689  1.00 52.23 LIG-0.08  N 
ATOM     12 HZ3  LYS F 168      -5.618  11.893  42.152  1.00 52.23 LIG 0.27  HD
ATOM     13 HZ1  LYS F 168      -4.211  11.914  41.789  1.00 52.23 LIG 0.27  HD
ATOM     14 HZ2  LYS F 168      -4.928  13.161  41.990  1.00 52.23 LIG 0.27  HD
ENDBRANCH 10 11
ENDBRANCH 9 10
ENDBRANCH 8 9
ENDBRANCH 7 8
ENDBRANCH 6 7
BRANCH 6 15
ATOM     15  C   LYS F 168      -5.806  17.118  37.832  1.00 30.99 LIG 0.24  C 
ATOM     16 O    LYS F 168      -6.719  17.574  38.529  1.00 32.09 LIG-0.27  OA
ATOM     17  N   ARG F 169      -5.960  16.822  36.544  1.00 23.74 LIG-0.35  N 
ATOM     18 H    ARG F 169      -5.332  16.542  36.028  1.00 23.74 LIG 0.16  HD
BRANCH 17 19
ATOM     19  CA  ARG F 169      -7.263  16.963  35.912  1.00 28.77 LIG 0.18  C 
BRANCH 19 20
ATOM     20  C   ARG F 169      -7.658  15.656  35.232  1.00 37.10 LIG 0.24  C 
ATOM     21  N   SER F 170      -8.692  15.020  35.779  1.00 32.48 LIG-0.34  N 
ATOM     22 H    SER F 170      -9.197  15.369  36.381  1.00 32.48 LIG 0.16  HD
ATOM     23 O    ARG F 169      -7.026  15.216  34.261  1.00 33.53 LIG-0.27  OA
BRANCH 21 24
ATOM     24  CA  SER F 170      -9.071  13.657  35.405  1.00 32.11 LIG 0.19  C 
BRANCH 24 25
ATOM     25  C   SER F 170      -8.036  12.612  35.841  1.00 36.47 LIG 0.22  C 
ATOM     26 O    SER F 170      -7.586  11.791  35.041  1.00 35.83 LIG-0.29  OA
ENDBRANCH 24 25
BRANCH 24 27
ATOM     27  CB  SER F 170      -9.291  13.580  33.891  1.00 36.26 LIG 0.20  C 
BRANCH 27 28
ATOM     28 OG   SER F 170     -10.287  14.508  33.478  1.00 19.66 LIG-0.40  OA
ATOM     29 HG   SER F 170     -10.464  14.388  32.666  1.00 19.66 LIG 0.21  HD
ENDBRANCH 27 28
ENDBRANCH 24 27
ENDBRANCH 21 24
ENDBRANCH 19 20
BRANCH 19 30
ATOM     30  CB  ARG F 169      -7.263  18.132  34.918  1.00 32.99 LIG 0.04  C 
BRANCH 30 31
ATOM     31  CG  ARG F 169      -7.739  19.479  35.437  1.00 34.51 LIG 0.02  C 
BRANCH 31 32
ATOM     32  CD  ARG F 169      -6.520  20.392  35.667  1.00 39.71 LIG 0.14  C 
BRANCH 32 33
ATOM     33  NE  ARG F 169      -6.747  21.708  35.073  1.00 37.23 LIG-0.23  N 
ATOM     34  CZ  ARG F 169      -6.367  22.084  33.853  1.00 33.71 LIG 0.67  C 
ATOM     35  NH2 ARG F 169      -6.650  23.316  33.449  1.00 35.73 LIG-0.23  N 
ATOM     36  NH1 ARG F 169      -5.712  21.245  33.042  1.00 22.18 LIG-0.23  N 
ATOM     37 2HH2 ARG F 169      -6.413  23.576  32.664  1.00 35.73 LIG 0.17  HD
ATOM     38 1HH2 ARG F 169      -7.071  23.854  33.972  1.00 35.73 LIG 0.17  HD
ATOM     39 1HH1 ARG F 169      -5.530  20.447  33.305  1.00 22.18 LIG 0.17  HD
ATOM     40 2HH1 ARG F 169      -5.474  21.505  32.257  1.00 22.18 LIG 0.17  HD
ATOM     41 HE   ARG F 169      -7.162  22.290  35.552  1.00 37.23 LIG 0.18  HD
ENDBRANCH 32 33
ENDBRANCH 31 32
ENDBRANCH 30 31
ENDBRANCH 19 30
ENDBRANCH 17 19
ENDBRANCH 6 15
ENDBRANCH 3 6
ENDBRANCH 1 2
BRANCH 1 42
ATOM     42  CB  ARG F 167      -4.848  21.385  39.342  1.00 34.27 LIG 0.04  C 
BRANCH 42 43
ATOM     43  CG  ARG F 167      -5.443  21.199  40.724  1.00 36.76 LIG 0.02  C 
BRANCH 43 44
ATOM     44  CD  ARG F 167      -5.962  19.798  40.891  1.00 47.53 LIG 0.14  C 
BRANCH 44 45
ATOM     45  NE  ARG F 167      -5.202  19.074  41.901  1.00 46.15 LIG-0.23  N 
ATOM     46 HE   ARG F 167      -4.587  19.495  42.328  1.00 46.15 LIG 0.18  HD
ATOM     47  CZ  ARG F 167      -5.412  17.798  42.196  1.00 54.25 LIG 0.67  C 
ATOM     48  NH2 ARG F 167      -4.686  17.197  43.134  1.00 44.38 LIG-0.23  N 
ATOM     49  NH1 ARG F 167      -6.354  17.126  41.541  1.00 45.80 LIG-0.23  N 
ATOM     50 1HH2 ARG F 167      -4.077  17.637  43.553  1.00 44.38 LIG 0.17  HD
ATOM     51 2HH2 ARG F 167      -4.826  16.370  43.322  1.00 44.38 LIG 0.17  HD
ATOM     52 2HH1 ARG F 167      -6.498  16.299  41.725  1.00 45.80 LIG 0.17  HD
ATOM     53 1HH1 ARG F 167      -6.819  17.519  40.933  1.00 45.80 LIG 0.17  HD
ENDBRANCH 44 45
ENDBRANCH 43 44
ENDBRANCH 42 43
ENDBRANCH 1 42
BRANCH 1 54
ATOM     54  N   ARG F 167      -2.580  21.261  38.357  1.00 32.00 LIG-0.35  N 
ATOM     55 H    ARG F 167      -2.893  21.903  37.877  1.00 32.00 LIG 0.16  HD
ATOM     56  C   GLN F 166      -1.285  20.955  38.419  1.00 42.00 LIG 0.24  C 
ATOM     57 O    GLN F 166      -0.821  20.093  39.172  1.00 37.97 LIG-0.27  OA
BRANCH 56 58
ATOM     58  CA  GLN F 166      -0.384  21.757  37.495  1.00 41.36 LIG 0.18  C 
BRANCH 58 59
ATOM     59  CB  GLN F 166       0.166  22.969  38.257  1.00 34.92 LIG 0.04  C 
BRANCH 59 60
ATOM     60  CG  GLN F 166       1.569  23.376  37.880  1.00 32.73 LIG 0.10  C 
BRANCH 60 61
ATOM     61  CD  GLN F 166       1.589  24.688  37.119  1.00 43.28 LIG 0.21  C 
ATOM     62  NE2 GLN F 166       2.187  24.678  35.932  1.00 36.91 LIG-0.37  N 
ATOM     63 21HE GLN F 166       2.535  23.951  35.632  1.00 36.91 LIG 0.16  HD
ATOM     64 22HE GLN F 166       2.226  25.399  35.464  1.00 36.91 LIG 0.16  HD
ATOM     65 OE1  GLN F 166       1.074  25.703  37.597  1.00 42.55 LIG-0.27  OA
ENDBRANCH 60 61
ENDBRANCH 59 60
ENDBRANCH 58 59
BRANCH 58 66
ATOM     66  N   GLN F 166      -1.140  22.141  36.313  1.00 35.11 LIG-0.35  N 
ATOM     67  C   THR F 165      -1.898  23.233  36.278  1.00 35.16 LIG 0.24  C 
ATOM     68 O    THR F 165      -2.068  23.952  37.272  1.00 30.91 LIG-0.27  OA
ATOM     69 H    GLN F 166      -1.052  21.603  35.648  1.00 35.11 LIG 0.16  HD
BRANCH 67 70
ATOM     70  CA  THR F 165      -2.574  23.595  34.963  1.00 44.00 LIG 0.20  C 
BRANCH 70 71
ATOM     71  CB  THR F 165      -1.534  24.129  33.972  1.00 46.85 LIG 0.15  C 
ATOM     72  CG2 THR F 165      -0.985  25.475  34.448  1.00 37.95 LIG 0.04  C 
BRANCH 71 73
ATOM     73 OG1  THR F 165      -0.468  23.179  33.837  1.00 45.14 LIG-0.39  OA
ATOM     74 HG1  THR F 165      -0.048  23.123  34.562  1.00 45.14 LIG 0.21  HD
ENDBRANCH 71 73
ENDBRANCH 70 71
BRANCH 70 75
ATOM     75  N   THR F 165      -3.653  24.560  35.142  1.00 38.01 LIG-0.34  N 
ATOM     76 H    THR F 165      -3.527  25.308  34.737  1.00 38.01 LIG 0.16  HD
ATOM     77  C   THR F 164      -4.735  24.288  35.873  1.00 57.69 LIG 0.26  C 
ATOM     78 O    THR F 164      -4.900  23.207  36.448  1.00 49.67 LIG-0.27  OA
BRANCH 77 79
ATOM     79  CA  THR F 164      -5.781  25.402  35.975  1.00 56.73 LIG 0.43  C 
ATOM     80  N   THR F 164      -6.842  25.035  36.909  1.00 65.32 LIG 0.62  N 
BRANCH 79 81
ATOM     81  CB  THR F 164      -5.093  26.731  36.387  1.00 58.05 LIG 0.16  C 
ATOM     82  CG2 THR F 164      -4.167  26.502  37.580  1.00 51.52 LIG 0.04  C 
BRANCH 81 83
ATOM     83 OG1  THR F 164      -4.332  27.253  35.289  1.00 58.15 LIG-0.39  OA
ATOM     84 HG1  THR F 164      -4.853  27.563  34.708  1.00 58.15 LIG 0.21  HD
ENDBRANCH 81 83
ENDBRANCH 79 81
ENDBRANCH 77 79
ENDBRANCH 70 75
ENDBRANCH 67 70
ENDBRANCH 58 66
ENDBRANCH 56 58
ENDBRANCH 1 54
TORSDOF 35
ENDMDL
MODEL 35
USER: ADFR SOLUTION from run 49
USER: SCORE 24.711921 LL:  -4.099 LR: -22.525 RR:   0.000 FEB: -12.084
USER: RMSD 12.413803
USER: SEED 48
USER: STATUS no improvement in best in 6 clusters for 5 generations
USER: GENES 37
USER: genes 0 Translation |==|  0.36265 0.31650 0.58166
USER: genes 1 Rotation |==|  0.39159 0.25856 0.07837 0.54670
USER: genes 2 Torsion [N]-CA--C-[N] |==|  0.20000
USER: genes 3 Torsion [C]-N--CA-[C] |==|  0.61058
USER: genes 4 Torsion [N]-CA--CB-[CG] |==|  0.21915
USER: genes 5 Torsion [CA]-CB--CG-[CD] |==|  0.84939
USER: genes 6 Torsion [CB]-CG--CD-[CE] |==|  0.33122
USER: genes 7 Torsion [CG]-CD--CE-[NZ] |==|  0.66361
USER: genes 8 Torsion [CD]-CE--NZ-[HZ3] |==|  0.83520
USER: genes 9 Torsion [N]-CA--C-[N] |==|  0.51867
USER: genes 10 Torsion [C]-N--CA-[C] |==|  0.58472
USER: genes 11 Torsion [N]-CA--C-[N] |==|  0.90504
USER: genes 12 Torsion [C]-N--CA-[C] |==|  0.63973
USER: genes 13 Torsion [N]-CA--C-[O] |==|  0.76694
USER: genes 14 Torsion [N]-CA--CB-[OG] |==|  0.44023
USER: genes 15 Torsion [CA]-CB--OG-[HG] |==|  0.66352
USER: genes 16 Torsion [N]-CA--CB-[CG] |==|  0.49178
USER: genes 17 Torsion [CA]-CB--CG-[CD] |==|  0.54262
USER: genes 18 Torsion [CB]-CG--CD-[NE] |==|  0.83542
USER: genes 19 Torsion [CG]-CD--NE-[CZ] |==|  0.87326
USER: genes 20 Torsion [C]-CA--CB-[CG] |==|  0.56726
USER: genes 21 Torsion [CA]-CB--CG-[CD] |==|  0.84558
USER: genes 22 Torsion [CB]-CG--CD-[NE] |==|  0.30403
USER: genes 23 Torsion [CG]-CD--NE-[CZ] |==|  0.34689
USER: genes 24 Torsion [C]-CA--N-[C] |==|  0.18094
USER: genes 25 Torsion [N]-C--CA-[N] |==|  0.39137
USER: genes 26 Torsion [C]-CA--CB-[CG] |==|  0.83085
USER: genes 27 Torsion [CA]-CB--CG-[CD] |==|  0.38272
USER: genes 28 Torsion [CB]-CG--CD-[NE2] |==|  0.13232
USER: genes 29 Torsion [C]-CA--N-[C] |==|  0.82146
USER: genes 30 Torsion [N]-C--CA-[N] |==|  0.88797
USER: genes 31 Torsion [C]-CA--CB-[CG2] |==|  0.24403
USER: genes 32 Torsion [CA]-CB--OG1-[HG1] |==|  0.85009
USER: genes 33 Torsion [C]-CA--N-[C] |==|  0.83325
USER: genes 34 Torsion [N]-C--CA-[N] |==|  0.10778
USER: genes 35 Torsion [C]-CA--CB-[OG1] |==|  0.18522
USER: genes 36 Torsion [CA]-CB--OG1-[HG1] |==|  0.51159
ROOT
ATOM      1  CA  ARG F 167      -4.610  12.859  40.256  1.00 38.85 LIG 0.18  C 
ENDROOT
BRANCH 1 2
ATOM      2  C   ARG F 167      -4.411  13.902  39.171  1.00 41.97 LIG 0.24  C 
ATOM      3  N   LYS F 168      -4.464  15.173  39.573  1.00 42.42 LIG-0.35  N 
ATOM      4 H    LYS F 168      -4.680  15.429  40.365  1.00 42.42 LIG 0.16  HD
ATOM      5 O    ARG F 167      -4.225  13.569  37.997  1.00 34.60 LIG-0.27  OA
BRANCH 3 6
ATOM      6  CA  LYS F 168      -4.143  16.247  38.642  1.00 39.35 LIG 0.18  C 
BRANCH 6 7
ATOM      7  CB  LYS F 168      -5.416  16.845  38.039  1.00 43.51 LIG 0.04  C 
BRANCH 7 8
ATOM      8  CG  LYS F 168      -6.142  17.817  38.949  1.00 39.69 LIG 0.00  C 
BRANCH 8 9
ATOM      9  CD  LYS F 168      -6.456  17.205  40.312  1.00 48.24 LIG 0.03  C 
BRANCH 9 10
ATOM     10  CE  LYS F 168      -5.786  17.976  41.452  1.00 54.37 LIG 0.23  C 
BRANCH 10 11
ATOM     11  NZ  LYS F 168      -4.856  17.142  42.279  1.00 52.23 LIG-0.08  N 
ATOM     12 HZ3  LYS F 168      -5.306  16.462  42.637  1.00 52.23 LIG 0.27  HD
ATOM     13 HZ1  LYS F 168      -4.202  16.826  41.764  1.00 52.23 LIG 0.27  HD
ATOM     14 HZ2  LYS F 168      -4.507  17.641  42.928  1.00 52.23 LIG 0.27  HD
ENDBRANCH 10 11
ENDBRANCH 9 10
ENDBRANCH 8 9
ENDBRANCH 7 8
ENDBRANCH 6 7
BRANCH 6 15
ATOM     15  C   LYS F 168      -3.340  17.326  39.359  1.00 30.99 LIG 0.24  C 
ATOM     16 O    LYS F 168      -2.917  17.149  40.507  1.00 32.09 LIG-0.27  OA
ATOM     17  N   ARG F 169      -3.096  18.433  38.664  1.00 23.74 LIG-0.35  N 
ATOM     18 H    ARG F 169      -3.344  18.565  37.851  1.00 23.74 LIG 0.16  HD
BRANCH 17 19
ATOM     19  CA  ARG F 169      -2.363  19.533  39.272  1.00 28.77 LIG 0.18  C 
BRANCH 19 20
ATOM     20  C   ARG F 169      -2.826  20.860  38.679  1.00 37.10 LIG 0.24  C 
ATOM     21  N   SER F 170      -3.169  20.819  37.394  1.00 32.48 LIG-0.34  N 
ATOM     22 H    SER F 170      -3.262  20.087  36.952  1.00 32.48 LIG 0.16  HD
ATOM     23 O    ARG F 169      -2.842  21.899  39.353  1.00 33.53 LIG-0.27  OA
BRANCH 21 24
ATOM     24  CA  SER F 170      -3.424  22.024  36.603  1.00 32.11 LIG 0.19  C 
BRANCH 24 25
ATOM     25  C   SER F 170      -4.754  21.964  35.840  1.00 36.47 LIG 0.22  C 
ATOM     26 O    SER F 170      -4.835  21.403  34.747  1.00 35.83 LIG-0.29  OA
ENDBRANCH 24 25
BRANCH 24 27
ATOM     27  CB  SER F 170      -2.267  22.253  35.625  1.00 36.26 LIG 0.20  C 
BRANCH 27 28
ATOM     28 OG   SER F 170      -2.679  23.075  34.539  1.00 19.66 LIG-0.40  OA
ATOM     29 HG   SER F 170      -2.570  22.662  33.817  1.00 19.66 LIG 0.21  HD
ENDBRANCH 27 28
ENDBRANCH 24 27
ENDBRANCH 21 24
ENDBRANCH 19 20
BRANCH 19 30
ATOM     30  CB  ARG F 169      -0.850  19.341  39.098  1.00 32.99 LIG 0.04  C 
BRANCH 30 31
ATOM     31  CG  ARG F 169       0.050  20.449  39.623  1.00 34.51 LIG 0.02  C 
BRANCH 31 32
ATOM     32  CD  ARG F 169       1.461  20.277  39.030  1.00 39.71 LIG 0.14  C 
BRANCH 32 33
ATOM     33  NE  ARG F 169       2.015  18.975  39.398  1.00 37.23 LIG-0.23  N 
ATOM     34  CZ  ARG F 169       1.981  18.435  40.615  1.00 33.71 LIG 0.67  C 
ATOM     35  NH2 ARG F 169       2.524  17.237  40.796  1.00 35.73 LIG-0.23  N 
ATOM     36  NH1 ARG F 169       1.414  19.076  41.643  1.00 22.18 LIG-0.23  N 
ATOM     37 2HH2 ARG F 169       2.511  16.872  41.574  1.00 35.73 LIG 0.17  HD
ATOM     38 1HH2 ARG F 169       2.888  16.826  40.134  1.00 35.73 LIG 0.17  HD
ATOM     39 1HH1 ARG F 169       1.062  19.852  41.525  1.00 22.18 LIG 0.17  HD
ATOM     40 2HH1 ARG F 169       1.401  18.712  42.422  1.00 22.18 LIG 0.17  HD
ATOM     41 HE   ARG F 169       2.396  18.519  38.776  1.00 37.23 LIG 0.18  HD
ENDBRANCH 32 33
ENDBRANCH 31 32
ENDBRANCH 30 31
ENDBRANCH 19 30
ENDBRANCH 17 19
ENDBRANCH 6 15
ENDBRANCH 3 6
ENDBRANCH 1 2
BRANCH 1 42
ATOM     42  CB  ARG F 167      -4.168  11.482  39.746  1.00 34.27 LIG 0.04  C 
BRANCH 42 43
ATOM     43  CG  ARG F 167      -4.835  10.331  40.473  1.00 36.76 LIG 0.02  C 
BRANCH 43 44
ATOM     44  CD  ARG F 167      -4.603  10.438  41.955  1.00 47.53 LIG 0.14  C 
BRANCH 44 45
ATOM     45  NE  ARG F 167      -5.831  10.791  42.654  1.00 46.15 LIG-0.23  N 
ATOM     46 HE   ARG F 167      -6.251  11.500  42.408  1.00 46.15 LIG 0.18  HD
ATOM     47  CZ  ARG F 167      -6.334  10.075  43.650  1.00 54.25 LIG 0.67  C 
ATOM     48  NH2 ARG F 167      -7.463  10.451  44.243  1.00 44.38 LIG-0.23  N 
ATOM     49  NH1 ARG F 167      -5.695   8.981  44.051  1.00 45.80 LIG-0.23  N 
ATOM     50 1HH2 ARG F 167      -7.871  11.161  43.981  1.00 44.38 LIG 0.17  HD
ATOM     51 2HH2 ARG F 167      -7.786   9.983  44.889  1.00 44.38 LIG 0.17  HD
ATOM     52 2HH1 ARG F 167      -6.013   8.510  44.696  1.00 45.80 LIG 0.17  HD
ATOM     53 1HH1 ARG F 167      -4.963   8.744  43.666  1.00 45.80 LIG 0.17  HD
ENDBRANCH 44 45
ENDBRANCH 43 44
ENDBRANCH 42 43
ENDBRANCH 1 42
BRANCH 1 54
ATOM     54  N   ARG F 167      -6.010  12.865  40.654  1.00 32.00 LIG-0.35  N 
ATOM     55 H    ARG F 167      -6.140  13.117  41.466  1.00 32.00 LIG 0.16  HD
ATOM     56  C   GLN F 166      -6.994  12.512  39.829  1.00 42.00 LIG 0.24  C 
ATOM     57 O    GLN F 166      -6.821  12.234  38.637  1.00 37.97 LIG-0.27  OA
BRANCH 56 58
ATOM     58  CA  GLN F 166      -8.380  12.482  40.448  1.00 41.36 LIG 0.18  C 
BRANCH 58 59
ATOM     59  CB  GLN F 166      -8.706  11.048  40.883  1.00 34.92 LIG 0.04  C 
BRANCH 59 60
ATOM     60  CG  GLN F 166      -8.723  10.031  39.770  1.00 32.73 LIG 0.10  C 
BRANCH 60 61
ATOM     61  CD  GLN F 166      -8.048   8.736  40.179  1.00 43.28 LIG 0.21  C 
ATOM     62  NE2 GLN F 166      -8.399   8.228  41.356  1.00 36.91 LIG-0.37  N 
ATOM     63 21HE GLN F 166      -8.984   8.631  41.841  1.00 36.91 LIG 0.16  HD
ATOM     64 22HE GLN F 166      -8.041   7.497  41.633  1.00 36.91 LIG 0.16  HD
ATOM     65 OE1  GLN F 166      -7.214   8.199  39.443  1.00 42.55 LIG-0.27  OA
ENDBRANCH 60 61
ENDBRANCH 59 60
ENDBRANCH 58 59
BRANCH 58 66
ATOM     66  N   GLN F 166      -9.340  13.001  39.485  1.00 35.11 LIG-0.35  N 
ATOM     67  C   THR F 165      -9.306  14.260  39.057  1.00 35.16 LIG 0.24  C 
ATOM     68 O    THR F 165      -8.504  15.089  39.505  1.00 30.91 LIG-0.27  OA
ATOM     69 H    GLN F 166      -9.923  12.425  39.224  1.00 35.11 LIG 0.16  HD
BRANCH 67 70
ATOM     70  CA  THR F 165     -10.299  14.677  37.980  1.00 44.00 LIG 0.20  C 
BRANCH 70 71
ATOM     71  CB  THR F 165     -11.645  15.030  38.621  1.00 46.85 LIG 0.15  C 
ATOM     72  CG2 THR F 165     -11.671  16.504  39.031  1.00 37.95 LIG 0.04  C 
BRANCH 71 73
ATOM     73 OG1  THR F 165     -12.705  14.755  37.695  1.00 45.14 LIG-0.39  OA
ATOM     74 HG1  THR F 165     -12.553  15.151  36.970  1.00 45.14 LIG 0.21  HD
ENDBRANCH 71 73
ENDBRANCH 70 71
BRANCH 70 75
ATOM     75  N   THR F 165     -10.471  13.651  36.959  1.00 38.01 LIG-0.34  N 
ATOM     76 H    THR F 165     -11.277  13.359  36.886  1.00 38.01 LIG 0.16  HD
ATOM     77  C   THR F 164      -9.456  13.215  36.211  1.00 57.69 LIG 0.26  C 
ATOM     78 O    THR F 164      -8.305  13.647  36.329  1.00 49.67 LIG-0.27  OA
BRANCH 77 79
ATOM     79  CA  THR F 164      -9.790  12.129  35.183  1.00 56.73 LIG 0.43  C 
ATOM     80  N   THR F 164     -11.089  12.381  34.566  1.00 65.32 LIG 0.62  N 
BRANCH 79 81
ATOM     81  CB  THR F 164      -8.660  12.048  34.122  1.00 58.05 LIG 0.16  C 
ATOM     82  CG2 THR F 164      -8.413  13.422  33.503  1.00 51.52 LIG 0.04  C 
BRANCH 81 83
ATOM     83 OG1  THR F 164      -7.448  11.576  34.728  1.00 58.15 LIG-0.39  OA
ATOM     84 HG1  THR F 164      -6.828  11.589  34.161  1.00 58.15 LIG 0.21  HD
ENDBRANCH 81 83
ENDBRANCH 79 81
ENDBRANCH 77 79
ENDBRANCH 70 75
ENDBRANCH 67 70
ENDBRANCH 58 66
ENDBRANCH 56 58
ENDBRANCH 1 54
TORSDOF 35
ENDMDL
MODEL 36
USER: ADFR SOLUTION from run 16
USER: SCORE 21.280890 LL:  -2.929 LR: -22.507 RR:   0.000 FEB: -12.066
USER: RMSD 12.852915
USER: SEED 757153
USER: STATUS no improvement in best in 3 clusters for 5 generations
USER: GENES 37
USER: genes 0 Translation |==|  0.31481 0.23988 0.56805
USER: genes 1 Rotation |==|  0.16381 0.68144 0.82248 0.50783
USER: genes 2 Torsion [N]-CA--C-[N] |==|  0.16243
USER: genes 3 Torsion [C]-N--CA-[C] |==|  0.49846
USER: genes 4 Torsion [N]-CA--CB-[CG] |==|  0.62391
USER: genes 5 Torsion [CA]-CB--CG-[CD] |==|  0.91037
USER: genes 6 Torsion [CB]-CG--CD-[CE] |==|  0.42272
USER: genes 7 Torsion [CG]-CD--CE-[NZ] |==|  0.77215
USER: genes 8 Torsion [CD]-CE--NZ-[HZ3] |==|  0.51889
USER: genes 9 Torsion [N]-CA--C-[N] |==|  0.85800
USER: genes 10 Torsion [C]-N--CA-[C] |==|  0.18253
USER: genes 11 Torsion [N]-CA--C-[N] |==|  0.73812
USER: genes 12 Torsion [C]-N--CA-[C] |==|  0.14036
USER: genes 13 Torsion [N]-CA--C-[O] |==|  0.26737
USER: genes 14 Torsion [N]-CA--CB-[OG] |==|  0.87287
USER: genes 15 Torsion [CA]-CB--OG-[HG] |==|  0.65326
USER: genes 16 Torsion [N]-CA--CB-[CG] |==|  0.61168
USER: genes 17 Torsion [CA]-CB--CG-[CD] |==|  0.11231
USER: genes 18 Torsion [CB]-CG--CD-[NE] |==|  0.60440
USER: genes 19 Torsion [CG]-CD--NE-[CZ] |==|  0.50122
USER: genes 20 Torsion [C]-CA--CB-[CG] |==|  0.17077
USER: genes 21 Torsion [CA]-CB--CG-[CD] |==|  0.28927
USER: genes 22 Torsion [CB]-CG--CD-[NE] |==|  0.57418
USER: genes 23 Torsion [CG]-CD--NE-[CZ] |==|  0.70904
USER: genes 24 Torsion [C]-CA--N-[C] |==|  0.54231
USER: genes 25 Torsion [N]-C--CA-[N] |==|  0.23348
USER: genes 26 Torsion [C]-CA--CB-[CG] |==|  0.41825
USER: genes 27 Torsion [CA]-CB--CG-[CD] |==|  0.32271
USER: genes 28 Torsion [CB]-CG--CD-[NE2] |==|  0.57909
USER: genes 29 Torsion [C]-CA--N-[C] |==|  0.55994
USER: genes 30 Torsion [N]-C--CA-[N] |==|  0.98333
USER: genes 31 Torsion [C]-CA--CB-[CG2] |==|  0.95606
USER: genes 32 Torsion [CA]-CB--OG1-[HG1] |==|  0.53724
USER: genes 33 Torsion [C]-CA--N-[C] |==|  0.61763
USER: genes 34 Torsion [N]-C--CA-[N] |==|  0.76849
USER: genes 35 Torsion [C]-CA--CB-[OG1] |==|  0.44681
USER: genes 36 Torsion [CA]-CB--OG1-[HG1] |==|  0.12288
ROOT
ATOM      1  CA  ARG F 167      -5.794  10.733  39.991  1.00 38.85 LIG 0.18  C 
ENDROOT
BRANCH 1 2
ATOM      2  C   ARG F 167      -5.475  12.212  39.872  1.00 41.97 LIG 0.24  C 
ATOM      3  N   LYS F 168      -6.226  12.900  39.011  1.00 42.42 LIG-0.35  N 
ATOM      4 H    LYS F 168      -6.805  12.553  38.478  1.00 42.42 LIG 0.16  HD
ATOM      5 O    ARG F 167      -4.563  12.720  40.531  1.00 34.60 LIG-0.27  OA
BRANCH 3 6
ATOM      6  CA  LYS F 168      -6.100  14.349  38.927  1.00 39.35 LIG 0.18  C 
BRANCH 6 7
ATOM      7  CB  LYS F 168      -4.660  14.753  38.602  1.00 43.51 LIG 0.04  C 
BRANCH 7 8
ATOM      8  CG  LYS F 168      -4.129  15.903  39.436  1.00 39.69 LIG 0.00  C 
BRANCH 8 9
ATOM      9  CD  LYS F 168      -5.227  16.894  39.815  1.00 48.24 LIG 0.03  C 
BRANCH 9 10
ATOM     10  CE  LYS F 168      -4.917  17.616  41.128  1.00 54.37 LIG 0.23  C 
BRANCH 10 11
ATOM     11  NZ  LYS F 168      -5.276  16.826  42.349  1.00 52.23 LIG-0.08  N 
ATOM     12 HZ3  LYS F 168      -5.165  17.332  43.073  1.00 52.23 LIG 0.27  HD
ATOM     13 HZ1  LYS F 168      -6.125  16.566  42.296  1.00 52.23 LIG 0.27  HD
ATOM     14 HZ2  LYS F 168      -4.750  16.110  42.405  1.00 52.23 LIG 0.27  HD
ENDBRANCH 10 11
ENDBRANCH 9 10
ENDBRANCH 8 9
ENDBRANCH 7 8
ENDBRANCH 6 7
BRANCH 6 15
ATOM     15  C   LYS F 168      -7.052  14.887  37.865  1.00 30.99 LIG 0.24  C 
ATOM     16 O    LYS F 168      -7.804  15.838  38.106  1.00 32.09 LIG-0.27  OA
ATOM     17  N   ARG F 169      -6.990  14.301  36.673  1.00 23.74 LIG-0.35  N 
ATOM     18 H    ARG F 169      -6.448  13.666  36.467  1.00 23.74 LIG 0.16  HD
BRANCH 17 19
ATOM     19  CA  ARG F 169      -7.880  14.724  35.602  1.00 28.77 LIG 0.18  C 
BRANCH 19 20
ATOM     20  C   ARG F 169      -7.556  16.157  35.190  1.00 37.10 LIG 0.24  C 
ATOM     21  N   SER F 170      -8.284  17.098  35.788  1.00 32.48 LIG-0.34  N 
ATOM     22 H    SER F 170      -8.803  16.942  36.456  1.00 32.48 LIG 0.16  HD
ATOM     23 O    ARG F 169      -6.697  16.405  34.333  1.00 33.53 LIG-0.27  OA
BRANCH 21 24
ATOM     24  CA  SER F 170      -8.270  18.499  35.363  1.00 32.11 LIG 0.19  C 
BRANCH 24 25
ATOM     25  C   SER F 170      -8.499  18.664  33.856  1.00 36.47 LIG 0.22  C 
ATOM     26 O    SER F 170      -9.619  18.907  33.406  1.00 35.83 LIG-0.29  OA
ENDBRANCH 24 25
BRANCH 24 27
ATOM     27  CB  SER F 170      -6.942  19.147  35.768  1.00 36.26 LIG 0.20  C 
BRANCH 27 28
ATOM     28 OG   SER F 170      -6.608  18.815  37.111  1.00 19.66 LIG-0.40  OA
ATOM     29 HG   SER F 170      -6.483  19.519  37.552  1.00 19.66 LIG 0.21  HD
ENDBRANCH 27 28
ENDBRANCH 24 27
ENDBRANCH 21 24
ENDBRANCH 19 20
BRANCH 19 30
ATOM     30  CB  ARG F 169      -9.348  14.584  36.026  1.00 32.99 LIG 0.04  C 
BRANCH 30 31
ATOM     31  CG  ARG F 169     -10.320  14.062  34.980  1.00 34.51 LIG 0.02  C 
BRANCH 31 32
ATOM     32  CD  ARG F 169      -9.647  12.925  34.188  1.00 39.71 LIG 0.14  C 
BRANCH 32 33
ATOM     33  NE  ARG F 169     -10.030  12.987  32.778  1.00 37.23 LIG-0.23  N 
ATOM     34  CZ  ARG F 169      -9.628  12.144  31.828  1.00 33.71 LIG 0.67  C 
ATOM     35  NH2 ARG F 169     -10.066  12.326  30.589  1.00 35.73 LIG-0.23  N 
ATOM     36  NH1 ARG F 169      -8.800  11.131  32.105  1.00 22.18 LIG-0.23  N 
ATOM     37 2HH2 ARG F 169      -9.818  11.791  29.962  1.00 35.73 LIG 0.17  HD
ATOM     38 1HH2 ARG F 169     -10.598  12.978  30.412  1.00 35.73 LIG 0.17  HD
ATOM     39 1HH1 ARG F 169      -8.517  11.014  32.909  1.00 22.18 LIG 0.17  HD
ATOM     40 2HH1 ARG F 169      -8.550  10.596  31.480  1.00 22.18 LIG 0.17  HD
ATOM     41 HE   ARG F 169     -10.560  13.622  32.542  1.00 37.23 LIG 0.18  HD
ENDBRANCH 32 33
ENDBRANCH 31 32
ENDBRANCH 30 31
ENDBRANCH 19 30
ENDBRANCH 17 19
ENDBRANCH 6 15
ENDBRANCH 3 6
ENDBRANCH 1 2
BRANCH 1 42
ATOM     42  CB  ARG F 167      -4.875  10.081  41.032  1.00 34.27 LIG 0.04  C 
BRANCH 42 43
ATOM     43  CG  ARG F 167      -5.040  10.660  42.422  1.00 36.76 LIG 0.02  C 
BRANCH 43 44
ATOM     44  CD  ARG F 167      -5.822   9.720  43.297  1.00 47.53 LIG 0.14  C 
BRANCH 44 45
ATOM     45  NE  ARG F 167      -6.518  10.442  44.353  1.00 46.15 LIG-0.23  N 
ATOM     46 HE   ARG F 167      -7.223  10.888  44.145  1.00 46.15 LIG 0.18  HD
ATOM     47  CZ  ARG F 167      -6.120  10.446  45.618  1.00 54.25 LIG 0.67  C 
ATOM     48  NH2 ARG F 167      -6.805  11.123  46.535  1.00 44.38 LIG-0.23  N 
ATOM     49  NH1 ARG F 167      -5.027   9.770  45.957  1.00 45.80 LIG-0.23  N 
ATOM     50 1HH2 ARG F 167      -7.509  11.561  46.308  1.00 44.38 LIG 0.17  HD
ATOM     51 2HH2 ARG F 167      -6.543  11.123  47.354  1.00 44.38 LIG 0.17  HD
ATOM     52 2HH1 ARG F 167      -4.760   9.767  46.774  1.00 45.80 LIG 0.17  HD
ATOM     53 1HH1 ARG F 167      -4.586   9.337  45.359  1.00 45.80 LIG 0.17  HD
ENDBRANCH 44 45
ENDBRANCH 43 44
ENDBRANCH 42 43
ENDBRANCH 1 42
BRANCH 1 54
ATOM     54  N   ARG F 167      -5.649  10.120  38.680  1.00 32.00 LIG-0.35  N 
ATOM     55 H    ARG F 167      -5.221  10.606  38.113  1.00 32.00 LIG 0.16  HD
ATOM     56  C   GLN F 166      -6.136   8.914  38.391  1.00 42.00 LIG 0.24  C 
ATOM     57 O    GLN F 166      -6.674   8.177  39.223  1.00 37.97 LIG-0.27  OA
BRANCH 56 58
ATOM     58  CA  GLN F 166      -5.979   8.480  36.944  1.00 41.36 LIG 0.18  C 
BRANCH 58 59
ATOM     59  CB  GLN F 166      -7.097   7.493  36.590  1.00 34.92 LIG 0.04  C 
BRANCH 59 60
ATOM     60  CG  GLN F 166      -7.519   7.499  35.142  1.00 32.73 LIG 0.10  C 
BRANCH 60 61
ATOM     61  CD  GLN F 166      -7.232   6.172  34.466  1.00 43.28 LIG 0.21  C 
ATOM     62  NE2 GLN F 166      -6.999   6.209  33.158  1.00 36.91 LIG-0.37  N 
ATOM     63 21HE GLN F 166      -7.014   6.960  32.739  1.00 36.91 LIG 0.16  HD
ATOM     64 22HE GLN F 166      -6.834   5.481  32.730  1.00 36.91 LIG 0.16  HD
ATOM     65 OE1  GLN F 166      -7.222   5.122  35.115  1.00 42.55 LIG-0.27  OA
ENDBRANCH 60 61
ENDBRANCH 59 60
ENDBRANCH 58 59
BRANCH 58 66
ATOM     66  N   GLN F 166      -4.654   7.906  36.764  1.00 35.11 LIG-0.35  N 
ATOM     67  C   THR F 165      -4.071   7.826  35.571  1.00 35.16 LIG 0.24  C 
ATOM     68 O    THR F 165      -4.647   8.165  34.530  1.00 30.91 LIG-0.27  OA
ATOM     69 H    GLN F 166      -4.289   7.628  37.491  1.00 35.11 LIG 0.16  HD
BRANCH 67 70
ATOM     70  CA  THR F 165      -2.646   7.292  35.504  1.00 44.00 LIG 0.20  C 
BRANCH 70 71
ATOM     71  CB  THR F 165      -2.612   6.000  34.680  1.00 46.85 LIG 0.15  C 
ATOM     72  CG2 THR F 165      -4.024   5.435  34.514  1.00 37.95 LIG 0.04  C 
BRANCH 71 73
ATOM     73 OG1  THR F 165      -2.030   6.266  33.397  1.00 45.14 LIG-0.39  OA
ATOM     74 HG1  THR F 165      -2.174   5.617  32.883  1.00 45.14 LIG 0.21  HD
ENDBRANCH 71 73
ENDBRANCH 70 71
BRANCH 70 75
ATOM     75  N   THR F 165      -2.075   7.071  36.828  1.00 38.01 LIG-0.34  N 
ATOM     76 H    THR F 165      -2.616   6.706  37.388  1.00 38.01 LIG 0.16  HD
ATOM     77  C   THR F 164      -0.820   7.412  37.125  1.00 57.69 LIG 0.26  C 
ATOM     78 O    THR F 164      -0.057   7.935  36.307  1.00 49.67 LIG-0.27  OA
BRANCH 77 79
ATOM     79  CA  THR F 164      -0.362   7.124  38.559  1.00 56.73 LIG 0.43  C 
ATOM     80  N   THR F 164      -0.774   8.196  39.461  1.00 65.32 LIG 0.62  N 
BRANCH 79 81
ATOM     81  CB  THR F 164      -0.914   5.748  39.018  1.00 58.05 LIG 0.16  C 
ATOM     82  CG2 THR F 164      -0.832   4.735  37.877  1.00 51.52 LIG 0.04  C 
BRANCH 81 83
ATOM     83 OG1  THR F 164      -0.160   5.263  40.138  1.00 58.15 LIG-0.39  OA
ATOM     84 HG1  THR F 164      -0.037   5.889  40.684  1.00 58.15 LIG 0.21  HD
ENDBRANCH 81 83
ENDBRANCH 79 81
ENDBRANCH 77 79
ENDBRANCH 70 75
ENDBRANCH 67 70
ENDBRANCH 58 66
ENDBRANCH 56 58
ENDBRANCH 1 54
TORSDOF 35
ENDMDL
MODEL 37
USER: ADFR SOLUTION from run 65
USER: SCORE 26.076247 LL:  -4.717 LR: -22.489 RR:   0.000 FEB: -12.048
USER: RMSD 13.050289
USER: SEED 64
USER: STATUS no improvement in best in 2 clusters for 5 generations
USER: GENES 37
USER: genes 0 Translation |==|  0.30301 0.31345 0.51571
USER: genes 1 Rotation |==|  0.62014 0.20448 0.12421 0.58376
USER: genes 2 Torsion [N]-CA--C-[N] |==|  0.10740
USER: genes 3 Torsion [C]-N--CA-[C] |==|  0.73369
USER: genes 4 Torsion [N]-CA--CB-[CG] |==|  0.95244
USER: genes 5 Torsion [CA]-CB--CG-[CD] |==|  0.51830
USER: genes 6 Torsion [CB]-CG--CD-[CE] |==|  0.65478
USER: genes 7 Torsion [CG]-CD--CE-[NZ] |==|  0.37387
USER: genes 8 Torsion [CD]-CE--NZ-[HZ3] |==|  0.59513
USER: genes 9 Torsion [N]-CA--C-[N] |==|  0.25902
USER: genes 10 Torsion [C]-N--CA-[C] |==|  0.60058
USER: genes 11 Torsion [N]-CA--C-[N] |==|  0.79145
USER: genes 12 Torsion [C]-N--CA-[C] |==|  0.89199
USER: genes 13 Torsion [N]-CA--C-[O] |==|  0.36929
USER: genes 14 Torsion [N]-CA--CB-[OG] |==|  0.02497
USER: genes 15 Torsion [CA]-CB--OG-[HG] |==|  0.35789
USER: genes 16 Torsion [N]-CA--CB-[CG] |==|  0.79075
USER: genes 17 Torsion [CA]-CB--CG-[CD] |==|  0.52148
USER: genes 18 Torsion [CB]-CG--CD-[NE] |==|  0.85337
USER: genes 19 Torsion [CG]-CD--NE-[CZ] |==|  0.29420
USER: genes 20 Torsion [C]-CA--CB-[CG] |==|  0.36104
USER: genes 21 Torsion [CA]-CB--CG-[CD] |==|  0.27363
USER: genes 22 Torsion [CB]-CG--CD-[NE] |==|  0.59567
USER: genes 23 Torsion [CG]-CD--NE-[CZ] |==|  0.45322
USER: genes 24 Torsion [C]-CA--N-[C] |==|  0.17703
USER: genes 25 Torsion [N]-C--CA-[N] |==|  0.95031
USER: genes 26 Torsion [C]-CA--CB-[CG] |==|  0.31755
USER: genes 27 Torsion [CA]-CB--CG-[CD] |==|  0.70238
USER: genes 28 Torsion [CB]-CG--CD-[NE2] |==|  0.13385
USER: genes 29 Torsion [C]-CA--N-[C] |==|  0.75050
USER: genes 30 Torsion [N]-C--CA-[N] |==|  0.89404
USER: genes 31 Torsion [C]-CA--CB-[CG2] |==|  0.23125
USER: genes 32 Torsion [CA]-CB--OG1-[HG1] |==|  0.66437
USER: genes 33 Torsion [C]-CA--N-[C] |==|  0.83766
USER: genes 34 Torsion [N]-C--CA-[N] |==|  0.30148
USER: genes 35 Torsion [C]-CA--CB-[OG1] |==|  0.58641
USER: genes 36 Torsion [CA]-CB--OG1-[HG1] |==|  0.29539
ROOT
ATOM      1  CA  ARG F 167      -6.087  12.774  38.970  1.00 38.85 LIG 0.18  C 
ENDROOT
BRANCH 1 2
ATOM      2  C   ARG F 167      -5.795  13.805  37.894  1.00 41.97 LIG 0.24  C 
ATOM      3  N   LYS F 168      -6.858  14.273  37.237  1.00 42.42 LIG-0.35  N 
ATOM      4 H    LYS F 168      -7.660  13.976  37.327  1.00 42.42 LIG 0.16  HD
ATOM      5 O    ARG F 167      -4.639  14.161  37.652  1.00 34.60 LIG-0.27  OA
BRANCH 3 6
ATOM      6  CA  LYS F 168      -6.705  15.368  36.288  1.00 39.35 LIG 0.18  C 
BRANCH 6 7
ATOM      7  CB  LYS F 168      -7.612  15.166  35.072  1.00 43.51 LIG 0.04  C 
BRANCH 7 8
ATOM      8  CG  LYS F 168      -8.131  13.750  34.907  1.00 39.69 LIG 0.00  C 
BRANCH 8 9
ATOM      9  CD  LYS F 168      -8.893  13.566  33.597  1.00 48.24 LIG 0.03  C 
BRANCH 9 10
ATOM     10  CE  LYS F 168     -10.309  13.034  33.831  1.00 54.37 LIG 0.23  C 
BRANCH 10 11
ATOM     11  NZ  LYS F 168     -11.360  13.750  33.039  1.00 52.23 LIG-0.08  N 
ATOM     12 HZ3  LYS F 168     -12.113  13.791  33.513  1.00 52.23 LIG 0.27  HD
ATOM     13 HZ1  LYS F 168     -11.082  14.575  32.853  1.00 52.23 LIG 0.27  HD
ATOM     14 HZ2  LYS F 168     -11.511  13.311  32.280  1.00 52.23 LIG 0.27  HD
ENDBRANCH 10 11
ENDBRANCH 9 10
ENDBRANCH 8 9
ENDBRANCH 7 8
ENDBRANCH 6 7
BRANCH 6 15
ATOM     15  C   LYS F 168      -7.029  16.691  36.974  1.00 30.99 LIG 0.24  C 
ATOM     16 O    LYS F 168      -8.193  17.096  37.062  1.00 32.09 LIG-0.27  OA
ATOM     17  N   ARG F 169      -5.996  17.347  37.496  1.00 23.74 LIG-0.35  N 
ATOM     18 H    ARG F 169      -5.182  17.067  37.484  1.00 23.74 LIG 0.16  HD
BRANCH 17 19
ATOM     19  CA  ARG F 169      -6.198  18.633  38.145  1.00 28.77 LIG 0.18  C 
BRANCH 19 20
ATOM     20  C   ARG F 169      -5.013  19.552  37.863  1.00 37.10 LIG 0.24  C 
ATOM     21  N   SER F 170      -3.903  19.273  38.544  1.00 32.48 LIG-0.34  N 
ATOM     22 H    SER F 170      -3.799  18.555  39.006  1.00 32.48 LIG 0.16  HD
ATOM     23 O    ARG F 169      -5.107  20.506  37.078  1.00 33.53 LIG-0.27  OA
BRANCH 21 24
ATOM     24  CA  SER F 170      -2.746  20.168  38.572  1.00 32.11 LIG 0.19  C 
BRANCH 24 25
ATOM     25  C   SER F 170      -2.472  20.828  37.215  1.00 36.47 LIG 0.22  C 
ATOM     26 O    SER F 170      -2.256  22.038  37.129  1.00 35.83 LIG-0.29  OA
ENDBRANCH 24 25
BRANCH 24 27
ATOM     27  CB  SER F 170      -1.508  19.395  39.040  1.00 36.26 LIG 0.20  C 
BRANCH 27 28
ATOM     28 OG   SER F 170      -1.782  18.001  39.113  1.00 19.66 LIG-0.40  OA
ATOM     29 HG   SER F 170      -1.191  17.576  38.694  1.00 19.66 LIG 0.21  HD
ENDBRANCH 27 28
ENDBRANCH 24 27
ENDBRANCH 21 24
ENDBRANCH 19 20
BRANCH 19 30
ATOM     30  CB  ARG F 169      -6.418  18.454  39.653  1.00 32.99 LIG 0.04  C 
BRANCH 30 31
ATOM     31  CG  ARG F 169      -7.777  17.931  40.094  1.00 34.51 LIG 0.02  C 
BRANCH 31 32
ATOM     32  CD  ARG F 169      -7.872  18.004  41.630  1.00 39.71 LIG 0.14  C 
BRANCH 32 33
ATOM     33  NE  ARG F 169      -6.728  17.335  42.246  1.00 37.23 LIG-0.23  N 
ATOM     34  CZ  ARG F 169      -5.698  17.944  42.832  1.00 33.71 LIG 0.67  C 
ATOM     35  NH2 ARG F 169      -4.731  17.201  43.354  1.00 35.73 LIG-0.23  N 
ATOM     36  NH1 ARG F 169      -5.629  19.279  42.900  1.00 22.18 LIG-0.23  N 
ATOM     37 2HH2 ARG F 169      -4.059  17.576  43.737  1.00 35.73 LIG 0.17  HD
ATOM     38 1HH2 ARG F 169      -4.777  16.343  43.309  1.00 35.73 LIG 0.17  HD
ATOM     39 1HH1 ARG F 169      -6.257  19.760  42.562  1.00 22.18 LIG 0.17  HD
ATOM     40 2HH1 ARG F 169      -4.957  19.655  43.282  1.00 22.18 LIG 0.17  HD
ATOM     41 HE   ARG F 169      -6.717  16.476  42.228  1.00 37.23 LIG 0.18  HD
ENDBRANCH 32 33
ENDBRANCH 31 32
ENDBRANCH 30 31
ENDBRANCH 19 30
ENDBRANCH 17 19
ENDBRANCH 6 15
ENDBRANCH 3 6
ENDBRANCH 1 2
BRANCH 1 42
ATOM     42  CB  ARG F 167      -4.809  11.996  39.309  1.00 34.27 LIG 0.04  C 
BRANCH 42 43
ATOM     43  CG  ARG F 167      -4.525  11.930  40.796  1.00 36.76 LIG 0.02  C 
BRANCH 43 44
ATOM     44  CD  ARG F 167      -4.994  10.619  41.365  1.00 47.53 LIG 0.14  C 
BRANCH 44 45
ATOM     45  NE  ARG F 167      -5.491  10.785  42.724  1.00 46.15 LIG-0.23  N 
ATOM     46 HE   ARG F 167      -5.282  11.502  43.150  1.00 46.15 LIG 0.18  HD
ATOM     47  CZ  ARG F 167      -6.249   9.886  43.338  1.00 54.25 LIG 0.67  C 
ATOM     48  NH2 ARG F 167      -6.674  10.101  44.579  1.00 44.38 LIG-0.23  N 
ATOM     49  NH1 ARG F 167      -6.575   8.767  42.699  1.00 45.80 LIG-0.23  N 
ATOM     50 1HH2 ARG F 167      -6.458  10.826  44.988  1.00 44.38 LIG 0.17  HD
ATOM     51 2HH2 ARG F 167      -7.166   9.516  44.973  1.00 44.38 LIG 0.17  HD
ATOM     52 2HH1 ARG F 167      -7.066   8.178  43.088  1.00 45.80 LIG 0.17  HD
ATOM     53 1HH1 ARG F 167      -6.295   8.632  41.897  1.00 45.80 LIG 0.17  HD
ENDBRANCH 44 45
ENDBRANCH 43 44
ENDBRANCH 42 43
ENDBRANCH 1 42
BRANCH 1 54
ATOM     54  N   ARG F 167      -7.146  11.896  38.497  1.00 32.00 LIG-0.35  N 
ATOM     55 H    ARG F 167      -7.867  11.937  38.964  1.00 32.00 LIG 0.16  HD
ATOM     56  C   GLN F 166      -7.003  11.103  37.437  1.00 42.00 LIG 0.24  C 
ATOM     57 O    GLN F 166      -6.002  11.104  36.712  1.00 37.97 LIG-0.27  OA
BRANCH 56 58
ATOM     58  CA  GLN F 166      -8.176  10.182  37.152  1.00 41.36 LIG 0.18  C 
BRANCH 58 59
ATOM     59  CB  GLN F 166      -8.955  10.718  35.945  1.00 34.92 LIG 0.04  C 
BRANCH 59 60
ATOM     60  CG  GLN F 166      -8.925   9.834  34.723  1.00 32.73 LIG 0.10  C 
BRANCH 60 61
ATOM     61  CD  GLN F 166      -8.045  10.413  33.631  1.00 43.28 LIG 0.21  C 
ATOM     62  NE2 GLN F 166      -6.836  10.826  33.998  1.00 36.91 LIG-0.37  N 
ATOM     63 21HE GLN F 166      -6.588  10.755  34.818  1.00 36.91 LIG 0.16  HD
ATOM     64 22HE GLN F 166      -6.302  11.164  33.414  1.00 36.91 LIG 0.16  HD
ATOM     65 OE1  GLN F 166      -8.451  10.491  32.468  1.00 42.55 LIG-0.27  OA
ENDBRANCH 60 61
ENDBRANCH 59 60
ENDBRANCH 58 59
BRANCH 58 66
ATOM     66  N   GLN F 166      -9.002  10.085  38.346  1.00 35.11 LIG-0.35  N 
ATOM     67  C   THR F 165      -8.797   9.159  39.278  1.00 35.16 LIG 0.24  C 
ATOM     68 O    THR F 165      -7.938   8.276  39.155  1.00 30.91 LIG-0.27  OA
ATOM     69 H    GLN F 166      -9.627  10.674  38.391  1.00 35.11 LIG 0.16  HD
BRANCH 67 70
ATOM     70  CA  THR F 165      -9.658   9.202  40.533  1.00 44.00 LIG 0.20  C 
BRANCH 70 71
ATOM     71  CB  THR F 165     -10.975   8.457  40.286  1.00 46.85 LIG 0.15  C 
ATOM     72  CG2 THR F 165     -10.784   6.953  40.496  1.00 37.95 LIG 0.04  C 
BRANCH 71 73
ATOM     73 OG1  THR F 165     -11.983   8.958  41.175  1.00 45.14 LIG-0.39  OA
ATOM     74 HG1  THR F 165     -12.272   8.331  41.653  1.00 45.14 LIG 0.21  HD
ENDBRANCH 71 73
ENDBRANCH 70 71
BRANCH 70 75
ATOM     75  N   THR F 165      -9.918  10.565  40.981  1.00 38.01 LIG-0.34  N 
ATOM     76 H    THR F 165     -10.752  10.768  41.024  1.00 38.01 LIG 0.16  HD
ATOM     77  C   THR F 164      -8.933  11.410  41.292  1.00 57.69 LIG 0.26  C 
ATOM     78 O    THR F 164      -7.739  11.100  41.225  1.00 49.67 LIG-0.27  OA
BRANCH 77 79
ATOM     79  CA  THR F 164      -9.360  12.811  41.741  1.00 56.73 LIG 0.43  C 
ATOM     80  N   THR F 164      -9.128  12.991  43.171  1.00 65.32 LIG 0.62  N 
BRANCH 79 81
ATOM     81  CB  THR F 164      -8.610  13.881  40.902  1.00 58.05 LIG 0.16  C 
ATOM     82  CG2 THR F 164      -9.416  14.240  39.656  1.00 51.52 LIG 0.04  C 
BRANCH 81 83
ATOM     83 OG1  THR F 164      -8.398  15.062  41.687  1.00 58.15 LIG-0.39  OA
ATOM     84 HG1  THR F 164      -7.589  15.111  41.908  1.00 58.15 LIG 0.21  HD
ENDBRANCH 81 83
ENDBRANCH 79 81
ENDBRANCH 77 79
ENDBRANCH 70 75
ENDBRANCH 67 70
ENDBRANCH 58 66
ENDBRANCH 56 58
ENDBRANCH 1 54
TORSDOF 35
ENDMDL
MODEL 38
USER: ADFR SOLUTION from run 41
USER: SCORE 25.928369 LL:  -4.513 LR: -22.474 RR:   0.000 FEB: -12.033
USER: RMSD 7.729541
USER: SEED 40
USER: STATUS 1 or 2 clusters left
USER: GENES 37
USER: genes 0 Translation |==|  0.50510 0.57657 0.46871
USER: genes 1 Rotation |==|  0.00104 0.52721 0.49935 0.51732
USER: genes 2 Torsion [N]-CA--C-[N] |==|  0.17588
USER: genes 3 Torsion [C]-N--CA-[C] |==|  0.84911
USER: genes 4 Torsion [N]-CA--CB-[CG] |==|  0.43593
USER: genes 5 Torsion [CA]-CB--CG-[CD] |==|  0.33207
USER: genes 6 Torsion [CB]-CG--CD-[CE] |==|  0.48466
USER: genes 7 Torsion [CG]-CD--CE-[NZ] |==|  0.59382
USER: genes 8 Torsion [CD]-CE--NZ-[HZ3] |==|  0.95023
USER: genes 9 Torsion [N]-CA--C-[N] |==|  0.91607
USER: genes 10 Torsion [C]-N--CA-[C] |==|  0.64060
USER: genes 11 Torsion [N]-CA--C-[N] |==|  0.42234
USER: genes 12 Torsion [C]-N--CA-[C] |==|  0.83141
USER: genes 13 Torsion [N]-CA--C-[O] |==|  0.31150
USER: genes 14 Torsion [N]-CA--CB-[OG] |==|  0.94078
USER: genes 15 Torsion [CA]-CB--OG-[HG] |==|  0.73142
USER: genes 16 Torsion [N]-CA--CB-[CG] |==|  0.38278
USER: genes 17 Torsion [CA]-CB--CG-[CD] |==|  0.22852
USER: genes 18 Torsion [CB]-CG--CD-[NE] |==|  0.18590
USER: genes 19 Torsion [CG]-CD--NE-[CZ] |==|  0.73056
USER: genes 20 Torsion [C]-CA--CB-[CG] |==|  0.34465
USER: genes 21 Torsion [CA]-CB--CG-[CD] |==|  0.63229
USER: genes 22 Torsion [CB]-CG--CD-[NE] |==|  0.77681
USER: genes 23 Torsion [CG]-CD--NE-[CZ] |==|  0.64433
USER: genes 24 Torsion [C]-CA--N-[C] |==|  0.13333
USER: genes 25 Torsion [N]-C--CA-[N] |==|  0.31123
USER: genes 26 Torsion [C]-CA--CB-[CG] |==|  0.28747
USER: genes 27 Torsion [CA]-CB--CG-[CD] |==|  0.92513
USER: genes 28 Torsion [CB]-CG--CD-[NE2] |==|  0.81027
USER: genes 29 Torsion [C]-CA--N-[C] |==|  0.62035
USER: genes 30 Torsion [N]-C--CA-[N] |==|  0.96178
USER: genes 31 Torsion [C]-CA--CB-[CG2] |==|  0.29736
USER: genes 32 Torsion [CA]-CB--OG1-[HG1] |==|  0.79296
USER: genes 33 Torsion [C]-CA--N-[C] |==|  0.68183
USER: genes 34 Torsion [N]-C--CA-[N] |==|  0.50510
USER: genes 35 Torsion [C]-CA--CB-[OG1] |==|  0.89606
USER: genes 36 Torsion [CA]-CB--OG1-[HG1] |==|  0.06374
ROOT
ATOM      1  CA  ARG F 167      -1.085  20.076  38.054  1.00 38.85 LIG 0.18  C 
ENDROOT
BRANCH 1 2
ATOM      2  C   ARG F 167      -1.554  21.470  37.676  1.00 41.97 LIG 0.24  C 
ATOM      3  N   LYS F 168      -1.065  21.957  36.535  1.00 42.42 LIG-0.35  N 
ATOM      4 H    LYS F 168      -0.456  21.577  36.060  1.00 42.42 LIG 0.16  HD
ATOM      5 O    ARG F 167      -2.331  22.096  38.403  1.00 34.60 LIG-0.27  OA
BRANCH 3 6
ATOM      6  CA  LYS F 168      -1.561  23.221  36.009  1.00 39.35 LIG 0.18  C 
BRANCH 6 7
ATOM      7  CB  LYS F 168      -0.923  23.536  34.653  1.00 43.51 LIG 0.04  C 
BRANCH 7 8
ATOM      8  CG  LYS F 168      -1.730  24.484  33.787  1.00 39.69 LIG 0.00  C 
BRANCH 8 9
ATOM      9  CD  LYS F 168      -0.960  25.761  33.460  1.00 48.24 LIG 0.03  C 
BRANCH 9 10
ATOM     10  CE  LYS F 168      -1.724  26.652  32.477  1.00 54.37 LIG 0.23  C 
BRANCH 10 11
ATOM     11  NZ  LYS F 168      -0.837  27.409  31.538  1.00 52.23 LIG-0.08  N 
ATOM     12 HZ3  LYS F 168      -0.007  27.425  31.859  1.00 52.23 LIG 0.27  HD
ATOM     13 HZ1  LYS F 168      -0.839  27.012  30.741  1.00 52.23 LIG 0.27  HD
ATOM     14 HZ2  LYS F 168      -1.137  28.243  31.453  1.00 52.23 LIG 0.27  HD
ENDBRANCH 10 11
ENDBRANCH 9 10
ENDBRANCH 8 9
ENDBRANCH 7 8
ENDBRANCH 6 7
BRANCH 6 15
ATOM     15  C   LYS F 168      -3.078  23.163  35.878  1.00 30.99 LIG 0.24  C 
ATOM     16 O    LYS F 168      -3.765  24.187  35.962  1.00 32.09 LIG-0.27  OA
ATOM     17  N   ARG F 169      -3.599  21.964  35.633  1.00 23.74 LIG-0.35  N 
ATOM     18 H    ARG F 169      -3.141  21.243  35.530  1.00 23.74 LIG 0.16  HD
BRANCH 17 19
ATOM     19  CA  ARG F 169      -5.040  21.800  35.521  1.00 28.77 LIG 0.18  C 
BRANCH 19 20
ATOM     20  C   ARG F 169      -5.507  20.657  36.416  1.00 37.10 LIG 0.24  C 
ATOM     21  N   SER F 170      -6.758  20.757  36.860  1.00 32.48 LIG-0.34  N 
ATOM     22 H    SER F 170      -7.319  21.340  36.568  1.00 32.48 LIG 0.16  HD
ATOM     23 O    ARG F 169      -4.749  19.726  36.724  1.00 33.53 LIG-0.27  OA
BRANCH 21 24
ATOM     24  CA  SER F 170      -7.302  19.880  37.898  1.00 32.11 LIG 0.19  C 
BRANCH 24 25
ATOM     25  C   SER F 170      -7.288  18.401  37.493  1.00 36.47 LIG 0.22  C 
ATOM     26 O    SER F 170      -6.552  17.593  38.061  1.00 35.83 LIG-0.29  OA
ENDBRANCH 24 25
BRANCH 24 27
ATOM     27  CB  SER F 170      -8.730  20.316  38.245  1.00 36.26 LIG 0.20  C 
BRANCH 27 28
ATOM     28 OG   SER F 170      -8.949  21.671  37.868  1.00 19.66 LIG-0.40  OA
ATOM     29 HG   SER F 170      -8.833  22.170  38.533  1.00 19.66 LIG 0.21  HD
ENDBRANCH 27 28
ENDBRANCH 24 27
ENDBRANCH 21 24
ENDBRANCH 19 20
BRANCH 19 30
ATOM     30  CB  ARG F 169      -5.451  21.569  34.060  1.00 32.99 LIG 0.04  C 
BRANCH 30 31
ATOM     31  CG  ARG F 169      -6.504  20.504  33.801  1.00 34.51 LIG 0.02  C 
BRANCH 31 32
ATOM     32  CD  ARG F 169      -7.902  21.106  34.041  1.00 39.71 LIG 0.14  C 
BRANCH 32 33
ATOM     33  NE  ARG F 169      -8.198  22.128  33.038  1.00 37.23 LIG-0.23  N 
ATOM     34  CZ  ARG F 169      -8.039  23.440  33.199  1.00 33.71 LIG 0.67  C 
ATOM     35  NH2 ARG F 169      -8.347  24.247  32.191  1.00 35.73 LIG-0.23  N 
ATOM     36  NH1 ARG F 169      -7.579  23.947  34.348  1.00 22.18 LIG-0.23  N 
ATOM     37 2HH2 ARG F 169      -8.251  25.098  32.276  1.00 35.73 LIG 0.17  HD
ATOM     38 1HH2 ARG F 169      -8.643  23.920  31.453  1.00 35.73 LIG 0.17  HD
ATOM     39 1HH1 ARG F 169      -7.380  23.423  35.000  1.00 22.18 LIG 0.17  HD
ATOM     40 2HH1 ARG F 169      -7.483  24.798  34.435  1.00 22.18 LIG 0.17  HD
ATOM     41 HE   ARG F 169      -8.500  21.858  32.279  1.00 37.23 LIG 0.18  HD
ENDBRANCH 32 33
ENDBRANCH 31 32
ENDBRANCH 30 31
ENDBRANCH 19 30
ENDBRANCH 17 19
ENDBRANCH 6 15
ENDBRANCH 3 6
ENDBRANCH 1 2
BRANCH 1 42
ATOM     42  CB  ARG F 167      -1.838  19.589  39.299  1.00 34.27 LIG 0.04  C 
BRANCH 42 43
ATOM     43  CG  ARG F 167      -2.553  18.270  39.088  1.00 36.76 LIG 0.02  C 
BRANCH 43 44
ATOM     44  CD  ARG F 167      -3.966  18.348  39.595  1.00 47.53 LIG 0.14  C 
BRANCH 44 45
ATOM     45  NE  ARG F 167      -4.015  18.177  41.040  1.00 46.15 LIG-0.23  N 
ATOM     46 HE   ARG F 167      -3.506  18.671  41.527  1.00 46.15 LIG 0.18  HD
ATOM     47  CZ  ARG F 167      -4.804  17.299  41.644  1.00 54.25 LIG 0.67  C 
ATOM     48  NH2 ARG F 167      -4.804  17.197  42.970  1.00 44.38 LIG-0.23  N 
ATOM     49  NH1 ARG F 167      -5.591  16.520  40.909  1.00 45.80 LIG-0.23  N 
ATOM     50 1HH2 ARG F 167      -4.290  17.702  43.440  1.00 44.38 LIG 0.17  HD
ATOM     51 2HH2 ARG F 167      -5.317  16.626  43.357  1.00 44.38 LIG 0.17  HD
ATOM     52 2HH1 ARG F 167      -6.106  15.948  41.291  1.00 45.80 LIG 0.17  HD
ATOM     53 1HH1 ARG F 167      -5.585  16.589  40.052  1.00 45.80 LIG 0.17  HD
ENDBRANCH 44 45
ENDBRANCH 43 44
ENDBRANCH 42 43
ENDBRANCH 1 42
BRANCH 1 54
ATOM     54  N   ARG F 167       0.353  20.114  38.271  1.00 32.00 LIG-0.35  N 
ATOM     55 H    ARG F 167       0.783  19.486  37.871  1.00 32.00 LIG 0.16  HD
ATOM     56  C   GLN F 166       0.943  21.042  39.024  1.00 42.00 LIG 0.24  C 
ATOM     57 O    GLN F 166       0.342  21.995  39.529  1.00 37.97 LIG-0.27  OA
BRANCH 56 58
ATOM     58  CA  GLN F 166       2.438  20.863  39.221  1.00 41.36 LIG 0.18  C 
BRANCH 58 59
ATOM     59  CB  GLN F 166       2.748  20.831  40.722  1.00 34.92 LIG 0.04  C 
BRANCH 59 60
ATOM     60  CG  GLN F 166       3.029  19.461  41.286  1.00 32.73 LIG 0.10  C 
BRANCH 60 61
ATOM     61  CD  GLN F 166       2.343  18.370  40.487  1.00 43.28 LIG 0.21  C 
ATOM     62  NE2 GLN F 166       1.015  18.331  40.552  1.00 36.91 LIG-0.37  N 
ATOM     63 21HE GLN F 166       0.591  18.907  41.029  1.00 36.91 LIG 0.16  HD
ATOM     64 22HE GLN F 166       0.582  17.728  40.118  1.00 36.91 LIG 0.16  HD
ATOM     65 OE1  GLN F 166       3.001  17.568  39.818  1.00 42.55 LIG-0.27  OA
ENDBRANCH 60 61
ENDBRANCH 59 60
ENDBRANCH 58 59
BRANCH 58 66
ATOM     66  N   GLN F 166       3.138  21.939  38.533  1.00 35.11 LIG-0.35  N 
ATOM     67  C   THR F 165       4.228  21.723  37.803  1.00 35.16 LIG 0.24  C 
ATOM     68 O    THR F 165       4.760  20.608  37.722  1.00 30.91 LIG-0.27  OA
ATOM     69 H    GLN F 166       2.784  22.715  38.642  1.00 35.11 LIG 0.16  HD
BRANCH 67 70
ATOM     70  CA  THR F 165       4.830  22.901  37.050  1.00 44.00 LIG 0.20  C 
BRANCH 70 71
ATOM     71  CB  THR F 165       6.162  23.305  37.692  1.00 46.85 LIG 0.15  C 
ATOM     72  CG2 THR F 165       7.333  22.883  36.802  1.00 37.95 LIG 0.04  C 
BRANCH 71 73
ATOM     73 OG1  THR F 165       6.184  24.723  37.900  1.00 45.14 LIG-0.39  OA
ATOM     74 HG1  THR F 165       6.299  25.113  37.165  1.00 45.14 LIG 0.21  HD
ENDBRANCH 71 73
ENDBRANCH 70 71
BRANCH 70 75
ATOM     75  N   THR F 165       3.924  24.042  36.991  1.00 38.01 LIG-0.34  N 
ATOM     76 H    THR F 165       3.757  24.399  37.755  1.00 38.01 LIG 0.16  HD
ATOM     77  C   THR F 164       3.407  24.480  35.842  1.00 57.69 LIG 0.26  C 
ATOM     78 O    THR F 164       3.658  23.955  34.752  1.00 49.67 LIG-0.27  OA
BRANCH 77 79
ATOM     79  CA  THR F 164       2.466  25.685  35.938  1.00 56.73 LIG 0.43  C 
ATOM     80  N   THR F 164       1.937  26.037  34.623  1.00 65.32 LIG 0.62  N 
BRANCH 79 81
ATOM     81  CB  THR F 164       1.327  25.381  36.948  1.00 58.05 LIG 0.16  C 
ATOM     82  CG2 THR F 164       0.123  26.281  36.677  1.00 51.52 LIG 0.04  C 
BRANCH 81 83
ATOM     83 OG1  THR F 164       0.927  24.008  36.840  1.00 58.15 LIG-0.39  OA
ATOM     84 HG1  THR F 164       1.554  23.559  36.507  1.00 58.15 LIG 0.21  HD
ENDBRANCH 81 83
ENDBRANCH 79 81
ENDBRANCH 77 79
ENDBRANCH 70 75
ENDBRANCH 67 70
ENDBRANCH 58 66
ENDBRANCH 56 58
ENDBRANCH 1 54
TORSDOF 35
ENDMDL
MODEL 39
USER: ADFR SOLUTION from run 177
USER: SCORE 25.332034 LL:  -4.440 LR: -22.472 RR:   0.000 FEB: -12.032
USER: RMSD 10.026507
USER: SEED 176
USER: STATUS no improvement in best in 3 clusters for 5 generations
USER: GENES 37
USER: genes 0 Translation |==|  0.37786 0.44140 0.51074
USER: genes 1 Rotation |==|  0.89794 0.74134 0.63451 0.62369
USER: genes 2 Torsion [N]-CA--C-[N] |==|  0.89165
USER: genes 3 Torsion [C]-N--CA-[C] |==|  0.60046
USER: genes 4 Torsion [N]-CA--CB-[CG] |==|  0.55370
USER: genes 5 Torsion [CA]-CB--CG-[CD] |==|  0.28919
USER: genes 6 Torsion [CB]-CG--CD-[CE] |==|  0.30769
USER: genes 7 Torsion [CG]-CD--CE-[NZ] |==|  0.23616
USER: genes 8 Torsion [CD]-CE--NZ-[HZ3] |==|  0.74553
USER: genes 9 Torsion [N]-CA--C-[N] |==|  0.45234
USER: genes 10 Torsion [C]-N--CA-[C] |==|  0.22221
USER: genes 11 Torsion [N]-CA--C-[N] |==|  0.84041
USER: genes 12 Torsion [C]-N--CA-[C] |==|  0.53208
USER: genes 13 Torsion [N]-CA--C-[O] |==|  0.38830
USER: genes 14 Torsion [N]-CA--CB-[OG] |==|  0.70359
USER: genes 15 Torsion [CA]-CB--OG-[HG] |==|  0.07433
USER: genes 16 Torsion [N]-CA--CB-[CG] |==|  0.47775
USER: genes 17 Torsion [CA]-CB--CG-[CD] |==|  0.70829
USER: genes 18 Torsion [CB]-CG--CD-[NE] |==|  0.41070
USER: genes 19 Torsion [CG]-CD--NE-[CZ] |==|  0.36354
USER: genes 20 Torsion [C]-CA--CB-[CG] |==|  0.12891
USER: genes 21 Torsion [CA]-CB--CG-[CD] |==|  0.27775
USER: genes 22 Torsion [CB]-CG--CD-[NE] |==|  0.29329
USER: genes 23 Torsion [CG]-CD--NE-[CZ] |==|  0.44185
USER: genes 24 Torsion [C]-CA--N-[C] |==|  0.70243
USER: genes 25 Torsion [N]-C--CA-[N] |==|  0.12384
USER: genes 26 Torsion [C]-CA--CB-[CG] |==|  0.35881
USER: genes 27 Torsion [CA]-CB--CG-[CD] |==|  0.60655
USER: genes 28 Torsion [CB]-CG--CD-[NE2] |==|  0.07135
USER: genes 29 Torsion [C]-CA--N-[C] |==|  0.68435
USER: genes 30 Torsion [N]-C--CA-[N] |==|  0.89481
USER: genes 31 Torsion [C]-CA--CB-[CG2] |==|  0.38075
USER: genes 32 Torsion [CA]-CB--OG1-[HG1] |==|  0.12053
USER: genes 33 Torsion [C]-CA--N-[C] |==|  0.81598
USER: genes 34 Torsion [N]-C--CA-[N] |==|  0.80991
USER: genes 35 Torsion [C]-CA--CB-[OG1] |==|  0.07801
USER: genes 36 Torsion [CA]-CB--OG1-[HG1] |==|  0.37285
ROOT
ATOM      1  CA  ARG F 167      -4.234  16.325  38.873  1.00 38.85 LIG 0.18  C 
ENDROOT
BRANCH 1 2
ATOM      2  C   ARG F 167      -4.990  16.242  37.559  1.00 41.97 LIG 0.24  C 
ATOM      3  N   LYS F 168      -5.897  17.198  37.351  1.00 42.42 LIG-0.35  N 
ATOM      4 H    LYS F 168      -6.130  17.788  37.931  1.00 42.42 LIG 0.16  HD
ATOM      5 O    ARG F 167      -4.770  15.330  36.757  1.00 34.60 LIG-0.27  OA
BRANCH 3 6
ATOM      6  CA  LYS F 168      -6.573  17.295  36.064  1.00 39.35 LIG 0.18  C 
BRANCH 6 7
ATOM      7  CB  LYS F 168      -7.905  16.542  36.090  1.00 43.51 LIG 0.04  C 
BRANCH 7 8
ATOM      8  CG  LYS F 168      -8.452  16.191  34.719  1.00 39.69 LIG 0.00  C 
BRANCH 8 9
ATOM      9  CD  LYS F 168      -8.258  14.715  34.383  1.00 48.24 LIG 0.03  C 
BRANCH 9 10
ATOM     10  CE  LYS F 168      -9.587  13.956  34.353  1.00 54.37 LIG 0.23  C 
BRANCH 10 11
ATOM     11  NZ  LYS F 168     -10.301  14.044  33.039  1.00 52.23 LIG-0.08  N 
ATOM     12 HZ3  LYS F 168     -10.859  14.738  33.050  1.00 52.23 LIG 0.27  HD
ATOM     13 HZ1  LYS F 168      -9.708  14.152  32.384  1.00 52.23 LIG 0.27  HD
ATOM     14 HZ2  LYS F 168     -10.762  13.295  32.900  1.00 52.23 LIG 0.27  HD
ENDBRANCH 10 11
ENDBRANCH 9 10
ENDBRANCH 8 9
ENDBRANCH 7 8
ENDBRANCH 6 7
BRANCH 6 15
ATOM     15  C   LYS F 168      -6.801  18.760  35.713  1.00 30.99 LIG 0.24  C 
ATOM     16 O    LYS F 168      -6.695  19.645  36.569  1.00 32.09 LIG-0.27  OA
ATOM     17  N   ARG F 169      -7.078  19.020  34.438  1.00 23.74 LIG-0.35  N 
ATOM     18 H    ARG F 169      -7.118  18.428  33.815  1.00 23.74 LIG 0.16  HD
BRANCH 17 19
ATOM     19  CA  ARG F 169      -7.341  20.385  34.009  1.00 28.77 LIG 0.18  C 
BRANCH 19 20
ATOM     20  C   ARG F 169      -6.026  21.137  33.828  1.00 37.10 LIG 0.24  C 
ATOM     21  N   SER F 170      -5.245  21.184  34.905  1.00 32.48 LIG-0.34  N 
ATOM     22 H    SER F 170      -5.388  20.718  35.613  1.00 32.48 LIG 0.16  HD
ATOM     23 O    ARG F 169      -5.739  21.689  32.756  1.00 33.53 LIG-0.27  OA
BRANCH 21 24
ATOM     24  CA  SER F 170      -4.061  22.040  34.987  1.00 32.11 LIG 0.19  C 
BRANCH 24 25
ATOM     25  C   SER F 170      -3.176  21.715  36.198  1.00 36.47 LIG 0.22  C 
ATOM     26 O    SER F 170      -1.948  21.715  36.105  1.00 35.83 LIG-0.29  OA
ENDBRANCH 24 25
BRANCH 24 27
ATOM     27  CB  SER F 170      -4.489  23.511  35.029  1.00 36.26 LIG 0.20  C 
BRANCH 27 28
ATOM     28 OG   SER F 170      -4.211  24.151  33.789  1.00 19.66 LIG-0.40  OA
ATOM     29 HG   SER F 170      -4.215  23.582  33.172  1.00 19.66 LIG 0.21  HD
ENDBRANCH 27 28
ENDBRANCH 24 27
ENDBRANCH 21 24
ENDBRANCH 19 20
BRANCH 19 30
ATOM     30  CB  ARG F 169      -8.261  21.102  35.007  1.00 32.99 LIG 0.04  C 
BRANCH 30 31
ATOM     31  CG  ARG F 169      -8.477  22.593  34.797  1.00 34.51 LIG 0.02  C 
BRANCH 31 32
ATOM     32  CD  ARG F 169      -7.668  23.373  35.851  1.00 39.71 LIG 0.14  C 
BRANCH 32 33
ATOM     33  NE  ARG F 169      -7.214  24.651  35.304  1.00 37.23 LIG-0.23  N 
ATOM     34  CZ  ARG F 169      -7.347  25.837  35.894  1.00 33.71 LIG 0.67  C 
ATOM     35  NH2 ARG F 169      -6.878  26.913  35.274  1.00 35.73 LIG-0.23  N 
ATOM     36  NH1 ARG F 169      -7.939  25.955  37.088  1.00 22.18 LIG-0.23  N 
ATOM     37 2HH2 ARG F 169      -6.954  27.688  35.640  1.00 35.73 LIG 0.17  HD
ATOM     38 1HH2 ARG F 169      -6.497  26.836  34.507  1.00 35.73 LIG 0.17  HD
ATOM     39 1HH1 ARG F 169      -8.242  25.257  37.489  1.00 22.18 LIG 0.17  HD
ATOM     40 2HH1 ARG F 169      -8.016  26.730  37.454  1.00 22.18 LIG 0.17  HD
ATOM     41 HE   ARG F 169      -6.828  24.635  34.535  1.00 37.23 LIG 0.18  HD
ENDBRANCH 32 33
ENDBRANCH 31 32
ENDBRANCH 30 31
ENDBRANCH 19 30
ENDBRANCH 17 19
ENDBRANCH 6 15
ENDBRANCH 3 6
ENDBRANCH 1 2
BRANCH 1 42
ATOM     42  CB  ARG F 167      -5.056  15.671  39.992  1.00 34.27 LIG 0.04  C 
BRANCH 42 43
ATOM     43  CG  ARG F 167      -5.633  14.325  39.602  1.00 36.76 LIG 0.02  C 
BRANCH 43 44
ATOM     44  CD  ARG F 167      -4.794  13.210  40.160  1.00 47.53 LIG 0.14  C 
BRANCH 44 45
ATOM     45  NE  ARG F 167      -5.454  12.573  41.292  1.00 46.15 LIG-0.23  N 
ATOM     46 HE   ARG F 167      -6.065  13.012  41.708  1.00 46.15 LIG 0.18  HD
ATOM     47  CZ  ARG F 167      -5.160  11.350  41.713  1.00 54.25 LIG 0.67  C 
ATOM     48  NH2 ARG F 167      -5.804  10.825  42.751  1.00 44.38 LIG-0.23  N 
ATOM     49  NH1 ARG F 167      -4.212  10.658  41.089  1.00 45.80 LIG-0.23  N 
ATOM     50 1HH2 ARG F 167      -6.414  11.278  43.152  1.00 44.38 LIG 0.17  HD
ATOM     51 2HH2 ARG F 167      -5.610  10.032  43.021  1.00 44.38 LIG 0.17  HD
ATOM     52 2HH1 ARG F 167      -4.014   9.865  41.354  1.00 45.80 LIG 0.17  HD
ATOM     53 1HH1 ARG F 167      -3.796  11.004  40.420  1.00 45.80 LIG 0.17  HD
ENDBRANCH 44 45
ENDBRANCH 43 44
ENDBRANCH 42 43
ENDBRANCH 1 42
BRANCH 1 54
ATOM     54  N   ARG F 167      -3.949  17.723  39.157  1.00 32.00 LIG-0.35  N 
ATOM     55 H    ARG F 167      -4.638  18.177  39.400  1.00 32.00 LIG 0.16  HD
ATOM     56  C   GLN F 166      -2.728  18.244  39.048  1.00 42.00 LIG 0.24  C 
ATOM     57 O    GLN F 166      -1.721  17.579  38.786  1.00 37.97 LIG-0.27  OA
BRANCH 56 58
ATOM     58  CA  GLN F 166      -2.639  19.742  39.285  1.00 41.36 LIG 0.18  C 
BRANCH 58 59
ATOM     59  CB  GLN F 166      -1.166  20.142  39.432  1.00 34.92 LIG 0.04  C 
BRANCH 59 60
ATOM     60  CG  GLN F 166      -0.727  21.292  38.561  1.00 32.73 LIG 0.10  C 
BRANCH 60 61
ATOM     61  CD  GLN F 166       0.674  21.084  38.017  1.00 43.28 LIG 0.21  C 
ATOM     62  NE2 GLN F 166       1.087  19.826  37.902  1.00 36.91 LIG-0.37  N 
ATOM     63 21HE GLN F 166       0.566  19.180  38.130  1.00 36.91 LIG 0.16  HD
ATOM     64 22HE GLN F 166       1.875  19.658  37.601  1.00 36.91 LIG 0.16  HD
ATOM     65 OE1  GLN F 166       1.379  22.048  37.705  1.00 42.55 LIG-0.27  OA
ENDBRANCH 60 61
ENDBRANCH 59 60
ENDBRANCH 58 59
BRANCH 58 66
ATOM     66  N   GLN F 166      -3.426  20.084  40.460  1.00 35.11 LIG-0.35  N 
ATOM     67  C   THR F 165      -4.526  20.827  40.386  1.00 35.16 LIG 0.24  C 
ATOM     68 O    THR F 165      -4.909  21.338  39.326  1.00 30.91 LIG-0.27  OA
ATOM     69 H    GLN F 166      -3.117  19.763  41.196  1.00 35.11 LIG 0.16  HD
BRANCH 67 70
ATOM     70  CA  THR F 165      -5.328  21.049  41.661  1.00 44.00 LIG 0.20  C 
BRANCH 70 71
ATOM     71  CB  THR F 165      -4.754  22.240  42.437  1.00 46.85 LIG 0.15  C 
ATOM     72  CG2 THR F 165      -5.883  23.125  42.968  1.00 37.95 LIG 0.04  C 
BRANCH 71 73
ATOM     73 OG1  THR F 165      -3.946  21.762  43.521  1.00 45.14 LIG-0.39  OA
ATOM     74 HG1  THR F 165      -3.465  21.127  43.254  1.00 45.14 LIG 0.21  HD
ENDBRANCH 71 73
ENDBRANCH 70 71
BRANCH 70 75
ATOM     75  N   THR F 165      -5.367  19.860  42.505  1.00 38.01 LIG-0.34  N 
ATOM     76 H    THR F 165      -4.958  19.948  43.256  1.00 38.01 LIG 0.16  HD
ATOM     77  C   THR F 164      -5.990  18.743  42.128  1.00 57.69 LIG 0.26  C 
ATOM     78 O    THR F 164      -6.575  18.635  41.045  1.00 49.67 LIG-0.27  OA
BRANCH 77 79
ATOM     79  CA  THR F 164      -5.942  17.574  43.117  1.00 56.73 LIG 0.43  C 
ATOM     80  N   THR F 164      -4.585  17.044  43.228  1.00 65.32 LIG 0.62  N 
BRANCH 79 81
ATOM     81  CB  THR F 164      -6.490  18.031  44.495  1.00 58.05 LIG 0.16  C 
ATOM     82  CG2 THR F 164      -5.349  18.516  45.386  1.00 51.52 LIG 0.04  C 
BRANCH 81 83
ATOM     83 OG1  THR F 164      -7.440  19.092  44.320  1.00 58.15 LIG-0.39  OA
ATOM     84 HG1  THR F 164      -8.118  18.942  44.792  1.00 58.15 LIG 0.21  HD
ENDBRANCH 81 83
ENDBRANCH 79 81
ENDBRANCH 77 79
ENDBRANCH 70 75
ENDBRANCH 67 70
ENDBRANCH 58 66
ENDBRANCH 56 58
ENDBRANCH 1 54
TORSDOF 35
ENDMDL
MODEL 40
USER: ADFR SOLUTION from run 178
USER: SCORE 26.184885 LL:  -5.815 LR: -22.429 RR:   0.000 FEB: -11.988
USER: RMSD 8.398323
USER: SEED 177
USER: STATUS searching
USER: GENES 37
USER: genes 0 Translation |==|  0.37655 0.38232 0.52771
USER: genes 1 Rotation |==|  0.86867 0.77886 0.69008 0.51374
USER: genes 2 Torsion [N]-CA--C-[N] |==|  0.79649
USER: genes 3 Torsion [C]-N--CA-[C] |==|  0.75131
USER: genes 4 Torsion [N]-CA--CB-[CG] |==|  0.56129
USER: genes 5 Torsion [CA]-CB--CG-[CD] |==|  0.04111
USER: genes 6 Torsion [CB]-CG--CD-[CE] |==|  0.44915
USER: genes 7 Torsion [CG]-CD--CE-[NZ] |==|  0.12570
USER: genes 8 Torsion [CD]-CE--NZ-[HZ3] |==|  0.86504
USER: genes 9 Torsion [N]-CA--C-[N] |==|  0.21483
USER: genes 10 Torsion [C]-N--CA-[C] |==|  0.77681
USER: genes 11 Torsion [N]-CA--C-[N] |==|  0.30728
USER: genes 12 Torsion [C]-N--CA-[C] |==|  0.16479
USER: genes 13 Torsion [N]-CA--C-[O] |==|  0.09164
USER: genes 14 Torsion [N]-CA--CB-[OG] |==|  0.24979
USER: genes 15 Torsion [CA]-CB--OG-[HG] |==|  0.91855
USER: genes 16 Torsion [N]-CA--CB-[CG] |==|  0.54266
USER: genes 17 Torsion [CA]-CB--CG-[CD] |==|  0.63004
USER: genes 18 Torsion [CB]-CG--CD-[NE] |==|  0.32443
USER: genes 19 Torsion [CG]-CD--NE-[CZ] |==|  0.74801
USER: genes 20 Torsion [C]-CA--CB-[CG] |==|  0.21102
USER: genes 21 Torsion [CA]-CB--CG-[CD] |==|  0.54136
USER: genes 22 Torsion [CB]-CG--CD-[NE] |==|  0.80711
USER: genes 23 Torsion [CG]-CD--NE-[CZ] |==|  0.30010
USER: genes 24 Torsion [C]-CA--N-[C] |==|  0.75775
USER: genes 25 Torsion [N]-C--CA-[N] |==|  0.49349
USER: genes 26 Torsion [C]-CA--CB-[CG] |==|  0.45664
USER: genes 27 Torsion [CA]-CB--CG-[CD] |==|  0.18415
USER: genes 28 Torsion [CB]-CG--CD-[NE2] |==|  0.72560
USER: genes 29 Torsion [C]-CA--N-[C] |==|  0.17526
USER: genes 30 Torsion [N]-C--CA-[N] |==|  0.99641
USER: genes 31 Torsion [C]-CA--CB-[CG2] |==|  0.44306
USER: genes 32 Torsion [CA]-CB--OG1-[HG1] |==|  0.22349
USER: genes 33 Torsion [C]-CA--N-[C] |==|  0.71294
USER: genes 34 Torsion [N]-C--CA-[N] |==|  0.78146
USER: genes 35 Torsion [C]-CA--CB-[OG1] |==|  0.74054
USER: genes 36 Torsion [CA]-CB--OG1-[HG1] |==|  0.18274
ROOT
ATOM      1  CA  ARG F 167      -4.266  14.685  39.204  1.00 38.85 LIG 0.18  C 
ENDROOT
BRANCH 1 2
ATOM      2  C   ARG F 167      -5.089  14.836  37.937  1.00 41.97 LIG 0.24  C 
ATOM      3  N   LYS F 168      -6.411  14.730  38.088  1.00 42.42 LIG-0.35  N 
ATOM      4 H    LYS F 168      -6.805  14.507  38.819  1.00 42.42 LIG 0.16  HD
ATOM      5 O    ARG F 167      -4.546  15.030  36.846  1.00 34.60 LIG-0.27  OA
BRANCH 3 6
ATOM      6  CA  LYS F 168      -7.298  15.001  36.965  1.00 39.35 LIG 0.18  C 
BRANCH 6 7
ATOM      7  CB  LYS F 168      -8.560  14.139  37.046  1.00 43.51 LIG 0.04  C 
BRANCH 7 8
ATOM      8  CG  LYS F 168      -9.272  13.946  35.721  1.00 39.69 LIG 0.00  C 
BRANCH 8 9
ATOM      9  CD  LYS F 168      -8.397  14.343  34.534  1.00 48.24 LIG 0.03  C 
BRANCH 9 10
ATOM     10  CE  LYS F 168      -8.911  13.747  33.222  1.00 54.37 LIG 0.23  C 
BRANCH 10 11
ATOM     11  NZ  LYS F 168     -10.392  13.880  33.039  1.00 52.23 LIG-0.08  N 
ATOM     12 HZ3  LYS F 168     -10.808  13.609  33.778  1.00 52.23 LIG 0.27  HD
ATOM     13 HZ1  LYS F 168     -10.596  14.731  32.878  1.00 52.23 LIG 0.27  HD
ATOM     14 HZ2  LYS F 168     -10.653  13.377  32.352  1.00 52.23 LIG 0.27  HD
ENDBRANCH 10 11
ENDBRANCH 9 10
ENDBRANCH 8 9
ENDBRANCH 7 8
ENDBRANCH 6 7
BRANCH 6 15
ATOM     15  C   LYS F 168      -7.668  16.480  36.948  1.00 30.99 LIG 0.24  C 
ATOM     16 O    LYS F 168      -8.757  16.869  37.383  1.00 32.09 LIG-0.27  OA
ATOM     17  N   ARG F 169      -6.740  17.309  36.480  1.00 23.74 LIG-0.35  N 
ATOM     18 H    ARG F 169      -5.959  17.069  36.209  1.00 23.74 LIG 0.16  HD
BRANCH 17 19
ATOM     19  CA  ARG F 169      -7.009  18.737  36.396  1.00 28.77 LIG 0.18  C 
BRANCH 19 20
ATOM     20  C   ARG F 169      -7.832  19.040  35.147  1.00 37.10 LIG 0.24  C 
ATOM     21  N   SER F 170      -9.088  19.420  35.373  1.00 32.48 LIG-0.34  N 
ATOM     22 H    SER F 170      -9.389  19.619  36.154  1.00 32.48 LIG 0.16  HD
ATOM     23 O    ARG F 169      -7.358  18.903  34.011  1.00 33.53 LIG-0.27  OA
BRANCH 21 24
ATOM     24  CA  SER F 170     -10.083  19.538  34.307  1.00 32.11 LIG 0.19  C 
BRANCH 24 25
ATOM     25  C   SER F 170     -10.315  18.217  33.562  1.00 36.47 LIG 0.22  C 
ATOM     26 O    SER F 170     -10.229  17.135  34.144  1.00 35.83 LIG-0.29  OA
ENDBRANCH 24 25
BRANCH 24 27
ATOM     27  CB  SER F 170      -9.656  20.630  33.320  1.00 36.26 LIG 0.20  C 
BRANCH 27 28
ATOM     28 OG   SER F 170      -8.853  20.084  32.280  1.00 19.66 LIG-0.40  OA
ATOM     29 HG   SER F 170      -8.435  19.416  32.570  1.00 19.66 LIG 0.21  HD
ENDBRANCH 27 28
ENDBRANCH 24 27
ENDBRANCH 21 24
ENDBRANCH 19 20
BRANCH 19 30
ATOM     30  CB  ARG F 169      -5.702  19.540  36.411  1.00 32.99 LIG 0.04  C 
BRANCH 30 31
ATOM     31  CG  ARG F 169      -5.812  21.031  36.690  1.00 34.51 LIG 0.02  C 
BRANCH 31 32
ATOM     32  CD  ARG F 169      -4.963  21.802  35.662  1.00 39.71 LIG 0.14  C 
BRANCH 32 33
ATOM     33  NE  ARG F 169      -5.812  22.659  34.837  1.00 37.23 LIG-0.23  N 
ATOM     34  CZ  ARG F 169      -6.378  22.310  33.683  1.00 33.71 LIG 0.67  C 
ATOM     35  NH2 ARG F 169      -7.131  23.199  33.048  1.00 35.73 LIG-0.23  N 
ATOM     36  NH1 ARG F 169      -6.198  21.090  33.165  1.00 22.18 LIG-0.23  N 
ATOM     37 2HH2 ARG F 169      -7.504  22.991  32.301  1.00 35.73 LIG 0.17  HD
ATOM     38 1HH2 ARG F 169      -7.245  23.983  33.383  1.00 35.73 LIG 0.17  HD
ATOM     39 1HH1 ARG F 169      -5.711  20.514  33.578  1.00 22.18 LIG 0.17  HD
ATOM     40 2HH1 ARG F 169      -6.571  20.881  32.418  1.00 22.18 LIG 0.17  HD
ATOM     41 HE   ARG F 169      -5.959  23.458  35.121  1.00 37.23 LIG 0.18  HD
ENDBRANCH 32 33
ENDBRANCH 31 32
ENDBRANCH 30 31
ENDBRANCH 19 30
ENDBRANCH 17 19
ENDBRANCH 6 15
ENDBRANCH 3 6
ENDBRANCH 1 2
BRANCH 1 42
ATOM     42  CB  ARG F 167      -4.702  13.427  39.965  1.00 34.27 LIG 0.04  C 
BRANCH 42 43
ATOM     43  CG  ARG F 167      -4.188  12.144  39.344  1.00 36.76 LIG 0.02  C 
BRANCH 43 44
ATOM     44  CD  ARG F 167      -4.926  10.956  39.897  1.00 47.53 LIG 0.14  C 
BRANCH 44 45
ATOM     45  NE  ARG F 167      -4.580  10.728  41.293  1.00 46.15 LIG-0.23  N 
ATOM     46 HE   ARG F 167      -3.799  10.419  41.475  1.00 46.15 LIG 0.18  HD
ATOM     47  CZ  ARG F 167      -5.409  10.974  42.299  1.00 54.25 LIG 0.67  C 
ATOM     48  NH2 ARG F 167      -5.028  10.748  43.553  1.00 44.38 LIG-0.23  N 
ATOM     49  NH1 ARG F 167      -6.624  11.446  42.039  1.00 45.80 LIG-0.23  N 
ATOM     50 1HH2 ARG F 167      -4.242  10.441  43.715  1.00 44.38 LIG 0.17  HD
ATOM     51 2HH2 ARG F 167      -5.569  10.910  44.202  1.00 44.38 LIG 0.17  HD
ATOM     52 2HH1 ARG F 167      -7.169  11.608  42.684  1.00 45.80 LIG 0.17  HD
ATOM     53 1HH1 ARG F 167      -6.866  11.587  41.226  1.00 45.80 LIG 0.17  HD
ENDBRANCH 44 45
ENDBRANCH 43 44
ENDBRANCH 42 43
ENDBRANCH 1 42
BRANCH 1 54
ATOM     54  N   ARG F 167      -4.429  15.887  40.008  1.00 32.00 LIG-0.35  N 
ATOM     55 H    ARG F 167      -5.061  15.836  40.589  1.00 32.00 LIG 0.16  HD
ATOM     56  C   GLN F 166      -3.663  16.966  39.851  1.00 42.00 LIG 0.24  C 
ATOM     57 O    GLN F 166      -2.699  17.014  39.080  1.00 37.97 LIG-0.27  OA
BRANCH 56 58
ATOM     58  CA  GLN F 166      -4.044  18.161  40.707  1.00 41.36 LIG 0.18  C 
BRANCH 58 59
ATOM     59  CB  GLN F 166      -5.484  18.575  40.383  1.00 34.92 LIG 0.04  C 
BRANCH 59 60
ATOM     60  CG  GLN F 166      -6.127  19.493  41.391  1.00 32.73 LIG 0.10  C 
BRANCH 60 61
ATOM     61  CD  GLN F 166      -5.453  20.852  41.426  1.00 43.28 LIG 0.21  C 
ATOM     62  NE2 GLN F 166      -4.565  21.050  42.394  1.00 36.91 LIG-0.37  N 
ATOM     63 21HE GLN F 166      -4.396  20.423  42.959  1.00 36.91 LIG 0.16  HD
ATOM     64 22HE GLN F 166      -4.158  21.806  42.456  1.00 36.91 LIG 0.16  HD
ATOM     65 OE1  GLN F 166      -5.732  21.717  40.590  1.00 42.55 LIG-0.27  OA
ENDBRANCH 60 61
ENDBRANCH 59 60
ENDBRANCH 58 59
BRANCH 58 66
ATOM     66  N   GLN F 166      -3.091  19.236  40.470  1.00 35.11 LIG-0.35  N 
ATOM     67  C   THR F 165      -2.955  19.814  39.280  1.00 35.16 LIG 0.24  C 
ATOM     68 O    THR F 165      -3.574  19.426  38.282  1.00 30.91 LIG-0.27  OA
ATOM     69 H    GLN F 166      -2.632  19.458  41.163  1.00 35.11 LIG 0.16  HD
BRANCH 67 70
ATOM     70  CA  THR F 165      -1.996  20.991  39.161  1.00 44.00 LIG 0.20  C 
BRANCH 70 71
ATOM     71  CB  THR F 165      -0.927  20.688  38.106  1.00 46.85 LIG 0.15  C 
ATOM     72  CG2 THR F 165      -0.287  21.985  37.607  1.00 37.95 LIG 0.04  C 
BRANCH 71 73
ATOM     73 OG1  THR F 165       0.072  19.826  38.668  1.00 45.14 LIG-0.39  OA
ATOM     74 HG1  THR F 165      -0.204  19.033  38.659  1.00 45.14 LIG 0.21  HD
ENDBRANCH 71 73
ENDBRANCH 70 71
BRANCH 70 75
ATOM     75  N   THR F 165      -1.375  21.330  40.436  1.00 38.01 LIG-0.34  N 
ATOM     76 H    THR F 165      -0.744  20.797  40.673  1.00 38.01 LIG 0.16  HD
ATOM     77  C   THR F 164      -1.765  22.381  41.159  1.00 57.69 LIG 0.26  C 
ATOM     78 O    THR F 164      -2.674  23.139  40.802  1.00 49.67 LIG-0.27  OA
BRANCH 77 79
ATOM     79  CA  THR F 164      -1.023  22.608  42.480  1.00 56.73 LIG 0.43  C 
ATOM     80  N   THR F 164      -1.514  21.701  43.514  1.00 65.32 LIG 0.62  N 
BRANCH 79 81
ATOM     81  CB  THR F 164       0.505  22.445  42.257  1.00 58.05 LIG 0.16  C 
ATOM     82  CG2 THR F 164       1.278  23.404  43.160  1.00 51.52 LIG 0.04  C 
BRANCH 81 83
ATOM     83 OG1  THR F 164       0.903  21.097  42.545  1.00 58.15 LIG-0.39  OA
ATOM     84 HG1  THR F 164       0.554  20.577  41.986  1.00 58.15 LIG 0.21  HD
ENDBRANCH 81 83
ENDBRANCH 79 81
ENDBRANCH 77 79
ENDBRANCH 70 75
ENDBRANCH 67 70
ENDBRANCH 58 66
ENDBRANCH 56 58
ENDBRANCH 1 54
TORSDOF 35
ENDMDL
MODEL 41
USER: ADFR SOLUTION from run 90
USER: SCORE 24.960691 LL:  -3.568 LR: -22.416 RR:   0.000 FEB: -11.976
USER: RMSD 7.081862
USER: SEED 89
USER: STATUS no improvement in best in 10 clusters for 5 generations
USER: GENES 37
USER: genes 0 Translation |==|  0.62156 0.58320 0.47228
USER: genes 1 Rotation |==|  0.05303 0.30971 0.57590 0.59079
USER: genes 2 Torsion [N]-CA--C-[N] |==|  0.47594
USER: genes 3 Torsion [C]-N--CA-[C] |==|  0.61818
USER: genes 4 Torsion [N]-CA--CB-[CG] |==|  0.76096
USER: genes 5 Torsion [CA]-CB--CG-[CD] |==|  0.44296
USER: genes 6 Torsion [CB]-CG--CD-[CE] |==|  0.29642
USER: genes 7 Torsion [CG]-CD--CE-[NZ] |==|  0.48814
USER: genes 8 Torsion [CD]-CE--NZ-[HZ3] |==|  0.21073
USER: genes 9 Torsion [N]-CA--C-[N] |==|  0.49444
USER: genes 10 Torsion [C]-N--CA-[C] |==|  0.82972
USER: genes 11 Torsion [N]-CA--C-[N] |==|  0.39150
USER: genes 12 Torsion [C]-N--CA-[C] |==|  0.84848
USER: genes 13 Torsion [N]-CA--C-[O] |==|  0.22103
USER: genes 14 Torsion [N]-CA--CB-[OG] |==|  0.13696
USER: genes 15 Torsion [CA]-CB--OG-[HG] |==|  0.83012
USER: genes 16 Torsion [N]-CA--CB-[CG] |==|  0.42443
USER: genes 17 Torsion [CA]-CB--CG-[CD] |==|  0.32747
USER: genes 18 Torsion [CB]-CG--CD-[NE] |==|  0.02319
USER: genes 19 Torsion [CG]-CD--NE-[CZ] |==|  0.76554
USER: genes 20 Torsion [C]-CA--CB-[CG] |==|  0.67274
USER: genes 21 Torsion [CA]-CB--CG-[CD] |==|  0.30721
USER: genes 22 Torsion [CB]-CG--CD-[NE] |==|  0.92882
USER: genes 23 Torsion [CG]-CD--NE-[CZ] |==|  0.73871
USER: genes 24 Torsion [C]-CA--N-[C] |==|  0.55399
USER: genes 25 Torsion [N]-C--CA-[N] |==|  0.40633
USER: genes 26 Torsion [C]-CA--CB-[CG] |==|  0.22152
USER: genes 27 Torsion [CA]-CB--CG-[CD] |==|  0.53024
USER: genes 28 Torsion [CB]-CG--CD-[NE2] |==|  0.57539
USER: genes 29 Torsion [C]-CA--N-[C] |==|  0.82494
USER: genes 30 Torsion [N]-C--CA-[N] |==|  0.66003
USER: genes 31 Torsion [C]-CA--CB-[CG2] |==|  0.22852
USER: genes 32 Torsion [CA]-CB--OG1-[HG1] |==|  0.79654
USER: genes 33 Torsion [C]-CA--N-[C] |==|  0.15775
USER: genes 34 Torsion [N]-C--CA-[N] |==|  0.95737
USER: genes 35 Torsion [C]-CA--CB-[OG1] |==|  0.06704
USER: genes 36 Torsion [CA]-CB--OG1-[HG1] |==|  0.48883
ROOT
ATOM      1  CA  ARG F 167       1.798  20.260  38.123  1.00 38.85 LIG 0.18  C 
ENDROOT
BRANCH 1 2
ATOM      2  C   ARG F 167       0.379  20.745  38.363  1.00 41.97 LIG 0.24  C 
ATOM      3  N   LYS F 168      -0.585  19.849  38.141  1.00 42.42 LIG-0.35  N 
ATOM      4 H    LYS F 168      -0.460  19.068  37.803  1.00 42.42 LIG 0.16  HD
ATOM      5 O    ARG F 167       0.156  21.903  38.727  1.00 34.60 LIG-0.27  OA
BRANCH 3 6
ATOM      6  CA  LYS F 168      -1.966  20.164  38.478  1.00 39.35 LIG 0.18  C 
BRANCH 6 7
ATOM      7  CB  LYS F 168      -2.752  20.575  37.231  1.00 43.51 LIG 0.04  C 
BRANCH 7 8
ATOM      8  CG  LYS F 168      -2.643  22.047  36.879  1.00 39.69 LIG 0.00  C 
BRANCH 8 9
ATOM      9  CD  LYS F 168      -2.995  22.317  35.418  1.00 48.24 LIG 0.03  C 
BRANCH 9 10
ATOM     10  CE  LYS F 168      -4.359  22.995  35.276  1.00 54.37 LIG 0.23  C 
BRANCH 10 11
ATOM     11  NZ  LYS F 168      -4.701  23.370  33.866  1.00 52.23 LIG-0.08  N 
ATOM     12 HZ3  LYS F 168      -4.939  22.641  33.414  1.00 52.23 LIG 0.27  HD
ATOM     13 HZ1  LYS F 168      -5.375  23.951  33.868  1.00 52.23 LIG 0.27  HD
ATOM     14 HZ2  LYS F 168      -3.991  23.741  33.477  1.00 52.23 LIG 0.27  HD
ENDBRANCH 10 11
ENDBRANCH 9 10
ENDBRANCH 8 9
ENDBRANCH 7 8
ENDBRANCH 6 7
BRANCH 6 15
ATOM     15  C   LYS F 168      -2.621  18.959  39.142  1.00 30.99 LIG 0.24  C 
ATOM     16 O    LYS F 168      -1.993  17.910  39.323  1.00 32.09 LIG-0.27  OA
ATOM     17  N   ARG F 169      -3.880  19.123  39.541  1.00 23.74 LIG-0.35  N 
ATOM     18 H    ARG F 169      -4.326  19.854  39.464  1.00 23.74 LIG 0.16  HD
BRANCH 17 19
ATOM     19  CA  ARG F 169      -4.601  18.020  40.159  1.00 28.77 LIG 0.18  C 
BRANCH 19 20
ATOM     20  C   ARG F 169      -4.712  16.856  39.180  1.00 37.10 LIG 0.24  C 
ATOM     21  N   SER F 170      -4.568  15.646  39.718  1.00 32.48 LIG-0.34  N 
ATOM     22 H    SER F 170      -4.551  15.504  40.566  1.00 32.48 LIG 0.16  HD
ATOM     23 O    ARG F 169      -4.890  17.044  37.969  1.00 33.53 LIG-0.27  OA
BRANCH 21 24
ATOM     24  CA  SER F 170      -4.423  14.433  38.912  1.00 32.11 LIG 0.19  C 
BRANCH 24 25
ATOM     25  C   SER F 170      -5.562  14.253  37.900  1.00 36.47 LIG 0.22  C 
ATOM     26 O    SER F 170      -5.572  14.875  36.837  1.00 35.83 LIG-0.29  OA
ENDBRANCH 24 25
BRANCH 24 27
ATOM     27  CB  SER F 170      -4.338  13.210  39.831  1.00 36.26 LIG 0.20  C 
BRANCH 27 28
ATOM     28 OG   SER F 170      -5.388  13.228  40.792  1.00 19.66 LIG-0.40  OA
ATOM     29 HG   SER F 170      -5.319  13.915  41.270  1.00 19.66 LIG 0.21  HD
ENDBRANCH 27 28
ENDBRANCH 24 27
ENDBRANCH 21 24
ENDBRANCH 19 20
BRANCH 19 30
ATOM     30  CB  ARG F 169      -5.985  18.477  40.642  1.00 32.99 LIG 0.04  C 
BRANCH 30 31
ATOM     31  CG  ARG F 169      -7.074  17.419  40.712  1.00 34.51 LIG 0.02  C 
BRANCH 31 32
ATOM     32  CD  ARG F 169      -7.541  17.270  42.173  1.00 39.71 LIG 0.14  C 
BRANCH 32 33
ATOM     33  NE  ARG F 169      -6.948  18.313  43.008  1.00 37.23 LIG-0.23  N 
ATOM     34  CZ  ARG F 169      -5.741  18.263  43.570  1.00 33.71 LIG 0.67  C 
ATOM     35  NH2 ARG F 169      -5.336  19.294  44.301  1.00 35.73 LIG-0.23  N 
ATOM     36  NH1 ARG F 169      -4.944  17.201  43.408  1.00 22.18 LIG-0.23  N 
ATOM     37 2HH2 ARG F 169      -4.560  19.280  44.671  1.00 35.73 LIG 0.17  HD
ATOM     38 1HH2 ARG F 169      -5.850  19.976  44.404  1.00 35.73 LIG 0.17  HD
ATOM     39 1HH1 ARG F 169      -5.208  16.534  42.933  1.00 22.18 LIG 0.17  HD
ATOM     40 2HH1 ARG F 169      -4.168  17.186  43.778  1.00 22.18 LIG 0.17  HD
ATOM     41 HE   ARG F 169      -7.418  19.019  43.149  1.00 37.23 LIG 0.18  HD
ENDBRANCH 32 33
ENDBRANCH 31 32
ENDBRANCH 30 31
ENDBRANCH 19 30
ENDBRANCH 17 19
ENDBRANCH 6 15
ENDBRANCH 3 6
ENDBRANCH 1 2
BRANCH 1 42
ATOM     42  CB  ARG F 167       2.158  19.172  39.142  1.00 34.27 LIG 0.04  C 
BRANCH 42 43
ATOM     43  CG  ARG F 167       3.313  19.555  40.045  1.00 36.76 LIG 0.02  C 
BRANCH 43 44
ATOM     44  CD  ARG F 167       2.833  19.779  41.452  1.00 47.53 LIG 0.14  C 
BRANCH 44 45
ATOM     45  NE  ARG F 167       1.427  20.161  41.472  1.00 46.15 LIG-0.23  N 
ATOM     46 HE   ARG F 167       0.835  19.537  41.472  1.00 46.15 LIG 0.18  HD
ATOM     47  CZ  ARG F 167       1.014  21.420  41.490  1.00 54.25 LIG 0.67  C 
ATOM     48  NH2 ARG F 167      -0.285  21.701  41.512  1.00 44.38 LIG-0.23  N 
ATOM     49  NH1 ARG F 167       1.914  22.399  41.481  1.00 45.80 LIG-0.23  N 
ATOM     50 1HH2 ARG F 167      -0.862  21.064  41.515  1.00 44.38 LIG 0.17  HD
ATOM     51 2HH2 ARG F 167      -0.548  22.519  41.524  1.00 44.38 LIG 0.17  HD
ATOM     52 2HH1 ARG F 167       1.657  23.219  41.492  1.00 45.80 LIG 0.17  HD
ATOM     53 1HH1 ARG F 167       2.753  22.212  41.463  1.00 45.80 LIG 0.17  HD
ENDBRANCH 44 45
ENDBRANCH 43 44
ENDBRANCH 42 43
ENDBRANCH 1 42
BRANCH 1 54
ATOM     54  N   ARG F 167       2.697  21.400  38.208  1.00 32.00 LIG-0.35  N 
ATOM     55 H    ARG F 167       2.365  22.076  38.622  1.00 32.00 LIG 0.16  HD
ATOM     56  C   GLN F 166       3.923  21.389  37.687  1.00 42.00 LIG 0.24  C 
ATOM     57 O    GLN F 166       4.437  20.392  37.168  1.00 37.97 LIG-0.27  OA
BRANCH 56 58
ATOM     58  CA  GLN F 166       4.680  22.702  37.781  1.00 41.36 LIG 0.18  C 
BRANCH 58 59
ATOM     59  CB  GLN F 166       4.403  23.535  36.524  1.00 34.92 LIG 0.04  C 
BRANCH 59 60
ATOM     60  CG  GLN F 166       3.086  24.270  36.524  1.00 32.73 LIG 0.10  C 
BRANCH 60 61
ATOM     61  CD  GLN F 166       2.765  24.849  35.159  1.00 43.28 LIG 0.21  C 
ATOM     62  NE2 GLN F 166       1.990  25.929  35.138  1.00 36.91 LIG-0.37  N 
ATOM     63 21HE GLN F 166       1.701  26.265  35.875  1.00 36.91 LIG 0.16  HD
ATOM     64 22HE GLN F 166       1.778  26.291  34.387  1.00 36.91 LIG 0.16  HD
ATOM     65 OE1  GLN F 166       3.207  24.326  34.131  1.00 42.55 LIG-0.27  OA
ENDBRANCH 60 61
ENDBRANCH 59 60
ENDBRANCH 58 59
BRANCH 58 66
ATOM     66  N   GLN F 166       6.097  22.420  37.958  1.00 35.11 LIG-0.35  N 
ATOM     67  C   THR F 165       6.566  21.783  39.026  1.00 35.16 LIG 0.24  C 
ATOM     68 O    THR F 165       5.839  21.454  39.973  1.00 30.91 LIG-0.27  OA
ATOM     69 H    GLN F 166       6.595  22.702  37.315  1.00 35.11 LIG 0.16  HD
BRANCH 67 70
ATOM     70  CA  THR F 165       8.053  21.456  39.071  1.00 44.00 LIG 0.20  C 
BRANCH 70 71
ATOM     71  CB  THR F 165       8.741  21.987  37.808  1.00 46.85 LIG 0.15  C 
ATOM     72  CG2 THR F 165       9.063  23.475  37.962  1.00 37.95 LIG 0.04  C 
BRANCH 71 73
ATOM     73 OG1  THR F 165       9.942  21.242  37.567  1.00 45.14 LIG-0.39  OA
ATOM     74 HG1  THR F 165      10.527  21.464  38.126  1.00 45.14 LIG 0.21  HD
ENDBRANCH 71 73
ENDBRANCH 70 71
BRANCH 70 75
ATOM     75  N   THR F 165       8.302  20.028  39.227  1.00 38.01 LIG-0.34  N 
ATOM     76 H    THR F 165       8.781  19.827  39.912  1.00 38.01 LIG 0.16  HD
ATOM     77  C   THR F 164       7.819  19.125  38.372  1.00 57.69 LIG 0.26  C 
ATOM     78 O    THR F 164       7.131  19.432  37.393  1.00 49.67 LIG-0.27  OA
BRANCH 77 79
ATOM     79  CA  THR F 164       8.169  17.662  38.662  1.00 56.73 LIG 0.43  C 
ATOM     80  N   THR F 164       9.265  17.572  39.623  1.00 65.32 LIG 0.62  N 
BRANCH 79 81
ATOM     81  CB  THR F 164       6.907  16.911  39.164  1.00 58.05 LIG 0.16  C 
ATOM     82  CG2 THR F 164       6.891  16.861  40.690  1.00 51.52 LIG 0.04  C 
BRANCH 81 83
ATOM     83 OG1  THR F 164       5.722  17.574  38.699  1.00 58.15 LIG-0.39  OA
ATOM     84 HG1  THR F 164       5.046  17.131  38.928  1.00 58.15 LIG 0.21  HD
ENDBRANCH 81 83
ENDBRANCH 79 81
ENDBRANCH 77 79
ENDBRANCH 70 75
ENDBRANCH 67 70
ENDBRANCH 58 66
ENDBRANCH 56 58
ENDBRANCH 1 54
TORSDOF 35
ENDMDL
MODEL 42
USER: ADFR SOLUTION from run 9
USER: SCORE 23.738292 LL:  -4.080 LR: -22.404 RR:   0.000 FEB: -11.963
USER: RMSD 7.582421
USER: SEED 736038
USER: STATUS searching
USER: GENES 37
USER: genes 0 Translation |==|  0.47607 0.58580 0.46568
USER: genes 1 Rotation |==|  0.80205 0.86446 0.34598 0.54700
USER: genes 2 Torsion [N]-CA--C-[N] |==|  0.60064
USER: genes 3 Torsion [C]-N--CA-[C] |==|  0.21763
USER: genes 4 Torsion [N]-CA--CB-[CG] |==|  0.43903
USER: genes 5 Torsion [CA]-CB--CG-[CD] |==|  0.20809
USER: genes 6 Torsion [CB]-CG--CD-[CE] |==|  0.04966
USER: genes 7 Torsion [CG]-CD--CE-[NZ] |==|  0.70291
USER: genes 8 Torsion [CD]-CE--NZ-[HZ3] |==|  0.80543
USER: genes 9 Torsion [N]-CA--C-[N] |==|  0.36989
USER: genes 10 Torsion [C]-N--CA-[C] |==|  0.78287
USER: genes 11 Torsion [N]-CA--C-[N] |==|  0.28644
USER: genes 12 Torsion [C]-N--CA-[C] |==|  0.72861
USER: genes 13 Torsion [N]-CA--C-[O] |==|  0.03066
USER: genes 14 Torsion [N]-CA--CB-[OG] |==|  0.13552
USER: genes 15 Torsion [CA]-CB--OG-[HG] |==|  0.79080
USER: genes 16 Torsion [N]-CA--CB-[CG] |==|  0.54330
USER: genes 17 Torsion [CA]-CB--CG-[CD] |==|  0.65112
USER: genes 18 Torsion [CB]-CG--CD-[NE] |==|  0.84516
USER: genes 19 Torsion [CG]-CD--NE-[CZ] |==|  0.31636
USER: genes 20 Torsion [C]-CA--CB-[CG] |==|  0.31392
USER: genes 21 Torsion [CA]-CB--CG-[CD] |==|  0.49940
USER: genes 22 Torsion [CB]-CG--CD-[NE] |==|  0.30732
USER: genes 23 Torsion [CG]-CD--NE-[CZ] |==|  0.22652
USER: genes 24 Torsion [C]-CA--N-[C] |==|  0.56752
USER: genes 25 Torsion [N]-C--CA-[N] |==|  0.93988
USER: genes 26 Torsion [C]-CA--CB-[CG] |==|  0.31477
USER: genes 27 Torsion [CA]-CB--CG-[CD] |==|  0.94755
USER: genes 28 Torsion [CB]-CG--CD-[NE2] |==|  0.81937
USER: genes 29 Torsion [C]-CA--N-[C] |==|  0.67819
USER: genes 30 Torsion [N]-C--CA-[N] |==|  0.33389
USER: genes 31 Torsion [C]-CA--CB-[CG2] |==|  0.17653
USER: genes 32 Torsion [CA]-CB--OG1-[HG1] |==|  0.10544
USER: genes 33 Torsion [C]-CA--N-[C] |==|  0.61267
USER: genes 34 Torsion [N]-C--CA-[N] |==|  0.89390
USER: genes 35 Torsion [C]-CA--CB-[OG1] |==|  0.03258
USER: genes 36 Torsion [CA]-CB--OG1-[HG1] |==|  0.16871
ROOT
ATOM      1  CA  ARG F 167      -1.803  20.332  37.995  1.00 38.85 LIG 0.18  C 
ENDROOT
BRANCH 1 2
ATOM      2  C   ARG F 167      -2.983  19.454  38.375  1.00 41.97 LIG 0.24  C 
ATOM      3  N   LYS F 168      -2.806  18.677  39.444  1.00 42.42 LIG-0.35  N 
ATOM      4 H    LYS F 168      -2.062  18.585  39.866  1.00 42.42 LIG 0.16  HD
ATOM      5 O    ARG F 167      -4.024  19.468  37.712  1.00 34.60 LIG-0.27  OA
BRANCH 3 6
ATOM      6  CA  LYS F 168      -3.920  17.906  39.979  1.00 39.35 LIG 0.18  C 
BRANCH 6 7
ATOM      7  CB  LYS F 168      -5.194  18.752  40.030  1.00 43.51 LIG 0.04  C 
BRANCH 7 8
ATOM      8  CG  LYS F 168      -6.479  17.948  40.061  1.00 39.69 LIG 0.00  C 
BRANCH 8 9
ATOM      9  CD  LYS F 168      -6.728  17.313  41.427  1.00 48.24 LIG 0.03  C 
BRANCH 9 10
ATOM     10  CE  LYS F 168      -5.894  17.977  42.525  1.00 54.37 LIG 0.23  C 
BRANCH 10 11
ATOM     11  NZ  LYS F 168      -4.754  17.134  43.007  1.00 52.23 LIG-0.08  N 
ATOM     12 HZ3  LYS F 168      -5.070  16.441  43.467  1.00 52.23 LIG 0.27  HD
ATOM     13 HZ1  LYS F 168      -4.287  16.838  42.309  1.00 52.23 LIG 0.27  HD
ATOM     14 HZ2  LYS F 168      -4.225  17.622  43.532  1.00 52.23 LIG 0.27  HD
ENDBRANCH 10 11
ENDBRANCH 9 10
ENDBRANCH 8 9
ENDBRANCH 7 8
ENDBRANCH 6 7
BRANCH 6 15
ATOM     15  C   LYS F 168      -4.144  16.665  39.122  1.00 30.99 LIG 0.24  C 
ATOM     16 O    LYS F 168      -4.142  16.733  37.888  1.00 32.09 LIG-0.27  OA
ATOM     17  N   ARG F 169      -4.299  15.520  39.781  1.00 23.74 LIG-0.35  N 
ATOM     18 H    ARG F 169      -4.265  15.439  40.637  1.00 23.74 LIG 0.16  HD
BRANCH 17 19
ATOM     19  CA  ARG F 169      -4.548  14.285  39.053  1.00 28.77 LIG 0.18  C 
BRANCH 19 20
ATOM     20  C   ARG F 169      -6.008  14.222  38.616  1.00 37.10 LIG 0.24  C 
ATOM     21  N   SER F 170      -6.229  14.492  37.331  1.00 32.48 LIG-0.34  N 
ATOM     22 H    SER F 170      -5.601  14.563  36.748  1.00 32.48 LIG 0.16  HD
ATOM     23 O    ARG F 169      -6.914  13.969  39.422  1.00 33.53 LIG-0.27  OA
BRANCH 21 24
ATOM     24  CA  SER F 170      -7.571  14.696  36.784  1.00 32.11 LIG 0.19  C 
BRANCH 24 25
ATOM     25  C   SER F 170      -8.139  13.436  36.118  1.00 36.47 LIG 0.22  C 
ATOM     26 O    SER F 170      -7.586  12.343  36.250  1.00 35.83 LIG-0.29  OA
ENDBRANCH 24 25
BRANCH 24 27
ATOM     27  CB  SER F 170      -7.548  15.855  35.782  1.00 36.26 LIG 0.20  C 
BRANCH 27 28
ATOM     28 OG   SER F 170      -6.479  15.701  34.857  1.00 19.66 LIG-0.40  OA
ATOM     29 HG   SER F 170      -5.753  15.894  35.232  1.00 19.66 LIG 0.21  HD
ENDBRANCH 27 28
ENDBRANCH 24 27
ENDBRANCH 21 24
ENDBRANCH 19 20
BRANCH 19 30
ATOM     30  CB  ARG F 169      -4.167  13.065  39.903  1.00 32.99 LIG 0.04  C 
BRANCH 30 31
ATOM     31  CG  ARG F 169      -4.019  11.738  39.177  1.00 34.51 LIG 0.02  C 
BRANCH 31 32
ATOM     32  CD  ARG F 169      -4.922  10.688  39.853  1.00 39.71 LIG 0.14  C 
BRANCH 32 33
ATOM     33  NE  ARG F 169      -4.608  10.586  41.277  1.00 37.23 LIG-0.23  N 
ATOM     34  CZ  ARG F 169      -5.421  10.927  42.276  1.00 33.71 LIG 0.67  C 
ATOM     35  NH2 ARG F 169      -4.997  10.771  43.524  1.00 35.73 LIG-0.23  N 
ATOM     36  NH1 ARG F 169      -6.643  11.418  42.039  1.00 22.18 LIG-0.23  N 
ATOM     37 2HH2 ARG F 169      -5.508  10.986  44.182  1.00 35.73 LIG 0.17  HD
ATOM     38 1HH2 ARG F 169      -4.211  10.455  43.675  1.00 35.73 LIG 0.17  HD
ATOM     39 1HH1 ARG F 169      -6.916  11.518  41.230  1.00 22.18 LIG 0.17  HD
ATOM     40 2HH1 ARG F 169      -7.154  11.633  42.696  1.00 22.18 LIG 0.17  HD
ATOM     41 HE   ARG F 169      -3.833  10.279  41.489  1.00 37.23 LIG 0.18  HD
ENDBRANCH 32 33
ENDBRANCH 31 32
ENDBRANCH 30 31
ENDBRANCH 19 30
ENDBRANCH 17 19
ENDBRANCH 6 15
ENDBRANCH 3 6
ENDBRANCH 1 2
BRANCH 1 42
ATOM     42  CB  ARG F 167      -0.878  20.517  39.204  1.00 34.27 LIG 0.04  C 
BRANCH 42 43
ATOM     43  CG  ARG F 167       0.476  19.860  39.027  1.00 36.76 LIG 0.02  C 
BRANCH 43 44
ATOM     44  CD  ARG F 167       1.334  20.083  40.242  1.00 47.53 LIG 0.14  C 
BRANCH 44 45
ATOM     45  NE  ARG F 167       1.535  18.841  40.977  1.00 46.15 LIG-0.23  N 
ATOM     46 HE   ARG F 167       1.041  18.690  41.664  1.00 46.15 LIG 0.18  HD
ATOM     47  CZ  ARG F 167       2.441  17.934  40.641  1.00 54.25 LIG 0.67  C 
ATOM     48  NH2 ARG F 167       2.570  16.818  41.353  1.00 44.38 LIG-0.23  N 
ATOM     49  NH1 ARG F 167       3.221  18.154  39.587  1.00 45.80 LIG-0.23  N 
ATOM     50 1HH2 ARG F 167       2.065  16.683  42.034  1.00 44.38 LIG 0.17  HD
ATOM     51 2HH2 ARG F 167       3.159  16.232  41.130  1.00 44.38 LIG 0.17  HD
ATOM     52 2HH1 ARG F 167       3.812  17.572  39.360  1.00 45.80 LIG 0.17  HD
ATOM     53 1HH1 ARG F 167       3.135  18.878  39.132  1.00 45.80 LIG 0.17  HD
ENDBRANCH 44 45
ENDBRANCH 43 44
ENDBRANCH 42 43
ENDBRANCH 1 42
BRANCH 1 54
ATOM     54  N   ARG F 167      -2.311  21.603  37.502  1.00 32.00 LIG-0.35  N 
ATOM     55 H    ARG F 167      -3.096  21.801  37.792  1.00 32.00 LIG 0.16  HD
ATOM     56  C   GLN F 166      -1.616  22.384  36.676  1.00 42.00 LIG 0.24  C 
ATOM     57 O    GLN F 166      -0.455  22.147  36.326  1.00 37.97 LIG-0.27  OA
BRANCH 56 58
ATOM     58  CA  GLN F 166      -2.346  23.622  36.186  1.00 41.36 LIG 0.18  C 
BRANCH 58 59
ATOM     59  CB  GLN F 166      -1.860  24.840  36.979  1.00 34.92 LIG 0.04  C 
BRANCH 59 60
ATOM     60  CG  GLN F 166      -1.091  25.860  36.177  1.00 32.73 LIG 0.10  C 
BRANCH 60 61
ATOM     61  CD  GLN F 166      -0.564  25.275  34.880  1.00 43.28 LIG 0.21  C 
ATOM     62  NE2 GLN F 166       0.346  24.312  34.989  1.00 36.91 LIG-0.37  N 
ATOM     63 21HE GLN F 166       0.604  24.049  35.766  1.00 36.91 LIG 0.16  HD
ATOM     64 22HE GLN F 166       0.676  23.951  34.281  1.00 36.91 LIG 0.16  HD
ATOM     65 OE1  GLN F 166      -0.969  25.689  33.790  1.00 42.55 LIG-0.27  OA
ENDBRANCH 60 61
ENDBRANCH 59 60
ENDBRANCH 58 59
BRANCH 58 66
ATOM     66  N   GLN F 166      -3.780  23.410  36.317  1.00 35.11 LIG-0.35  N 
ATOM     67  C   THR F 165      -4.591  23.366  35.265  1.00 35.16 LIG 0.24  C 
ATOM     68 O    THR F 165      -4.191  23.577  34.112  1.00 30.91 LIG-0.27  OA
ATOM     69 H    GLN F 166      -4.048  23.317  37.129  1.00 35.11 LIG 0.16  HD
BRANCH 67 70
ATOM     70  CA  THR F 165      -6.060  23.047  35.505  1.00 44.00 LIG 0.20  C 
BRANCH 70 71
ATOM     71  CB  THR F 165      -6.425  21.726  34.819  1.00 46.85 LIG 0.15  C 
ATOM     72  CG2 THR F 165      -5.638  20.569  35.437  1.00 37.95 LIG 0.04  C 
BRANCH 71 73
ATOM     73 OG1  THR F 165      -7.834  21.492  34.947  1.00 45.14 LIG-0.39  OA
ATOM     74 HG1  THR F 165      -8.247  22.219  34.871  1.00 45.14 LIG 0.21  HD
ENDBRANCH 71 73
ENDBRANCH 70 71
BRANCH 70 75
ATOM     75  N   THR F 165      -6.941  24.118  35.054  1.00 38.01 LIG-0.34  N 
ATOM     76 H    THR F 165      -6.707  24.474  34.307  1.00 38.01 LIG 0.16  HD
ATOM     77  C   THR F 164      -8.011  24.499  35.752  1.00 57.69 LIG 0.26  C 
ATOM     78 O    THR F 164      -8.332  23.975  36.824  1.00 49.67 LIG-0.27  OA
BRANCH 77 79
ATOM     79  CA  THR F 164      -8.838  25.643  35.155  1.00 56.73 LIG 0.43  C 
ATOM     80  N   THR F 164      -7.970  26.643  34.539  1.00 65.32 LIG 0.62  N 
BRANCH 79 81
ATOM     81  CB  THR F 164      -9.863  25.073  34.139  1.00 58.05 LIG 0.16  C 
ATOM     82  CG2 THR F 164      -9.461  25.447  32.713  1.00 51.52 LIG 0.04  C 
BRANCH 81 83
ATOM     83 OG1  THR F 164      -9.928  23.644  34.254  1.00 58.15 LIG-0.39  OA
ATOM     84 HG1  THR F 164     -10.177  23.437  35.029  1.00 58.15 LIG 0.21  HD
ENDBRANCH 81 83
ENDBRANCH 79 81
ENDBRANCH 77 79
ENDBRANCH 70 75
ENDBRANCH 67 70
ENDBRANCH 58 66
ENDBRANCH 56 58
ENDBRANCH 1 54
TORSDOF 35
ENDMDL
MODEL 43
USER: ADFR SOLUTION from run 115
USER: SCORE 26.480085 LL:  -4.736 LR: -22.376 RR:   0.000 FEB: -11.935
USER: RMSD 8.591122
USER: SEED 114
USER: STATUS no improvement in best in 2 clusters for 5 generations
USER: GENES 37
USER: genes 0 Translation |==|  0.35924 0.40006 0.51750
USER: genes 1 Rotation |==|  0.09324 0.24294 0.37046 0.54102
USER: genes 2 Torsion [N]-CA--C-[N] |==|  0.36111
USER: genes 3 Torsion [C]-N--CA-[C] |==|  0.17584
USER: genes 4 Torsion [N]-CA--CB-[CG] |==|  0.65698
USER: genes 5 Torsion [CA]-CB--CG-[CD] |==|  0.77631
USER: genes 6 Torsion [CB]-CG--CD-[CE] |==|  0.65817
USER: genes 7 Torsion [CG]-CD--CE-[NZ] |==|  0.50244
USER: genes 8 Torsion [CD]-CE--NZ-[HZ3] |==|  0.28534
USER: genes 9 Torsion [N]-CA--C-[N] |==|  0.08652
USER: genes 10 Torsion [C]-N--CA-[C] |==|  0.84127
USER: genes 11 Torsion [N]-CA--C-[N] |==|  0.36184
USER: genes 12 Torsion [C]-N--CA-[C] |==|  0.19137
USER: genes 13 Torsion [N]-CA--C-[O] |==|  0.02297
USER: genes 14 Torsion [N]-CA--CB-[OG] |==|  0.39619
USER: genes 15 Torsion [CA]-CB--OG-[HG] |==|  0.40492
USER: genes 16 Torsion [N]-CA--CB-[CG] |==|  0.58117
USER: genes 17 Torsion [CA]-CB--CG-[CD] |==|  0.82000
USER: genes 18 Torsion [CB]-CG--CD-[NE] |==|  0.72873
USER: genes 19 Torsion [CG]-CD--NE-[CZ] |==|  0.23925
USER: genes 20 Torsion [C]-CA--CB-[CG] |==|  0.31047
USER: genes 21 Torsion [CA]-CB--CG-[CD] |==|  0.57603
USER: genes 22 Torsion [CB]-CG--CD-[NE] |==|  0.76472
USER: genes 23 Torsion [CG]-CD--NE-[CZ] |==|  0.26927
USER: genes 24 Torsion [C]-CA--N-[C] |==|  0.84999
USER: genes 25 Torsion [N]-C--CA-[N] |==|  0.39287
USER: genes 26 Torsion [C]-CA--CB-[CG] |==|  0.33513
USER: genes 27 Torsion [CA]-CB--CG-[CD] |==|  0.83587
USER: genes 28 Torsion [CB]-CG--CD-[NE2] |==|  0.26674
USER: genes 29 Torsion [C]-CA--N-[C] |==|  0.85514
USER: genes 30 Torsion [N]-C--CA-[N] |==|  0.51182
USER: genes 31 Torsion [C]-CA--CB-[CG2] |==|  0.54960
USER: genes 32 Torsion [CA]-CB--OG1-[HG1] |==|  0.17713
USER: genes 33 Torsion [C]-CA--N-[C] |==|  0.68778
USER: genes 34 Torsion [N]-C--CA-[N] |==|  0.30585
USER: genes 35 Torsion [C]-CA--CB-[OG1] |==|  0.45106
USER: genes 36 Torsion [CA]-CB--OG1-[HG1] |==|  0.53177
ROOT
ATOM      1  CA  ARG F 167      -4.695  15.178  39.005  1.00 38.85 LIG 0.18  C 
ENDROOT
BRANCH 1 2
ATOM      2  C   ARG F 167      -5.892  15.472  38.119  1.00 41.97 LIG 0.24  C 
ATOM      3  N   LYS F 168      -5.712  15.261  36.814  1.00 42.42 LIG-0.35  N 
ATOM      4 H    LYS F 168      -4.961  15.055  36.449  1.00 42.42 LIG 0.16  HD
ATOM      5 O    ARG F 167      -6.948  15.893  38.598  1.00 34.60 LIG-0.27  OA
BRANCH 3 6
ATOM      6  CA  LYS F 168      -6.837  15.373  35.895  1.00 39.35 LIG 0.18  C 
BRANCH 6 7
ATOM      7  CB  LYS F 168      -7.953  14.398  36.276  1.00 43.51 LIG 0.04  C 
BRANCH 7 8
ATOM      8  CG  LYS F 168      -8.355  13.443  35.169  1.00 39.69 LIG 0.00  C 
BRANCH 8 9
ATOM      9  CD  LYS F 168      -9.302  14.094  34.164  1.00 48.24 LIG 0.03  C 
BRANCH 9 10
ATOM     10  CE  LYS F 168     -10.615  13.318  34.032  1.00 54.37 LIG 0.23  C 
BRANCH 10 11
ATOM     11  NZ  LYS F 168     -11.568  13.911  33.039  1.00 52.23 LIG-0.08  N 
ATOM     12 HZ3  LYS F 168     -11.548  13.435  32.287  1.00 52.23 LIG 0.27  HD
ATOM     13 HZ1  LYS F 168     -12.392  13.900  33.375  1.00 52.23 LIG 0.27  HD
ATOM     14 HZ2  LYS F 168     -11.330  14.751  32.864  1.00 52.23 LIG 0.27  HD
ENDBRANCH 10 11
ENDBRANCH 9 10
ENDBRANCH 8 9
ENDBRANCH 7 8
ENDBRANCH 6 7
BRANCH 6 15
ATOM     15  C   LYS F 168      -7.362  16.805  35.898  1.00 30.99 LIG 0.24  C 
ATOM     16 O    LYS F 168      -8.563  17.044  35.733  1.00 32.09 LIG-0.27  OA
ATOM     17  N   ARG F 169      -6.462  17.757  36.127  1.00 23.74 LIG-0.35  N 
ATOM     18 H    ARG F 169      -5.628  17.615  36.285  1.00 23.74 LIG 0.16  HD
BRANCH 17 19
ATOM     19  CA  ARG F 169      -6.860  19.157  36.121  1.00 28.77 LIG 0.18  C 
BRANCH 19 20
ATOM     20  C   ARG F 169      -7.500  19.511  34.782  1.00 37.10 LIG 0.24  C 
ATOM     21  N   SER F 170      -8.670  20.141  34.862  1.00 32.48 LIG-0.34  N 
ATOM     22 H    SER F 170      -8.990  20.455  35.596  1.00 32.48 LIG 0.16  HD
ATOM     23 O    ARG F 169      -6.970  19.196  33.708  1.00 33.53 LIG-0.27  OA
BRANCH 21 24
ATOM     24  CA  SER F 170      -9.531  20.362  33.699  1.00 32.11 LIG 0.19  C 
BRANCH 24 25
ATOM     25  C   SER F 170     -10.145  19.064  33.160  1.00 36.47 LIG 0.22  C 
ATOM     26 O    SER F 170     -10.028  18.003  33.773  1.00 35.83 LIG-0.29  OA
ENDBRANCH 24 25
BRANCH 24 27
ATOM     27  CB  SER F 170      -8.736  21.067  32.595  1.00 36.26 LIG 0.20  C 
BRANCH 27 28
ATOM     28 OG   SER F 170      -9.111  20.576  31.313  1.00 19.66 LIG-0.40  OA
ATOM     29 HG   SER F 170      -9.072  21.200  30.751  1.00 19.66 LIG 0.21  HD
ENDBRANCH 27 28
ENDBRANCH 24 27
ENDBRANCH 21 24
ENDBRANCH 19 20
BRANCH 19 30
ATOM     30  CB  ARG F 169      -5.660  20.065  36.424  1.00 32.99 LIG 0.04  C 
BRANCH 30 31
ATOM     31  CG  ARG F 169      -5.955  21.389  37.112  1.00 34.51 LIG 0.02  C 
BRANCH 31 32
ATOM     32  CD  ARG F 169      -6.800  22.270  36.173  1.00 39.71 LIG 0.14  C 
BRANCH 32 33
ATOM     33  NE  ARG F 169      -5.948  23.221  35.461  1.00 37.23 LIG-0.23  N 
ATOM     34  CZ  ARG F 169      -5.301  22.980  34.322  1.00 33.71 LIG 0.67  C 
ATOM     35  NH2 ARG F 169      -4.566  23.948  33.789  1.00 35.73 LIG-0.23  N 
ATOM     36  NH1 ARG F 169      -5.383  21.790  33.716  1.00 22.18 LIG-0.23  N 
ATOM     37 2HH2 ARG F 169      -4.142  23.811  33.053  1.00 35.73 LIG 0.17  HD
ATOM     38 1HH2 ARG F 169      -4.514  24.713  34.179  1.00 35.73 LIG 0.17  HD
ATOM     39 1HH1 ARG F 169      -5.860  21.163  34.062  1.00 22.18 LIG 0.17  HD
ATOM     40 2HH1 ARG F 169      -4.959  21.651  32.981  1.00 22.18 LIG 0.17  HD
ATOM     41 HE   ARG F 169      -5.856  24.003  35.807  1.00 37.23 LIG 0.18  HD
ENDBRANCH 32 33
ENDBRANCH 31 32
ENDBRANCH 30 31
ENDBRANCH 19 30
ENDBRANCH 17 19
ENDBRANCH 6 15
ENDBRANCH 3 6
ENDBRANCH 1 2
BRANCH 1 42
ATOM     42  CB  ARG F 167      -4.941  13.893  39.807  1.00 34.27 LIG 0.04  C 
BRANCH 42 43
ATOM     43  CG  ARG F 167      -4.041  12.747  39.392  1.00 36.76 LIG 0.02  C 
BRANCH 43 44
ATOM     44  CD  ARG F 167      -4.706  11.427  39.670  1.00 47.53 LIG 0.14  C 
BRANCH 44 45
ATOM     45  NE  ARG F 167      -4.488  11.011  41.049  1.00 46.15 LIG-0.23  N 
ATOM     46 HE   ARG F 167      -3.752  10.611  41.243  1.00 46.15 LIG 0.18  HD
ATOM     47  CZ  ARG F 167      -5.367  11.217  42.020  1.00 54.25 LIG 0.67  C 
ATOM     48  NH2 ARG F 167      -5.105  10.815  43.260  1.00 44.38 LIG-0.23  N 
ATOM     49  NH1 ARG F 167      -6.515  11.825  41.739  1.00 45.80 LIG-0.23  N 
ATOM     50 1HH2 ARG F 167      -4.362  10.420  43.435  1.00 44.38 LIG 0.17  HD
ATOM     51 2HH2 ARG F 167      -5.678  10.951  43.887  1.00 44.38 LIG 0.17  HD
ATOM     52 2HH1 ARG F 167      -7.092  11.964  42.361  1.00 45.80 LIG 0.17  HD
ATOM     53 1HH1 ARG F 167      -6.681  12.080  40.934  1.00 45.80 LIG 0.17  HD
ENDBRANCH 44 45
ENDBRANCH 43 44
ENDBRANCH 42 43
ENDBRANCH 1 42
BRANCH 1 54
ATOM     54  N   ARG F 167      -4.467  16.323  39.873  1.00 32.00 LIG-0.35  N 
ATOM     55 H    ARG F 167      -4.439  16.126  40.710  1.00 32.00 LIG 0.16  HD
ATOM     56  C   GLN F 166      -4.317  17.561  39.406  1.00 42.00 LIG 0.24  C 
ATOM     57 O    GLN F 166      -4.270  17.837  38.202  1.00 37.97 LIG-0.27  OA
BRANCH 56 58
ATOM     58  CA  GLN F 166      -4.191  18.643  40.464  1.00 41.36 LIG 0.18  C 
BRANCH 58 59
ATOM     59  CB  GLN F 166      -5.569  19.268  40.711  1.00 34.92 LIG 0.04  C 
BRANCH 59 60
ATOM     60  CG  GLN F 166      -6.075  19.159  42.128  1.00 32.73 LIG 0.10  C 
BRANCH 60 61
ATOM     61  CD  GLN F 166      -6.186  17.715  42.577  1.00 43.28 LIG 0.21  C 
ATOM     62  NE2 GLN F 166      -5.159  17.225  43.264  1.00 36.91 LIG-0.37  N 
ATOM     63 21HE GLN F 166      -4.479  17.723  43.435  1.00 36.91 LIG 0.16  HD
ATOM     64 22HE GLN F 166      -5.175  16.410  43.538  1.00 36.91 LIG 0.16  HD
ATOM     65 OE1  GLN F 166      -7.186  17.044  42.305  1.00 42.55 LIG-0.27  OA
ENDBRANCH 60 61
ENDBRANCH 59 60
ENDBRANCH 58 59
BRANCH 58 66
ATOM     66  N   GLN F 166      -3.208  19.623  40.025  1.00 35.11 LIG-0.35  N 
ATOM     67  C   THR F 165      -1.987  19.275  39.630  1.00 35.16 LIG 0.24  C 
ATOM     68 O    THR F 165      -1.583  18.106  39.681  1.00 30.91 LIG-0.27  OA
ATOM     69 H    GLN F 166      -3.489  20.435  40.045  1.00 35.11 LIG 0.16  HD
BRANCH 67 70
ATOM     70  CA  THR F 165      -1.067  20.368  39.103  1.00 44.00 LIG 0.20  C 
BRANCH 70 71
ATOM     71  CB  THR F 165      -1.778  21.161  38.001  1.00 46.85 LIG 0.15  C 
ATOM     72  CG2 THR F 165      -0.762  21.944  37.167  1.00 37.95 LIG 0.04  C 
BRANCH 71 73
ATOM     73 OG1  THR F 165      -2.518  20.262  37.164  1.00 45.14 LIG-0.39  OA
ATOM     74 HG1  THR F 165      -3.122  19.891  37.615  1.00 45.14 LIG 0.21  HD
ENDBRANCH 71 73
ENDBRANCH 70 71
BRANCH 70 75
ATOM     75  N   THR F 165       0.200  19.836  38.614  1.00 38.01 LIG-0.34  N 
ATOM     76 H    THR F 165       0.130  19.354  37.906  1.00 38.01 LIG 0.16  HD
ATOM     77  C   THR F 164       1.358  20.086  39.226  1.00 57.69 LIG 0.26  C 
ATOM     78 O    THR F 164       1.441  20.783  40.244  1.00 49.67 LIG-0.27  OA
BRANCH 77 79
ATOM     79  CA  THR F 164       2.606  19.454  38.600  1.00 56.73 LIG 0.43  C 
ATOM     80  N   THR F 164       3.455  20.475  37.992  1.00 65.32 LIG 0.62  N 
BRANCH 79 81
ATOM     81  CB  THR F 164       3.374  18.638  39.673  1.00 58.05 LIG 0.16  C 
ATOM     82  CG2 THR F 164       2.395  17.852  40.544  1.00 51.52 LIG 0.04  C 
BRANCH 81 83
ATOM     83 OG1  THR F 164       4.284  17.727  39.041  1.00 58.15 LIG-0.39  OA
ATOM     84 HG1  THR F 164       4.578  17.184  39.611  1.00 58.15 LIG 0.21  HD
ENDBRANCH 81 83
ENDBRANCH 79 81
ENDBRANCH 77 79
ENDBRANCH 70 75
ENDBRANCH 67 70
ENDBRANCH 58 66
ENDBRANCH 56 58
ENDBRANCH 1 54
TORSDOF 35
ENDMDL
MODEL 44
USER: ADFR SOLUTION from run 35
USER: SCORE 24.947883 LL:  -4.064 LR: -22.378 RR:   0.000 FEB: -11.938
USER: RMSD 9.315125
USER: SEED 34
USER: STATUS no improvement in best in 3 clusters for 5 generations
USER: GENES 37
USER: genes 0 Translation |==|  0.33436 0.56370 0.47398
USER: genes 1 Rotation |==|  0.71708 0.81441 0.57314 0.81412
USER: genes 2 Torsion [N]-CA--C-[N] |==|  0.43889
USER: genes 3 Torsion [C]-N--CA-[C] |==|  0.86657
USER: genes 4 Torsion [N]-CA--CB-[CG] |==|  0.35476
USER: genes 5 Torsion [CA]-CB--CG-[CD] |==|  0.38642
USER: genes 6 Torsion [CB]-CG--CD-[CE] |==|  0.37551
USER: genes 7 Torsion [CG]-CD--CE-[NZ] |==|  0.01103
USER: genes 8 Torsion [CD]-CE--NZ-[HZ3] |==|  0.23081
USER: genes 9 Torsion [N]-CA--C-[N] |==|  0.33563
USER: genes 10 Torsion [C]-N--CA-[C] |==|  0.57187
USER: genes 11 Torsion [N]-CA--C-[N] |==|  0.33854
USER: genes 12 Torsion [C]-N--CA-[C] |==|  0.20214
USER: genes 13 Torsion [N]-CA--C-[O] |==|  0.08353
USER: genes 14 Torsion [N]-CA--CB-[OG] |==|  0.27978
USER: genes 15 Torsion [CA]-CB--OG-[HG] |==|  0.92713
USER: genes 16 Torsion [N]-CA--CB-[CG] |==|  0.61400
USER: genes 17 Torsion [CA]-CB--CG-[CD] |==|  0.66956
USER: genes 18 Torsion [CB]-CG--CD-[NE] |==|  0.18507
USER: genes 19 Torsion [CG]-CD--NE-[CZ] |==|  0.23612
USER: genes 20 Torsion [C]-CA--CB-[CG] |==|  0.37947
USER: genes 21 Torsion [CA]-CB--CG-[CD] |==|  0.61939
USER: genes 22 Torsion [CB]-CG--CD-[NE] |==|  0.30264
USER: genes 23 Torsion [CG]-CD--NE-[CZ] |==|  0.68959
USER: genes 24 Torsion [C]-CA--N-[C] |==|  0.74848
USER: genes 25 Torsion [N]-C--CA-[N] |==|  0.96798
USER: genes 26 Torsion [C]-CA--CB-[CG] |==|  0.36998
USER: genes 27 Torsion [CA]-CB--CG-[CD] |==|  0.71723
USER: genes 28 Torsion [CB]-CG--CD-[NE2] |==|  0.18709
USER: genes 29 Torsion [C]-CA--N-[C] |==|  0.67846
USER: genes 30 Torsion [N]-C--CA-[N] |==|  0.24954
USER: genes 31 Torsion [C]-CA--CB-[CG2] |==|  0.29299
USER: genes 32 Torsion [CA]-CB--OG1-[HG1] |==|  0.31336
USER: genes 33 Torsion [C]-CA--N-[C] |==|  0.63072
USER: genes 34 Torsion [N]-C--CA-[N] |==|  0.85562
USER: genes 35 Torsion [C]-CA--CB-[OG1] |==|  0.82415
USER: genes 36 Torsion [CA]-CB--OG1-[HG1] |==|  0.20770
ROOT
ATOM      1  CA  ARG F 167      -5.311  19.719  38.157  1.00 38.85 LIG 0.18  C 
ENDROOT
BRANCH 1 2
ATOM      2  C   ARG F 167      -5.455  18.341  37.535  1.00 41.97 LIG 0.24  C 
ATOM      3  N   LYS F 168      -5.006  17.323  38.272  1.00 42.42 LIG-0.35  N 
ATOM      4 H    LYS F 168      -4.579  17.405  39.014  1.00 42.42 LIG 0.16  HD
ATOM      5 O    ARG F 167      -5.949  18.199  36.413  1.00 34.60 LIG-0.27  OA
BRANCH 3 6
ATOM      6  CA  LYS F 168      -5.227  15.952  37.834  1.00 39.35 LIG 0.18  C 
BRANCH 6 7
ATOM      7  CB  LYS F 168      -4.851  14.959  38.936  1.00 43.51 LIG 0.04  C 
BRANCH 7 8
ATOM      8  CG  LYS F 168      -5.935  13.953  39.269  1.00 39.69 LIG 0.00  C 
BRANCH 8 9
ATOM      9  CD  LYS F 168      -5.370  12.553  39.498  1.00 48.24 LIG 0.03  C 
BRANCH 9 10
ATOM     10  CE  LYS F 168      -5.978  11.887  40.734  1.00 54.37 LIG 0.23  C 
BRANCH 10 11
ATOM     11  NZ  LYS F 168      -7.051  12.701  41.390  1.00 52.23 LIG-0.08  N 
ATOM     12 HZ3  LYS F 168      -7.825  12.567  40.971  1.00 52.23 LIG 0.27  HD
ATOM     13 HZ1  LYS F 168      -7.130  12.458  42.243  1.00 52.23 LIG 0.27  HD
ATOM     14 HZ2  LYS F 168      -6.837  13.565  41.348  1.00 52.23 LIG 0.27  HD
ENDBRANCH 10 11
ENDBRANCH 9 10
ENDBRANCH 8 9
ENDBRANCH 7 8
ENDBRANCH 6 7
BRANCH 6 15
ATOM     15  C   LYS F 168      -6.687  15.769  37.434  1.00 30.99 LIG 0.24  C 
ATOM     16 O    LYS F 168      -7.601  16.006  38.232  1.00 32.09 LIG-0.27  OA
ATOM     17  N   ARG F 169      -6.906  15.383  36.180  1.00 23.74 LIG-0.35  N 
ATOM     18 H    ARG F 169      -6.290  15.251  35.594  1.00 23.74 LIG 0.16  HD
BRANCH 17 19
ATOM     19  CA  ARG F 169      -8.264  15.153  35.712  1.00 28.77 LIG 0.18  C 
BRANCH 19 20
ATOM     20  C   ARG F 169      -8.256  14.158  34.556  1.00 37.10 LIG 0.24  C 
ATOM     21  N   SER F 170      -8.985  13.060  34.747  1.00 32.48 LIG-0.34  N 
ATOM     22 H    SER F 170      -9.532  12.964  35.403  1.00 32.48 LIG 0.16  HD
ATOM     23 O    ARG F 169      -7.586  14.360  33.534  1.00 33.53 LIG-0.27  OA
BRANCH 21 24
ATOM     24  CA  SER F 170      -8.922  11.903  33.852  1.00 32.11 LIG 0.19  C 
BRANCH 24 25
ATOM     25  C   SER F 170      -7.621  11.105  34.004  1.00 36.47 LIG 0.22  C 
ATOM     26 O    SER F 170      -7.027  11.057  35.081  1.00 35.83 LIG-0.29  OA
ENDBRANCH 24 25
BRANCH 24 27
ATOM     27  CB  SER F 170      -9.091  12.364  32.401  1.00 36.26 LIG 0.20  C 
BRANCH 27 28
ATOM     28 OG   SER F 170      -7.830  12.431  31.744  1.00 19.66 LIG-0.40  OA
ATOM     29 HG   SER F 170      -7.225  12.561  32.311  1.00 19.66 LIG 0.21  HD
ENDBRANCH 27 28
ENDBRANCH 24 27
ENDBRANCH 21 24
ENDBRANCH 19 20
BRANCH 19 30
ATOM     30  CB  ARG F 169      -8.932  16.475  35.307  1.00 32.99 LIG 0.04  C 
BRANCH 30 31
ATOM     31  CG  ARG F 169     -10.387  16.662  35.706  1.00 34.51 LIG 0.02  C 
BRANCH 31 32
ATOM     32  CD  ARG F 169     -11.241  16.837  34.436  1.00 39.71 LIG 0.14  C 
BRANCH 32 33
ATOM     33  NE  ARG F 169     -11.254  15.601  33.654  1.00 37.23 LIG-0.23  N 
ATOM     34  CZ  ARG F 169     -12.078  14.572  33.845  1.00 33.71 LIG 0.67  C 
ATOM     35  NH2 ARG F 169     -11.973  13.516  33.049  1.00 35.73 LIG-0.23  N 
ATOM     36  NH1 ARG F 169     -12.997  14.591  34.817  1.00 22.18 LIG-0.23  N 
ATOM     37 2HH2 ARG F 169     -12.497  12.842  33.157  1.00 35.73 LIG 0.17  HD
ATOM     38 1HH2 ARG F 169     -11.381  13.505  32.425  1.00 35.73 LIG 0.17  HD
ATOM     39 1HH1 ARG F 169     -13.064  15.277  35.332  1.00 22.18 LIG 0.17  HD
ATOM     40 2HH1 ARG F 169     -13.521  13.918  34.926  1.00 22.18 LIG 0.17  HD
ATOM     41 HE   ARG F 169     -10.681  15.533  33.017  1.00 37.23 LIG 0.18  HD
ENDBRANCH 32 33
ENDBRANCH 31 32
ENDBRANCH 30 31
ENDBRANCH 19 30
ENDBRANCH 17 19
ENDBRANCH 6 15
ENDBRANCH 3 6
ENDBRANCH 1 2
BRANCH 1 42
ATOM     42  CB  ARG F 167      -6.427  19.950  39.182  1.00 34.27 LIG 0.04  C 
BRANCH 42 43
ATOM     43  CG  ARG F 167      -5.939  20.594  40.464  1.00 36.76 LIG 0.02  C 
BRANCH 43 44
ATOM     44  CD  ARG F 167      -6.564  19.931  41.660  1.00 47.53 LIG 0.14  C 
BRANCH 44 45
ATOM     45  NE  ARG F 167      -5.585  19.138  42.391  1.00 46.15 LIG-0.23  N 
ATOM     46 HE   ARG F 167      -4.954  19.550  42.805  1.00 46.15 LIG 0.18  HD
ATOM     47  CZ  ARG F 167      -5.618  17.814  42.451  1.00 54.25 LIG 0.67  C 
ATOM     48  NH2 ARG F 167      -4.696  17.150  43.142  1.00 44.38 LIG-0.23  N 
ATOM     49  NH1 ARG F 167      -6.581  17.158  41.810  1.00 45.80 LIG-0.23  N 
ATOM     50 1HH2 ARG F 167      -4.074  17.580  43.552  1.00 44.38 LIG 0.17  HD
ATOM     51 2HH2 ARG F 167      -4.721  16.291  43.178  1.00 44.38 LIG 0.17  HD
ATOM     52 2HH1 ARG F 167      -6.611  16.300  41.843  1.00 45.80 LIG 0.17  HD
ATOM     53 1HH1 ARG F 167      -7.173  17.592  41.363  1.00 45.80 LIG 0.17  HD
ENDBRANCH 44 45
ENDBRANCH 43 44
ENDBRANCH 42 43
ENDBRANCH 1 42
BRANCH 1 54
ATOM     54  N   ARG F 167      -5.337  20.712  37.094  1.00 32.00 LIG-0.35  N 
ATOM     55 H    ARG F 167      -6.126  20.996  36.901  1.00 32.00 LIG 0.16  HD
ATOM     56  C   GLN F 166      -4.235  21.137  36.479  1.00 42.00 LIG 0.24  C 
ATOM     57 O    GLN F 166      -3.094  20.799  36.809  1.00 37.97 LIG-0.27  OA
BRANCH 56 58
ATOM     58  CA  GLN F 166      -4.465  22.098  35.326  1.00 41.36 LIG 0.18  C 
BRANCH 58 59
ATOM     59  CB  GLN F 166      -3.941  23.486  35.714  1.00 34.92 LIG 0.04  C 
BRANCH 59 60
ATOM     60  CG  GLN F 166      -3.090  24.163  34.670  1.00 32.73 LIG 0.10  C 
BRANCH 60 61
ATOM     61  CD  GLN F 166      -1.612  24.065  34.997  1.00 43.28 LIG 0.21  C 
ATOM     62  NE2 GLN F 166      -1.071  22.852  34.946  1.00 36.91 LIG-0.37  N 
ATOM     63 21HE GLN F 166      -1.555  22.174  34.734  1.00 36.91 LIG 0.16  HD
ATOM     64 22HE GLN F 166      -0.236  22.746  35.126  1.00 36.91 LIG 0.16  HD
ATOM     65 OE1  GLN F 166      -0.964  25.072  35.296  1.00 42.55 LIG-0.27  OA
ENDBRANCH 60 61
ENDBRANCH 59 60
ENDBRANCH 58 59
BRANCH 58 66
ATOM     66  N   GLN F 166      -5.883  22.113  34.996  1.00 35.11 LIG-0.35  N 
ATOM     67  C   THR F 165      -6.343  21.689  33.823  1.00 35.16 LIG 0.24  C 
ATOM     68 O    THR F 165      -5.591  21.326  32.909  1.00 30.91 LIG-0.27  OA
ATOM     69 H    GLN F 166      -6.386  22.416  35.624  1.00 35.11 LIG 0.16  HD
BRANCH 67 70
ATOM     70  CA  THR F 165      -7.851  21.660  33.614  1.00 44.00 LIG 0.20  C 
BRANCH 70 71
ATOM     71  CB  THR F 165      -8.228  20.486  32.703  1.00 46.85 LIG 0.15  C 
ATOM     72  CG2 THR F 165      -8.865  19.360  33.520  1.00 37.95 LIG 0.04  C 
BRANCH 71 73
ATOM     73 OG1  THR F 165      -9.135  20.938  31.689  1.00 45.14 LIG-0.39  OA
ATOM     74 HG1  THR F 165      -8.759  20.900  30.939  1.00 45.14 LIG 0.21  HD
ENDBRANCH 71 73
ENDBRANCH 70 71
BRANCH 70 75
ATOM     75  N   THR F 165      -8.360  22.914  33.070  1.00 38.01 LIG-0.34  N 
ATOM     76 H    THR F 165      -7.909  23.216  32.404  1.00 38.01 LIG 0.16  HD
ATOM     77  C   THR F 164      -9.433  23.524  33.576  1.00 57.69 LIG 0.26  C 
ATOM     78 O    THR F 164     -10.069  23.073  34.534  1.00 49.67 LIG-0.27  OA
BRANCH 77 79
ATOM     79  CA  THR F 164      -9.845  24.837  32.904  1.00 56.73 LIG 0.43  C 
ATOM     80  N   THR F 164      -8.711  25.754  32.818  1.00 65.32 LIG 0.62  N 
BRANCH 79 81
ATOM     81  CB  THR F 164     -10.447  24.543  31.504  1.00 58.05 LIG 0.16  C 
ATOM     82  CG2 THR F 164     -10.954  25.833  30.862  1.00 51.52 LIG 0.04  C 
BRANCH 81 83
ATOM     83 OG1  THR F 164      -9.454  23.949  30.655  1.00 58.15 LIG-0.39  OA
ATOM     84 HG1  THR F 164      -9.334  23.149  30.882  1.00 58.15 LIG 0.21  HD
ENDBRANCH 81 83
ENDBRANCH 79 81
ENDBRANCH 77 79
ENDBRANCH 70 75
ENDBRANCH 67 70
ENDBRANCH 58 66
ENDBRANCH 56 58
ENDBRANCH 1 54
TORSDOF 35
ENDMDL
MODEL 45
USER: ADFR SOLUTION from run 60
USER: SCORE 24.594321 LL:  -4.450 LR: -22.364 RR:   0.000 FEB: -11.924
USER: RMSD 9.438801
USER: SEED 59
USER: STATUS no improvement in best in 3 clusters for 5 generations
USER: GENES 37
USER: genes 0 Translation |==|  0.58506 0.60861 0.46731
USER: genes 1 Rotation |==|  0.01142 0.46435 0.47538 0.59704
USER: genes 2 Torsion [N]-CA--C-[N] |==|  0.29239
USER: genes 3 Torsion [C]-N--CA-[C] |==|  0.71212
USER: genes 4 Torsion [N]-CA--CB-[CG] |==|  0.21616
USER: genes 5 Torsion [CA]-CB--CG-[CD] |==|  0.38435
USER: genes 6 Torsion [CB]-CG--CD-[CE] |==|  0.76196
USER: genes 7 Torsion [CG]-CD--CE-[NZ] |==|  0.38877
USER: genes 8 Torsion [CD]-CE--NZ-[HZ3] |==|  0.99407
USER: genes 9 Torsion [N]-CA--C-[N] |==|  0.38836
USER: genes 10 Torsion [C]-N--CA-[C] |==|  0.54614
USER: genes 11 Torsion [N]-CA--C-[N] |==|  0.32317
USER: genes 12 Torsion [C]-N--CA-[C] |==|  0.60806
USER: genes 13 Torsion [N]-CA--C-[O] |==|  0.00735
USER: genes 14 Torsion [N]-CA--CB-[OG] |==|  0.00589
USER: genes 15 Torsion [CA]-CB--OG-[HG] |==|  0.17622
USER: genes 16 Torsion [N]-CA--CB-[CG] |==|  0.66396
USER: genes 17 Torsion [CA]-CB--CG-[CD] |==|  0.02803
USER: genes 18 Torsion [CB]-CG--CD-[NE] |==|  0.78120
USER: genes 19 Torsion [CG]-CD--NE-[CZ] |==|  0.74789
USER: genes 20 Torsion [C]-CA--CB-[CG] |==|  0.10427
USER: genes 21 Torsion [CA]-CB--CG-[CD] |==|  0.40845
USER: genes 22 Torsion [CB]-CG--CD-[NE] |==|  0.32615
USER: genes 23 Torsion [CG]-CD--NE-[CZ] |==|  0.49644
USER: genes 24 Torsion [C]-CA--N-[C] |==|  0.64174
USER: genes 25 Torsion [N]-C--CA-[N] |==|  0.27513
USER: genes 26 Torsion [C]-CA--CB-[CG] |==|  0.26617
USER: genes 27 Torsion [CA]-CB--CG-[CD] |==|  0.88879
USER: genes 28 Torsion [CB]-CG--CD-[NE2] |==|  0.78109
USER: genes 29 Torsion [C]-CA--N-[C] |==|  0.18850
USER: genes 30 Torsion [N]-C--CA-[N] |==|  0.13749
USER: genes 31 Torsion [C]-CA--CB-[CG2] |==|  0.23684
USER: genes 32 Torsion [CA]-CB--OG1-[HG1] |==|  0.23910
USER: genes 33 Torsion [C]-CA--N-[C] |==|  0.12228
USER: genes 34 Torsion [N]-C--CA-[N] |==|  0.39687
USER: genes 35 Torsion [C]-CA--CB-[OG1] |==|  0.54352
USER: genes 36 Torsion [CA]-CB--OG1-[HG1] |==|  0.39865
ROOT
ATOM      1  CA  ARG F 167       0.894  20.965  38.027  1.00 38.85 LIG 0.18  C 
ENDROOT
BRANCH 1 2
ATOM      2  C   ARG F 167       0.111  22.266  38.003  1.00 41.97 LIG 0.24  C 
ATOM      3  N   LYS F 168      -0.122  22.781  36.795  1.00 42.42 LIG-0.35  N 
ATOM      4 H    LYS F 168       0.205  22.476  36.060  1.00 42.42 LIG 0.16  HD
ATOM      5 O    ARG F 167      -0.264  22.799  39.051  1.00 34.60 LIG-0.27  OA
BRANCH 3 6
ATOM      6  CA  LYS F 168      -0.985  23.945  36.652  1.00 39.35 LIG 0.18  C 
BRANCH 6 7
ATOM      7  CB  LYS F 168      -0.356  24.979  35.715  1.00 43.51 LIG 0.04  C 
BRANCH 7 8
ATOM      8  CG  LYS F 168      -0.479  24.645  34.241  1.00 39.69 LIG 0.00  C 
BRANCH 8 9
ATOM      9  CD  LYS F 168      -0.827  25.871  33.400  1.00 48.24 LIG 0.03  C 
BRANCH 9 10
ATOM     10  CE  LYS F 168      -2.336  26.120  33.350  1.00 54.37 LIG 0.23  C 
BRANCH 10 11
ATOM     11  NZ  LYS F 168      -2.711  27.567  33.439  1.00 52.23 LIG-0.08  N 
ATOM     12 HZ3  LYS F 168      -1.976  28.060  33.540  1.00 52.23 LIG 0.27  HD
ATOM     13 HZ1  LYS F 168      -3.132  27.812  32.694  1.00 52.23 LIG 0.27  HD
ATOM     14 HZ2  LYS F 168      -3.249  27.693  34.138  1.00 52.23 LIG 0.27  HD
ENDBRANCH 10 11
ENDBRANCH 9 10
ENDBRANCH 8 9
ENDBRANCH 7 8
ENDBRANCH 6 7
BRANCH 6 15
ATOM     15  C   LYS F 168      -2.348  23.512  36.122  1.00 30.99 LIG 0.24  C 
ATOM     16 O    LYS F 168      -2.447  22.623  35.269  1.00 32.09 LIG-0.27  OA
ATOM     17  N   ARG F 169      -3.403  24.117  36.660  1.00 23.74 LIG-0.35  N 
ATOM     18 H    ARG F 169      -3.364  24.709  37.283  1.00 23.74 LIG 0.16  HD
BRANCH 17 19
ATOM     19  CA  ARG F 169      -4.745  23.794  36.200  1.00 28.77 LIG 0.18  C 
BRANCH 19 20
ATOM     20  C   ARG F 169      -5.725  24.874  36.648  1.00 37.10 LIG 0.24  C 
ATOM     21  N   SER F 170      -6.307  25.556  35.664  1.00 32.48 LIG-0.34  N 
ATOM     22 H    SER F 170      -6.254  25.330  34.836  1.00 32.48 LIG 0.16  HD
ATOM     23 O    ARG F 169      -5.926  25.108  37.848  1.00 33.53 LIG-0.27  OA
BRANCH 21 24
ATOM     24  CA  SER F 170      -7.098  26.765  35.899  1.00 32.11 LIG 0.19  C 
BRANCH 24 25
ATOM     25  C   SER F 170      -8.340  26.845  35.002  1.00 36.47 LIG 0.22  C 
ATOM     26 O    SER F 170      -8.621  25.935  34.222  1.00 35.83 LIG-0.29  OA
ENDBRANCH 24 25
BRANCH 24 27
ATOM     27  CB  SER F 170      -6.220  28.004  35.694  1.00 36.26 LIG 0.20  C 
BRANCH 27 28
ATOM     28 OG   SER F 170      -4.908  27.630  35.289  1.00 19.66 LIG-0.40  OA
ATOM     29 HG   SER F 170      -4.944  27.246  34.543  1.00 19.66 LIG 0.21  HD
ENDBRANCH 27 28
ENDBRANCH 24 27
ENDBRANCH 21 24
ENDBRANCH 19 20
BRANCH 19 30
ATOM     30  CB  ARG F 169      -5.174  22.408  36.702  1.00 32.99 LIG 0.04  C 
BRANCH 30 31
ATOM     31  CG  ARG F 169      -5.536  21.375  35.646  1.00 34.51 LIG 0.02  C 
BRANCH 31 32
ATOM     32  CD  ARG F 169      -5.137  21.910  34.258  1.00 39.71 LIG 0.14  C 
BRANCH 32 33
ATOM     33  NE  ARG F 169      -6.127  22.871  33.776  1.00 37.23 LIG-0.23  N 
ATOM     34  CZ  ARG F 169      -7.198  22.578  33.040  1.00 33.71 LIG 0.67  C 
ATOM     35  NH2 ARG F 169      -8.013  23.562  32.681  1.00 35.73 LIG-0.23  N 
ATOM     36  NH1 ARG F 169      -7.457  21.321  32.664  1.00 22.18 LIG-0.23  N 
ATOM     37 2HH2 ARG F 169      -8.710  23.391  32.206  1.00 35.73 LIG 0.17  HD
ATOM     38 1HH2 ARG F 169      -7.845  24.370  32.924  1.00 35.73 LIG 0.17  HD
ATOM     39 1HH1 ARG F 169      -6.928  20.684  32.898  1.00 22.18 LIG 0.17  HD
ATOM     40 2HH1 ARG F 169      -8.153  21.149  32.188  1.00 22.18 LIG 0.17  HD
ATOM     41 HE   ARG F 169      -6.009  23.697  33.986  1.00 37.23 LIG 0.18  HD
ENDBRANCH 32 33
ENDBRANCH 31 32
ENDBRANCH 30 31
ENDBRANCH 19 30
ENDBRANCH 17 19
ENDBRANCH 6 15
ENDBRANCH 3 6
ENDBRANCH 1 2
BRANCH 1 42
ATOM     42  CB  ARG F 167       0.196  19.950  38.940  1.00 34.27 LIG 0.04  C 
BRANCH 42 43
ATOM     43  CG  ARG F 167      -1.316  20.011  38.856  1.00 36.76 LIG 0.02  C 
BRANCH 43 44
ATOM     44  CD  ARG F 167      -1.912  18.645  39.055  1.00 47.53 LIG 0.14  C 
BRANCH 44 45
ATOM     45  NE  ARG F 167      -2.750  18.606  40.245  1.00 46.15 LIG-0.23  N 
ATOM     46 HE   ARG F 167      -2.819  19.320  40.719  1.00 46.15 LIG 0.18  HD
ATOM     47  CZ  ARG F 167      -3.414  17.525  40.634  1.00 54.25 LIG 0.67  C 
ATOM     48  NH2 ARG F 167      -4.167  17.558  41.729  1.00 44.38 LIG-0.23  N 
ATOM     49  NH1 ARG F 167      -3.314  16.409  39.919  1.00 45.80 LIG-0.23  N 
ATOM     50 1HH2 ARG F 167      -4.226  18.283  42.189  1.00 44.38 LIG 0.17  HD
ATOM     51 2HH2 ARG F 167      -4.596  16.855  41.977  1.00 44.38 LIG 0.17  HD
ATOM     52 2HH1 ARG F 167      -3.740  15.703  40.163  1.00 45.80 LIG 0.17  HD
ATOM     53 1HH1 ARG F 167      -2.823  16.393  39.213  1.00 45.80 LIG 0.17  HD
ENDBRANCH 44 45
ENDBRANCH 43 44
ENDBRANCH 42 43
ENDBRANCH 1 42
BRANCH 1 54
ATOM     54  N   ARG F 167       2.251  21.248  38.469  1.00 32.00 LIG-0.35  N 
ATOM     55 H    ARG F 167       2.292  21.703  39.198  1.00 32.00 LIG 0.16  HD
ATOM     56  C   GLN F 166       3.326  20.836  37.801  1.00 42.00 LIG 0.24  C 
ATOM     57 O    GLN F 166       3.275  20.109  36.803  1.00 37.97 LIG-0.27  OA
BRANCH 56 58
ATOM     58  CA  GLN F 166       4.657  21.312  38.356  1.00 41.36 LIG 0.18  C 
BRANCH 58 59
ATOM     59  CB  GLN F 166       5.565  21.735  37.196  1.00 34.92 LIG 0.04  C 
BRANCH 59 60
ATOM     60  CG  GLN F 166       5.557  23.210  36.883  1.00 32.73 LIG 0.10  C 
BRANCH 60 61
ATOM     61  CD  GLN F 166       4.163  23.799  36.982  1.00 43.28 LIG 0.21  C 
ATOM     62  NE2 GLN F 166       3.351  23.583  35.951  1.00 36.91 LIG-0.37  N 
ATOM     63 21HE GLN F 166       3.626  23.127  35.276  1.00 36.91 LIG 0.16  HD
ATOM     64 22HE GLN F 166       2.552  23.900  35.960  1.00 36.91 LIG 0.16  HD
ATOM     65 OE1  GLN F 166       3.820  24.447  37.975  1.00 42.55 LIG-0.27  OA
ENDBRANCH 60 61
ENDBRANCH 59 60
ENDBRANCH 58 59
BRANCH 58 66
ATOM     66  N   GLN F 166       5.243  20.249  39.160  1.00 35.11 LIG-0.35  N 
ATOM     67  C   THR F 165       5.679  19.113  38.625  1.00 35.16 LIG 0.24  C 
ATOM     68 O    THR F 165       5.548  18.856  37.421  1.00 30.91 LIG-0.27  OA
ATOM     69 H    GLN F 166       5.279  20.424  40.001  1.00 35.11 LIG 0.16  HD
BRANCH 67 70
ATOM     70  CA  THR F 165       6.359  18.105  39.541  1.00 44.00 LIG 0.20  C 
BRANCH 70 71
ATOM     71  CB  THR F 165       6.627  16.804  38.776  1.00 46.85 LIG 0.15  C 
ATOM     72  CG2 THR F 165       7.950  16.897  38.013  1.00 37.95 LIG 0.04  C 
BRANCH 71 73
ATOM     73 OG1  THR F 165       6.662  15.705  39.695  1.00 45.14 LIG-0.39  OA
ATOM     74 HG1  THR F 165       5.882  15.419  39.821  1.00 45.14 LIG 0.21  HD
ENDBRANCH 71 73
ENDBRANCH 70 71
BRANCH 70 75
ATOM     75  N   THR F 165       5.581  17.838  40.746  1.00 38.01 LIG-0.34  N 
ATOM     76 H    THR F 165       6.047  17.819  41.468  1.00 38.01 LIG 0.16  HD
ATOM     77  C   THR F 164       4.262  17.644  40.711  1.00 57.69 LIG 0.26  C 
ATOM     78 O    THR F 164       3.608  17.677  39.663  1.00 49.67 LIG-0.27  OA
BRANCH 77 79
ATOM     79  CA  THR F 164       3.582  17.369  42.056  1.00 56.73 LIG 0.43  C 
ATOM     80  N   THR F 164       2.268  18.004  42.113  1.00 65.32 LIG 0.62  N 
BRANCH 79 81
ATOM     81  CB  THR F 164       3.487  15.838  42.291  1.00 58.05 LIG 0.16  C 
ATOM     82  CG2 THR F 164       4.854  15.273  42.671  1.00 51.52 LIG 0.04  C 
BRANCH 81 83
ATOM     83 OG1  THR F 164       2.549  15.558  43.340  1.00 58.15 LIG-0.39  OA
ATOM     84 HG1  THR F 164       2.130  14.853  43.160  1.00 58.15 LIG 0.21  HD
ENDBRANCH 81 83
ENDBRANCH 79 81
ENDBRANCH 77 79
ENDBRANCH 70 75
ENDBRANCH 67 70
ENDBRANCH 58 66
ENDBRANCH 56 58
ENDBRANCH 1 54
TORSDOF 35
ENDMDL
MODEL 46
USER: ADFR SOLUTION from run 39
USER: SCORE 24.305323 LL:  -3.676 LR: -22.354 RR:   0.000 FEB: -11.914
USER: RMSD 9.907032
USER: SEED 38
USER: STATUS no improvement in best in 5 clusters for 5 generations
USER: GENES 37
USER: genes 0 Translation |==|  0.52235 0.57965 0.54001
USER: genes 1 Rotation |==|  0.39153 0.70828 0.84175 0.77940
USER: genes 2 Torsion [N]-CA--C-[N] |==|  0.49624
USER: genes 3 Torsion [C]-N--CA-[C] |==|  0.71408
USER: genes 4 Torsion [N]-CA--CB-[CG] |==|  0.76449
USER: genes 5 Torsion [CA]-CB--CG-[CD] |==|  0.16098
USER: genes 6 Torsion [CB]-CG--CD-[CE] |==|  0.17892
USER: genes 7 Torsion [CG]-CD--CE-[NZ] |==|  0.63302
USER: genes 8 Torsion [CD]-CE--NZ-[HZ3] |==|  0.77809
USER: genes 9 Torsion [N]-CA--C-[N] |==|  0.59771
USER: genes 10 Torsion [C]-N--CA-[C] |==|  0.67567
USER: genes 11 Torsion [N]-CA--C-[N] |==|  0.31362
USER: genes 12 Torsion [C]-N--CA-[C] |==|  0.11963
USER: genes 13 Torsion [N]-CA--C-[O] |==|  0.07463
USER: genes 14 Torsion [N]-CA--CB-[OG] |==|  0.02484
USER: genes 15 Torsion [CA]-CB--OG-[HG] |==|  0.86807
USER: genes 16 Torsion [N]-CA--CB-[CG] |==|  0.81281
USER: genes 17 Torsion [CA]-CB--CG-[CD] |==|  0.47685
USER: genes 18 Torsion [CB]-CG--CD-[NE] |==|  0.24460
USER: genes 19 Torsion [CG]-CD--NE-[CZ] |==|  0.16998
USER: genes 20 Torsion [C]-CA--CB-[CG] |==|  0.51628
USER: genes 21 Torsion [CA]-CB--CG-[CD] |==|  0.61631
USER: genes 22 Torsion [CB]-CG--CD-[NE] |==|  0.24268
USER: genes 23 Torsion [CG]-CD--NE-[CZ] |==|  0.43883
USER: genes 24 Torsion [C]-CA--N-[C] |==|  0.74844
USER: genes 25 Torsion [N]-C--CA-[N] |==|  0.32352
USER: genes 26 Torsion [C]-CA--CB-[CG] |==|  0.65024
USER: genes 27 Torsion [CA]-CB--CG-[CD] |==|  0.74169
USER: genes 28 Torsion [CB]-CG--CD-[NE2] |==|  0.74066
USER: genes 29 Torsion [C]-CA--N-[C] |==|  0.64074
USER: genes 30 Torsion [N]-C--CA-[N] |==|  0.19373
USER: genes 31 Torsion [C]-CA--CB-[CG2] |==|  0.21736
USER: genes 32 Torsion [CA]-CB--OG1-[HG1] |==|  0.23607
USER: genes 33 Torsion [C]-CA--N-[C] |==|  0.76667
USER: genes 34 Torsion [N]-C--CA-[N] |==|  0.20291
USER: genes 35 Torsion [C]-CA--CB-[OG1] |==|  0.50337
USER: genes 36 Torsion [CA]-CB--OG1-[HG1] |==|  0.53931
ROOT
ATOM      1  CA  ARG F 167      -0.658  20.161  39.444  1.00 38.85 LIG 0.18  C 
ENDROOT
BRANCH 1 2
ATOM      2  C   ARG F 167       0.828  20.220  39.751  1.00 41.97 LIG 0.24  C 
ATOM      3  N   LYS F 168       1.204  19.667  40.906  1.00 42.42 LIG-0.35  N 
ATOM      4 H    LYS F 168       0.664  19.365  41.503  1.00 42.42 LIG 0.16  HD
ATOM      5 O    ARG F 167       1.616  20.762  38.971  1.00 34.60 LIG-0.27  OA
BRANCH 3 6
ATOM      6  CA  LYS F 168       2.618  19.540  41.228  1.00 39.35 LIG 0.18  C 
BRANCH 6 7
ATOM      7  CB  LYS F 168       2.889  19.968  42.672  1.00 43.51 LIG 0.04  C 
BRANCH 7 8
ATOM      8  CG  LYS F 168       3.090  21.460  42.856  1.00 39.69 LIG 0.00  C 
BRANCH 8 9
ATOM      9  CD  LYS F 168       1.888  22.267  42.369  1.00 48.24 LIG 0.03  C 
BRANCH 9 10
ATOM     10  CE  LYS F 168       0.633  21.975  43.196  1.00 54.37 LIG 0.23  C 
BRANCH 10 11
ATOM     11  NZ  LYS F 168      -0.584  21.701  42.366  1.00 52.23 LIG-0.08  N 
ATOM     12 HZ3  LYS F 168      -0.930  22.471  42.083  1.00 52.23 LIG 0.27  HD
ATOM     13 HZ1  LYS F 168      -0.360  21.202  41.664  1.00 52.23 LIG 0.27  HD
ATOM     14 HZ2  LYS F 168      -1.187  21.268  42.857  1.00 52.23 LIG 0.27  HD
ENDBRANCH 10 11
ENDBRANCH 9 10
ENDBRANCH 8 9
ENDBRANCH 7 8
ENDBRANCH 6 7
BRANCH 6 15
ATOM     15  C   LYS F 168       3.068  18.100  41.011  1.00 30.99 LIG 0.24  C 
ATOM     16 O    LYS F 168       2.624  17.428  40.074  1.00 32.09 LIG-0.27  OA
ATOM     17  N   ARG F 169       3.983  17.639  41.860  1.00 23.74 LIG-0.35  N 
ATOM     18 H    ARG F 169       4.337  18.098  42.495  1.00 23.74 LIG 0.16  HD
BRANCH 17 19
ATOM     19  CA  ARG F 169       4.454  16.266  41.753  1.00 28.77 LIG 0.18  C 
BRANCH 19 20
ATOM     20  C   ARG F 169       4.087  15.488  43.012  1.00 37.10 LIG 0.24  C 
ATOM     21  N   SER F 170       3.188  14.521  42.841  1.00 32.48 LIG-0.34  N 
ATOM     22 H    SER F 170       2.928  14.249  42.067  1.00 32.48 LIG 0.16  HD
ATOM     23 O    ARG F 169       4.574  15.775  44.115  1.00 33.53 LIG-0.27  OA
BRANCH 21 24
ATOM     24  CA  SER F 170       2.554  13.822  43.959  1.00 32.11 LIG 0.19  C 
BRANCH 24 25
ATOM     25  C   SER F 170       2.128  14.770  45.087  1.00 36.47 LIG 0.22  C 
ATOM     26 O    SER F 170       1.859  15.949  44.858  1.00 35.83 LIG-0.29  OA
ENDBRANCH 24 25
BRANCH 24 27
ATOM     27  CB  SER F 170       3.504  12.750  44.503  1.00 36.26 LIG 0.20  C 
BRANCH 27 28
ATOM     28 OG   SER F 170       4.793  12.873  43.914  1.00 19.66 LIG-0.40  OA
ATOM     29 HG   SER F 170       4.715  12.954  43.082  1.00 19.66 LIG 0.21  HD
ENDBRANCH 27 28
ENDBRANCH 24 27
ENDBRANCH 21 24
ENDBRANCH 19 20
BRANCH 19 30
ATOM     30  CB  ARG F 169       5.967  16.228  41.495  1.00 32.99 LIG 0.04  C 
BRANCH 30 31
ATOM     31  CG  ARG F 169       6.450  16.756  40.153  1.00 34.51 LIG 0.02  C 
BRANCH 31 32
ATOM     32  CD  ARG F 169       7.989  16.830  40.164  1.00 39.71 LIG 0.14  C 
BRANCH 32 33
ATOM     33  NE  ARG F 169       8.566  15.558  39.731  1.00 37.23 LIG-0.23  N 
ATOM     34  CZ  ARG F 169       8.383  14.991  38.540  1.00 33.71 LIG 0.67  C 
ATOM     35  NH2 ARG F 169       8.979  13.832  38.289  1.00 35.73 LIG-0.23  N 
ATOM     36  NH1 ARG F 169       7.618  15.568  37.607  1.00 22.18 LIG-0.23  N 
ATOM     37 2HH2 ARG F 169       8.873  13.451  37.525  1.00 35.73 LIG 0.17  HD
ATOM     38 1HH2 ARG F 169       9.471  13.462  38.890  1.00 35.73 LIG 0.17  HD
ATOM     39 1HH1 ARG F 169       7.233  16.319  37.771  1.00 22.18 LIG 0.17  HD
ATOM     40 2HH1 ARG F 169       7.511  15.187  36.843  1.00 22.18 LIG 0.17  HD
ATOM     41 HE   ARG F 169       9.065  15.141  40.293  1.00 37.23 LIG 0.18  HD
ENDBRANCH 32 33
ENDBRANCH 31 32
ENDBRANCH 30 31
ENDBRANCH 19 30
ENDBRANCH 17 19
ENDBRANCH 6 15
ENDBRANCH 3 6
ENDBRANCH 1 2
BRANCH 1 42
ATOM     42  CB  ARG F 167      -1.130  18.702  39.416  1.00 34.27 LIG 0.04  C 
BRANCH 42 43
ATOM     43  CG  ARG F 167      -2.572  18.548  38.978  1.00 36.76 LIG 0.02  C 
BRANCH 43 44
ATOM     44  CD  ARG F 167      -3.276  17.528  39.829  1.00 47.53 LIG 0.14  C 
BRANCH 44 45
ATOM     45  NE  ARG F 167      -3.838  18.140  41.025  1.00 46.15 LIG-0.23  N 
ATOM     46 HE   ARG F 167      -3.505  18.885  41.296  1.00 46.15 LIG 0.18  HD
ATOM     47  CZ  ARG F 167      -4.835  17.607  41.717  1.00 54.25 LIG 0.67  C 
ATOM     48  NH2 ARG F 167      -5.305  18.221  42.799  1.00 44.38 LIG-0.23  N 
ATOM     49  NH1 ARG F 167      -5.357  16.451  41.319  1.00 45.80 LIG-0.23  N 
ATOM     50 1HH2 ARG F 167      -4.962  18.967  43.053  1.00 44.38 LIG 0.17  HD
ATOM     51 2HH2 ARG F 167      -5.952  17.872  43.244  1.00 44.38 LIG 0.17  HD
ATOM     52 2HH1 ARG F 167      -6.005  16.097  41.761  1.00 45.80 LIG 0.17  HD
ATOM     53 1HH1 ARG F 167      -5.048  16.057  40.620  1.00 45.80 LIG 0.17  HD
ENDBRANCH 44 45
ENDBRANCH 43 44
ENDBRANCH 42 43
ENDBRANCH 1 42
BRANCH 1 54
ATOM     54  N   ARG F 167      -0.896  20.832  38.175  1.00 32.00 LIG-0.35  N 
ATOM     55 H    ARG F 167      -0.841  20.313  37.491  1.00 32.00 LIG 0.16  HD
ATOM     56  C   GLN F 166      -1.174  22.132  38.090  1.00 42.00 LIG 0.24  C 
ATOM     57 O    GLN F 166      -1.342  22.861  39.072  1.00 37.97 LIG-0.27  OA
BRANCH 56 58
ATOM     58  CA  GLN F 166      -1.291  22.678  36.678  1.00 41.36 LIG 0.18  C 
BRANCH 58 59
ATOM     59  CB  GLN F 166      -0.251  23.788  36.480  1.00 34.92 LIG 0.04  C 
BRANCH 59 60
ATOM     60  CG  GLN F 166      -0.806  25.104  35.996  1.00 32.73 LIG 0.10  C 
BRANCH 60 61
ATOM     61  CD  GLN F 166      -0.760  25.212  34.483  1.00 43.28 LIG 0.21  C 
ATOM     62  NE2 GLN F 166       0.312  25.800  33.961  1.00 36.91 LIG-0.37  N 
ATOM     63 21HE GLN F 166       0.936  26.092  34.476  1.00 36.91 LIG 0.16  HD
ATOM     64 22HE GLN F 166       0.382  25.887  33.108  1.00 36.91 LIG 0.16  HD
ATOM     65 OE1  GLN F 166      -1.684  24.775  33.791  1.00 42.55 LIG-0.27  OA
ENDBRANCH 60 61
ENDBRANCH 59 60
ENDBRANCH 58 59
BRANCH 58 66
ATOM     66  N   GLN F 166      -2.652  23.149  36.463  1.00 35.11 LIG-0.35  N 
ATOM     67  C   THR F 165      -3.371  22.781  35.407  1.00 35.16 LIG 0.24  C 
ATOM     68 O    THR F 165      -2.906  22.076  34.502  1.00 30.91 LIG-0.27  OA
ATOM     69 H    GLN F 166      -2.941  23.679  37.075  1.00 35.11 LIG 0.16  HD
BRANCH 67 70
ATOM     70  CA  THR F 165      -4.816  23.256  35.324  1.00 44.00 LIG 0.20  C 
BRANCH 70 71
ATOM     71  CB  THR F 165      -5.559  22.475  34.235  1.00 46.85 LIG 0.15  C 
ATOM     72  CG2 THR F 165      -5.947  21.085  34.745  1.00 37.95 LIG 0.04  C 
BRANCH 71 73
ATOM     73 OG1  THR F 165      -6.730  23.201  33.838  1.00 45.14 LIG-0.39  OA
ATOM     74 HG1  THR F 165      -6.524  23.767  33.252  1.00 45.14 LIG 0.21  HD
ENDBRANCH 71 73
ENDBRANCH 70 71
BRANCH 70 75
ATOM     75  N   THR F 165      -4.915  24.691  35.083  1.00 38.01 LIG-0.34  N 
ATOM     76 H    THR F 165      -5.019  24.902  34.256  1.00 38.01 LIG 0.16  HD
ATOM     77  C   THR F 164      -4.847  25.583  36.072  1.00 57.69 LIG 0.26  C 
ATOM     78 O    THR F 164      -4.698  25.261  37.255  1.00 49.67 LIG-0.27  OA
BRANCH 77 79
ATOM     79  CA  THR F 164      -4.960  27.055  35.664  1.00 56.73 LIG 0.43  C 
ATOM     80  N   THR F 164      -6.332  27.386  35.287  1.00 65.32 LIG 0.62  N 
BRANCH 79 81
ATOM     81  CB  THR F 164      -4.453  27.959  36.819  1.00 58.05 LIG 0.16  C 
ATOM     82  CG2 THR F 164      -2.989  27.653  37.129  1.00 51.52 LIG 0.04  C 
BRANCH 81 83
ATOM     83 OG1  THR F 164      -4.581  29.341  36.456  1.00 58.15 LIG-0.39  OA
ATOM     84 HG1  THR F 164      -4.136  29.813  36.989  1.00 58.15 LIG 0.21  HD
ENDBRANCH 81 83
ENDBRANCH 79 81
ENDBRANCH 77 79
ENDBRANCH 70 75
ENDBRANCH 67 70
ENDBRANCH 58 66
ENDBRANCH 56 58
ENDBRANCH 1 54
TORSDOF 35
ENDMDL
MODEL 47
USER: ADFR SOLUTION from run 158
USER: SCORE 25.735121 LL:  -3.942 LR: -22.313 RR:   0.000 FEB: -11.873
USER: RMSD 9.095912
USER: SEED 157
USER: STATUS no improvement in best in 8 clusters for 5 generations
USER: GENES 37
USER: genes 0 Translation |==|  0.49853 0.56784 0.50557
USER: genes 1 Rotation |==|  0.02263 0.45773 0.36242 0.53744
USER: genes 2 Torsion [N]-CA--C-[N] |==|  0.41190
USER: genes 3 Torsion [C]-N--CA-[C] |==|  0.70874
USER: genes 4 Torsion [N]-CA--CB-[CG] |==|  0.65569
USER: genes 5 Torsion [CA]-CB--CG-[CD] |==|  0.74025
USER: genes 6 Torsion [CB]-CG--CD-[CE] |==|  0.33488
USER: genes 7 Torsion [CG]-CD--CE-[NZ] |==|  0.58895
USER: genes 8 Torsion [CD]-CE--NZ-[HZ3] |==|  0.04472
USER: genes 9 Torsion [N]-CA--C-[N] |==|  0.50553
USER: genes 10 Torsion [C]-N--CA-[C] |==|  0.80556
USER: genes 11 Torsion [N]-CA--C-[N] |==|  0.42536
USER: genes 12 Torsion [C]-N--CA-[C] |==|  0.12809
USER: genes 13 Torsion [N]-CA--C-[O] |==|  0.34631
USER: genes 14 Torsion [N]-CA--CB-[OG] |==|  0.93079
USER: genes 15 Torsion [CA]-CB--OG-[HG] |==|  0.33203
USER: genes 16 Torsion [N]-CA--CB-[CG] |==|  0.77061
USER: genes 17 Torsion [CA]-CB--CG-[CD] |==|  0.52896
USER: genes 18 Torsion [CB]-CG--CD-[NE] |==|  0.79908
USER: genes 19 Torsion [CG]-CD--NE-[CZ] |==|  0.54169
USER: genes 20 Torsion [C]-CA--CB-[CG] |==|  0.99631
USER: genes 21 Torsion [CA]-CB--CG-[CD] |==|  0.48983
USER: genes 22 Torsion [CB]-CG--CD-[NE] |==|  0.16140
USER: genes 23 Torsion [CG]-CD--NE-[CZ] |==|  0.57771
USER: genes 24 Torsion [C]-CA--N-[C] |==|  0.79517
USER: genes 25 Torsion [N]-C--CA-[N] |==|  0.37485
USER: genes 26 Torsion [C]-CA--CB-[CG] |==|  0.27827
USER: genes 27 Torsion [CA]-CB--CG-[CD] |==|  0.97278
USER: genes 28 Torsion [CB]-CG--CD-[NE2] |==|  0.75150
USER: genes 29 Torsion [C]-CA--N-[C] |==|  0.81838
USER: genes 30 Torsion [N]-C--CA-[N] |==|  0.40295
USER: genes 31 Torsion [C]-CA--CB-[CG2] |==|  0.24889
USER: genes 32 Torsion [CA]-CB--OG1-[HG1] |==|  0.23017
USER: genes 33 Torsion [C]-CA--N-[C] |==|  0.69168
USER: genes 34 Torsion [N]-C--CA-[N] |==|  0.49616
USER: genes 35 Torsion [C]-CA--CB-[OG1] |==|  0.22298
USER: genes 36 Torsion [CA]-CB--OG1-[HG1] |==|  0.90855
ROOT
ATOM      1  CA  ARG F 167      -1.247  19.834  38.773  1.00 38.85 LIG 0.18  C 
ENDROOT
BRANCH 1 2
ATOM      2  C   ARG F 167      -1.786  21.120  38.172  1.00 41.97 LIG 0.24  C 
ATOM      3  N   LYS F 168      -2.209  21.038  36.910  1.00 42.42 LIG-0.35  N 
ATOM      4 H    LYS F 168      -2.121  20.346  36.407  1.00 42.42 LIG 0.16  HD
ATOM      5 O    ARG F 167      -1.809  22.166  38.828  1.00 34.60 LIG-0.27  OA
BRANCH 3 6
ATOM      6  CA  LYS F 168      -2.876  22.174  36.288  1.00 39.35 LIG 0.18  C 
BRANCH 6 7
ATOM      7  CB  LYS F 168      -2.303  22.448  34.896  1.00 43.51 LIG 0.04  C 
BRANCH 7 8
ATOM      8  CG  LYS F 168      -1.781  23.859  34.701  1.00 39.69 LIG 0.00  C 
BRANCH 8 9
ATOM      9  CD  LYS F 168      -2.836  24.785  34.102  1.00 48.24 LIG 0.03  C 
BRANCH 9 10
ATOM     10  CE  LYS F 168      -3.138  25.974  35.017  1.00 54.37 LIG 0.23  C 
BRANCH 10 11
ATOM     11  NZ  LYS F 168      -4.555  26.454  34.932  1.00 52.23 LIG-0.08  N 
ATOM     12 HZ3  LYS F 168      -5.057  25.832  34.539  1.00 52.23 LIG 0.27  HD
ATOM     13 HZ1  LYS F 168      -4.865  26.611  35.751  1.00 52.23 LIG 0.27  HD
ATOM     14 HZ2  LYS F 168      -4.586  27.205  34.455  1.00 52.23 LIG 0.27  HD
ENDBRANCH 10 11
ENDBRANCH 9 10
ENDBRANCH 8 9
ENDBRANCH 7 8
ENDBRANCH 6 7
BRANCH 6 15
ATOM     15  C   LYS F 168      -4.374  21.904  36.199  1.00 30.99 LIG 0.24  C 
ATOM     16 O    LYS F 168      -4.868  20.880  36.683  1.00 32.09 LIG-0.27  OA
ATOM     17  N   ARG F 169      -5.104  22.848  35.611  1.00 23.74 LIG-0.35  N 
ATOM     18 H    ARG F 169      -4.791  23.588  35.302  1.00 23.74 LIG 0.16  HD
BRANCH 17 19
ATOM     19  CA  ARG F 169      -6.539  22.670  35.451  1.00 28.77 LIG 0.18  C 
BRANCH 19 20
ATOM     20  C   ARG F 169      -6.818  21.583  34.417  1.00 37.10 LIG 0.24  C 
ATOM     21  N   SER F 170      -7.975  20.942  34.566  1.00 32.48 LIG-0.34  N 
ATOM     22 H    SER F 170      -8.591  21.197  35.109  1.00 32.48 LIG 0.16  HD
ATOM     23 O    ARG F 169      -5.998  21.308  33.531  1.00 33.53 LIG-0.27  OA
BRANCH 21 24
ATOM     24  CA  SER F 170      -8.313  19.732  33.813  1.00 32.11 LIG 0.19  C 
BRANCH 24 25
ATOM     25  C   SER F 170      -7.170  18.710  33.790  1.00 36.47 LIG 0.22  C 
ATOM     26 O    SER F 170      -7.345  17.552  34.173  1.00 35.83 LIG-0.29  OA
ENDBRANCH 24 25
BRANCH 24 27
ATOM     27  CB  SER F 170      -8.711  20.110  32.383  1.00 36.26 LIG 0.20  C 
BRANCH 27 28
ATOM     28 OG   SER F 170      -9.193  21.447  32.330  1.00 19.66 LIG-0.40  OA
ATOM     29 HG   SER F 170      -8.707  21.901  31.817  1.00 19.66 LIG 0.21  HD
ENDBRANCH 27 28
ENDBRANCH 24 27
ENDBRANCH 21 24
ENDBRANCH 19 20
BRANCH 19 30
ATOM     30  CB  ARG F 169      -7.213  23.994  35.065  1.00 32.99 LIG 0.04  C 
BRANCH 30 31
ATOM     31  CG  ARG F 169      -7.541  24.956  36.196  1.00 34.51 LIG 0.02  C 
BRANCH 31 32
ATOM     32  CD  ARG F 169      -8.434  26.088  35.654  1.00 39.71 LIG 0.14  C 
BRANCH 32 33
ATOM     33  NE  ARG F 169      -7.658  26.992  34.807  1.00 37.23 LIG-0.23  N 
ATOM     34  CZ  ARG F 169      -8.040  28.206  34.416  1.00 33.71 LIG 0.67  C 
ATOM     35  NH2 ARG F 169      -7.221  28.916  33.649  1.00 35.73 LIG-0.23  N 
ATOM     36  NH1 ARG F 169      -9.222  28.713  34.783  1.00 22.18 LIG-0.23  N 
ATOM     37 2HH2 ARG F 169      -7.451  29.702  33.388  1.00 35.73 LIG 0.17  HD
ATOM     38 1HH2 ARG F 169      -6.461  28.589  33.415  1.00 35.73 LIG 0.17  HD
ATOM     39 1HH1 ARG F 169      -9.752  28.252  35.281  1.00 22.18 LIG 0.17  HD
ATOM     40 2HH1 ARG F 169      -9.453  29.499  34.521  1.00 22.18 LIG 0.17  HD
ATOM     41 HE   ARG F 169      -6.888  26.716  34.539  1.00 37.23 LIG 0.18  HD
ENDBRANCH 32 33
ENDBRANCH 31 32
ENDBRANCH 30 31
ENDBRANCH 19 30
ENDBRANCH 17 19
ENDBRANCH 6 15
ENDBRANCH 3 6
ENDBRANCH 1 2
BRANCH 1 42
ATOM     42  CB  ARG F 167      -2.388  19.041  39.423  1.00 34.27 LIG 0.04  C 
BRANCH 42 43
ATOM     43  CG  ARG F 167      -3.730  19.741  39.334  1.00 36.76 LIG 0.02  C 
BRANCH 43 44
ATOM     44  CD  ARG F 167      -4.816  18.875  39.909  1.00 47.53 LIG 0.14  C 
BRANCH 44 45
ATOM     45  NE  ARG F 167      -4.535  18.533  41.297  1.00 46.15 LIG-0.23  N 
ATOM     46 HE   ARG F 167      -4.064  19.080  41.764  1.00 46.15 LIG 0.18  HD
ATOM     47  CZ  ARG F 167      -4.969  17.423  41.876  1.00 54.25 LIG 0.67  C 
ATOM     48  NH2 ARG F 167      -4.681  17.172  43.150  1.00 44.38 LIG-0.23  N 
ATOM     49  NH1 ARG F 167      -5.693  16.560  41.168  1.00 45.80 LIG-0.23  N 
ATOM     50 1HH2 ARG F 167      -4.211  17.733  43.602  1.00 44.38 LIG 0.17  HD
ATOM     51 2HH2 ARG F 167      -4.965  16.451  43.521  1.00 44.38 LIG 0.17  HD
ATOM     52 2HH1 ARG F 167      -5.979  15.837  41.534  1.00 45.80 LIG 0.17  HD
ATOM     53 1HH1 ARG F 167      -5.874  16.726  40.343  1.00 45.80 LIG 0.17  HD
ENDBRANCH 44 45
ENDBRANCH 43 44
ENDBRANCH 42 43
ENDBRANCH 1 42
BRANCH 1 54
ATOM     54  N   ARG F 167      -0.206  20.170  39.731  1.00 32.00 LIG-0.35  N 
ATOM     55 H    ARG F 167      -0.444  20.076  40.552  1.00 32.00 LIG 0.16  HD
ATOM     56  C   GLN F 166       1.005  20.585  39.362  1.00 42.00 LIG 0.24  C 
ATOM     57 O    GLN F 166       1.380  20.639  38.186  1.00 37.97 LIG-0.27  OA
BRANCH 56 58
ATOM     58  CA  GLN F 166       1.927  20.988  40.499  1.00 41.36 LIG 0.18  C 
BRANCH 58 59
ATOM     59  CB  GLN F 166       1.967  22.518  40.598  1.00 34.92 LIG 0.04  C 
BRANCH 59 60
ATOM     60  CG  GLN F 166       1.097  23.110  41.678  1.00 32.73 LIG 0.10  C 
BRANCH 60 61
ATOM     61  CD  GLN F 166       0.176  22.074  42.292  1.00 43.28 LIG 0.21  C 
ATOM     62  NE2 GLN F 166      -1.011  21.916  41.716  1.00 36.91 LIG-0.37  N 
ATOM     63 21HE GLN F 166      -1.222  22.389  41.029  1.00 36.91 LIG 0.16  HD
ATOM     64 22HE GLN F 166      -1.569  21.342  42.031  1.00 36.91 LIG 0.16  HD
ATOM     65 OE1  GLN F 166       0.529  21.422  43.280  1.00 42.55 LIG-0.27  OA
ENDBRANCH 60 61
ENDBRANCH 59 60
ENDBRANCH 58 59
BRANCH 58 66
ATOM     66  N   GLN F 166       3.244  20.413  40.268  1.00 35.11 LIG-0.35  N 
ATOM     67  C   THR F 165       3.457  19.101  40.277  1.00 35.16 LIG 0.24  C 
ATOM     68 O    THR F 165       2.566  18.288  40.556  1.00 30.91 LIG-0.27  OA
ATOM     69 H    GLN F 166       3.862  20.994  40.126  1.00 35.11 LIG 0.16  HD
BRANCH 67 70
ATOM     70  CA  THR F 165       4.852  18.599  39.931  1.00 44.00 LIG 0.20  C 
BRANCH 70 71
ATOM     71  CB  THR F 165       4.949  18.323  38.427  1.00 46.85 LIG 0.15  C 
ATOM     72  CG2 THR F 165       5.405  19.580  37.683  1.00 37.95 LIG 0.04  C 
BRANCH 71 73
ATOM     73 OG1  THR F 165       5.870  17.248  38.194  1.00 45.14 LIG-0.39  OA
ATOM     74 HG1  THR F 165       5.476  16.514  38.302  1.00 45.14 LIG 0.21  HD
ENDBRANCH 71 73
ENDBRANCH 70 71
BRANCH 70 75
ATOM     75  N   THR F 165       5.218  17.411  40.694  1.00 38.01 LIG-0.34  N 
ATOM     76 H    THR F 165       4.774  16.706  40.482  1.00 38.01 LIG 0.16  HD
ATOM     77  C   THR F 164       6.162  17.435  41.636  1.00 57.69 LIG 0.26  C 
ATOM     78 O    THR F 164       6.791  18.457  41.928  1.00 49.67 LIG-0.27  OA
BRANCH 77 79
ATOM     79  CA  THR F 164       6.433  16.110  42.357  1.00 56.73 LIG 0.43  C 
ATOM     80  N   THR F 164       7.505  16.262  43.337  1.00 65.32 LIG 0.62  N 
BRANCH 79 81
ATOM     81  CB  THR F 164       5.125  15.597  43.018  1.00 58.05 LIG 0.16  C 
ATOM     82  CG2 THR F 164       4.354  16.759  43.641  1.00 51.52 LIG 0.04  C 
BRANCH 81 83
ATOM     83 OG1  THR F 164       4.300  14.951  42.039  1.00 58.15 LIG-0.39  OA
ATOM     84 HG1  THR F 164       4.403  15.325  41.294  1.00 58.15 LIG 0.21  HD
ENDBRANCH 81 83
ENDBRANCH 79 81
ENDBRANCH 77 79
ENDBRANCH 70 75
ENDBRANCH 67 70
ENDBRANCH 58 66
ENDBRANCH 56 58
ENDBRANCH 1 54
TORSDOF 35
ENDMDL
