MODEL 1
USER: ADFR SOLUTION from run 54
USER: SCORE 17.857040 LL:  -3.647 LR: -16.775 RR:   0.000 FEB: -10.212
USER: RMSD 14.620921
USER: SEED 53
USER: STATUS no improvement in best in 8 clusters for 5 generations
USER: GENES 24
USER: genes 0 Translation |==|  0.35500 0.40417 0.56764
USER: genes 1 Rotation |==|  0.46819 0.38678 0.02845 0.61753
USER: genes 2 Torsion [C]-CA--CB-[CG] |==|  0.39121
USER: genes 3 Torsion [CA]-CB--CG-[CD] |==|  0.17292
USER: genes 4 Torsion [CB]-CG--CD-[CE] |==|  0.70744
USER: genes 5 Torsion [CG]-CD--CE-[NZ] |==|  0.88132
USER: genes 6 Torsion [CD]-CE--NZ-[HZ3] |==|  0.81306
USER: genes 7 Torsion [N]-CA--C-[N] |==|  0.36116
USER: genes 8 Torsion [C]-N--CA-[C] |==|  0.71841
USER: genes 9 Torsion [N]-CA--C-[N] |==|  0.44261
USER: genes 10 Torsion [C]-N--CA-[C] |==|  0.21257
USER: genes 11 Torsion [N]-CA--C-[O] |==|  0.54723
USER: genes 12 Torsion [N]-CA--CB-[CG] |==|  0.63232
USER: genes 13 Torsion [CA]-CB--CG-[ND2] |==|  0.96318
USER: genes 14 Torsion [N]-CA--CB-[CG] |==|  0.26614
USER: genes 15 Torsion [CA]-CB--CG-[CD2] |==|  0.33243
USER: genes 16 Torsion [CB]-CA--N-[C] |==|  0.39285
USER: genes 17 Torsion [N]-C--CA-[CB] |==|  0.57256
USER: genes 18 Torsion [N]-C--CA-[N] |==|  0.35265
USER: genes 19 Torsion [C]-CA--N-[C] |==|  0.64154
USER: genes 20 Torsion [N]-C--CA-[N] |==|  0.16623
USER: genes 21 Torsion [C]-CA--CB-[CG] |==|  0.34230
USER: genes 22 Torsion [CA]-CB--CG-[CD1] |==|  0.58889
USER: genes 23 Torsion [CE1]-CZ--OH-[HH] |==|  0.75135
ROOT
ATOM      1  CA  LYS B   5      -7.900   2.955  -0.843  1.00 42.36 LIG 0.18  C 
ENDROOT
BRANCH 1 2
ATOM      2  CB  LYS B   5      -7.630   2.221  -2.166  1.00 43.80 LIG 0.04  C 
BRANCH 2 3
ATOM      3  CG  LYS B   5      -7.631   3.119  -3.427  1.00 49.23 LIG 0.00  C 
BRANCH 3 4
ATOM      4  CD  LYS B   5      -6.536   4.190  -3.404  1.00 48.54 LIG 0.03  C 
BRANCH 4 5
ATOM      5  CE  LYS B   5      -7.114   5.565  -3.114  1.00 43.92 LIG 0.23  C 
BRANCH 5 6
ATOM      6  NZ  LYS B   5      -8.366   5.755  -3.885  1.00 45.51 LIG-0.08  N 
ATOM      7 HZ3  LYS B   5      -8.176   5.792  -4.755  1.00 45.51 LIG 0.27  HD
ATOM      8 HZ1  LYS B   5      -8.916   5.073  -3.732  1.00 45.51 LIG 0.27  HD
ATOM      9 HZ2  LYS B   5      -8.757   6.514  -3.635  1.00 45.51 LIG 0.27  HD
ENDBRANCH 5 6
ENDBRANCH 4 5
ENDBRANCH 3 4
ENDBRANCH 2 3
ENDBRANCH 1 2
BRANCH 1 10
ATOM     10  C   LYS B   5      -8.790   2.096   0.056  1.00 41.24 LIG 0.24  C 
ATOM     11  N   TRP B   6     -10.052   2.501   0.204  1.00 42.23 LIG-0.35  N 
ATOM     12 H    TRP B   6     -10.374   3.223  -0.134  1.00 42.23 LIG 0.16  HD
ATOM     13 O    LYS B   5      -8.350   1.088   0.615  1.00 40.50 LIG-0.27  OA
BRANCH 11 14
ATOM     14  CA  TRP B   6     -11.004   1.711   0.981  1.00 42.54 LIG 0.18  C 
BRANCH 14 15
ATOM     15  C   TRP B   6     -11.901   0.921   0.030  1.00 45.00 LIG 0.24  C 
ATOM     16 O    TRP B   6     -12.026   1.275  -1.151  1.00 46.85 LIG-0.27  OA
ATOM     17  N   ASN B   7     -12.519  -0.148   0.547  1.00 47.11 LIG-0.35  N 
ATOM     18 H    ASN B   7     -12.329  -0.472   1.321  1.00 47.11 LIG 0.16  HD
BRANCH 17 19
ATOM     19  CA  ASN B   7     -13.587  -0.881  -0.155  1.00 45.24 LIG 0.17  C 
BRANCH 19 20
ATOM     20  C   ASN B   7     -12.980  -1.762  -1.244  1.00 46.26 LIG 0.22  C 
ATOM     21 O    ASN B   7     -13.687  -2.216  -2.148  1.00 44.70 LIG-0.29  OA
ENDBRANCH 19 20
BRANCH 19 22
ATOM     22  CB  ASN B   7     -14.619   0.063  -0.796  1.00 46.57 LIG 0.14  C 
BRANCH 22 23
ATOM     23  CG  ASN B   7     -16.061  -0.335  -0.499  1.00 48.94 LIG 0.22  C 
ATOM     24  ND2 ASN B   7     -16.251  -1.550   0.015  1.00 48.79 LIG-0.37  N 
ATOM     25 21HD ASN B   7     -17.047  -1.822   0.196  1.00 48.79 LIG 0.16  HD
ATOM     26 22HD ASN B   7     -15.577  -2.063   0.166  1.00 48.79 LIG 0.16  HD
ATOM     27 OD1  ASN B   7     -16.990   0.433  -0.732  1.00 52.21 LIG-0.27  OA
ENDBRANCH 22 23
ENDBRANCH 19 22
ENDBRANCH 17 19
ENDBRANCH 14 15
BRANCH 14 28
ATOM     28  CB  TRP B   6     -11.856   2.583   1.908  1.00 42.47 LIG 0.07  C 
BRANCH 28 29
ATOM     29  CG  TRP B   6     -13.192   2.931   1.267  1.00 46.30 LIG-0.03  A 
ATOM     30  CD1 TRP B   6     -13.388   3.592   0.077  1.00 49.14 LIG 0.10  A 
ATOM     31  NE1 TRP B   6     -14.734   3.699  -0.193  1.00 51.13 LIG-0.36  N 
ATOM     32 HE1  TRP B   6     -15.076   4.076  -0.886  1.00 51.13 LIG 0.17  HD
ATOM     33  CE2 TRP B   6     -15.441   3.108   0.823  1.00 47.23 LIG 0.04  A 
ATOM     34  CZ2 TRP B   6     -16.823   2.969   0.997  1.00 46.28 LIG 0.03  A 
ATOM     35  CD2 TRP B   6     -14.506   2.608   1.760  1.00 41.81 LIG-0.00  A 
ATOM     36  CH2 TRP B   6     -17.260   2.321   2.128  1.00 44.17 LIG 0.00  A 
ATOM     37  CZ3 TRP B   6     -16.363   1.823   3.075  1.00 33.54 LIG 0.00  A 
ATOM     38  CE3 TRP B   6     -14.981   1.959   2.902  1.00 38.27 LIG 0.01  A 
ENDBRANCH 28 29
ENDBRANCH 14 28
ENDBRANCH 11 14
ENDBRANCH 1 10
BRANCH 1 39
ATOM     39  N   LYS B   5      -6.646   3.273  -0.166  1.00 39.73 LIG-0.35  N 
ATOM     40  C   PRO B   4      -6.439   4.415   0.489  1.00 35.29 LIG 0.24  C 
ATOM     41 O    PRO B   4      -7.282   5.309   0.564  1.00 36.70 LIG-0.27  OA
ATOM     42 H    LYS B   5      -6.053   2.654  -0.228  1.00 39.73 LIG 0.16  HD
BRANCH 40 43
ATOM     43  CA  PRO B   4      -5.084   4.553   1.158  1.00 31.05 LIG 0.18  C 
ATOM     44  N   PRO B   4      -4.118   5.205   0.276  1.00 34.55 LIG-0.34  N 
ATOM     45  C   GLY B   3      -3.505   4.509  -0.681  1.00 37.27 LIG 0.24  C 
ATOM     46  CD  PRO B   4      -3.861   6.597   0.687  1.00 31.08 LIG 0.13  C 
ATOM     47 O    GLY B   3      -3.765   3.319  -0.887  1.00 44.84 LIG-0.27  OA
ATOM     48  CG  PRO B   4      -4.911   6.848   1.740  1.00 26.25 LIG 0.02  C 
ATOM     49  CB  PRO B   4      -5.155   5.509   2.353  1.00 27.99 LIG 0.04  C 
BRANCH 45 50
ATOM     50  CA  GLY B   3      -2.486   5.244  -1.523  1.00 35.98 LIG 0.23  C 
BRANCH 50 51
ATOM     51  N   GLY B   3      -1.221   4.546  -1.540  1.00 37.88 LIG-0.35  N 
ATOM     52  C   TYR B   2      -0.070   5.153  -1.266  1.00 38.85 LIG 0.26  C 
ATOM     53 O    TYR B   2       0.008   6.324  -0.886  1.00 37.42 LIG-0.27  OA
ATOM     54 H    GLY B   3      -1.283   3.713  -1.742  1.00 37.88 LIG 0.16  HD
BRANCH 52 55
ATOM     55  CA  TYR B   2       1.187   4.303  -1.426  1.00 47.59 LIG 0.40  C 
ATOM     56  N   TYR B   2       1.308   3.828  -2.804  1.00 42.90 LIG 0.61  N 
BRANCH 55 57
ATOM     57  CB  TYR B   2       2.420   5.113  -1.015  1.00 41.46 LIG 0.09  C 
BRANCH 57 58
ATOM     58  CG  TYR B   2       3.263   4.479   0.088  1.00 40.04 LIG-0.06  A 
ATOM     59  CD1 TYR B   2       3.951   5.269   0.998  1.00 39.56 LIG 0.01  A 
ATOM     60  CE1 TYR B   2       4.718   4.708   2.011  1.00 39.46 LIG 0.04  A 
ATOM     61  CZ  TYR B   2       4.804   3.337   2.125  1.00 36.77 LIG 0.07  A 
ATOM     62  CE2 TYR B   2       4.130   2.525   1.232  1.00 30.56 LIG 0.04  A 
ATOM     63  CD2 TYR B   2       3.364   3.095   0.220  1.00 33.12 LIG 0.01  A 
BRANCH 61 64
ATOM     64 OH   TYR B   2       5.573   2.800   3.146  1.00 37.21 LIG-0.36  OA
ATOM     65 HH   TYR B   2       6.363   2.697   2.878  1.00 37.21 LIG 0.22  HD
ENDBRANCH 61 64
ENDBRANCH 57 58
ENDBRANCH 55 57
ENDBRANCH 52 55
ENDBRANCH 50 51
ENDBRANCH 45 50
ENDBRANCH 40 43
ENDBRANCH 1 39
TORSDOF 22
ENDMDL
MODEL 2
USER: ADFR SOLUTION from run 43
USER: SCORE 18.071083 LL:  -3.166 LR: -16.702 RR:   0.000 FEB: -10.139
USER: RMSD 4.825450
USER: SEED 42
USER: STATUS no improvement in best in 12 clusters for 5 generations
USER: GENES 24
USER: genes 0 Translation |==|  0.51653 0.48788 0.48363
USER: genes 1 Rotation |==|  0.70418 0.43723 0.33196 0.91968
USER: genes 2 Torsion [C]-CA--CB-[CG] |==|  0.60111
USER: genes 3 Torsion [CA]-CB--CG-[CD] |==|  0.54876
USER: genes 4 Torsion [CB]-CG--CD-[CE] |==|  0.71608
USER: genes 5 Torsion [CG]-CD--CE-[NZ] |==|  0.68500
USER: genes 6 Torsion [CD]-CE--NZ-[HZ3] |==|  0.33711
USER: genes 7 Torsion [N]-CA--C-[N] |==|  0.66111
USER: genes 8 Torsion [C]-N--CA-[C] |==|  0.60408
USER: genes 9 Torsion [N]-CA--C-[N] |==|  0.51004
USER: genes 10 Torsion [C]-N--CA-[C] |==|  0.56746
USER: genes 11 Torsion [N]-CA--C-[O] |==|  0.05688
USER: genes 12 Torsion [N]-CA--CB-[CG] |==|  0.44158
USER: genes 13 Torsion [CA]-CB--CG-[ND2] |==|  0.61554
USER: genes 14 Torsion [N]-CA--CB-[CG] |==|  0.64964
USER: genes 15 Torsion [CA]-CB--CG-[CD2] |==|  0.25383
USER: genes 16 Torsion [CB]-CA--N-[C] |==|  0.77906
USER: genes 17 Torsion [N]-C--CA-[CB] |==|  0.50269
USER: genes 18 Torsion [N]-C--CA-[N] |==|  0.46693
USER: genes 19 Torsion [C]-CA--N-[C] |==|  0.41862
USER: genes 20 Torsion [N]-C--CA-[N] |==|  0.24540
USER: genes 21 Torsion [C]-CA--CB-[CG] |==|  0.23706
USER: genes 22 Torsion [CA]-CB--CG-[CD1] |==|  0.44608
USER: genes 23 Torsion [CE1]-CZ--OH-[HH] |==|  0.43492
ROOT
ATOM      1  CA  LYS B   5      -3.054   4.588  -2.292  1.00 42.36 LIG 0.18  C 
ENDROOT
BRANCH 1 2
ATOM      2  CB  LYS B   5      -2.412   5.729  -3.096  1.00 43.80 LIG 0.04  C 
BRANCH 2 3
ATOM      3  CG  LYS B   5      -3.176   7.075  -3.049  1.00 49.23 LIG 0.00  C 
BRANCH 3 4
ATOM      4  CD  LYS B   5      -2.768   8.039  -4.169  1.00 48.54 LIG 0.03  C 
BRANCH 4 5
ATOM      5  CE  LYS B   5      -1.831   9.118  -3.653  1.00 43.92 LIG 0.23  C 
BRANCH 5 6
ATOM      6  NZ  LYS B   5      -2.504  10.438  -3.719  1.00 45.51 LIG-0.08  N 
ATOM      7 HZ3  LYS B   5      -2.536  10.796  -2.904  1.00 45.51 LIG 0.27  HD
ATOM      8 HZ1  LYS B   5      -2.050  10.976  -4.262  1.00 45.51 LIG 0.27  HD
ATOM      9 HZ2  LYS B   5      -3.332  10.334  -4.029  1.00 45.51 LIG 0.27  HD
ENDBRANCH 5 6
ENDBRANCH 4 5
ENDBRANCH 3 4
ENDBRANCH 2 3
ENDBRANCH 1 2
BRANCH 1 10
ATOM     10  C   LYS B   5      -1.965   3.724  -1.655  1.00 41.24 LIG 0.24  C 
ATOM     11  N   TRP B   6      -0.704   4.092  -1.887  1.00 42.23 LIG-0.35  N 
ATOM     12 H    TRP B   6      -0.474   4.745  -2.397  1.00 42.23 LIG 0.16  HD
ATOM     13 O    LYS B   5      -2.249   2.738  -0.971  1.00 40.50 LIG-0.27  OA
BRANCH 11 14
ATOM     14  CA  TRP B   6       0.409   3.380  -1.264  1.00 42.54 LIG 0.18  C 
BRANCH 14 15
ATOM     15  C   TRP B   6       1.500   4.379  -0.885  1.00 45.00 LIG 0.24  C 
ATOM     16 O    TRP B   6       1.324   5.593  -1.057  1.00 46.85 LIG-0.27  OA
ATOM     17  N   ASN B   7       2.623   3.864  -0.368  1.00 47.11 LIG-0.35  N 
ATOM     18 H    ASN B   7       2.695   3.043  -0.124  1.00 47.11 LIG 0.16  HD
BRANCH 17 19
ATOM     19  CA  ASN B   7       3.852   4.651  -0.165  1.00 45.24 LIG 0.17  C 
BRANCH 19 20
ATOM     20  C   ASN B   7       5.064   3.722  -0.151  1.00 46.26 LIG 0.22  C 
ATOM     21 O    ASN B   7       4.997   2.598  -0.656  1.00 44.70 LIG-0.29  OA
ENDBRANCH 19 20
BRANCH 19 22
ATOM     22  CB  ASN B   7       3.823   5.452   1.148  1.00 46.57 LIG 0.14  C 
BRANCH 22 23
ATOM     23  CG  ASN B   7       5.212   5.851   1.638  1.00 48.94 LIG 0.22  C 
ATOM     24  ND2 ASN B   7       5.437   5.738   2.947  1.00 48.79 LIG-0.37  N 
ATOM     25 21HD ASN B   7       6.204   5.955   3.271  1.00 48.79 LIG 0.16  HD
ATOM     26 22HD ASN B   7       4.817   5.449   3.467  1.00 48.79 LIG 0.16  HD
ATOM     27 OD1  ASN B   7       6.065   6.258   0.855  1.00 52.21 LIG-0.27  OA
ENDBRANCH 22 23
ENDBRANCH 19 22
ENDBRANCH 17 19
ENDBRANCH 14 15
BRANCH 14 28
ATOM     28  CB  TRP B   6       0.982   2.292  -2.177  1.00 42.47 LIG 0.07  C 
BRANCH 28 29
ATOM     29  CG  TRP B   6       1.015   0.941  -1.476  1.00 46.30 LIG-0.03  A 
ATOM     30  CD1 TRP B   6       2.020   0.455  -0.673  1.00 49.14 LIG 0.10  A 
ATOM     31  NE1 TRP B   6       1.684  -0.791  -0.191  1.00 51.13 LIG-0.36  N 
ATOM     32 HE1  TRP B   6       2.169  -1.273   0.330  1.00 51.13 LIG 0.17  HD
ATOM     33  CE2 TRP B   6       0.449  -1.138  -0.676  1.00 47.23 LIG 0.04  A 
ATOM     34  CZ2 TRP B   6      -0.306  -2.299  -0.471  1.00 46.28 LIG 0.03  A 
ATOM     35  CD2 TRP B   6      -0.007  -0.071  -1.486  1.00 41.81 LIG-0.00  A 
ATOM     36  CH2 TRP B   6      -1.530  -2.380  -1.091  1.00 44.17 LIG 0.00  A 
ATOM     37  CZ3 TRP B   6      -2.006  -1.347  -1.903  1.00 33.54 LIG 0.00  A 
ATOM     38  CE3 TRP B   6      -1.253  -0.186  -2.108  1.00 38.27 LIG 0.01  A 
ENDBRANCH 28 29
ENDBRANCH 14 28
ENDBRANCH 11 14
ENDBRANCH 1 10
BRANCH 1 39
ATOM     39  N   LYS B   5      -3.948   5.120  -1.267  1.00 39.73 LIG-0.35  N 
ATOM     40  C   PRO B   4      -3.517   5.605  -0.104  1.00 35.29 LIG 0.24  C 
ATOM     41 O    PRO B   4      -2.329   5.632   0.215  1.00 36.70 LIG-0.27  OA
ATOM     42 H    LYS B   5      -4.779   5.090  -1.485  1.00 39.73 LIG 0.16  HD
BRANCH 40 43
ATOM     43  CA  PRO B   4      -4.592   6.145   0.821  1.00 31.05 LIG 0.18  C 
ATOM     44  N   PRO B   4      -5.465   5.075   1.305  1.00 34.55 LIG-0.34  N 
ATOM     45  C   GLY B   3      -6.449   4.611   0.535  1.00 37.27 LIG 0.24  C 
ATOM     46  CD  PRO B   4      -5.182   4.738   2.712  1.00 31.08 LIG 0.13  C 
ATOM     47 O    GLY B   3      -6.623   5.024  -0.616  1.00 44.84 LIG-0.27  OA
ATOM     48  CG  PRO B   4      -3.913   5.500   3.002  1.00 26.25 LIG 0.02  C 
ATOM     49  CB  PRO B   4      -3.981   6.697   2.113  1.00 27.99 LIG 0.04  C 
BRANCH 45 50
ATOM     50  CA  GLY B   3      -7.335   3.536   1.123  1.00 35.98 LIG 0.23  C 
BRANCH 50 51
ATOM     51  N   GLY B   3      -8.509   3.324   0.308  1.00 37.88 LIG-0.35  N 
ATOM     52  C   TYR B   2      -9.125   2.147   0.240  1.00 38.85 LIG 0.26  C 
ATOM     53 O    TYR B   2      -8.809   1.173   0.928  1.00 37.42 LIG-0.27  OA
ATOM     54 H    GLY B   3      -8.768   4.022  -0.122  1.00 37.88 LIG 0.16  HD
BRANCH 52 55
ATOM     55  CA  TYR B   2     -10.289   2.059  -0.743  1.00 47.59 LIG 0.40  C 
ATOM     56  N   TYR B   2      -9.807   1.673  -2.069  1.00 42.90 LIG 0.61  N 
BRANCH 55 57
ATOM     57  CB  TYR B   2     -11.333   1.065  -0.228  1.00 41.46 LIG 0.09  C 
BRANCH 57 58
ATOM     58  CG  TYR B   2     -12.349   1.652   0.749  1.00 40.04 LIG-0.06  A 
ATOM     59  CD1 TYR B   2     -13.558   1.012   0.983  1.00 39.56 LIG 0.01  A 
ATOM     60  CE1 TYR B   2     -14.491   1.531   1.873  1.00 39.46 LIG 0.04  A 
ATOM     61  CZ  TYR B   2     -14.219   2.704   2.543  1.00 36.77 LIG 0.07  A 
ATOM     62  CE2 TYR B   2     -13.022   3.362   2.328  1.00 30.56 LIG 0.04  A 
ATOM     63  CD2 TYR B   2     -12.094   2.837   1.435  1.00 33.12 LIG 0.01  A 
BRANCH 61 64
ATOM     64 OH   TYR B   2     -15.163   3.200   3.429  1.00 37.21 LIG-0.36  OA
ATOM     65 HH   TYR B   2     -14.786   3.699   3.990  1.00 37.21 LIG 0.22  HD
ENDBRANCH 61 64
ENDBRANCH 57 58
ENDBRANCH 55 57
ENDBRANCH 52 55
ENDBRANCH 50 51
ENDBRANCH 45 50
ENDBRANCH 40 43
ENDBRANCH 1 39
TORSDOF 22
ENDMDL
MODEL 3
USER: ADFR SOLUTION from run 169
USER: SCORE 18.297424 LL:  -3.522 LR: -16.475 RR:   0.000 FEB:  -9.912
USER: RMSD 14.495580
USER: SEED 168
USER: STATUS no improvement in best in 15 clusters for 5 generations
USER: GENES 24
USER: genes 0 Translation |==|  0.34696 0.32469 0.54064
USER: genes 1 Rotation |==|  0.44335 0.99291 0.56088 0.51110
USER: genes 2 Torsion [C]-CA--CB-[CG] |==|  0.37880
USER: genes 3 Torsion [CA]-CB--CG-[CD] |==|  0.80145
USER: genes 4 Torsion [CB]-CG--CD-[CE] |==|  0.71506
USER: genes 5 Torsion [CG]-CD--CE-[NZ] |==|  0.23065
USER: genes 6 Torsion [CD]-CE--NZ-[HZ3] |==|  0.80729
USER: genes 7 Torsion [N]-CA--C-[N] |==|  0.63731
USER: genes 8 Torsion [C]-N--CA-[C] |==|  0.54928
USER: genes 9 Torsion [N]-CA--C-[N] |==|  0.42942
USER: genes 10 Torsion [C]-N--CA-[C] |==|  0.17330
USER: genes 11 Torsion [N]-CA--C-[O] |==|  0.40075
USER: genes 12 Torsion [N]-CA--CB-[CG] |==|  0.60744
USER: genes 13 Torsion [CA]-CB--CG-[ND2] |==|  0.16992
USER: genes 14 Torsion [N]-CA--CB-[CG] |==|  0.29895
USER: genes 15 Torsion [CA]-CB--CG-[CD2] |==|  0.30256
USER: genes 16 Torsion [CB]-CA--N-[C] |==|  0.18847
USER: genes 17 Torsion [N]-C--CA-[CB] |==|  0.36708
USER: genes 18 Torsion [N]-C--CA-[N] |==|  0.33640
USER: genes 19 Torsion [C]-CA--N-[C] |==|  0.60498
USER: genes 20 Torsion [N]-C--CA-[N] |==|  0.92114
USER: genes 21 Torsion [C]-CA--CB-[CG] |==|  0.23813
USER: genes 22 Torsion [CA]-CB--CG-[CD1] |==|  0.79556
USER: genes 23 Torsion [CE1]-CZ--OH-[HH] |==|  0.12176
ROOT
ATOM      1  CA  LYS B   5      -8.141   1.405  -1.309  1.00 42.36 LIG 0.18  C 
ENDROOT
BRANCH 1 2
ATOM      2  CB  LYS B   5      -7.980   1.257   0.212  1.00 43.80 LIG 0.04  C 
BRANCH 2 3
ATOM      3  CG  LYS B   5      -7.165   0.021   0.668  1.00 49.23 LIG 0.00  C 
BRANCH 3 4
ATOM      4  CD  LYS B   5      -7.912  -1.301   0.466  1.00 48.54 LIG 0.03  C 
BRANCH 4 5
ATOM      5  CE  LYS B   5      -8.480  -1.820   1.776  1.00 43.92 LIG 0.23  C 
BRANCH 5 6
ATOM      6  NZ  LYS B   5      -9.777  -1.158   2.056  1.00 45.51 LIG-0.08  N 
ATOM      7 HZ3  LYS B   5      -9.637  -0.300   2.250  1.00 45.51 LIG 0.27  HD
ATOM      8 HZ1  LYS B   5     -10.302  -1.218   1.340  1.00 45.51 LIG 0.27  HD
ATOM      9 HZ2  LYS B   5     -10.171  -1.557   2.747  1.00 45.51 LIG 0.27  HD
ENDBRANCH 5 6
ENDBRANCH 4 5
ENDBRANCH 3 4
ENDBRANCH 2 3
ENDBRANCH 1 2
BRANCH 1 10
ATOM     10  C   LYS B   5      -9.583   1.788  -1.644  1.00 41.24 LIG 0.24  C 
ATOM     11  N   TRP B   6     -10.456   1.757  -0.635  1.00 42.23 LIG-0.35  N 
ATOM     12 H    TRP B   6     -10.267   1.498   0.163  1.00 42.23 LIG 0.16  HD
ATOM     13 O    LYS B   5      -9.912   2.102  -2.791  1.00 40.50 LIG-0.27  OA
BRANCH 11 14
ATOM     14  CA  TRP B   6     -11.841   2.176  -0.832  1.00 42.54 LIG 0.18  C 
BRANCH 14 15
ATOM     15  C   TRP B   6     -12.481   2.460   0.525  1.00 45.00 LIG 0.24  C 
ATOM     16 O    TRP B   6     -12.049   1.910   1.548  1.00 46.85 LIG-0.27  OA
ATOM     17  N   ASN B   7     -13.507   3.321   0.530  1.00 47.11 LIG-0.35  N 
ATOM     18 H    ASN B   7     -13.718   3.803  -0.150  1.00 47.11 LIG 0.16  HD
BRANCH 17 19
ATOM     19  CA  ASN B   7     -14.379   3.530   1.698  1.00 45.24 LIG 0.17  C 
BRANCH 19 20
ATOM     20  C   ASN B   7     -13.558   4.076   2.864  1.00 46.26 LIG 0.22  C 
ATOM     21 O    ASN B   7     -14.048   4.900   3.643  1.00 44.70 LIG-0.29  OA
ENDBRANCH 19 20
BRANCH 19 22
ATOM     22  CB  ASN B   7     -15.079   2.236   2.145  1.00 46.57 LIG 0.14  C 
BRANCH 22 23
ATOM     23  CG  ASN B   7     -16.520   2.458   2.594  1.00 48.94 LIG 0.22  C 
ATOM     24  ND2 ASN B   7     -17.360   2.947   1.682  1.00 48.79 LIG-0.37  N 
ATOM     25 21HD ASN B   7     -18.182   3.093   1.889  1.00 48.79 LIG 0.16  HD
ATOM     26 22HD ASN B   7     -17.081   3.117   0.887  1.00 48.79 LIG 0.16  HD
ATOM     27 OD1  ASN B   7     -16.871   2.199   3.742  1.00 52.21 LIG-0.27  OA
ENDBRANCH 22 23
ENDBRANCH 19 22
ENDBRANCH 17 19
ENDBRANCH 14 15
BRANCH 14 28
ATOM     28  CB  TRP B   6     -12.659   1.129  -1.593  1.00 42.47 LIG 0.07  C 
BRANCH 28 29
ATOM     29  CG  TRP B   6     -13.643   0.420  -0.674  1.00 46.30 LIG-0.03  A 
ATOM     30  CD1 TRP B   6     -13.339  -0.460   0.338  1.00 49.14 LIG 0.10  A 
ATOM     31  NE1 TRP B   6     -14.489  -0.874   0.972  1.00 51.13 LIG-0.36  N 
ATOM     32 HE1  TRP B   6     -14.526  -1.424   1.632  1.00 51.13 LIG 0.17  HD
ATOM     33  CE2 TRP B   6     -15.567  -0.268   0.379  1.00 47.23 LIG 0.04  A 
ATOM     34  CZ2 TRP B   6     -16.933  -0.375   0.669  1.00 46.28 LIG 0.03  A 
ATOM     35  CD2 TRP B   6     -15.076   0.559  -0.658  1.00 41.81 LIG-0.00  A 
ATOM     36  CH2 TRP B   6     -17.806   0.359  -0.099  1.00 44.17 LIG 0.00  A 
ATOM     37  CZ3 TRP B   6     -17.353   1.178  -1.136  1.00 33.54 LIG 0.00  A 
ATOM     38  CE3 TRP B   6     -15.988   1.288  -1.425  1.00 38.27 LIG 0.01  A 
ENDBRANCH 28 29
ENDBRANCH 14 28
ENDBRANCH 11 14
ENDBRANCH 1 10
BRANCH 1 39
ATOM     39  N   LYS B   5      -7.213   2.406  -1.830  1.00 39.73 LIG-0.35  N 
ATOM     40  C   PRO B   4      -5.893   2.237  -1.849  1.00 35.29 LIG 0.24  C 
ATOM     41 O    PRO B   4      -5.338   1.228  -1.413  1.00 36.70 LIG-0.27  OA
ATOM     42 H    LYS B   5      -7.600   3.116  -2.123  1.00 39.73 LIG 0.16  HD
BRANCH 40 43
ATOM     43  CA  PRO B   4      -5.093   3.373  -2.459  1.00 31.05 LIG 0.18  C 
ATOM     44  N   PRO B   4      -5.880   4.604  -2.521  1.00 34.55 LIG-0.34  N 
ATOM     45  C   GLY B   3      -6.766   4.786  -3.500  1.00 37.27 LIG 0.24  C 
ATOM     46  CD  PRO B   4      -5.454   5.574  -1.496  1.00 31.08 LIG 0.13  C 
ATOM     47 O    GLY B   3      -6.989   3.913  -4.345  1.00 44.84 LIG-0.27  OA
ATOM     48  CG  PRO B   4      -4.512   4.773  -0.632  1.00 26.25 LIG 0.02  C 
ATOM     49  CB  PRO B   4      -3.917   3.765  -1.559  1.00 27.99 LIG 0.04  C 
BRANCH 45 50
ATOM     50  CA  GLY B   3      -7.508   6.104  -3.522  1.00 35.98 LIG 0.23  C 
BRANCH 50 51
ATOM     51  N   GLY B   3      -7.284   6.809  -4.762  1.00 37.88 LIG-0.35  N 
ATOM     52  C   TYR B   2      -7.147   8.131  -4.815  1.00 38.85 LIG 0.26  C 
ATOM     53 O    TYR B   2      -7.106   8.851  -3.814  1.00 37.42 LIG-0.27  OA
ATOM     54 H    GLY B   3      -7.248   6.299  -5.454  1.00 37.88 LIG 0.16  HD
BRANCH 52 55
ATOM     55  CA  TYR B   2      -7.018   8.734  -6.210  1.00 47.59 LIG 0.40  C 
ATOM     56  N   TYR B   2      -6.415   7.768  -7.128  1.00 42.90 LIG 0.61  N 
BRANCH 55 57
ATOM     57  CB  TYR B   2      -8.391   9.185  -6.713  1.00 41.46 LIG 0.09  C 
BRANCH 57 58
ATOM     58  CG  TYR B   2      -8.804  10.589  -6.278  1.00 40.04 LIG-0.06  A 
ATOM     59  CD1 TYR B   2      -9.191  10.840  -4.969  1.00 39.56 LIG 0.01  A 
ATOM     60  CE1 TYR B   2      -9.564  12.113  -4.556  1.00 39.46 LIG 0.04  A 
ATOM     61  CZ  TYR B   2      -9.550  13.156  -5.457  1.00 36.77 LIG 0.07  A 
ATOM     62  CE2 TYR B   2      -9.169  12.934  -6.767  1.00 30.56 LIG 0.04  A 
ATOM     63  CD2 TYR B   2      -8.798  11.656  -7.173  1.00 33.12 LIG 0.01  A 
BRANCH 61 64
ATOM     64 OH   TYR B   2      -9.922  14.418  -5.021  1.00 37.21 LIG-0.36  OA
ATOM     65 HH   TYR B   2      -9.567  14.574  -4.276  1.00 37.21 LIG 0.22  HD
ENDBRANCH 61 64
ENDBRANCH 57 58
ENDBRANCH 55 57
ENDBRANCH 52 55
ENDBRANCH 50 51
ENDBRANCH 45 50
ENDBRANCH 40 43
ENDBRANCH 1 39
TORSDOF 22
ENDMDL
MODEL 4
USER: ADFR SOLUTION from run 169
USER: SCORE 18.323571 LL:  -3.383 LR: -16.355 RR:   0.000 FEB:  -9.792
USER: RMSD 15.248518
USER: SEED 168
USER: STATUS no improvement in best in 15 clusters for 5 generations
USER: GENES 24
USER: genes 0 Translation |==|  0.34689 0.35063 0.55316
USER: genes 1 Rotation |==|  0.38854 0.97278 0.61236 0.53782
USER: genes 2 Torsion [C]-CA--CB-[CG] |==|  0.35499
USER: genes 3 Torsion [CA]-CB--CG-[CD] |==|  0.76458
USER: genes 4 Torsion [CB]-CG--CD-[CE] |==|  0.71815
USER: genes 5 Torsion [CG]-CD--CE-[NZ] |==|  0.23918
USER: genes 6 Torsion [CD]-CE--NZ-[HZ3] |==|  0.84256
USER: genes 7 Torsion [N]-CA--C-[N] |==|  0.69196
USER: genes 8 Torsion [C]-N--CA-[C] |==|  0.55236
USER: genes 9 Torsion [N]-CA--C-[N] |==|  0.36878
USER: genes 10 Torsion [C]-N--CA-[C] |==|  0.13387
USER: genes 11 Torsion [N]-CA--C-[O] |==|  0.38746
USER: genes 12 Torsion [N]-CA--CB-[CG] |==|  0.32265
USER: genes 13 Torsion [CA]-CB--CG-[ND2] |==|  0.80382
USER: genes 14 Torsion [N]-CA--CB-[CG] |==|  0.32106
USER: genes 15 Torsion [CA]-CB--CG-[CD2] |==|  0.25874
USER: genes 16 Torsion [CB]-CA--N-[C] |==|  0.19371
USER: genes 17 Torsion [N]-C--CA-[CB] |==|  0.90880
USER: genes 18 Torsion [N]-C--CA-[N] |==|  0.51409
USER: genes 19 Torsion [C]-CA--N-[C] |==|  0.42676
USER: genes 20 Torsion [N]-C--CA-[N] |==|  0.34083
USER: genes 21 Torsion [C]-CA--CB-[CG] |==|  0.47255
USER: genes 22 Torsion [CA]-CB--CG-[CD1] |==|  0.66258
USER: genes 23 Torsion [CE1]-CZ--OH-[HH] |==|  0.23978
ROOT
ATOM      1  CA  LYS B   5      -8.143   1.911  -1.093  1.00 42.36 LIG 0.18  C 
ENDROOT
BRANCH 1 2
ATOM      2  CB  LYS B   5      -8.083   1.454   0.373  1.00 43.80 LIG 0.04  C 
BRANCH 2 3
ATOM      3  CG  LYS B   5      -7.208   0.203   0.634  1.00 49.23 LIG 0.00  C 
BRANCH 3 4
ATOM      4  CD  LYS B   5      -7.955  -1.114   0.399  1.00 48.54 LIG 0.03  C 
BRANCH 4 5
ATOM      5  CE  LYS B   5      -8.399  -1.739   1.711  1.00 43.92 LIG 0.23  C 
BRANCH 5 6
ATOM      6  NZ  LYS B   5      -9.710  -1.176   2.115  1.00 45.51 LIG-0.08  N 
ATOM      7 HZ3  LYS B   5      -9.648  -0.290   2.172  1.00 45.51 LIG 0.27  HD
ATOM      8 HZ1  LYS B   5     -10.325  -1.392   1.510  1.00 45.51 LIG 0.27  HD
ATOM      9 HZ2  LYS B   5      -9.944  -1.508   2.907  1.00 45.51 LIG 0.27  HD
ENDBRANCH 5 6
ENDBRANCH 4 5
ENDBRANCH 3 4
ENDBRANCH 2 3
ENDBRANCH 1 2
BRANCH 1 10
ATOM     10  C   LYS B   5      -9.601   2.062  -1.531  1.00 41.24 LIG 0.24  C 
ATOM     11  N   TRP B   6     -10.519   2.017  -0.564  1.00 42.23 LIG-0.35  N 
ATOM     12 H    TRP B   6     -10.345   1.869   0.265  1.00 42.23 LIG 0.16  HD
ATOM     13 O    LYS B   5      -9.900   2.209  -2.719  1.00 40.50 LIG-0.27  OA
BRANCH 11 14
ATOM     14  CA  TRP B   6     -11.932   2.226  -0.866  1.00 42.54 LIG 0.18  C 
BRANCH 14 15
ATOM     15  C   TRP B   6     -12.677   2.586   0.418  1.00 45.00 LIG 0.24  C 
ATOM     16 O    TRP B   6     -12.499   1.924   1.450  1.00 46.85 LIG-0.27  OA
ATOM     17  N   ASN B   7     -13.505   3.636   0.350  1.00 47.11 LIG-0.35  N 
ATOM     18 H    ASN B   7     -13.527   4.174  -0.320  1.00 47.11 LIG 0.16  HD
BRANCH 17 19
ATOM     19  CA  ASN B   7     -14.464   3.977   1.415  1.00 45.24 LIG 0.17  C 
BRANCH 19 20
ATOM     20  C   ASN B   7     -13.760   3.959   2.770  1.00 46.26 LIG 0.22  C 
ATOM     21 O    ASN B   7     -14.009   4.824   3.615  1.00 44.70 LIG-0.29  OA
ENDBRANCH 19 20
BRANCH 19 22
ATOM     22  CB  ASN B   7     -15.657   3.007   1.460  1.00 46.57 LIG 0.14  C 
BRANCH 22 23
ATOM     23  CG  ASN B   7     -15.730   2.207   2.757  1.00 48.94 LIG 0.22  C 
ATOM     24  ND2 ASN B   7     -14.797   1.272   2.935  1.00 48.79 LIG-0.37  N 
ATOM     25 21HD ASN B   7     -14.799   0.793   3.649  1.00 48.79 LIG 0.16  HD
ATOM     26 22HD ASN B   7     -14.192   1.149   2.336  1.00 48.79 LIG 0.16  HD
ATOM     27 OD1  ASN B   7     -16.614   2.421   3.582  1.00 52.21 LIG-0.27  OA
ENDBRANCH 22 23
ENDBRANCH 19 22
ENDBRANCH 17 19
ENDBRANCH 14 15
BRANCH 14 28
ATOM     28  CB  TRP B   6     -12.571   0.996  -1.519  1.00 42.47 LIG 0.07  C 
BRANCH 28 29
ATOM     29  CG  TRP B   6     -13.651   0.395  -0.630  1.00 46.30 LIG-0.03  A 
ATOM     30  CD1 TRP B   6     -13.469  -0.506   0.393  1.00 49.14 LIG 0.10  A 
ATOM     31  NE1 TRP B   6     -14.675  -0.798   0.990  1.00 51.13 LIG-0.36  N 
ATOM     32 HE1  TRP B   6     -14.788  -1.337   1.650  1.00 51.13 LIG 0.17  HD
ATOM     33  CE2 TRP B   6     -15.667  -0.090   0.361  1.00 47.23 LIG 0.04  A 
ATOM     34  CZ2 TRP B   6     -17.045  -0.058   0.607  1.00 46.28 LIG 0.03  A 
ATOM     35  CD2 TRP B   6     -15.062   0.677  -0.662  1.00 41.81 LIG-0.00  A 
ATOM     36  CH2 TRP B   6     -17.814   0.755  -0.191  1.00 44.17 LIG 0.00  A 
ATOM     37  CZ3 TRP B   6     -17.249   1.519  -1.215  1.00 33.54 LIG 0.00  A 
ATOM     38  CE3 TRP B   6     -15.871   1.489  -1.460  1.00 38.27 LIG 0.01  A 
ENDBRANCH 28 29
ENDBRANCH 14 28
ENDBRANCH 11 14
ENDBRANCH 1 10
BRANCH 1 39
ATOM     39  N   LYS B   5      -7.425   3.171  -1.269  1.00 39.73 LIG-0.35  N 
ATOM     40  C   PRO B   4      -6.100   3.273  -1.183  1.00 35.29 LIG 0.24  C 
ATOM     41 O    PRO B   4      -5.367   2.318  -0.930  1.00 36.70 LIG-0.27  OA
ATOM     42 H    LYS B   5      -7.938   3.841  -1.435  1.00 39.73 LIG 0.16  HD
BRANCH 40 43
ATOM     43  CA  PRO B   4      -5.530   4.658  -1.429  1.00 31.05 LIG 0.18  C 
ATOM     44  N   PRO B   4      -4.218   4.588  -2.071  1.00 34.55 LIG-0.34  N 
ATOM     45  C   GLY B   3      -3.128   4.336  -1.346  1.00 37.27 LIG 0.24  C 
ATOM     46  CD  PRO B   4      -4.291   4.954  -3.497  1.00 31.08 LIG 0.13  C 
ATOM     47 O    GLY B   3      -3.193   4.106  -0.135  1.00 44.84 LIG-0.27  OA
ATOM     48  CG  PRO B   4      -5.774   5.023  -3.762  1.00 26.25 LIG 0.02  C 
ATOM     49  CB  PRO B   4      -6.371   5.426  -2.454  1.00 27.99 LIG 0.04  C 
BRANCH 45 50
ATOM     50  CA  GLY B   3      -1.803   4.324  -2.075  1.00 35.98 LIG 0.23  C 
BRANCH 50 51
ATOM     51  N   GLY B   3      -0.728   3.925  -1.198  1.00 37.88 LIG-0.35  N 
ATOM     52  C   TYR B   2       0.384   3.350  -1.649  1.00 38.85 LIG 0.26  C 
ATOM     53 O    TYR B   2       0.631   3.196  -2.848  1.00 37.42 LIG-0.27  OA
ATOM     54 H    GLY B   3      -0.873   4.092  -0.367  1.00 37.88 LIG 0.16  HD
BRANCH 52 55
ATOM     55  CA  TYR B   2       1.379   2.896  -0.586  1.00 47.59 LIG 0.40  C 
ATOM     56  N   TYR B   2       1.649   1.464  -0.720  1.00 42.90 LIG 0.61  N 
BRANCH 55 57
ATOM     57  CB  TYR B   2       2.671   3.709  -0.699  1.00 41.46 LIG 0.09  C 
BRANCH 57 58
ATOM     58  CG  TYR B   2       3.653   3.515   0.453  1.00 40.04 LIG-0.06  A 
ATOM     59  CD1 TYR B   2       4.064   4.593   1.225  1.00 39.56 LIG 0.01  A 
ATOM     60  CE1 TYR B   2       4.952   4.432   2.280  1.00 39.46 LIG 0.04  A 
ATOM     61  CZ  TYR B   2       5.442   3.178   2.577  1.00 36.77 LIG 0.07  A 
ATOM     62  CE2 TYR B   2       5.050   2.086   1.825  1.00 30.56 LIG 0.04  A 
ATOM     63  CD2 TYR B   2       4.160   2.256   0.770  1.00 33.12 LIG 0.01  A 
BRANCH 61 64
ATOM     64 OH   TYR B   2       6.324   3.041   3.637  1.00 37.21 LIG-0.36  OA
ATOM     65 HH   TYR B   2       5.892   2.942   4.351  1.00 37.21 LIG 0.22  HD
ENDBRANCH 61 64
ENDBRANCH 57 58
ENDBRANCH 55 57
ENDBRANCH 52 55
ENDBRANCH 50 51
ENDBRANCH 45 50
ENDBRANCH 40 43
ENDBRANCH 1 39
TORSDOF 22
ENDMDL
MODEL 5
USER: ADFR SOLUTION from run 89
USER: SCORE 19.704722 LL:  -4.147 LR: -16.215 RR:   0.000 FEB:  -9.653
USER: RMSD 11.559250
USER: SEED 88
USER: STATUS no improvement in best in 3 clusters for 5 generations
USER: GENES 24
USER: genes 0 Translation |==|  0.40115 0.57194 0.40901
USER: genes 1 Rotation |==|  0.44211 0.56177 0.10687 0.79712
USER: genes 2 Torsion [C]-CA--CB-[CG] |==|  0.50697
USER: genes 3 Torsion [CA]-CB--CG-[CD] |==|  0.93223
USER: genes 4 Torsion [CB]-CG--CD-[CE] |==|  0.61728
USER: genes 5 Torsion [CG]-CD--CE-[NZ] |==|  0.44153
USER: genes 6 Torsion [CD]-CE--NZ-[HZ3] |==|  0.02414
USER: genes 7 Torsion [N]-CA--C-[N] |==|  0.35561
USER: genes 8 Torsion [C]-N--CA-[C] |==|  0.57393
USER: genes 9 Torsion [N]-CA--C-[N] |==|  0.51597
USER: genes 10 Torsion [C]-N--CA-[C] |==|  0.16709
USER: genes 11 Torsion [N]-CA--C-[O] |==|  0.05711
USER: genes 12 Torsion [N]-CA--CB-[CG] |==|  0.80365
USER: genes 13 Torsion [CA]-CB--CG-[ND2] |==|  0.66979
USER: genes 14 Torsion [N]-CA--CB-[CG] |==|  0.07547
USER: genes 15 Torsion [CA]-CB--CG-[CD2] |==|  0.72238
USER: genes 16 Torsion [CB]-CA--N-[C] |==|  0.83837
USER: genes 17 Torsion [N]-C--CA-[CB] |==|  0.80759
USER: genes 18 Torsion [N]-C--CA-[N] |==|  0.53310
USER: genes 19 Torsion [C]-CA--N-[C] |==|  0.81052
USER: genes 20 Torsion [N]-C--CA-[N] |==|  0.23008
USER: genes 21 Torsion [C]-CA--CB-[CG] |==|  0.74088
USER: genes 22 Torsion [CA]-CB--CG-[CD1] |==|  0.16055
USER: genes 23 Torsion [CE1]-CZ--OH-[HH] |==|  0.13995
ROOT
ATOM      1  CA  LYS B   5      -6.515   6.227  -3.580  1.00 42.36 LIG 0.18  C 
ENDROOT
BRANCH 1 2
ATOM      2  CB  LYS B   5      -6.786   6.489  -5.069  1.00 43.80 LIG 0.04  C 
BRANCH 2 3
ATOM      3  CG  LYS B   5      -7.071   7.967  -5.434  1.00 49.23 LIG 0.00  C 
BRANCH 3 4
ATOM      4  CD  LYS B   5      -7.611   8.785  -4.256  1.00 48.54 LIG 0.03  C 
BRANCH 4 5
ATOM      5  CE  LYS B   5      -8.746   9.696  -4.691  1.00 43.92 LIG 0.23  C 
BRANCH 5 6
ATOM      6  NZ  LYS B   5      -9.564  10.074  -3.513  1.00 45.51 LIG-0.08  N 
ATOM      7 HZ3  LYS B   5      -9.159   9.798  -2.769  1.00 45.51 LIG 0.27  HD
ATOM      8 HZ1  LYS B   5      -9.658  10.958  -3.488  1.00 45.51 LIG 0.27  HD
ATOM      9 HZ2  LYS B   5     -10.366   9.692  -3.572  1.00 45.51 LIG 0.27  HD
ENDBRANCH 5 6
ENDBRANCH 4 5
ENDBRANCH 3 4
ENDBRANCH 2 3
ENDBRANCH 1 2
BRANCH 1 10
ATOM     10  C   LYS B   5      -6.189   4.749  -3.363  1.00 41.24 LIG 0.24  C 
ATOM     11  N   TRP B   6      -7.109   4.024  -2.726  1.00 42.23 LIG-0.35  N 
ATOM     12 H    TRP B   6      -7.839   4.343  -2.399  1.00 42.23 LIG 0.16  HD
ATOM     13 O    LYS B   5      -5.124   4.265  -3.756  1.00 40.50 LIG-0.27  OA
BRANCH 11 14
ATOM     14  CA  TRP B   6      -6.929   2.588  -2.535  1.00 42.54 LIG 0.18  C 
BRANCH 14 15
ATOM     15  C   TRP B   6      -8.296   1.917  -2.412  1.00 45.00 LIG 0.24  C 
ATOM     16 O    TRP B   6      -9.332   2.574  -2.589  1.00 46.85 LIG-0.27  OA
ATOM     17  N   ASN B   7      -8.293   0.612  -2.114  1.00 47.11 LIG-0.35  N 
ATOM     18 H    ASN B   7      -7.582   0.129  -2.125  1.00 47.11 LIG 0.16  HD
BRANCH 17 19
ATOM     19  CA  ASN B   7      -9.508  -0.131  -1.735  1.00 45.24 LIG 0.17  C 
BRANCH 19 20
ATOM     20  C   ASN B   7     -10.527  -0.070  -2.870  1.00 46.26 LIG 0.22  C 
ATOM     21 O    ASN B   7     -10.166   0.192  -4.021  1.00 44.70 LIG-0.29  OA
ENDBRANCH 19 20
BRANCH 19 22
ATOM     22  CB  ASN B   7     -10.155   0.421  -0.453  1.00 46.57 LIG 0.14  C 
BRANCH 22 23
ATOM     23  CG  ASN B   7      -9.340   0.130   0.803  1.00 48.94 LIG 0.22  C 
ATOM     24  ND2 ASN B   7      -9.933  -0.610   1.740  1.00 48.79 LIG-0.37  N 
ATOM     25 21HD ASN B   7      -9.515  -0.798   2.468  1.00 48.79 LIG 0.16  HD
ATOM     26 22HD ASN B   7     -10.733  -0.901   1.617  1.00 48.79 LIG 0.16  HD
ATOM     27 OD1  ASN B   7      -8.200   0.568   0.933  1.00 52.21 LIG-0.27  OA
ENDBRANCH 22 23
ENDBRANCH 19 22
ENDBRANCH 17 19
ENDBRANCH 14 15
BRANCH 14 28
ATOM     28  CB  TRP B   6      -6.074   2.272  -1.304  1.00 42.47 LIG 0.07  C 
BRANCH 28 29
ATOM     29  CG  TRP B   6      -6.181   3.373  -0.258  1.00 46.30 LIG-0.03  A 
ATOM     30  CD1 TRP B   6      -7.182   3.534   0.670  1.00 49.14 LIG 0.10  A 
ATOM     31  NE1 TRP B   6      -6.923   4.627   1.468  1.00 51.13 LIG-0.36  N 
ATOM     32 HE1  TRP B   6      -7.420   4.905   2.111  1.00 51.13 LIG 0.17  HD
ATOM     33  CE2 TRP B   6      -5.743   5.199   1.067  1.00 47.23 LIG 0.04  A 
ATOM     34  CZ2 TRP B   6      -5.073   6.323   1.566  1.00 46.28 LIG 0.03  A 
ATOM     35  CD2 TRP B   6      -5.242   4.437  -0.014  1.00 41.81 LIG-0.00  A 
ATOM     36  CH2 TRP B   6      -3.888   6.676   0.964  1.00 44.17 LIG 0.00  A 
ATOM     37  CZ3 TRP B   6      -3.371   5.949  -0.111  1.00 33.54 LIG 0.00  A 
ATOM     38  CE3 TRP B   6      -4.039   4.825  -0.609  1.00 38.27 LIG 0.01  A 
ENDBRANCH 28 29
ENDBRANCH 14 28
ENDBRANCH 11 14
ENDBRANCH 1 10
BRANCH 1 39
ATOM     39  N   LYS B   5      -5.421   7.067  -3.099  1.00 39.73 LIG-0.35  N 
ATOM     40  C   PRO B   4      -4.199   7.044  -3.627  1.00 35.29 LIG 0.24  C 
ATOM     41 O    PRO B   4      -3.880   6.300  -4.555  1.00 36.70 LIG-0.27  OA
ATOM     42 H    LYS B   5      -5.640   7.578  -2.444  1.00 39.73 LIG 0.16  HD
BRANCH 40 43
ATOM     43  CA  PRO B   4      -3.201   8.012  -3.018  1.00 31.05 LIG 0.18  C 
ATOM     44  N   PRO B   4      -1.875   7.855  -3.613  1.00 34.55 LIG-0.34  N 
ATOM     45  C   GLY B   3      -1.070   6.871  -3.211  1.00 37.27 LIG 0.24  C 
ATOM     46  CD  PRO B   4      -1.561   8.958  -4.539  1.00 31.08 LIG 0.13  C 
ATOM     47 O    GLY B   3      -1.431   6.039  -2.373  1.00 44.84 LIG-0.27  OA
ATOM     48  CG  PRO B   4      -2.875   9.687  -4.668  1.00 26.25 LIG 0.02  C 
ATOM     49  CB  PRO B   4      -3.559   9.462  -3.361  1.00 27.99 LIG 0.04  C 
BRANCH 45 50
ATOM     50  CA  GLY B   3       0.303   6.801  -3.842  1.00 35.98 LIG 0.23  C 
BRANCH 50 51
ATOM     51  N   GLY B   3       0.957   5.551  -3.532  1.00 37.88 LIG-0.35  N 
ATOM     52  C   TYR B   2       1.362   5.245  -2.303  1.00 38.85 LIG 0.26  C 
ATOM     53 O    TYR B   2       1.133   5.949  -1.317  1.00 37.42 LIG-0.27  OA
ATOM     54 H    GLY B   3       1.058   5.032  -4.210  1.00 37.88 LIG 0.16  HD
BRANCH 52 55
ATOM     55  CA  TYR B   2       2.126   3.933  -2.160  1.00 47.59 LIG 0.40  C 
ATOM     56  N   TYR B   2       3.535   4.124  -2.502  1.00 42.90 LIG 0.61  N 
BRANCH 55 57
ATOM     57  CB  TYR B   2       1.976   3.393  -0.735  1.00 41.46 LIG 0.09  C 
BRANCH 57 58
ATOM     58  CG  TYR B   2       3.088   3.806   0.226  1.00 40.04 LIG-0.06  A 
ATOM     59  CD1 TYR B   2       3.362   5.145   0.461  1.00 39.56 LIG 0.01  A 
ATOM     60  CE1 TYR B   2       4.367   5.537   1.337  1.00 39.46 LIG 0.04  A 
ATOM     61  CZ  TYR B   2       5.113   4.582   1.992  1.00 36.77 LIG 0.07  A 
ATOM     62  CE2 TYR B   2       4.863   3.239   1.777  1.00 30.56 LIG 0.04  A 
ATOM     63  CD2 TYR B   2       3.855   2.856   0.898  1.00 33.12 LIG 0.01  A 
BRANCH 61 64
ATOM     64 OH   TYR B   2       6.108   4.996   2.865  1.00 37.21 LIG-0.36  OA
ATOM     65 HH   TYR B   2       5.794   5.562   3.400  1.00 37.21 LIG 0.22  HD
ENDBRANCH 61 64
ENDBRANCH 57 58
ENDBRANCH 55 57
ENDBRANCH 52 55
ENDBRANCH 50 51
ENDBRANCH 45 50
ENDBRANCH 40 43
ENDBRANCH 1 39
TORSDOF 22
ENDMDL
MODEL 6
USER: ADFR SOLUTION from run 54
USER: SCORE 17.713315 LL:  -3.399 LR: -16.221 RR:   0.000 FEB:  -9.658
USER: RMSD 14.083192
USER: SEED 53
USER: STATUS no improvement in best in 8 clusters for 5 generations
USER: GENES 24
USER: genes 0 Translation |==|  0.36251 0.41213 0.55700
USER: genes 1 Rotation |==|  0.46944 0.39454 0.02929 0.62795
USER: genes 2 Torsion [C]-CA--CB-[CG] |==|  0.33520
USER: genes 3 Torsion [CA]-CB--CG-[CD] |==|  0.22021
USER: genes 4 Torsion [CB]-CG--CD-[CE] |==|  0.78041
USER: genes 5 Torsion [CG]-CD--CE-[NZ] |==|  0.77502
USER: genes 6 Torsion [CD]-CE--NZ-[HZ3] |==|  0.84605
USER: genes 7 Torsion [N]-CA--C-[N] |==|  0.42669
USER: genes 8 Torsion [C]-N--CA-[C] |==|  0.63262
USER: genes 9 Torsion [N]-CA--C-[N] |==|  0.45826
USER: genes 10 Torsion [C]-N--CA-[C] |==|  0.63977
USER: genes 11 Torsion [N]-CA--C-[O] |==|  0.21218
USER: genes 12 Torsion [N]-CA--CB-[CG] |==|  0.89012
USER: genes 13 Torsion [CA]-CB--CG-[ND2] |==|  0.21684
USER: genes 14 Torsion [N]-CA--CB-[CG] |==|  0.25013
USER: genes 15 Torsion [CA]-CB--CG-[CD2] |==|  0.36131
USER: genes 16 Torsion [CB]-CA--N-[C] |==|  0.43333
USER: genes 17 Torsion [N]-C--CA-[CB] |==|  0.52764
USER: genes 18 Torsion [N]-C--CA-[N] |==|  0.37298
USER: genes 19 Torsion [C]-CA--N-[C] |==|  0.65049
USER: genes 20 Torsion [N]-C--CA-[N] |==|  0.57547
USER: genes 21 Torsion [C]-CA--CB-[CG] |==|  0.61810
USER: genes 22 Torsion [CA]-CB--CG-[CD1] |==|  0.23111
USER: genes 23 Torsion [CE1]-CZ--OH-[HH] |==|  0.17835
ROOT
ATOM      1  CA  LYS B   5      -7.675   3.111  -1.027  1.00 42.36 LIG 0.18  C 
ENDROOT
BRANCH 1 2
ATOM      2  CB  LYS B   5      -7.393   2.430  -2.375  1.00 43.80 LIG 0.04  C 
BRANCH 2 3
ATOM      3  CG  LYS B   5      -7.907   3.199  -3.618  1.00 49.23 LIG 0.00  C 
BRANCH 3 4
ATOM      4  CD  LYS B   5      -6.991   4.356  -4.031  1.00 48.54 LIG 0.03  C 
BRANCH 4 5
ATOM      5  CE  LYS B   5      -7.209   5.574  -3.149  1.00 43.92 LIG 0.23  C 
BRANCH 5 6
ATOM      6  NZ  LYS B   5      -8.401   6.322  -3.616  1.00 45.51 LIG-0.08  N 
ATOM      7 HZ3  LYS B   5      -8.305   6.529  -4.476  1.00 45.51 LIG 0.27  HD
ATOM      8 HZ1  LYS B   5      -9.128   5.819  -3.511  1.00 45.51 LIG 0.27  HD
ATOM      9 HZ2  LYS B   5      -8.489   7.070  -3.140  1.00 45.51 LIG 0.27  HD
ENDBRANCH 5 6
ENDBRANCH 4 5
ENDBRANCH 3 4
ENDBRANCH 2 3
ENDBRANCH 1 2
BRANCH 1 10
ATOM     10  C   LYS B   5      -8.519   2.189  -0.146  1.00 41.24 LIG 0.24  C 
ATOM     11  N   TRP B   6      -9.838   2.224  -0.341  1.00 42.23 LIG-0.35  N 
ATOM     12 H    TRP B   6     -10.234   2.754  -0.890  1.00 42.23 LIG 0.16  HD
ATOM     13 O    LYS B   5      -7.996   1.460   0.702  1.00 40.50 LIG-0.27  OA
BRANCH 11 14
ATOM     14  CA  TRP B   6     -10.726   1.329   0.395  1.00 42.54 LIG 0.18  C 
BRANCH 14 15
ATOM     15  C   TRP B   6     -11.704   0.673  -0.578  1.00 45.00 LIG 0.24  C 
ATOM     16 O    TRP B   6     -11.846   1.127  -1.722  1.00 46.85 LIG-0.27  OA
ATOM     17  N   ASN B   7     -12.371  -0.394  -0.121  1.00 47.11 LIG-0.35  N 
ATOM     18 H    ASN B   7     -12.176  -0.789   0.617  1.00 47.11 LIG 0.16  HD
BRANCH 17 19
ATOM     19  CA  ASN B   7     -13.507  -1.002  -0.835  1.00 45.24 LIG 0.17  C 
BRANCH 19 20
ATOM     20  C   ASN B   7     -14.685  -1.175   0.120  1.00 46.26 LIG 0.22  C 
ATOM     21 O    ASN B   7     -15.376  -0.204   0.443  1.00 44.70 LIG-0.29  OA
ENDBRANCH 19 20
BRANCH 19 22
ATOM     22  CB  ASN B   7     -13.152  -2.371  -1.441  1.00 46.57 LIG 0.14  C 
BRANCH 22 23
ATOM     23  CG  ASN B   7     -11.749  -2.416  -2.040  1.00 48.94 LIG 0.22  C 
ATOM     24  ND2 ASN B   7     -10.738  -2.542  -1.181  1.00 48.79 LIG-0.37  N 
ATOM     25 21HD ASN B   7      -9.928  -2.568  -1.471  1.00 48.79 LIG 0.16  HD
ATOM     26 22HD ASN B   7     -10.894  -2.597  -0.338  1.00 48.79 LIG 0.16  HD
ATOM     27 OD1  ASN B   7     -11.577  -2.333  -3.253  1.00 52.21 LIG-0.27  OA
ENDBRANCH 22 23
ENDBRANCH 19 22
ENDBRANCH 17 19
ENDBRANCH 14 15
BRANCH 14 28
ATOM     28  CB  TRP B   6     -11.493   2.059   1.502  1.00 42.47 LIG 0.07  C 
BRANCH 28 29
ATOM     29  CG  TRP B   6     -12.816   2.609   0.989  1.00 46.30 LIG-0.03  A 
ATOM     30  CD1 TRP B   6     -13.016   3.336  -0.161  1.00 49.14 LIG 0.10  A 
ATOM     31  NE1 TRP B   6     -14.353   3.633  -0.311  1.00 51.13 LIG-0.36  N 
ATOM     32 HE1  TRP B   6     -14.695   4.079  -0.961  1.00 51.13 LIG 0.17  HD
ATOM     33  CE2 TRP B   6     -15.048   3.103   0.746  1.00 47.23 LIG 0.04  A 
ATOM     34  CZ2 TRP B   6     -16.418   3.145   1.034  1.00 46.28 LIG 0.03  A 
ATOM     35  CD2 TRP B   6     -14.117   2.446   1.584  1.00 41.81 LIG-0.00  A 
ATOM     36  CH2 TRP B   6     -16.845   2.518   2.180  1.00 44.17 LIG 0.00  A 
ATOM     37  CZ3 TRP B   6     -15.950   1.868   3.033  1.00 33.54 LIG 0.00  A 
ATOM     38  CE3 TRP B   6     -14.582   1.823   2.745  1.00 38.27 LIG 0.01  A 
ENDBRANCH 28 29
ENDBRANCH 14 28
ENDBRANCH 11 14
ENDBRANCH 1 10
BRANCH 1 39
ATOM     39  N   LYS B   5      -6.425   3.456  -0.354  1.00 39.73 LIG-0.35  N 
ATOM     40  C   PRO B   4      -6.330   4.424   0.556  1.00 35.29 LIG 0.24  C 
ATOM     41 O    PRO B   4      -7.284   5.124   0.896  1.00 36.70 LIG-0.27  OA
ATOM     42 H    LYS B   5      -5.756   2.975  -0.600  1.00 39.73 LIG 0.16  HD
BRANCH 40 43
ATOM     43  CA  PRO B   4      -4.956   4.615   1.171  1.00 31.05 LIG 0.18  C 
ATOM     44  N   PRO B   4      -4.050   5.300   0.249  1.00 34.55 LIG-0.34  N 
ATOM     45  C   GLY B   3      -3.450   4.622  -0.729  1.00 37.27 LIG 0.24  C 
ATOM     46  CD  PRO B   4      -3.829   6.702   0.646  1.00 31.08 LIG 0.13  C 
ATOM     47 O    GLY B   3      -3.673   3.423  -0.921  1.00 44.84 LIG-0.27  OA
ATOM     48  CG  PRO B   4      -4.846   6.918   1.739  1.00 26.25 LIG 0.02  C 
ATOM     49  CB  PRO B   4      -5.015   5.573   2.365  1.00 27.99 LIG 0.04  C 
BRANCH 45 50
ATOM     50  CA  GLY B   3      -2.493   5.391  -1.614  1.00 35.98 LIG 0.23  C 
BRANCH 50 51
ATOM     51  N   GLY B   3      -1.265   4.658  -1.816  1.00 37.88 LIG-0.35  N 
ATOM     52  C   TYR B   2      -0.071   5.184  -1.557  1.00 38.85 LIG 0.26  C 
ATOM     53 O    TYR B   2       0.086   6.293  -1.040  1.00 37.42 LIG-0.27  OA
ATOM     54 H    GLY B   3      -1.379   3.861  -2.117  1.00 37.88 LIG 0.16  HD
BRANCH 52 55
ATOM     55  CA  TYR B   2       1.132   4.319  -1.920  1.00 47.59 LIG 0.40  C 
ATOM     56  N   TYR B   2       2.272   4.647  -1.065  1.00 42.90 LIG 0.61  N 
BRANCH 55 57
ATOM     57  CB  TYR B   2       0.764   2.838  -1.800  1.00 41.46 LIG 0.09  C 
BRANCH 57 58
ATOM     58  CG  TYR B   2       1.830   1.965  -1.142  1.00 40.04 LIG-0.06  A 
ATOM     59  CD1 TYR B   2       1.922   1.879   0.240  1.00 39.56 LIG 0.01  A 
ATOM     60  CE1 TYR B   2       2.882   1.085   0.854  1.00 39.46 LIG 0.04  A 
ATOM     61  CZ  TYR B   2       3.766   0.362   0.083  1.00 36.77 LIG 0.07  A 
ATOM     62  CE2 TYR B   2       3.698   0.428  -1.296  1.00 30.56 LIG 0.04  A 
ATOM     63  CD2 TYR B   2       2.733   1.226  -1.903  1.00 33.12 LIG 0.01  A 
BRANCH 61 64
ATOM     64 OH   TYR B   2       4.714  -0.427   0.718  1.00 37.21 LIG-0.36  OA
ATOM     65 HH   TYR B   2       4.328  -1.038   1.148  1.00 37.21 LIG 0.22  HD
ENDBRANCH 61 64
ENDBRANCH 57 58
ENDBRANCH 55 57
ENDBRANCH 52 55
ENDBRANCH 50 51
ENDBRANCH 45 50
ENDBRANCH 40 43
ENDBRANCH 1 39
TORSDOF 22
ENDMDL
MODEL 7
USER: ADFR SOLUTION from run 169
USER: SCORE 17.923647 LL:  -4.633 LR: -15.833 RR:   0.000 FEB:  -9.270
USER: RMSD 14.398430
USER: SEED 168
USER: STATUS no improvement in best in 15 clusters for 5 generations
USER: GENES 24
USER: genes 0 Translation |==|  0.35133 0.33340 0.55145
USER: genes 1 Rotation |==|  0.43000 0.99189 0.55414 0.51463
USER: genes 2 Torsion [C]-CA--CB-[CG] |==|  0.37036
USER: genes 3 Torsion [CA]-CB--CG-[CD] |==|  0.82323
USER: genes 4 Torsion [CB]-CG--CD-[CE] |==|  0.69847
USER: genes 5 Torsion [CG]-CD--CE-[NZ] |==|  0.22725
USER: genes 6 Torsion [CD]-CE--NZ-[HZ3] |==|  0.85794
USER: genes 7 Torsion [N]-CA--C-[N] |==|  0.64198
USER: genes 8 Torsion [C]-N--CA-[C] |==|  0.54510
USER: genes 9 Torsion [N]-CA--C-[N] |==|  0.42560
USER: genes 10 Torsion [C]-N--CA-[C] |==|  0.16750
USER: genes 11 Torsion [N]-CA--C-[O] |==|  0.37373
USER: genes 12 Torsion [N]-CA--CB-[CG] |==|  0.60977
USER: genes 13 Torsion [CA]-CB--CG-[ND2] |==|  0.16927
USER: genes 14 Torsion [N]-CA--CB-[CG] |==|  0.30692
USER: genes 15 Torsion [CA]-CB--CG-[CD2] |==|  0.29835
USER: genes 16 Torsion [CB]-CA--N-[C] |==|  0.87123
USER: genes 17 Torsion [N]-C--CA-[CB] |==|  0.27157
USER: genes 18 Torsion [N]-C--CA-[N] |==|  0.31558
USER: genes 19 Torsion [C]-CA--N-[C] |==|  0.22358
USER: genes 20 Torsion [N]-C--CA-[N] |==|  0.88725
USER: genes 21 Torsion [C]-CA--CB-[CG] |==|  0.86902
USER: genes 22 Torsion [CA]-CB--CG-[CD1] |==|  0.28761
USER: genes 23 Torsion [CE1]-CZ--OH-[HH] |==|  0.05837
ROOT
ATOM      1  CA  LYS B   5      -8.010   1.575  -1.123  1.00 42.36 LIG 0.18  C 
ENDROOT
BRANCH 1 2
ATOM      2  CB  LYS B   5      -7.878   1.473   0.405  1.00 43.80 LIG 0.04  C 
BRANCH 2 3
ATOM      3  CG  LYS B   5      -7.075   0.251   0.914  1.00 49.23 LIG 0.00  C 
BRANCH 3 4
ATOM      4  CD  LYS B   5      -7.732  -1.089   0.568  1.00 48.54 LIG 0.03  C 
BRANCH 4 5
ATOM      5  CE  LYS B   5      -8.312  -1.755   1.804  1.00 43.92 LIG 0.23  C 
BRANCH 5 6
ATOM      6  NZ  LYS B   5      -9.644  -1.176   2.106  1.00 45.51 LIG-0.08  N 
ATOM      7 HZ3  LYS B   5      -9.584  -0.287   2.127  1.00 45.51 LIG 0.27  HD
ATOM      8 HZ1  LYS B   5     -10.223  -1.419   1.477  1.00 45.51 LIG 0.27  HD
ATOM      9 HZ2  LYS B   5      -9.924  -1.472   2.897  1.00 45.51 LIG 0.27  HD
ENDBRANCH 5 6
ENDBRANCH 4 5
ENDBRANCH 3 4
ENDBRANCH 2 3
ENDBRANCH 1 2
BRANCH 1 10
ATOM     10  C   LYS B   5      -9.461   1.876  -1.500  1.00 41.24 LIG 0.24  C 
ATOM     11  N   TRP B   6     -10.350   1.859  -0.506  1.00 42.23 LIG-0.35  N 
ATOM     12 H    TRP B   6     -10.164   1.651   0.308  1.00 42.23 LIG 0.16  HD
ATOM     13 O    LYS B   5      -9.782   2.113  -2.668  1.00 40.50 LIG-0.27  OA
BRANCH 11 14
ATOM     14  CA  TRP B   6     -11.747   2.206  -0.747  1.00 42.54 LIG 0.18  C 
BRANCH 14 15
ATOM     15  C   TRP B   6     -12.434   2.496   0.587  1.00 45.00 LIG 0.24  C 
ATOM     16 O    TRP B   6     -12.017   1.976   1.631  1.00 46.85 LIG-0.27  OA
ATOM     17  N   ASN B   7     -13.482   3.328   0.546  1.00 47.11 LIG-0.35  N 
ATOM     18 H    ASN B   7     -13.687   3.793  -0.148  1.00 47.11 LIG 0.16  HD
BRANCH 17 19
ATOM     19  CA  ASN B   7     -14.392   3.535   1.686  1.00 45.24 LIG 0.17  C 
BRANCH 19 20
ATOM     20  C   ASN B   7     -13.611   4.075   2.881  1.00 46.26 LIG 0.22  C 
ATOM     21 O    ASN B   7     -14.050   5.022   3.540  1.00 44.70 LIG-0.29  OA
ENDBRANCH 19 20
BRANCH 19 22
ATOM     22  CB  ASN B   7     -15.109   2.240   2.104  1.00 46.57 LIG 0.14  C 
BRANCH 22 23
ATOM     23  CG  ASN B   7     -16.570   2.459   2.485  1.00 48.94 LIG 0.22  C 
ATOM     24  ND2 ASN B   7     -17.368   2.949   1.536  1.00 48.79 LIG-0.37  N 
ATOM     25 21HD ASN B   7     -18.198   3.094   1.705  1.00 48.79 LIG 0.16  HD
ATOM     26 22HD ASN B   7     -17.052   3.120   0.755  1.00 48.79 LIG 0.16  HD
ATOM     27 OD1  ASN B   7     -16.974   2.199   3.615  1.00 52.21 LIG-0.27  OA
ENDBRANCH 22 23
ENDBRANCH 19 22
ENDBRANCH 17 19
ENDBRANCH 14 15
BRANCH 14 28
ATOM     28  CB  TRP B   6     -12.496   1.099  -1.496  1.00 42.47 LIG 0.07  C 
BRANCH 28 29
ATOM     29  CG  TRP B   6     -13.518   0.416  -0.598  1.00 46.30 LIG-0.03  A 
ATOM     30  CD1 TRP B   6     -13.256  -0.424   0.458  1.00 49.14 LIG 0.10  A 
ATOM     31  NE1 TRP B   6     -14.433  -0.824   1.053  1.00 51.13 LIG-0.36  N 
ATOM     32 HE1  TRP B   6     -14.496  -1.350   1.730  1.00 51.13 LIG 0.17  HD
ATOM     33  CE2 TRP B   6     -15.485  -0.249   0.388  1.00 47.23 LIG 0.04  A 
ATOM     34  CZ2 TRP B   6     -16.862  -0.357   0.617  1.00 46.28 LIG 0.03  A 
ATOM     35  CD2 TRP B   6     -14.951   0.543  -0.655  1.00 41.81 LIG-0.00  A 
ATOM     36  CH2 TRP B   6     -17.703   0.341  -0.217  1.00 44.17 LIG 0.00  A 
ATOM     37  CZ3 TRP B   6     -17.207   1.126  -1.261  1.00 33.54 LIG 0.00  A 
ATOM     38  CE3 TRP B   6     -15.831   1.237  -1.490  1.00 38.27 LIG 0.01  A 
ENDBRANCH 28 29
ENDBRANCH 14 28
ENDBRANCH 11 14
ENDBRANCH 1 10
BRANCH 1 39
ATOM     39  N   LYS B   5      -7.122   2.609  -1.648  1.00 39.73 LIG-0.35  N 
ATOM     40  C   PRO B   4      -7.017   3.823  -1.110  1.00 35.29 LIG 0.24  C 
ATOM     41 O    PRO B   4      -7.674   4.185  -0.134  1.00 36.70 LIG-0.27  OA
ATOM     42 H    LYS B   5      -6.672   2.360  -2.337  1.00 39.73 LIG 0.16  HD
BRANCH 40 43
ATOM     43  CA  PRO B   4      -6.017   4.752  -1.774  1.00 31.05 LIG 0.18  C 
ATOM     44  N   PRO B   4      -5.093   4.012  -2.633  1.00 34.55 LIG-0.34  N 
ATOM     45  C   GLY B   3      -4.051   3.370  -2.104  1.00 37.27 LIG 0.24  C 
ATOM     46  CD  PRO B   4      -5.405   4.207  -4.061  1.00 31.08 LIG 0.13  C 
ATOM     47 O    GLY B   3      -3.862   3.333  -0.884  1.00 44.84 LIG-0.27  OA
ATOM     48  CG  PRO B   4      -6.732   4.922  -4.031  1.00 26.25 LIG 0.02  C 
ATOM     49  CB  PRO B   4      -6.712   5.700  -2.756  1.00 27.99 LIG 0.04  C 
BRANCH 45 50
ATOM     50  CA  GLY B   3      -3.116   2.666  -3.062  1.00 35.98 LIG 0.23  C 
BRANCH 50 51
ATOM     51  N   GLY B   3      -1.811   3.286  -3.069  1.00 37.88 LIG-0.35  N 
ATOM     52  C   TYR B   2      -0.901   3.038  -2.131  1.00 38.85 LIG 0.26  C 
ATOM     53 O    TYR B   2      -1.053   2.199  -1.241  1.00 37.42 LIG-0.27  OA
ATOM     54 H    GLY B   3      -1.682   3.823  -3.728  1.00 37.88 LIG 0.16  HD
BRANCH 52 55
ATOM     55  CA  TYR B   2       0.388   3.848  -2.223  1.00 47.59 LIG 0.40  C 
ATOM     56  N   TYR B   2       0.814   3.971  -3.617  1.00 42.90 LIG 0.61  N 
BRANCH 55 57
ATOM     57  CB  TYR B   2       0.185   5.227  -1.588  1.00 41.46 LIG 0.09  C 
BRANCH 57 58
ATOM     58  CG  TYR B   2      -1.089   5.948  -2.019  1.00 40.04 LIG-0.06  A 
ATOM     59  CD1 TYR B   2      -2.190   6.010  -1.176  1.00 39.56 LIG 0.01  A 
ATOM     60  CE1 TYR B   2      -3.354   6.667  -1.551  1.00 39.46 LIG 0.04  A 
ATOM     61  CZ  TYR B   2      -3.429   7.276  -2.784  1.00 36.77 LIG 0.07  A 
ATOM     62  CE2 TYR B   2      -2.348   7.231  -3.646  1.00 30.56 LIG 0.04  A 
ATOM     63  CD2 TYR B   2      -1.186   6.570  -3.262  1.00 33.12 LIG 0.01  A 
BRANCH 61 64
ATOM     64 OH   TYR B   2      -4.600   7.930  -3.136  1.00 37.21 LIG-0.36  OA
ATOM     65 HH   TYR B   2      -5.034   8.121  -2.442  1.00 37.21 LIG 0.22  HD
ENDBRANCH 61 64
ENDBRANCH 57 58
ENDBRANCH 55 57
ENDBRANCH 52 55
ENDBRANCH 50 51
ENDBRANCH 45 50
ENDBRANCH 40 43
ENDBRANCH 1 39
TORSDOF 22
ENDMDL
MODEL 8
USER: ADFR SOLUTION from run 27
USER: SCORE 17.888211 LL:  -3.481 LR: -15.802 RR:   0.000 FEB:  -9.239
USER: RMSD 11.245544
USER: SEED 26
USER: STATUS no improvement in best in 7 clusters for 5 generations
USER: GENES 24
USER: genes 0 Translation |==|  0.39103 0.65913 0.40728
USER: genes 1 Rotation |==|  0.29220 0.68769 0.13591 0.69757
USER: genes 2 Torsion [C]-CA--CB-[CG] |==|  0.40719
USER: genes 3 Torsion [CA]-CB--CG-[CD] |==|  0.39010
USER: genes 4 Torsion [CB]-CG--CD-[CE] |==|  0.48481
USER: genes 5 Torsion [CG]-CD--CE-[NZ] |==|  0.86483
USER: genes 6 Torsion [CD]-CE--NZ-[HZ3] |==|  0.22525
USER: genes 7 Torsion [N]-CA--C-[N] |==|  0.28243
USER: genes 8 Torsion [C]-N--CA-[C] |==|  0.63582
USER: genes 9 Torsion [N]-CA--C-[N] |==|  0.47681
USER: genes 10 Torsion [C]-N--CA-[C] |==|  0.58688
USER: genes 11 Torsion [N]-CA--C-[O] |==|  0.27099
USER: genes 12 Torsion [N]-CA--CB-[CG] |==|  0.29890
USER: genes 13 Torsion [CA]-CB--CG-[ND2] |==|  0.25119
USER: genes 14 Torsion [N]-CA--CB-[CG] |==|  0.11606
USER: genes 15 Torsion [CA]-CB--CG-[CD2] |==|  0.17225
USER: genes 16 Torsion [CB]-CA--N-[C] |==|  0.48979
USER: genes 17 Torsion [N]-C--CA-[CB] |==|  0.99680
USER: genes 18 Torsion [N]-C--CA-[N] |==|  0.44800
USER: genes 19 Torsion [C]-CA--N-[C] |==|  0.27720
USER: genes 20 Torsion [N]-C--CA-[N] |==|  0.05497
USER: genes 21 Torsion [C]-CA--CB-[CG] |==|  0.49753
USER: genes 22 Torsion [CA]-CB--CG-[CD1] |==|  0.19574
USER: genes 23 Torsion [CE1]-CZ--OH-[HH] |==|  0.26715
ROOT
ATOM      1  CA  LYS B   5      -6.819   7.927  -3.609  1.00 42.36 LIG 0.18  C 
ENDROOT
BRANCH 1 2
ATOM      2  CB  LYS B   5      -8.052   8.390  -4.401  1.00 43.80 LIG 0.04  C 
BRANCH 2 3
ATOM      3  CG  LYS B   5      -8.705   9.699  -3.893  1.00 49.23 LIG 0.00  C 
BRANCH 3 4
ATOM      4  CD  LYS B   5      -9.177  10.616  -5.026  1.00 48.54 LIG 0.03  C 
BRANCH 4 5
ATOM      5  CE  LYS B   5      -9.928  11.820  -4.485  1.00 43.92 LIG 0.23  C 
BRANCH 5 6
ATOM      6  NZ  LYS B   5     -10.947  11.376  -3.504  1.00 45.51 LIG-0.08  N 
ATOM      7 HZ3  LYS B   5     -10.559  11.235  -2.715  1.00 45.51 LIG 0.27  HD
ATOM      8 HZ1  LYS B   5     -11.572  12.004  -3.419  1.00 45.51 LIG 0.27  HD
ATOM      9 HZ2  LYS B   5     -11.323  10.621  -3.787  1.00 45.51 LIG 0.27  HD
ENDBRANCH 5 6
ENDBRANCH 4 5
ENDBRANCH 3 4
ENDBRANCH 2 3
ENDBRANCH 1 2
BRANCH 1 10
ATOM     10  C   LYS B   5      -6.761   6.399  -3.584  1.00 41.24 LIG 0.24  C 
ATOM     11  N   TRP B   6      -6.467   5.835  -2.411  1.00 42.23 LIG-0.35  N 
ATOM     12 H    TRP B   6      -6.271   6.272  -1.697  1.00 42.23 LIG 0.16  HD
ATOM     13 O    LYS B   5      -6.971   5.734  -4.602  1.00 40.50 LIG-0.27  OA
BRANCH 11 14
ATOM     14  CA  TRP B   6      -6.461   4.383  -2.262  1.00 42.54 LIG 0.18  C 
BRANCH 14 15
ATOM     15  C   TRP B   6      -7.268   3.998  -1.024  1.00 45.00 LIG 0.24  C 
ATOM     16 O    TRP B   6      -7.674   4.872  -0.245  1.00 46.85 LIG-0.27  OA
ATOM     17  N   ASN B   7      -7.500   2.691  -0.848  1.00 47.11 LIG-0.35  N 
ATOM     18 H    ASN B   7      -7.339   2.100  -1.452  1.00 47.11 LIG 0.16  HD
BRANCH 17 19
ATOM     19  CA  ASN B   7      -8.055   2.130   0.395  1.00 45.24 LIG 0.17  C 
BRANCH 19 20
ATOM     20  C   ASN B   7      -7.512   0.720   0.615  1.00 46.26 LIG 0.22  C 
ATOM     21 O    ASN B   7      -6.550   0.530   1.365  1.00 44.70 LIG-0.29  OA
ENDBRANCH 19 20
BRANCH 19 22
ATOM     22  CB  ASN B   7      -9.593   2.073   0.376  1.00 46.57 LIG 0.14  C 
BRANCH 22 23
ATOM     23  CG  ASN B   7     -10.139   0.656   0.228  1.00 48.94 LIG 0.22  C 
ATOM     24  ND2 ASN B   7     -10.371  -0.014   1.356  1.00 48.79 LIG-0.37  N 
ATOM     25 21HD ASN B   7     -10.675  -0.818   1.324  1.00 48.79 LIG 0.16  HD
ATOM     26 22HD ASN B   7     -10.217   0.356   2.116  1.00 48.79 LIG 0.16  HD
ATOM     27 OD1  ASN B   7     -10.343   0.171  -0.881  1.00 52.21 LIG-0.27  OA
ENDBRANCH 22 23
ENDBRANCH 19 22
ENDBRANCH 17 19
ENDBRANCH 14 15
BRANCH 14 28
ATOM     28  CB  TRP B   6      -5.040   3.819  -2.162  1.00 42.47 LIG 0.07  C 
BRANCH 28 29
ATOM     29  CG  TRP B   6      -4.160   4.689  -1.276  1.00 46.30 LIG-0.03  A 
ATOM     30  CD1 TRP B   6      -3.043   5.393  -1.660  1.00 49.14 LIG 0.10  A 
ATOM     31  NE1 TRP B   6      -2.526   6.089  -0.590  1.00 51.13 LIG-0.36  N 
ATOM     32 HE1  TRP B   6      -1.830   6.593  -0.612  1.00 51.13 LIG 0.17  HD
ATOM     33  CE2 TRP B   6      -3.301   5.847   0.515  1.00 47.23 LIG 0.04  A 
ATOM     34  CZ2 TRP B   6      -3.175   6.324   1.825  1.00 46.28 LIG 0.03  A 
ATOM     35  CD2 TRP B   6      -4.343   4.974   0.123  1.00 41.81 LIG-0.00  A 
ATOM     36  CH2 TRP B   6      -4.110   5.912   2.744  1.00 44.17 LIG 0.00  A 
ATOM     37  CZ3 TRP B   6      -5.147   5.044   2.392  1.00 33.54 LIG 0.00  A 
ATOM     38  CE3 TRP B   6      -5.275   4.568   1.082  1.00 38.27 LIG 0.01  A 
ENDBRANCH 28 29
ENDBRANCH 14 28
ENDBRANCH 11 14
ENDBRANCH 1 10
BRANCH 1 39
ATOM     39  N   LYS B   5      -5.597   8.474  -4.193  1.00 39.73 LIG-0.35  N 
ATOM     40  C   PRO B   4      -4.389   8.290  -3.663  1.00 35.29 LIG 0.24  C 
ATOM     41 O    PRO B   4      -4.200   7.657  -2.625  1.00 36.70 LIG-0.27  OA
ATOM     42 H    LYS B   5      -5.731   8.926  -4.912  1.00 39.73 LIG 0.16  HD
BRANCH 40 43
ATOM     43  CA  PRO B   4      -3.234   8.907  -4.430  1.00 31.05 LIG 0.18  C 
ATOM     44  N   PRO B   4      -2.332   7.880  -4.951  1.00 34.55 LIG-0.34  N 
ATOM     45  C   GLY B   3      -1.422   7.318  -4.155  1.00 37.27 LIG 0.24  C 
ATOM     46  CD  PRO B   4      -2.495   7.700  -6.405  1.00 31.08 LIG 0.13  C 
ATOM     47 O    GLY B   3      -1.344   7.603  -2.955  1.00 44.84 LIG-0.27  OA
ATOM     48  CG  PRO B   4      -3.728   8.511  -6.718  1.00 26.25 LIG 0.02  C 
ATOM     49  CB  PRO B   4      -3.726   9.605  -5.702  1.00 27.99 LIG 0.04  C 
BRANCH 45 50
ATOM     50  CA  GLY B   3      -0.497   6.297  -4.778  1.00 35.98 LIG 0.23  C 
BRANCH 50 51
ATOM     51  N   GLY B   3       0.681   6.096  -3.967  1.00 37.88 LIG-0.35  N 
ATOM     52  C   TYR B   2       0.808   5.061  -3.141  1.00 38.85 LIG 0.26  C 
ATOM     53 O    TYR B   2      -0.015   4.146  -3.065  1.00 37.42 LIG-0.27  OA
ATOM     54 H    GLY B   3       1.284   6.701  -4.068  1.00 37.88 LIG 0.16  HD
BRANCH 52 55
ATOM     55  CA  TYR B   2       2.067   5.046  -2.279  1.00 47.59 LIG 0.40  C 
ATOM     56  N   TYR B   2       2.645   6.388  -2.198  1.00 42.90 LIG 0.61  N 
BRANCH 55 57
ATOM     57  CB  TYR B   2       1.739   4.505  -0.885  1.00 41.46 LIG 0.09  C 
BRANCH 57 58
ATOM     58  CG  TYR B   2       2.930   4.422   0.066  1.00 40.04 LIG-0.06  A 
ATOM     59  CD1 TYR B   2       3.511   5.574   0.579  1.00 39.56 LIG 0.01  A 
ATOM     60  CE1 TYR B   2       4.591   5.515   1.449  1.00 39.46 LIG 0.04  A 
ATOM     61  CZ  TYR B   2       5.105   4.292   1.820  1.00 36.77 LIG 0.07  A 
ATOM     62  CE2 TYR B   2       4.547   3.127   1.325  1.00 30.56 LIG 0.04  A 
ATOM     63  CD2 TYR B   2       3.466   3.195   0.453  1.00 33.12 LIG 0.01  A 
BRANCH 61 64
ATOM     64 OH   TYR B   2       6.182   4.257   2.693  1.00 37.21 LIG-0.36  OA
ATOM     65 HH   TYR B   2       5.903   4.141   3.477  1.00 37.21 LIG 0.22  HD
ENDBRANCH 61 64
ENDBRANCH 57 58
ENDBRANCH 55 57
ENDBRANCH 52 55
ENDBRANCH 50 51
ENDBRANCH 45 50
ENDBRANCH 40 43
ENDBRANCH 1 39
TORSDOF 22
ENDMDL
MODEL 9
USER: ADFR SOLUTION from run 150
USER: SCORE 17.716431 LL:  -3.137 LR: -15.796 RR:   0.000 FEB:  -9.233
USER: RMSD 12.698604
USER: SEED 149
USER: STATUS searching
USER: GENES 24
USER: genes 0 Translation |==|  0.40112 0.43898 0.64266
USER: genes 1 Rotation |==|  0.73359 0.13362 0.74489 0.53509
USER: genes 2 Torsion [C]-CA--CB-[CG] |==|  0.38638
USER: genes 3 Torsion [CA]-CB--CG-[CD] |==|  0.94030
USER: genes 4 Torsion [CB]-CG--CD-[CE] |==|  0.40572
USER: genes 5 Torsion [CG]-CD--CE-[NZ] |==|  0.84710
USER: genes 6 Torsion [CD]-CE--NZ-[HZ3] |==|  0.94364
USER: genes 7 Torsion [N]-CA--C-[N] |==|  0.83581
USER: genes 8 Torsion [C]-N--CA-[C] |==|  0.80988
USER: genes 9 Torsion [N]-CA--C-[N] |==|  0.38979
USER: genes 10 Torsion [C]-N--CA-[C] |==|  0.70677
USER: genes 11 Torsion [N]-CA--C-[O] |==|  0.96147
USER: genes 12 Torsion [N]-CA--CB-[CG] |==|  0.95930
USER: genes 13 Torsion [CA]-CB--CG-[ND2] |==|  0.19191
USER: genes 14 Torsion [N]-CA--CB-[CG] |==|  0.60295
USER: genes 15 Torsion [CA]-CB--CG-[CD2] |==|  0.27660
USER: genes 16 Torsion [CB]-CA--N-[C] |==|  0.23017
USER: genes 17 Torsion [N]-C--CA-[CB] |==|  0.45599
USER: genes 18 Torsion [N]-C--CA-[N] |==|  0.89278
USER: genes 19 Torsion [C]-CA--N-[C] |==|  0.35701
USER: genes 20 Torsion [N]-C--CA-[N] |==|  0.17363
USER: genes 21 Torsion [C]-CA--CB-[CG] |==|  0.40544
USER: genes 22 Torsion [CA]-CB--CG-[CD1] |==|  0.94459
USER: genes 23 Torsion [CE1]-CZ--OH-[HH] |==|  0.98592
ROOT
ATOM      1  CA  LYS B   5      -6.516   3.634   0.451  1.00 42.36 LIG 0.18  C 
ENDROOT
BRANCH 1 2
ATOM      2  CB  LYS B   5      -7.058   4.974   0.973  1.00 43.80 LIG 0.04  C 
BRANCH 2 3
ATOM      3  CG  LYS B   5      -6.048   5.816   1.791  1.00 49.23 LIG 0.00  C 
BRANCH 3 4
ATOM      4  CD  LYS B   5      -4.903   4.982   2.376  1.00 48.54 LIG 0.03  C 
BRANCH 4 5
ATOM      5  CE  LYS B   5      -3.608   5.775   2.416  1.00 43.92 LIG 0.23  C 
BRANCH 5 6
ATOM      6  NZ  LYS B   5      -3.295   6.291   1.062  1.00 45.51 LIG-0.08  N 
ATOM      7 HZ3  LYS B   5      -3.735   5.814   0.452  1.00 45.51 LIG 0.27  HD
ATOM      8 HZ1  LYS B   5      -3.541   7.144   1.004  1.00 45.51 LIG 0.27  HD
ATOM      9 HZ2  LYS B   5      -2.420   6.225   0.913  1.00 45.51 LIG 0.27  HD
ENDBRANCH 5 6
ENDBRANCH 4 5
ENDBRANCH 3 4
ENDBRANCH 2 3
ENDBRANCH 1 2
BRANCH 1 10
ATOM     10  C   LYS B   5      -7.582   2.548   0.603  1.00 41.24 LIG 0.24  C 
ATOM     11  N   TRP B   6      -8.705   2.716  -0.097  1.00 42.23 LIG-0.35  N 
ATOM     12 H    TRP B   6      -8.877   3.404  -0.583  1.00 42.23 LIG 0.16  HD
ATOM     13 O    LYS B   5      -7.404   1.576   1.342  1.00 40.50 LIG-0.27  OA
BRANCH 11 14
ATOM     14  CA  TRP B   6      -9.754   1.700  -0.081  1.00 42.54 LIG 0.18  C 
BRANCH 14 15
ATOM     15  C   TRP B   6      -9.258   0.449  -0.803  1.00 45.00 LIG 0.24  C 
ATOM     16 O    TRP B   6      -8.577   0.549  -1.833  1.00 46.85 LIG-0.27  OA
ATOM     17  N   ASN B   7      -9.599  -0.726  -0.259  1.00 47.11 LIG-0.35  N 
ATOM     18 H    ASN B   7      -9.952  -0.797   0.522  1.00 47.11 LIG 0.16  HD
BRANCH 17 19
ATOM     19  CA  ASN B   7      -9.405  -2.018  -0.940  1.00 45.24 LIG 0.17  C 
BRANCH 19 20
ATOM     20  C   ASN B   7     -10.749  -2.548  -1.435  1.00 46.26 LIG 0.22  C 
ATOM     21 O    ASN B   7     -11.805  -2.053  -1.030  1.00 44.70 LIG-0.29  OA
ENDBRANCH 19 20
BRANCH 19 22
ATOM     22  CB  ASN B   7      -8.762  -3.072  -0.022  1.00 46.57 LIG 0.14  C 
BRANCH 22 23
ATOM     23  CG  ASN B   7      -8.149  -2.473   1.240  1.00 48.94 LIG 0.22  C 
ATOM     24  ND2 ASN B   7      -9.000  -1.980   2.140  1.00 48.79 LIG-0.37  N 
ATOM     25 21HD ASN B   7      -8.701  -1.629   2.867  1.00 48.79 LIG 0.16  HD
ATOM     26 22HD ASN B   7      -9.846  -2.013   1.995  1.00 48.79 LIG 0.16  HD
ATOM     27 OD1  ASN B   7      -6.932  -2.450   1.402  1.00 52.21 LIG-0.27  OA
ENDBRANCH 22 23
ENDBRANCH 19 22
ENDBRANCH 17 19
ENDBRANCH 14 15
BRANCH 14 28
ATOM     28  CB  TRP B   6     -11.052   2.200  -0.723  1.00 42.47 LIG 0.07  C 
BRANCH 28 29
ATOM     29  CG  TRP B   6     -12.274   1.667   0.012  1.00 46.30 LIG-0.03  A 
ATOM     30  CD1 TRP B   6     -12.818   0.409  -0.099  1.00 49.14 LIG 0.10  A 
ATOM     31  NE1 TRP B   6     -13.901   0.281   0.742  1.00 51.13 LIG-0.36  N 
ATOM     32 HE1  TRP B   6     -14.386  -0.423   0.829  1.00 51.13 LIG 0.17  HD
ATOM     33  CE2 TRP B   6     -14.081   1.462   1.417  1.00 47.23 LIG 0.04  A 
ATOM     34  CZ2 TRP B   6     -15.044   1.816   2.370  1.00 46.28 LIG 0.03  A 
ATOM     35  CD2 TRP B   6     -13.074   2.357   0.989  1.00 41.81 LIG-0.00  A 
ATOM     36  CH2 TRP B   6     -14.986   3.087   2.890  1.00 44.17 LIG 0.00  A 
ATOM     37  CZ3 TRP B   6     -14.009   3.998   2.482  1.00 33.54 LIG 0.00  A 
ATOM     38  CE3 TRP B   6     -13.045   3.645   1.532  1.00 38.27 LIG 0.01  A 
ENDBRANCH 28 29
ENDBRANCH 14 28
ENDBRANCH 11 14
ENDBRANCH 1 10
BRANCH 1 39
ATOM     39  N   LYS B   5      -6.105   3.754  -0.946  1.00 39.73 LIG-0.35  N 
ATOM     40  C   PRO B   4      -4.919   4.232  -1.318  1.00 35.29 LIG 0.24  C 
ATOM     41 O    PRO B   4      -4.073   4.631  -0.518  1.00 36.70 LIG-0.27  OA
ATOM     42 H    LYS B   5      -6.701   3.486  -1.505  1.00 39.73 LIG 0.16  HD
BRANCH 40 43
ATOM     43  CA  PRO B   4      -4.658   4.249  -2.813  1.00 31.05 LIG 0.18  C 
ATOM     44  N   PRO B   4      -5.763   4.873  -3.540  1.00 34.55 LIG-0.34  N 
ATOM     45  C   GLY B   3      -6.870   4.179  -3.804  1.00 37.27 LIG 0.24  C 
ATOM     46  CD  PRO B   4      -5.410   6.225  -4.009  1.00 31.08 LIG 0.13  C 
ATOM     47 O    GLY B   3      -7.021   3.020  -3.406  1.00 44.84 LIG-0.27  OA
ATOM     48  CG  PRO B   4      -4.097   6.499  -3.319  1.00 26.25 LIG 0.02  C 
ATOM     49  CB  PRO B   4      -3.471   5.154  -3.155  1.00 27.99 LIG 0.04  C 
BRANCH 45 50
ATOM     50  CA  GLY B   3      -7.950   4.880  -4.599  1.00 35.98 LIG 0.23  C 
BRANCH 50 51
ATOM     51  N   GLY B   3      -8.070   6.265  -4.208  1.00 37.88 LIG-0.35  N 
ATOM     52  C   TYR B   2      -8.050   7.259  -5.092  1.00 38.85 LIG 0.26  C 
ATOM     53 O    TYR B   2      -8.021   7.083  -6.312  1.00 37.42 LIG-0.27  OA
ATOM     54 H    GLY B   3      -8.155   6.384  -3.361  1.00 37.88 LIG 0.16  HD
BRANCH 52 55
ATOM     55  CA  TYR B   2      -8.085   8.669  -4.511  1.00 47.59 LIG 0.40  C 
ATOM     56  N   TYR B   2      -6.900   8.912  -3.690  1.00 42.90 LIG 0.61  N 
BRANCH 55 57
ATOM     57  CB  TYR B   2      -8.188   9.696  -5.642  1.00 41.46 LIG 0.09  C 
BRANCH 57 58
ATOM     58  CG  TYR B   2      -9.005  10.941  -5.304  1.00 40.04 LIG-0.06  A 
ATOM     59  CD1 TYR B   2      -9.916  10.928  -4.257  1.00 39.56 LIG 0.01  A 
ATOM     60  CE1 TYR B   2     -10.663  12.054  -3.934  1.00 39.46 LIG 0.04  A 
ATOM     61  CZ  TYR B   2     -10.504  13.213  -4.661  1.00 36.77 LIG 0.07  A 
ATOM     62  CE2 TYR B   2      -9.604  13.254  -5.710  1.00 30.56 LIG 0.04  A 
ATOM     63  CD2 TYR B   2      -8.860  12.123  -6.027  1.00 33.12 LIG 0.01  A 
BRANCH 61 64
ATOM     64 OH   TYR B   2     -11.257  14.325  -4.317  1.00 37.21 LIG-0.36  OA
ATOM     65 HH   TYR B   2     -11.800  14.119  -3.709  1.00 37.21 LIG 0.22  HD
ENDBRANCH 61 64
ENDBRANCH 57 58
ENDBRANCH 55 57
ENDBRANCH 52 55
ENDBRANCH 50 51
ENDBRANCH 45 50
ENDBRANCH 40 43
ENDBRANCH 1 39
TORSDOF 22
ENDMDL
MODEL 10
USER: ADFR SOLUTION from run 8
USER: SCORE 18.365935 LL:  -3.282 LR: -15.658 RR:   0.000 FEB:  -9.095
USER: RMSD 6.621949
USER: SEED 993636
USER: STATUS searching
USER: GENES 24
USER: genes 0 Translation |==|  0.41721 0.50572 0.40548
USER: genes 1 Rotation |==|  0.91781 0.48165 0.69894 0.68847
USER: genes 2 Torsion [C]-CA--CB-[CG] |==|  0.41038
USER: genes 3 Torsion [CA]-CB--CG-[CD] |==|  0.77218
USER: genes 4 Torsion [CB]-CG--CD-[CE] |==|  0.55941
USER: genes 5 Torsion [CG]-CD--CE-[NZ] |==|  0.20705
USER: genes 6 Torsion [CD]-CE--NZ-[HZ3] |==|  0.36691
USER: genes 7 Torsion [N]-CA--C-[N] |==|  0.37038
USER: genes 8 Torsion [C]-N--CA-[C] |==|  0.77720
USER: genes 9 Torsion [N]-CA--C-[N] |==|  0.17368
USER: genes 10 Torsion [C]-N--CA-[C] |==|  0.84356
USER: genes 11 Torsion [N]-CA--C-[O] |==|  0.91933
USER: genes 12 Torsion [N]-CA--CB-[CG] |==|  0.01588
USER: genes 13 Torsion [CA]-CB--CG-[ND2] |==|  0.75891
USER: genes 14 Torsion [N]-CA--CB-[CG] |==|  0.64320
USER: genes 15 Torsion [CA]-CB--CG-[CD2] |==|  0.54977
USER: genes 16 Torsion [CB]-CA--N-[C] |==|  0.85423
USER: genes 17 Torsion [N]-C--CA-[CB] |==|  0.93284
USER: genes 18 Torsion [N]-C--CA-[N] |==|  0.60407
USER: genes 19 Torsion [C]-CA--N-[C] |==|  0.70386
USER: genes 20 Torsion [N]-C--CA-[N] |==|  0.81459
USER: genes 21 Torsion [C]-CA--CB-[CG] |==|  0.63131
USER: genes 22 Torsion [CA]-CB--CG-[CD1] |==|  0.70204
USER: genes 23 Torsion [CE1]-CZ--OH-[HH] |==|  0.33478
ROOT
ATOM      1  CA  LYS B   5      -6.034   4.935  -3.640  1.00 42.36 LIG 0.18  C 
ENDROOT
BRANCH 1 2
ATOM      2  CB  LYS B   5      -7.218   5.745  -3.092  1.00 43.80 LIG 0.04  C 
BRANCH 2 3
ATOM      3  CG  LYS B   5      -7.790   6.810  -4.060  1.00 49.23 LIG 0.00  C 
BRANCH 3 4
ATOM      4  CD  LYS B   5      -6.993   8.119  -4.054  1.00 48.54 LIG 0.03  C 
BRANCH 4 5
ATOM      5  CE  LYS B   5      -7.829   9.277  -4.572  1.00 43.92 LIG 0.23  C 
BRANCH 5 6
ATOM      6  NZ  LYS B   5      -8.818   9.680  -3.543  1.00 45.51 LIG-0.08  N 
ATOM      7 HZ3  LYS B   5      -8.799  10.565  -3.444  1.00 45.51 LIG 0.27  HD
ATOM      8 HZ1  LYS B   5      -9.632   9.428  -3.798  1.00 45.51 LIG 0.27  HD
ATOM      9 HZ2  LYS B   5      -8.617   9.291  -2.769  1.00 45.51 LIG 0.27  HD
ENDBRANCH 5 6
ENDBRANCH 4 5
ENDBRANCH 3 4
ENDBRANCH 2 3
ENDBRANCH 1 2
BRANCH 1 10
ATOM     10  C   LYS B   5      -5.089   4.559  -2.499  1.00 41.24 LIG 0.24  C 
ATOM     11  N   TRP B   6      -3.952   5.252  -2.415  1.00 42.23 LIG-0.35  N 
ATOM     12 H    TRP B   6      -3.708   5.855  -2.977  1.00 42.23 LIG 0.16  HD
ATOM     13 O    LYS B   5      -5.370   3.654  -1.708  1.00 40.50 LIG-0.27  OA
BRANCH 11 14
ATOM     14  CA  TRP B   6      -3.016   5.022  -1.318  1.00 42.54 LIG 0.18  C 
BRANCH 14 15
ATOM     15  C   TRP B   6      -3.503   5.762  -0.073  1.00 45.00 LIG 0.24  C 
ATOM     16 O    TRP B   6      -2.819   6.666   0.425  1.00 46.85 LIG-0.27  OA
ATOM     17  N   ASN B   7      -4.686   5.376   0.422  1.00 47.11 LIG-0.35  N 
ATOM     18 H    ASN B   7      -5.221   4.848   0.004  1.00 47.11 LIG 0.16  HD
BRANCH 17 19
ATOM     19  CA  ASN B   7      -5.194   5.816   1.733  1.00 45.24 LIG 0.17  C 
BRANCH 19 20
ATOM     20  C   ASN B   7      -4.187   5.459   2.824  1.00 46.26 LIG 0.22  C 
ATOM     21 O    ASN B   7      -3.444   4.482   2.694  1.00 44.70 LIG-0.29  OA
ENDBRANCH 19 20
BRANCH 19 22
ATOM     22  CB  ASN B   7      -6.550   5.178   2.079  1.00 46.57 LIG 0.14  C 
BRANCH 22 23
ATOM     23  CG  ASN B   7      -6.998   4.133   1.061  1.00 48.94 LIG 0.22  C 
ATOM     24  ND2 ASN B   7      -7.675   4.583   0.004  1.00 48.79 LIG-0.37  N 
ATOM     25 21HD ASN B   7      -7.952   4.032  -0.595  1.00 48.79 LIG 0.16  HD
ATOM     26 22HD ASN B   7      -7.835   5.423  -0.078  1.00 48.79 LIG 0.16  HD
ATOM     27 OD1  ASN B   7      -6.745   2.943   1.223  1.00 52.21 LIG-0.27  OA
ENDBRANCH 22 23
ENDBRANCH 19 22
ENDBRANCH 17 19
ENDBRANCH 14 15
BRANCH 14 28
ATOM     28  CB  TRP B   6      -1.593   5.464  -1.671  1.00 42.47 LIG 0.07  C 
BRANCH 28 29
ATOM     29  CG  TRP B   6      -0.586   4.356  -1.398  1.00 46.30 LIG-0.03  A 
ATOM     30  CD1 TRP B   6      -0.853   3.013  -1.267  1.00 49.14 LIG 0.10  A 
ATOM     31  NE1 TRP B   6       0.314   2.313  -1.054  1.00 51.13 LIG-0.36  N 
ATOM     32 HE1  TRP B   6       0.373   1.462  -0.946  1.00 51.13 LIG 0.17  HD
ATOM     33  CE2 TRP B   6       1.365   3.193  -1.042  1.00 47.23 LIG 0.04  A 
ATOM     34  CZ2 TRP B   6       2.734   2.959  -0.860  1.00 46.28 LIG 0.03  A 
ATOM     35  CD2 TRP B   6       0.841   4.489  -1.260  1.00 41.81 LIG-0.00  A 
ATOM     36  CH2 TRP B   6       3.575   4.046  -0.897  1.00 44.17 LIG 0.00  A 
ATOM     37  CZ3 TRP B   6       3.088   5.339  -1.102  1.00 33.54 LIG 0.00  A 
ATOM     38  CE3 TRP B   6       1.721   5.574  -1.286  1.00 38.27 LIG 0.01  A 
ENDBRANCH 28 29
ENDBRANCH 14 28
ENDBRANCH 11 14
ENDBRANCH 1 10
BRANCH 1 39
ATOM     39  N   LYS B   5      -6.505   3.737  -4.330  1.00 39.73 LIG-0.35  N 
ATOM     40  C   PRO B   4      -7.340   2.859  -3.777  1.00 35.29 LIG 0.24  C 
ATOM     41 O    PRO B   4      -7.773   2.972  -2.631  1.00 36.70 LIG-0.27  OA
ATOM     42 H    LYS B   5      -6.193   3.652  -5.126  1.00 39.73 LIG 0.16  HD
BRANCH 40 43
ATOM     43  CA  PRO B   4      -7.744   1.692  -4.659  1.00 31.05 LIG 0.18  C 
ATOM     44  N   PRO B   4      -9.170   1.393  -4.527  1.00 34.55 LIG-0.34  N 
ATOM     45  C   GLY B   3      -9.613   0.682  -3.490  1.00 37.27 LIG 0.24  C 
ATOM     46  CD  PRO B   4      -9.932   1.848  -5.704  1.00 31.08 LIG 0.13  C 
ATOM     47 O    GLY B   3      -8.857   0.301  -2.592  1.00 44.84 LIG-0.27  OA
ATOM     48  CG  PRO B   4      -8.925   2.666  -6.473  1.00 26.25 LIG 0.02  C 
ATOM     49  CB  PRO B   4      -7.607   2.048  -6.143  1.00 27.99 LIG 0.04  C 
BRANCH 45 50
ATOM     50  CA  GLY B   3     -11.094   0.377  -3.447  1.00 35.98 LIG 0.23  C 
BRANCH 50 51
ATOM     51  N   GLY B   3     -11.600   0.433  -2.095  1.00 37.88 LIG-0.35  N 
ATOM     52  C   TYR B   2     -11.923  -0.660  -1.410  1.00 38.85 LIG 0.26  C 
ATOM     53 O    TYR B   2     -11.734  -1.805  -1.827  1.00 37.42 LIG-0.27  OA
ATOM     54 H    GLY B   3     -11.671   1.231  -1.781  1.00 37.88 LIG 0.16  HD
BRANCH 52 55
ATOM     55  CA  TYR B   2     -12.539  -0.426  -0.033  1.00 47.59 LIG 0.40  C 
ATOM     56  N   TYR B   2     -11.555   0.170   0.870  1.00 42.90 LIG 0.61  N 
BRANCH 55 57
ATOM     57  CB  TYR B   2     -13.778   0.464  -0.160  1.00 41.46 LIG 0.09  C 
BRANCH 57 58
ATOM     58  CG  TYR B   2     -13.841   1.618   0.838  1.00 40.04 LIG-0.06  A 
ATOM     59  CD1 TYR B   2     -14.735   1.590   1.899  1.00 39.56 LIG 0.01  A 
ATOM     60  CE1 TYR B   2     -14.802   2.629   2.818  1.00 39.46 LIG 0.04  A 
ATOM     61  CZ  TYR B   2     -13.966   3.716   2.683  1.00 36.77 LIG 0.07  A 
ATOM     62  CE2 TYR B   2     -13.065   3.771   1.635  1.00 30.56 LIG 0.04  A 
ATOM     63  CD2 TYR B   2     -13.006   2.726   0.719  1.00 33.12 LIG 0.01  A 
BRANCH 61 64
ATOM     64 OH   TYR B   2     -14.047   4.739   3.615  1.00 37.21 LIG-0.36  OA
ATOM     65 HH   TYR B   2     -13.303   4.833   3.995  1.00 37.21 LIG 0.22  HD
ENDBRANCH 61 64
ENDBRANCH 57 58
ENDBRANCH 55 57
ENDBRANCH 52 55
ENDBRANCH 50 51
ENDBRANCH 45 50
ENDBRANCH 40 43
ENDBRANCH 1 39
TORSDOF 22
ENDMDL
MODEL 11
USER: ADFR SOLUTION from run 67
USER: SCORE 18.593317 LL:  -4.010 LR: -15.532 RR:   0.000 FEB:  -8.970
USER: RMSD 8.392603
USER: SEED 66
USER: STATUS no improvement in best in 14 clusters for 5 generations
USER: GENES 24
USER: genes 0 Translation |==|  0.36267 0.45997 0.63038
USER: genes 1 Rotation |==|  0.95735 0.61923 0.34182 0.53990
USER: genes 2 Torsion [C]-CA--CB-[CG] |==|  0.17802
USER: genes 3 Torsion [CA]-CB--CG-[CD] |==|  0.71157
USER: genes 4 Torsion [CB]-CG--CD-[CE] |==|  0.75061
USER: genes 5 Torsion [CG]-CD--CE-[NZ] |==|  0.12683
USER: genes 6 Torsion [CD]-CE--NZ-[HZ3] |==|  0.63749
USER: genes 7 Torsion [N]-CA--C-[N] |==|  0.35576
USER: genes 8 Torsion [C]-N--CA-[C] |==|  0.68219
USER: genes 9 Torsion [N]-CA--C-[N] |==|  0.59533
USER: genes 10 Torsion [C]-N--CA-[C] |==|  0.78735
USER: genes 11 Torsion [N]-CA--C-[O] |==|  0.40375
USER: genes 12 Torsion [N]-CA--CB-[CG] |==|  0.39773
USER: genes 13 Torsion [CA]-CB--CG-[ND2] |==|  0.18110
USER: genes 14 Torsion [N]-CA--CB-[CG] |==|  0.17769
USER: genes 15 Torsion [CA]-CB--CG-[CD2] |==|  0.34266
USER: genes 16 Torsion [CB]-CA--N-[C] |==|  0.85458
USER: genes 17 Torsion [N]-C--CA-[CB] |==|  0.43040
USER: genes 18 Torsion [N]-C--CA-[N] |==|  0.33773
USER: genes 19 Torsion [C]-CA--N-[C] |==|  0.82391
USER: genes 20 Torsion [N]-C--CA-[N] |==|  0.59425
USER: genes 21 Torsion [C]-CA--CB-[CG] |==|  0.84109
USER: genes 22 Torsion [CA]-CB--CG-[CD1] |==|  0.30563
USER: genes 23 Torsion [CE1]-CZ--OH-[HH] |==|  0.01276
ROOT
ATOM      1  CA  LYS B   5      -7.670   4.044   0.239  1.00 42.36 LIG 0.18  C 
ENDROOT
BRANCH 1 2
ATOM      2  CB  LYS B   5      -6.927   4.244   1.569  1.00 43.80 LIG 0.04  C 
BRANCH 2 3
ATOM      3  CG  LYS B   5      -6.102   5.551   1.669  1.00 49.23 LIG 0.00  C 
BRANCH 3 4
ATOM      4  CD  LYS B   5      -4.595   5.326   1.508  1.00 48.54 LIG 0.03  C 
BRANCH 4 5
ATOM      5  CE  LYS B   5      -3.931   5.055   2.848  1.00 43.92 LIG 0.23  C 
BRANCH 5 6
ATOM      6  NZ  LYS B   5      -4.735   4.074   3.616  1.00 45.51 LIG-0.08  N 
ATOM      7 HZ3  LYS B   5      -4.871   4.381   4.440  1.00 45.51 LIG 0.27  HD
ATOM      8 HZ1  LYS B   5      -5.519   3.952   3.213  1.00 45.51 LIG 0.27  HD
ATOM      9 HZ2  LYS B   5      -4.299   3.299   3.656  1.00 45.51 LIG 0.27  HD
ENDBRANCH 5 6
ENDBRANCH 4 5
ENDBRANCH 3 4
ENDBRANCH 2 3
ENDBRANCH 1 2
BRANCH 1 10
ATOM     10  C   LYS B   5      -6.663   3.909  -0.904  1.00 41.24 LIG 0.24  C 
ATOM     11  N   TRP B   6      -6.599   4.928  -1.762  1.00 42.23 LIG-0.35  N 
ATOM     12 H    TRP B   6      -7.109   5.620  -1.735  1.00 42.23 LIG 0.16  HD
ATOM     13 O    LYS B   5      -5.957   2.904  -1.019  1.00 40.50 LIG-0.27  OA
BRANCH 11 14
ATOM     14  CA  TRP B   6      -5.619   4.933  -2.845  1.00 42.54 LIG 0.18  C 
BRANCH 14 15
ATOM     15  C   TRP B   6      -4.622   6.068  -2.620  1.00 45.00 LIG 0.24  C 
ATOM     16 O    TRP B   6      -4.285   6.386  -1.471  1.00 46.85 LIG-0.27  OA
ATOM     17  N   ASN B   7      -4.151   6.672  -3.719  1.00 47.11 LIG-0.35  N 
ATOM     18 H    ASN B   7      -4.277   6.367  -4.512  1.00 47.11 LIG 0.16  HD
BRANCH 17 19
ATOM     19  CA  ASN B   7      -3.371   7.921  -3.681  1.00 45.24 LIG 0.17  C 
BRANCH 19 20
ATOM     20  C   ASN B   7      -4.301   9.105  -3.433  1.00 46.26 LIG 0.22  C 
ATOM     21 O    ASN B   7      -3.922  10.069  -2.762  1.00 44.70 LIG-0.29  OA
ENDBRANCH 19 20
BRANCH 19 22
ATOM     22  CB  ASN B   7      -2.593   8.163  -4.986  1.00 46.57 LIG 0.14  C 
BRANCH 22 23
ATOM     23  CG  ASN B   7      -2.537   9.634  -5.386  1.00 48.94 LIG 0.22  C 
ATOM     24  ND2 ASN B   7      -1.868  10.449  -4.571  1.00 48.79 LIG-0.37  N 
ATOM     25 21HD ASN B   7      -1.812  11.288  -4.752  1.00 48.79 LIG 0.16  HD
ATOM     26 22HD ASN B   7      -1.493  10.136  -3.863  1.00 48.79 LIG 0.16  HD
ATOM     27 OD1  ASN B   7      -3.090  10.033  -6.408  1.00 52.21 LIG-0.27  OA
ENDBRANCH 22 23
ENDBRANCH 19 22
ENDBRANCH 17 19
ENDBRANCH 14 15
BRANCH 14 28
ATOM     28  CB  TRP B   6      -6.278   5.073  -4.220  1.00 42.47 LIG 0.07  C 
BRANCH 28 29
ATOM     29  CG  TRP B   6      -6.987   6.413  -4.360  1.00 46.30 LIG-0.03  A 
ATOM     30  CD1 TRP B   6      -7.948   6.928  -3.522  1.00 49.14 LIG 0.10  A 
ATOM     31  NE1 TRP B   6      -8.335   8.179  -3.951  1.00 51.13 LIG-0.36  N 
ATOM     32 HE1  TRP B   6      -8.923   8.677  -3.572  1.00 51.13 LIG 0.17  HD
ATOM     33  CE2 TRP B   6      -7.629   8.499  -5.083  1.00 47.23 LIG 0.04  A 
ATOM     34  CZ2 TRP B   6      -7.675   9.651  -5.877  1.00 46.28 LIG 0.03  A 
ATOM     35  CD2 TRP B   6      -6.766   7.415  -5.369  1.00 41.81 LIG-0.00  A 
ATOM     36  CH2 TRP B   6      -6.842   9.703  -6.970  1.00 44.17 LIG 0.00  A 
ATOM     37  CZ3 TRP B   6      -5.984   8.647  -7.285  1.00 33.54 LIG 0.00  A 
ATOM     38  CE3 TRP B   6      -5.936   7.496  -6.491  1.00 38.27 LIG 0.01  A 
ENDBRANCH 28 29
ENDBRANCH 14 28
ENDBRANCH 11 14
ENDBRANCH 1 10
BRANCH 1 39
ATOM     39  N   LYS B   5      -8.530   2.865   0.303  1.00 39.73 LIG-0.35  N 
ATOM     40  C   PRO B   4      -8.095   1.664   0.679  1.00 35.29 LIG 0.24  C 
ATOM     41 O    PRO B   4      -6.925   1.439   0.990  1.00 36.70 LIG-0.27  OA
ATOM     42 H    LYS B   5      -9.344   3.019   0.074  1.00 39.73 LIG 0.16  HD
BRANCH 40 43
ATOM     43  CA  PRO B   4      -9.142   0.566   0.715  1.00 31.05 LIG 0.18  C 
ATOM     44  N   PRO B   4     -10.043   0.652  -0.433  1.00 34.55 LIG-0.34  N 
ATOM     45  C   GLY B   3     -11.049   1.527  -0.434  1.00 37.27 LIG 0.24  C 
ATOM     46  CD  PRO B   4      -9.757  -0.398  -1.428  1.00 31.08 LIG 0.13  C 
ATOM     47 O    GLY B   3     -11.222   2.319   0.497  1.00 44.84 LIG-0.27  OA
ATOM     48  CG  PRO B   4      -8.461  -0.995  -0.938  1.00 26.25 LIG 0.02  C 
ATOM     49  CB  PRO B   4      -8.501  -0.814   0.543  1.00 27.99 LIG 0.04  C 
BRANCH 45 50
ATOM     50  CA  GLY B   3     -11.964   1.525  -1.639  1.00 35.98 LIG 0.23  C 
BRANCH 50 51
ATOM     51  N   GLY B   3     -13.333   1.270  -1.255  1.00 37.88 LIG-0.35  N 
ATOM     52  C   TYR B   2     -13.714   0.124  -0.698  1.00 38.85 LIG 0.26  C 
ATOM     53 O    TYR B   2     -12.929  -0.771  -0.378  1.00 37.42 LIG-0.27  OA
ATOM     54 H    GLY B   3     -13.869   1.921  -1.420  1.00 37.88 LIG 0.16  HD
BRANCH 52 55
ATOM     55  CA  TYR B   2     -15.211  -0.028  -0.445  1.00 47.59 LIG 0.40  C 
ATOM     56  N   TYR B   2     -15.445  -0.804   0.773  1.00 42.90 LIG 0.61  N 
BRANCH 55 57
ATOM     57  CB  TYR B   2     -15.868   1.351  -0.351  1.00 41.46 LIG 0.09  C 
BRANCH 57 58
ATOM     58  CG  TYR B   2     -15.283   2.267   0.722  1.00 40.04 LIG-0.06  A 
ATOM     59  CD1 TYR B   2     -14.541   3.386   0.372  1.00 39.56 LIG 0.01  A 
ATOM     60  CE1 TYR B   2     -14.007   4.232   1.335  1.00 39.46 LIG 0.04  A 
ATOM     61  CZ  TYR B   2     -14.214   3.964   2.671  1.00 36.77 LIG 0.07  A 
ATOM     62  CE2 TYR B   2     -14.950   2.857   3.049  1.00 30.56 LIG 0.04  A 
ATOM     63  CD2 TYR B   2     -15.480   2.014   2.078  1.00 33.12 LIG 0.01  A 
BRANCH 61 64
ATOM     64 OH   TYR B   2     -13.675   4.825   3.615  1.00 37.21 LIG-0.36  OA
ATOM     65 HH   TYR B   2     -13.315   5.478   3.227  1.00 37.21 LIG 0.22  HD
ENDBRANCH 61 64
ENDBRANCH 57 58
ENDBRANCH 55 57
ENDBRANCH 52 55
ENDBRANCH 50 51
ENDBRANCH 45 50
ENDBRANCH 40 43
ENDBRANCH 1 39
TORSDOF 22
ENDMDL
MODEL 12
USER: ADFR SOLUTION from run 8
USER: SCORE 18.689278 LL:  -3.839 LR: -15.518 RR:   0.000 FEB:  -8.955
USER: RMSD 7.440857
USER: SEED 993636
USER: STATUS searching
USER: GENES 24
USER: genes 0 Translation |==|  0.41848 0.52299 0.40695
USER: genes 1 Rotation |==|  0.92480 0.49236 0.69692 0.67524
USER: genes 2 Torsion [C]-CA--CB-[CG] |==|  0.41917
USER: genes 3 Torsion [CA]-CB--CG-[CD] |==|  0.81677
USER: genes 4 Torsion [CB]-CG--CD-[CE] |==|  0.56874
USER: genes 5 Torsion [CG]-CD--CE-[NZ] |==|  0.14784
USER: genes 6 Torsion [CD]-CE--NZ-[HZ3] |==|  0.39489
USER: genes 7 Torsion [N]-CA--C-[N] |==|  0.40839
USER: genes 8 Torsion [C]-N--CA-[C] |==|  0.76661
USER: genes 9 Torsion [N]-CA--C-[N] |==|  0.17945
USER: genes 10 Torsion [C]-N--CA-[C] |==|  0.79347
USER: genes 11 Torsion [N]-CA--C-[O] |==|  0.04166
USER: genes 12 Torsion [N]-CA--CB-[CG] |==|  0.06107
USER: genes 13 Torsion [CA]-CB--CG-[ND2] |==|  0.72637
USER: genes 14 Torsion [N]-CA--CB-[CG] |==|  0.95351
USER: genes 15 Torsion [CA]-CB--CG-[CD2] |==|  0.20344
USER: genes 16 Torsion [CB]-CA--N-[C] |==|  0.85495
USER: genes 17 Torsion [N]-C--CA-[CB] |==|  0.93757
USER: genes 18 Torsion [N]-C--CA-[N] |==|  0.60583
USER: genes 19 Torsion [C]-CA--N-[C] |==|  0.70557
USER: genes 20 Torsion [N]-C--CA-[N] |==|  0.81670
USER: genes 21 Torsion [C]-CA--CB-[CG] |==|  0.63035
USER: genes 22 Torsion [CA]-CB--CG-[CD1] |==|  0.70171
USER: genes 23 Torsion [CE1]-CZ--OH-[HH] |==|  0.33475
ROOT
ATOM      1  CA  LYS B   5      -5.996   5.272  -3.615  1.00 42.36 LIG 0.18  C 
ENDROOT
BRANCH 1 2
ATOM      2  CB  LYS B   5      -7.204   5.995  -2.999  1.00 43.80 LIG 0.04  C 
BRANCH 2 3
ATOM      3  CG  LYS B   5      -7.911   7.006  -3.934  1.00 49.23 LIG 0.00  C 
BRANCH 3 4
ATOM      4  CD  LYS B   5      -7.035   8.212  -4.290  1.00 48.54 LIG 0.03  C 
BRANCH 4 5
ATOM      5  CE  LYS B   5      -7.880   9.418  -4.662  1.00 43.92 LIG 0.23  C 
BRANCH 5 6
ATOM      6  NZ  LYS B   5      -8.864   9.691  -3.587  1.00 45.51 LIG-0.08  N 
ATOM      7 HZ3  LYS B   5      -8.956  10.571  -3.485  1.00 45.51 LIG 0.27  HD
ATOM      8 HZ1  LYS B   5      -9.649   9.335  -3.805  1.00 45.51 LIG 0.27  HD
ATOM      9 HZ2  LYS B   5      -8.578   9.333  -2.824  1.00 45.51 LIG 0.27  HD
ENDBRANCH 5 6
ENDBRANCH 4 5
ENDBRANCH 3 4
ENDBRANCH 2 3
ENDBRANCH 1 2
BRANCH 1 10
ATOM     10  C   LYS B   5      -4.994   4.906  -2.519  1.00 41.24 LIG 0.24  C 
ATOM     11  N   TRP B   6      -4.047   5.808  -2.254  1.00 42.23 LIG-0.35  N 
ATOM     12 H    TRP B   6      -3.945   6.545  -2.684  1.00 42.23 LIG 0.16  HD
ATOM     13 O    LYS B   5      -5.065   3.829  -1.922  1.00 40.50 LIG-0.27  OA
BRANCH 11 14
ATOM     14  CA  TRP B   6      -3.088   5.589  -1.175  1.00 42.54 LIG 0.18  C 
BRANCH 14 15
ATOM     15  C   TRP B   6      -3.703   6.039   0.148  1.00 45.00 LIG 0.24  C 
ATOM     16 O    TRP B   6      -3.216   6.992   0.772  1.00 46.85 LIG-0.27  OA
ATOM     17  N   ASN B   7      -4.773   5.354   0.570  1.00 47.11 LIG-0.35  N 
ATOM     18 H    ASN B   7      -5.191   4.786   0.077  1.00 47.11 LIG 0.16  HD
BRANCH 17 19
ATOM     19  CA  ASN B   7      -5.345   5.500   1.919  1.00 45.24 LIG 0.17  C 
BRANCH 19 20
ATOM     20  C   ASN B   7      -4.447   4.806   2.940  1.00 46.26 LIG 0.22  C 
ATOM     21 O    ASN B   7      -3.296   4.478   2.639  1.00 44.70 LIG-0.29  OA
ENDBRANCH 19 20
BRANCH 19 22
ATOM     22  CB  ASN B   7      -6.763   4.911   2.020  1.00 46.57 LIG 0.14  C 
BRANCH 22 23
ATOM     23  CG  ASN B   7      -7.059   3.872   0.943  1.00 48.94 LIG 0.22  C 
ATOM     24  ND2 ASN B   7      -7.740   4.294  -0.122  1.00 48.79 LIG-0.37  N 
ATOM     25 21HD ASN B   7      -7.935   3.744  -0.754  1.00 48.79 LIG 0.16  HD
ATOM     26 22HD ASN B   7      -7.986   5.116  -0.177  1.00 48.79 LIG 0.16  HD
ATOM     27 OD1  ASN B   7      -6.686   2.709   1.068  1.00 52.21 LIG-0.27  OA
ENDBRANCH 22 23
ENDBRANCH 19 22
ENDBRANCH 17 19
ENDBRANCH 14 15
BRANCH 14 28
ATOM     28  CB  TRP B   6      -1.766   6.323  -1.420  1.00 42.47 LIG 0.07  C 
BRANCH 28 29
ATOM     29  CG  TRP B   6      -1.629   6.745  -2.876  1.00 46.30 LIG-0.03  A 
ATOM     30  CD1 TRP B   6      -0.829   6.163  -3.831  1.00 49.14 LIG 0.10  A 
ATOM     31  NE1 TRP B   6      -0.991   6.799  -5.042  1.00 51.13 LIG-0.36  N 
ATOM     32 HE1  TRP B   6      -0.586   6.594  -5.772  1.00 51.13 LIG 0.17  HD
ATOM     33  CE2 TRP B   6      -1.904   7.812  -4.894  1.00 47.23 LIG 0.04  A 
ATOM     34  CZ2 TRP B   6      -2.390   8.731  -5.832  1.00 46.28 LIG 0.03  A 
ATOM     35  CD2 TRP B   6      -2.332   7.808  -3.545  1.00 41.81 LIG-0.00  A 
ATOM     36  CH2 TRP B   6      -3.315   9.652  -5.400  1.00 44.17 LIG 0.00  A 
ATOM     37  CZ3 TRP B   6      -3.752   9.679  -4.073  1.00 33.54 LIG 0.00  A 
ATOM     38  CE3 TRP B   6      -3.269   8.760  -3.135  1.00 38.27 LIG 0.01  A 
ENDBRANCH 28 29
ENDBRANCH 14 28
ENDBRANCH 11 14
ENDBRANCH 1 10
BRANCH 1 39
ATOM     39  N   LYS B   5      -6.424   4.076  -4.335  1.00 39.73 LIG-0.35  N 
ATOM     40  C   PRO B   4      -7.195   3.135  -3.794  1.00 35.29 LIG 0.24  C 
ATOM     41 O    PRO B   4      -7.600   3.184  -2.632  1.00 36.70 LIG-0.27  OA
ATOM     42 H    LYS B   5      -6.131   4.036  -5.143  1.00 39.73 LIG 0.16  HD
BRANCH 40 43
ATOM     43  CA  PRO B   4      -7.564   1.981  -4.707  1.00 31.05 LIG 0.18  C 
ATOM     44  N   PRO B   4      -8.977   1.628  -4.576  1.00 34.55 LIG-0.34  N 
ATOM     45  C   GLY B   3      -9.389   0.873  -3.558  1.00 37.27 LIG 0.24  C 
ATOM     46  CD  PRO B   4      -9.762   2.090  -5.735  1.00 31.08 LIG 0.13  C 
ATOM     47 O    GLY B   3      -8.614   0.493  -2.675  1.00 44.84 LIG-0.27  OA
ATOM     48  CG  PRO B   4      -8.790   2.966  -6.486  1.00 26.25 LIG 0.02  C 
ATOM     49  CB  PRO B   4      -7.449   2.385  -6.180  1.00 27.99 LIG 0.04  C 
BRANCH 45 50
ATOM     50  CA  GLY B   3     -10.858   0.514  -3.516  1.00 35.98 LIG 0.23  C 
BRANCH 50 51
ATOM     51  N   GLY B   3     -11.361   0.528  -2.162  1.00 37.88 LIG-0.35  N 
ATOM     52  C   TYR B   2     -11.632  -0.588  -1.492  1.00 38.85 LIG 0.26  C 
ATOM     53 O    TYR B   2     -11.392  -1.717  -1.926  1.00 37.42 LIG-0.27  OA
ATOM     54 H    GLY B   3     -11.467   1.317  -1.836  1.00 37.88 LIG 0.16  HD
BRANCH 52 55
ATOM     55  CA  TYR B   2     -12.252  -0.403  -0.110  1.00 47.59 LIG 0.40  C 
ATOM     56  N   TYR B   2     -11.299   0.241   0.793  1.00 42.90 LIG 0.61  N 
BRANCH 55 57
ATOM     57  CB  TYR B   2     -13.540   0.416  -0.222  1.00 41.46 LIG 0.09  C 
BRANCH 57 58
ATOM     58  CG  TYR B   2     -13.668   1.550   0.792  1.00 40.04 LIG-0.06  A 
ATOM     59  CD1 TYR B   2     -14.558   1.456   1.853  1.00 39.56 LIG 0.01  A 
ATOM     60  CE1 TYR B   2     -14.683   2.477   2.786  1.00 39.46 LIG 0.04  A 
ATOM     61  CZ  TYR B   2     -13.909   3.611   2.667  1.00 36.77 LIG 0.07  A 
ATOM     62  CE2 TYR B   2     -13.015   3.733   1.620  1.00 30.56 LIG 0.04  A 
ATOM     63  CD2 TYR B   2     -12.897   2.706   0.689  1.00 33.12 LIG 0.01  A 
BRANCH 61 64
ATOM     64 OH   TYR B   2     -14.048   4.615   3.613  1.00 37.21 LIG-0.36  OA
ATOM     65 HH   TYR B   2     -13.310   4.745   3.995  1.00 37.21 LIG 0.22  HD
ENDBRANCH 61 64
ENDBRANCH 57 58
ENDBRANCH 55 57
ENDBRANCH 52 55
ENDBRANCH 50 51
ENDBRANCH 45 50
ENDBRANCH 40 43
ENDBRANCH 1 39
TORSDOF 22
ENDMDL
MODEL 13
USER: ADFR SOLUTION from run 78
USER: SCORE 18.652286 LL:  -3.402 LR: -15.509 RR:   0.000 FEB:  -8.946
USER: RMSD 12.917169
USER: SEED 77
USER: STATUS no improvement in best in 23 clusters for 5 generations
USER: GENES 24
USER: genes 0 Translation |==|  0.64831 0.46888 0.49737
USER: genes 1 Rotation |==|  0.44413 0.04618 0.29780 0.50664
USER: genes 2 Torsion [C]-CA--CB-[CG] |==|  0.53423
USER: genes 3 Torsion [CA]-CB--CG-[CD] |==|  0.41954
USER: genes 4 Torsion [CB]-CG--CD-[CE] |==|  0.48224
USER: genes 5 Torsion [CG]-CD--CE-[NZ] |==|  0.69102
USER: genes 6 Torsion [CD]-CE--NZ-[HZ3] |==|  0.54654
USER: genes 7 Torsion [N]-CA--C-[N] |==|  0.39664
USER: genes 8 Torsion [C]-N--CA-[C] |==|  0.78508
USER: genes 9 Torsion [N]-CA--C-[N] |==|  0.44037
USER: genes 10 Torsion [C]-N--CA-[C] |==|  0.19547
USER: genes 11 Torsion [N]-CA--C-[O] |==|  0.64521
USER: genes 12 Torsion [N]-CA--CB-[CG] |==|  0.77707
USER: genes 13 Torsion [CA]-CB--CG-[ND2] |==|  0.31815
USER: genes 14 Torsion [N]-CA--CB-[CG] |==|  0.63221
USER: genes 15 Torsion [CA]-CB--CG-[CD2] |==|  0.59500
USER: genes 16 Torsion [CB]-CA--N-[C] |==|  0.84714
USER: genes 17 Torsion [N]-C--CA-[CB] |==|  0.06476
USER: genes 18 Torsion [N]-C--CA-[N] |==|  0.49787
USER: genes 19 Torsion [C]-CA--N-[C] |==|  0.20004
USER: genes 20 Torsion [N]-C--CA-[N] |==|  0.67275
USER: genes 21 Torsion [C]-CA--CB-[CG] |==|  0.23686
USER: genes 22 Torsion [CA]-CB--CG-[CD1] |==|  0.89438
USER: genes 23 Torsion [CE1]-CZ--OH-[HH] |==|  0.11780
ROOT
ATOM      1  CA  LYS B   5       0.899   4.217  -2.055  1.00 42.36 LIG 0.18  C 
ENDROOT
BRANCH 1 2
ATOM      2  CB  LYS B   5       1.065   3.177  -0.936  1.00 43.80 LIG 0.04  C 
BRANCH 2 3
ATOM      3  CG  LYS B   5       2.372   2.349  -0.998  1.00 49.23 LIG 0.00  C 
BRANCH 3 4
ATOM      4  CD  LYS B   5       2.854   1.881   0.379  1.00 48.54 LIG 0.03  C 
BRANCH 4 5
ATOM      5  CE  LYS B   5       4.045   0.945   0.258  1.00 43.92 LIG 0.23  C 
BRANCH 5 6
ATOM      6  NZ  LYS B   5       3.646  -0.426   0.657  1.00 45.51 LIG-0.08  N 
ATOM      7 HZ3  LYS B   5       4.375  -0.912   0.821  1.00 45.51 LIG 0.27  HD
ATOM      8 HZ1  LYS B   5       3.145  -0.388   1.391  1.00 45.51 LIG 0.27  HD
ATOM      9 HZ2  LYS B   5       3.180  -0.804   0.000  1.00 45.51 LIG 0.27  HD
ENDBRANCH 5 6
ENDBRANCH 4 5
ENDBRANCH 3 4
ENDBRANCH 2 3
ENDBRANCH 1 2
BRANCH 1 10
ATOM     10  C   LYS B   5      -0.254   5.164  -1.719  1.00 41.24 LIG 0.24  C 
ATOM     11  N   TRP B   6      -1.444   4.857  -2.236  1.00 42.23 LIG-0.35  N 
ATOM     12 H    TRP B   6      -1.587   4.198  -2.770  1.00 42.23 LIG 0.16  HD
ATOM     13 O    LYS B   5      -0.078   6.159  -1.011  1.00 40.50 LIG-0.27  OA
BRANCH 11 14
ATOM     14  CA  TRP B   6      -2.626   5.653  -1.915  1.00 42.54 LIG 0.18  C 
BRANCH 14 15
ATOM     15  C   TRP B   6      -3.123   5.281  -0.520  1.00 45.00 LIG 0.24  C 
ATOM     16 O    TRP B   6      -2.814   4.193  -0.015  1.00 46.85 LIG-0.27  OA
ATOM     17  N   ASN B   7      -3.889   6.188   0.099  1.00 47.11 LIG-0.35  N 
ATOM     18 H    ASN B   7      -3.992   6.991  -0.189  1.00 47.11 LIG 0.16  HD
BRANCH 17 19
ATOM     19  CA  ASN B   7      -4.636   5.904   1.337  1.00 45.24 LIG 0.17  C 
BRANCH 19 20
ATOM     20  C   ASN B   7      -3.663   5.751   2.504  1.00 46.26 LIG 0.22  C 
ATOM     21 O    ASN B   7      -3.708   4.753   3.229  1.00 44.70 LIG-0.29  OA
ENDBRANCH 19 20
BRANCH 19 22
ATOM     22  CB  ASN B   7      -5.486   4.626   1.226  1.00 46.57 LIG 0.14  C 
BRANCH 22 23
ATOM     23  CG  ASN B   7      -6.805   4.845   0.491  1.00 48.94 LIG 0.22  C 
ATOM     24  ND2 ASN B   7      -6.950   4.212  -0.673  1.00 48.79 LIG-0.37  N 
ATOM     25 21HD ASN B   7      -7.675   4.308  -1.127  1.00 48.79 LIG 0.16  HD
ATOM     26 22HD ASN B   7      -6.320   3.709  -0.971  1.00 48.79 LIG 0.16  HD
ATOM     27 OD1  ASN B   7      -7.675   5.574   0.958  1.00 52.21 LIG-0.27  OA
ENDBRANCH 22 23
ENDBRANCH 19 22
ENDBRANCH 17 19
ENDBRANCH 14 15
BRANCH 14 28
ATOM     28  CB  TRP B   6      -3.746   5.464  -2.943  1.00 42.47 LIG 0.07  C 
BRANCH 28 29
ATOM     29  CG  TRP B   6      -4.318   6.803  -3.389  1.00 46.30 LIG-0.03  A 
ATOM     30  CD1 TRP B   6      -3.625   7.976  -3.570  1.00 49.14 LIG 0.10  A 
ATOM     31  NE1 TRP B   6      -4.473   8.969  -4.009  1.00 51.13 LIG-0.36  N 
ATOM     32 HE1  TRP B   6      -4.246   9.779  -4.184  1.00 51.13 LIG 0.17  HD
ATOM     33  CE2 TRP B   6      -5.740   8.455  -4.119  1.00 47.23 LIG 0.04  A 
ATOM     34  CZ2 TRP B   6      -6.931   9.073  -4.520  1.00 46.28 LIG 0.03  A 
ATOM     35  CD2 TRP B   6      -5.683   7.092  -3.743  1.00 41.81 LIG-0.00  A 
ATOM     36  CH2 TRP B   6      -8.071   8.305  -4.538  1.00 44.17 LIG 0.00  A 
ATOM     37  CZ3 TRP B   6      -8.050   6.959  -4.164  1.00 33.54 LIG 0.00  A 
ATOM     38  CE3 TRP B   6      -6.860   6.339  -3.765  1.00 38.27 LIG 0.01  A 
ENDBRANCH 28 29
ENDBRANCH 14 28
ENDBRANCH 11 14
ENDBRANCH 1 10
BRANCH 1 39
ATOM     39  N   LYS B   5       2.137   4.969  -2.247  1.00 39.73 LIG-0.35  N 
ATOM     40  C   PRO B   4       2.753   5.622  -1.264  1.00 35.29 LIG 0.24  C 
ATOM     41 O    PRO B   4       2.324   5.664  -0.111  1.00 36.70 LIG-0.27  OA
ATOM     42 H    LYS B   5       2.431   4.949  -3.055  1.00 39.73 LIG 0.16  HD
BRANCH 40 43
ATOM     43  CA  PRO B   4       4.046   6.318  -1.647  1.00 31.05 LIG 0.18  C 
ATOM     44  N   PRO B   4       5.201   5.441  -1.456  1.00 34.55 LIG-0.34  N 
ATOM     45  C   GLY B   3       5.723   5.274  -0.241  1.00 37.27 LIG 0.24  C 
ATOM     46  CD  PRO B   4       5.721   4.939  -2.740  1.00 31.08 LIG 0.13  C 
ATOM     47 O    GLY B   3       5.228   5.805   0.758  1.00 44.84 LIG-0.27  OA
ATOM     48  CG  PRO B   4       4.668   5.367  -3.732  1.00 26.25 LIG 0.02  C 
ATOM     49  CB  PRO B   4       4.089   6.614  -3.150  1.00 27.99 LIG 0.04  C 
BRANCH 45 50
ATOM     50  CA  GLY B   3       6.943   4.387  -0.131  1.00 35.98 LIG 0.23  C 
BRANCH 50 51
ATOM     51  N   GLY B   3       7.412   4.310   1.233  1.00 37.88 LIG-0.35  N 
ATOM     52  C   TYR B   2       6.756   3.638   2.175  1.00 38.85 LIG 0.26  C 
ATOM     53 O    TYR B   2       5.756   2.953   1.949  1.00 37.42 LIG-0.27  OA
ATOM     54 H    GLY B   3       8.146   4.735   1.376  1.00 37.88 LIG 0.16  HD
BRANCH 52 55
ATOM     55  CA  TYR B   2       7.327   3.738   3.586  1.00 47.59 LIG 0.40  C 
ATOM     56  N   TYR B   2       7.744   2.419   4.062  1.00 42.90 LIG 0.61  N 
BRANCH 55 57
ATOM     57  CB  TYR B   2       8.498   4.723   3.606  1.00 41.46 LIG 0.09  C 
BRANCH 57 58
ATOM     58  CG  TYR B   2       8.101   6.187   3.783  1.00 40.04 LIG-0.06  A 
ATOM     59  CD1 TYR B   2       6.962   6.691   3.173  1.00 39.56 LIG 0.01  A 
ATOM     60  CE1 TYR B   2       6.584   8.018   3.328  1.00 39.46 LIG 0.04  A 
ATOM     61  CZ  TYR B   2       7.349   8.861   4.104  1.00 36.77 LIG 0.07  A 
ATOM     62  CE2 TYR B   2       8.490   8.386   4.725  1.00 30.56 LIG 0.04  A 
ATOM     63  CD2 TYR B   2       8.861   7.055   4.563  1.00 33.12 LIG 0.01  A 
BRANCH 61 64
ATOM     64 OH   TYR B   2       6.950  10.181   4.249  1.00 37.21 LIG-0.36  OA
ATOM     65 HH   TYR B   2       6.118  10.212   4.364  1.00 37.21 LIG 0.22  HD
ENDBRANCH 61 64
ENDBRANCH 57 58
ENDBRANCH 55 57
ENDBRANCH 52 55
ENDBRANCH 50 51
ENDBRANCH 45 50
ENDBRANCH 40 43
ENDBRANCH 1 39
TORSDOF 22
ENDMDL
MODEL 14
USER: ADFR SOLUTION from run 130
USER: SCORE 17.531882 LL:  -3.514 LR: -15.501 RR:   0.000 FEB:  -8.939
USER: RMSD 13.316065
USER: SEED 129
USER: STATUS no improvement in best in 6 clusters for 5 generations
USER: GENES 24
USER: genes 0 Translation |==|  0.42786 0.48137 0.64887
USER: genes 1 Rotation |==|  0.36257 0.97622 0.43452 0.50649
USER: genes 2 Torsion [C]-CA--CB-[CG] |==|  0.35935
USER: genes 3 Torsion [CA]-CB--CG-[CD] |==|  0.21197
USER: genes 4 Torsion [CB]-CG--CD-[CE] |==|  0.15852
USER: genes 5 Torsion [CG]-CD--CE-[NZ] |==|  0.76212
USER: genes 6 Torsion [CD]-CE--NZ-[HZ3] |==|  0.10926
USER: genes 7 Torsion [N]-CA--C-[N] |==|  0.27992
USER: genes 8 Torsion [C]-N--CA-[C] |==|  0.81075
USER: genes 9 Torsion [N]-CA--C-[N] |==|  0.40948
USER: genes 10 Torsion [C]-N--CA-[C] |==|  0.60943
USER: genes 11 Torsion [N]-CA--C-[O] |==|  0.33503
USER: genes 12 Torsion [N]-CA--CB-[CG] |==|  0.33051
USER: genes 13 Torsion [CA]-CB--CG-[ND2] |==|  0.77858
USER: genes 14 Torsion [N]-CA--CB-[CG] |==|  0.29214
USER: genes 15 Torsion [CA]-CB--CG-[CD2] |==|  0.79978
USER: genes 16 Torsion [CB]-CA--N-[C] |==|  0.26540
USER: genes 17 Torsion [N]-C--CA-[CB] |==|  0.87754
USER: genes 18 Torsion [N]-C--CA-[N] |==|  0.51229
USER: genes 19 Torsion [C]-CA--N-[C] |==|  0.55005
USER: genes 20 Torsion [N]-C--CA-[N] |==|  0.68571
USER: genes 21 Torsion [C]-CA--CB-[CG] |==|  0.39859
USER: genes 22 Torsion [CA]-CB--CG-[CD1] |==|  0.77055
USER: genes 23 Torsion [CE1]-CZ--OH-[HH] |==|  0.63283
ROOT
ATOM      1  CA  LYS B   5      -5.714   4.461   0.558  1.00 42.36 LIG 0.18  C 
ENDROOT
BRANCH 1 2
ATOM      2  CB  LYS B   5      -5.756   5.096   1.957  1.00 43.80 LIG 0.04  C 
BRANCH 2 3
ATOM      3  CG  LYS B   5      -4.825   4.437   3.004  1.00 49.23 LIG 0.00  C 
BRANCH 3 4
ATOM      4  CD  LYS B   5      -3.352   4.817   2.824  1.00 48.54 LIG 0.03  C 
BRANCH 4 5
ATOM      5  CE  LYS B   5      -3.160   6.324   2.875  1.00 43.92 LIG 0.23  C 
BRANCH 5 6
ATOM      6  NZ  LYS B   5      -3.388   6.903   1.530  1.00 45.51 LIG-0.08  N 
ATOM      7 HZ3  LYS B   5      -4.073   6.488   1.139  1.00 45.51 LIG 0.27  HD
ATOM      8 HZ1  LYS B   5      -3.573   7.770   1.607  1.00 45.51 LIG 0.27  HD
ATOM      9 HZ2  LYS B   5      -2.657   6.799   1.033  1.00 45.51 LIG 0.27  HD
ENDBRANCH 5 6
ENDBRANCH 4 5
ENDBRANCH 3 4
ENDBRANCH 2 3
ENDBRANCH 1 2
BRANCH 1 10
ATOM     10  C   LYS B   5      -7.135   4.156   0.083  1.00 41.24 LIG 0.24  C 
ATOM     11  N   TRP B   6      -7.324   2.976  -0.510  1.00 42.23 LIG-0.35  N 
ATOM     12 H    TRP B   6      -6.698   2.410  -0.675  1.00 42.23 LIG 0.16  HD
ATOM     13 O    LYS B   5      -8.050   4.969   0.239  1.00 40.50 LIG-0.27  OA
BRANCH 11 14
ATOM     14  CA  TRP B   6      -8.657   2.557  -0.933  1.00 42.54 LIG 0.18  C 
BRANCH 14 15
ATOM     15  C   TRP B   6      -9.523   2.304   0.300  1.00 45.00 LIG 0.24  C 
ATOM     16 O    TRP B   6      -9.013   1.875   1.344  1.00 46.85 LIG-0.27  OA
ATOM     17  N   ASN B   7     -10.828   2.574   0.175  1.00 47.11 LIG-0.35  N 
ATOM     18 H    ASN B   7     -11.158   2.996  -0.498  1.00 47.11 LIG 0.16  HD
BRANCH 17 19
ATOM     19  CA  ASN B   7     -11.834   2.176   1.175  1.00 45.24 LIG 0.17  C 
BRANCH 19 20
ATOM     20  C   ASN B   7     -13.106   1.709   0.472  1.00 46.26 LIG 0.22  C 
ATOM     21 O    ASN B   7     -13.535   0.565   0.649  1.00 44.70 LIG-0.29  OA
ENDBRANCH 19 20
BRANCH 19 22
ATOM     22  CB  ASN B   7     -12.188   3.324   2.136  1.00 46.57 LIG 0.14  C 
BRANCH 22 23
ATOM     23  CG  ASN B   7     -13.660   3.723   2.076  1.00 48.94 LIG 0.22  C 
ATOM     24  ND2 ASN B   7     -14.024   4.509   1.064  1.00 48.79 LIG-0.37  N 
ATOM     25 21HD ASN B   7     -14.843   4.764   0.990  1.00 48.79 LIG 0.16  HD
ATOM     26 22HD ASN B   7     -13.442   4.762   0.484  1.00 48.79 LIG 0.16  HD
ATOM     27 OD1  ASN B   7     -14.454   3.335   2.929  1.00 52.21 LIG-0.27  OA
ENDBRANCH 22 23
ENDBRANCH 19 22
ENDBRANCH 17 19
ENDBRANCH 14 15
BRANCH 14 28
ATOM     28  CB  TRP B   6      -8.616   1.305  -1.815  1.00 42.47 LIG 0.07  C 
BRANCH 28 29
ATOM     29  CG  TRP B   6      -9.076   0.073  -1.049  1.00 46.30 LIG-0.03  A 
ATOM     30  CD1 TRP B   6     -10.247  -0.624  -1.236  1.00 49.14 LIG 0.10  A 
ATOM     31  NE1 TRP B   6     -10.304  -1.700  -0.378  1.00 51.13 LIG-0.36  N 
ATOM     32 HE1  TRP B   6     -10.948  -2.267  -0.329  1.00 51.13 LIG 0.17  HD
ATOM     33  CE2 TRP B   6      -9.165  -1.720   0.387  1.00 47.23 LIG 0.04  A 
ATOM     34  CZ2 TRP B   6      -8.771  -2.612   1.392  1.00 46.28 LIG 0.03  A 
ATOM     35  CD2 TRP B   6      -8.365  -0.623  -0.009  1.00 41.81 LIG-0.00  A 
ATOM     36  CH2 TRP B   6      -7.559  -2.389   2.000  1.00 44.17 LIG 0.00  A 
ATOM     37  CZ3 TRP B   6      -6.749  -1.310   1.638  1.00 33.54 LIG 0.00  A 
ATOM     38  CE3 TRP B   6      -7.140  -0.419   0.633  1.00 38.27 LIG 0.01  A 
ENDBRANCH 28 29
ENDBRANCH 14 28
ENDBRANCH 11 14
ENDBRANCH 1 10
BRANCH 1 39
ATOM     39  N   LYS B   5      -5.038   5.344  -0.389  1.00 39.73 LIG-0.35  N 
ATOM     40  C   PRO B   4      -3.746   5.235  -0.694  1.00 35.29 LIG 0.24  C 
ATOM     41 O    PRO B   4      -3.006   4.390  -0.191  1.00 36.70 LIG-0.27  OA
ATOM     42 H    LYS B   5      -5.553   5.942  -0.731  1.00 39.73 LIG 0.16  HD
BRANCH 40 43
ATOM     43  CA  PRO B   4      -3.229   6.222  -1.724  1.00 31.05 LIG 0.18  C 
ATOM     44  N   PRO B   4      -2.010   5.731  -2.365  1.00 34.55 LIG-0.34  N 
ATOM     45  C   GLY B   3      -0.833   5.850  -1.751  1.00 37.27 LIG 0.24  C 
ATOM     46  CD  PRO B   4      -2.269   5.262  -3.738  1.00 31.08 LIG 0.13  C 
ATOM     47 O    GLY B   3      -0.738   6.324  -0.614  1.00 44.84 LIG-0.27  OA
ATOM     48  CG  PRO B   4      -3.775   5.266  -3.827  1.00 26.25 LIG 0.02  C 
ATOM     49  CB  PRO B   4      -4.203   6.355  -2.899  1.00 27.99 LIG 0.04  C 
BRANCH 45 50
ATOM     50  CA  GLY B   3       0.388   5.360  -2.498  1.00 35.98 LIG 0.23  C 
BRANCH 50 51
ATOM     51  N   GLY B   3       1.574   5.454  -1.680  1.00 37.88 LIG-0.35  N 
ATOM     52  C   TYR B   2       2.800   5.423  -2.196  1.00 38.85 LIG 0.26  C 
ATOM     53 O    TYR B   2       3.026   5.407  -3.408  1.00 37.42 LIG-0.27  OA
ATOM     54 H    GLY B   3       1.414   5.530  -0.838  1.00 37.88 LIG 0.16  HD
BRANCH 52 55
ATOM     55  CA  TYR B   2       3.947   5.430  -1.191  1.00 47.59 LIG 0.40  C 
ATOM     56  N   TYR B   2       4.704   6.678  -1.291  1.00 42.90 LIG 0.61  N 
BRANCH 55 57
ATOM     57  CB  TYR B   2       3.402   5.233   0.226  1.00 41.46 LIG 0.09  C 
BRANCH 57 58
ATOM     58  CG  TYR B   2       4.287   4.391   1.141  1.00 40.04 LIG-0.06  A 
ATOM     59  CD1 TYR B   2       4.237   3.005   1.099  1.00 39.56 LIG 0.01  A 
ATOM     60  CE1 TYR B   2       5.040   2.226   1.922  1.00 39.46 LIG 0.04  A 
ATOM     61  CZ  TYR B   2       5.910   2.831   2.801  1.00 36.77 LIG 0.07  A 
ATOM     62  CE2 TYR B   2       5.982   4.211   2.865  1.00 30.56 LIG 0.04  A 
ATOM     63  CD2 TYR B   2       5.173   4.984   2.038  1.00 33.12 LIG 0.01  A 
BRANCH 61 64
ATOM     64 OH   TYR B   2       6.705   2.033   3.609  1.00 37.21 LIG-0.36  OA
ATOM     65 HH   TYR B   2       6.664   2.308   4.403  1.00 37.21 LIG 0.22  HD
ENDBRANCH 61 64
ENDBRANCH 57 58
ENDBRANCH 55 57
ENDBRANCH 52 55
ENDBRANCH 50 51
ENDBRANCH 45 50
ENDBRANCH 40 43
ENDBRANCH 1 39
TORSDOF 22
ENDMDL
MODEL 15
USER: ADFR SOLUTION from run 169
USER: SCORE 17.714669 LL:  -4.316 LR: -15.492 RR:   0.000 FEB:  -8.930
USER: RMSD 14.537991
USER: SEED 168
USER: STATUS no improvement in best in 15 clusters for 5 generations
USER: GENES 24
USER: genes 0 Translation |==|  0.34645 0.35087 0.55259
USER: genes 1 Rotation |==|  0.38356 0.97218 0.61078 0.53483
USER: genes 2 Torsion [C]-CA--CB-[CG] |==|  0.35279
USER: genes 3 Torsion [CA]-CB--CG-[CD] |==|  0.76647
USER: genes 4 Torsion [CB]-CG--CD-[CE] |==|  0.71941
USER: genes 5 Torsion [CG]-CD--CE-[NZ] |==|  0.24002
USER: genes 6 Torsion [CD]-CE--NZ-[HZ3] |==|  0.84270
USER: genes 7 Torsion [N]-CA--C-[N] |==|  0.69147
USER: genes 8 Torsion [C]-N--CA-[C] |==|  0.55556
USER: genes 9 Torsion [N]-CA--C-[N] |==|  0.36229
USER: genes 10 Torsion [C]-N--CA-[C] |==|  0.13692
USER: genes 11 Torsion [N]-CA--C-[O] |==|  0.39279
USER: genes 12 Torsion [N]-CA--CB-[CG] |==|  0.32138
USER: genes 13 Torsion [CA]-CB--CG-[ND2] |==|  0.80599
USER: genes 14 Torsion [N]-CA--CB-[CG] |==|  0.33013
USER: genes 15 Torsion [CA]-CB--CG-[CD2] |==|  0.24983
USER: genes 16 Torsion [CB]-CA--N-[C] |==|  0.20017
USER: genes 17 Torsion [N]-C--CA-[CB] |==|  0.92656
USER: genes 18 Torsion [N]-C--CA-[N] |==|  0.23490
USER: genes 19 Torsion [C]-CA--N-[C] |==|  0.69530
USER: genes 20 Torsion [N]-C--CA-[N] |==|  0.40578
USER: genes 21 Torsion [C]-CA--CB-[CG] |==|  0.85885
USER: genes 22 Torsion [CA]-CB--CG-[CD1] |==|  0.80892
USER: genes 23 Torsion [CE1]-CZ--OH-[HH] |==|  0.05892
ROOT
ATOM      1  CA  LYS B   5      -8.157   1.916  -1.103  1.00 42.36 LIG 0.18  C 
ENDROOT
BRANCH 1 2
ATOM      2  CB  LYS B   5      -8.079   1.474   0.367  1.00 43.80 LIG 0.04  C 
BRANCH 2 3
ATOM      3  CG  LYS B   5      -7.191   0.233   0.633  1.00 49.23 LIG 0.00  C 
BRANCH 3 4
ATOM      4  CD  LYS B   5      -7.924  -1.092   0.402  1.00 48.54 LIG 0.03  C 
BRANCH 4 5
ATOM      5  CE  LYS B   5      -8.371  -1.711   1.715  1.00 43.92 LIG 0.23  C 
BRANCH 5 6
ATOM      6  NZ  LYS B   5      -9.694  -1.163   2.102  1.00 45.51 LIG-0.08  N 
ATOM      7 HZ3  LYS B   5      -9.645  -0.276   2.151  1.00 45.51 LIG 0.27  HD
ATOM      8 HZ1  LYS B   5     -10.300  -1.394   1.494  1.00 45.51 LIG 0.27  HD
ATOM      9 HZ2  LYS B   5      -9.931  -1.491   2.895  1.00 45.51 LIG 0.27  HD
ENDBRANCH 5 6
ENDBRANCH 4 5
ENDBRANCH 3 4
ENDBRANCH 2 3
ENDBRANCH 1 2
BRANCH 1 10
ATOM     10  C   LYS B   5      -9.619   2.031  -1.534  1.00 41.24 LIG 0.24  C 
ATOM     11  N   TRP B   6     -10.531   1.972  -0.563  1.00 42.23 LIG-0.35  N 
ATOM     12 H    TRP B   6     -10.350   1.833   0.266  1.00 42.23 LIG 0.16  HD
ATOM     13 O    LYS B   5      -9.927   2.164  -2.722  1.00 40.50 LIG-0.27  OA
BRANCH 11 14
ATOM     14  CA  TRP B   6     -11.951   2.147  -0.859  1.00 42.54 LIG 0.18  C 
BRANCH 14 15
ATOM     15  C   TRP B   6     -12.692   2.527   0.421  1.00 45.00 LIG 0.24  C 
ATOM     16 O    TRP B   6     -12.527   1.869   1.458  1.00 46.85 LIG-0.27  OA
ATOM     17  N   ASN B   7     -13.503   3.589   0.344  1.00 47.11 LIG-0.35  N 
ATOM     18 H    ASN B   7     -13.515   4.124  -0.329  1.00 47.11 LIG 0.16  HD
BRANCH 17 19
ATOM     19  CA  ASN B   7     -14.459   3.953   1.405  1.00 45.24 LIG 0.17  C 
BRANCH 19 20
ATOM     20  C   ASN B   7     -13.753   3.959   2.758  1.00 46.26 LIG 0.22  C 
ATOM     21 O    ASN B   7     -14.023   4.819   3.601  1.00 44.70 LIG-0.29  OA
ENDBRANCH 19 20
BRANCH 19 22
ATOM     22  CB  ASN B   7     -15.654   2.986   1.471  1.00 46.57 LIG 0.14  C 
BRANCH 22 23
ATOM     23  CG  ASN B   7     -15.720   2.202   2.778  1.00 48.94 LIG 0.22  C 
ATOM     24  ND2 ASN B   7     -14.777   1.279   2.968  1.00 48.79 LIG-0.37  N 
ATOM     25 21HD ASN B   7     -14.775   0.809   3.688  1.00 48.79 LIG 0.16  HD
ATOM     26 22HD ASN B   7     -14.172   1.153   2.371  1.00 48.79 LIG 0.16  HD
ATOM     27 OD1  ASN B   7     -16.605   2.419   3.601  1.00 52.21 LIG-0.27  OA
ENDBRANCH 22 23
ENDBRANCH 19 22
ENDBRANCH 17 19
ENDBRANCH 14 15
BRANCH 14 28
ATOM     28  CB  TRP B   6     -12.571   0.889  -1.475  1.00 42.47 LIG 0.07  C 
BRANCH 28 29
ATOM     29  CG  TRP B   6     -13.688   0.338  -0.600  1.00 46.30 LIG-0.03  A 
ATOM     30  CD1 TRP B   6     -13.558  -0.560   0.434  1.00 49.14 LIG 0.10  A 
ATOM     31  NE1 TRP B   6     -14.785  -0.801   1.013  1.00 51.13 LIG-0.36  N 
ATOM     32 HE1  TRP B   6     -14.929  -1.329   1.675  1.00 51.13 LIG 0.17  HD
ATOM     33  CE2 TRP B   6     -15.738  -0.062   0.360  1.00 47.23 LIG 0.04  A 
ATOM     34  CZ2 TRP B   6     -17.118   0.024   0.581  1.00 46.28 LIG 0.03  A 
ATOM     35  CD2 TRP B   6     -15.087   0.672  -0.659  1.00 41.81 LIG-0.00  A 
ATOM     36  CH2 TRP B   6     -17.842   0.858  -0.238  1.00 44.17 LIG 0.00  A 
ATOM     37  CZ3 TRP B   6     -17.230   1.590  -1.258  1.00 33.54 LIG 0.00  A 
ATOM     38  CE3 TRP B   6     -15.851   1.507  -1.479  1.00 38.27 LIG 0.01  A 
ENDBRANCH 28 29
ENDBRANCH 14 28
ENDBRANCH 11 14
ENDBRANCH 1 10
BRANCH 1 39
ATOM     39  N   LYS B   5      -7.467   3.189  -1.295  1.00 39.73 LIG-0.35  N 
ATOM     40  C   PRO B   4      -6.141   3.313  -1.261  1.00 35.29 LIG 0.24  C 
ATOM     41 O    PRO B   4      -5.382   2.367  -1.047  1.00 36.70 LIG-0.27  OA
ATOM     42 H    LYS B   5      -7.997   3.852  -1.433  1.00 39.73 LIG 0.16  HD
BRANCH 40 43
ATOM     43  CA  PRO B   4      -5.604   4.709  -1.516  1.00 31.05 LIG 0.18  C 
ATOM     44  N   PRO B   4      -4.397   4.674  -2.340  1.00 34.55 LIG-0.34  N 
ATOM     45  C   GLY B   3      -3.217   4.388  -1.791  1.00 37.27 LIG 0.24  C 
ATOM     46  CD  PRO B   4      -4.670   5.111  -3.722  1.00 31.08 LIG 0.13  C 
ATOM     47 O    GLY B   3      -3.109   4.096  -0.596  1.00 44.84 LIG-0.27  OA
ATOM     48  CG  PRO B   4      -6.175   5.191  -3.769  1.00 26.25 LIG 0.02  C 
ATOM     49  CB  PRO B   4      -6.578   5.527  -2.371  1.00 27.99 LIG 0.04  C 
BRANCH 45 50
ATOM     50  CA  GLY B   3      -2.008   4.414  -2.701  1.00 35.98 LIG 0.23  C 
BRANCH 50 51
ATOM     51  N   GLY B   3      -1.483   5.753  -2.832  1.00 37.88 LIG-0.35  N 
ATOM     52  C   TYR B   2      -1.583   6.450  -3.960  1.00 38.85 LIG 0.26  C 
ATOM     53 O    TYR B   2      -2.208   6.058  -4.949  1.00 37.42 LIG-0.27  OA
ATOM     54 H    GLY B   3      -1.103   6.052  -2.120  1.00 37.88 LIG 0.16  HD
BRANCH 52 55
ATOM     55  CA  TYR B   2      -0.888   7.808  -3.969  1.00 47.59 LIG 0.40  C 
ATOM     56  N   TYR B   2      -0.364   8.103  -5.303  1.00 42.90 LIG 0.61  N 
BRANCH 55 57
ATOM     57  CB  TYR B   2      -1.862   8.896  -3.510  1.00 41.46 LIG 0.09  C 
BRANCH 57 58
ATOM     58  CG  TYR B   2      -3.206   8.900  -4.234  1.00 40.04 LIG-0.06  A 
ATOM     59  CD1 TYR B   2      -3.290   9.257  -5.572  1.00 39.56 LIG 0.01  A 
ATOM     60  CE1 TYR B   2      -4.504   9.261  -6.247  1.00 39.46 LIG 0.04  A 
ATOM     61  CZ  TYR B   2      -5.657   8.901  -5.583  1.00 36.77 LIG 0.07  A 
ATOM     62  CE2 TYR B   2      -5.603   8.540  -4.249  1.00 30.56 LIG 0.04  A 
ATOM     63  CD2 TYR B   2      -4.383   8.540  -3.581  1.00 33.12 LIG 0.01  A 
BRANCH 61 64
ATOM     64 OH   TYR B   2      -6.856   8.907  -6.277  1.00 37.21 LIG-0.36  OA
ATOM     65 HH   TYR B   2      -6.703   8.857  -7.102  1.00 37.21 LIG 0.22  HD
ENDBRANCH 61 64
ENDBRANCH 57 58
ENDBRANCH 55 57
ENDBRANCH 52 55
ENDBRANCH 50 51
ENDBRANCH 45 50
ENDBRANCH 40 43
ENDBRANCH 1 39
TORSDOF 22
ENDMDL
MODEL 16
USER: ADFR SOLUTION from run 20
USER: SCORE 18.309425 LL:  -3.396 LR: -15.478 RR:   0.000 FEB:  -8.915
USER: RMSD 12.181364
USER: SEED 19
USER: STATUS no improvement in best in 6 clusters for 5 generations
USER: GENES 24
USER: genes 0 Translation |==|  0.41806 0.47313 0.66867
USER: genes 1 Rotation |==|  0.45733 0.94541 0.27716 0.51159
USER: genes 2 Torsion [C]-CA--CB-[CG] |==|  0.61054
USER: genes 3 Torsion [CA]-CB--CG-[CD] |==|  0.74789
USER: genes 4 Torsion [CB]-CG--CD-[CE] |==|  0.13314
USER: genes 5 Torsion [CG]-CD--CE-[NZ] |==|  0.77523
USER: genes 6 Torsion [CD]-CE--NZ-[HZ3] |==|  0.53961
USER: genes 7 Torsion [N]-CA--C-[N] |==|  0.23377
USER: genes 8 Torsion [C]-N--CA-[C] |==|  0.72559
USER: genes 9 Torsion [N]-CA--C-[N] |==|  0.45234
USER: genes 10 Torsion [C]-N--CA-[C] |==|  0.71983
USER: genes 11 Torsion [N]-CA--C-[O] |==|  0.58765
USER: genes 12 Torsion [N]-CA--CB-[CG] |==|  0.58620
USER: genes 13 Torsion [CA]-CB--CG-[ND2] |==|  0.83165
USER: genes 14 Torsion [N]-CA--CB-[CG] |==|  0.26109
USER: genes 15 Torsion [CA]-CB--CG-[CD2] |==|  0.81519
USER: genes 16 Torsion [CB]-CA--N-[C] |==|  0.78868
USER: genes 17 Torsion [N]-C--CA-[CB] |==|  0.92539
USER: genes 18 Torsion [N]-C--CA-[N] |==|  0.56739
USER: genes 19 Torsion [C]-CA--N-[C] |==|  0.19530
USER: genes 20 Torsion [N]-C--CA-[N] |==|  0.07202
USER: genes 21 Torsion [C]-CA--CB-[CG] |==|  0.33564
USER: genes 22 Torsion [CA]-CB--CG-[CD1] |==|  0.07514
USER: genes 23 Torsion [CE1]-CZ--OH-[HH] |==|  0.41585
ROOT
ATOM      1  CA  LYS B   5      -6.008   4.300   0.900  1.00 42.36 LIG 0.18  C 
ENDROOT
BRANCH 1 2
ATOM      2  CB  LYS B   5      -5.979   5.638   1.655  1.00 43.80 LIG 0.04  C 
BRANCH 2 3
ATOM      3  CG  LYS B   5      -4.644   6.416   1.561  1.00 49.23 LIG 0.00  C 
BRANCH 3 4
ATOM      4  CD  LYS B   5      -3.665   6.071   2.687  1.00 48.54 LIG 0.03  C 
BRANCH 4 5
ATOM      5  CE  LYS B   5      -3.536   4.568   2.865  1.00 43.92 LIG 0.23  C 
BRANCH 5 6
ATOM      6  NZ  LYS B   5      -4.674   4.059   3.667  1.00 45.51 LIG-0.08  N 
ATOM      7 HZ3  LYS B   5      -4.496   3.232   3.945  1.00 45.51 LIG 0.27  HD
ATOM      8 HZ1  LYS B   5      -4.801   4.587   4.372  1.00 45.51 LIG 0.27  HD
ATOM      9 HZ2  LYS B   5      -5.411   4.052   3.167  1.00 45.51 LIG 0.27  HD
ENDBRANCH 5 6
ENDBRANCH 4 5
ENDBRANCH 3 4
ENDBRANCH 2 3
ENDBRANCH 1 2
BRANCH 1 10
ATOM     10  C   LYS B   5      -7.365   4.116   0.219  1.00 41.24 LIG 0.24  C 
ATOM     11  N   TRP B   6      -7.757   2.860   0.004  1.00 42.23 LIG-0.35  N 
ATOM     12 H    TRP B   6      -7.282   2.165   0.183  1.00 42.23 LIG 0.16  HD
ATOM     13 O    LYS B   5      -8.050   5.087  -0.114  1.00 40.50 LIG-0.27  OA
BRANCH 11 14
ATOM     14  CA  TRP B   6      -9.069   2.574  -0.570  1.00 42.54 LIG 0.18  C 
BRANCH 14 15
ATOM     15  C   TRP B   6     -10.043   2.210   0.548  1.00 45.00 LIG 0.24  C 
ATOM     16 O    TRP B   6      -9.619   1.886   1.666  1.00 46.85 LIG-0.27  OA
ATOM     17  N   ASN B   7     -11.346   2.268   0.244  1.00 47.11 LIG-0.35  N 
ATOM     18 H    ASN B   7     -11.643   2.620  -0.482  1.00 47.11 LIG 0.16  HD
BRANCH 17 19
ATOM     19  CA  ASN B   7     -12.403   1.734   1.120  1.00 45.24 LIG 0.17  C 
BRANCH 19 20
ATOM     20  C   ASN B   7     -12.866   0.375   0.603  1.00 46.26 LIG 0.22  C 
ATOM     21 O    ASN B   7     -14.035   0.010   0.761  1.00 44.70 LIG-0.29  OA
ENDBRANCH 19 20
BRANCH 19 22
ATOM     22  CB  ASN B   7     -13.618   2.674   1.208  1.00 46.57 LIG 0.14  C 
BRANCH 22 23
ATOM     23  CG  ASN B   7     -14.335   2.603   2.553  1.00 48.94 LIG 0.22  C 
ATOM     24  ND2 ASN B   7     -14.841   1.419   2.898  1.00 48.79 LIG-0.37  N 
ATOM     25 21HD ASN B   7     -15.257   1.330   3.645  1.00 48.79 LIG 0.16  HD
ATOM     26 22HD ASN B   7     -14.751   0.744   2.373  1.00 48.79 LIG 0.16  HD
ATOM     27 OD1  ASN B   7     -14.436   3.596   3.268  1.00 52.21 LIG-0.27  OA
ENDBRANCH 22 23
ENDBRANCH 19 22
ENDBRANCH 17 19
ENDBRANCH 14 15
BRANCH 14 28
ATOM     28  CB  TRP B   6      -9.012   1.448  -1.608  1.00 42.47 LIG 0.07  C 
BRANCH 28 29
ATOM     29  CG  TRP B   6      -9.328   0.099  -0.978  1.00 46.30 LIG-0.03  A 
ATOM     30  CD1 TRP B   6     -10.408  -0.706  -1.253  1.00 49.14 LIG 0.10  A 
ATOM     31  NE1 TRP B   6     -10.342  -1.864  -0.510  1.00 51.13 LIG-0.36  N 
ATOM     32 HE1  TRP B   6     -10.916  -2.503  -0.529  1.00 51.13 LIG 0.17  HD
ATOM     33  CE2 TRP B   6      -9.212  -1.830   0.266  1.00 47.23 LIG 0.04  A 
ATOM     34  CZ2 TRP B   6      -8.720  -2.769   1.181  1.00 46.28 LIG 0.03  A 
ATOM     35  CD2 TRP B   6      -8.544  -0.613  -0.003  1.00 41.81 LIG-0.00  A 
ATOM     36  CH2 TRP B   6      -7.544  -2.471   1.828  1.00 44.17 LIG 0.00  A 
ATOM     37  CZ3 TRP B   6      -6.864  -1.274   1.590  1.00 33.54 LIG 0.00  A 
ATOM     38  CE3 TRP B   6      -7.354  -0.336   0.674  1.00 38.27 LIG 0.01  A 
ENDBRANCH 28 29
ENDBRANCH 14 28
ENDBRANCH 11 14
ENDBRANCH 1 10
BRANCH 1 39
ATOM     39  N   LYS B   5      -4.932   4.242  -0.086  1.00 39.73 LIG-0.35  N 
ATOM     40  C   PRO B   4      -4.971   4.892  -1.248  1.00 35.29 LIG 0.24  C 
ATOM     41 O    PRO B   4      -5.926   5.585  -1.599  1.00 36.70 LIG-0.27  OA
ATOM     42 H    LYS B   5      -4.270   3.749   0.155  1.00 39.73 LIG 0.16  HD
BRANCH 40 43
ATOM     43  CA  PRO B   4      -3.744   4.738  -2.128  1.00 31.05 LIG 0.18  C 
ATOM     44  N   PRO B   4      -3.404   5.996  -2.792  1.00 34.55 LIG-0.34  N 
ATOM     45  C   GLY B   3      -4.064   6.379  -3.885  1.00 37.27 LIG 0.24  C 
ATOM     46  CD  PRO B   4      -2.221   6.630  -2.182  1.00 31.08 LIG 0.13  C 
ATOM     47 O    GLY B   3      -5.006   5.722  -4.339  1.00 44.84 LIG-0.27  OA
ATOM     48  CG  PRO B   4      -1.989   5.807  -0.939  1.00 26.25 LIG 0.02  C 
ATOM     49  CB  PRO B   4      -2.496   4.447  -1.289  1.00 27.99 LIG 0.04  C 
BRANCH 45 50
ATOM     50  CA  GLY B   3      -3.624   7.670  -4.540  1.00 35.98 LIG 0.23  C 
BRANCH 50 51
ATOM     51  N   GLY B   3      -4.696   8.256  -5.310  1.00 37.88 LIG-0.35  N 
ATOM     52  C   TYR B   2      -5.768   8.799  -4.740  1.00 38.85 LIG 0.26  C 
ATOM     53 O    TYR B   2      -5.896   8.932  -3.521  1.00 37.42 LIG-0.27  OA
ATOM     54 H    GLY B   3      -4.575   8.221  -6.161  1.00 37.88 LIG 0.16  HD
BRANCH 52 55
ATOM     55  CA  TYR B   2      -6.856   9.284  -5.693  1.00 47.59 LIG 0.40  C 
ATOM     56  N   TYR B   2      -6.803   8.538  -6.950  1.00 42.90 LIG 0.61  N 
BRANCH 55 57
ATOM     57  CB  TYR B   2      -8.230   9.144  -5.030  1.00 41.46 LIG 0.09  C 
BRANCH 57 58
ATOM     58  CG  TYR B   2      -9.010  10.449  -4.893  1.00 40.04 LIG-0.06  A 
ATOM     59  CD1 TYR B   2      -8.800  11.498  -5.778  1.00 39.56 LIG 0.01  A 
ATOM     60  CE1 TYR B   2      -9.506  12.689  -5.669  1.00 39.46 LIG 0.04  A 
ATOM     61  CZ  TYR B   2     -10.439  12.843  -4.667  1.00 36.77 LIG 0.07  A 
ATOM     62  CE2 TYR B   2     -10.669  11.815  -3.771  1.00 30.56 LIG 0.04  A 
ATOM     63  CD2 TYR B   2      -9.957  10.625  -3.886  1.00 33.12 LIG 0.01  A 
BRANCH 61 64
ATOM     64 OH   TYR B   2     -11.134  14.039  -4.581  1.00 37.21 LIG-0.36  OA
ATOM     65 HH   TYR B   2     -11.898  13.898  -4.260  1.00 37.21 LIG 0.22  HD
ENDBRANCH 61 64
ENDBRANCH 57 58
ENDBRANCH 55 57
ENDBRANCH 52 55
ENDBRANCH 50 51
ENDBRANCH 45 50
ENDBRANCH 40 43
ENDBRANCH 1 39
TORSDOF 22
ENDMDL
MODEL 17
USER: ADFR SOLUTION from run 161
USER: SCORE 17.643169 LL:  -3.691 LR: -15.462 RR:   0.000 FEB:  -8.899
USER: RMSD 12.034598
USER: SEED 160
USER: STATUS no improvement in best in 11 clusters for 5 generations
USER: GENES 24
USER: genes 0 Translation |==|  0.54528 0.52563 0.54534
USER: genes 1 Rotation |==|  0.54181 0.21092 0.90581 0.50050
USER: genes 2 Torsion [C]-CA--CB-[CG] |==|  0.79844
USER: genes 3 Torsion [CA]-CB--CG-[CD] |==|  0.51948
USER: genes 4 Torsion [CB]-CG--CD-[CE] |==|  0.86477
USER: genes 5 Torsion [CG]-CD--CE-[NZ] |==|  0.45883
USER: genes 6 Torsion [CD]-CE--NZ-[HZ3] |==|  0.91907
USER: genes 7 Torsion [N]-CA--C-[N] |==|  0.62256
USER: genes 8 Torsion [C]-N--CA-[C] |==|  0.64242
USER: genes 9 Torsion [N]-CA--C-[N] |==|  0.59567
USER: genes 10 Torsion [C]-N--CA-[C] |==|  0.19968
USER: genes 11 Torsion [N]-CA--C-[O] |==|  0.04714
USER: genes 12 Torsion [N]-CA--CB-[CG] |==|  0.85403
USER: genes 13 Torsion [CA]-CB--CG-[ND2] |==|  0.84834
USER: genes 14 Torsion [N]-CA--CB-[CG] |==|  0.82512
USER: genes 15 Torsion [CA]-CB--CG-[CD2] |==|  0.19907
USER: genes 16 Torsion [CB]-CA--N-[C] |==|  0.17210
USER: genes 17 Torsion [N]-C--CA-[CB] |==|  0.99791
USER: genes 18 Torsion [N]-C--CA-[N] |==|  0.43889
USER: genes 19 Torsion [C]-CA--N-[C] |==|  0.24214
USER: genes 20 Torsion [N]-C--CA-[N] |==|  0.28377
USER: genes 21 Torsion [C]-CA--CB-[CG] |==|  0.71198
USER: genes 22 Torsion [CA]-CB--CG-[CD1] |==|  0.16446
USER: genes 23 Torsion [CE1]-CZ--OH-[HH] |==|  0.99536
ROOT
ATOM      1  CA  LYS B   5      -2.192   5.324  -1.228  1.00 42.36 LIG 0.18  C 
ENDROOT
BRANCH 1 2
ATOM      2  CB  LYS B   5      -2.182   6.702  -1.907  1.00 43.80 LIG 0.04  C 
BRANCH 2 3
ATOM      3  CG  LYS B   5      -2.057   6.672  -3.451  1.00 49.23 LIG 0.00  C 
BRANCH 3 4
ATOM      4  CD  LYS B   5      -1.880   8.063  -4.068  1.00 48.54 LIG 0.03  C 
BRANCH 4 5
ATOM      5  CE  LYS B   5      -2.908   9.041  -3.526  1.00 43.92 LIG 0.23  C 
BRANCH 5 6
ATOM      6  NZ  LYS B   5      -2.501  10.429  -3.855  1.00 45.51 LIG-0.08  N 
ATOM      7 HZ3  LYS B   5      -1.613  10.474  -3.905  1.00 45.51 LIG 0.27  HD
ATOM      8 HZ1  LYS B   5      -2.854  10.665  -4.636  1.00 45.51 LIG 0.27  HD
ATOM      9 HZ2  LYS B   5      -2.790  10.982  -3.220  1.00 45.51 LIG 0.27  HD
ENDBRANCH 5 6
ENDBRANCH 4 5
ENDBRANCH 3 4
ENDBRANCH 2 3
ENDBRANCH 1 2
BRANCH 1 10
ATOM     10  C   LYS B   5      -3.524   4.622  -1.494  1.00 41.24 LIG 0.24  C 
ATOM     11  N   TRP B   6      -4.507   5.379  -1.984  1.00 42.23 LIG-0.35  N 
ATOM     12 H    TRP B   6      -4.448   6.227  -2.115  1.00 42.23 LIG 0.16  HD
ATOM     13 O    LYS B   5      -3.672   3.420  -1.257  1.00 40.50 LIG-0.27  OA
BRANCH 11 14
ATOM     14  CA  TRP B   6      -5.794   4.791  -2.343  1.00 42.54 LIG 0.18  C 
BRANCH 14 15
ATOM     15  C   TRP B   6      -6.164   5.212  -3.764  1.00 45.00 LIG 0.24  C 
ATOM     16 O    TRP B   6      -5.283   5.355  -4.623  1.00 46.85 LIG-0.27  OA
ATOM     17  N   ASN B   7      -7.467   5.405  -4.007  1.00 47.11 LIG-0.35  N 
ATOM     18 H    ASN B   7      -8.086   5.176  -3.456  1.00 47.11 LIG 0.16  HD
BRANCH 17 19
ATOM     19  CA  ASN B   7      -7.974   6.028  -5.241  1.00 45.24 LIG 0.17  C 
BRANCH 19 20
ATOM     20  C   ASN B   7      -7.805   5.065  -6.414  1.00 46.26 LIG 0.22  C 
ATOM     21 O    ASN B   7      -7.605   3.864  -6.213  1.00 44.70 LIG-0.29  OA
ENDBRANCH 19 20
BRANCH 19 22
ATOM     22  CB  ASN B   7      -7.251   7.345  -5.571  1.00 46.57 LIG 0.14  C 
BRANCH 22 23
ATOM     23  CG  ASN B   7      -7.242   8.332  -4.406  1.00 48.94 LIG 0.22  C 
ATOM     24  ND2 ASN B   7      -8.426   8.645  -3.881  1.00 48.79 LIG-0.37  N 
ATOM     25 21HD ASN B   7      -8.472   9.200  -3.226  1.00 48.79 LIG 0.16  HD
ATOM     26 22HD ASN B   7      -9.144   8.293  -4.198  1.00 48.79 LIG 0.16  HD
ATOM     27 OD1  ASN B   7      -6.189   8.808  -3.990  1.00 52.21 LIG-0.27  OA
ENDBRANCH 22 23
ENDBRANCH 19 22
ENDBRANCH 17 19
ENDBRANCH 14 15
BRANCH 14 28
ATOM     28  CB  TRP B   6      -6.905   5.193  -1.368  1.00 42.47 LIG 0.07  C 
BRANCH 28 29
ATOM     29  CG  TRP B   6      -6.620   4.678   0.037  1.00 46.30 LIG-0.03  A 
ATOM     30  CD1 TRP B   6      -7.252   3.637   0.676  1.00 49.14 LIG 0.10  A 
ATOM     31  NE1 TRP B   6      -6.705   3.442   1.925  1.00 51.13 LIG-0.36  N 
ATOM     32 HE1  TRP B   6      -6.951   2.844   2.490  1.00 51.13 LIG 0.17  HD
ATOM     33  CE2 TRP B   6      -5.705   4.360   2.121  1.00 47.23 LIG 0.04  A 
ATOM     34  CZ2 TRP B   6      -4.868   4.559   3.226  1.00 46.28 LIG 0.03  A 
ATOM     35  CD2 TRP B   6      -5.617   5.154   0.953  1.00 41.81 LIG-0.00  A 
ATOM     36  CH2 TRP B   6      -3.939   5.569   3.147  1.00 44.17 LIG 0.00  A 
ATOM     37  CZ3 TRP B   6      -3.832   6.375   2.011  1.00 33.54 LIG 0.00  A 
ATOM     38  CE3 TRP B   6      -4.666   6.176   0.905  1.00 38.27 LIG 0.01  A 
ENDBRANCH 28 29
ENDBRANCH 14 28
ENDBRANCH 11 14
ENDBRANCH 1 10
BRANCH 1 39
ATOM     39  N   LYS B   5      -1.080   4.506  -1.707  1.00 39.73 LIG-0.35  N 
ATOM     40  C   PRO B   4       0.198   4.841  -1.537  1.00 35.29 LIG 0.24  C 
ATOM     41 O    PRO B   4       0.553   5.879  -0.978  1.00 36.70 LIG-0.27  OA
ATOM     42 H    LYS B   5      -1.328   3.788  -2.108  1.00 39.73 LIG 0.16  HD
BRANCH 40 43
ATOM     43  CA  PRO B   4       1.214   3.850  -2.074  1.00 31.05 LIG 0.18  C 
ATOM     44  N   PRO B   4       2.002   3.258  -0.994  1.00 34.55 LIG-0.34  N 
ATOM     45  C   GLY B   3       3.027   3.928  -0.465  1.00 37.27 LIG 0.24  C 
ATOM     46  CD  PRO B   4       1.593   1.868  -0.721  1.00 31.08 LIG 0.13  C 
ATOM     47 O    GLY B   3       3.310   5.074  -0.827  1.00 44.84 LIG-0.27  OA
ATOM     48  CG  PRO B   4       0.335   1.711  -1.538  1.00 26.25 LIG 0.02  C 
ATOM     49  CB  PRO B   4       0.522   2.633  -2.697  1.00 27.99 LIG 0.04  C 
BRANCH 45 50
ATOM     50  CA  GLY B   3       3.821   3.231   0.617  1.00 35.98 LIG 0.23  C 
BRANCH 50 51
ATOM     51  N   GLY B   3       5.145   3.795   0.739  1.00 37.88 LIG-0.35  N 
ATOM     52  C   TYR B   2       5.403   4.845   1.514  1.00 38.85 LIG 0.26  C 
ATOM     53 O    TYR B   2       4.566   5.363   2.257  1.00 37.42 LIG-0.27  OA
ATOM     54 H    GLY B   3       5.742   3.393   0.269  1.00 37.88 LIG 0.16  HD
BRANCH 52 55
ATOM     55  CA  TYR B   2       6.829   5.384   1.455  1.00 47.59 LIG 0.40  C 
ATOM     56  N   TYR B   2       6.884   6.590   0.629  1.00 42.90 LIG 0.61  N 
BRANCH 55 57
ATOM     57  CB  TYR B   2       7.340   5.664   2.871  1.00 41.46 LIG 0.09  C 
BRANCH 57 58
ATOM     58  CG  TYR B   2       7.362   7.139   3.263  1.00 40.04 LIG-0.06  A 
ATOM     59  CD1 TYR B   2       6.197   7.893   3.256  1.00 39.56 LIG 0.01  A 
ATOM     60  CE1 TYR B   2       6.200   9.235   3.615  1.00 39.46 LIG 0.04  A 
ATOM     61  CZ  TYR B   2       7.379   9.840   3.989  1.00 36.77 LIG 0.07  A 
ATOM     62  CE2 TYR B   2       8.556   9.114   4.005  1.00 30.56 LIG 0.04  A 
ATOM     63  CD2 TYR B   2       8.544   7.771   3.644  1.00 33.12 LIG 0.01  A 
BRANCH 61 64
ATOM     64 OH   TYR B   2       7.357  11.179   4.348  1.00 37.21 LIG-0.36  OA
ATOM     65 HH   TYR B   2       6.577  11.479   4.265  1.00 37.21 LIG 0.22  HD
ENDBRANCH 61 64
ENDBRANCH 57 58
ENDBRANCH 55 57
ENDBRANCH 52 55
ENDBRANCH 50 51
ENDBRANCH 45 50
ENDBRANCH 40 43
ENDBRANCH 1 39
TORSDOF 22
ENDMDL
MODEL 18
USER: ADFR SOLUTION from run 169
USER: SCORE 17.966044 LL:  -3.830 LR: -15.419 RR:   0.000 FEB:  -8.856
USER: RMSD 14.787769
USER: SEED 168
USER: STATUS no improvement in best in 15 clusters for 5 generations
USER: GENES 24
USER: genes 0 Translation |==|  0.34663 0.34599 0.55456
USER: genes 1 Rotation |==|  0.39646 0.97584 0.60627 0.53951
USER: genes 2 Torsion [C]-CA--CB-[CG] |==|  0.36608
USER: genes 3 Torsion [CA]-CB--CG-[CD] |==|  0.76903
USER: genes 4 Torsion [CB]-CG--CD-[CE] |==|  0.72165
USER: genes 5 Torsion [CG]-CD--CE-[NZ] |==|  0.22510
USER: genes 6 Torsion [CD]-CE--NZ-[HZ3] |==|  0.83844
USER: genes 7 Torsion [N]-CA--C-[N] |==|  0.68676
USER: genes 8 Torsion [C]-N--CA-[C] |==|  0.55313
USER: genes 9 Torsion [N]-CA--C-[N] |==|  0.36682
USER: genes 10 Torsion [C]-N--CA-[C] |==|  0.13982
USER: genes 11 Torsion [N]-CA--C-[O] |==|  0.39266
USER: genes 12 Torsion [N]-CA--CB-[CG] |==|  0.32135
USER: genes 13 Torsion [CA]-CB--CG-[ND2] |==|  0.79754
USER: genes 14 Torsion [N]-CA--CB-[CG] |==|  0.31583
USER: genes 15 Torsion [CA]-CB--CG-[CD2] |==|  0.25877
USER: genes 16 Torsion [CB]-CA--N-[C] |==|  0.20451
USER: genes 17 Torsion [N]-C--CA-[CB] |==|  0.97010
USER: genes 18 Torsion [N]-C--CA-[N] |==|  0.45663
USER: genes 19 Torsion [C]-CA--N-[C] |==|  0.79701
USER: genes 20 Torsion [N]-C--CA-[N] |==|  0.38617
USER: genes 21 Torsion [C]-CA--CB-[CG] |==|  0.25899
USER: genes 22 Torsion [CA]-CB--CG-[CD1] |==|  0.34654
USER: genes 23 Torsion [CE1]-CZ--OH-[HH] |==|  0.92007
ROOT
ATOM      1  CA  LYS B   5      -8.151   1.821  -1.069  1.00 42.36 LIG 0.18  C 
ENDROOT
BRANCH 1 2
ATOM      2  CB  LYS B   5      -8.112   1.394   0.406  1.00 43.80 LIG 0.04  C 
BRANCH 2 3
ATOM      3  CG  LYS B   5      -7.206   0.176   0.713  1.00 49.23 LIG 0.00  C 
BRANCH 3 4
ATOM      4  CD  LYS B   5      -7.895  -1.168   0.450  1.00 48.54 LIG 0.03  C 
BRANCH 4 5
ATOM      5  CE  LYS B   5      -8.403  -1.790   1.739  1.00 43.92 LIG 0.23  C 
BRANCH 5 6
ATOM      6  NZ  LYS B   5      -9.699  -1.176   2.114  1.00 45.51 LIG-0.08  N 
ATOM      7 HZ3  LYS B   5      -9.596  -0.296   2.206  1.00 45.51 LIG 0.27  HD
ATOM      8 HZ1  LYS B   5     -10.300  -1.338   1.478  1.00 45.51 LIG 0.27  HD
ATOM      9 HZ2  LYS B   5      -9.982  -1.523   2.883  1.00 45.51 LIG 0.27  HD
ENDBRANCH 5 6
ENDBRANCH 4 5
ENDBRANCH 3 4
ENDBRANCH 2 3
ENDBRANCH 1 2
BRANCH 1 10
ATOM     10  C   LYS B   5      -9.601   2.014  -1.516  1.00 41.24 LIG 0.24  C 
ATOM     11  N   TRP B   6     -10.527   1.985  -0.557  1.00 42.23 LIG-0.35  N 
ATOM     12 H    TRP B   6     -10.364   1.825   0.272  1.00 42.23 LIG 0.16  HD
ATOM     13 O    LYS B   5      -9.887   2.180  -2.705  1.00 40.50 LIG-0.27  OA
BRANCH 11 14
ATOM     14  CA  TRP B   6     -11.932   2.234  -0.867  1.00 42.54 LIG 0.18  C 
BRANCH 14 15
ATOM     15  C   TRP B   6     -12.675   2.609   0.414  1.00 45.00 LIG 0.24  C 
ATOM     16 O    TRP B   6     -12.533   1.931   1.440  1.00 46.85 LIG-0.27  OA
ATOM     17  N   ASN B   7     -13.462   3.690   0.349  1.00 47.11 LIG-0.35  N 
ATOM     18 H    ASN B   7     -13.457   4.236  -0.315  1.00 47.11 LIG 0.16  HD
BRANCH 17 19
ATOM     19  CA  ASN B   7     -14.418   4.057   1.408  1.00 45.24 LIG 0.17  C 
BRANCH 19 20
ATOM     20  C   ASN B   7     -13.716   4.050   2.764  1.00 46.26 LIG 0.22  C 
ATOM     21 O    ASN B   7     -13.980   4.909   3.610  1.00 44.70 LIG-0.29  OA
ENDBRANCH 19 20
BRANCH 19 22
ATOM     22  CB  ASN B   7     -15.622   3.100   1.466  1.00 46.57 LIG 0.14  C 
BRANCH 22 23
ATOM     23  CG  ASN B   7     -15.698   2.311   2.769  1.00 48.94 LIG 0.22  C 
ATOM     24  ND2 ASN B   7     -14.803   1.336   2.929  1.00 48.79 LIG-0.37  N 
ATOM     25 21HD ASN B   7     -14.809   0.861   3.646  1.00 48.79 LIG 0.16  HD
ATOM     26 22HD ASN B   7     -14.220   1.183   2.316  1.00 48.79 LIG 0.16  HD
ATOM     27 OD1  ASN B   7     -16.550   2.569   3.615  1.00 52.21 LIG-0.27  OA
ENDBRANCH 22 23
ENDBRANCH 19 22
ENDBRANCH 17 19
ENDBRANCH 14 15
BRANCH 14 28
ATOM     28  CB  TRP B   6     -12.600   1.025  -1.530  1.00 42.47 LIG 0.07  C 
BRANCH 28 29
ATOM     29  CG  TRP B   6     -13.671   0.422  -0.631  1.00 46.30 LIG-0.03  A 
ATOM     30  CD1 TRP B   6     -13.482  -0.499   0.371  1.00 49.14 LIG 0.10  A 
ATOM     31  NE1 TRP B   6     -14.680  -0.787   0.987  1.00 51.13 LIG-0.36  N 
ATOM     32 HE1  TRP B   6     -14.787  -1.337   1.639  1.00 51.13 LIG 0.17  HD
ATOM     33  CE2 TRP B   6     -15.674  -0.054   0.390  1.00 47.23 LIG 0.04  A 
ATOM     34  CZ2 TRP B   6     -17.046  -0.009   0.663  1.00 46.28 LIG 0.03  A 
ATOM     35  CD2 TRP B   6     -15.078   0.723  -0.630  1.00 41.81 LIG-0.00  A 
ATOM     36  CH2 TRP B   6     -17.820   0.829  -0.105  1.00 44.17 LIG 0.00  A 
ATOM     37  CZ3 TRP B   6     -17.264   1.604  -1.125  1.00 33.54 LIG 0.00  A 
ATOM     38  CE3 TRP B   6     -15.892   1.561  -1.398  1.00 38.27 LIG 0.01  A 
ENDBRANCH 28 29
ENDBRANCH 14 28
ENDBRANCH 11 14
ENDBRANCH 1 10
BRANCH 1 39
ATOM     39  N   LYS B   5      -7.387   3.049  -1.270  1.00 39.73 LIG-0.35  N 
ATOM     40  C   PRO B   4      -6.056   3.092  -1.254  1.00 35.29 LIG 0.24  C 
ATOM     41 O    PRO B   4      -5.354   2.101  -1.052  1.00 36.70 LIG-0.27  OA
ATOM     42 H    LYS B   5      -7.878   3.744  -1.399  1.00 39.73 LIG 0.16  HD
BRANCH 40 43
ATOM     43  CA  PRO B   4      -5.439   4.453  -1.515  1.00 31.05 LIG 0.18  C 
ATOM     44  N   PRO B   4      -4.493   4.404  -2.629  1.00 34.55 LIG-0.34  N 
ATOM     45  C   GLY B   3      -3.255   3.948  -2.440  1.00 37.27 LIG 0.24  C 
ATOM     46  CD  PRO B   4      -5.052   5.024  -3.844  1.00 31.08 LIG 0.13  C 
ATOM     47 O    GLY B   3      -2.884   3.509  -1.347  1.00 44.84 LIG-0.27  OA
ATOM     48  CG  PRO B   4      -6.500   5.248  -3.485  1.00 26.25 LIG 0.02  C 
ATOM     49  CB  PRO B   4      -6.492   5.452  -2.006  1.00 27.99 LIG 0.04  C 
BRANCH 45 50
ATOM     50  CA  GLY B   3      -2.322   3.971  -3.630  1.00 35.98 LIG 0.23  C 
BRANCH 50 51
ATOM     51  N   GLY B   3      -0.947   3.804  -3.220  1.00 37.88 LIG-0.35  N 
ATOM     52  C   TYR B   2      -0.265   4.767  -2.607  1.00 38.85 LIG 0.26  C 
ATOM     53 O    TYR B   2      -0.767   5.837  -2.256  1.00 37.42 LIG-0.27  OA
ATOM     54 H    GLY B   3      -0.617   3.032  -3.408  1.00 37.88 LIG 0.16  HD
BRANCH 52 55
ATOM     55  CA  TYR B   2       1.206   4.471  -2.331  1.00 47.59 LIG 0.40  C 
ATOM     56  N   TYR B   2       2.023   5.654  -2.597  1.00 42.90 LIG 0.61  N 
BRANCH 55 57
ATOM     57  CB  TYR B   2       1.380   3.998  -0.885  1.00 41.46 LIG 0.09  C 
BRANCH 57 58
ATOM     58  CG  TYR B   2       1.342   2.484  -0.697  1.00 40.04 LIG-0.06  A 
ATOM     59  CD1 TYR B   2       2.388   1.820  -0.072  1.00 39.56 LIG 0.01  A 
ATOM     60  CE1 TYR B   2       2.366   0.443   0.112  1.00 39.46 LIG 0.04  A 
ATOM     61  CZ  TYR B   2       1.287  -0.289  -0.332  1.00 36.77 LIG 0.07  A 
ATOM     62  CE2 TYR B   2       0.230   0.346  -0.959  1.00 30.56 LIG 0.04  A 
ATOM     63  CD2 TYR B   2       0.261   1.725  -1.139  1.00 33.12 LIG 0.01  A 
BRANCH 61 64
ATOM     64 OH   TYR B   2       1.285  -1.661  -0.135  1.00 37.21 LIG-0.36  OA
ATOM     65 HH   TYR B   2       2.076  -1.944  -0.122  1.00 37.21 LIG 0.22  HD
ENDBRANCH 61 64
ENDBRANCH 57 58
ENDBRANCH 55 57
ENDBRANCH 52 55
ENDBRANCH 50 51
ENDBRANCH 45 50
ENDBRANCH 40 43
ENDBRANCH 1 39
TORSDOF 22
ENDMDL
MODEL 19
USER: ADFR SOLUTION from run 100
USER: SCORE 18.405538 LL:  -3.914 LR: -15.404 RR:   0.000 FEB:  -8.842
USER: RMSD 6.873900
USER: SEED 99
USER: STATUS 1 or 2 clusters left
USER: GENES 24
USER: genes 0 Translation |==|  0.39236 0.65822 0.34045
USER: genes 1 Rotation |==|  0.92146 0.61573 0.68573 0.65646
USER: genes 2 Torsion [C]-CA--CB-[CG] |==|  0.21447
USER: genes 3 Torsion [CA]-CB--CG-[CD] |==|  0.22628
USER: genes 4 Torsion [CB]-CG--CD-[CE] |==|  0.44455
USER: genes 5 Torsion [CG]-CD--CE-[NZ] |==|  0.84401
USER: genes 6 Torsion [CD]-CE--NZ-[HZ3] |==|  0.86928
USER: genes 7 Torsion [N]-CA--C-[N] |==|  0.94962
USER: genes 8 Torsion [C]-N--CA-[C] |==|  0.79785
USER: genes 9 Torsion [N]-CA--C-[N] |==|  0.93561
USER: genes 10 Torsion [C]-N--CA-[C] |==|  0.11065
USER: genes 11 Torsion [N]-CA--C-[O] |==|  0.61863
USER: genes 12 Torsion [N]-CA--CB-[CG] |==|  0.18263
USER: genes 13 Torsion [CA]-CB--CG-[ND2] |==|  0.28976
USER: genes 14 Torsion [N]-CA--CB-[CG] |==|  0.75351
USER: genes 15 Torsion [CA]-CB--CG-[CD2] |==|  0.27869
USER: genes 16 Torsion [CB]-CA--N-[C] |==|  0.87348
USER: genes 17 Torsion [N]-C--CA-[CB] |==|  0.94578
USER: genes 18 Torsion [N]-C--CA-[N] |==|  0.57778
USER: genes 19 Torsion [C]-CA--N-[C] |==|  0.71238
USER: genes 20 Torsion [N]-C--CA-[N] |==|  0.58508
USER: genes 21 Torsion [C]-CA--CB-[CG] |==|  0.29652
USER: genes 22 Torsion [CA]-CB--CG-[CD1] |==|  0.82917
USER: genes 23 Torsion [CE1]-CZ--OH-[HH] |==|  0.83852
ROOT
ATOM      1  CA  LYS B   5      -6.779   7.909  -4.762  1.00 42.36 LIG 0.18  C 
ENDROOT
BRANCH 1 2
ATOM      2  CB  LYS B   5      -8.057   8.175  -3.952  1.00 43.80 LIG 0.04  C 
BRANCH 2 3
ATOM      3  CG  LYS B   5      -8.423   9.669  -3.775  1.00 49.23 LIG 0.00  C 
BRANCH 3 4
ATOM      4  CD  LYS B   5      -9.149  10.259  -4.988  1.00 48.54 LIG 0.03  C 
BRANCH 4 5
ATOM      5  CE  LYS B   5      -9.908  11.522  -4.618  1.00 43.92 LIG 0.23  C 
BRANCH 5 6
ATOM      6  NZ  LYS B   5     -10.850  11.233  -3.510  1.00 45.51 LIG-0.08  N 
ATOM      7 HZ3  LYS B   5     -11.303  10.487  -3.692  1.00 45.51 LIG 0.27  HD
ATOM      8 HZ1  LYS B   5     -10.395  11.126  -2.753  1.00 45.51 LIG 0.27  HD
ATOM      9 HZ2  LYS B   5     -11.420  11.910  -3.420  1.00 45.51 LIG 0.27  HD
ENDBRANCH 5 6
ENDBRANCH 4 5
ENDBRANCH 3 4
ENDBRANCH 2 3
ENDBRANCH 1 2
BRANCH 1 10
ATOM     10  C   LYS B   5      -5.549   8.178  -3.895  1.00 41.24 LIG 0.24  C 
ATOM     11  N   TRP B   6      -4.903   7.108  -3.431  1.00 42.23 LIG-0.35  N 
ATOM     12 H    TRP B   6      -5.159   6.295  -3.553  1.00 42.23 LIG 0.16  HD
ATOM     13 O    LYS B   5      -5.186   9.330  -3.640  1.00 40.50 LIG-0.27  OA
BRANCH 11 14
ATOM     14  CA  TRP B   6      -3.674   7.254  -2.656  1.00 42.54 LIG 0.18  C 
BRANCH 14 15
ATOM     15  C   TRP B   6      -2.536   7.671  -3.586  1.00 45.00 LIG 0.24  C 
ATOM     16 O    TRP B   6      -1.541   8.254  -3.134  1.00 46.85 LIG-0.27  OA
ATOM     17  N   ASN B   7      -2.686   7.367  -4.881  1.00 47.11 LIG-0.35  N 
ATOM     18 H    ASN B   7      -3.306   6.847  -5.173  1.00 47.11 LIG 0.16  HD
BRANCH 17 19
ATOM     19  CA  ASN B   7      -1.806   7.891  -5.940  1.00 45.24 LIG 0.17  C 
BRANCH 19 20
ATOM     20  C   ASN B   7      -0.360   7.907  -5.450  1.00 46.26 LIG 0.22  C 
ATOM     21 O    ASN B   7       0.368   8.876  -5.683  1.00 44.70 LIG-0.29  OA
ENDBRANCH 19 20
BRANCH 19 22
ATOM     22  CB  ASN B   7      -2.200   9.313  -6.377  1.00 46.57 LIG 0.14  C 
BRANCH 22 23
ATOM     23  CG  ASN B   7      -2.008  10.353  -5.277  1.00 48.94 LIG 0.22  C 
ATOM     24  ND2 ASN B   7      -0.951  11.156  -5.394  1.00 48.79 LIG-0.37  N 
ATOM     25 21HD ASN B   7      -0.798  11.756  -4.797  1.00 48.79 LIG 0.16  HD
ATOM     26 22HD ASN B   7      -0.422  11.075  -6.067  1.00 48.79 LIG 0.16  HD
ATOM     27 OD1  ASN B   7      -2.792  10.429  -4.335  1.00 52.21 LIG-0.27  OA
ENDBRANCH 22 23
ENDBRANCH 19 22
ENDBRANCH 17 19
ENDBRANCH 14 15
BRANCH 14 28
ATOM     28  CB  TRP B   6      -3.304   5.967  -1.912  1.00 42.47 LIG 0.07  C 
BRANCH 28 29
ATOM     29  CG  TRP B   6      -3.952   5.918  -0.535  1.00 46.30 LIG-0.03  A 
ATOM     30  CD1 TRP B   6      -3.542   6.588   0.593  1.00 49.14 LIG 0.10  A 
ATOM     31  NE1 TRP B   6      -4.393   6.321   1.642  1.00 51.13 LIG-0.36  N 
ATOM     32 HE1  TRP B   6      -4.320   6.638   2.438  1.00 51.13 LIG 0.17  HD
ATOM     33  CE2 TRP B   6      -5.375   5.466   1.212  1.00 47.23 LIG 0.04  A 
ATOM     34  CZ2 TRP B   6      -6.456   4.912   1.909  1.00 46.28 LIG 0.03  A 
ATOM     35  CD2 TRP B   6      -5.136   5.192  -0.155  1.00 41.81 LIG-0.00  A 
ATOM     36  CH2 TRP B   6      -7.297   4.074   1.217  1.00 44.17 LIG 0.00  A 
ATOM     37  CZ3 TRP B   6      -7.083   3.777  -0.131  1.00 33.54 LIG 0.00  A 
ATOM     38  CE3 TRP B   6      -6.005   4.332  -0.830  1.00 38.27 LIG 0.01  A 
ENDBRANCH 28 29
ENDBRANCH 14 28
ENDBRANCH 11 14
ENDBRANCH 1 10
BRANCH 1 39
ATOM     39  N   LYS B   5      -6.762   6.536  -5.261  1.00 39.73 LIG-0.35  N 
ATOM     40  C   PRO B   4      -7.072   5.483  -4.508  1.00 35.29 LIG 0.24  C 
ATOM     41 O    PRO B   4      -7.383   5.573  -3.320  1.00 36.70 LIG-0.27  OA
ATOM     42 H    LYS B   5      -6.532   6.472  -6.087  1.00 39.73 LIG 0.16  HD
BRANCH 40 43
ATOM     43  CA  PRO B   4      -7.029   4.138  -5.209  1.00 31.05 LIG 0.18  C 
ATOM     44  N   PRO B   4      -8.219   3.343  -4.909  1.00 34.55 LIG-0.34  N 
ATOM     45  C   GLY B   3      -8.306   2.671  -3.761  1.00 37.27 LIG 0.24  C 
ATOM     46  CD  PRO B   4      -9.149   3.303  -6.052  1.00 31.08 LIG 0.13  C 
ATOM     47 O    GLY B   3      -7.422   2.737  -2.901  1.00 44.84 LIG-0.27  OA
ATOM     48  CG  PRO B   4      -8.575   4.325  -7.001  1.00 26.25 LIG 0.02  C 
ATOM     49  CB  PRO B   4      -7.107   4.306  -6.730  1.00 27.99 LIG 0.04  C 
BRANCH 45 50
ATOM     50  CA  GLY B   3      -9.548   1.836  -3.542  1.00 35.98 LIG 0.23  C 
BRANCH 50 51
ATOM     51  N   GLY B   3      -9.850   1.706  -2.136  1.00 37.88 LIG-0.35  N 
ATOM     52  C   TYR B   2      -9.595   0.594  -1.453  1.00 38.85 LIG 0.26  C 
ATOM     53 O    TYR B   2      -9.000  -0.376  -1.930  1.00 37.42 LIG-0.27  OA
ATOM     54 H    GLY B   3     -10.206   2.407  -1.788  1.00 37.88 LIG 0.16  HD
BRANCH 52 55
ATOM     55  CA  TYR B   2     -10.065   0.580  -0.002  1.00 47.59 LIG 0.40  C 
ATOM     56  N   TYR B   2      -9.180  -0.252   0.813  1.00 42.90 LIG 0.61  N 
BRANCH 55 57
ATOM     57  CB  TYR B   2     -10.127   2.010   0.541  1.00 41.46 LIG 0.09  C 
BRANCH 57 58
ATOM     58  CG  TYR B   2     -11.537   2.569   0.713  1.00 40.04 LIG-0.06  A 
ATOM     59  CD1 TYR B   2     -12.382   2.712  -0.378  1.00 39.56 LIG 0.01  A 
ATOM     60  CE1 TYR B   2     -13.669   3.214  -0.237  1.00 39.46 LIG 0.04  A 
ATOM     61  CZ  TYR B   2     -14.129   3.579   1.009  1.00 36.77 LIG 0.07  A 
ATOM     62  CE2 TYR B   2     -13.309   3.448   2.115  1.00 30.56 LIG 0.04  A 
ATOM     63  CD2 TYR B   2     -12.021   2.945   1.965  1.00 33.12 LIG 0.01  A 
BRANCH 61 64
ATOM     64 OH   TYR B   2     -15.419   4.074   1.126  1.00 37.21 LIG-0.36  OA
ATOM     65 HH   TYR B   2     -15.504   4.754   0.640  1.00 37.21 LIG 0.22  HD
ENDBRANCH 61 64
ENDBRANCH 57 58
ENDBRANCH 55 57
ENDBRANCH 52 55
ENDBRANCH 50 51
ENDBRANCH 45 50
ENDBRANCH 40 43
ENDBRANCH 1 39
TORSDOF 22
ENDMDL
MODEL 20
USER: ADFR SOLUTION from run 184
USER: SCORE 17.556590 LL:  -4.403 LR: -15.388 RR:   0.000 FEB:  -8.825
USER: RMSD 14.261050
USER: SEED 183
USER: STATUS no improvement in best in 5 clusters for 5 generations
USER: GENES 24
USER: genes 0 Translation |==|  0.35026 0.38737 0.56760
USER: genes 1 Rotation |==|  0.45529 0.33783 0.04088 0.60445
USER: genes 2 Torsion [C]-CA--CB-[CG] |==|  0.86809
USER: genes 3 Torsion [CA]-CB--CG-[CD] |==|  0.28119
USER: genes 4 Torsion [CB]-CG--CD-[CE] |==|  0.62966
USER: genes 5 Torsion [CG]-CD--CE-[NZ] |==|  0.30837
USER: genes 6 Torsion [CD]-CE--NZ-[HZ3] |==|  0.27862
USER: genes 7 Torsion [N]-CA--C-[N] |==|  0.36635
USER: genes 8 Torsion [C]-N--CA-[C] |==|  0.71531
USER: genes 9 Torsion [N]-CA--C-[N] |==|  0.95869
USER: genes 10 Torsion [C]-N--CA-[C] |==|  0.54115
USER: genes 11 Torsion [N]-CA--C-[O] |==|  0.08010
USER: genes 12 Torsion [N]-CA--CB-[CG] |==|  0.70990
USER: genes 13 Torsion [CA]-CB--CG-[ND2] |==|  0.78938
USER: genes 14 Torsion [N]-CA--CB-[CG] |==|  0.27278
USER: genes 15 Torsion [CA]-CB--CG-[CD2] |==|  0.29719
USER: genes 16 Torsion [CB]-CA--N-[C] |==|  0.42228
USER: genes 17 Torsion [N]-C--CA-[CB] |==|  0.59796
USER: genes 18 Torsion [N]-C--CA-[N] |==|  0.38415
USER: genes 19 Torsion [C]-CA--N-[C] |==|  0.68151
USER: genes 20 Torsion [N]-C--CA-[N] |==|  0.30492
USER: genes 21 Torsion [C]-CA--CB-[CG] |==|  0.28917
USER: genes 22 Torsion [CA]-CB--CG-[CD1] |==|  0.40860
USER: genes 23 Torsion [CE1]-CZ--OH-[HH] |==|  0.96041
ROOT
ATOM      1  CA  LYS B   5      -8.042   2.628  -0.844  1.00 42.36 LIG 0.18  C 
ENDROOT
BRANCH 1 2
ATOM      2  CB  LYS B   5      -7.797   1.623  -1.980  1.00 43.80 LIG 0.04  C 
BRANCH 2 3
ATOM      3  CG  LYS B   5      -7.423   0.192  -1.521  1.00 49.23 LIG 0.00  C 
BRANCH 3 4
ATOM      4  CD  LYS B   5      -8.599  -0.789  -1.588  1.00 48.54 LIG 0.03  C 
BRANCH 4 5
ATOM      5  CE  LYS B   5      -8.707  -1.609  -0.314  1.00 43.92 LIG 0.23  C 
BRANCH 5 6
ATOM      6  NZ  LYS B   5      -9.925  -1.214   0.434  1.00 45.51 LIG-0.08  N 
ATOM      7 HZ3  LYS B   5     -10.572  -1.807   0.284  1.00 45.51 LIG 0.27  HD
ATOM      8 HZ1  LYS B   5      -9.743  -1.187   1.304  1.00 45.51 LIG 0.27  HD
ATOM      9 HZ2  LYS B   5     -10.193  -0.410   0.162  1.00 45.51 LIG 0.27  HD
ENDBRANCH 5 6
ENDBRANCH 4 5
ENDBRANCH 3 4
ENDBRANCH 2 3
ENDBRANCH 1 2
BRANCH 1 10
ATOM     10  C   LYS B   5      -8.965   2.010   0.207  1.00 41.24 LIG 0.24  C 
ATOM     11  N   TRP B   6     -10.223   2.454   0.228  1.00 42.23 LIG-0.35  N 
ATOM     12 H    TRP B   6     -10.524   3.084  -0.274  1.00 42.23 LIG 0.16  HD
ATOM     13 O    LYS B   5      -8.556   1.150   0.992  1.00 40.50 LIG-0.27  OA
BRANCH 11 14
ATOM     14  CA  TRP B   6     -11.204   1.876   1.143  1.00 42.54 LIG 0.18  C 
BRANCH 14 15
ATOM     15  C   TRP B   6     -12.114   0.922   0.371  1.00 45.00 LIG 0.24  C 
ATOM     16 O    TRP B   6     -12.836   0.119   0.978  1.00 46.85 LIG-0.27  OA
ATOM     17  N   ASN B   7     -12.077   1.015  -0.964  1.00 47.11 LIG-0.35  N 
ATOM     18 H    ASN B   7     -11.683   1.657  -1.379  1.00 47.11 LIG 0.16  HD
BRANCH 17 19
ATOM     19  CA  ASN B   7     -12.707   0.029  -1.859  1.00 45.24 LIG 0.17  C 
BRANCH 19 20
ATOM     20  C   ASN B   7     -12.182   0.213  -3.281  1.00 46.26 LIG 0.22  C 
ATOM     21 O    ASN B   7     -11.048   0.661  -3.477  1.00 44.70 LIG-0.29  OA
ENDBRANCH 19 20
BRANCH 19 22
ATOM     22  CB  ASN B   7     -14.240   0.149  -1.875  1.00 46.57 LIG 0.14  C 
BRANCH 22 23
ATOM     23  CG  ASN B   7     -14.936  -0.952  -1.080  1.00 48.94 LIG 0.22  C 
ATOM     24  ND2 ASN B   7     -14.990  -2.155  -1.650  1.00 48.79 LIG-0.37  N 
ATOM     25 21HD ASN B   7     -15.376  -2.807  -1.243  1.00 48.79 LIG 0.16  HD
ATOM     26 22HD ASN B   7     -14.640  -2.280  -2.426  1.00 48.79 LIG 0.16  HD
ATOM     27 OD1  ASN B   7     -15.421  -0.723   0.025  1.00 52.21 LIG-0.27  OA
ENDBRANCH 22 23
ENDBRANCH 19 22
ENDBRANCH 17 19
ENDBRANCH 14 15
BRANCH 14 28
ATOM     28  CB  TRP B   6     -12.040   2.950   1.846  1.00 42.47 LIG 0.07  C 
BRANCH 28 29
ATOM     29  CG  TRP B   6     -13.384   3.144   1.159  1.00 46.30 LIG-0.03  A 
ATOM     30  CD1 TRP B   6     -13.606   3.729  -0.065  1.00 49.14 LIG 0.10  A 
ATOM     31  NE1 TRP B   6     -14.949   3.699  -0.372  1.00 51.13 LIG-0.36  N 
ATOM     32 HE1  TRP B   6     -15.304   4.011  -1.090  1.00 51.13 LIG 0.17  HD
ATOM     33  CE2 TRP B   6     -15.626   3.091   0.654  1.00 47.23 LIG 0.04  A 
ATOM     34  CZ2 TRP B   6     -16.994   2.832   0.801  1.00 46.28 LIG 0.03  A 
ATOM     35  CD2 TRP B   6     -14.676   2.723   1.635  1.00 41.81 LIG-0.00  A 
ATOM     36  CH2 TRP B   6     -17.401   2.198   1.951  1.00 44.17 LIG 0.00  A 
ATOM     37  CZ3 TRP B   6     -16.489   1.828   2.942  1.00 33.54 LIG 0.00  A 
ATOM     38  CE3 TRP B   6     -15.121   2.084   2.795  1.00 38.27 LIG 0.01  A 
ENDBRANCH 28 29
ENDBRANCH 14 28
ENDBRANCH 11 14
ENDBRANCH 1 10
BRANCH 1 39
ATOM     39  N   LYS B   5      -6.778   3.036  -0.236  1.00 39.73 LIG-0.35  N 
ATOM     40  C   PRO B   4      -6.599   4.218   0.350  1.00 35.29 LIG 0.24  C 
ATOM     41 O    PRO B   4      -7.478   5.078   0.414  1.00 36.70 LIG-0.27  OA
ATOM     42 H    LYS B   5      -6.161   2.440  -0.291  1.00 39.73 LIG 0.16  HD
BRANCH 40 43
ATOM     43  CA  PRO B   4      -5.227   4.451   0.955  1.00 31.05 LIG 0.18  C 
ATOM     44  N   PRO B   4      -4.396   5.284   0.087  1.00 34.55 LIG-0.34  N 
ATOM     45  C   GLY B   3      -3.773   4.748  -0.963  1.00 37.27 LIG 0.24  C 
ATOM     46  CD  PRO B   4      -4.265   6.655   0.613  1.00 31.08 LIG 0.13  C 
ATOM     47 O    GLY B   3      -3.915   3.559  -1.265  1.00 44.84 LIG-0.27  OA
ATOM     48  CG  PRO B   4      -5.267   6.691   1.740  1.00 26.25 LIG 0.02  C 
ATOM     49  CB  PRO B   4      -5.324   5.284   2.237  1.00 27.99 LIG 0.04  C 
BRANCH 45 50
ATOM     50  CA  GLY B   3      -2.896   5.665  -1.786  1.00 35.98 LIG 0.23  C 
BRANCH 50 51
ATOM     51  N   GLY B   3      -1.664   5.012  -2.160  1.00 37.88 LIG-0.35  N 
ATOM     52  C   TYR B   2      -0.478   5.422  -1.718  1.00 38.85 LIG 0.26  C 
ATOM     53 O    TYR B   2      -0.337   6.323  -0.887  1.00 37.42 LIG-0.27  OA
ATOM     54 H    GLY B   3      -1.768   4.343  -2.690  1.00 37.88 LIG 0.16  HD
BRANCH 52 55
ATOM     55  CA  TYR B   2       0.735   4.692  -2.285  1.00 47.59 LIG 0.40  C 
ATOM     56  N   TYR B   2       1.484   5.570  -3.183  1.00 42.90 LIG 0.61  N 
BRANCH 55 57
ATOM     57  CB  TYR B   2       1.622   4.189  -1.143  1.00 41.46 LIG 0.09  C 
BRANCH 57 58
ATOM     58  CG  TYR B   2       1.523   2.691  -0.867  1.00 40.04 LIG-0.06  A 
ATOM     59  CD1 TYR B   2       2.626   1.977  -0.421  1.00 39.56 LIG 0.01  A 
ATOM     60  CE1 TYR B   2       2.550   0.614  -0.160  1.00 39.46 LIG 0.04  A 
ATOM     61  CZ  TYR B   2       1.358  -0.052  -0.344  1.00 36.77 LIG 0.07  A 
ATOM     62  CE2 TYR B   2       0.242   0.634  -0.787  1.00 30.56 LIG 0.04  A 
ATOM     63  CD2 TYR B   2       0.327   1.998  -1.047  1.00 33.12 LIG 0.01  A 
BRANCH 61 64
ATOM     64 OH   TYR B   2       1.305  -1.411  -0.073  1.00 37.21 LIG-0.36  OA
ATOM     65 HH   TYR B   2       2.086  -1.714  -0.004  1.00 37.21 LIG 0.22  HD
ENDBRANCH 61 64
ENDBRANCH 57 58
ENDBRANCH 55 57
ENDBRANCH 52 55
ENDBRANCH 50 51
ENDBRANCH 45 50
ENDBRANCH 40 43
ENDBRANCH 1 39
TORSDOF 22
ENDMDL
MODEL 21
USER: ADFR SOLUTION from run 67
USER: SCORE 18.299860 LL:  -4.019 LR: -15.389 RR:   0.000 FEB:  -8.827
USER: RMSD 7.992316
USER: SEED 66
USER: STATUS no improvement in best in 14 clusters for 5 generations
USER: GENES 24
USER: genes 0 Translation |==|  0.36498 0.44517 0.62534
USER: genes 1 Rotation |==|  0.96353 0.56827 0.34572 0.58169
USER: genes 2 Torsion [C]-CA--CB-[CG] |==|  0.22828
USER: genes 3 Torsion [CA]-CB--CG-[CD] |==|  0.63520
USER: genes 4 Torsion [CB]-CG--CD-[CE] |==|  0.43119
USER: genes 5 Torsion [CG]-CD--CE-[NZ] |==|  0.78853
USER: genes 6 Torsion [CD]-CE--NZ-[HZ3] |==|  0.55965
USER: genes 7 Torsion [N]-CA--C-[N] |==|  0.49438
USER: genes 8 Torsion [C]-N--CA-[C] |==|  0.66303
USER: genes 9 Torsion [N]-CA--C-[N] |==|  0.51892
USER: genes 10 Torsion [C]-N--CA-[C] |==|  0.73910
USER: genes 11 Torsion [N]-CA--C-[O] |==|  0.35588
USER: genes 12 Torsion [N]-CA--CB-[CG] |==|  0.72565
USER: genes 13 Torsion [CA]-CB--CG-[ND2] |==|  0.58628
USER: genes 14 Torsion [N]-CA--CB-[CG] |==|  0.94793
USER: genes 15 Torsion [CA]-CB--CG-[CD2] |==|  0.34603
USER: genes 16 Torsion [CB]-CA--N-[C] |==|  0.81617
USER: genes 17 Torsion [N]-C--CA-[CB] |==|  0.48426
USER: genes 18 Torsion [N]-C--CA-[N] |==|  0.32300
USER: genes 19 Torsion [C]-CA--N-[C] |==|  0.84333
USER: genes 20 Torsion [N]-C--CA-[N] |==|  0.52612
USER: genes 21 Torsion [C]-CA--CB-[CG] |==|  0.85099
USER: genes 22 Torsion [CA]-CB--CG-[CD1] |==|  0.29160
USER: genes 23 Torsion [CE1]-CZ--OH-[HH] |==|  0.03381
ROOT
ATOM      1  CA  LYS B   5      -7.600   3.755   0.152  1.00 42.36 LIG 0.18  C 
ENDROOT
BRANCH 1 2
ATOM      2  CB  LYS B   5      -6.921   4.140   1.476  1.00 43.80 LIG 0.04  C 
BRANCH 2 3
ATOM      3  CG  LYS B   5      -6.281   5.550   1.499  1.00 49.23 LIG 0.00  C 
BRANCH 3 4
ATOM      4  CD  LYS B   5      -4.847   5.551   2.037  1.00 48.54 LIG 0.03  C 
BRANCH 4 5
ATOM      5  CE  LYS B   5      -4.060   6.739   1.510  1.00 43.92 LIG 0.23  C 
BRANCH 5 6
ATOM      6  NZ  LYS B   5      -3.670   6.495   0.100  1.00 45.51 LIG-0.08  N 
ATOM      7 HZ3  LYS B   5      -2.975   7.010  -0.109  1.00 45.51 LIG 0.27  HD
ATOM      8 HZ1  LYS B   5      -3.447   5.640  -0.003  1.00 45.51 LIG 0.27  HD
ATOM      9 HZ2  LYS B   5      -4.354   6.689  -0.436  1.00 45.51 LIG 0.27  HD
ENDBRANCH 5 6
ENDBRANCH 4 5
ENDBRANCH 3 4
ENDBRANCH 2 3
ENDBRANCH 1 2
BRANCH 1 10
ATOM     10  C   LYS B   5      -6.554   3.249  -0.841  1.00 41.24 LIG 0.24  C 
ATOM     11  N   TRP B   6      -5.581   4.102  -1.165  1.00 42.23 LIG-0.35  N 
ATOM     12 H    TRP B   6      -5.535   4.915  -0.887  1.00 42.23 LIG 0.16  HD
ATOM     13 O    LYS B   5      -6.620   2.112  -1.317  1.00 40.50 LIG-0.27  OA
BRANCH 11 14
ATOM     14  CA  TRP B   6      -4.491   3.693  -2.047  1.00 42.54 LIG 0.18  C 
BRANCH 14 15
ATOM     15  C   TRP B   6      -3.160   3.863  -1.318  1.00 45.00 LIG 0.24  C 
ATOM     16 O    TRP B   6      -3.139   4.168  -0.118  1.00 46.85 LIG-0.27  OA
ATOM     17  N   ASN B   7      -2.054   3.661  -2.046  1.00 47.11 LIG-0.35  N 
ATOM     18 H    ASN B   7      -2.067   3.320  -2.835  1.00 47.11 LIG 0.16  HD
BRANCH 17 19
ATOM     19  CA  ASN B   7      -0.702   4.003  -1.571  1.00 45.24 LIG 0.17  C 
BRANCH 19 20
ATOM     20  C   ASN B   7      -0.323   5.401  -2.054  1.00 46.26 LIG 0.22  C 
ATOM     21 O    ASN B   7       0.087   6.249  -1.255  1.00 44.70 LIG-0.29  OA
ENDBRANCH 19 20
BRANCH 19 22
ATOM     22  CB  ASN B   7       0.359   3.002  -2.060  1.00 46.57 LIG 0.14  C 
BRANCH 22 23
ATOM     23  CG  ASN B   7       0.720   1.953  -1.013  1.00 48.94 LIG 0.22  C 
ATOM     24  ND2 ASN B   7       1.969   1.488  -1.041  1.00 48.79 LIG-0.37  N 
ATOM     25 21HD ASN B   7       2.219   0.892  -0.473  1.00 48.79 LIG 0.16  HD
ATOM     26 22HD ASN B   7       2.525   1.783  -1.627  1.00 48.79 LIG 0.16  HD
ATOM     27 OD1  ASN B   7      -0.109   1.564  -0.196  1.00 52.21 LIG-0.27  OA
ENDBRANCH 22 23
ENDBRANCH 19 22
ENDBRANCH 17 19
ENDBRANCH 14 15
BRANCH 14 28
ATOM     28  CB  TRP B   6      -4.481   4.486  -3.358  1.00 42.47 LIG 0.07  C 
BRANCH 28 29
ATOM     29  CG  TRP B   6      -5.827   5.149  -3.615  1.00 46.30 LIG-0.03  A 
ATOM     30  CD1 TRP B   6      -7.057   4.535  -3.635  1.00 49.14 LIG 0.10  A 
ATOM     31  NE1 TRP B   6      -8.049   5.462  -3.870  1.00 51.13 LIG-0.36  N 
ATOM     32 HE1  TRP B   6      -8.889   5.291  -3.922  1.00 51.13 LIG 0.17  HD
ATOM     33  CE2 TRP B   6      -7.476   6.701  -4.008  1.00 47.23 LIG 0.04  A 
ATOM     34  CZ2 TRP B   6      -8.070   7.944  -4.258  1.00 46.28 LIG 0.03  A 
ATOM     35  CD2 TRP B   6      -6.079   6.546  -3.850  1.00 41.81 LIG-0.00  A 
ATOM     36  CH2 TRP B   6      -7.241   9.037  -4.349  1.00 44.17 LIG 0.00  A 
ATOM     37  CZ3 TRP B   6      -5.857   8.917  -4.205  1.00 33.54 LIG 0.00  A 
ATOM     38  CE3 TRP B   6      -5.262   7.675  -3.954  1.00 38.27 LIG 0.01  A 
ENDBRANCH 28 29
ENDBRANCH 14 28
ENDBRANCH 11 14
ENDBRANCH 1 10
BRANCH 1 39
ATOM     39  N   LYS B   5      -8.625   2.738   0.376  1.00 39.73 LIG-0.35  N 
ATOM     40  C   PRO B   4      -8.348   1.501   0.784  1.00 35.29 LIG 0.24  C 
ATOM     41 O    PRO B   4      -7.202   1.102   0.991  1.00 36.70 LIG-0.27  OA
ATOM     42 H    LYS B   5      -9.424   3.013   0.220  1.00 39.73 LIG 0.16  HD
BRANCH 40 43
ATOM     43  CA  PRO B   4      -9.546   0.594   0.994  1.00 31.05 LIG 0.18  C 
ATOM     44  N   PRO B   4     -10.307   0.422  -0.244  1.00 34.55 LIG-0.34  N 
ATOM     45  C   GLY B   3     -11.166   1.361  -0.640  1.00 37.27 LIG 0.24  C 
ATOM     46  CD  PRO B   4     -10.085  -0.909  -0.837  1.00 31.08 LIG 0.13  C 
ATOM     47 O    GLY B   3     -11.309   2.417  -0.015  1.00 44.84 LIG-0.27  OA
ATOM     48  CG  PRO B   4      -8.948  -1.468  -0.019  1.00 26.25 LIG 0.02  C 
ATOM     49  CB  PRO B   4      -9.105  -0.835   1.324  1.00 27.99 LIG 0.04  C 
BRANCH 45 50
ATOM     50  CA  GLY B   3     -11.948   1.090  -1.907  1.00 35.98 LIG 0.23  C 
BRANCH 50 51
ATOM     51  N   GLY B   3     -13.364   1.000  -1.637  1.00 37.88 LIG-0.35  N 
ATOM     52  C   TYR B   2     -13.868   0.140  -0.757  1.00 38.85 LIG 0.26  C 
ATOM     53 O    TYR B   2     -13.173  -0.580  -0.036  1.00 37.42 LIG-0.27  OA
ATOM     54 H    GLY B   3     -13.843   1.549  -2.094  1.00 37.88 LIG 0.16  HD
BRANCH 52 55
ATOM     55  CA  TYR B   2     -15.390   0.098  -0.662  1.00 47.59 LIG 0.40  C 
ATOM     56  N   TYR B   2     -15.806  -0.713   0.483  1.00 42.90 LIG 0.61  N 
BRANCH 55 57
ATOM     57  CB  TYR B   2     -15.945   1.520  -0.557  1.00 41.46 LIG 0.09  C 
BRANCH 57 58
ATOM     58  CG  TYR B   2     -15.343   2.363   0.565  1.00 40.04 LIG-0.06  A 
ATOM     59  CD1 TYR B   2     -14.424   3.364   0.285  1.00 39.56 LIG 0.01  A 
ATOM     60  CE1 TYR B   2     -13.871   4.142   1.294  1.00 39.46 LIG 0.04  A 
ATOM     61  CZ  TYR B   2     -14.237   3.925   2.604  1.00 36.77 LIG 0.07  A 
ATOM     62  CE2 TYR B   2     -15.151   2.934   2.913  1.00 30.56 LIG 0.04  A 
ATOM     63  CD2 TYR B   2     -15.700   2.159   1.896  1.00 33.12 LIG 0.01  A 
BRANCH 61 64
ATOM     64 OH   TYR B   2     -13.676   4.717   3.594  1.00 37.21 LIG-0.36  OA
ATOM     65 HH   TYR B   2     -13.279   5.369   3.241  1.00 37.21 LIG 0.22  HD
ENDBRANCH 61 64
ENDBRANCH 57 58
ENDBRANCH 55 57
ENDBRANCH 52 55
ENDBRANCH 50 51
ENDBRANCH 45 50
ENDBRANCH 40 43
ENDBRANCH 1 39
TORSDOF 22
ENDMDL
MODEL 22
USER: ADFR SOLUTION from run 56
USER: SCORE 18.033994 LL:  -3.367 LR: -15.388 RR:   0.000 FEB:  -8.825
USER: RMSD 8.359268
USER: SEED 55
USER: STATUS no improvement in best in 17 clusters for 5 generations
USER: GENES 24
USER: genes 0 Translation |==|  0.36822 0.45021 0.62639
USER: genes 1 Rotation |==|  0.97898 0.55391 0.37756 0.55180
USER: genes 2 Torsion [C]-CA--CB-[CG] |==|  0.23774
USER: genes 3 Torsion [CA]-CB--CG-[CD] |==|  0.72651
USER: genes 4 Torsion [CB]-CG--CD-[CE] |==|  0.74708
USER: genes 5 Torsion [CG]-CD--CE-[NZ] |==|  0.09943
USER: genes 6 Torsion [CD]-CE--NZ-[HZ3] |==|  0.62088
USER: genes 7 Torsion [N]-CA--C-[N] |==|  0.43319
USER: genes 8 Torsion [C]-N--CA-[C] |==|  0.65945
USER: genes 9 Torsion [N]-CA--C-[N] |==|  0.42968
USER: genes 10 Torsion [C]-N--CA-[C] |==|  0.85757
USER: genes 11 Torsion [N]-CA--C-[O] |==|  0.29147
USER: genes 12 Torsion [N]-CA--CB-[CG] |==|  0.82391
USER: genes 13 Torsion [CA]-CB--CG-[ND2] |==|  0.55791
USER: genes 14 Torsion [N]-CA--CB-[CG] |==|  0.98628
USER: genes 15 Torsion [CA]-CB--CG-[CD2] |==|  0.31500
USER: genes 16 Torsion [CB]-CA--N-[C] |==|  0.83693
USER: genes 17 Torsion [N]-C--CA-[CB] |==|  0.27802
USER: genes 18 Torsion [N]-C--CA-[N] |==|  0.28081
USER: genes 19 Torsion [C]-CA--N-[C] |==|  0.28059
USER: genes 20 Torsion [N]-C--CA-[N] |==|  0.42130
USER: genes 21 Torsion [C]-CA--CB-[CG] |==|  0.18340
USER: genes 22 Torsion [CA]-CB--CG-[CD1] |==|  0.74233
USER: genes 23 Torsion [CE1]-CZ--OH-[HH] |==|  0.02619
ROOT
ATOM      1  CA  LYS B   5      -7.503   3.853   0.170  1.00 42.36 LIG 0.18  C 
ENDROOT
BRANCH 1 2
ATOM      2  CB  LYS B   5      -6.983   4.024   1.606  1.00 43.80 LIG 0.04  C 
BRANCH 2 3
ATOM      3  CG  LYS B   5      -6.329   5.394   1.908  1.00 49.23 LIG 0.00  C 
BRANCH 3 4
ATOM      4  CD  LYS B   5      -4.799   5.362   1.831  1.00 48.54 LIG 0.03  C 
BRANCH 4 5
ATOM      5  CE  LYS B   5      -4.185   5.042   3.184  1.00 43.92 LIG 0.23  C 
BRANCH 5 6
ATOM      6  NZ  LYS B   5      -5.044   4.074   3.907  1.00 45.51 LIG-0.08  N 
ATOM      7 HZ3  LYS B   5      -5.122   4.324   4.758  1.00 45.51 LIG 0.27  HD
ATOM      8 HZ1  LYS B   5      -5.849   4.051   3.530  1.00 45.51 LIG 0.27  HD
ATOM      9 HZ2  LYS B   5      -4.676   3.264   3.869  1.00 45.51 LIG 0.27  HD
ENDBRANCH 5 6
ENDBRANCH 4 5
ENDBRANCH 3 4
ENDBRANCH 2 3
ENDBRANCH 1 2
BRANCH 1 10
ATOM     10  C   LYS B   5      -6.371   3.378  -0.740  1.00 41.24 LIG 0.24  C 
ATOM     11  N   TRP B   6      -5.541   4.317  -1.196  1.00 42.23 LIG-0.35  N 
ATOM     12 H    TRP B   6      -5.630   5.159  -1.046  1.00 42.23 LIG 0.16  HD
ATOM     13 O    LYS B   5      -6.245   2.186  -1.036  1.00 40.50 LIG-0.27  OA
BRANCH 11 14
ATOM     14  CA  TRP B   6      -4.383   3.959  -2.011  1.00 42.54 LIG 0.18  C 
BRANCH 14 15
ATOM     15  C   TRP B   6      -3.112   4.477  -1.340  1.00 45.00 LIG 0.24  C 
ATOM     16 O    TRP B   6      -3.162   5.448  -0.571  1.00 46.85 LIG-0.27  OA
ATOM     17  N   ASN B   7      -1.979   3.826  -1.631  1.00 47.11 LIG-0.35  N 
ATOM     18 H    ASN B   7      -1.962   3.077  -2.052  1.00 47.11 LIG 0.16  HD
BRANCH 17 19
ATOM     19  CA  ASN B   7      -0.644   4.326  -1.260  1.00 45.24 LIG 0.17  C 
BRANCH 19 20
ATOM     20  C   ASN B   7      -0.485   5.772  -1.723  1.00 46.26 LIG 0.22  C 
ATOM     21 O    ASN B   7      -0.540   6.699  -0.910  1.00 44.70 LIG-0.29  OA
ENDBRANCH 19 20
BRANCH 19 22
ATOM     22  CB  ASN B   7       0.487   3.480  -1.871  1.00 46.57 LIG 0.14  C 
BRANCH 22 23
ATOM     23  CG  ASN B   7       0.497   2.040  -1.369  1.00 48.94 LIG 0.22  C 
ATOM     24  ND2 ASN B   7       1.645   1.373  -1.492  1.00 48.79 LIG-0.37  N 
ATOM     25 21HD ASN B   7       1.698   0.556  -1.227  1.00 48.79 LIG 0.16  HD
ATOM     26 22HD ASN B   7       2.331   1.759  -1.837  1.00 48.79 LIG 0.16  HD
ATOM     27 OD1  ASN B   7      -0.511   1.533  -0.884  1.00 52.21 LIG-0.27  OA
ENDBRANCH 22 23
ENDBRANCH 19 22
ENDBRANCH 17 19
ENDBRANCH 14 15
BRANCH 14 28
ATOM     28  CB  TRP B   6      -4.489   4.509  -3.437  1.00 42.47 LIG 0.07  C 
BRANCH 28 29
ATOM     29  CG  TRP B   6      -5.832   5.184  -3.671  1.00 46.30 LIG-0.03  A 
ATOM     30  CD1 TRP B   6      -7.069   4.583  -3.664  1.00 49.14 LIG 0.10  A 
ATOM     31  NE1 TRP B   6      -8.056   5.519  -3.885  1.00 51.13 LIG-0.36  N 
ATOM     32 HE1  TRP B   6      -8.899   5.357  -3.919  1.00 51.13 LIG 0.17  HD
ATOM     33  CE2 TRP B   6      -7.473   6.751  -4.042  1.00 47.23 LIG 0.04  A 
ATOM     34  CZ2 TRP B   6      -8.059   7.999  -4.289  1.00 46.28 LIG 0.03  A 
ATOM     35  CD2 TRP B   6      -6.075   6.583  -3.910  1.00 41.81 LIG-0.00  A 
ATOM     36  CH2 TRP B   6      -7.221   9.083  -4.403  1.00 44.17 LIG 0.00  A 
ATOM     37  CZ3 TRP B   6      -5.835   8.949  -4.285  1.00 33.54 LIG 0.00  A 
ATOM     38  CE3 TRP B   6      -5.249   7.703  -4.038  1.00 38.27 LIG 0.01  A 
ENDBRANCH 28 29
ENDBRANCH 14 28
ENDBRANCH 11 14
ENDBRANCH 1 10
BRANCH 1 39
ATOM     39  N   LYS B   5      -8.617   2.908   0.135  1.00 39.73 LIG-0.35  N 
ATOM     40  C   PRO B   4      -8.517   1.648   0.554  1.00 35.29 LIG 0.24  C 
ATOM     41 O    PRO B   4      -7.473   1.164   0.990  1.00 36.70 LIG-0.27  OA
ATOM     42 H    LYS B   5      -9.343   3.242  -0.181  1.00 39.73 LIG 0.16  HD
BRANCH 40 43
ATOM     43  CA  PRO B   4      -9.790   0.825   0.471  1.00 31.05 LIG 0.18  C 
ATOM     44  N   PRO B   4     -10.960   1.675   0.250  1.00 34.55 LIG-0.34  N 
ATOM     45  C   GLY B   3     -11.520   2.325   1.270  1.00 37.27 LIG 0.24  C 
ATOM     46  CD  PRO B   4     -11.448   1.578  -1.137  1.00 31.08 LIG 0.13  C 
ATOM     47 O    GLY B   3     -11.048   2.276   2.410  1.00 44.84 LIG-0.27  OA
ATOM     48  CG  PRO B   4     -10.361   0.797  -1.833  1.00 26.25 LIG 0.02  C 
ATOM     49  CB  PRO B   4      -9.785  -0.076  -0.768  1.00 27.99 LIG 0.04  C 
BRANCH 45 50
ATOM     50  CA  GLY B   3     -12.753   3.148   0.969  1.00 35.98 LIG 0.23  C 
BRANCH 50 51
ATOM     51  N   GLY B   3     -13.955   2.452   1.365  1.00 37.88 LIG-0.35  N 
ATOM     52  C   TYR B   2     -14.603   2.735   2.492  1.00 38.85 LIG 0.26  C 
ATOM     53 O    TYR B   2     -14.292   3.665   3.240  1.00 37.42 LIG-0.27  OA
ATOM     54 H    GLY B   3     -14.208   1.846   0.810  1.00 37.88 LIG 0.16  HD
BRANCH 52 55
ATOM     55  CA  TYR B   2     -15.796   1.842   2.817  1.00 47.59 LIG 0.40  C 
ATOM     56  N   TYR B   2     -15.998   1.767   4.264  1.00 42.90 LIG 0.61  N 
BRANCH 55 57
ATOM     57  CB  TYR B   2     -17.050   2.371   2.115  1.00 41.46 LIG 0.09  C 
BRANCH 57 58
ATOM     58  CG  TYR B   2     -17.011   2.296   0.591  1.00 40.04 LIG-0.06  A 
ATOM     59  CD1 TYR B   2     -16.563   3.372  -0.161  1.00 39.56 LIG 0.01  A 
ATOM     60  CE1 TYR B   2     -16.516   3.318  -1.548  1.00 39.46 LIG 0.04  A 
ATOM     61  CZ  TYR B   2     -16.919   2.174  -2.202  1.00 36.77 LIG 0.07  A 
ATOM     62  CE2 TYR B   2     -17.371   1.085  -1.478  1.00 30.56 LIG 0.04  A 
ATOM     63  CD2 TYR B   2     -17.415   1.149  -0.089  1.00 33.12 LIG 0.01  A 
BRANCH 61 64
ATOM     64 OH   TYR B   2     -16.860   2.140  -3.586  1.00 37.21 LIG-0.36  OA
ATOM     65 HH   TYR B   2     -16.447   2.817  -3.866  1.00 37.21 LIG 0.22  HD
ENDBRANCH 61 64
ENDBRANCH 57 58
ENDBRANCH 55 57
ENDBRANCH 52 55
ENDBRANCH 50 51
ENDBRANCH 45 50
ENDBRANCH 40 43
ENDBRANCH 1 39
TORSDOF 22
ENDMDL
MODEL 23
USER: ADFR SOLUTION from run 11
USER: SCORE 18.477503 LL:  -4.169 LR: -15.379 RR:   0.000 FEB:  -8.816
USER: RMSD 6.826311
USER: SEED 592515
USER: STATUS 1 or 2 clusters left
USER: GENES 24
USER: genes 0 Translation |==|  0.52471 0.52184 0.46606
USER: genes 1 Rotation |==|  0.31763 0.67059 0.70212 0.88313
USER: genes 2 Torsion [C]-CA--CB-[CG] |==|  0.84617
USER: genes 3 Torsion [CA]-CB--CG-[CD] |==|  0.59383
USER: genes 4 Torsion [CB]-CG--CD-[CE] |==|  0.28139
USER: genes 5 Torsion [CG]-CD--CE-[NZ] |==|  0.16238
USER: genes 6 Torsion [CD]-CE--NZ-[HZ3] |==|  0.28879
USER: genes 7 Torsion [N]-CA--C-[N] |==|  0.93913
USER: genes 8 Torsion [C]-N--CA-[C] |==|  0.83325
USER: genes 9 Torsion [N]-CA--C-[N] |==|  0.38862
USER: genes 10 Torsion [C]-N--CA-[C] |==|  0.67625
USER: genes 11 Torsion [N]-CA--C-[O] |==|  0.91558
USER: genes 12 Torsion [N]-CA--CB-[CG] |==|  0.78255
USER: genes 13 Torsion [CA]-CB--CG-[ND2] |==|  0.17873
USER: genes 14 Torsion [N]-CA--CB-[CG] |==|  0.86301
USER: genes 15 Torsion [CA]-CB--CG-[CD2] |==|  0.89333
USER: genes 16 Torsion [CB]-CA--N-[C] |==|  0.22980
USER: genes 17 Torsion [N]-C--CA-[CB] |==|  0.64019
USER: genes 18 Torsion [N]-C--CA-[N] |==|  0.52548
USER: genes 19 Torsion [C]-CA--N-[C] |==|  0.35553
USER: genes 20 Torsion [N]-C--CA-[N] |==|  0.34684
USER: genes 21 Torsion [C]-CA--CB-[CG] |==|  0.18918
USER: genes 22 Torsion [CA]-CB--CG-[CD1] |==|  0.78119
USER: genes 23 Torsion [CE1]-CZ--OH-[HH] |==|  0.18760
ROOT
ATOM      1  CA  LYS B   5      -2.809   5.250  -2.595  1.00 42.36 LIG 0.18  C 
ENDROOT
BRANCH 1 2
ATOM      2  CB  LYS B   5      -3.411   3.978  -3.211  1.00 43.80 LIG 0.04  C 
BRANCH 2 3
ATOM      3  CG  LYS B   5      -4.760   4.180  -3.946  1.00 49.23 LIG 0.00  C 
BRANCH 3 4
ATOM      4  CD  LYS B   5      -5.699   2.975  -3.822  1.00 48.54 LIG 0.03  C 
BRANCH 4 5
ATOM      5  CE  LYS B   5      -6.774   3.219  -2.777  1.00 43.92 LIG 0.23  C 
BRANCH 5 6
ATOM      6  NZ  LYS B   5      -7.556   4.426  -3.135  1.00 45.51 LIG-0.08  N 
ATOM      7 HZ3  LYS B   5      -8.346   4.182  -3.467  1.00 45.51 LIG 0.27  HD
ATOM      8 HZ1  LYS B   5      -7.682   4.925  -2.409  1.00 45.51 LIG 0.27  HD
ATOM      9 HZ2  LYS B   5      -7.113   4.898  -3.745  1.00 45.51 LIG 0.27  HD
ENDBRANCH 5 6
ENDBRANCH 4 5
ENDBRANCH 3 4
ENDBRANCH 2 3
ENDBRANCH 1 2
BRANCH 1 10
ATOM     10  C   LYS B   5      -2.659   6.327  -3.670  1.00 41.24 LIG 0.24  C 
ATOM     11  N   TRP B   6      -3.598   7.274  -3.697  1.00 42.23 LIG-0.35  N 
ATOM     12 H    TRP B   6      -4.289   7.288  -3.185  1.00 42.23 LIG 0.16  HD
ATOM     13 O    LYS B   5      -1.719   6.307  -4.469  1.00 40.50 LIG-0.27  OA
BRANCH 11 14
ATOM     14  CA  TRP B   6      -3.508   8.390  -4.635  1.00 42.54 LIG 0.18  C 
BRANCH 14 15
ATOM     15  C   TRP B   6      -2.220   9.168  -4.373  1.00 45.00 LIG 0.24  C 
ATOM     16 O    TRP B   6      -1.837   9.371  -3.213  1.00 46.85 LIG-0.27  OA
ATOM     17  N   ASN B   7      -1.555   9.597  -5.453  1.00 47.11 LIG-0.35  N 
ATOM     18 H    ASN B   7      -1.744   9.343  -6.253  1.00 47.11 LIG 0.16  HD
BRANCH 17 19
ATOM     19  CA  ASN B   7      -0.432  10.549  -5.384  1.00 45.24 LIG 0.17  C 
BRANCH 19 20
ATOM     20  C   ASN B   7      -0.801  11.837  -6.116  1.00 46.26 LIG 0.22  C 
ATOM     21 O    ASN B   7      -1.576  11.811  -7.077  1.00 44.70 LIG-0.29  OA
ENDBRANCH 19 20
BRANCH 19 22
ATOM     22  CB  ASN B   7       0.857   9.978  -6.000  1.00 46.57 LIG 0.14  C 
BRANCH 22 23
ATOM     23  CG  ASN B   7       1.580   9.002  -5.077  1.00 48.94 LIG 0.22  C 
ATOM     24  ND2 ASN B   7       0.936   7.874  -4.779  1.00 48.79 LIG-0.37  N 
ATOM     25 21HD ASN B   7       1.302   7.294  -4.259  1.00 48.79 LIG 0.16  HD
ATOM     26 22HD ASN B   7       0.155   7.725  -5.106  1.00 48.79 LIG 0.16  HD
ATOM     27 OD1  ASN B   7       2.697   9.259  -4.635  1.00 52.21 LIG-0.27  OA
ENDBRANCH 22 23
ENDBRANCH 19 22
ENDBRANCH 17 19
ENDBRANCH 14 15
BRANCH 14 28
ATOM     28  CB  TRP B   6      -4.718   9.324  -4.539  1.00 42.47 LIG 0.07  C 
BRANCH 28 29
ATOM     29  CG  TRP B   6      -6.024   8.544  -4.585  1.00 46.30 LIG-0.03  A 
ATOM     30  CD1 TRP B   6      -7.175   8.823  -3.886  1.00 49.14 LIG 0.10  A 
ATOM     31  NE1 TRP B   6      -8.160   7.914  -4.207  1.00 51.13 LIG-0.36  N 
ATOM     32 HE1  TRP B   6      -8.956   7.907  -3.884  1.00 51.13 LIG 0.17  HD
ATOM     33  CE2 TRP B   6      -7.662   7.024  -5.123  1.00 47.23 LIG 0.04  A 
ATOM     34  CZ2 TRP B   6      -8.278   5.928  -5.741  1.00 46.28 LIG 0.03  A 
ATOM     35  CD2 TRP B   6      -6.322   7.389  -5.391  1.00 41.81 LIG-0.00  A 
ATOM     36  CH2 TRP B   6      -7.530   5.198  -6.634  1.00 44.17 LIG 0.00  A 
ATOM     37  CZ3 TRP B   6      -6.202   5.528  -6.914  1.00 33.54 LIG 0.00  A 
ATOM     38  CE3 TRP B   6      -5.586   6.623  -6.299  1.00 38.27 LIG 0.01  A 
ENDBRANCH 28 29
ENDBRANCH 14 28
ENDBRANCH 11 14
ENDBRANCH 1 10
BRANCH 1 39
ATOM     39  N   LYS B   5      -3.642   5.735  -1.499  1.00 39.73 LIG-0.35  N 
ATOM     40  C   PRO B   4      -3.571   5.253  -0.259  1.00 35.29 LIG 0.24  C 
ATOM     41 O    PRO B   4      -2.809   4.343   0.065  1.00 36.70 LIG-0.27  OA
ATOM     42 H    LYS B   5      -4.183   6.363  -1.728  1.00 39.73 LIG 0.16  HD
BRANCH 40 43
ATOM     43  CA  PRO B   4      -4.493   5.906   0.754  1.00 31.05 LIG 0.18  C 
ATOM     44  N   PRO B   4      -5.473   4.953   1.274  1.00 34.55 LIG-0.34  N 
ATOM     45  C   GLY B   3      -6.563   4.656   0.567  1.00 37.27 LIG 0.24  C 
ATOM     46  CD  PRO B   4      -5.144   4.532   2.649  1.00 31.08 LIG 0.13  C 
ATOM     47 O    GLY B   3      -6.756   5.128  -0.558  1.00 44.84 LIG-0.27  OA
ATOM     48  CG  PRO B   4      -3.764   5.099   2.864  1.00 26.25 LIG 0.02  C 
ATOM     49  CB  PRO B   4      -3.723   6.324   2.011  1.00 27.99 LIG 0.04  C 
BRANCH 45 50
ATOM     50  CA  GLY B   3      -7.550   3.696   1.192  1.00 35.98 LIG 0.23  C 
BRANCH 50 51
ATOM     51  N   GLY B   3      -8.565   3.299   0.244  1.00 37.88 LIG-0.35  N 
ATOM     52  C   TYR B   2      -8.857   2.023   0.007  1.00 38.85 LIG 0.26  C 
ATOM     53 O    TYR B   2      -8.362   1.084   0.634  1.00 37.42 LIG-0.27  OA
ATOM     54 H    GLY B   3      -8.956   3.958  -0.146  1.00 37.88 LIG 0.16  HD
BRANCH 52 55
ATOM     55  CA  TYR B   2      -9.880   1.768  -1.096  1.00 47.59 LIG 0.40  C 
ATOM     56  N   TYR B   2      -9.328   0.862  -2.103  1.00 42.90 LIG 0.61  N 
BRANCH 55 57
ATOM     57  CB  TYR B   2     -11.167   1.198  -0.492  1.00 41.46 LIG 0.09  C 
BRANCH 57 58
ATOM     58  CG  TYR B   2     -11.952   2.174   0.380  1.00 40.04 LIG-0.06  A 
ATOM     59  CD1 TYR B   2     -11.558   2.434   1.685  1.00 39.56 LIG 0.01  A 
ATOM     60  CE1 TYR B   2     -12.258   3.324   2.490  1.00 39.46 LIG 0.04  A 
ATOM     61  CZ  TYR B   2     -13.369   3.969   1.991  1.00 36.77 LIG 0.07  A 
ATOM     62  CE2 TYR B   2     -13.785   3.729   0.694  1.00 30.56 LIG 0.04  A 
ATOM     63  CD2 TYR B   2     -13.078   2.836  -0.105  1.00 33.12 LIG 0.01  A 
BRANCH 61 64
ATOM     64 OH   TYR B   2     -14.050   4.856   2.810  1.00 37.21 LIG-0.36  OA
ATOM     65 HH   TYR B   2     -13.567   5.526   2.961  1.00 37.21 LIG 0.22  HD
ENDBRANCH 61 64
ENDBRANCH 57 58
ENDBRANCH 55 57
ENDBRANCH 52 55
ENDBRANCH 50 51
ENDBRANCH 45 50
ENDBRANCH 40 43
ENDBRANCH 1 39
TORSDOF 22
ENDMDL
MODEL 24
USER: ADFR SOLUTION from run 97
USER: SCORE 18.382406 LL:  -4.218 LR: -15.346 RR:   0.000 FEB:  -8.783
USER: RMSD 7.292622
USER: SEED 96
USER: STATUS no improvement in best in 2 clusters for 5 generations
USER: GENES 24
USER: genes 0 Translation |==|  0.38510 0.44531 0.66137
USER: genes 1 Rotation |==|  0.89015 0.76069 0.36503 0.60771
USER: genes 2 Torsion [C]-CA--CB-[CG] |==|  0.05370
USER: genes 3 Torsion [CA]-CB--CG-[CD] |==|  0.68424
USER: genes 4 Torsion [CB]-CG--CD-[CE] |==|  0.39017
USER: genes 5 Torsion [CG]-CD--CE-[NZ] |==|  0.92627
USER: genes 6 Torsion [CD]-CE--NZ-[HZ3] |==|  0.81802
USER: genes 7 Torsion [N]-CA--C-[N] |==|  0.30742
USER: genes 8 Torsion [C]-N--CA-[C] |==|  0.56111
USER: genes 9 Torsion [N]-CA--C-[N] |==|  0.33340
USER: genes 10 Torsion [C]-N--CA-[C] |==|  0.59984
USER: genes 11 Torsion [N]-CA--C-[O] |==|  0.01862
USER: genes 12 Torsion [N]-CA--CB-[CG] |==|  0.50762
USER: genes 13 Torsion [CA]-CB--CG-[ND2] |==|  0.55099
USER: genes 14 Torsion [N]-CA--CB-[CG] |==|  0.77697
USER: genes 15 Torsion [CA]-CB--CG-[CD2] |==|  0.84464
USER: genes 16 Torsion [CB]-CA--N-[C] |==|  0.52780
USER: genes 17 Torsion [N]-C--CA-[CB] |==|  0.68532
USER: genes 18 Torsion [N]-C--CA-[N] |==|  0.61595
USER: genes 19 Torsion [C]-CA--N-[C] |==|  0.16648
USER: genes 20 Torsion [N]-C--CA-[N] |==|  0.76376
USER: genes 21 Torsion [C]-CA--CB-[CG] |==|  0.30438
USER: genes 22 Torsion [CA]-CB--CG-[CD1] |==|  0.37624
USER: genes 23 Torsion [CE1]-CZ--OH-[HH] |==|  0.47864
ROOT
ATOM      1  CA  LYS B   5      -6.997   3.758   0.774  1.00 42.36 LIG 0.18  C 
ENDROOT
BRANCH 1 2
ATOM      2  CB  LYS B   5      -6.605   4.461   2.082  1.00 43.80 LIG 0.04  C 
BRANCH 2 3
ATOM      3  CG  LYS B   5      -5.776   5.757   1.908  1.00 49.23 LIG 0.00  C 
BRANCH 3 4
ATOM      4  CD  LYS B   5      -4.347   5.635   2.447  1.00 48.54 LIG 0.03  C 
BRANCH 4 5
ATOM      5  CE  LYS B   5      -3.352   6.334   1.537  1.00 43.92 LIG 0.23  C 
BRANCH 5 6
ATOM      6  NZ  LYS B   5      -3.878   6.367   0.151  1.00 45.51 LIG-0.08  N 
ATOM      7 HZ3  LYS B   5      -3.932   5.537  -0.166  1.00 45.51 LIG 0.27  HD
ATOM      8 HZ1  LYS B   5      -4.687   6.737   0.149  1.00 45.51 LIG 0.27  HD
ATOM      9 HZ2  LYS B   5      -3.332   6.845  -0.364  1.00 45.51 LIG 0.27  HD
ENDBRANCH 5 6
ENDBRANCH 4 5
ENDBRANCH 3 4
ENDBRANCH 2 3
ENDBRANCH 1 2
BRANCH 1 10
ATOM     10  C   LYS B   5      -6.087   4.228  -0.362  1.00 41.24 LIG 0.24  C 
ATOM     11  N   TRP B   6      -6.693   4.687  -1.458  1.00 42.23 LIG-0.35  N 
ATOM     12 H    TRP B   6      -7.545   4.692  -1.576  1.00 42.23 LIG 0.16  HD
ATOM     13 O    LYS B   5      -4.859   4.175  -0.260  1.00 40.50 LIG-0.27  OA
BRANCH 11 14
ATOM     14  CA  TRP B   6      -5.917   5.230  -2.569  1.00 42.54 LIG 0.18  C 
BRANCH 14 15
ATOM     15  C   TRP B   6      -6.805   6.149  -3.406  1.00 45.00 LIG 0.24  C 
ATOM     16 O    TRP B   6      -7.831   5.708  -3.943  1.00 46.85 LIG-0.27  OA
ATOM     17  N   ASN B   7      -6.410   7.423  -3.510  1.00 47.11 LIG-0.35  N 
ATOM     18 H    ASN B   7      -5.780   7.760  -3.031  1.00 47.11 LIG 0.16  HD
BRANCH 17 19
ATOM     19  CA  ASN B   7      -7.012   8.381  -4.454  1.00 45.24 LIG 0.17  C 
BRANCH 19 20
ATOM     20  C   ASN B   7      -5.938   9.323  -4.991  1.00 46.26 LIG 0.22  C 
ATOM     21 O    ASN B   7      -4.748   9.135  -4.719  1.00 44.70 LIG-0.29  OA
ENDBRANCH 19 20
BRANCH 19 22
ATOM     22  CB  ASN B   7      -8.129   9.217  -3.806  1.00 46.57 LIG 0.14  C 
BRANCH 22 23
ATOM     23  CG  ASN B   7      -8.811  10.168  -4.785  1.00 48.94 LIG 0.22  C 
ATOM     24  ND2 ASN B   7      -9.505  11.174  -4.253  1.00 48.79 LIG-0.37  N 
ATOM     25 21HD ASN B   7      -9.911  11.734  -4.765  1.00 48.79 LIG 0.16  HD
ATOM     26 22HD ASN B   7      -9.548  11.263  -3.399  1.00 48.79 LIG 0.16  HD
ATOM     27 OD1  ASN B   7      -8.720   9.998  -5.997  1.00 52.21 LIG-0.27  OA
ENDBRANCH 22 23
ENDBRANCH 19 22
ENDBRANCH 17 19
ENDBRANCH 14 15
BRANCH 14 28
ATOM     28  CB  TRP B   6      -5.320   4.127  -3.449  1.00 42.47 LIG 0.07  C 
BRANCH 28 29
ATOM     29  CG  TRP B   6      -4.055   3.549  -2.831  1.00 46.30 LIG-0.03  A 
ATOM     30  CD1 TRP B   6      -3.799   2.225  -2.565  1.00 49.14 LIG 0.10  A 
ATOM     31  NE1 TRP B   6      -2.537   2.081  -2.032  1.00 51.13 LIG-0.36  N 
ATOM     32 HE1  TRP B   6      -2.176   1.337  -1.795  1.00 51.13 LIG 0.17  HD
ATOM     33  CE2 TRP B   6      -1.949   3.317  -1.941  1.00 47.23 LIG 0.04  A 
ATOM     34  CZ2 TRP B   6      -0.683   3.678  -1.464  1.00 46.28 LIG 0.03  A 
ATOM     35  CD2 TRP B   6      -2.871   4.267  -2.438  1.00 41.81 LIG-0.00  A 
ATOM     36  CH2 TRP B   6      -0.351   5.012  -1.490  1.00 44.17 LIG 0.00  A 
ATOM     37  CZ3 TRP B   6      -1.242   5.976  -1.967  1.00 33.54 LIG 0.00  A 
ATOM     38  CE3 TRP B   6      -2.506   5.616  -2.446  1.00 38.27 LIG 0.01  A 
ENDBRANCH 28 29
ENDBRANCH 14 28
ENDBRANCH 11 14
ENDBRANCH 1 10
BRANCH 1 39
ATOM     39  N   LYS B   5      -6.916   2.307   0.925  1.00 39.73 LIG-0.35  N 
ATOM     40  C   PRO B   4      -7.012   1.461  -0.099  1.00 35.29 LIG 0.24  C 
ATOM     41 O    PRO B   4      -7.196   1.827  -1.260  1.00 36.70 LIG-0.27  OA
ATOM     42 H    LYS B   5      -6.799   2.051   1.737  1.00 39.73 LIG 0.16  HD
BRANCH 40 43
ATOM     43  CA  PRO B   4      -6.871  -0.010   0.249  1.00 31.05 LIG 0.18  C 
ATOM     44  N   PRO B   4      -7.925  -0.808  -0.375  1.00 34.55 LIG-0.34  N 
ATOM     45  C   GLY B   3      -9.140  -0.861   0.172  1.00 37.27 LIG 0.24  C 
ATOM     46  CD  PRO B   4      -7.414  -1.585  -1.519  1.00 31.08 LIG 0.13  C 
ATOM     47 O    GLY B   3      -9.429  -0.206   1.178  1.00 44.84 LIG-0.27  OA
ATOM     48  CG  PRO B   4      -6.025  -1.033  -1.719  1.00 26.25 LIG 0.02  C 
ATOM     49  CB  PRO B   4      -5.593  -0.599  -0.358  1.00 27.99 LIG 0.04  C 
BRANCH 45 50
ATOM     50  CA  GLY B   3     -10.164  -1.744  -0.507  1.00 35.98 LIG 0.23  C 
BRANCH 50 51
ATOM     51  N   GLY B   3     -11.457  -1.101  -0.557  1.00 37.88 LIG-0.35  N 
ATOM     52  C   TYR B   2     -11.651   0.059  -1.177  1.00 38.85 LIG 0.26  C 
ATOM     53 O    TYR B   2     -10.780   0.633  -1.835  1.00 37.42 LIG-0.27  OA
ATOM     54 H    GLY B   3     -12.079  -1.535  -0.153  1.00 37.88 LIG 0.16  HD
BRANCH 52 55
ATOM     55  CA  TYR B   2     -13.050   0.656  -1.053  1.00 47.59 LIG 0.40  C 
ATOM     56  N   TYR B   2     -13.935   0.095  -2.073  1.00 42.90 LIG 0.61  N 
BRANCH 55 57
ATOM     57  CB  TYR B   2     -13.602   0.402   0.352  1.00 41.46 LIG 0.09  C 
BRANCH 57 58
ATOM     58  CG  TYR B   2     -13.708   1.644   1.233  1.00 40.04 LIG-0.06  A 
ATOM     59  CD1 TYR B   2     -14.845   1.879   1.993  1.00 39.56 LIG 0.01  A 
ATOM     60  CE1 TYR B   2     -14.955   3.002   2.804  1.00 39.46 LIG 0.04  A 
ATOM     61  CZ  TYR B   2     -13.918   3.907   2.863  1.00 36.77 LIG 0.07  A 
ATOM     62  CE2 TYR B   2     -12.773   3.698   2.116  1.00 30.56 LIG 0.04  A 
ATOM     63  CD2 TYR B   2     -12.672   2.572   1.306  1.00 33.12 LIG 0.01  A 
BRANCH 61 64
ATOM     64 OH   TYR B   2     -14.048   5.018   3.682  1.00 37.21 LIG-0.36  OA
ATOM     65 HH   TYR B   2     -13.317   5.432   3.712  1.00 37.21 LIG 0.22  HD
ENDBRANCH 61 64
ENDBRANCH 57 58
ENDBRANCH 55 57
ENDBRANCH 52 55
ENDBRANCH 50 51
ENDBRANCH 45 50
ENDBRANCH 40 43
ENDBRANCH 1 39
TORSDOF 22
ENDMDL
MODEL 25
USER: ADFR SOLUTION from run 27
USER: SCORE 17.684903 LL:  -3.807 LR: -15.347 RR:   0.000 FEB:  -8.784
USER: RMSD 11.602468
USER: SEED 26
USER: STATUS no improvement in best in 7 clusters for 5 generations
USER: GENES 24
USER: genes 0 Translation |==|  0.39100 0.65916 0.40731
USER: genes 1 Rotation |==|  0.29247 0.68752 0.13578 0.69777
USER: genes 2 Torsion [C]-CA--CB-[CG] |==|  0.40739
USER: genes 3 Torsion [CA]-CB--CG-[CD] |==|  0.39011
USER: genes 4 Torsion [CB]-CG--CD-[CE] |==|  0.48497
USER: genes 5 Torsion [CG]-CD--CE-[NZ] |==|  0.86496
USER: genes 6 Torsion [CD]-CE--NZ-[HZ3] |==|  0.22528
USER: genes 7 Torsion [N]-CA--C-[N] |==|  0.28236
USER: genes 8 Torsion [C]-N--CA-[C] |==|  0.63561
USER: genes 9 Torsion [N]-CA--C-[N] |==|  0.47678
USER: genes 10 Torsion [C]-N--CA-[C] |==|  0.58688
USER: genes 11 Torsion [N]-CA--C-[O] |==|  0.27094
USER: genes 12 Torsion [N]-CA--CB-[CG] |==|  0.29893
USER: genes 13 Torsion [CA]-CB--CG-[ND2] |==|  0.25145
USER: genes 14 Torsion [N]-CA--CB-[CG] |==|  0.11599
USER: genes 15 Torsion [CA]-CB--CG-[CD2] |==|  0.17256
USER: genes 16 Torsion [CB]-CA--N-[C] |==|  0.48221
USER: genes 17 Torsion [N]-C--CA-[CB] |==|  0.98918
USER: genes 18 Torsion [N]-C--CA-[N] |==|  0.44565
USER: genes 19 Torsion [C]-CA--N-[C] |==|  0.26454
USER: genes 20 Torsion [N]-C--CA-[N] |==|  0.50905
USER: genes 21 Torsion [C]-CA--CB-[CG] |==|  0.28855
USER: genes 22 Torsion [CA]-CB--CG-[CD1] |==|  0.26124
USER: genes 23 Torsion [CE1]-CZ--OH-[HH] |==|  0.27371
ROOT
ATOM      1  CA  LYS B   5      -6.820   7.928  -3.609  1.00 42.36 LIG 0.18  C 
ENDROOT
BRANCH 1 2
ATOM      2  CB  LYS B   5      -8.052   8.390  -4.402  1.00 43.80 LIG 0.04  C 
BRANCH 2 3
ATOM      3  CG  LYS B   5      -8.704   9.700  -3.896  1.00 49.23 LIG 0.00  C 
BRANCH 3 4
ATOM      4  CD  LYS B   5      -9.175  10.616  -5.031  1.00 48.54 LIG 0.03  C 
BRANCH 4 5
ATOM      5  CE  LYS B   5      -9.925  11.822  -4.492  1.00 43.92 LIG 0.23  C 
BRANCH 5 6
ATOM      6  NZ  LYS B   5     -10.944  11.380  -3.510  1.00 45.51 LIG-0.08  N 
ATOM      7 HZ3  LYS B   5     -10.557  11.241  -2.721  1.00 45.51 LIG 0.27  HD
ATOM      8 HZ1  LYS B   5     -11.568  12.009  -3.426  1.00 45.51 LIG 0.27  HD
ATOM      9 HZ2  LYS B   5     -11.321  10.625  -3.792  1.00 45.51 LIG 0.27  HD
ENDBRANCH 5 6
ENDBRANCH 4 5
ENDBRANCH 3 4
ENDBRANCH 2 3
ENDBRANCH 1 2
BRANCH 1 10
ATOM     10  C   LYS B   5      -6.762   6.400  -3.583  1.00 41.24 LIG 0.24  C 
ATOM     11  N   TRP B   6      -6.469   5.836  -2.411  1.00 42.23 LIG-0.35  N 
ATOM     12 H    TRP B   6      -6.273   6.273  -1.696  1.00 42.23 LIG 0.16  HD
ATOM     13 O    LYS B   5      -6.970   5.735  -4.602  1.00 40.50 LIG-0.27  OA
BRANCH 11 14
ATOM     14  CA  TRP B   6      -6.462   4.383  -2.261  1.00 42.54 LIG 0.18  C 
BRANCH 14 15
ATOM     15  C   TRP B   6      -7.269   3.998  -1.023  1.00 45.00 LIG 0.24  C 
ATOM     16 O    TRP B   6      -7.675   4.872  -0.244  1.00 46.85 LIG-0.27  OA
ATOM     17  N   ASN B   7      -7.502   2.691  -0.848  1.00 47.11 LIG-0.35  N 
ATOM     18 H    ASN B   7      -7.340   2.101  -1.451  1.00 47.11 LIG 0.16  HD
BRANCH 17 19
ATOM     19  CA  ASN B   7      -8.056   2.130   0.396  1.00 45.24 LIG 0.17  C 
BRANCH 19 20
ATOM     20  C   ASN B   7      -7.513   0.720   0.615  1.00 46.26 LIG 0.22  C 
ATOM     21 O    ASN B   7      -6.551   0.530   1.365  1.00 44.70 LIG-0.29  OA
ENDBRANCH 19 20
BRANCH 19 22
ATOM     22  CB  ASN B   7      -9.594   2.074   0.377  1.00 46.57 LIG 0.14  C 
BRANCH 22 23
ATOM     23  CG  ASN B   7     -10.140   0.657   0.229  1.00 48.94 LIG 0.22  C 
ATOM     24  ND2 ASN B   7     -10.374  -0.013   1.357  1.00 48.79 LIG-0.37  N 
ATOM     25 21HD ASN B   7     -10.678  -0.817   1.325  1.00 48.79 LIG 0.16  HD
ATOM     26 22HD ASN B   7     -10.220   0.358   2.117  1.00 48.79 LIG 0.16  HD
ATOM     27 OD1  ASN B   7     -10.343   0.171  -0.880  1.00 52.21 LIG-0.27  OA
ENDBRANCH 22 23
ENDBRANCH 19 22
ENDBRANCH 17 19
ENDBRANCH 14 15
BRANCH 14 28
ATOM     28  CB  TRP B   6      -5.042   3.820  -2.162  1.00 42.47 LIG 0.07  C 
BRANCH 28 29
ATOM     29  CG  TRP B   6      -4.161   4.690  -1.276  1.00 46.30 LIG-0.03  A 
ATOM     30  CD1 TRP B   6      -3.046   5.395  -1.662  1.00 49.14 LIG 0.10  A 
ATOM     31  NE1 TRP B   6      -2.528   6.091  -0.592  1.00 51.13 LIG-0.36  N 
ATOM     32 HE1  TRP B   6      -1.832   6.596  -0.614  1.00 51.13 LIG 0.17  HD
ATOM     33  CE2 TRP B   6      -3.301   5.848   0.514  1.00 47.23 LIG 0.04  A 
ATOM     34  CZ2 TRP B   6      -3.174   6.324   1.825  1.00 46.28 LIG 0.03  A 
ATOM     35  CD2 TRP B   6      -4.343   4.974   0.123  1.00 41.81 LIG-0.00  A 
ATOM     36  CH2 TRP B   6      -4.107   5.910   2.745  1.00 44.17 LIG 0.00  A 
ATOM     37  CZ3 TRP B   6      -5.143   5.041   2.393  1.00 33.54 LIG 0.00  A 
ATOM     38  CE3 TRP B   6      -5.273   4.566   1.083  1.00 38.27 LIG 0.01  A 
ENDBRANCH 28 29
ENDBRANCH 14 28
ENDBRANCH 11 14
ENDBRANCH 1 10
BRANCH 1 39
ATOM     39  N   LYS B   5      -5.597   8.475  -4.191  1.00 39.73 LIG-0.35  N 
ATOM     40  C   PRO B   4      -4.397   8.336  -3.631  1.00 35.29 LIG 0.24  C 
ATOM     41 O    PRO B   4      -4.216   7.748  -2.565  1.00 36.70 LIG-0.27  OA
ATOM     42 H    LYS B   5      -5.725   8.896  -4.930  1.00 39.73 LIG 0.16  HD
BRANCH 40 43
ATOM     43  CA  PRO B   4      -3.238   8.944  -4.400  1.00 31.05 LIG 0.18  C 
ATOM     44  N   PRO B   4      -2.274   7.923  -4.806  1.00 34.55 LIG-0.34  N 
ATOM     45  C   GLY B   3      -1.374   7.464  -3.936  1.00 37.27 LIG 0.24  C 
ATOM     46  CD  PRO B   4      -2.370   7.627  -6.247  1.00 31.08 LIG 0.13  C 
ATOM     47 O    GLY B   3      -1.357   7.841  -2.760  1.00 44.84 LIG-0.27  OA
ATOM     48  CG  PRO B   4      -3.622   8.356  -6.667  1.00 26.25 LIG 0.02  C 
ATOM     49  CB  PRO B   4      -3.708   9.522  -5.739  1.00 27.99 LIG 0.04  C 
BRANCH 45 50
ATOM     50  CA  GLY B   3      -0.382   6.441  -4.444  1.00 35.98 LIG 0.23  C 
BRANCH 50 51
ATOM     51  N   GLY B   3       0.778   6.369  -3.587  1.00 37.88 LIG-0.35  N 
ATOM     52  C   TYR B   2       0.889   5.470  -2.613  1.00 38.85 LIG 0.26  C 
ATOM     53 O    TYR B   2       0.065   4.573  -2.419  1.00 37.42 LIG-0.27  OA
ATOM     54 H    GLY B   3       1.382   6.955  -3.765  1.00 37.88 LIG 0.16  HD
BRANCH 52 55
ATOM     55  CA  TYR B   2       2.129   5.590  -1.733  1.00 47.59 LIG 0.40  C 
ATOM     56  N   TYR B   2       2.168   4.502  -0.756  1.00 42.90 LIG 0.61  N 
BRANCH 55 57
ATOM     57  CB  TYR B   2       3.389   5.590  -2.604  1.00 41.46 LIG 0.09  C 
BRANCH 57 58
ATOM     58  CG  TYR B   2       4.040   6.958  -2.788  1.00 40.04 LIG-0.06  A 
ATOM     59  CD1 TYR B   2       5.070   7.371  -1.955  1.00 39.56 LIG 0.01  A 
ATOM     60  CE1 TYR B   2       5.677   8.611  -2.113  1.00 39.46 LIG 0.04  A 
ATOM     61  CZ  TYR B   2       5.255   9.456  -3.116  1.00 36.77 LIG 0.07  A 
ATOM     62  CE2 TYR B   2       4.230   9.071  -3.961  1.00 30.56 LIG 0.04  A 
ATOM     63  CD2 TYR B   2       3.628   7.828  -3.795  1.00 33.12 LIG 0.01  A 
BRANCH 61 64
ATOM     64 OH   TYR B   2       5.878  10.687  -3.257  1.00 37.21 LIG-0.36  OA
ATOM     65 HH   TYR B   2       6.456  10.641  -3.866  1.00 37.21 LIG 0.22  HD
ENDBRANCH 61 64
ENDBRANCH 57 58
ENDBRANCH 55 57
ENDBRANCH 52 55
ENDBRANCH 50 51
ENDBRANCH 45 50
ENDBRANCH 40 43
ENDBRANCH 1 39
TORSDOF 22
ENDMDL
MODEL 26
USER: ADFR SOLUTION from run 43
USER: SCORE 16.796320 LL:  -3.556 LR: -15.322 RR:   0.000 FEB:  -8.759
USER: RMSD 3.789891
USER: SEED 42
USER: STATUS no improvement in best in 12 clusters for 5 generations
USER: GENES 24
USER: genes 0 Translation |==|  0.52199 0.49999 0.49885
USER: genes 1 Rotation |==|  0.73730 0.44578 0.32353 0.89951
USER: genes 2 Torsion [C]-CA--CB-[CG] |==|  0.54483
USER: genes 3 Torsion [CA]-CB--CG-[CD] |==|  0.59733
USER: genes 4 Torsion [CB]-CG--CD-[CE] |==|  0.76564
USER: genes 5 Torsion [CG]-CD--CE-[NZ] |==|  0.63478
USER: genes 6 Torsion [CD]-CE--NZ-[HZ3] |==|  0.26405
USER: genes 7 Torsion [N]-CA--C-[N] |==|  0.61345
USER: genes 8 Torsion [C]-N--CA-[C] |==|  0.63274
USER: genes 9 Torsion [N]-CA--C-[N] |==|  0.42222
USER: genes 10 Torsion [C]-N--CA-[C] |==|  0.56145
USER: genes 11 Torsion [N]-CA--C-[O] |==|  0.91315
USER: genes 12 Torsion [N]-CA--CB-[CG] |==|  0.47078
USER: genes 13 Torsion [CA]-CB--CG-[ND2] |==|  0.70445
USER: genes 14 Torsion [N]-CA--CB-[CG] |==|  0.38821
USER: genes 15 Torsion [CA]-CB--CG-[CD2] |==|  0.23692
USER: genes 16 Torsion [CB]-CA--N-[C] |==|  0.84868
USER: genes 17 Torsion [N]-C--CA-[CB] |==|  0.44828
USER: genes 18 Torsion [N]-C--CA-[N] |==|  0.50006
USER: genes 19 Torsion [C]-CA--N-[C] |==|  0.40870
USER: genes 20 Torsion [N]-C--CA-[N] |==|  0.32595
USER: genes 21 Torsion [C]-CA--CB-[CG] |==|  0.23621
USER: genes 22 Torsion [CA]-CB--CG-[CD1] |==|  0.76526
USER: genes 23 Torsion [CE1]-CZ--OH-[HH] |==|  0.41303
ROOT
ATOM      1  CA  LYS B   5      -2.890   4.824  -2.030  1.00 42.36 LIG 0.18  C 
ENDROOT
BRANCH 1 2
ATOM      2  CB  LYS B   5      -2.210   6.061  -2.635  1.00 43.80 LIG 0.04  C 
BRANCH 2 3
ATOM      3  CG  LYS B   5      -3.133   7.291  -2.823  1.00 49.23 LIG 0.00  C 
BRANCH 3 4
ATOM      4  CD  LYS B   5      -2.798   8.109  -4.075  1.00 48.54 LIG 0.03  C 
BRANCH 4 5
ATOM      5  CE  LYS B   5      -1.681   9.101  -3.803  1.00 43.92 LIG 0.23  C 
BRANCH 5 6
ATOM      6  NZ  LYS B   5      -2.067  10.441  -4.308  1.00 45.51 LIG-0.08  N 
ATOM      7 HZ3  LYS B   5      -2.421  10.918  -3.645  1.00 45.51 LIG 0.27  HD
ATOM      8 HZ1  LYS B   5      -1.347  10.859  -4.622  1.00 45.51 LIG 0.27  HD
ATOM      9 HZ2  LYS B   5      -2.666  10.352  -4.960  1.00 45.51 LIG 0.27  HD
ENDBRANCH 5 6
ENDBRANCH 4 5
ENDBRANCH 3 4
ENDBRANCH 2 3
ENDBRANCH 1 2
BRANCH 1 10
ATOM     10  C   LYS B   5      -1.831   3.842  -1.528  1.00 41.24 LIG 0.24  C 
ATOM     11  N   TRP B   6      -0.591   4.021  -1.985  1.00 42.23 LIG-0.35  N 
ATOM     12 H    TRP B   6      -0.368   4.615  -2.565  1.00 42.23 LIG 0.16  HD
ATOM     13 O    LYS B   5      -2.121   2.933  -0.746  1.00 40.50 LIG-0.27  OA
BRANCH 11 14
ATOM     14  CA  TRP B   6       0.509   3.185  -1.510  1.00 42.54 LIG 0.18  C 
BRANCH 14 15
ATOM     15  C   TRP B   6       1.693   4.073  -1.134  1.00 45.00 LIG 0.24  C 
ATOM     16 O    TRP B   6       1.856   5.167  -1.691  1.00 46.85 LIG-0.27  OA
ATOM     17  N   ASN B   7       2.513   3.599  -0.187  1.00 47.11 LIG-0.35  N 
ATOM     18 H    ASN B   7       2.329   2.910   0.292  1.00 47.11 LIG 0.16  HD
BRANCH 17 19
ATOM     19  CA  ASN B   7       3.816   4.210   0.130  1.00 45.24 LIG 0.17  C 
BRANCH 19 20
ATOM     20  C   ASN B   7       4.716   3.182   0.812  1.00 46.26 LIG 0.22  C 
ATOM     21 O    ASN B   7       4.229   2.297   1.522  1.00 44.70 LIG-0.29  OA
ENDBRANCH 19 20
BRANCH 19 22
ATOM     22  CB  ASN B   7       3.679   5.437   1.047  1.00 46.57 LIG 0.14  C 
BRANCH 22 23
ATOM     23  CG  ASN B   7       5.016   5.930   1.594  1.00 48.94 LIG 0.22  C 
ATOM     24  ND2 ASN B   7       5.263   5.679   2.879  1.00 48.79 LIG-0.37  N 
ATOM     25 21HD ASN B   7       6.002   5.940   3.234  1.00 48.79 LIG 0.16  HD
ATOM     26 22HD ASN B   7       4.684   5.256   3.354  1.00 48.79 LIG 0.16  HD
ATOM     27 OD1  ASN B   7       5.810   6.530   0.875  1.00 52.21 LIG-0.27  OA
ENDBRANCH 22 23
ENDBRANCH 19 22
ENDBRANCH 17 19
ENDBRANCH 14 15
BRANCH 14 28
ATOM     28  CB  TRP B   6       0.937   2.147  -2.552  1.00 42.47 LIG 0.07  C 
BRANCH 28 29
ATOM     29  CG  TRP B   6       2.451   1.998  -2.595  1.00 46.30 LIG-0.03  A 
ATOM     30  CD1 TRP B   6       3.322   2.668  -3.422  1.00 49.14 LIG 0.10  A 
ATOM     31  NE1 TRP B   6       4.620   2.294  -3.152  1.00 51.13 LIG-0.36  N 
ATOM     32 HE1  TRP B   6       5.319   2.593  -3.553  1.00 51.13 LIG 0.17  HD
ATOM     33  CE2 TRP B   6       4.615   1.368  -2.140  1.00 47.23 LIG 0.04  A 
ATOM     34  CZ2 TRP B   6       5.681   0.699  -1.527  1.00 46.28 LIG 0.03  A 
ATOM     35  CD2 TRP B   6       3.269   1.159  -1.759  1.00 41.81 LIG-0.00  A 
ATOM     36  CH2 TRP B   6       5.380  -0.190  -0.522  1.00 44.17 LIG 0.00  A 
ATOM     37  CZ3 TRP B   6       4.060  -0.426  -0.128  1.00 33.54 LIG 0.00  A 
ATOM     38  CE3 TRP B   6       2.994   0.244  -0.739  1.00 38.27 LIG 0.01  A 
ENDBRANCH 28 29
ENDBRANCH 14 28
ENDBRANCH 11 14
ENDBRANCH 1 10
BRANCH 1 39
ATOM     39  N   LYS B   5      -3.786   5.209  -0.942  1.00 39.73 LIG-0.35  N 
ATOM     40  C   PRO B   4      -3.394   5.937   0.102  1.00 35.29 LIG 0.24  C 
ATOM     41 O    PRO B   4      -2.239   6.334   0.249  1.00 36.70 LIG-0.27  OA
ATOM     42 H    LYS B   5      -4.590   4.921  -1.039  1.00 39.73 LIG 0.16  HD
BRANCH 40 43
ATOM     43  CA  PRO B   4      -4.475   6.266   1.116  1.00 31.05 LIG 0.18  C 
ATOM     44  N   PRO B   4      -5.253   5.079   1.469  1.00 34.55 LIG-0.34  N 
ATOM     45  C   GLY B   3      -6.225   4.650   0.665  1.00 37.27 LIG 0.24  C 
ATOM     46  CD  PRO B   4      -4.901   4.579   2.811  1.00 31.08 LIG 0.13  C 
ATOM     47 O    GLY B   3      -6.466   5.199  -0.415  1.00 44.84 LIG-0.27  OA
ATOM     48  CG  PRO B   4      -3.681   5.387   3.174  1.00 26.25 LIG 0.02  C 
ATOM     49  CB  PRO B   4      -3.863   6.684   2.457  1.00 27.99 LIG 0.04  C 
BRANCH 45 50
ATOM     50  CA  GLY B   3      -7.014   3.442   1.121  1.00 35.98 LIG 0.23  C 
BRANCH 50 51
ATOM     51  N   GLY B   3      -8.031   3.088   0.158  1.00 37.88 LIG-0.35  N 
ATOM     52  C   TYR B   2      -8.405   1.829  -0.051  1.00 38.85 LIG 0.26  C 
ATOM     53 O    TYR B   2      -7.992   0.877   0.615  1.00 37.42 LIG-0.27  OA
ATOM     54 H    GLY B   3      -8.365   3.760  -0.261  1.00 37.88 LIG 0.16  HD
BRANCH 52 55
ATOM     55  CA  TYR B   2      -9.416   1.612  -1.173  1.00 47.59 LIG 0.40  C 
ATOM     56  N   TYR B   2      -8.836   0.781  -2.227  1.00 42.90 LIG 0.61  N 
BRANCH 55 57
ATOM     57  CB  TYR B   2     -10.690   0.974  -0.611  1.00 41.46 LIG 0.09  C 
BRANCH 57 58
ATOM     58  CG  TYR B   2     -11.700   1.963  -0.035  1.00 40.04 LIG-0.06  A 
ATOM     59  CD1 TYR B   2     -11.584   2.417   1.271  1.00 39.56 LIG 0.01  A 
ATOM     60  CE1 TYR B   2     -12.492   3.320   1.808  1.00 39.46 LIG 0.04  A 
ATOM     61  CZ  TYR B   2     -13.534   3.784   1.035  1.00 36.77 LIG 0.07  A 
ATOM     62  CE2 TYR B   2     -13.675   3.350  -0.270  1.00 30.56 LIG 0.04  A 
ATOM     63  CD2 TYR B   2     -12.761   2.444  -0.800  1.00 33.12 LIG 0.01  A 
BRANCH 61 64
ATOM     64 OH   TYR B   2     -14.425   4.689   1.591  1.00 37.21 LIG-0.36  OA
ATOM     65 HH   TYR B   2     -14.715   5.202   0.991  1.00 37.21 LIG 0.22  HD
ENDBRANCH 61 64
ENDBRANCH 57 58
ENDBRANCH 55 57
ENDBRANCH 52 55
ENDBRANCH 50 51
ENDBRANCH 45 50
ENDBRANCH 40 43
ENDBRANCH 1 39
TORSDOF 22
ENDMDL
MODEL 27
USER: ADFR SOLUTION from run 45
USER: SCORE 18.584328 LL:  -3.661 LR: -15.314 RR:   0.000 FEB:  -8.752
USER: RMSD 11.500347
USER: SEED 44
USER: STATUS no improvement in best in 7 clusters for 5 generations
USER: GENES 24
USER: genes 0 Translation |==|  0.41222 0.61332 0.41066
USER: genes 1 Rotation |==|  0.42239 0.59188 0.10501 0.78200
USER: genes 2 Torsion [C]-CA--CB-[CG] |==|  0.50792
USER: genes 3 Torsion [CA]-CB--CG-[CD] |==|  0.67805
USER: genes 4 Torsion [CB]-CG--CD-[CE] |==|  0.37832
USER: genes 5 Torsion [CG]-CD--CE-[NZ] |==|  0.72648
USER: genes 6 Torsion [CD]-CE--NZ-[HZ3] |==|  0.81446
USER: genes 7 Torsion [N]-CA--C-[N] |==|  0.36379
USER: genes 8 Torsion [C]-N--CA-[C] |==|  0.75185
USER: genes 9 Torsion [N]-CA--C-[N] |==|  0.01517
USER: genes 10 Torsion [C]-N--CA-[C] |==|  0.51685
USER: genes 11 Torsion [N]-CA--C-[O] |==|  0.03873
USER: genes 12 Torsion [N]-CA--CB-[CG] |==|  0.47243
USER: genes 13 Torsion [CA]-CB--CG-[ND2] |==|  0.73105
USER: genes 14 Torsion [N]-CA--CB-[CG] |==|  0.88742
USER: genes 15 Torsion [CA]-CB--CG-[CD2] |==|  0.89487
USER: genes 16 Torsion [CB]-CA--N-[C] |==|  0.84753
USER: genes 17 Torsion [N]-C--CA-[CB] |==|  0.74388
USER: genes 18 Torsion [N]-C--CA-[N] |==|  0.45748
USER: genes 19 Torsion [C]-CA--N-[C] |==|  0.60084
USER: genes 20 Torsion [N]-C--CA-[N] |==|  0.39444
USER: genes 21 Torsion [C]-CA--CB-[CG] |==|  0.53807
USER: genes 22 Torsion [CA]-CB--CG-[CD1] |==|  0.88405
USER: genes 23 Torsion [CE1]-CZ--OH-[HH] |==|  0.63253
ROOT
ATOM      1  CA  LYS B   5      -6.183   7.034  -3.551  1.00 42.36 LIG 0.18  C 
ENDROOT
BRANCH 1 2
ATOM      2  CB  LYS B   5      -6.642   7.375  -4.977  1.00 43.80 LIG 0.04  C 
BRANCH 2 3
ATOM      3  CG  LYS B   5      -6.879   8.881  -5.247  1.00 49.23 LIG 0.00  C 
BRANCH 3 4
ATOM      4  CD  LYS B   5      -8.339   9.212  -5.574  1.00 48.54 LIG 0.03  C 
BRANCH 4 5
ATOM      5  CE  LYS B   5      -8.801  10.459  -4.840  1.00 43.92 LIG 0.23  C 
BRANCH 5 6
ATOM      6  NZ  LYS B   5      -9.552  10.074  -3.622  1.00 45.51 LIG-0.08  N 
ATOM      7 HZ3  LYS B   5     -10.313   9.674  -3.856  1.00 45.51 LIG 0.27  HD
ATOM      8 HZ1  LYS B   5      -9.061   9.515  -3.134  1.00 45.51 LIG 0.27  HD
ATOM      9 HZ2  LYS B   5      -9.736  10.801  -3.143  1.00 45.51 LIG 0.27  HD
ENDBRANCH 5 6
ENDBRANCH 4 5
ENDBRANCH 3 4
ENDBRANCH 2 3
ENDBRANCH 1 2
BRANCH 1 10
ATOM     10  C   LYS B   5      -5.918   5.532  -3.436  1.00 41.24 LIG 0.24  C 
ATOM     11  N   TRP B   6      -6.815   4.821  -2.752  1.00 42.23 LIG-0.35  N 
ATOM     12 H    TRP B   6      -7.494   5.157  -2.346  1.00 42.23 LIG 0.16  HD
ATOM     13 O    LYS B   5      -4.919   5.019  -3.947  1.00 40.50 LIG-0.27  OA
BRANCH 11 14
ATOM     14  CA  TRP B   6      -6.694   3.369  -2.647  1.00 42.54 LIG 0.18  C 
BRANCH 14 15
ATOM     15  C   TRP B   6      -7.429   2.714  -3.815  1.00 45.00 LIG 0.24  C 
ATOM     16 O    TRP B   6      -7.544   1.482  -3.870  1.00 46.85 LIG-0.27  OA
ATOM     17  N   ASN B   7      -7.925   3.541  -4.744  1.00 47.11 LIG-0.35  N 
ATOM     18 H    ASN B   7      -7.965   4.394  -4.640  1.00 47.11 LIG 0.16  HD
BRANCH 17 19
ATOM     19  CA  ASN B   7      -8.453   3.077  -6.038  1.00 45.24 LIG 0.17  C 
BRANCH 19 20
ATOM     20  C   ASN B   7      -8.798   4.278  -6.917  1.00 46.26 LIG 0.22  C 
ATOM     21 O    ASN B   7      -8.392   5.406  -6.622  1.00 44.70 LIG-0.29  OA
ENDBRANCH 19 20
BRANCH 19 22
ATOM     22  CB  ASN B   7      -9.708   2.201  -5.877  1.00 46.57 LIG 0.14  C 
BRANCH 22 23
ATOM     23  CG  ASN B   7     -10.409   1.910  -7.200  1.00 48.94 LIG 0.22  C 
ATOM     24  ND2 ASN B   7     -11.442   2.692  -7.513  1.00 48.79 LIG-0.37  N 
ATOM     25 21HD ASN B   7     -11.872   2.563  -8.247  1.00 48.79 LIG 0.16  HD
ATOM     26 22HD ASN B   7     -11.679   3.324  -6.981  1.00 48.79 LIG 0.16  HD
ATOM     27 OD1  ASN B   7     -10.032   0.994  -7.927  1.00 52.21 LIG-0.27  OA
ENDBRANCH 22 23
ENDBRANCH 19 22
ENDBRANCH 17 19
ENDBRANCH 14 15
BRANCH 14 28
ATOM     28  CB  TRP B   6      -7.239   2.839  -1.317  1.00 42.47 LIG 0.07  C 
BRANCH 28 29
ATOM     29  CG  TRP B   6      -6.854   3.750  -0.159  1.00 46.30 LIG-0.03  A 
ATOM     30  CD1 TRP B   6      -7.617   4.045   0.946  1.00 49.14 LIG 0.10  A 
ATOM     31  NE1 TRP B   6      -6.925   4.881   1.794  1.00 51.13 LIG-0.36  N 
ATOM     32 HE1  TRP B   6      -7.218   5.187   2.542  1.00 51.13 LIG 0.17  HD
ATOM     33  CE2 TRP B   6      -5.694   5.146   1.251  1.00 47.23 LIG 0.04  A 
ATOM     34  CZ2 TRP B   6      -4.647   5.939   1.737  1.00 46.28 LIG 0.03  A 
ATOM     35  CD2 TRP B   6      -5.609   4.449   0.023  1.00 41.81 LIG-0.00  A 
ATOM     36  CH2 TRP B   6      -3.508   6.027   0.972  1.00 44.17 LIG 0.00  A 
ATOM     37  CZ3 TRP B   6      -3.395   5.357  -0.248  1.00 33.54 LIG 0.00  A 
ATOM     38  CE3 TRP B   6      -4.440   4.562  -0.734  1.00 38.27 LIG 0.01  A 
ENDBRANCH 28 29
ENDBRANCH 14 28
ENDBRANCH 11 14
ENDBRANCH 1 10
BRANCH 1 39
ATOM     39  N   LYS B   5      -4.985   7.792  -3.200  1.00 39.73 LIG-0.35  N 
ATOM     40  C   PRO B   4      -3.872   7.777  -3.931  1.00 35.29 LIG 0.24  C 
ATOM     41 O    PRO B   4      -3.750   7.108  -4.957  1.00 36.70 LIG-0.27  OA
ATOM     42 H    LYS B   5      -5.067   8.250  -2.477  1.00 39.73 LIG 0.16  HD
BRANCH 40 43
ATOM     43  CA  PRO B   4      -2.742   8.655  -3.426  1.00 31.05 LIG 0.18  C 
ATOM     44  N   PRO B   4      -1.440   8.149  -3.859  1.00 34.55 LIG-0.34  N 
ATOM     45  C   GLY B   3      -0.862   7.139  -3.210  1.00 37.27 LIG 0.24  C 
ATOM     46  CD  PRO B   4      -0.872   8.971  -4.943  1.00 31.08 LIG 0.13  C 
ATOM     47 O    GLY B   3      -1.419   6.568  -2.267  1.00 44.84 LIG-0.27  OA
ATOM     48  CG  PRO B   4      -2.014   9.880  -5.324  1.00 26.25 LIG 0.02  C 
ATOM     49  CB  PRO B   4      -2.797  10.047  -4.064  1.00 27.99 LIG 0.04  C 
BRANCH 45 50
ATOM     50  CA  GLY B   3       0.504   6.702  -3.691  1.00 35.98 LIG 0.23  C 
BRANCH 50 51
ATOM     51  N   GLY B   3       1.161   5.868  -2.712  1.00 37.88 LIG-0.35  N 
ATOM     52  C   TYR B   2       2.472   5.920  -2.498  1.00 38.85 LIG 0.26  C 
ATOM     53 O    TYR B   2       3.218   6.738  -3.041  1.00 37.42 LIG-0.27  OA
ATOM     54 H    GLY B   3       0.629   5.342  -2.287  1.00 37.88 LIG 0.16  HD
BRANCH 52 55
ATOM     55  CA  TYR B   2       3.026   4.904  -1.503  1.00 47.59 LIG 0.40  C 
ATOM     56  N   TYR B   2       4.329   4.412  -1.950  1.00 42.90 LIG 0.61  N 
BRANCH 55 57
ATOM     57  CB  TYR B   2       3.126   5.536  -0.112  1.00 41.46 LIG 0.09  C 
BRANCH 57 58
ATOM     58  CG  TYR B   2       3.961   4.745   0.892  1.00 40.04 LIG-0.06  A 
ATOM     59  CD1 TYR B   2       3.861   3.363   0.966  1.00 39.56 LIG 0.01  A 
ATOM     60  CE1 TYR B   2       4.618   2.629   1.870  1.00 39.46 LIG 0.04  A 
ATOM     61  CZ  TYR B   2       5.491   3.278   2.716  1.00 36.77 LIG 0.07  A 
ATOM     62  CE2 TYR B   2       5.611   4.654   2.665  1.00 30.56 LIG 0.04  A 
ATOM     63  CD2 TYR B   2       4.849   5.382   1.757  1.00 33.12 LIG 0.01  A 
BRANCH 61 64
ATOM     64 OH   TYR B   2       6.239   2.524   3.608  1.00 37.21 LIG-0.36  OA
ATOM     65 HH   TYR B   2       6.193   2.868   4.373  1.00 37.21 LIG 0.22  HD
ENDBRANCH 61 64
ENDBRANCH 57 58
ENDBRANCH 55 57
ENDBRANCH 52 55
ENDBRANCH 50 51
ENDBRANCH 45 50
ENDBRANCH 40 43
ENDBRANCH 1 39
TORSDOF 22
ENDMDL
MODEL 28
USER: ADFR SOLUTION from run 55
USER: SCORE 16.832684 LL:  -3.576 LR: -15.301 RR:   0.000 FEB:  -8.739
USER: RMSD 14.029965
USER: SEED 54
USER: STATUS no improvement in best in 7 clusters for 5 generations
USER: GENES 24
USER: genes 0 Translation |==|  0.36520 0.38346 0.59126
USER: genes 1 Rotation |==|  0.66080 0.03799 0.60225 0.51550
USER: genes 2 Torsion [C]-CA--CB-[CG] |==|  0.65985
USER: genes 3 Torsion [CA]-CB--CG-[CD] |==|  0.75602
USER: genes 4 Torsion [CB]-CG--CD-[CE] |==|  0.74280
USER: genes 5 Torsion [CG]-CD--CE-[NZ] |==|  0.25821
USER: genes 6 Torsion [CD]-CE--NZ-[HZ3] |==|  0.01666
USER: genes 7 Torsion [N]-CA--C-[N] |==|  0.58589
USER: genes 8 Torsion [C]-N--CA-[C] |==|  0.60583
USER: genes 9 Torsion [N]-CA--C-[N] |==|  0.40602
USER: genes 10 Torsion [C]-N--CA-[C] |==|  0.15504
USER: genes 11 Torsion [N]-CA--C-[O] |==|  0.64535
USER: genes 12 Torsion [N]-CA--CB-[CG] |==|  0.58563
USER: genes 13 Torsion [CA]-CB--CG-[ND2] |==|  0.11295
USER: genes 14 Torsion [N]-CA--CB-[CG] |==|  0.59189
USER: genes 15 Torsion [CA]-CB--CG-[CD2] |==|  0.74575
USER: genes 16 Torsion [CB]-CA--N-[C] |==|  0.25556
USER: genes 17 Torsion [N]-C--CA-[CB] |==|  0.43599
USER: genes 18 Torsion [N]-C--CA-[N] |==|  0.19424
USER: genes 19 Torsion [C]-CA--N-[C] |==|  0.20089
USER: genes 20 Torsion [N]-C--CA-[N] |==|  0.33677
USER: genes 21 Torsion [C]-CA--CB-[CG] |==|  0.21663
USER: genes 22 Torsion [CA]-CB--CG-[CD1] |==|  0.37592
USER: genes 23 Torsion [CE1]-CZ--OH-[HH] |==|  0.78002
ROOT
ATOM      1  CA  LYS B   5      -7.594   2.551  -0.436  1.00 42.36 LIG 0.18  C 
ENDROOT
BRANCH 1 2
ATOM      2  CB  LYS B   5      -7.631   3.415   0.835  1.00 43.80 LIG 0.04  C 
BRANCH 2 3
ATOM      3  CG  LYS B   5      -7.096   4.858   0.663  1.00 49.23 LIG 0.00  C 
BRANCH 3 4
ATOM      4  CD  LYS B   5      -5.583   4.969   0.882  1.00 48.54 LIG 0.03  C 
BRANCH 4 5
ATOM      5  CE  LYS B   5      -5.258   5.316   2.325  1.00 43.92 LIG 0.23  C 
BRANCH 5 6
ATOM      6  NZ  LYS B   5      -5.026   4.072   3.098  1.00 45.51 LIG-0.08  N 
ATOM      7 HZ3  LYS B   5      -5.037   3.373   2.547  1.00 45.51 LIG 0.27  HD
ATOM      8 HZ1  LYS B   5      -4.235   4.117   3.503  1.00 45.51 LIG 0.27  HD
ATOM      9 HZ2  LYS B   5      -5.667   3.978   3.709  1.00 45.51 LIG 0.27  HD
ENDBRANCH 5 6
ENDBRANCH 4 5
ENDBRANCH 3 4
ENDBRANCH 2 3
ENDBRANCH 1 2
BRANCH 1 10
ATOM     10  C   LYS B   5      -9.000   2.048  -0.763  1.00 41.24 LIG 0.24  C 
ATOM     11  N   TRP B   6      -9.841   1.924   0.265  1.00 42.23 LIG-0.35  N 
ATOM     12 H    TRP B   6      -9.629   2.067   1.086  1.00 42.23 LIG 0.16  HD
ATOM     13 O    LYS B   5      -9.326   1.767  -1.919  1.00 40.50 LIG-0.27  OA
BRANCH 11 14
ATOM     14  CA  TRP B   6     -11.229   1.523   0.052  1.00 42.54 LIG 0.18  C 
BRANCH 14 15
ATOM     15  C   TRP B   6     -12.133   2.301   1.005  1.00 45.00 LIG 0.24  C 
ATOM     16 O    TRP B   6     -11.731   2.609   2.136  1.00 46.85 LIG-0.27  OA
ATOM     17  N   ASN B   7     -13.350   2.616   0.545  1.00 47.11 LIG-0.35  N 
ATOM     18 H    ASN B   7     -13.580   2.523  -0.278  1.00 47.11 LIG 0.16  HD
BRANCH 17 19
ATOM     19  CA  ASN B   7     -14.422   3.155   1.401  1.00 45.24 LIG 0.17  C 
BRANCH 19 20
ATOM     20  C   ASN B   7     -13.932   4.415   2.111  1.00 46.26 LIG 0.22  C 
ATOM     21 O    ASN B   7     -14.033   4.521   3.337  1.00 44.70 LIG-0.29  OA
ENDBRANCH 19 20
BRANCH 19 22
ATOM     22  CB  ASN B   7     -14.893   2.139   2.456  1.00 46.57 LIG 0.14  C 
BRANCH 22 23
ATOM     23  CG  ASN B   7     -16.366   2.297   2.824  1.00 48.94 LIG 0.22  C 
ATOM     24  ND2 ASN B   7     -17.207   2.551   1.822  1.00 48.79 LIG-0.37  N 
ATOM     25 21HD ASN B   7     -18.046   2.652   1.980  1.00 48.79 LIG 0.16  HD
ATOM     26 22HD ASN B   7     -16.911   2.614   1.017  1.00 48.79 LIG 0.16  HD
ATOM     27 OD1  ASN B   7     -16.740   2.198   3.989  1.00 52.21 LIG-0.27  OA
ENDBRANCH 22 23
ENDBRANCH 19 22
ENDBRANCH 17 19
ENDBRANCH 14 15
BRANCH 14 28
ATOM     28  CB  TRP B   6     -11.430   0.017   0.243  1.00 42.47 LIG 0.07  C 
BRANCH 28 29
ATOM     29  CG  TRP B   6     -12.510  -0.520  -0.687  1.00 46.30 LIG-0.03  A 
ATOM     30  CD1 TRP B   6     -12.331  -1.015  -1.958  1.00 49.14 LIG 0.10  A 
ATOM     31  NE1 TRP B   6     -13.535  -1.435  -2.479  1.00 51.13 LIG-0.36  N 
ATOM     32 HE1  TRP B   6     -13.648  -1.778  -3.259  1.00 51.13 LIG 0.17  HD
ATOM     33  CE2 TRP B   6     -14.522  -1.219  -1.552  1.00 47.23 LIG 0.04  A 
ATOM     34  CZ2 TRP B   6     -15.896  -1.478  -1.622  1.00 46.28 LIG 0.03  A 
ATOM     35  CD2 TRP B   6     -13.916  -0.648  -0.408  1.00 41.81 LIG-0.00  A 
ATOM     36  CH2 TRP B   6     -16.661  -1.155  -0.526  1.00 44.17 LIG 0.00  A 
ATOM     37  CZ3 TRP B   6     -16.094  -0.583   0.615  1.00 33.54 LIG 0.00  A 
ATOM     38  CE3 TRP B   6     -14.721  -0.325   0.688  1.00 38.27 LIG 0.01  A 
ENDBRANCH 28 29
ENDBRANCH 14 28
ENDBRANCH 11 14
ENDBRANCH 1 10
BRANCH 1 39
ATOM     39  N   LYS B   5      -7.050   3.311  -1.559  1.00 39.73 LIG-0.35  N 
ATOM     40  C   PRO B   4      -5.758   3.315  -1.879  1.00 35.29 LIG 0.24  C 
ATOM     41 O    PRO B   4      -4.906   2.693  -1.245  1.00 36.70 LIG-0.27  OA
ATOM     42 H    LYS B   5      -7.644   3.755  -1.994  1.00 39.73 LIG 0.16  HD
BRANCH 40 43
ATOM     43  CA  PRO B   4      -5.385   4.138  -3.099  1.00 31.05 LIG 0.18  C 
ATOM     44  N   PRO B   4      -6.079   5.425  -3.105  1.00 34.55 LIG-0.34  N 
ATOM     45  C   GLY B   3      -7.345   5.504  -3.516  1.00 37.27 LIG 0.24  C 
ATOM     46  CD  PRO B   4      -5.173   6.533  -2.751  1.00 31.08 LIG 0.13  C 
ATOM     47 O    GLY B   3      -7.983   4.501  -3.850  1.00 44.84 LIG-0.27  OA
ATOM     48  CG  PRO B   4      -3.925   5.824  -2.287  1.00 26.25 LIG 0.02  C 
ATOM     49  CB  PRO B   4      -3.909   4.546  -3.059  1.00 27.99 LIG 0.04  C 
BRANCH 45 50
ATOM     50  CA  GLY B   3      -7.979   6.877  -3.535  1.00 35.98 LIG 0.23  C 
BRANCH 50 51
ATOM     51  N   GLY B   3      -7.408   7.701  -4.575  1.00 37.88 LIG-0.35  N 
ATOM     52  C   TYR B   2      -7.663   7.498  -5.865  1.00 38.85 LIG 0.26  C 
ATOM     53 O    TYR B   2      -8.471   6.661  -6.275  1.00 37.42 LIG-0.27  OA
ATOM     54 H    GLY B   3      -6.895   8.327  -4.284  1.00 37.88 LIG 0.16  HD
BRANCH 52 55
ATOM     55  CA  TYR B   2      -6.903   8.389  -6.842  1.00 47.59 LIG 0.40  C 
ATOM     56  N   TYR B   2      -6.107   7.575  -7.761  1.00 42.90 LIG 0.61  N 
BRANCH 55 57
ATOM     57  CB  TYR B   2      -7.886   9.279  -7.609  1.00 41.46 LIG 0.09  C 
BRANCH 57 58
ATOM     58  CG  TYR B   2      -8.402  10.485  -6.828  1.00 40.04 LIG-0.06  A 
ATOM     59  CD1 TYR B   2      -8.469  11.738  -7.421  1.00 39.56 LIG 0.01  A 
ATOM     60  CE1 TYR B   2      -8.941  12.844  -6.726  1.00 39.46 LIG 0.04  A 
ATOM     61  CZ  TYR B   2      -9.356  12.704  -5.419  1.00 36.77 LIG 0.07  A 
ATOM     62  CE2 TYR B   2      -9.300  11.468  -4.803  1.00 30.56 LIG 0.04  A 
ATOM     63  CD2 TYR B   2      -8.825  10.366  -5.507  1.00 33.12 LIG 0.01  A 
BRANCH 61 64
ATOM     64 OH   TYR B   2      -9.827  13.821  -4.747  1.00 37.21 LIG-0.36  OA
ATOM     65 HH   TYR B   2      -9.177  14.287  -4.486  1.00 37.21 LIG 0.22  HD
ENDBRANCH 61 64
ENDBRANCH 57 58
ENDBRANCH 55 57
ENDBRANCH 52 55
ENDBRANCH 50 51
ENDBRANCH 45 50
ENDBRANCH 40 43
ENDBRANCH 1 39
TORSDOF 22
ENDMDL
MODEL 29
USER: ADFR SOLUTION from run 114
USER: SCORE 17.257298 LL:  -3.323 LR: -15.273 RR:   0.000 FEB:  -8.710
USER: RMSD 13.318924
USER: SEED 113
USER: STATUS no improvement in best in 8 clusters for 5 generations
USER: GENES 24
USER: genes 0 Translation |==|  0.37503 0.44140 0.57296
USER: genes 1 Rotation |==|  0.44105 0.40964 0.02830 0.62594
USER: genes 2 Torsion [C]-CA--CB-[CG] |==|  0.48201
USER: genes 3 Torsion [CA]-CB--CG-[CD] |==|  0.71786
USER: genes 4 Torsion [CB]-CG--CD-[CE] |==|  0.35765
USER: genes 5 Torsion [CG]-CD--CE-[NZ] |==|  0.71904
USER: genes 6 Torsion [CD]-CE--NZ-[HZ3] |==|  0.63153
USER: genes 7 Torsion [N]-CA--C-[N] |==|  0.47399
USER: genes 8 Torsion [C]-N--CA-[C] |==|  0.84801
USER: genes 9 Torsion [N]-CA--C-[N] |==|  0.91176
USER: genes 10 Torsion [C]-N--CA-[C] |==|  0.72543
USER: genes 11 Torsion [N]-CA--C-[O] |==|  0.94662
USER: genes 12 Torsion [N]-CA--CB-[CG] |==|  0.14262
USER: genes 13 Torsion [CA]-CB--CG-[ND2] |==|  0.43494
USER: genes 14 Torsion [N]-CA--CB-[CG] |==|  0.69012
USER: genes 15 Torsion [CA]-CB--CG-[CD2] |==|  0.58382
USER: genes 16 Torsion [CB]-CA--N-[C] |==|  0.49444
USER: genes 17 Torsion [N]-C--CA-[CB] |==|  0.45073
USER: genes 18 Torsion [N]-C--CA-[N] |==|  0.33112
USER: genes 19 Torsion [C]-CA--N-[C] |==|  0.70164
USER: genes 20 Torsion [N]-C--CA-[N] |==|  0.15757
USER: genes 21 Torsion [C]-CA--CB-[CG] |==|  0.32321
USER: genes 22 Torsion [CA]-CB--CG-[CD1] |==|  0.54053
USER: genes 23 Torsion [CE1]-CZ--OH-[HH] |==|  0.43147
ROOT
ATOM      1  CA  LYS B   5      -7.299   3.681  -0.751  1.00 42.36 LIG 0.18  C 
ENDROOT
BRANCH 1 2
ATOM      2  CB  LYS B   5      -7.207   3.033  -2.141  1.00 43.80 LIG 0.04  C 
BRANCH 2 3
ATOM      3  CG  LYS B   5      -6.591   3.929  -3.244  1.00 49.23 LIG 0.00  C 
BRANCH 3 4
ATOM      4  CD  LYS B   5      -7.640   4.553  -4.170  1.00 48.54 LIG 0.03  C 
BRANCH 4 5
ATOM      5  CE  LYS B   5      -7.446   6.055  -4.290  1.00 43.92 LIG 0.23  C 
BRANCH 5 6
ATOM      6  NZ  LYS B   5      -8.425   6.756  -3.424  1.00 45.51 LIG-0.08  N 
ATOM      7 HZ3  LYS B   5      -8.813   7.412  -3.885  1.00 45.51 LIG 0.27  HD
ATOM      8 HZ1  LYS B   5      -9.045   6.181  -3.150  1.00 45.51 LIG 0.27  HD
ATOM      9 HZ2  LYS B   5      -8.006   7.099  -2.718  1.00 45.51 LIG 0.27  HD
ENDBRANCH 5 6
ENDBRANCH 4 5
ENDBRANCH 3 4
ENDBRANCH 2 3
ENDBRANCH 1 2
BRANCH 1 10
ATOM     10  C   LYS B   5      -8.066   2.763   0.201  1.00 41.24 LIG 0.24  C 
ATOM     11  N   TRP B   6      -9.361   2.582  -0.062  1.00 42.23 LIG-0.35  N 
ATOM     12 H    TRP B   6      -9.788   2.978  -0.695  1.00 42.23 LIG 0.16  HD
ATOM     13 O    LYS B   5      -7.507   2.228   1.162  1.00 40.50 LIG-0.27  OA
BRANCH 11 14
ATOM     14  CA  TRP B   6     -10.166   1.666   0.741  1.00 42.54 LIG 0.18  C 
BRANCH 14 15
ATOM     15  C   TRP B   6      -9.506   0.288   0.751  1.00 45.00 LIG 0.24  C 
ATOM     16 O    TRP B   6      -9.613  -0.449   1.740  1.00 46.85 LIG-0.27  OA
ATOM     17  N   ASN B   7      -8.828  -0.053  -0.352  1.00 47.11 LIG-0.35  N 
ATOM     18 H    ASN B   7      -8.866   0.395  -1.085  1.00 47.11 LIG 0.16  HD
BRANCH 17 19
ATOM     19  CA  ASN B   7      -7.948  -1.232  -0.426  1.00 45.24 LIG 0.17  C 
BRANCH 19 20
ATOM     20  C   ASN B   7      -6.495  -0.806  -0.233  1.00 46.26 LIG 0.22  C 
ATOM     21 O    ASN B   7      -6.161   0.370  -0.401  1.00 44.70 LIG-0.29  OA
ENDBRANCH 19 20
BRANCH 19 22
ATOM     22  CB  ASN B   7      -8.076  -1.975  -1.767  1.00 46.57 LIG 0.14  C 
BRANCH 22 23
ATOM     23  CG  ASN B   7      -7.924  -1.057  -2.977  1.00 48.94 LIG 0.22  C 
ATOM     24  ND2 ASN B   7      -7.542  -1.633  -4.117  1.00 48.79 LIG-0.37  N 
ATOM     25 21HD ASN B   7      -7.439  -1.156  -4.826  1.00 48.79 LIG 0.16  HD
ATOM     26 22HD ASN B   7      -7.400  -2.480  -4.145  1.00 48.79 LIG 0.16  HD
ATOM     27 OD1  ASN B   7      -8.139   0.148  -2.887  1.00 52.21 LIG-0.27  OA
ENDBRANCH 22 23
ENDBRANCH 19 22
ENDBRANCH 17 19
ENDBRANCH 14 15
BRANCH 14 28
ATOM     28  CB  TRP B   6     -11.605   1.559   0.227  1.00 42.47 LIG 0.07  C 
BRANCH 28 29
ATOM     29  CG  TRP B   6     -12.590   2.181   1.207  1.00 46.30 LIG-0.03  A 
ATOM     30  CD1 TRP B   6     -12.359   3.251   2.040  1.00 49.14 LIG 0.10  A 
ATOM     31  NE1 TRP B   6     -13.495   3.549   2.759  1.00 51.13 LIG-0.36  N 
ATOM     32 HE1  TRP B   6     -13.569   4.182   3.336  1.00 51.13 LIG 0.17  HD
ATOM     33  CE2 TRP B   6     -14.489   2.672   2.406  1.00 47.23 LIG 0.04  A 
ATOM     34  CZ2 TRP B   6     -15.809   2.574   2.864  1.00 46.28 LIG 0.03  A 
ATOM     35  CD2 TRP B   6     -13.959   1.798   1.428  1.00 41.81 LIG-0.00  A 
ATOM     36  CH2 TRP B   6     -16.596   1.583   2.327  1.00 44.17 LIG 0.00  A 
ATOM     37  CZ3 TRP B   6     -16.101   0.699   1.365  1.00 33.54 LIG 0.00  A 
ATOM     38  CE3 TRP B   6     -14.783   0.797   0.905  1.00 38.27 LIG 0.01  A 
ENDBRANCH 28 29
ENDBRANCH 14 28
ENDBRANCH 11 14
ENDBRANCH 1 10
BRANCH 1 39
ATOM     39  N   LYS B   5      -5.966   3.963  -0.225  1.00 39.73 LIG-0.35  N 
ATOM     40  C   PRO B   4      -5.755   4.560   0.946  1.00 35.29 LIG 0.24  C 
ATOM     41 O    PRO B   4      -6.667   4.942   1.680  1.00 36.70 LIG-0.27  OA
ATOM     42 H    LYS B   5      -5.329   3.706  -0.743  1.00 39.73 LIG 0.16  HD
BRANCH 40 43
ATOM     43  CA  PRO B   4      -4.300   4.738   1.341  1.00 31.05 LIG 0.18  C 
ATOM     44  N   PRO B   4      -3.517   5.305   0.244  1.00 34.55 LIG-0.34  N 
ATOM     45  C   GLY B   3      -3.087   4.524  -0.748  1.00 37.27 LIG 0.24  C 
ATOM     46  CD  PRO B   4      -3.194   6.723   0.483  1.00 31.08 LIG 0.13  C 
ATOM     47 O    GLY B   3      -3.375   3.325  -0.802  1.00 44.84 LIG-0.27  OA
ATOM     48  CG  PRO B   4      -4.034   7.072   1.686  1.00 26.25 LIG 0.02  C 
ATOM     49  CB  PRO B   4      -4.153   5.791   2.444  1.00 27.99 LIG 0.04  C 
BRANCH 45 50
ATOM     50  CA  GLY B   3      -2.245   5.176  -1.822  1.00 35.98 LIG 0.23  C 
BRANCH 50 51
ATOM     51  N   GLY B   3      -0.931   4.579  -1.890  1.00 37.88 LIG-0.35  N 
ATOM     52  C   TYR B   2       0.159   5.207  -1.458  1.00 38.85 LIG 0.26  C 
ATOM     53 O    TYR B   2       0.133   6.298  -0.885  1.00 37.42 LIG-0.27  OA
ATOM     54 H    GLY B   3      -0.922   3.790  -2.231  1.00 37.88 LIG 0.16  HD
BRANCH 52 55
ATOM     55  CA  TYR B   2       1.482   4.484  -1.693  1.00 47.59 LIG 0.40  C 
ATOM     56  N   TYR B   2       1.658   4.193  -3.115  1.00 42.90 LIG 0.61  N 
BRANCH 55 57
ATOM     57  CB  TYR B   2       2.640   5.329  -1.158  1.00 41.46 LIG 0.09  C 
BRANCH 57 58
ATOM     58  CG  TYR B   2       3.417   4.696  -0.006  1.00 40.04 LIG-0.06  A 
ATOM     59  CD1 TYR B   2       4.283   5.456   0.767  1.00 39.56 LIG 0.01  A 
ATOM     60  CE1 TYR B   2       4.993   4.896   1.822  1.00 39.46 LIG 0.04  A 
ATOM     61  CZ  TYR B   2       4.840   3.558   2.116  1.00 36.77 LIG 0.07  A 
ATOM     62  CE2 TYR B   2       3.984   2.777   1.361  1.00 30.56 LIG 0.04  A 
ATOM     63  CD2 TYR B   2       3.278   3.346   0.306  1.00 33.12 LIG 0.01  A 
BRANCH 61 64
ATOM     64 OH   TYR B   2       5.556   3.022   3.175  1.00 37.21 LIG-0.36  OA
ATOM     65 HH   TYR B   2       5.157   2.342   3.468  1.00 37.21 LIG 0.22  HD
ENDBRANCH 61 64
ENDBRANCH 57 58
ENDBRANCH 55 57
ENDBRANCH 52 55
ENDBRANCH 50 51
ENDBRANCH 45 50
ENDBRANCH 40 43
ENDBRANCH 1 39
TORSDOF 22
ENDMDL
MODEL 30
USER: ADFR SOLUTION from run 124
USER: SCORE 18.304995 LL:  -4.263 LR: -15.250 RR:   0.000 FEB:  -8.687
USER: RMSD 12.425047
USER: SEED 123
USER: STATUS no improvement in best in 17 clusters for 5 generations
USER: GENES 24
USER: genes 0 Translation |==|  0.41036 0.48311 0.62372
USER: genes 1 Rotation |==|  0.77127 0.11380 0.58946 0.63879
USER: genes 2 Torsion [C]-CA--CB-[CG] |==|  0.41141
USER: genes 3 Torsion [CA]-CB--CG-[CD] |==|  0.66801
USER: genes 4 Torsion [CB]-CG--CD-[CE] |==|  0.16041
USER: genes 5 Torsion [CG]-CD--CE-[NZ] |==|  0.78641
USER: genes 6 Torsion [CD]-CE--NZ-[HZ3] |==|  0.93862
USER: genes 7 Torsion [N]-CA--C-[N] |==|  0.00419
USER: genes 8 Torsion [C]-N--CA-[C] |==|  0.84935
USER: genes 9 Torsion [N]-CA--C-[N] |==|  0.92569
USER: genes 10 Torsion [C]-N--CA-[C] |==|  0.48436
USER: genes 11 Torsion [N]-CA--C-[O] |==|  0.12317
USER: genes 12 Torsion [N]-CA--CB-[CG] |==|  0.69680
USER: genes 13 Torsion [CA]-CB--CG-[ND2] |==|  0.09193
USER: genes 14 Torsion [N]-CA--CB-[CG] |==|  0.54662
USER: genes 15 Torsion [CA]-CB--CG-[CD2] |==|  0.23555
USER: genes 16 Torsion [CB]-CA--N-[C] |==|  0.23393
USER: genes 17 Torsion [N]-C--CA-[CB] |==|  0.86206
USER: genes 18 Torsion [N]-C--CA-[N] |==|  0.24685
USER: genes 19 Torsion [C]-CA--N-[C] |==|  0.25321
USER: genes 20 Torsion [N]-C--CA-[N] |==|  0.77626
USER: genes 21 Torsion [C]-CA--CB-[CG] |==|  0.18283
USER: genes 22 Torsion [CA]-CB--CG-[CD1] |==|  0.75064
USER: genes 23 Torsion [CE1]-CZ--OH-[HH] |==|  0.27063
ROOT
ATOM      1  CA  LYS B   5      -6.239   4.495   0.124  1.00 42.36 LIG 0.18  C 
ENDROOT
BRANCH 1 2
ATOM      2  CB  LYS B   5      -5.994   5.600   1.163  1.00 43.80 LIG 0.04  C 
BRANCH 2 3
ATOM      3  CG  LYS B   5      -4.567   6.200   1.158  1.00 49.23 LIG 0.00  C 
BRANCH 3 4
ATOM      4  CD  LYS B   5      -3.831   6.015   2.489  1.00 48.54 LIG 0.03  C 
BRANCH 4 5
ATOM      5  CE  LYS B   5      -3.731   4.547   2.865  1.00 43.92 LIG 0.23  C 
BRANCH 5 6
ATOM      6  NZ  LYS B   5      -5.035   4.074   3.389  1.00 45.51 LIG-0.08  N 
ATOM      7 HZ3  LYS B   5      -5.508   4.770   3.681  1.00 45.51 LIG 0.27  HD
ATOM      8 HZ1  LYS B   5      -5.484   3.662   2.742  1.00 45.51 LIG 0.27  HD
ATOM      9 HZ2  LYS B   5      -4.897   3.507   4.062  1.00 45.51 LIG 0.27  HD
ENDBRANCH 5 6
ENDBRANCH 4 5
ENDBRANCH 3 4
ENDBRANCH 2 3
ENDBRANCH 1 2
BRANCH 1 10
ATOM     10  C   LYS B   5      -7.252   3.486   0.668  1.00 41.24 LIG 0.24  C 
ATOM     11  N   TRP B   6      -8.339   3.276  -0.076  1.00 42.23 LIG-0.35  N 
ATOM     12 H    TRP B   6      -8.519   3.697  -0.804  1.00 42.23 LIG 0.16  HD
ATOM     13 O    LYS B   5      -7.066   2.909   1.742  1.00 40.50 LIG-0.27  OA
BRANCH 11 14
ATOM     14  CA  TRP B   6      -9.331   2.279   0.316  1.00 42.54 LIG 0.18  C 
BRANCH 14 15
ATOM     15  C   TRP B   6      -8.641   0.932   0.521  1.00 45.00 LIG 0.24  C 
ATOM     16 O    TRP B   6      -9.125   0.092   1.292  1.00 46.85 LIG-0.27  OA
ATOM     17  N   ASN B   7      -7.514   0.730  -0.173  1.00 47.11 LIG-0.35  N 
ATOM     18 H    ASN B   7      -7.252   1.251  -0.806  1.00 47.11 LIG 0.16  HD
BRANCH 17 19
ATOM     19  CA  ASN B   7      -6.606  -0.403   0.074  1.00 45.24 LIG 0.17  C 
BRANCH 19 20
ATOM     20  C   ASN B   7      -5.497  -0.416  -0.976  1.00 46.26 LIG 0.22  C 
ATOM     21 O    ASN B   7      -4.923   0.630  -1.292  1.00 44.70 LIG-0.29  OA
ENDBRANCH 19 20
BRANCH 19 22
ATOM     22  CB  ASN B   7      -7.338  -1.756   0.042  1.00 46.57 LIG 0.14  C 
BRANCH 22 23
ATOM     23  CG  ASN B   7      -7.461  -2.404   1.418  1.00 48.94 LIG 0.22  C 
ATOM     24  ND2 ASN B   7      -7.594  -1.578   2.456  1.00 48.79 LIG-0.37  N 
ATOM     25 21HD ASN B   7      -7.663  -1.896   3.252  1.00 48.79 LIG 0.16  HD
ATOM     26 22HD ASN B   7      -7.611  -0.728   2.330  1.00 48.79 LIG 0.16  HD
ATOM     27 OD1  ASN B   7      -7.431  -3.625   1.546  1.00 52.21 LIG-0.27  OA
ENDBRANCH 22 23
ENDBRANCH 19 22
ENDBRANCH 17 19
ENDBRANCH 14 15
BRANCH 14 28
ATOM     28  CB  TRP B   6     -10.455   2.145  -0.717  1.00 42.47 LIG 0.07  C 
BRANCH 28 29
ATOM     29  CG  TRP B   6     -11.665   1.433  -0.129  1.00 46.30 LIG-0.03  A 
ATOM     30  CD1 TRP B   6     -11.940   0.087  -0.191  1.00 49.14 LIG 0.10  A 
ATOM     31  NE1 TRP B   6     -13.109  -0.192   0.480  1.00 51.13 LIG-0.36  N 
ATOM     32 HE1  TRP B   6     -13.463  -0.971   0.565  1.00 51.13 LIG 0.17  HD
ATOM     33  CE2 TRP B   6     -13.619   0.974   0.991  1.00 47.23 LIG 0.04  A 
ATOM     34  CZ2 TRP B   6     -14.781   1.197   1.740  1.00 46.28 LIG 0.03  A 
ATOM     35  CD2 TRP B   6     -12.736   2.020   0.633  1.00 41.81 LIG-0.00  A 
ATOM     36  CH2 TRP B   6     -15.050   2.489   2.126  1.00 44.17 LIG 0.00  A 
ATOM     37  CZ3 TRP B   6     -14.203   3.545   1.781  1.00 33.54 LIG 0.00  A 
ATOM     38  CE3 TRP B   6     -13.040   3.323   1.035  1.00 38.27 LIG 0.01  A 
ENDBRANCH 28 29
ENDBRANCH 14 28
ENDBRANCH 11 14
ENDBRANCH 1 10
BRANCH 1 39
ATOM     39  N   LYS B   5      -6.713   5.066  -1.134  1.00 39.73 LIG-0.35  N 
ATOM     40  C   PRO B   4      -5.897   5.551  -2.068  1.00 35.29 LIG 0.24  C 
ATOM     41 O    PRO B   4      -4.672   5.576  -1.944  1.00 36.70 LIG-0.27  OA
ATOM     42 H    LYS B   5      -7.569   5.059  -1.216  1.00 39.73 LIG 0.16  HD
BRANCH 40 43
ATOM     43  CA  PRO B   4      -6.571   6.072  -3.324  1.00 31.05 LIG 0.18  C 
ATOM     44  N   PRO B   4      -5.614   6.220  -4.419  1.00 34.55 LIG-0.34  N 
ATOM     45  C   GLY B   3      -4.818   7.288  -4.478  1.00 37.27 LIG 0.24  C 
ATOM     46  CD  PRO B   4      -5.773   5.155  -5.427  1.00 31.08 LIG 0.13  C 
ATOM     47 O    GLY B   3      -4.824   8.151  -3.595  1.00 44.84 LIG-0.27  OA
ATOM     48  CG  PRO B   4      -6.730   4.194  -4.767  1.00 26.25 LIG 0.02  C 
ATOM     49  CB  PRO B   4      -7.569   5.052  -3.878  1.00 27.99 LIG 0.04  C 
BRANCH 45 50
ATOM     50  CA  GLY B   3      -3.887   7.390  -5.665  1.00 35.98 LIG 0.23  C 
BRANCH 50 51
ATOM     51  N   GLY B   3      -4.522   8.071  -6.770  1.00 37.88 LIG-0.35  N 
ATOM     52  C   TYR B   2      -4.433   9.387  -6.941  1.00 38.85 LIG 0.26  C 
ATOM     53 O    TYR B   2      -3.734  10.118  -6.237  1.00 37.42 LIG-0.27  OA
ATOM     54 H    GLY B   3      -4.958   7.550  -7.298  1.00 37.88 LIG 0.16  HD
BRANCH 52 55
ATOM     55  CA  TYR B   2      -5.244   9.965  -8.097  1.00 47.59 LIG 0.40  C 
ATOM     56  N   TYR B   2      -4.536   9.773  -9.362  1.00 42.90 LIG 0.61  N 
BRANCH 55 57
ATOM     57  CB  TYR B   2      -6.629   9.315  -8.140  1.00 41.46 LIG 0.09  C 
BRANCH 57 58
ATOM     58  CG  TYR B   2      -7.521   9.628  -6.941  1.00 40.04 LIG-0.06  A 
ATOM     59  CD1 TYR B   2      -7.501   8.822  -5.812  1.00 39.56 LIG 0.01  A 
ATOM     60  CE1 TYR B   2      -8.302   9.096  -4.711  1.00 39.46 LIG 0.04  A 
ATOM     61  CZ  TYR B   2      -9.138  10.192  -4.729  1.00 36.77 LIG 0.07  A 
ATOM     62  CE2 TYR B   2      -9.178  11.013  -5.841  1.00 30.56 LIG 0.04  A 
ATOM     63  CD2 TYR B   2      -8.373  10.730  -6.939  1.00 33.12 LIG 0.01  A 
BRANCH 61 64
ATOM     64 OH   TYR B   2      -9.925  10.449  -3.618  1.00 37.21 LIG-0.36  OA
ATOM     65 HH   TYR B   2      -9.550  11.026  -3.135  1.00 37.21 LIG 0.22  HD
ENDBRANCH 61 64
ENDBRANCH 57 58
ENDBRANCH 55 57
ENDBRANCH 52 55
ENDBRANCH 50 51
ENDBRANCH 45 50
ENDBRANCH 40 43
ENDBRANCH 1 39
TORSDOF 22
ENDMDL
MODEL 31
USER: ADFR SOLUTION from run 169
USER: SCORE 17.994375 LL:  -4.603 LR: -15.235 RR:   0.000 FEB:  -8.672
USER: RMSD 14.413242
USER: SEED 168
USER: STATUS no improvement in best in 15 clusters for 5 generations
USER: GENES 24
USER: genes 0 Translation |==|  0.34330 0.32797 0.54244
USER: genes 1 Rotation |==|  0.43677 0.99297 0.55140 0.51855
USER: genes 2 Torsion [C]-CA--CB-[CG] |==|  0.38480
USER: genes 3 Torsion [CA]-CB--CG-[CD] |==|  0.80588
USER: genes 4 Torsion [CB]-CG--CD-[CE] |==|  0.71104
USER: genes 5 Torsion [CG]-CD--CE-[NZ] |==|  0.23093
USER: genes 6 Torsion [CD]-CE--NZ-[HZ3] |==|  0.81485
USER: genes 7 Torsion [N]-CA--C-[N] |==|  0.64510
USER: genes 8 Torsion [C]-N--CA-[C] |==|  0.55069
USER: genes 9 Torsion [N]-CA--C-[N] |==|  0.40050
USER: genes 10 Torsion [C]-N--CA-[C] |==|  0.11602
USER: genes 11 Torsion [N]-CA--C-[O] |==|  0.36713
USER: genes 12 Torsion [N]-CA--CB-[CG] |==|  0.32967
USER: genes 13 Torsion [CA]-CB--CG-[ND2] |==|  0.80769
USER: genes 14 Torsion [N]-CA--CB-[CG] |==|  0.29117
USER: genes 15 Torsion [CA]-CB--CG-[CD2] |==|  0.28914
USER: genes 16 Torsion [CB]-CA--N-[C] |==|  0.19971
USER: genes 17 Torsion [N]-C--CA-[CB] |==|  0.38232
USER: genes 18 Torsion [N]-C--CA-[N] |==|  0.33552
USER: genes 19 Torsion [C]-CA--N-[C] |==|  0.56157
USER: genes 20 Torsion [N]-C--CA-[N] |==|  0.42196
USER: genes 21 Torsion [C]-CA--CB-[CG] |==|  0.02888
USER: genes 22 Torsion [CA]-CB--CG-[CD1] |==|  0.74525
USER: genes 23 Torsion [CE1]-CZ--OH-[HH] |==|  0.46986
ROOT
ATOM      1  CA  LYS B   5      -8.251   1.469  -1.278  1.00 42.36 LIG 0.18  C 
ENDROOT
BRANCH 1 2
ATOM      2  CB  LYS B   5      -8.143   1.376   0.252  1.00 43.80 LIG 0.04  C 
BRANCH 2 3
ATOM      3  CG  LYS B   5      -7.277   0.206   0.779  1.00 49.23 LIG 0.00  C 
BRANCH 3 4
ATOM      4  CD  LYS B   5      -7.920  -1.167   0.556  1.00 48.54 LIG 0.03  C 
BRANCH 4 5
ATOM      5  CE  LYS B   5      -8.501  -1.720   1.846  1.00 43.92 LIG 0.23  C 
BRANCH 5 6
ATOM      6  NZ  LYS B   5      -9.852  -1.153   2.070  1.00 45.51 LIG-0.08  N 
ATOM      7 HZ3  LYS B   5      -9.786  -0.279   2.225  1.00 45.51 LIG 0.27  HD
ATOM      8 HZ1  LYS B   5     -10.355  -1.289   1.349  1.00 45.51 LIG 0.27  HD
ATOM      9 HZ2  LYS B   5     -10.229  -1.550   2.772  1.00 45.51 LIG 0.27  HD
ENDBRANCH 5 6
ENDBRANCH 4 5
ENDBRANCH 3 4
ENDBRANCH 2 3
ENDBRANCH 1 2
BRANCH 1 10
ATOM     10  C   LYS B   5      -9.687   1.809  -1.678  1.00 41.24 LIG 0.24  C 
ATOM     11  N   TRP B   6     -10.585   1.849  -0.693  1.00 42.23 LIG-0.35  N 
ATOM     12 H    TRP B   6     -10.415   1.657   0.128  1.00 42.23 LIG 0.16  HD
ATOM     13 O    LYS B   5      -9.989   2.025  -2.855  1.00 40.50 LIG-0.27  OA
BRANCH 11 14
ATOM     14  CA  TRP B   6     -11.968   2.237  -0.957  1.00 42.54 LIG 0.18  C 
BRANCH 14 15
ATOM     15  C   TRP B   6     -12.642   2.634   0.355  1.00 45.00 LIG 0.24  C 
ATOM     16 O    TRP B   6     -12.362   2.041   1.406  1.00 46.85 LIG-0.27  OA
ATOM     17  N   ASN B   7     -13.525   3.638   0.289  1.00 47.11 LIG-0.35  N 
ATOM     18 H    ASN B   7     -13.619   4.136  -0.406  1.00 47.11 LIG 0.16  HD
BRANCH 17 19
ATOM     19  CA  ASN B   7     -14.427   3.994   1.398  1.00 45.24 LIG 0.17  C 
BRANCH 19 20
ATOM     20  C   ASN B   7     -13.668   3.931   2.722  1.00 46.26 LIG 0.22  C 
ATOM     21 O    ASN B   7     -13.748   4.857   3.533  1.00 44.70 LIG-0.29  OA
ENDBRANCH 19 20
BRANCH 19 22
ATOM     22  CB  ASN B   7     -15.649   3.064   1.479  1.00 46.57 LIG 0.14  C 
BRANCH 22 23
ATOM     23  CG  ASN B   7     -15.728   2.291   2.792  1.00 48.94 LIG 0.22  C 
ATOM     24  ND2 ASN B   7     -14.805   1.350   2.987  1.00 48.79 LIG-0.37  N 
ATOM     25 21HD ASN B   7     -14.810   0.885   3.711  1.00 48.79 LIG 0.16  HD
ATOM     26 22HD ASN B   7     -14.203   1.207   2.389  1.00 48.79 LIG 0.16  HD
ATOM     27 OD1  ASN B   7     -16.607   2.532   3.615  1.00 52.21 LIG-0.27  OA
ENDBRANCH 22 23
ENDBRANCH 19 22
ENDBRANCH 17 19
ENDBRANCH 14 15
BRANCH 14 28
ATOM     28  CB  TRP B   6     -12.760   1.118  -1.640  1.00 42.47 LIG 0.07  C 
BRANCH 28 29
ATOM     29  CG  TRP B   6     -13.712   0.439  -0.665  1.00 46.30 LIG-0.03  A 
ATOM     30  CD1 TRP B   6     -13.376  -0.438   0.339  1.00 49.14 LIG 0.10  A 
ATOM     31  NE1 TRP B   6     -14.501  -0.822   1.034  1.00 51.13 LIG-0.36  N 
ATOM     32 HE1  TRP B   6     -14.516  -1.364   1.700  1.00 51.13 LIG 0.17  HD
ATOM     33  CE2 TRP B   6     -15.595  -0.198   0.490  1.00 47.23 LIG 0.04  A 
ATOM     34  CZ2 TRP B   6     -16.946  -0.274   0.849  1.00 46.28 LIG 0.03  A 
ATOM     35  CD2 TRP B   6     -15.139   0.608  -0.579  1.00 41.81 LIG-0.00  A 
ATOM     36  CH2 TRP B   6     -17.841   0.471   0.118  1.00 44.17 LIG 0.00  A 
ATOM     37  CZ3 TRP B   6     -17.424   1.271  -0.948  1.00 33.54 LIG 0.00  A 
ATOM     38  CE3 TRP B   6     -16.074   1.350  -1.307  1.00 38.27 LIG 0.01  A 
ENDBRANCH 28 29
ENDBRANCH 14 28
ENDBRANCH 11 14
ENDBRANCH 1 10
BRANCH 1 39
ATOM     39  N   LYS B   5      -7.326   2.472  -1.799  1.00 39.73 LIG-0.35  N 
ATOM     40  C   PRO B   4      -6.006   2.298  -1.835  1.00 35.29 LIG 0.24  C 
ATOM     41 O    PRO B   4      -5.450   1.283  -1.416  1.00 36.70 LIG-0.27  OA
ATOM     42 H    LYS B   5      -7.713   3.186  -2.081  1.00 39.73 LIG 0.16  HD
BRANCH 40 43
ATOM     43  CA  PRO B   4      -5.209   3.438  -2.443  1.00 31.05 LIG 0.18  C 
ATOM     44  N   PRO B   4      -5.942   4.700  -2.367  1.00 34.55 LIG-0.34  N 
ATOM     45  C   GLY B   3      -6.897   4.978  -3.254  1.00 37.27 LIG 0.24  C 
ATOM     46  CD  PRO B   4      -5.391   5.587  -1.325  1.00 31.08 LIG 0.13  C 
ATOM     47 O    GLY B   3      -7.227   4.169  -4.127  1.00 44.84 LIG-0.27  OA
ATOM     48  CG  PRO B   4      -4.418   4.697  -0.592  1.00 26.25 LIG 0.02  C 
ATOM     49  CB  PRO B   4      -3.947   3.726  -1.624  1.00 27.99 LIG 0.04  C 
BRANCH 45 50
ATOM     50  CA  GLY B   3      -7.579   6.323  -3.136  1.00 35.98 LIG 0.23  C 
BRANCH 50 51
ATOM     51  N   GLY B   3      -7.419   7.097  -4.345  1.00 37.88 LIG-0.35  N 
ATOM     52  C   TYR B   2      -7.531   8.423  -4.361  1.00 38.85 LIG 0.26  C 
ATOM     53 O    TYR B   2      -7.685   9.104  -3.345  1.00 37.42 LIG-0.27  OA
ATOM     54 H    GLY B   3      -7.248   6.626  -5.043  1.00 37.88 LIG 0.16  HD
BRANCH 52 55
ATOM     55  CA  TYR B   2      -7.437   9.083  -5.732  1.00 47.59 LIG 0.40  C 
ATOM     56  N   TYR B   2      -8.194  10.334  -5.749  1.00 42.90 LIG 0.61  N 
BRANCH 55 57
ATOM     57  CB  TYR B   2      -5.969   9.327  -6.094  1.00 41.46 LIG 0.09  C 
BRANCH 57 58
ATOM     58  CG  TYR B   2      -4.961   8.653  -5.167  1.00 40.04 LIG-0.06  A 
ATOM     59  CD1 TYR B   2      -4.455   9.324  -4.062  1.00 39.56 LIG 0.01  A 
ATOM     60  CE1 TYR B   2      -3.542   8.723  -3.205  1.00 39.46 LIG 0.04  A 
ATOM     61  CZ  TYR B   2      -3.122   7.433  -3.448  1.00 36.77 LIG 0.07  A 
ATOM     62  CE2 TYR B   2      -3.609   6.741  -4.541  1.00 30.56 LIG 0.04  A 
ATOM     63  CD2 TYR B   2      -4.523   7.350  -5.394  1.00 33.12 LIG 0.01  A 
BRANCH 61 64
ATOM     64 OH   TYR B   2      -2.213   6.853  -2.577  1.00 37.21 LIG-0.36  OA
ATOM     65 HH   TYR B   2      -2.151   6.031  -2.742  1.00 37.21 LIG 0.22  HD
ENDBRANCH 61 64
ENDBRANCH 57 58
ENDBRANCH 55 57
ENDBRANCH 52 55
ENDBRANCH 50 51
ENDBRANCH 45 50
ENDBRANCH 40 43
ENDBRANCH 1 39
TORSDOF 22
ENDMDL
MODEL 32
USER: ADFR SOLUTION from run 62
USER: SCORE 17.397862 LL:  -3.344 LR: -15.222 RR:   0.000 FEB:  -8.660
USER: RMSD 13.040478
USER: SEED 61
USER: STATUS no improvement in best in 3 clusters for 5 generations
USER: GENES 24
USER: genes 0 Translation |==|  0.40823 0.48099 0.48081
USER: genes 1 Rotation |==|  0.47743 0.47760 0.02907 0.66498
USER: genes 2 Torsion [C]-CA--CB-[CG] |==|  0.32334
USER: genes 3 Torsion [CA]-CB--CG-[CD] |==|  0.99408
USER: genes 4 Torsion [CB]-CG--CD-[CE] |==|  0.30330
USER: genes 5 Torsion [CG]-CD--CE-[NZ] |==|  0.41048
USER: genes 6 Torsion [CD]-CE--NZ-[HZ3] |==|  0.62581
USER: genes 7 Torsion [N]-CA--C-[N] |==|  0.26837
USER: genes 8 Torsion [C]-N--CA-[C] |==|  0.18304
USER: genes 9 Torsion [N]-CA--C-[N] |==|  0.63955
USER: genes 10 Torsion [C]-N--CA-[C] |==|  0.66496
USER: genes 11 Torsion [N]-CA--C-[O] |==|  0.08380
USER: genes 12 Torsion [N]-CA--CB-[CG] |==|  0.06112
USER: genes 13 Torsion [CA]-CB--CG-[ND2] |==|  0.76018
USER: genes 14 Torsion [N]-CA--CB-[CG] |==|  0.58321
USER: genes 15 Torsion [CA]-CB--CG-[CD2] |==|  0.14250
USER: genes 16 Torsion [CB]-CA--N-[C] |==|  0.77758
USER: genes 17 Torsion [N]-C--CA-[CB] |==|  0.01757
USER: genes 18 Torsion [N]-C--CA-[N] |==|  0.36243
USER: genes 19 Torsion [C]-CA--N-[C] |==|  0.78530
USER: genes 20 Torsion [N]-C--CA-[N] |==|  0.28948
USER: genes 21 Torsion [C]-CA--CB-[CG] |==|  0.73938
USER: genes 22 Torsion [CA]-CB--CG-[CD1] |==|  0.64290
USER: genes 23 Torsion [CE1]-CZ--OH-[HH] |==|  0.95834
ROOT
ATOM      1  CA  LYS B   5      -6.303   4.453  -2.341  1.00 42.36 LIG 0.18  C 
ENDROOT
BRANCH 1 2
ATOM      2  CB  LYS B   5      -6.093   4.285  -3.854  1.00 43.80 LIG 0.04  C 
BRANCH 2 3
ATOM      3  CG  LYS B   5      -6.897   5.267  -4.741  1.00 49.23 LIG 0.00  C 
BRANCH 3 4
ATOM      4  CD  LYS B   5      -7.804   6.202  -3.935  1.00 48.54 LIG 0.03  C 
BRANCH 4 5
ATOM      5  CE  LYS B   5      -7.282   7.629  -3.955  1.00 43.92 LIG 0.23  C 
BRANCH 5 6
ATOM      6  NZ  LYS B   5      -8.420   8.578  -3.900  1.00 45.51 LIG-0.08  N 
ATOM      7 HZ3  LYS B   5      -8.297   9.224  -4.501  1.00 45.51 LIG 0.27  HD
ATOM      8 HZ1  LYS B   5      -9.176   8.146  -4.080  1.00 45.51 LIG 0.27  HD
ATOM      9 HZ2  LYS B   5      -8.470   8.936  -3.087  1.00 45.51 LIG 0.27  HD
ENDBRANCH 5 6
ENDBRANCH 4 5
ENDBRANCH 3 4
ENDBRANCH 2 3
ENDBRANCH 1 2
BRANCH 1 10
ATOM     10  C   LYS B   5      -6.943   3.191  -1.762  1.00 41.24 LIG 0.24  C 
ATOM     11  N   TRP B   6      -7.868   3.374  -0.818  1.00 42.23 LIG-0.35  N 
ATOM     12 H    TRP B   6      -8.088   4.140  -0.495  1.00 42.23 LIG 0.16  HD
ATOM     13 O    LYS B   5      -6.609   2.069  -2.150  1.00 40.50 LIG-0.27  OA
BRANCH 11 14
ATOM     14  CA  TRP B   6      -8.594   2.239  -0.254  1.00 42.54 LIG 0.18  C 
BRANCH 14 15
ATOM     15  C   TRP B   6      -7.622   1.352   0.522  1.00 45.00 LIG 0.24  C 
ATOM     16 O    TRP B   6      -6.861   1.847   1.365  1.00 46.85 LIG-0.27  OA
ATOM     17  N   ASN B   7      -7.653   0.045   0.236  1.00 47.11 LIG-0.35  N 
ATOM     18 H    ASN B   7      -8.268  -0.316  -0.245  1.00 47.11 LIG 0.16  HD
BRANCH 17 19
ATOM     19  CA  ASN B   7      -6.639  -0.911   0.714  1.00 45.24 LIG 0.17  C 
BRANCH 19 20
ATOM     20  C   ASN B   7      -5.960  -1.583  -0.476  1.00 46.26 LIG 0.22  C 
ATOM     21 O    ASN B   7      -5.839  -0.983  -1.548  1.00 44.70 LIG-0.29  OA
ENDBRANCH 19 20
BRANCH 19 22
ATOM     22  CB  ASN B   7      -7.241  -1.996   1.623  1.00 46.57 LIG 0.14  C 
BRANCH 22 23
ATOM     23  CG  ASN B   7      -8.740  -2.188   1.416  1.00 48.94 LIG 0.22  C 
ATOM     24  ND2 ASN B   7      -9.546  -1.389   2.115  1.00 48.79 LIG-0.37  N 
ATOM     25 21HD ASN B   7     -10.399  -1.461   2.035  1.00 48.79 LIG 0.16  HD
ATOM     26 22HD ASN B   7      -9.213  -0.800   2.646  1.00 48.79 LIG 0.16  HD
ATOM     27 OD1  ASN B   7      -9.167  -3.043   0.645  1.00 52.21 LIG-0.27  OA
ENDBRANCH 22 23
ENDBRANCH 19 22
ENDBRANCH 17 19
ENDBRANCH 14 15
BRANCH 14 28
ATOM     28  CB  TRP B   6      -9.313   1.420  -1.330  1.00 42.47 LIG 0.07  C 
BRANCH 28 29
ATOM     29  CG  TRP B   6     -10.572   0.767  -0.779  1.00 46.30 LIG-0.03  A 
ATOM     30  CD1 TRP B   6     -10.906  -0.566  -0.845  1.00 49.14 LIG 0.10  A 
ATOM     31  NE1 TRP B   6     -12.108  -0.789  -0.211  1.00 51.13 LIG-0.36  N 
ATOM     32 HE1  TRP B   6     -12.499  -1.551  -0.135  1.00 51.13 LIG 0.17  HD
ATOM     33  CE2 TRP B   6     -12.580   0.402   0.280  1.00 47.23 LIG 0.04  A 
ATOM     34  CZ2 TRP B   6     -13.754   0.681   0.990  1.00 46.28 LIG 0.03  A 
ATOM     35  CD2 TRP B   6     -11.639   1.404  -0.053  1.00 41.81 LIG-0.00  A 
ATOM     36  CH2 TRP B   6     -13.976   1.985   1.363  1.00 44.17 LIG 0.00  A 
ATOM     37  CZ3 TRP B   6     -13.071   3.000   1.043  1.00 33.54 LIG 0.00  A 
ATOM     38  CE3 TRP B   6     -11.897   2.722   0.335  1.00 38.27 LIG 0.01  A 
ENDBRANCH 28 29
ENDBRANCH 14 28
ENDBRANCH 11 14
ENDBRANCH 1 10
BRANCH 1 39
ATOM     39  N   LYS B   5      -5.035   4.734  -1.673  1.00 39.73 LIG-0.35  N 
ATOM     40  C   PRO B   4      -4.147   3.790  -1.366  1.00 35.29 LIG 0.24  C 
ATOM     41 O    PRO B   4      -4.326   2.596  -1.603  1.00 36.70 LIG-0.27  OA
ATOM     42 H    LYS B   5      -4.915   5.567  -1.497  1.00 39.73 LIG 0.16  HD
BRANCH 40 43
ATOM     43  CA  PRO B   4      -2.872   4.278  -0.704  1.00 31.05 LIG 0.18  C 
ATOM     44  N   PRO B   4      -1.733   4.199  -1.618  1.00 34.55 LIG-0.34  N 
ATOM     45  C   GLY B   3      -1.111   3.038  -1.818  1.00 37.27 LIG 0.24  C 
ATOM     46  CD  PRO B   4      -1.344   5.531  -2.116  1.00 31.08 LIG 0.13  C 
ATOM     47 O    GLY B   3      -1.500   1.992  -1.288  1.00 44.84 LIG-0.27  OA
ATOM     48  CG  PRO B   4      -2.466   6.420  -1.642  1.00 26.25 LIG 0.02  C 
ATOM     49  CB  PRO B   4      -2.952   5.775  -0.387  1.00 27.99 LIG 0.04  C 
BRANCH 45 50
ATOM     50  CA  GLY B   3       0.085   3.046  -2.744  1.00 35.98 LIG 0.23  C 
BRANCH 50 51
ATOM     51  N   GLY B   3       1.217   2.383  -2.141  1.00 37.88 LIG-0.35  N 
ATOM     52  C   TYR B   2       1.969   2.963  -1.208  1.00 38.85 LIG 0.26  C 
ATOM     53 O    TYR B   2       1.712   4.064  -0.717  1.00 37.42 LIG-0.27  OA
ATOM     54 H    GLY B   3       1.357   1.588  -2.438  1.00 37.88 LIG 0.16  HD
BRANCH 52 55
ATOM     55  CA  TYR B   2       3.187   2.170  -0.745  1.00 47.59 LIG 0.40  C 
ATOM     56  N   TYR B   2       4.408   2.727  -1.326  1.00 42.90 LIG 0.61  N 
BRANCH 55 57
ATOM     57  CB  TYR B   2       3.258   2.169   0.784  1.00 41.46 LIG 0.09  C 
BRANCH 57 58
ATOM     58  CG  TYR B   2       4.128   3.269   1.385  1.00 40.04 LIG-0.06  A 
ATOM     59  CD1 TYR B   2       5.115   2.967   2.313  1.00 39.56 LIG 0.01  A 
ATOM     60  CE1 TYR B   2       5.918   3.956   2.865  1.00 39.46 LIG 0.04  A 
ATOM     61  CZ  TYR B   2       5.741   5.270   2.490  1.00 36.77 LIG 0.07  A 
ATOM     62  CE2 TYR B   2       4.765   5.601   1.568  1.00 30.56 LIG 0.04  A 
ATOM     63  CD2 TYR B   2       3.964   4.604   1.020  1.00 33.12 LIG 0.01  A 
BRANCH 61 64
ATOM     64 OH   TYR B   2       6.557   6.240   3.051  1.00 37.21 LIG-0.36  OA
ATOM     65 HH   TYR B   2       6.947   5.923   3.725  1.00 37.21 LIG 0.22  HD
ENDBRANCH 61 64
ENDBRANCH 57 58
ENDBRANCH 55 57
ENDBRANCH 52 55
ENDBRANCH 50 51
ENDBRANCH 45 50
ENDBRANCH 40 43
ENDBRANCH 1 39
TORSDOF 22
ENDMDL
MODEL 33
USER: ADFR SOLUTION from run 150
USER: SCORE 17.989925 LL:  -3.693 LR: -15.221 RR:   0.000 FEB:  -8.659
USER: RMSD 12.909340
USER: SEED 149
USER: STATUS searching
USER: GENES 24
USER: genes 0 Translation |==|  0.40224 0.47563 0.62519
USER: genes 1 Rotation |==|  0.79144 0.13638 0.61653 0.63879
USER: genes 2 Torsion [C]-CA--CB-[CG] |==|  0.37749
USER: genes 3 Torsion [CA]-CB--CG-[CD] |==|  0.86705
USER: genes 4 Torsion [CB]-CG--CD-[CE] |==|  0.76032
USER: genes 5 Torsion [CG]-CD--CE-[NZ] |==|  0.19192
USER: genes 6 Torsion [CD]-CE--NZ-[HZ3] |==|  0.40232
USER: genes 7 Torsion [N]-CA--C-[N] |==|  0.96391
USER: genes 8 Torsion [C]-N--CA-[C] |==|  0.83333
USER: genes 9 Torsion [N]-CA--C-[N] |==|  0.43102
USER: genes 10 Torsion [C]-N--CA-[C] |==|  0.22631
USER: genes 11 Torsion [N]-CA--C-[O] |==|  0.03341
USER: genes 12 Torsion [N]-CA--CB-[CG] |==|  0.72749
USER: genes 13 Torsion [CA]-CB--CG-[ND2] |==|  0.19037
USER: genes 14 Torsion [N]-CA--CB-[CG] |==|  0.70825
USER: genes 15 Torsion [CA]-CB--CG-[CD2] |==|  0.48860
USER: genes 16 Torsion [CB]-CA--N-[C] |==|  0.24200
USER: genes 17 Torsion [N]-C--CA-[CB] |==|  0.82267
USER: genes 18 Torsion [N]-C--CA-[N] |==|  0.35455
USER: genes 19 Torsion [C]-CA--N-[C] |==|  0.81673
USER: genes 20 Torsion [N]-C--CA-[N] |==|  0.24089
USER: genes 21 Torsion [C]-CA--CB-[CG] |==|  0.22896
USER: genes 22 Torsion [CA]-CB--CG-[CD1] |==|  0.29574
USER: genes 23 Torsion [CE1]-CZ--OH-[HH] |==|  0.18820
ROOT
ATOM      1  CA  LYS B   5      -6.483   4.349   0.150  1.00 42.36 LIG 0.18  C 
ENDROOT
BRANCH 1 2
ATOM      2  CB  LYS B   5      -6.421   5.554   1.101  1.00 43.80 LIG 0.04  C 
BRANCH 2 3
ATOM      3  CG  LYS B   5      -5.012   6.167   1.293  1.00 49.23 LIG 0.00  C 
BRANCH 3 4
ATOM      4  CD  LYS B   5      -3.932   5.118   1.580  1.00 48.54 LIG 0.03  C 
BRANCH 4 5
ATOM      5  CE  LYS B   5      -3.850   4.802   3.063  1.00 43.92 LIG 0.23  C 
BRANCH 5 6
ATOM      6  NZ  LYS B   5      -5.071   4.075   3.488  1.00 45.51 LIG-0.08  N 
ATOM      7 HZ3  LYS B   5      -4.859   3.477   4.113  1.00 45.51 LIG 0.27  HD
ATOM      8 HZ1  LYS B   5      -5.661   4.652   3.819  1.00 45.51 LIG 0.27  HD
ATOM      9 HZ2  LYS B   5      -5.427   3.657   2.788  1.00 45.51 LIG 0.27  HD
ENDBRANCH 5 6
ENDBRANCH 4 5
ENDBRANCH 3 4
ENDBRANCH 2 3
ENDBRANCH 1 2
BRANCH 1 10
ATOM     10  C   LYS B   5      -7.358   3.251   0.757  1.00 41.24 LIG 0.24  C 
ATOM     11  N   TRP B   6      -8.538   3.042   0.173  1.00 42.23 LIG-0.35  N 
ATOM     12 H    TRP B   6      -8.846   3.506  -0.482  1.00 42.23 LIG 0.16  HD
ATOM     13 O    LYS B   5      -6.983   2.605   1.739  1.00 40.50 LIG-0.27  OA
BRANCH 11 14
ATOM     14  CA  TRP B   6      -9.417   1.968   0.628  1.00 42.54 LIG 0.18  C 
BRANCH 14 15
ATOM     15  C   TRP B   6      -8.698   0.628   0.478  1.00 45.00 LIG 0.24  C 
ATOM     16 O    TRP B   6      -7.787   0.497  -0.352  1.00 46.85 LIG-0.27  OA
ATOM     17  N   ASN B   7      -9.108  -0.360   1.284  1.00 47.11 LIG-0.35  N 
ATOM     18 H    ASN B   7      -9.640  -0.235   1.947  1.00 47.11 LIG 0.16  HD
BRANCH 17 19
ATOM     19  CA  ASN B   7      -8.690  -1.762   1.117  1.00 45.24 LIG 0.17  C 
BRANCH 19 20
ATOM     20  C   ASN B   7      -7.311  -1.968   1.741  1.00 46.26 LIG 0.22  C 
ATOM     21 O    ASN B   7      -6.817  -1.102   2.467  1.00 44.70 LIG-0.29  OA
ENDBRANCH 19 20
BRANCH 19 22
ATOM     22  CB  ASN B   7      -8.636  -2.185  -0.361  1.00 46.57 LIG 0.14  C 
BRANCH 22 23
ATOM     23  CG  ASN B   7      -9.885  -2.935  -0.816  1.00 48.94 LIG 0.22  C 
ATOM     24  ND2 ASN B   7     -11.013  -2.228  -0.885  1.00 48.79 LIG-0.37  N 
ATOM     25 21HD ASN B   7     -11.744  -2.608  -1.132  1.00 48.79 LIG 0.16  HD
ATOM     26 22HD ASN B   7     -11.010  -1.392  -0.682  1.00 48.79 LIG 0.16  HD
ATOM     27 OD1  ASN B   7      -9.838  -4.129  -1.095  1.00 52.21 LIG-0.27  OA
ENDBRANCH 22 23
ENDBRANCH 19 22
ENDBRANCH 17 19
ENDBRANCH 14 15
BRANCH 14 28
ATOM     28  CB  TRP B   6     -10.744   1.943  -0.137  1.00 42.47 LIG 0.07  C 
BRANCH 28 29
ATOM     29  CG  TRP B   6     -11.883   2.488   0.714  1.00 46.30 LIG-0.03  A 
ATOM     30  CD1 TRP B   6     -11.805   2.915   2.019  1.00 49.14 LIG 0.10  A 
ATOM     31  NE1 TRP B   6     -13.033   3.369   2.446  1.00 51.13 LIG-0.36  N 
ATOM     32 HE1  TRP B   6     -13.206   3.680   3.228  1.00 51.13 LIG 0.17  HD
ATOM     33  CE2 TRP B   6     -13.935   3.243   1.420  1.00 47.23 LIG 0.04  A 
ATOM     34  CZ2 TRP B   6     -15.297   3.565   1.375  1.00 46.28 LIG 0.03  A 
ATOM     35  CD2 TRP B   6     -13.248   2.697   0.311  1.00 41.81 LIG-0.00  A 
ATOM     36  CH2 TRP B   6     -15.967   3.331   0.197  1.00 44.17 LIG 0.00  A 
ATOM     37  CZ3 TRP B   6     -15.319   2.785  -0.914  1.00 33.54 LIG 0.00  A 
ATOM     38  CE3 TRP B   6     -13.958   2.464  -0.870  1.00 38.27 LIG 0.01  A 
ENDBRANCH 28 29
ENDBRANCH 14 28
ENDBRANCH 11 14
ENDBRANCH 1 10
BRANCH 1 39
ATOM     39  N   LYS B   5      -7.001   4.750  -1.156  1.00 39.73 LIG-0.35  N 
ATOM     40  C   PRO B   4      -6.228   5.221  -2.133  1.00 35.29 LIG 0.24  C 
ATOM     41 O    PRO B   4      -5.013   5.376  -2.015  1.00 36.70 LIG-0.27  OA
ATOM     42 H    LYS B   5      -7.851   4.653  -1.235  1.00 39.73 LIG 0.16  HD
BRANCH 40 43
ATOM     43  CA  PRO B   4      -6.941   5.555  -3.431  1.00 31.05 LIG 0.18  C 
ATOM     44  N   PRO B   4      -6.001   6.015  -4.452  1.00 34.55 LIG-0.34  N 
ATOM     45  C   GLY B   3      -5.562   7.273  -4.443  1.00 37.27 LIG 0.24  C 
ATOM     46  CD  PRO B   4      -5.763   4.982  -5.477  1.00 31.08 LIG 0.13  C 
ATOM     47 O    GLY B   3      -5.887   8.069  -3.556  1.00 44.84 LIG-0.27  OA
ATOM     48  CG  PRO B   4      -6.429   3.759  -4.898  1.00 26.25 LIG 0.02  C 
ATOM     49  CB  PRO B   4      -7.546   4.299  -4.066  1.00 27.99 LIG 0.04  C 
BRANCH 45 50
ATOM     50  CA  GLY B   3      -4.626   7.686  -5.557  1.00 35.98 LIG 0.23  C 
BRANCH 50 51
ATOM     51  N   GLY B   3      -5.095   8.882  -6.218  1.00 37.88 LIG-0.35  N 
ATOM     52  C   TYR B   2      -6.222   8.909  -6.924  1.00 38.85 LIG 0.26  C 
ATOM     53 O    TYR B   2      -7.002   7.957  -6.998  1.00 37.42 LIG-0.27  OA
ATOM     54 H    GLY B   3      -4.583   9.564  -6.112  1.00 37.88 LIG 0.16  HD
BRANCH 52 55
ATOM     55  CA  TYR B   2      -6.526  10.220  -7.643  1.00 47.59 LIG 0.40  C 
ATOM     56  N   TYR B   2      -5.882  10.242  -8.956  1.00 42.90 LIG 0.61  N 
BRANCH 55 57
ATOM     57  CB  TYR B   2      -8.040  10.405  -7.772  1.00 41.46 LIG 0.09  C 
BRANCH 57 58
ATOM     58  CG  TYR B   2      -8.723  10.981  -6.534  1.00 40.04 LIG-0.06  A 
ATOM     59  CD1 TYR B   2      -9.174  12.293  -6.518  1.00 39.56 LIG 0.01  A 
ATOM     60  CE1 TYR B   2      -9.802  12.829  -5.401  1.00 39.46 LIG 0.04  A 
ATOM     61  CZ  TYR B   2      -9.987  12.050  -4.280  1.00 36.77 LIG 0.07  A 
ATOM     62  CE2 TYR B   2      -9.546  10.740  -4.267  1.00 30.56 LIG 0.04  A 
ATOM     63  CD2 TYR B   2      -8.918  10.210  -5.390  1.00 33.12 LIG 0.01  A 
BRANCH 61 64
ATOM     64 OH   TYR B   2     -10.619  12.606  -3.178  1.00 37.21 LIG-0.36  OA
ATOM     65 HH   TYR B   2     -11.425  12.756  -3.364  1.00 37.21 LIG 0.22  HD
ENDBRANCH 61 64
ENDBRANCH 57 58
ENDBRANCH 55 57
ENDBRANCH 52 55
ENDBRANCH 50 51
ENDBRANCH 45 50
ENDBRANCH 40 43
ENDBRANCH 1 39
TORSDOF 22
ENDMDL
MODEL 34
USER: ADFR SOLUTION from run 186
USER: SCORE 18.105596 LL:  -4.291 LR: -15.191 RR:   0.000 FEB:  -8.628
USER: RMSD 7.810089
USER: SEED 185
USER: STATUS no improvement in best in 3 clusters for 5 generations
USER: GENES 24
USER: genes 0 Translation |==|  0.40607 0.49375 0.58220
USER: genes 1 Rotation |==|  0.08511 0.32965 0.72089 0.50737
USER: genes 2 Torsion [C]-CA--CB-[CG] |==|  0.33958
USER: genes 3 Torsion [CA]-CB--CG-[CD] |==|  0.51220
USER: genes 4 Torsion [CB]-CG--CD-[CE] |==|  0.85244
USER: genes 5 Torsion [CG]-CD--CE-[NZ] |==|  0.87398
USER: genes 6 Torsion [CD]-CE--NZ-[HZ3] |==|  0.54771
USER: genes 7 Torsion [N]-CA--C-[N] |==|  0.50263
USER: genes 8 Torsion [C]-N--CA-[C] |==|  0.80728
USER: genes 9 Torsion [N]-CA--C-[N] |==|  0.93233
USER: genes 10 Torsion [C]-N--CA-[C] |==|  0.54410
USER: genes 11 Torsion [N]-CA--C-[O] |==|  0.03167
USER: genes 12 Torsion [N]-CA--CB-[CG] |==|  0.12158
USER: genes 13 Torsion [CA]-CB--CG-[ND2] |==|  0.62037
USER: genes 14 Torsion [N]-CA--CB-[CG] |==|  0.67468
USER: genes 15 Torsion [CA]-CB--CG-[CD2] |==|  0.21157
USER: genes 16 Torsion [CB]-CA--N-[C] |==|  0.12834
USER: genes 17 Torsion [N]-C--CA-[CB] |==|  0.20763
USER: genes 18 Torsion [N]-C--CA-[N] |==|  0.35863
USER: genes 19 Torsion [C]-CA--N-[C] |==|  0.86041
USER: genes 20 Torsion [N]-C--CA-[N] |==|  0.57319
USER: genes 21 Torsion [C]-CA--CB-[CG] |==|  0.83977
USER: genes 22 Torsion [CA]-CB--CG-[CD1] |==|  0.78527
USER: genes 23 Torsion [CE1]-CZ--OH-[HH] |==|  0.48786
ROOT
ATOM      1  CA  LYS B   5      -6.368   4.702  -0.592  1.00 42.36 LIG 0.18  C 
ENDROOT
BRANCH 1 2
ATOM      2  CB  LYS B   5      -5.236   4.846   0.437  1.00 43.80 LIG 0.04  C 
BRANCH 2 3
ATOM      3  CG  LYS B   5      -5.457   5.943   1.507  1.00 49.23 LIG 0.00  C 
BRANCH 3 4
ATOM      4  CD  LYS B   5      -4.258   6.122   2.444  1.00 48.54 LIG 0.03  C 
BRANCH 4 5
ATOM      5  CE  LYS B   5      -3.843   4.800   3.067  1.00 43.92 LIG 0.23  C 
BRANCH 5 6
ATOM      6  NZ  LYS B   5      -5.044   4.074   3.547  1.00 45.51 LIG-0.08  N 
ATOM      7 HZ3  LYS B   5      -4.798   3.439   4.120  1.00 45.51 LIG 0.27  HD
ATOM      8 HZ1  LYS B   5      -5.593   4.644   3.953  1.00 45.51 LIG 0.27  HD
ATOM      9 HZ2  LYS B   5      -5.462   3.702   2.855  1.00 45.51 LIG 0.27  HD
ENDBRANCH 5 6
ENDBRANCH 4 5
ENDBRANCH 3 4
ENDBRANCH 2 3
ENDBRANCH 1 2
BRANCH 1 10
ATOM     10  C   LYS B   5      -5.815   4.900  -2.004  1.00 41.24 LIG 0.24  C 
ATOM     11  N   TRP B   6      -5.186   6.052  -2.240  1.00 42.23 LIG-0.35  N 
ATOM     12 H    TRP B   6      -5.113   6.691  -1.670  1.00 42.23 LIG 0.16  HD
ATOM     13 O    LYS B   5      -5.957   4.035  -2.873  1.00 40.50 LIG-0.27  OA
BRANCH 11 14
ATOM     14  CA  TRP B   6      -4.556   6.308  -3.533  1.00 42.54 LIG 0.18  C 
BRANCH 14 15
ATOM     15  C   TRP B   6      -3.336   5.404  -3.689  1.00 45.00 LIG 0.24  C 
ATOM     16 O    TRP B   6      -2.917   5.110  -4.817  1.00 46.85 LIG-0.27  OA
ATOM     17  N   ASN B   7      -2.769   4.969  -2.557  1.00 47.11 LIG-0.35  N 
ATOM     18 H    ASN B   7      -2.972   5.278  -1.781  1.00 47.11 LIG 0.16  HD
BRANCH 17 19
ATOM     19  CA  ASN B   7      -1.738   3.917  -2.523  1.00 45.24 LIG 0.17  C 
BRANCH 19 20
ATOM     20  C   ASN B   7      -1.591   3.384  -1.100  1.00 46.26 LIG 0.22  C 
ATOM     21 O    ASN B   7      -2.416   3.682  -0.231  1.00 44.70 LIG-0.29  OA
ENDBRANCH 19 20
BRANCH 19 22
ATOM     22  CB  ASN B   7      -0.370   4.423  -3.010  1.00 46.57 LIG 0.14  C 
BRANCH 22 23
ATOM     23  CG  ASN B   7      -0.003   5.793  -2.449  1.00 48.94 LIG 0.22  C 
ATOM     24  ND2 ASN B   7       0.530   6.665  -3.306  1.00 48.79 LIG-0.37  N 
ATOM     25 21HD ASN B   7       0.757   7.449  -3.036  1.00 48.79 LIG 0.16  HD
ATOM     26 22HD ASN B   7       0.646   6.443  -4.128  1.00 48.79 LIG 0.16  HD
ATOM     27 OD1  ASN B   7      -0.190   6.062  -1.266  1.00 52.21 LIG-0.27  OA
ENDBRANCH 22 23
ENDBRANCH 19 22
ENDBRANCH 17 19
ENDBRANCH 14 15
BRANCH 14 28
ATOM     28  CB  TRP B   6      -4.151   7.776  -3.696  1.00 42.47 LIG 0.07  C 
BRANCH 28 29
ATOM     29  CG  TRP B   6      -4.904   8.434  -4.844  1.00 46.30 LIG-0.03  A 
ATOM     30  CD1 TRP B   6      -4.419   8.696  -6.104  1.00 49.14 LIG 0.10  A 
ATOM     31  NE1 TRP B   6      -5.400   9.272  -6.882  1.00 51.13 LIG-0.36  N 
ATOM     32 HE1  TRP B   6      -5.309   9.514  -7.702  1.00 51.13 LIG 0.17  HD
ATOM     33  CE2 TRP B   6      -6.544   9.397  -6.136  1.00 47.23 LIG 0.04  A 
ATOM     34  CZ2 TRP B   6      -7.794   9.922  -6.485  1.00 46.28 LIG 0.03  A 
ATOM     35  CD2 TRP B   6      -6.273   8.876  -4.849  1.00 41.81 LIG-0.00  A 
ATOM     36  CH2 TRP B   6      -8.775   9.921  -5.523  1.00 44.17 LIG 0.00  A 
ATOM     37  CZ3 TRP B   6      -8.538   9.422  -4.240  1.00 33.54 LIG 0.00  A 
ATOM     38  CE3 TRP B   6      -7.290   8.895  -3.890  1.00 38.27 LIG 0.01  A 
ENDBRANCH 28 29
ENDBRANCH 14 28
ENDBRANCH 11 14
ENDBRANCH 1 10
BRANCH 1 39
ATOM     39  N   LYS B   5      -7.008   3.395  -0.473  1.00 39.73 LIG-0.35  N 
ATOM     40  C   PRO B   4      -7.369   2.863   0.693  1.00 35.29 LIG 0.24  C 
ATOM     41 O    PRO B   4      -7.179   3.420   1.774  1.00 36.70 LIG-0.27  OA
ATOM     42 H    LYS B   5      -7.130   3.000  -1.227  1.00 39.73 LIG 0.16  HD
BRANCH 40 43
ATOM     43  CA  PRO B   4      -8.052   1.510   0.615  1.00 31.05 LIG 0.18  C 
ATOM     44  N   PRO B   4      -8.968   1.440  -0.522  1.00 34.55 LIG-0.34  N 
ATOM     45  C   GLY B   3     -10.185   1.979  -0.439  1.00 37.27 LIG 0.24  C 
ATOM     46  CD  PRO B   4      -8.415   0.621  -1.617  1.00 31.08 LIG 0.13  C 
ATOM     47 O    GLY B   3     -10.556   2.592   0.566  1.00 44.84 LIG-0.27  OA
ATOM     48  CG  PRO B   4      -6.990   0.383  -1.184  1.00 26.25 LIG 0.02  C 
ATOM     49  CB  PRO B   4      -7.042   0.400   0.307  1.00 27.99 LIG 0.04  C 
BRANCH 45 50
ATOM     50  CA  GLY B   3     -11.090   1.827  -1.641  1.00 35.98 LIG 0.23  C 
BRANCH 50 51
ATOM     51  N   GLY B   3     -12.383   1.309  -1.260  1.00 37.88 LIG-0.35  N 
ATOM     52  C   TYR B   2     -12.519   0.225  -0.501  1.00 38.85 LIG 0.26  C 
ATOM     53 O    TYR B   2     -11.569  -0.369   0.013  1.00 37.42 LIG-0.27  OA
ATOM     54 H    GLY B   3     -13.046   1.762  -1.566  1.00 37.88 LIG 0.16  HD
BRANCH 52 55
ATOM     55  CA  TYR B   2     -13.950  -0.253  -0.271  1.00 47.59 LIG 0.40  C 
ATOM     56  N   TYR B   2     -14.046  -0.987   0.990  1.00 42.90 LIG 0.61  N 
BRANCH 55 57
ATOM     57  CB  TYR B   2     -14.907   0.942  -0.284  1.00 41.46 LIG 0.09  C 
BRANCH 57 58
ATOM     58  CG  TYR B   2     -14.594   2.025   0.745  1.00 40.04 LIG-0.06  A 
ATOM     59  CD1 TYR B   2     -14.924   1.850   2.082  1.00 39.56 LIG 0.01  A 
ATOM     60  CE1 TYR B   2     -14.641   2.824   3.031  1.00 39.46 LIG 0.04  A 
ATOM     61  CZ  TYR B   2     -14.016   3.991   2.649  1.00 36.77 LIG 0.07  A 
ATOM     62  CE2 TYR B   2     -13.675   4.192   1.324  1.00 30.56 LIG 0.04  A 
ATOM     63  CD2 TYR B   2     -13.963   3.212   0.380  1.00 33.12 LIG 0.01  A 
BRANCH 61 64
ATOM     64 OH   TYR B   2     -13.740   4.946   3.615  1.00 37.21 LIG-0.36  OA
ATOM     65 HH   TYR B   2     -13.308   5.579   3.269  1.00 37.21 LIG 0.22  HD
ENDBRANCH 61 64
ENDBRANCH 57 58
ENDBRANCH 55 57
ENDBRANCH 52 55
ENDBRANCH 50 51
ENDBRANCH 45 50
ENDBRANCH 40 43
ENDBRANCH 1 39
TORSDOF 22
ENDMDL
MODEL 35
USER: ADFR SOLUTION from run 83
USER: SCORE 18.446362 LL:  -4.631 LR: -15.182 RR:   0.000 FEB:  -8.619
USER: RMSD 8.370860
USER: SEED 82
USER: STATUS no improvement in best in 18 clusters for 5 generations
USER: GENES 24
USER: genes 0 Translation |==|  0.36242 0.44097 0.62292
USER: genes 1 Rotation |==|  0.97999 0.52242 0.36571 0.53277
USER: genes 2 Torsion [C]-CA--CB-[CG] |==|  0.28018
USER: genes 3 Torsion [CA]-CB--CG-[CD] |==|  0.74300
USER: genes 4 Torsion [CB]-CG--CD-[CE] |==|  0.75678
USER: genes 5 Torsion [CG]-CD--CE-[NZ] |==|  0.01776
USER: genes 6 Torsion [CD]-CE--NZ-[HZ3] |==|  0.45076
USER: genes 7 Torsion [N]-CA--C-[N] |==|  0.40792
USER: genes 8 Torsion [C]-N--CA-[C] |==|  0.68141
USER: genes 9 Torsion [N]-CA--C-[N] |==|  0.57520
USER: genes 10 Torsion [C]-N--CA-[C] |==|  0.18386
USER: genes 11 Torsion [N]-CA--C-[O] |==|  0.98261
USER: genes 12 Torsion [N]-CA--CB-[CG] |==|  0.90705
USER: genes 13 Torsion [CA]-CB--CG-[ND2] |==|  0.28126
USER: genes 14 Torsion [N]-CA--CB-[CG] |==|  0.98664
USER: genes 15 Torsion [CA]-CB--CG-[CD2] |==|  0.31057
USER: genes 16 Torsion [CB]-CA--N-[C] |==|  0.84876
USER: genes 17 Torsion [N]-C--CA-[CB] |==|  0.26352
USER: genes 18 Torsion [N]-C--CA-[N] |==|  0.21069
USER: genes 19 Torsion [C]-CA--N-[C] |==|  0.25347
USER: genes 20 Torsion [N]-C--CA-[N] |==|  0.66385
USER: genes 21 Torsion [C]-CA--CB-[CG] |==|  0.20710
USER: genes 22 Torsion [CA]-CB--CG-[CD1] |==|  0.99978
USER: genes 23 Torsion [CE1]-CZ--OH-[HH] |==|  0.00582
ROOT
ATOM      1  CA  LYS B   5      -7.677   3.673   0.110  1.00 42.36 LIG 0.18  C 
ENDROOT
BRANCH 1 2
ATOM      2  CB  LYS B   5      -7.085   3.709   1.528  1.00 43.80 LIG 0.04  C 
BRANCH 2 3
ATOM      3  CG  LYS B   5      -6.552   5.091   1.981  1.00 49.23 LIG 0.00  C 
BRANCH 3 4
ATOM      4  CD  LYS B   5      -5.060   5.285   1.690  1.00 48.54 LIG 0.03  C 
BRANCH 4 5
ATOM      5  CE  LYS B   5      -4.203   4.761   2.829  1.00 43.92 LIG 0.23  C 
BRANCH 5 6
ATOM      6  NZ  LYS B   5      -5.060   4.074   3.825  1.00 45.51 LIG-0.08  N 
ATOM      7 HZ3  LYS B   5      -4.555   3.556   4.345  1.00 45.51 LIG 0.27  HD
ATOM      8 HZ1  LYS B   5      -5.476   4.679   4.327  1.00 45.51 LIG 0.27  HD
ATOM      9 HZ2  LYS B   5      -5.663   3.573   3.404  1.00 45.51 LIG 0.27  HD
ENDBRANCH 5 6
ENDBRANCH 4 5
ENDBRANCH 3 4
ENDBRANCH 2 3
ENDBRANCH 1 2
BRANCH 1 10
ATOM     10  C   LYS B   5      -6.660   3.077  -0.863  1.00 41.24 LIG 0.24  C 
ATOM     11  N   TRP B   6      -5.838   3.938  -1.465  1.00 42.23 LIG-0.35  N 
ATOM     12 H    TRP B   6      -5.876   4.792  -1.372  1.00 42.23 LIG 0.16  HD
ATOM     13 O    LYS B   5      -6.615   1.862  -1.077  1.00 40.50 LIG-0.27  OA
BRANCH 11 14
ATOM     14  CA  TRP B   6      -4.781   3.465  -2.354  1.00 42.54 LIG 0.18  C 
BRANCH 14 15
ATOM     15  C   TRP B   6      -3.420   3.795  -1.744  1.00 45.00 LIG 0.24  C 
ATOM     16 O    TRP B   6      -3.294   3.898  -0.516  1.00 46.85 LIG-0.27  OA
ATOM     17  N   ASN B   7      -2.407   3.957  -2.604  1.00 47.11 LIG-0.35  N 
ATOM     18 H    ASN B   7      -2.462   3.755  -3.438  1.00 47.11 LIG 0.16  HD
BRANCH 17 19
ATOM     19  CA  ASN B   7      -1.095   4.500  -2.212  1.00 45.24 LIG 0.17  C 
BRANCH 19 20
ATOM     20  C   ASN B   7      -0.398   3.530  -1.260  1.00 46.26 LIG 0.22  C 
ATOM     21 O    ASN B   7      -0.990   2.531  -0.841  1.00 44.70 LIG-0.29  OA
ENDBRANCH 19 20
BRANCH 19 22
ATOM     22  CB  ASN B   7      -1.210   5.873  -1.529  1.00 46.57 LIG 0.14  C 
BRANCH 22 23
ATOM     23  CG  ASN B   7      -2.357   6.719  -2.074  1.00 48.94 LIG 0.22  C 
ATOM     24  ND2 ASN B   7      -3.468   6.762  -1.339  1.00 48.79 LIG-0.37  N 
ATOM     25 21HD ASN B   7      -4.143   7.223  -1.607  1.00 48.79 LIG 0.16  HD
ATOM     26 22HD ASN B   7      -3.510   6.329  -0.597  1.00 48.79 LIG 0.16  HD
ATOM     27 OD1  ASN B   7      -2.248   7.320  -3.139  1.00 52.21 LIG-0.27  OA
ENDBRANCH 22 23
ENDBRANCH 19 22
ENDBRANCH 17 19
ENDBRANCH 14 15
BRANCH 14 28
ATOM     28  CB  TRP B   6      -4.892   4.071  -3.757  1.00 42.47 LIG 0.07  C 
BRANCH 28 29
ATOM     29  CG  TRP B   6      -6.148   4.921  -3.894  1.00 46.30 LIG-0.03  A 
ATOM     30  CD1 TRP B   6      -7.450   4.479  -3.860  1.00 49.14 LIG 0.10  A 
ATOM     31  NE1 TRP B   6      -8.317   5.542  -3.987  1.00 51.13 LIG-0.36  N 
ATOM     32 HE1  TRP B   6      -9.175   5.488  -3.991  1.00 51.13 LIG 0.17  HD
ATOM     33  CE2 TRP B   6      -7.590   6.698  -4.108  1.00 47.23 LIG 0.04  A 
ATOM     34  CZ2 TRP B   6      -8.021   8.021  -4.263  1.00 46.28 LIG 0.03  A 
ATOM     35  CD2 TRP B   6      -6.220   6.350  -4.050  1.00 41.81 LIG-0.00  A 
ATOM     36  CH2 TRP B   6      -7.058   8.997  -4.360  1.00 44.17 LIG 0.00  A 
ATOM     37  CZ3 TRP B   6      -5.697   8.685  -4.314  1.00 33.54 LIG 0.00  A 
ATOM     38  CE3 TRP B   6      -5.264   7.364  -4.157  1.00 38.27 LIG 0.01  A 
ENDBRANCH 28 29
ENDBRANCH 14 28
ENDBRANCH 11 14
ENDBRANCH 1 10
BRANCH 1 39
ATOM     39  N   LYS B   5      -8.917   2.900   0.090  1.00 39.73 LIG-0.35  N 
ATOM     40  C   PRO B   4      -9.003   1.648   0.537  1.00 35.29 LIG 0.24  C 
ATOM     41 O    PRO B   4      -8.041   1.028   0.990  1.00 36.70 LIG-0.27  OA
ATOM     42 H    LYS B   5      -9.586   3.329  -0.238  1.00 39.73 LIG 0.16  HD
BRANCH 40 43
ATOM     43  CA  PRO B   4     -10.382   1.018   0.465  1.00 31.05 LIG 0.18  C 
ATOM     44  N   PRO B   4     -11.426   2.035   0.342  1.00 34.55 LIG-0.34  N 
ATOM     45  C   GLY B   3     -11.852   2.695   1.419  1.00 37.27 LIG 0.24  C 
ATOM     46  CD  PRO B   4     -11.971   2.090  -1.027  1.00 31.08 LIG 0.13  C 
ATOM     47 O    GLY B   3     -11.352   2.512   2.533  1.00 44.84 LIG-0.27  OA
ATOM     48  CG  PRO B   4     -11.032   1.208  -1.810  1.00 26.25 LIG 0.02  C 
ATOM     49  CB  PRO B   4     -10.548   0.201  -0.820  1.00 27.99 LIG 0.04  C 
BRANCH 45 50
ATOM     50  CA  GLY B   3     -12.965   3.699   1.217  1.00 35.98 LIG 0.23  C 
BRANCH 50 51
ATOM     51  N   GLY B   3     -14.239   3.039   1.049  1.00 37.88 LIG-0.35  N 
ATOM     52  C   TYR B   2     -15.044   2.775   2.074  1.00 38.85 LIG 0.26  C 
ATOM     53 O    TYR B   2     -14.820   3.148   3.228  1.00 37.42 LIG-0.27  OA
ATOM     54 H    GLY B   3     -14.424   2.837   0.234  1.00 37.88 LIG 0.16  HD
BRANCH 52 55
ATOM     55  CA  TYR B   2     -16.306   1.984   1.744  1.00 47.59 LIG 0.40  C 
ATOM     56  N   TYR B   2     -17.497   2.745   2.118  1.00 42.90 LIG 0.61  N 
BRANCH 55 57
ATOM     57  CB  TYR B   2     -16.326   1.631   0.255  1.00 41.46 LIG 0.09  C 
BRANCH 57 58
ATOM     58  CG  TYR B   2     -15.365   0.517  -0.153  1.00 40.04 LIG-0.06  A 
ATOM     59  CD1 TYR B   2     -14.553  -0.099   0.789  1.00 39.56 LIG 0.01  A 
ATOM     60  CE1 TYR B   2     -13.678  -1.118   0.435  1.00 39.46 LIG 0.04  A 
ATOM     61  CZ  TYR B   2     -13.607  -1.535  -0.876  1.00 36.77 LIG 0.07  A 
ATOM     62  CE2 TYR B   2     -14.405  -0.939  -1.836  1.00 30.56 LIG 0.04  A 
ATOM     63  CD2 TYR B   2     -15.278   0.081  -1.473  1.00 33.12 LIG 0.01  A 
BRANCH 61 64
ATOM     64 OH   TYR B   2     -12.729  -2.556  -1.205  1.00 37.21 LIG-0.36  OA
ATOM     65 HH   TYR B   2     -12.344  -2.829  -0.510  1.00 37.21 LIG 0.22  HD
ENDBRANCH 61 64
ENDBRANCH 57 58
ENDBRANCH 55 57
ENDBRANCH 52 55
ENDBRANCH 50 51
ENDBRANCH 45 50
ENDBRANCH 40 43
ENDBRANCH 1 39
TORSDOF 22
ENDMDL
MODEL 36
USER: ADFR SOLUTION from run 55
USER: SCORE 16.688598 LL:  -3.641 LR: -15.154 RR:   0.000 FEB:  -8.592
USER: RMSD 12.623205
USER: SEED 54
USER: STATUS no improvement in best in 7 clusters for 5 generations
USER: GENES 24
USER: genes 0 Translation |==|  0.37447 0.39413 0.58647
USER: genes 1 Rotation |==|  0.66990 0.04143 0.60358 0.51077
USER: genes 2 Torsion [C]-CA--CB-[CG] |==|  0.62005
USER: genes 3 Torsion [CA]-CB--CG-[CD] |==|  0.76377
USER: genes 4 Torsion [CB]-CG--CD-[CE] |==|  0.72131
USER: genes 5 Torsion [CG]-CD--CE-[NZ] |==|  0.25732
USER: genes 6 Torsion [CD]-CE--NZ-[HZ3] |==|  0.39467
USER: genes 7 Torsion [N]-CA--C-[N] |==|  0.56766
USER: genes 8 Torsion [C]-N--CA-[C] |==|  0.61506
USER: genes 9 Torsion [N]-CA--C-[N] |==|  0.41150
USER: genes 10 Torsion [C]-N--CA-[C] |==|  0.15900
USER: genes 11 Torsion [N]-CA--C-[O] |==|  0.60370
USER: genes 12 Torsion [N]-CA--CB-[CG] |==|  0.54918
USER: genes 13 Torsion [CA]-CB--CG-[ND2] |==|  0.12441
USER: genes 14 Torsion [N]-CA--CB-[CG] |==|  0.03326
USER: genes 15 Torsion [CA]-CB--CG-[CD2] |==|  0.77656
USER: genes 16 Torsion [CB]-CA--N-[C] |==|  0.26111
USER: genes 17 Torsion [N]-C--CA-[CB] |==|  0.43544
USER: genes 18 Torsion [N]-C--CA-[N] |==|  0.19992
USER: genes 19 Torsion [C]-CA--N-[C] |==|  0.20059
USER: genes 20 Torsion [N]-C--CA-[N] |==|  0.33454
USER: genes 21 Torsion [C]-CA--CB-[CG] |==|  0.21640
USER: genes 22 Torsion [CA]-CB--CG-[CD1] |==|  0.37185
USER: genes 23 Torsion [CE1]-CZ--OH-[HH] |==|  0.77969
ROOT
ATOM      1  CA  LYS B   5      -7.316   2.760  -0.518  1.00 42.36 LIG 0.18  C 
ENDROOT
BRANCH 1 2
ATOM      2  CB  LYS B   5      -7.403   3.621   0.751  1.00 43.80 LIG 0.04  C 
BRANCH 2 3
ATOM      3  CG  LYS B   5      -6.621   4.956   0.693  1.00 49.23 LIG 0.00  C 
BRANCH 3 4
ATOM      4  CD  LYS B   5      -5.144   4.806   1.073  1.00 48.54 LIG 0.03  C 
BRANCH 4 5
ATOM      5  CE  LYS B   5      -4.895   5.244   2.506  1.00 43.92 LIG 0.23  C 
BRANCH 5 6
ATOM      6  NZ  LYS B   5      -4.996   4.074   3.411  1.00 45.51 LIG-0.08  N 
ATOM      7 HZ3  LYS B   5      -4.380   4.139   4.051  1.00 45.51 LIG 0.27  HD
ATOM      8 HZ1  LYS B   5      -5.805   4.053   3.780  1.00 45.51 LIG 0.27  HD
ATOM      9 HZ2  LYS B   5      -4.863   3.326   2.947  1.00 45.51 LIG 0.27  HD
ENDBRANCH 5 6
ENDBRANCH 4 5
ENDBRANCH 3 4
ENDBRANCH 2 3
ENDBRANCH 1 2
BRANCH 1 10
ATOM     10  C   LYS B   5      -8.696   2.197  -0.861  1.00 41.24 LIG 0.24  C 
ATOM     11  N   TRP B   6      -9.493   1.911   0.169  1.00 42.23 LIG-0.35  N 
ATOM     12 H    TRP B   6      -9.265   1.983   0.995  1.00 42.23 LIG 0.16  HD
ATOM     13 O    LYS B   5      -9.039   2.015  -2.032  1.00 40.50 LIG-0.27  OA
BRANCH 11 14
ATOM     14  CA  TRP B   6     -10.858   1.440  -0.050  1.00 42.54 LIG 0.18  C 
BRANCH 14 15
ATOM     15  C   TRP B   6     -11.794   2.116   0.950  1.00 45.00 LIG 0.24  C 
ATOM     16 O    TRP B   6     -11.386   2.425   2.078  1.00 46.85 LIG-0.27  OA
ATOM     17  N   ASN B   7     -13.045   2.344   0.532  1.00 47.11 LIG-0.35  N 
ATOM     18 H    ASN B   7     -13.290   2.256  -0.288  1.00 47.11 LIG 0.16  HD
BRANCH 17 19
ATOM     19  CA  ASN B   7     -14.131   2.771   1.431  1.00 45.24 LIG 0.17  C 
BRANCH 19 20
ATOM     20  C   ASN B   7     -13.738   4.066   2.138  1.00 46.26 LIG 0.22  C 
ATOM     21 O    ASN B   7     -14.056   4.256   3.316  1.00 44.70 LIG-0.29  OA
ENDBRANCH 19 20
BRANCH 19 22
ATOM     22  CB  ASN B   7     -14.466   1.706   2.490  1.00 46.57 LIG 0.14  C 
BRANCH 22 23
ATOM     23  CG  ASN B   7     -15.828   1.917   3.142  1.00 48.94 LIG 0.22  C 
ATOM     24  ND2 ASN B   7     -16.841   2.209   2.327  1.00 48.79 LIG-0.37  N 
ATOM     25 21HD ASN B   7     -17.628   2.341   2.648  1.00 48.79 LIG 0.16  HD
ATOM     26 22HD ASN B   7     -16.708   2.266   1.479  1.00 48.79 LIG 0.16  HD
ATOM     27 OD1  ASN B   7     -15.968   1.824   4.359  1.00 52.21 LIG-0.27  OA
ENDBRANCH 22 23
ENDBRANCH 19 22
ENDBRANCH 17 19
ENDBRANCH 14 15
BRANCH 14 28
ATOM     28  CB  TRP B   6     -10.969  -0.083   0.068  1.00 42.47 LIG 0.07  C 
BRANCH 28 29
ATOM     29  CG  TRP B   6      -9.706  -0.685   0.668  1.00 46.30 LIG-0.03  A 
ATOM     30  CD1 TRP B   6      -9.528  -1.101   1.966  1.00 49.14 LIG 0.10  A 
ATOM     31  NE1 TRP B   6      -8.262  -1.619   2.132  1.00 51.13 LIG-0.36  N 
ATOM     32 HE1  TRP B   6      -7.944  -1.936   2.865  1.00 51.13 LIG 0.17  HD
ATOM     33  CE2 TRP B   6      -7.592  -1.547   0.938  1.00 47.23 LIG 0.04  A 
ATOM     34  CZ2 TRP B   6      -6.289  -1.942   0.611  1.00 46.28 LIG 0.03  A 
ATOM     35  CD2 TRP B   6      -8.469  -0.969  -0.010  1.00 41.81 LIG-0.00  A 
ATOM     36  CH2 TRP B   6      -5.872  -1.749  -0.685  1.00 44.17 LIG 0.00  A 
ATOM     37  CZ3 TRP B   6      -6.711  -1.173  -1.643  1.00 33.54 LIG 0.00  A 
ATOM     38  CE3 TRP B   6      -8.014  -0.779  -1.318  1.00 38.27 LIG 0.01  A 
ENDBRANCH 28 29
ENDBRANCH 14 28
ENDBRANCH 11 14
ENDBRANCH 1 10
BRANCH 1 39
ATOM     39  N   LYS B   5      -6.792   3.541  -1.636  1.00 39.73 LIG-0.35  N 
ATOM     40  C   PRO B   4      -5.502   3.569  -1.965  1.00 35.29 LIG 0.24  C 
ATOM     41 O    PRO B   4      -4.636   2.952  -1.345  1.00 36.70 LIG-0.27  OA
ATOM     42 H    LYS B   5      -7.395   3.981  -2.062  1.00 39.73 LIG 0.16  HD
BRANCH 40 43
ATOM     43  CA  PRO B   4      -5.151   4.412  -3.177  1.00 31.05 LIG 0.18  C 
ATOM     44  N   PRO B   4      -5.868   5.686  -3.165  1.00 34.55 LIG-0.34  N 
ATOM     45  C   GLY B   3      -7.137   5.747  -3.568  1.00 37.27 LIG 0.24  C 
ATOM     46  CD  PRO B   4      -4.980   6.806  -2.803  1.00 31.08 LIG 0.13  C 
ATOM     47 O    GLY B   3      -7.759   4.737  -3.911  1.00 44.84 LIG-0.27  OA
ATOM     48  CG  PRO B   4      -3.717   6.115  -2.353  1.00 26.25 LIG 0.02  C 
ATOM     49  CB  PRO B   4      -3.682   4.847  -3.140  1.00 27.99 LIG 0.04  C 
BRANCH 45 50
ATOM     50  CA  GLY B   3      -7.796   7.108  -3.569  1.00 35.98 LIG 0.23  C 
BRANCH 50 51
ATOM     51  N   GLY B   3      -7.279   7.938  -4.632  1.00 37.88 LIG-0.35  N 
ATOM     52  C   TYR B   2      -7.577   7.724  -5.911  1.00 38.85 LIG 0.26  C 
ATOM     53 O    TYR B   2      -8.382   6.870  -6.288  1.00 37.42 LIG-0.27  OA
ATOM     54 H    GLY B   3      -6.768   8.575  -4.362  1.00 37.88 LIG 0.16  HD
BRANCH 52 55
ATOM     55  CA  TYR B   2      -6.870   8.625  -6.919  1.00 47.59 LIG 0.40  C 
ATOM     56  N   TYR B   2      -6.078   7.823  -7.851  1.00 42.90 LIG 0.61  N 
BRANCH 55 57
ATOM     57  CB  TYR B   2      -7.899   9.477  -7.668  1.00 41.46 LIG 0.09  C 
BRANCH 57 58
ATOM     58  CG  TYR B   2      -8.428  10.676  -6.885  1.00 40.04 LIG-0.06  A 
ATOM     59  CD1 TYR B   2      -8.520  11.927  -7.479  1.00 39.56 LIG 0.01  A 
ATOM     60  CE1 TYR B   2      -9.004  13.026  -6.782  1.00 39.46 LIG 0.04  A 
ATOM     61  CZ  TYR B   2      -9.407  12.883  -5.472  1.00 36.77 LIG 0.07  A 
ATOM     62  CE2 TYR B   2      -9.328  11.648  -4.855  1.00 30.56 LIG 0.04  A 
ATOM     63  CD2 TYR B   2      -8.840  10.552  -5.560  1.00 33.12 LIG 0.01  A 
BRANCH 61 64
ATOM     64 OH   TYR B   2      -9.891  13.993  -4.798  1.00 37.21 LIG-0.36  OA
ATOM     65 HH   TYR B   2      -9.248  14.468  -4.541  1.00 37.21 LIG 0.22  HD
ENDBRANCH 61 64
ENDBRANCH 57 58
ENDBRANCH 55 57
ENDBRANCH 52 55
ENDBRANCH 50 51
ENDBRANCH 45 50
ENDBRANCH 40 43
ENDBRANCH 1 39
TORSDOF 22
ENDMDL
MODEL 37
USER: ADFR SOLUTION from run 161
USER: SCORE 17.396891 LL:  -3.769 LR: -15.124 RR:   0.000 FEB:  -8.561
USER: RMSD 11.848024
USER: SEED 160
USER: STATUS no improvement in best in 11 clusters for 5 generations
USER: GENES 24
USER: genes 0 Translation |==|  0.54459 0.52728 0.54565
USER: genes 1 Rotation |==|  0.46225 0.78257 0.08923 0.50082
USER: genes 2 Torsion [C]-CA--CB-[CG] |==|  0.81406
USER: genes 3 Torsion [CA]-CB--CG-[CD] |==|  0.50825
USER: genes 4 Torsion [CB]-CG--CD-[CE] |==|  0.87773
USER: genes 5 Torsion [CG]-CD--CE-[NZ] |==|  0.44162
USER: genes 6 Torsion [CD]-CE--NZ-[HZ3] |==|  0.91140
USER: genes 7 Torsion [N]-CA--C-[N] |==|  0.61540
USER: genes 8 Torsion [C]-N--CA-[C] |==|  0.64181
USER: genes 9 Torsion [N]-CA--C-[N] |==|  0.59149
USER: genes 10 Torsion [C]-N--CA-[C] |==|  0.21198
USER: genes 11 Torsion [N]-CA--C-[O] |==|  0.09813
USER: genes 12 Torsion [N]-CA--CB-[CG] |==|  0.84566
USER: genes 13 Torsion [CA]-CB--CG-[ND2] |==|  0.86254
USER: genes 14 Torsion [N]-CA--CB-[CG] |==|  0.82379
USER: genes 15 Torsion [CA]-CB--CG-[CD2] |==|  0.19741
USER: genes 16 Torsion [CB]-CA--N-[C] |==|  0.16630
USER: genes 17 Torsion [N]-C--CA-[CB] |==|  0.98208
USER: genes 18 Torsion [N]-C--CA-[N] |==|  0.46324
USER: genes 19 Torsion [C]-CA--N-[C] |==|  0.26101
USER: genes 20 Torsion [N]-C--CA-[N] |==|  0.54513
USER: genes 21 Torsion [C]-CA--CB-[CG] |==|  0.90524
USER: genes 22 Torsion [CA]-CB--CG-[CD1] |==|  0.83998
USER: genes 23 Torsion [CE1]-CZ--OH-[HH] |==|  0.09075
ROOT
ATOM      1  CA  LYS B   5      -2.212   5.356  -1.222  1.00 42.36 LIG 0.18  C 
ENDROOT
BRANCH 1 2
ATOM      2  CB  LYS B   5      -2.187   6.711  -1.946  1.00 43.80 LIG 0.04  C 
BRANCH 2 3
ATOM      3  CG  LYS B   5      -2.171   6.630  -3.492  1.00 49.23 LIG 0.00  C 
BRANCH 3 4
ATOM      4  CD  LYS B   5      -2.072   8.002  -4.166  1.00 48.54 LIG 0.03  C 
BRANCH 4 5
ATOM      5  CE  LYS B   5      -3.002   9.008  -3.509  1.00 43.92 LIG 0.23  C 
BRANCH 5 6
ATOM      6  NZ  LYS B   5      -2.542  10.385  -3.811  1.00 45.51 LIG-0.08  N 
ATOM      7 HZ3  LYS B   5      -1.655  10.393  -3.886  1.00 45.51 LIG 0.27  HD
ATOM      8 HZ1  LYS B   5      -2.907  10.660  -4.574  1.00 45.51 LIG 0.27  HD
ATOM      9 HZ2  LYS B   5      -2.788  10.932  -3.152  1.00 45.51 LIG 0.27  HD
ENDBRANCH 5 6
ENDBRANCH 4 5
ENDBRANCH 3 4
ENDBRANCH 2 3
ENDBRANCH 1 2
BRANCH 1 10
ATOM     10  C   LYS B   5      -3.542   4.650  -1.489  1.00 41.24 LIG 0.24  C 
ATOM     11  N   TRP B   6      -4.530   5.405  -1.972  1.00 42.23 LIG-0.35  N 
ATOM     12 H    TRP B   6      -4.476   6.254  -2.097  1.00 42.23 LIG 0.16  HD
ATOM     13 O    LYS B   5      -3.683   3.445  -1.260  1.00 40.50 LIG-0.27  OA
BRANCH 11 14
ATOM     14  CA  TRP B   6      -5.816   4.813  -2.331  1.00 42.54 LIG 0.18  C 
BRANCH 14 15
ATOM     15  C   TRP B   6      -6.194   5.247  -3.746  1.00 45.00 LIG 0.24  C 
ATOM     16 O    TRP B   6      -5.315   5.431  -4.600  1.00 46.85 LIG-0.27  OA
ATOM     17  N   ASN B   7      -7.501   5.404  -3.990  1.00 47.11 LIG-0.35  N 
ATOM     18 H    ASN B   7      -8.115   5.148  -3.445  1.00 47.11 LIG 0.16  HD
BRANCH 17 19
ATOM     19  CA  ASN B   7      -8.024   6.033  -5.215  1.00 45.24 LIG 0.17  C 
BRANCH 19 20
ATOM     20  C   ASN B   7      -7.923   5.053  -6.382  1.00 46.26 LIG 0.22  C 
ATOM     21 O    ASN B   7      -8.097   3.844  -6.201  1.00 44.70 LIG-0.29  OA
ENDBRANCH 19 20
BRANCH 19 22
ATOM     22  CB  ASN B   7      -7.266   7.321  -5.580  1.00 46.57 LIG 0.14  C 
BRANCH 22 23
ATOM     23  CG  ASN B   7      -7.252   8.348  -4.451  1.00 48.94 LIG 0.22  C 
ATOM     24  ND2 ASN B   7      -8.425   8.628  -3.884  1.00 48.79 LIG-0.37  N 
ATOM     25 21HD ASN B   7      -8.468   9.203  -3.247  1.00 48.79 LIG 0.16  HD
ATOM     26 22HD ASN B   7      -9.139   8.233  -4.156  1.00 48.79 LIG 0.16  HD
ATOM     27 OD1  ASN B   7      -6.205   8.884  -4.099  1.00 52.21 LIG-0.27  OA
ENDBRANCH 22 23
ENDBRANCH 19 22
ENDBRANCH 17 19
ENDBRANCH 14 15
BRANCH 14 28
ATOM     28  CB  TRP B   6      -6.924   5.198  -1.347  1.00 42.47 LIG 0.07  C 
BRANCH 28 29
ATOM     29  CG  TRP B   6      -6.636   4.661   0.048  1.00 46.30 LIG-0.03  A 
ATOM     30  CD1 TRP B   6      -7.273   3.616   0.676  1.00 49.14 LIG 0.10  A 
ATOM     31  NE1 TRP B   6      -6.721   3.399   1.919  1.00 51.13 LIG-0.36  N 
ATOM     32 HE1  TRP B   6      -6.969   2.794   2.477  1.00 51.13 LIG 0.17  HD
ATOM     33  CE2 TRP B   6      -5.711   4.304   2.122  1.00 47.23 LIG 0.04  A 
ATOM     34  CZ2 TRP B   6      -4.867   4.479   3.225  1.00 46.28 LIG 0.03  A 
ATOM     35  CD2 TRP B   6      -5.624   5.114   0.965  1.00 41.81 LIG-0.00  A 
ATOM     36  CH2 TRP B   6      -3.929   5.482   3.155  1.00 44.17 LIG 0.00  A 
ATOM     37  CZ3 TRP B   6      -3.822   6.303   2.031  1.00 33.54 LIG 0.00  A 
ATOM     38  CE3 TRP B   6      -4.664   6.128   0.927  1.00 38.27 LIG 0.01  A 
ENDBRANCH 28 29
ENDBRANCH 14 28
ENDBRANCH 11 14
ENDBRANCH 1 10
BRANCH 1 39
ATOM     39  N   LYS B   5      -1.095   4.521  -1.655  1.00 39.73 LIG-0.35  N 
ATOM     40  C   PRO B   4       0.180   4.876  -1.510  1.00 35.29 LIG 0.24  C 
ATOM     41 O    PRO B   4       0.528   5.948  -1.014  1.00 36.70 LIG-0.27  OA
ATOM     42 H    LYS B   5      -1.338   3.777  -2.012  1.00 39.73 LIG 0.16  HD
BRANCH 40 43
ATOM     43  CA  PRO B   4       1.204   3.863  -1.989  1.00 31.05 LIG 0.18  C 
ATOM     44  N   PRO B   4       2.087   3.444  -0.902  1.00 34.55 LIG-0.34  N 
ATOM     45  C   GLY B   3       3.113   4.213  -0.535  1.00 37.27 LIG 0.24  C 
ATOM     46  CD  PRO B   4       1.761   2.086  -0.429  1.00 31.08 LIG 0.13  C 
ATOM     47 O    GLY B   3       3.319   5.313  -1.057  1.00 44.84 LIG-0.27  OA
ATOM     48  CG  PRO B   4       0.461   1.778  -1.129  1.00 26.25 LIG 0.02  C 
ATOM     49  CB  PRO B   4       0.529   2.552  -2.404  1.00 27.99 LIG 0.04  C 
BRANCH 45 50
ATOM     50  CA  GLY B   3       4.007   3.690   0.567  1.00 35.98 LIG 0.23  C 
BRANCH 50 51
ATOM     51  N   GLY B   3       5.231   4.453   0.653  1.00 37.88 LIG-0.35  N 
ATOM     52  C   TYR B   2       5.369   5.484   1.482  1.00 38.85 LIG 0.26  C 
ATOM     53 O    TYR B   2       4.512   5.814   2.305  1.00 37.42 LIG-0.27  OA
ATOM     54 H    GLY B   3       5.851   4.181   0.124  1.00 37.88 LIG 0.16  HD
BRANCH 52 55
ATOM     55  CA  TYR B   2       6.685   6.249   1.381  1.00 47.59 LIG 0.40  C 
ATOM     56  N   TYR B   2       6.881   7.085   2.565  1.00 42.90 LIG 0.61  N 
BRANCH 55 57
ATOM     57  CB  TYR B   2       7.847   5.267   1.205  1.00 41.46 LIG 0.09  C 
BRANCH 57 58
ATOM     58  CG  TYR B   2       7.679   3.938   1.937  1.00 40.04 LIG-0.06  A 
ATOM     59  CD1 TYR B   2       7.485   3.904   3.311  1.00 39.56 LIG 0.01  A 
ATOM     60  CE1 TYR B   2       7.325   2.703   3.990  1.00 39.46 LIG 0.04  A 
ATOM     61  CZ  TYR B   2       7.356   1.514   3.294  1.00 36.77 LIG 0.07  A 
ATOM     62  CE2 TYR B   2       7.547   1.517   1.925  1.00 30.56 LIG 0.04  A 
ATOM     63  CD2 TYR B   2       7.707   2.725   1.252  1.00 33.12 LIG 0.01  A 
BRANCH 61 64
ATOM     64 OH   TYR B   2       7.189   0.328   3.993  1.00 37.21 LIG-0.36  OA
ATOM     65 HH   TYR B   2       6.672   0.455   4.643  1.00 37.21 LIG 0.22  HD
ENDBRANCH 61 64
ENDBRANCH 57 58
ENDBRANCH 55 57
ENDBRANCH 52 55
ENDBRANCH 50 51
ENDBRANCH 45 50
ENDBRANCH 40 43
ENDBRANCH 1 39
TORSDOF 22
ENDMDL
MODEL 38
USER: ADFR SOLUTION from run 32
USER: SCORE 17.862927 LL:  -3.468 LR: -15.113 RR:   0.000 FEB:  -8.551
USER: RMSD 12.257704
USER: SEED 31
USER: STATUS no improvement in best in 18 clusters for 5 generations
USER: GENES 24
USER: genes 0 Translation |==|  0.41472 0.53673 0.46639
USER: genes 1 Rotation |==|  0.47987 0.61468 0.03028 0.62573
USER: genes 2 Torsion [C]-CA--CB-[CG] |==|  0.24712
USER: genes 3 Torsion [CA]-CB--CG-[CD] |==|  0.26329
USER: genes 4 Torsion [CB]-CG--CD-[CE] |==|  0.47025
USER: genes 5 Torsion [CG]-CD--CE-[NZ] |==|  0.23881
USER: genes 6 Torsion [CD]-CE--NZ-[HZ3] |==|  0.68648
USER: genes 7 Torsion [N]-CA--C-[N] |==|  0.12907
USER: genes 8 Torsion [C]-N--CA-[C] |==|  0.67231
USER: genes 9 Torsion [N]-CA--C-[N] |==|  0.30851
USER: genes 10 Torsion [C]-N--CA-[C] |==|  0.81921
USER: genes 11 Torsion [N]-CA--C-[O] |==|  0.08541
USER: genes 12 Torsion [N]-CA--CB-[CG] |==|  0.61064
USER: genes 13 Torsion [CA]-CB--CG-[ND2] |==|  0.41228
USER: genes 14 Torsion [N]-CA--CB-[CG] |==|  0.49462
USER: genes 15 Torsion [CA]-CB--CG-[CD2] |==|  0.65942
USER: genes 16 Torsion [CB]-CA--N-[C] |==|  0.15099
USER: genes 17 Torsion [N]-C--CA-[CB] |==|  0.45231
USER: genes 18 Torsion [N]-C--CA-[N] |==|  0.15627
USER: genes 19 Torsion [C]-CA--N-[C] |==|  0.15000
USER: genes 20 Torsion [N]-C--CA-[N] |==|  0.92527
USER: genes 21 Torsion [C]-CA--CB-[CG] |==|  0.34474
USER: genes 22 Torsion [CA]-CB--CG-[CD1] |==|  0.51887
USER: genes 23 Torsion [CE1]-CZ--OH-[HH] |==|  0.21654
ROOT
ATOM      1  CA  LYS B   5      -6.108   5.540  -2.590  1.00 42.36 LIG 0.18  C 
ENDROOT
BRANCH 1 2
ATOM      2  CB  LYS B   5      -6.112   6.136  -4.006  1.00 43.80 LIG 0.04  C 
BRANCH 2 3
ATOM      3  CG  LYS B   5      -7.282   7.104  -4.308  1.00 49.23 LIG 0.00  C 
BRANCH 3 4
ATOM      4  CD  LYS B   5      -6.919   8.576  -4.083  1.00 48.54 LIG 0.03  C 
BRANCH 4 5
ATOM      5  CE  LYS B   5      -7.992   9.500  -4.634  1.00 43.92 LIG 0.23  C 
BRANCH 5 6
ATOM      6  NZ  LYS B   5      -9.051   9.699  -3.616  1.00 45.51 LIG-0.08  N 
ATOM      7 HZ3  LYS B   5      -9.808   9.323  -3.896  1.00 45.51 LIG 0.27  HD
ATOM      8 HZ1  LYS B   5      -8.801   9.324  -2.849  1.00 45.51 LIG 0.27  HD
ATOM      9 HZ2  LYS B   5      -9.183  10.571  -3.490  1.00 45.51 LIG 0.27  HD
ENDBRANCH 5 6
ENDBRANCH 4 5
ENDBRANCH 3 4
ENDBRANCH 2 3
ENDBRANCH 1 2
BRANCH 1 10
ATOM     10  C   LYS B   5      -6.924   4.247  -2.568  1.00 41.24 LIG 0.24  C 
ATOM     11  N   TRP B   6      -6.822   3.499  -1.468  1.00 42.23 LIG-0.35  N 
ATOM     12 H    TRP B   6      -6.302   3.676  -0.806  1.00 42.23 LIG 0.16  HD
ATOM     13 O    LYS B   5      -7.631   3.921  -3.525  1.00 40.50 LIG-0.27  OA
BRANCH 11 14
ATOM     14  CA  TRP B   6      -7.617   2.283  -1.315  1.00 42.54 LIG 0.18  C 
BRANCH 14 15
ATOM     15  C   TRP B   6      -8.541   2.432  -0.108  1.00 45.00 LIG 0.24  C 
ATOM     16 O    TRP B   6      -8.073   2.460   1.038  1.00 46.85 LIG-0.27  OA
ATOM     17  N   ASN B   7      -9.850   2.530  -0.371  1.00 47.11 LIG-0.35  N 
ATOM     18 H    ASN B   7     -10.163   2.647  -1.164  1.00 47.11 LIG 0.16  HD
BRANCH 17 19
ATOM     19  CA  ASN B   7     -10.891   2.448   0.668  1.00 45.24 LIG 0.17  C 
BRANCH 19 20
ATOM     20  C   ASN B   7     -10.891   1.053   1.290  1.00 46.26 LIG 0.22  C 
ATOM     21 O    ASN B   7      -9.846   0.401   1.365  1.00 44.70 LIG-0.29  OA
ENDBRANCH 19 20
BRANCH 19 22
ATOM     22  CB  ASN B   7     -12.295   2.748   0.116  1.00 46.57 LIG 0.14  C 
BRANCH 22 23
ATOM     23  CG  ASN B   7     -13.146   3.585   1.065  1.00 48.94 LIG 0.22  C 
ATOM     24  ND2 ASN B   7     -14.028   4.412   0.503  1.00 48.79 LIG-0.37  N 
ATOM     25 21HD ASN B   7     -14.528   4.907   0.997  1.00 48.79 LIG 0.16  HD
ATOM     26 22HD ASN B   7     -14.098   4.449  -0.353  1.00 48.79 LIG 0.16  HD
ATOM     27 OD1  ASN B   7     -13.010   3.496   2.282  1.00 52.21 LIG-0.27  OA
ENDBRANCH 22 23
ENDBRANCH 19 22
ENDBRANCH 17 19
ENDBRANCH 14 15
BRANCH 14 28
ATOM     28  CB  TRP B   6      -6.741   1.036  -1.159  1.00 42.47 LIG 0.07  C 
BRANCH 28 29
ATOM     29  CG  TRP B   6      -7.588  -0.212  -0.953  1.00 46.30 LIG-0.03  A 
ATOM     30  CD1 TRP B   6      -8.541  -0.711  -1.809  1.00 49.14 LIG 0.10  A 
ATOM     31  NE1 TRP B   6      -9.077  -1.874  -1.301  1.00 51.13 LIG-0.36  N 
ATOM     32 HE1  TRP B   6      -9.688  -2.348  -1.676  1.00 51.13 LIG 0.17  HD
ATOM     33  CE2 TRP B   6      -8.479  -2.150  -0.098  1.00 47.23 LIG 0.04  A 
ATOM     34  CZ2 TRP B   6      -8.690  -3.213   0.790  1.00 46.28 LIG 0.03  A 
ATOM     35  CD2 TRP B   6      -7.532  -1.130   0.154  1.00 41.81 LIG-0.00  A 
ATOM     36  CH2 TRP B   6      -7.937  -3.240   1.939  1.00 44.17 LIG 0.00  A 
ATOM     37  CZ3 TRP B   6      -6.999  -2.244   2.221  1.00 33.54 LIG 0.00  A 
ATOM     38  CE3 TRP B   6      -6.786  -1.182   1.334  1.00 38.27 LIG 0.01  A 
ENDBRANCH 28 29
ENDBRANCH 14 28
ENDBRANCH 11 14
ENDBRANCH 1 10
BRANCH 1 39
ATOM     39  N   LYS B   5      -4.741   5.289  -2.140  1.00 39.73 LIG-0.35  N 
ATOM     40  C   PRO B   4      -3.793   6.224  -2.130  1.00 35.29 LIG 0.24  C 
ATOM     41 O    PRO B   4      -3.982   7.378  -2.515  1.00 36.70 LIG-0.27  OA
ATOM     42 H    LYS B   5      -4.606   4.480  -1.883  1.00 39.73 LIG 0.16  HD
BRANCH 40 43
ATOM     43  CA  PRO B   4      -2.442   5.784  -1.597  1.00 31.05 LIG 0.18  C 
ATOM     44  N   PRO B   4      -2.010   4.530  -2.212  1.00 34.55 LIG-0.34  N 
ATOM     45  C   GLY B   3      -2.491   3.366  -1.776  1.00 37.27 LIG 0.24  C 
ATOM     46  CD  PRO B   4      -0.942   4.752  -3.205  1.00 31.08 LIG 0.13  C 
ATOM     47 O    GLY B   3      -3.345   3.309  -0.885  1.00 44.84 LIG-0.27  OA
ATOM     48  CG  PRO B   4      -0.905   6.253  -3.344  1.00 26.25 LIG 0.02  C 
ATOM     49  CB  PRO B   4      -1.340   6.765  -2.011  1.00 27.99 LIG 0.04  C 
BRANCH 45 50
ATOM     50  CA  GLY B   3      -1.962   2.111  -2.433  1.00 35.98 LIG 0.23  C 
BRANCH 50 51
ATOM     51  N   GLY B   3      -0.522   2.040  -2.340  1.00 37.88 LIG-0.35  N 
ATOM     52  C   TYR B   2       0.122   2.136  -1.181  1.00 38.85 LIG 0.26  C 
ATOM     53 O    TYR B   2      -0.448   2.199  -0.089  1.00 37.42 LIG-0.27  OA
ATOM     54 H    GLY B   3      -0.128   1.931  -3.096  1.00 37.88 LIG 0.16  HD
BRANCH 52 55
ATOM     55  CA  TYR B   2       1.646   2.145  -1.263  1.00 47.59 LIG 0.40  C 
ATOM     56  N   TYR B   2       2.095   1.434  -2.460  1.00 42.90 LIG 0.61  N 
BRANCH 55 57
ATOM     57  CB  TYR B   2       2.161   3.587  -1.256  1.00 41.46 LIG 0.09  C 
BRANCH 57 58
ATOM     58  CG  TYR B   2       3.169   3.902  -0.154  1.00 40.04 LIG-0.06  A 
ATOM     59  CD1 TYR B   2       3.609   5.201   0.055  1.00 39.56 LIG 0.01  A 
ATOM     60  CE1 TYR B   2       4.521   5.504   1.057  1.00 39.46 LIG 0.04  A 
ATOM     61  CZ  TYR B   2       5.005   4.501   1.869  1.00 36.77 LIG 0.07  A 
ATOM     62  CE2 TYR B   2       4.584   3.197   1.684  1.00 30.56 LIG 0.04  A 
ATOM     63  CD2 TYR B   2       3.670   2.902   0.677  1.00 33.12 LIG 0.01  A 
BRANCH 61 64
ATOM     64 OH   TYR B   2       5.912   4.828   2.865  1.00 37.21 LIG-0.36  OA
ATOM     65 HH   TYR B   2       5.504   5.171   3.515  1.00 37.21 LIG 0.22  HD
ENDBRANCH 61 64
ENDBRANCH 57 58
ENDBRANCH 55 57
ENDBRANCH 52 55
ENDBRANCH 50 51
ENDBRANCH 45 50
ENDBRANCH 40 43
ENDBRANCH 1 39
TORSDOF 22
ENDMDL
MODEL 39
USER: ADFR SOLUTION from run 109
USER: SCORE 18.131966 LL:  -4.552 LR: -15.095 RR:   0.000 FEB:  -8.532
USER: RMSD 10.763664
USER: SEED 108
USER: STATUS no improvement in best in 8 clusters for 5 generations
USER: GENES 24
USER: genes 0 Translation |==|  0.54531 0.51721 0.54785
USER: genes 1 Rotation |==|  0.55421 0.15549 0.85829 0.50249
USER: genes 2 Torsion [C]-CA--CB-[CG] |==|  0.74940
USER: genes 3 Torsion [CA]-CB--CG-[CD] |==|  0.36527
USER: genes 4 Torsion [CB]-CG--CD-[CE] |==|  0.33755
USER: genes 5 Torsion [CG]-CD--CE-[NZ] |==|  0.63997
USER: genes 6 Torsion [CD]-CE--NZ-[HZ3] |==|  0.59478
USER: genes 7 Torsion [N]-CA--C-[N] |==|  0.65909
USER: genes 8 Torsion [C]-N--CA-[C] |==|  0.63432
USER: genes 9 Torsion [N]-CA--C-[N] |==|  0.80556
USER: genes 10 Torsion [C]-N--CA-[C] |==|  0.63902
USER: genes 11 Torsion [N]-CA--C-[O] |==|  0.94194
USER: genes 12 Torsion [N]-CA--CB-[CG] |==|  0.28238
USER: genes 13 Torsion [CA]-CB--CG-[ND2] |==|  0.75119
USER: genes 14 Torsion [N]-CA--CB-[CG] |==|  0.84555
USER: genes 15 Torsion [CA]-CB--CG-[CD2] |==|  0.20156
USER: genes 16 Torsion [CB]-CA--N-[C] |==|  0.14628
USER: genes 17 Torsion [N]-C--CA-[CB] |==|  0.16151
USER: genes 18 Torsion [N]-C--CA-[N] |==|  0.34798
USER: genes 19 Torsion [C]-CA--N-[C] |==|  0.27784
USER: genes 20 Torsion [N]-C--CA-[N] |==|  0.87058
USER: genes 21 Torsion [C]-CA--CB-[CG] |==|  0.11800
USER: genes 22 Torsion [CA]-CB--CG-[CD1] |==|  0.17777
USER: genes 23 Torsion [CE1]-CZ--OH-[HH] |==|  0.03889
ROOT
ATOM      1  CA  LYS B   5      -2.191   5.160  -1.185  1.00 42.36 LIG 0.18  C 
ENDROOT
BRANCH 1 2
ATOM      2  CB  LYS B   5      -2.215   6.674  -1.441  1.00 43.80 LIG 0.04  C 
BRANCH 2 3
ATOM      3  CG  LYS B   5      -1.760   7.108  -2.856  1.00 49.23 LIG 0.00  C 
BRANCH 3 4
ATOM      4  CD  LYS B   5      -2.723   8.096  -3.522  1.00 48.54 LIG 0.03  C 
BRANCH 4 5
ATOM      5  CE  LYS B   5      -2.021   9.395  -3.879  1.00 43.92 LIG 0.23  C 
BRANCH 5 6
ATOM      6  NZ  LYS B   5      -2.804  10.545  -3.367  1.00 45.51 LIG-0.08  N 
ATOM      7 HZ3  LYS B   5      -2.728  11.231  -3.929  1.00 45.51 LIG 0.27  HD
ATOM      8 HZ1  LYS B   5      -3.660  10.314  -3.297  1.00 45.51 LIG 0.27  HD
ATOM      9 HZ2  LYS B   5      -2.495  10.782  -2.566  1.00 45.51 LIG 0.27  HD
ENDBRANCH 5 6
ENDBRANCH 4 5
ENDBRANCH 3 4
ENDBRANCH 2 3
ENDBRANCH 1 2
BRANCH 1 10
ATOM     10  C   LYS B   5      -3.540   4.547  -1.560  1.00 41.24 LIG 0.24  C 
ATOM     11  N   TRP B   6      -4.469   5.389  -2.016  1.00 42.23 LIG-0.35  N 
ATOM     12 H    TRP B   6      -4.368   6.241  -2.069  1.00 42.23 LIG 0.16  HD
ATOM     13 O    LYS B   5      -3.750   3.337  -1.438  1.00 40.50 LIG-0.27  OA
BRANCH 11 14
ATOM     14  CA  TRP B   6      -5.765   4.896  -2.473  1.00 42.54 LIG 0.18  C 
BRANCH 14 15
ATOM     15  C   TRP B   6      -6.092   5.514  -3.831  1.00 45.00 LIG 0.24  C 
ATOM     16 O    TRP B   6      -6.090   4.814  -4.853  1.00 46.85 LIG-0.27  OA
ATOM     17  N   ASN B   7      -6.374   6.823  -3.836  1.00 47.11 LIG-0.35  N 
ATOM     18 H    ASN B   7      -6.508   7.277  -3.119  1.00 47.11 LIG 0.16  HD
BRANCH 17 19
ATOM     19  CA  ASN B   7      -6.483   7.620  -5.070  1.00 45.24 LIG 0.17  C 
BRANCH 19 20
ATOM     20  C   ASN B   7      -5.634   8.883  -4.947  1.00 46.26 LIG 0.22  C 
ATOM     21 O    ASN B   7      -5.305   9.310  -3.836  1.00 44.70 LIG-0.29  OA
ENDBRANCH 19 20
BRANCH 19 22
ATOM     22  CB  ASN B   7      -7.935   8.024  -5.378  1.00 46.57 LIG 0.14  C 
BRANCH 22 23
ATOM     23  CG  ASN B   7      -8.247   9.470  -5.001  1.00 48.94 LIG 0.22  C 
ATOM     24  ND2 ASN B   7      -8.691   9.681  -3.762  1.00 48.79 LIG-0.37  N 
ATOM     25 21HD ASN B   7      -8.884  10.478  -3.505  1.00 48.79 LIG 0.16  HD
ATOM     26 22HD ASN B   7      -8.784   9.020  -3.220  1.00 48.79 LIG 0.16  HD
ATOM     27 OD1  ASN B   7      -8.098  10.380  -5.812  1.00 52.21 LIG-0.27  OA
ENDBRANCH 22 23
ENDBRANCH 19 22
ENDBRANCH 17 19
ENDBRANCH 14 15
BRANCH 14 28
ATOM     28  CB  TRP B   6      -6.884   5.199  -1.472  1.00 42.47 LIG 0.07  C 
BRANCH 28 29
ATOM     29  CG  TRP B   6      -6.558   4.644  -0.093  1.00 46.30 LIG-0.03  A 
ATOM     30  CD1 TRP B   6      -7.115   3.536   0.502  1.00 49.14 LIG 0.10  A 
ATOM     31  NE1 TRP B   6      -6.549   3.324   1.740  1.00 51.13 LIG-0.36  N 
ATOM     32 HE1  TRP B   6      -6.751   2.686   2.279  1.00 51.13 LIG 0.17  HD
ATOM     33  CE2 TRP B   6      -5.610   4.297   1.973  1.00 47.23 LIG 0.04  A 
ATOM     34  CZ2 TRP B   6      -4.783   4.502   3.083  1.00 46.28 LIG 0.03  A 
ATOM     35  CD2 TRP B   6      -5.583   5.144   0.840  1.00 41.81 LIG-0.00  A 
ATOM     36  CH2 TRP B   6      -3.923   5.574   3.046  1.00 44.17 LIG 0.00  A 
ATOM     37  CZ3 TRP B   6      -3.877   6.434   1.946  1.00 33.54 LIG 0.00  A 
ATOM     38  CE3 TRP B   6      -4.702   6.229   0.835  1.00 38.27 LIG 0.01  A 
ENDBRANCH 28 29
ENDBRANCH 14 28
ENDBRANCH 11 14
ENDBRANCH 1 10
BRANCH 1 39
ATOM     39  N   LYS B   5      -1.114   4.527  -1.942  1.00 39.73 LIG-0.35  N 
ATOM     40  C   PRO B   4       0.152   4.936  -1.892  1.00 35.29 LIG 0.24  C 
ATOM     41 O    PRO B   4       0.522   5.896  -1.216  1.00 36.70 LIG-0.27  OA
ATOM     42 H    LYS B   5      -1.375   3.864  -2.424  1.00 39.73 LIG 0.16  HD
BRANCH 40 43
ATOM     43  CA  PRO B   4       1.136   4.134  -2.723  1.00 31.05 LIG 0.18  C 
ATOM     44  N   PRO B   4       1.099   2.716  -2.369  1.00 34.55 LIG-0.34  N 
ATOM     45  C   GLY B   3       1.747   2.275  -1.291  1.00 37.27 LIG 0.24  C 
ATOM     46  CD  PRO B   4       0.408   1.917  -3.398  1.00 31.08 LIG 0.13  C 
ATOM     47 O    GLY B   3       2.348   3.045  -0.534  1.00 44.84 LIG-0.27  OA
ATOM     48  CG  PRO B   4      -0.196   2.963  -4.301  1.00 26.25 LIG 0.02  C 
ATOM     49  CB  PRO B   4       0.733   4.127  -4.201  1.00 27.99 LIG 0.04  C 
BRANCH 45 50
ATOM     50  CA  GLY B   3       1.698   0.788  -1.016  1.00 35.98 LIG 0.23  C 
BRANCH 50 51
ATOM     51  N   GLY B   3       3.027   0.237  -0.890  1.00 37.88 LIG-0.35  N 
ATOM     52  C   TYR B   2       3.585  -0.011   0.292  1.00 38.85 LIG 0.26  C 
ATOM     53 O    TYR B   2       2.992   0.118   1.365  1.00 37.42 LIG-0.27  OA
ATOM     54 H    GLY B   3       3.417   0.086  -1.641  1.00 37.88 LIG 0.16  HD
BRANCH 52 55
ATOM     55  CA  TYR B   2       5.031  -0.497   0.258  1.00 47.59 LIG 0.40  C 
ATOM     56  N   TYR B   2       5.190  -1.553  -0.742  1.00 42.90 LIG 0.61  N 
BRANCH 55 57
ATOM     57  CB  TYR B   2       5.970   0.678  -0.032  1.00 41.46 LIG 0.09  C 
BRANCH 57 58
ATOM     58  CG  TYR B   2       5.636   1.964   0.720  1.00 40.04 LIG-0.06  A 
ATOM     59  CD1 TYR B   2       5.709   2.016   2.105  1.00 39.56 LIG 0.01  A 
ATOM     60  CE1 TYR B   2       5.414   3.180   2.803  1.00 39.46 LIG 0.04  A 
ATOM     61  CZ  TYR B   2       5.042   4.314   2.115  1.00 36.77 LIG 0.07  A 
ATOM     62  CE2 TYR B   2       4.960   4.292   0.735  1.00 30.56 LIG 0.04  A 
ATOM     63  CD2 TYR B   2       5.257   3.122   0.043  1.00 33.12 LIG 0.01  A 
BRANCH 61 64
ATOM     64 OH   TYR B   2       4.756   5.466   2.832  1.00 37.21 LIG-0.36  OA
ATOM     65 HH   TYR B   2       5.032   5.381   3.621  1.00 37.21 LIG 0.22  HD
ENDBRANCH 61 64
ENDBRANCH 57 58
ENDBRANCH 55 57
ENDBRANCH 52 55
ENDBRANCH 50 51
ENDBRANCH 45 50
ENDBRANCH 40 43
ENDBRANCH 1 39
TORSDOF 22
ENDMDL
MODEL 40
USER: ADFR SOLUTION from run 27
USER: SCORE 18.534215 LL:  -4.129 LR: -15.073 RR:   0.000 FEB:  -8.510
USER: RMSD 10.799715
USER: SEED 26
USER: STATUS no improvement in best in 7 clusters for 5 generations
USER: GENES 24
USER: genes 0 Translation |==|  0.38478 0.66455 0.41304
USER: genes 1 Rotation |==|  0.36097 0.65457 0.10241 0.72068
USER: genes 2 Torsion [C]-CA--CB-[CG] |==|  0.34715
USER: genes 3 Torsion [CA]-CB--CG-[CD] |==|  0.38673
USER: genes 4 Torsion [CB]-CG--CD-[CE] |==|  0.55293
USER: genes 5 Torsion [CG]-CD--CE-[NZ] |==|  0.92219
USER: genes 6 Torsion [CD]-CE--NZ-[HZ3] |==|  0.22554
USER: genes 7 Torsion [N]-CA--C-[N] |==|  0.18022
USER: genes 8 Torsion [C]-N--CA-[C] |==|  0.69166
USER: genes 9 Torsion [N]-CA--C-[N] |==|  0.46551
USER: genes 10 Torsion [C]-N--CA-[C] |==|  0.61556
USER: genes 11 Torsion [N]-CA--C-[O] |==|  0.24591
USER: genes 12 Torsion [N]-CA--CB-[CG] |==|  0.30880
USER: genes 13 Torsion [CA]-CB--CG-[ND2] |==|  0.24309
USER: genes 14 Torsion [N]-CA--CB-[CG] |==|  0.11325
USER: genes 15 Torsion [CA]-CB--CG-[CD2] |==|  0.19645
USER: genes 16 Torsion [CB]-CA--N-[C] |==|  0.78051
USER: genes 17 Torsion [N]-C--CA-[CB] |==|  0.80841
USER: genes 18 Torsion [N]-C--CA-[N] |==|  0.37239
USER: genes 19 Torsion [C]-CA--N-[C] |==|  0.81857
USER: genes 20 Torsion [N]-C--CA-[N] |==|  0.38800
USER: genes 21 Torsion [C]-CA--CB-[CG] |==|  0.20357
USER: genes 22 Torsion [CA]-CB--CG-[CD1] |==|  0.26523
USER: genes 23 Torsion [CE1]-CZ--OH-[HH] |==|  0.27629
ROOT
ATOM      1  CA  LYS B   5      -7.006   8.033  -3.510  1.00 42.36 LIG 0.18  C 
ENDROOT
BRANCH 1 2
ATOM      2  CB  LYS B   5      -7.883   8.532  -4.669  1.00 43.80 LIG 0.04  C 
BRANCH 2 3
ATOM      3  CG  LYS B   5      -9.002   9.524  -4.265  1.00 49.23 LIG 0.00  C 
BRANCH 3 4
ATOM      4  CD  LYS B   5      -9.171  10.678  -5.259  1.00 48.54 LIG 0.03  C 
BRANCH 4 5
ATOM      5  CE  LYS B   5      -9.912  11.845  -4.630  1.00 43.92 LIG 0.23  C 
BRANCH 5 6
ATOM      6  NZ  LYS B   5     -10.814  11.348  -3.563  1.00 45.51 LIG-0.08  N 
ATOM      7 HZ3  LYS B   5     -10.348  11.215  -2.817  1.00 45.51 LIG 0.27  HD
ATOM      8 HZ1  LYS B   5     -11.452  11.949  -3.410  1.00 45.51 LIG 0.27  HD
ATOM      9 HZ2  LYS B   5     -11.186  10.581  -3.821  1.00 45.51 LIG 0.27  HD
ENDBRANCH 5 6
ENDBRANCH 4 5
ENDBRANCH 3 4
ENDBRANCH 2 3
ENDBRANCH 1 2
BRANCH 1 10
ATOM     10  C   LYS B   5      -7.012   6.504  -3.476  1.00 41.24 LIG 0.24  C 
ATOM     11  N   TRP B   6      -6.412   5.931  -2.431  1.00 42.23 LIG-0.35  N 
ATOM     12 H    TRP B   6      -5.996   6.361  -1.814  1.00 42.23 LIG 0.16  HD
ATOM     13 O    LYS B   5      -7.540   5.846  -4.376  1.00 40.50 LIG-0.27  OA
BRANCH 11 14
ATOM     14  CA  TRP B   6      -6.426   4.480  -2.265  1.00 42.54 LIG 0.18  C 
BRANCH 14 15
ATOM     15  C   TRP B   6      -7.300   4.117  -1.065  1.00 45.00 LIG 0.24  C 
ATOM     16 O    TRP B   6      -7.675   4.995  -0.276  1.00 46.85 LIG-0.27  OA
ATOM     17  N   ASN B   7      -7.622   2.824  -0.935  1.00 47.11 LIG-0.35  N 
ATOM     18 H    ASN B   7      -7.479   2.240  -1.550  1.00 47.11 LIG 0.16  HD
BRANCH 17 19
ATOM     19  CA  ASN B   7      -8.256   2.268   0.273  1.00 45.24 LIG 0.17  C 
BRANCH 19 20
ATOM     20  C   ASN B   7      -7.624   0.921   0.615  1.00 46.26 LIG 0.22  C 
ATOM     21 O    ASN B   7      -6.626   0.864   1.339  1.00 44.70 LIG-0.29  OA
ENDBRANCH 19 20
BRANCH 19 22
ATOM     22  CB  ASN B   7      -9.773   2.078   0.103  1.00 46.57 LIG 0.14  C 
BRANCH 22 23
ATOM     23  CG  ASN B   7     -10.192   0.612   0.057  1.00 48.94 LIG 0.22  C 
ATOM     24  ND2 ASN B   7     -10.439   0.026   1.229  1.00 48.79 LIG-0.37  N 
ATOM     25 21HD ASN B   7     -10.675  -0.801   1.255  1.00 48.79 LIG 0.16  HD
ATOM     26 22HD ASN B   7     -10.364   0.474   1.958  1.00 48.79 LIG 0.16  HD
ATOM     27 OD1  ASN B   7     -10.286   0.014  -1.011  1.00 52.21 LIG-0.27  OA
ENDBRANCH 22 23
ENDBRANCH 19 22
ENDBRANCH 17 19
ENDBRANCH 14 15
BRANCH 14 28
ATOM     28  CB  TRP B   6      -5.018   3.906  -2.086  1.00 42.47 LIG 0.07  C 
BRANCH 28 29
ATOM     29  CG  TRP B   6      -4.169   4.792  -1.185  1.00 46.30 LIG-0.03  A 
ATOM     30  CD1 TRP B   6      -3.128   5.603  -1.572  1.00 49.14 LIG 0.10  A 
ATOM     31  NE1 TRP B   6      -2.619   6.277  -0.483  1.00 51.13 LIG-0.36  N 
ATOM     32 HE1  TRP B   6      -1.966   6.835  -0.503  1.00 51.13 LIG 0.17  HD
ATOM     33  CE2 TRP B   6      -3.323   5.912   0.635  1.00 47.23 LIG 0.04  A 
ATOM     34  CZ2 TRP B   6      -3.175   6.322   1.966  1.00 46.28 LIG 0.03  A 
ATOM     35  CD2 TRP B   6      -4.311   4.982   0.235  1.00 41.81 LIG-0.00  A 
ATOM     36  CH2 TRP B   6      -4.033   5.785   2.896  1.00 44.17 LIG 0.00  A 
ATOM     37  CZ3 TRP B   6      -5.014   4.859   2.534  1.00 33.54 LIG 0.00  A 
ATOM     38  CE3 TRP B   6      -5.164   4.449   1.204  1.00 38.27 LIG 0.01  A 
ENDBRANCH 28 29
ENDBRANCH 14 28
ENDBRANCH 11 14
ENDBRANCH 1 10
BRANCH 1 39
ATOM     39  N   LYS B   5      -5.642   8.536  -3.643  1.00 39.73 LIG-0.35  N 
ATOM     40  C   PRO B   4      -4.746   8.003  -4.473  1.00 35.29 LIG 0.24  C 
ATOM     41 O    PRO B   4      -4.986   7.030  -5.187  1.00 36.70 LIG-0.27  OA
ATOM     42 H    LYS B   5      -5.470   9.208  -3.136  1.00 39.73 LIG 0.16  HD
BRANCH 40 43
ATOM     43  CA  PRO B   4      -3.389   8.682  -4.499  1.00 31.05 LIG 0.18  C 
ATOM     44  N   PRO B   4      -2.460   7.982  -5.385  1.00 34.55 LIG-0.34  N 
ATOM     45  C   GLY B   3      -1.833   6.882  -4.967  1.00 37.27 LIG 0.24  C 
ATOM     46  CD  PRO B   4      -2.251   8.718  -6.645  1.00 31.08 LIG 0.13  C 
ATOM     47 O    GLY B   3      -2.049   6.394  -3.854  1.00 44.84 LIG-0.27  OA
ATOM     48  CG  PRO B   4      -3.297   9.804  -6.589  1.00 26.25 LIG 0.02  C 
ATOM     49  CB  PRO B   4      -3.480  10.074  -5.132  1.00 27.99 LIG 0.04  C 
BRANCH 45 50
ATOM     50  CA  GLY B   3      -0.854   6.241  -5.925  1.00 35.98 LIG 0.23  C 
BRANCH 50 51
ATOM     51  N   GLY B   3       0.382   5.899  -5.259  1.00 37.88 LIG-0.35  N 
ATOM     52  C   TYR B   2       1.199   6.822  -4.758  1.00 38.85 LIG 0.26  C 
ATOM     53 O    TYR B   2       0.932   8.026  -4.735  1.00 37.42 LIG-0.27  OA
ATOM     54 H    GLY B   3       0.536   5.055  -5.219  1.00 37.88 LIG 0.16  HD
BRANCH 52 55
ATOM     55  CA  TYR B   2       2.511   6.306  -4.177  1.00 47.59 LIG 0.40  C 
ATOM     56  N   TYR B   2       3.613   7.200  -4.533  1.00 42.90 LIG 0.61  N 
BRANCH 55 57
ATOM     57  CB  TYR B   2       2.389   6.163  -2.658  1.00 41.46 LIG 0.09  C 
BRANCH 57 58
ATOM     58  CG  TYR B   2       1.537   4.986  -2.191  1.00 40.04 LIG-0.06  A 
ATOM     59  CD1 TYR B   2       2.125   3.775  -1.853  1.00 39.56 LIG 0.01  A 
ATOM     60  CE1 TYR B   2       1.365   2.696  -1.422  1.00 39.46 LIG 0.04  A 
ATOM     61  CZ  TYR B   2      -0.004   2.820  -1.322  1.00 36.77 LIG 0.07  A 
ATOM     62  CE2 TYR B   2      -0.617   4.014  -1.652  1.00 30.56 LIG 0.04  A 
ATOM     63  CD2 TYR B   2       0.152   5.090  -2.084  1.00 33.12 LIG 0.01  A 
BRANCH 61 64
ATOM     64 OH   TYR B   2      -0.742   1.730  -0.885  1.00 37.21 LIG-0.36  OA
ATOM     65 HH   TYR B   2      -0.925   1.824  -0.070  1.00 37.21 LIG 0.22  HD
ENDBRANCH 61 64
ENDBRANCH 57 58
ENDBRANCH 55 57
ENDBRANCH 52 55
ENDBRANCH 50 51
ENDBRANCH 45 50
ENDBRANCH 40 43
ENDBRANCH 1 39
TORSDOF 22
ENDMDL
MODEL 41
USER: ADFR SOLUTION from run 168
USER: SCORE 18.241406 LL:  -4.306 LR: -15.052 RR:   0.000 FEB:  -8.490
USER: RMSD 7.687469
USER: SEED 167
USER: STATUS no improvement in best in 13 clusters for 5 generations
USER: GENES 24
USER: genes 0 Translation |==|  0.36243 0.47985 0.63093
USER: genes 1 Rotation |==|  0.96608 0.59177 0.34405 0.50535
USER: genes 2 Torsion [C]-CA--CB-[CG] |==|  0.19649
USER: genes 3 Torsion [CA]-CB--CG-[CD] |==|  0.68843
USER: genes 4 Torsion [CB]-CG--CD-[CE] |==|  0.74889
USER: genes 5 Torsion [CG]-CD--CE-[NZ] |==|  0.10852
USER: genes 6 Torsion [CD]-CE--NZ-[HZ3] |==|  0.04498
USER: genes 7 Torsion [N]-CA--C-[N] |==|  0.30556
USER: genes 8 Torsion [C]-N--CA-[C] |==|  0.83841
USER: genes 9 Torsion [N]-CA--C-[N] |==|  0.35006
USER: genes 10 Torsion [C]-N--CA-[C] |==|  0.19822
USER: genes 11 Torsion [N]-CA--C-[O] |==|  0.02988
USER: genes 12 Torsion [N]-CA--CB-[CG] |==|  0.40188
USER: genes 13 Torsion [CA]-CB--CG-[ND2] |==|  0.26754
USER: genes 14 Torsion [N]-CA--CB-[CG] |==|  0.41403
USER: genes 15 Torsion [CA]-CB--CG-[CD2] |==|  0.71107
USER: genes 16 Torsion [CB]-CA--N-[C] |==|  0.87340
USER: genes 17 Torsion [N]-C--CA-[CB] |==|  0.28462
USER: genes 18 Torsion [N]-C--CA-[N] |==|  0.28599
USER: genes 19 Torsion [C]-CA--N-[C] |==|  0.28443
USER: genes 20 Torsion [N]-C--CA-[N] |==|  0.41250
USER: genes 21 Torsion [C]-CA--CB-[CG] |==|  0.17593
USER: genes 22 Torsion [CA]-CB--CG-[CD1] |==|  0.25050
USER: genes 23 Torsion [CE1]-CZ--OH-[HH] |==|  0.60117
ROOT
ATOM      1  CA  LYS B   5      -7.677   4.431   0.248  1.00 42.36 LIG 0.18  C 
ENDROOT
BRANCH 1 2
ATOM      2  CB  LYS B   5      -6.915   4.388   1.582  1.00 43.80 LIG 0.04  C 
BRANCH 2 3
ATOM      3  CG  LYS B   5      -6.023   5.621   1.869  1.00 49.23 LIG 0.00  C 
BRANCH 3 4
ATOM      4  CD  LYS B   5      -4.526   5.298   1.851  1.00 48.54 LIG 0.03  C 
BRANCH 4 5
ATOM      5  CE  LYS B   5      -4.030   4.902   3.232  1.00 43.92 LIG 0.23  C 
BRANCH 5 6
ATOM      6  NZ  LYS B   5      -5.050   4.065   3.909  1.00 45.51 LIG-0.08  N 
ATOM      7 HZ3  LYS B   5      -5.634   3.764   3.308  1.00 45.51 LIG 0.27  HD
ATOM      8 HZ1  LYS B   5      -4.652   3.375   4.306  1.00 45.51 LIG 0.27  HD
ATOM      9 HZ2  LYS B   5      -5.477   4.552   4.519  1.00 45.51 LIG 0.27  HD
ENDBRANCH 5 6
ENDBRANCH 4 5
ENDBRANCH 3 4
ENDBRANCH 2 3
ENDBRANCH 1 2
BRANCH 1 10
ATOM     10  C   LYS B   5      -6.699   4.257  -0.914  1.00 41.24 LIG 0.24  C 
ATOM     11  N   TRP B   6      -6.752   5.178  -1.878  1.00 42.23 LIG-0.35  N 
ATOM     12 H    TRP B   6      -7.320   5.824  -1.903  1.00 42.23 LIG 0.16  HD
ATOM     13 O    LYS B   5      -5.912   3.307  -0.952  1.00 40.50 LIG-0.27  OA
BRANCH 11 14
ATOM     14  CA  TRP B   6      -5.811   5.146  -2.994  1.00 42.54 LIG 0.18  C 
BRANCH 14 15
ATOM     15  C   TRP B   6      -4.384   5.221  -2.456  1.00 45.00 LIG 0.24  C 
ATOM     16 O    TRP B   6      -4.051   6.139  -1.693  1.00 46.85 LIG-0.27  OA
ATOM     17  N   ASN B   7      -3.548   4.253  -2.852  1.00 47.11 LIG-0.35  N 
ATOM     18 H    ASN B   7      -3.810   3.547  -3.267  1.00 47.11 LIG 0.16  HD
BRANCH 17 19
ATOM     19  CA  ASN B   7      -2.094   4.297  -2.618  1.00 45.24 LIG 0.17  C 
BRANCH 19 20
ATOM     20  C   ASN B   7      -1.802   4.082  -1.135  1.00 46.26 LIG 0.22  C 
ATOM     21 O    ASN B   7      -2.696   3.711  -0.369  1.00 44.70 LIG-0.29  OA
ENDBRANCH 19 20
BRANCH 19 22
ATOM     22  CB  ASN B   7      -1.471   5.632  -3.060  1.00 46.57 LIG 0.14  C 
BRANCH 22 23
ATOM     23  CG  ASN B   7      -0.326   6.086  -2.161  1.00 48.94 LIG 0.22  C 
ATOM     24  ND2 ASN B   7       0.907   5.785  -2.567  1.00 48.79 LIG-0.37  N 
ATOM     25 21HD ASN B   7       1.586   6.017  -2.092  1.00 48.79 LIG 0.16  HD
ATOM     26 22HD ASN B   7       1.025   5.360  -3.305  1.00 48.79 LIG 0.16  HD
ATOM     27 OD1  ASN B   7      -0.545   6.692  -1.115  1.00 52.21 LIG-0.27  OA
ENDBRANCH 22 23
ENDBRANCH 19 22
ENDBRANCH 17 19
ENDBRANCH 14 15
BRANCH 14 28
ATOM     28  CB  TRP B   6      -6.060   6.282  -3.991  1.00 42.47 LIG 0.07  C 
BRANCH 28 29
ATOM     29  CG  TRP B   6      -4.766   6.725  -4.660  1.00 46.30 LIG-0.03  A 
ATOM     30  CD1 TRP B   6      -4.105   6.084  -5.681  1.00 49.14 LIG 0.10  A 
ATOM     31  NE1 TRP B   6      -2.985   6.797  -6.047  1.00 51.13 LIG-0.36  N 
ATOM     32 HE1  TRP B   6      -2.431   6.575  -6.665  1.00 51.13 LIG 0.17  HD
ATOM     33  CE2 TRP B   6      -2.897   7.919  -5.263  1.00 47.23 LIG 0.04  A 
ATOM     34  CZ2 TRP B   6      -1.939   8.941  -5.258  1.00 46.28 LIG 0.03  A 
ATOM     35  CD2 TRP B   6      -4.002   7.912  -4.381  1.00 41.81 LIG-0.00  A 
ATOM     36  CH2 TRP B   6      -2.103   9.961  -4.351  1.00 44.17 LIG 0.00  A 
ATOM     37  CZ3 TRP B   6      -3.179   9.979  -3.460  1.00 33.54 LIG 0.00  A 
ATOM     38  CE3 TRP B   6      -4.138   8.960  -3.466  1.00 38.27 LIG 0.01  A 
ENDBRANCH 28 29
ENDBRANCH 14 28
ENDBRANCH 11 14
ENDBRANCH 1 10
BRANCH 1 39
ATOM     39  N   LYS B   5      -8.706   3.395   0.209  1.00 39.73 LIG-0.35  N 
ATOM     40  C   PRO B   4      -8.489   2.137   0.589  1.00 35.29 LIG 0.24  C 
ATOM     41 O    PRO B   4      -7.397   1.734   0.990  1.00 36.70 LIG-0.27  OA
ATOM     42 H    LYS B   5      -9.465   3.673  -0.082  1.00 39.73 LIG 0.16  HD
BRANCH 40 43
ATOM     43  CA  PRO B   4      -9.688   1.210   0.509  1.00 31.05 LIG 0.18  C 
ATOM     44  N   PRO B   4     -10.924   1.957   0.281  1.00 34.55 LIG-0.34  N 
ATOM     45  C   GLY B   3     -11.540   2.564   1.296  1.00 37.27 LIG 0.24  C 
ATOM     46  CD  PRO B   4     -11.399   1.811  -1.107  1.00 31.08 LIG 0.13  C 
ATOM     47 O    GLY B   3     -11.068   2.561   2.437  1.00 44.84 LIG-0.27  OA
ATOM     48  CG  PRO B   4     -10.249   1.120  -1.796  1.00 26.25 LIG 0.02  C 
ATOM     49  CB  PRO B   4      -9.604   0.305  -0.724  1.00 27.99 LIG 0.04  C 
BRANCH 45 50
ATOM     50  CA  GLY B   3     -12.837   3.279   0.988  1.00 35.98 LIG 0.23  C 
BRANCH 50 51
ATOM     51  N   GLY B   3     -13.976   2.506   1.425  1.00 37.88 LIG-0.35  N 
ATOM     52  C   TYR B   2     -14.645   2.793   2.538  1.00 38.85 LIG 0.26  C 
ATOM     53 O    TYR B   2     -14.414   3.784   3.234  1.00 37.42 LIG-0.27  OA
ATOM     54 H    GLY B   3     -14.176   1.853   0.903  1.00 37.88 LIG 0.16  HD
BRANCH 52 55
ATOM     55  CA  TYR B   2     -15.759   1.821   2.915  1.00 47.59 LIG 0.40  C 
ATOM     56  N   TYR B   2     -15.904   1.750   4.368  1.00 42.90 LIG 0.61  N 
BRANCH 55 57
ATOM     57  CB  TYR B   2     -17.072   2.251   2.254  1.00 41.46 LIG 0.09  C 
BRANCH 57 58
ATOM     58  CG  TYR B   2     -17.060   2.221   0.728  1.00 40.04 LIG-0.06  A 
ATOM     59  CD1 TYR B   2     -17.438   1.078   0.038  1.00 39.56 LIG 0.01  A 
ATOM     60  CE1 TYR B   2     -17.438   1.036  -1.351  1.00 39.46 LIG 0.04  A 
ATOM     61  CZ  TYR B   2     -17.058   2.150  -2.068  1.00 36.77 LIG 0.07  A 
ATOM     62  CE2 TYR B   2     -16.676   3.303  -1.407  1.00 30.56 LIG 0.04  A 
ATOM     63  CD2 TYR B   2     -16.679   3.335  -0.017  1.00 33.12 LIG 0.01  A 
BRANCH 61 64
ATOM     64 OH   TYR B   2     -17.070   2.087  -3.453  1.00 37.21 LIG-0.36  OA
ATOM     65 HH   TYR B   2     -16.423   2.527  -3.760  1.00 37.21 LIG 0.22  HD
ENDBRANCH 61 64
ENDBRANCH 57 58
ENDBRANCH 55 57
ENDBRANCH 52 55
ENDBRANCH 50 51
ENDBRANCH 45 50
ENDBRANCH 40 43
ENDBRANCH 1 39
TORSDOF 22
ENDMDL
MODEL 42
USER: ADFR SOLUTION from run 48
USER: SCORE 15.531307 LL:  -3.317 LR: -15.041 RR:   0.000 FEB:  -8.478
USER: RMSD 14.308953
USER: SEED 47
USER: STATUS no improvement in best in 41 clusters for 5 generations
USER: GENES 24
USER: genes 0 Translation |==|  0.36428 0.32830 0.56957
USER: genes 1 Rotation |==|  0.59667 0.02993 0.36522 0.53900
USER: genes 2 Torsion [C]-CA--CB-[CG] |==|  0.27854
USER: genes 3 Torsion [CA]-CB--CG-[CD] |==|  0.63005
USER: genes 4 Torsion [CB]-CG--CD-[CE] |==|  0.27444
USER: genes 5 Torsion [CG]-CD--CE-[NZ] |==|  0.70751
USER: genes 6 Torsion [CD]-CE--NZ-[HZ3] |==|  0.35286
USER: genes 7 Torsion [N]-CA--C-[N] |==|  0.64995
USER: genes 8 Torsion [C]-N--CA-[C] |==|  0.16171
USER: genes 9 Torsion [N]-CA--C-[N] |==|  0.21111
USER: genes 10 Torsion [C]-N--CA-[C] |==|  0.21458
USER: genes 11 Torsion [N]-CA--C-[O] |==|  0.66460
USER: genes 12 Torsion [N]-CA--CB-[CG] |==|  0.83938
USER: genes 13 Torsion [CA]-CB--CG-[ND2] |==|  0.99663
USER: genes 14 Torsion [N]-CA--CB-[CG] |==|  0.54520
USER: genes 15 Torsion [CA]-CB--CG-[CD2] |==|  0.73492
USER: genes 16 Torsion [CB]-CA--N-[C] |==|  0.80537
USER: genes 17 Torsion [N]-C--CA-[CB] |==|  0.12928
USER: genes 18 Torsion [N]-C--CA-[N] |==|  0.13597
USER: genes 19 Torsion [C]-CA--N-[C] |==|  0.64084
USER: genes 20 Torsion [N]-C--CA-[N] |==|  0.44305
USER: genes 21 Torsion [C]-CA--CB-[CG] |==|  0.39567
USER: genes 22 Torsion [CA]-CB--CG-[CD1] |==|  0.74135
USER: genes 23 Torsion [CE1]-CZ--OH-[HH] |==|  0.14735
ROOT
ATOM      1  CA  LYS B   5      -7.622   1.476  -0.810  1.00 42.36 LIG 0.18  C 
ENDROOT
BRANCH 1 2
ATOM      2  CB  LYS B   5      -7.088   0.992   0.547  1.00 43.80 LIG 0.04  C 
BRANCH 2 3
ATOM      3  CG  LYS B   5      -6.746  -0.517   0.618  1.00 49.23 LIG 0.00  C 
BRANCH 3 4
ATOM      4  CD  LYS B   5      -7.303  -1.203   1.869  1.00 48.54 LIG 0.03  C 
BRANCH 4 5
ATOM      5  CE  LYS B   5      -8.597  -1.938   1.566  1.00 43.92 LIG 0.23  C 
BRANCH 5 6
ATOM      6  NZ  LYS B   5      -9.746  -1.177   2.115  1.00 45.51 LIG-0.08  N 
ATOM      7 HZ3  LYS B   5     -10.348  -1.042   1.473  1.00 45.51 LIG 0.27  HD
ATOM      8 HZ1  LYS B   5     -10.118  -1.638   2.778  1.00 45.51 LIG 0.27  HD
ATOM      9 HZ2  LYS B   5      -9.462  -0.392   2.424  1.00 45.51 LIG 0.27  HD
ENDBRANCH 5 6
ENDBRANCH 4 5
ENDBRANCH 3 4
ENDBRANCH 2 3
ENDBRANCH 1 2
BRANCH 1 10
ATOM     10  C   LYS B   5      -9.145   1.597  -0.757  1.00 41.24 LIG 0.24  C 
ATOM     11  N   TRP B   6      -9.733   1.206   0.375  1.00 42.23 LIG-0.35  N 
ATOM     12 H    TRP B   6      -9.318   0.858   1.043  1.00 42.23 LIG 0.16  HD
ATOM     13 O    LYS B   5      -9.786   2.029  -1.718  1.00 40.50 LIG-0.27  OA
BRANCH 11 14
ATOM     14  CA  TRP B   6     -11.175   1.351   0.557  1.00 42.54 LIG 0.18  C 
BRANCH 14 15
ATOM     15  C   TRP B   6     -11.903   0.588  -0.548  1.00 45.00 LIG 0.24  C 
ATOM     16 O    TRP B   6     -12.416   1.200  -1.496  1.00 46.85 LIG-0.27  OA
ATOM     17  N   ASN B   7     -11.943  -0.744  -0.424  1.00 47.11 LIG-0.35  N 
ATOM     18 H    ASN B   7     -11.476  -1.176   0.154  1.00 47.11 LIG 0.16  HD
BRANCH 17 19
ATOM     19  CA  ASN B   7     -12.790  -1.608  -1.264  1.00 45.24 LIG 0.17  C 
BRANCH 19 20
ATOM     20  C   ASN B   7     -12.154  -1.774  -2.642  1.00 46.26 LIG 0.22  C 
ATOM     21 O    ASN B   7     -12.762  -1.424  -3.658  1.00 44.70 LIG-0.29  OA
ENDBRANCH 19 20
BRANCH 19 22
ATOM     22  CB  ASN B   7     -14.211  -1.043  -1.436  1.00 46.57 LIG 0.14  C 
BRANCH 22 23
ATOM     23  CG  ASN B   7     -14.936  -0.831  -0.110  1.00 48.94 LIG 0.22  C 
ATOM     24  ND2 ASN B   7     -14.274  -1.176   0.994  1.00 48.79 LIG-0.37  N 
ATOM     25 21HD ASN B   7     -14.643  -1.079   1.765  1.00 48.79 LIG 0.16  HD
ATOM     26 22HD ASN B   7     -13.478  -1.496   0.936  1.00 48.79 LIG 0.16  HD
ATOM     27 OD1  ASN B   7     -16.074  -0.370  -0.079  1.00 52.21 LIG-0.27  OA
ENDBRANCH 22 23
ENDBRANCH 19 22
ENDBRANCH 17 19
ENDBRANCH 14 15
BRANCH 14 28
ATOM     28  CB  TRP B   6     -11.612   2.819   0.562  1.00 42.47 LIG 0.07  C 
BRANCH 28 29
ATOM     29  CG  TRP B   6     -13.012   2.977   1.139  1.00 46.30 LIG-0.03  A 
ATOM     30  CD1 TRP B   6     -13.345   3.118   2.466  1.00 49.14 LIG 0.10  A 
ATOM     31  NE1 TRP B   6     -14.708   3.267   2.602  1.00 51.13 LIG-0.36  N 
ATOM     32 HE1  TRP B   6     -15.127   3.370   3.345  1.00 51.13 LIG 0.17  HD
ATOM     33  CE2 TRP B   6     -15.286   3.224   1.359  1.00 47.23 LIG 0.04  A 
ATOM     34  CZ2 TRP B   6     -16.633   3.326   0.989  1.00 46.28 LIG 0.03  A 
ATOM     35  CD2 TRP B   6     -14.251   3.047   0.411  1.00 41.81 LIG-0.00  A 
ATOM     36  CH2 TRP B   6     -16.931   3.248  -0.351  1.00 44.17 LIG 0.00  A 
ATOM     37  CZ3 TRP B   6     -15.933   3.066  -1.311  1.00 33.54 LIG 0.00  A 
ATOM     38  CE3 TRP B   6     -14.587   2.965  -0.943  1.00 38.27 LIG 0.01  A 
ENDBRANCH 28 29
ENDBRANCH 14 28
ENDBRANCH 11 14
ENDBRANCH 1 10
BRANCH 1 39
ATOM     39  N   LYS B   5      -7.020   2.757  -1.172  1.00 39.73 LIG-0.35  N 
ATOM     40  C   PRO B   4      -7.300   3.897  -0.545  1.00 35.29 LIG 0.24  C 
ATOM     41 O    PRO B   4      -8.103   3.974   0.385  1.00 36.70 LIG-0.27  OA
ATOM     42 H    LYS B   5      -6.468   2.705  -1.829  1.00 39.73 LIG 0.16  HD
BRANCH 40 43
ATOM     43  CA  PRO B   4      -6.551   5.121  -1.040  1.00 31.05 LIG 0.18  C 
ATOM     44  N   PRO B   4      -5.123   5.028  -0.743  1.00 34.55 LIG-0.34  N 
ATOM     45  C   GLY B   3      -4.669   5.321   0.475  1.00 37.27 LIG 0.24  C 
ATOM     46  CD  PRO B   4      -4.335   4.724  -1.952  1.00 31.08 LIG 0.13  C 
ATOM     47 O    GLY B   3      -5.432   5.627   1.396  1.00 44.84 LIG-0.27  OA
ATOM     48  CG  PRO B   4      -5.390   4.394  -2.979  1.00 26.25 LIG 0.02  C 
ATOM     49  CB  PRO B   4      -6.577   5.201  -2.570  1.00 27.99 LIG 0.04  C 
BRANCH 45 50
ATOM     50  CA  GLY B   3      -3.174   5.244   0.692  1.00 35.98 LIG 0.23  C 
BRANCH 50 51
ATOM     51  N   GLY B   3      -2.459   5.951  -0.345  1.00 37.88 LIG-0.35  N 
ATOM     52  C   TYR B   2      -1.457   5.398  -1.024  1.00 38.85 LIG 0.26  C 
ATOM     53 O    TYR B   2      -1.118   4.219  -0.894  1.00 37.42 LIG-0.27  OA
ATOM     54 H    GLY B   3      -2.739   6.753  -0.480  1.00 37.88 LIG 0.16  HD
BRANCH 52 55
ATOM     55  CA  TYR B   2      -0.739   6.309  -2.014  1.00 47.59 LIG 0.40  C 
ATOM     56  N   TYR B   2       0.589   5.779  -2.323  1.00 42.90 LIG 0.61  N 
BRANCH 55 57
ATOM     57  CB  TYR B   2      -1.578   6.461  -3.286  1.00 41.46 LIG 0.09  C 
BRANCH 57 58
ATOM     58  CG  TYR B   2      -1.548   7.854  -3.910  1.00 40.04 LIG-0.06  A 
ATOM     59  CD1 TYR B   2      -2.515   8.797  -3.588  1.00 39.56 LIG 0.01  A 
ATOM     60  CE1 TYR B   2      -2.498  10.070  -4.143  1.00 39.46 LIG 0.04  A 
ATOM     61  CZ  TYR B   2      -1.504  10.416  -5.031  1.00 36.77 LIG 0.07  A 
ATOM     62  CE2 TYR B   2      -0.527   9.498  -5.370  1.00 30.56 LIG 0.04  A 
ATOM     63  CD2 TYR B   2      -0.552   8.224  -4.811  1.00 33.12 LIG 0.01  A 
BRANCH 61 64
ATOM     64 OH   TYR B   2      -1.505  11.694  -5.569  1.00 37.21 LIG-0.36  OA
ATOM     65 HH   TYR B   2      -1.538  12.260  -4.949  1.00 37.21 LIG 0.22  HD
ENDBRANCH 61 64
ENDBRANCH 57 58
ENDBRANCH 55 57
ENDBRANCH 52 55
ENDBRANCH 50 51
ENDBRANCH 45 50
ENDBRANCH 40 43
ENDBRANCH 1 39
TORSDOF 22
ENDMDL
MODEL 43
USER: ADFR SOLUTION from run 55
USER: SCORE 18.011872 LL:  -4.386 LR: -15.029 RR:   0.000 FEB:  -8.466
USER: RMSD 13.792948
USER: SEED 54
USER: STATUS no improvement in best in 7 clusters for 5 generations
USER: GENES 24
USER: genes 0 Translation |==|  0.37498 0.39637 0.58775
USER: genes 1 Rotation |==|  0.70930 0.04653 0.48977 0.52123
USER: genes 2 Torsion [C]-CA--CB-[CG] |==|  0.66224
USER: genes 3 Torsion [CA]-CB--CG-[CD] |==|  0.62931
USER: genes 4 Torsion [CB]-CG--CD-[CE] |==|  0.29686
USER: genes 5 Torsion [CG]-CD--CE-[NZ] |==|  0.20460
USER: genes 6 Torsion [CD]-CE--NZ-[HZ3] |==|  0.90916
USER: genes 7 Torsion [N]-CA--C-[N] |==|  0.68570
USER: genes 8 Torsion [C]-N--CA-[C] |==|  0.57053
USER: genes 9 Torsion [N]-CA--C-[N] |==|  0.39643
USER: genes 10 Torsion [C]-N--CA-[C] |==|  0.16581
USER: genes 11 Torsion [N]-CA--C-[O] |==|  0.59955
USER: genes 12 Torsion [N]-CA--CB-[CG] |==|  0.58122
USER: genes 13 Torsion [CA]-CB--CG-[ND2] |==|  0.11293
USER: genes 14 Torsion [N]-CA--CB-[CG] |==|  0.59647
USER: genes 15 Torsion [CA]-CB--CG-[CD2] |==|  0.75843
USER: genes 16 Torsion [CB]-CA--N-[C] |==|  0.20828
USER: genes 17 Torsion [N]-C--CA-[CB] |==|  0.88347
USER: genes 18 Torsion [N]-C--CA-[N] |==|  0.15000
USER: genes 19 Torsion [C]-CA--N-[C] |==|  0.17354
USER: genes 20 Torsion [N]-C--CA-[N] |==|  0.85280
USER: genes 21 Torsion [C]-CA--CB-[CG] |==|  0.20375
USER: genes 22 Torsion [CA]-CB--CG-[CD1] |==|  0.33882
USER: genes 23 Torsion [CE1]-CZ--OH-[HH] |==|  0.61220
ROOT
ATOM      1  CA  LYS B   5      -7.301   2.803  -0.496  1.00 42.36 LIG 0.18  C 
ENDROOT
BRANCH 1 2
ATOM      2  CB  LYS B   5      -7.144   3.095   1.004  1.00 43.80 LIG 0.04  C 
BRANCH 2 3
ATOM      3  CG  LYS B   5      -6.869   4.577   1.359  1.00 49.23 LIG 0.00  C 
BRANCH 3 4
ATOM      4  CD  LYS B   5      -5.728   4.753   2.366  1.00 48.54 LIG 0.03  C 
BRANCH 4 5
ATOM      5  CE  LYS B   5      -4.480   5.303   1.696  1.00 43.92 LIG 0.23  C 
BRANCH 5 6
ATOM      6  NZ  LYS B   5      -4.673   6.740   1.383  1.00 45.51 LIG-0.08  N 
ATOM      7 HZ3  LYS B   5      -5.529   6.890   1.192  1.00 45.51 LIG 0.27  HD
ATOM      8 HZ1  LYS B   5      -4.436   7.231   2.086  1.00 45.51 LIG 0.27  HD
ATOM      9 HZ2  LYS B   5      -4.170   6.962   0.683  1.00 45.51 LIG 0.27  HD
ENDBRANCH 5 6
ENDBRANCH 4 5
ENDBRANCH 3 4
ENDBRANCH 2 3
ENDBRANCH 1 2
BRANCH 1 10
ATOM     10  C   LYS B   5      -8.670   2.179  -0.764  1.00 41.24 LIG 0.24  C 
ATOM     11  N   TRP B   6      -9.531   2.173   0.255  1.00 42.23 LIG-0.35  N 
ATOM     12 H    TRP B   6      -9.348   2.455   1.046  1.00 42.23 LIG 0.16  HD
ATOM     13 O    LYS B   5      -8.951   1.702  -1.867  1.00 40.50 LIG-0.27  OA
BRANCH 11 14
ATOM     14  CA  TRP B   6     -10.890   1.669   0.082  1.00 42.54 LIG 0.18  C 
BRANCH 14 15
ATOM     15  C   TRP B   6     -11.807   2.322   1.114  1.00 45.00 LIG 0.24  C 
ATOM     16 O    TRP B   6     -11.396   2.551   2.260  1.00 46.85 LIG-0.27  OA
ATOM     17  N   ASN B   7     -13.046   2.623   0.703  1.00 47.11 LIG-0.35  N 
ATOM     18 H    ASN B   7     -13.288   2.590  -0.122  1.00 47.11 LIG 0.16  HD
BRANCH 17 19
ATOM     19  CA  ASN B   7     -14.121   3.039   1.619  1.00 45.24 LIG 0.17  C 
BRANCH 19 20
ATOM     20  C   ASN B   7     -13.709   4.310   2.357  1.00 46.26 LIG 0.22  C 
ATOM     21 O    ASN B   7     -14.041   4.487   3.533  1.00 44.70 LIG-0.29  OA
ENDBRANCH 19 20
BRANCH 19 22
ATOM     22  CB  ASN B   7     -14.463   1.952   2.652  1.00 46.57 LIG 0.14  C 
BRANCH 22 23
ATOM     23  CG  ASN B   7     -15.917   1.997   3.111  1.00 48.94 LIG 0.22  C 
ATOM     24  ND2 ASN B   7     -16.832   2.236   2.172  1.00 48.79 LIG-0.37  N 
ATOM     25 21HD ASN B   7     -17.665   2.275   2.382  1.00 48.79 LIG 0.16  HD
ATOM     26 22HD ASN B   7     -16.590   2.353   1.355  1.00 48.79 LIG 0.16  HD
ATOM     27 OD1  ASN B   7     -16.213   1.824   4.290  1.00 52.21 LIG-0.27  OA
ENDBRANCH 22 23
ENDBRANCH 19 22
ENDBRANCH 17 19
ENDBRANCH 14 15
BRANCH 14 28
ATOM     28  CB  TRP B   6     -10.960   0.144   0.204  1.00 42.47 LIG 0.07  C 
BRANCH 28 29
ATOM     29  CG  TRP B   6     -12.008  -0.439  -0.733  1.00 46.30 LIG-0.03  A 
ATOM     30  CD1 TRP B   6     -11.797  -0.937  -1.997  1.00 49.14 LIG 0.10  A 
ATOM     31  NE1 TRP B   6     -12.979  -1.406  -2.529  1.00 51.13 LIG-0.36  N 
ATOM     32 HE1  TRP B   6     -13.071  -1.759  -3.307  1.00 51.13 LIG 0.17  HD
ATOM     33  CE2 TRP B   6     -13.984  -1.217  -1.614  1.00 47.23 LIG 0.04  A 
ATOM     34  CZ2 TRP B   6     -15.347  -1.527  -1.698  1.00 46.28 LIG 0.03  A 
ATOM     35  CD2 TRP B   6     -13.412  -0.615  -0.469  1.00 41.81 LIG-0.00  A 
ATOM     36  CH2 TRP B   6     -16.135  -1.223  -0.614  1.00 44.17 LIG 0.00  A 
ATOM     37  CZ3 TRP B   6     -15.603  -0.621   0.529  1.00 33.54 LIG 0.00  A 
ATOM     38  CE3 TRP B   6     -14.241  -0.313   0.615  1.00 38.27 LIG 0.01  A 
ENDBRANCH 28 29
ENDBRANCH 14 28
ENDBRANCH 11 14
ENDBRANCH 1 10
BRANCH 1 39
ATOM     39  N   LYS B   5      -7.135   4.026  -1.278  1.00 39.73 LIG-0.35  N 
ATOM     40  C   PRO B   4      -5.952   4.596  -1.499  1.00 35.29 LIG 0.24  C 
ATOM     41 O    PRO B   4      -4.897   4.152  -1.048  1.00 36.70 LIG-0.27  OA
ATOM     42 H    LYS B   5      -7.874   4.343  -1.584  1.00 39.73 LIG 0.16  HD
BRANCH 40 43
ATOM     43  CA  PRO B   4      -5.975   5.844  -2.363  1.00 31.05 LIG 0.18  C 
ATOM     44  N   PRO B   4      -4.682   6.068  -3.008  1.00 34.55 LIG-0.34  N 
ATOM     45  C   GLY B   3      -3.682   6.632  -2.330  1.00 37.27 LIG 0.24  C 
ATOM     46  CD  PRO B   4      -4.723   5.729  -4.442  1.00 31.08 LIG 0.13  C 
ATOM     47 O    GLY B   3      -3.793   6.932  -1.137  1.00 44.84 LIG-0.27  OA
ATOM     48  CG  PRO B   4      -6.060   5.048  -4.598  1.00 26.25 LIG 0.02  C 
ATOM     49  CB  PRO B   4      -6.924   5.673  -3.553  1.00 27.99 LIG 0.04  C 
BRANCH 45 50
ATOM     50  CA  GLY B   3      -2.390   6.872  -3.079  1.00 35.98 LIG 0.23  C 
BRANCH 50 51
ATOM     51  N   GLY B   3      -2.619   7.630  -4.287  1.00 37.88 LIG-0.35  N 
ATOM     52  C   TYR B   2      -3.105   8.868  -4.269  1.00 38.85 LIG 0.26  C 
ATOM     53 O    TYR B   2      -3.309   9.503  -3.232  1.00 37.42 LIG-0.27  OA
ATOM     54 H    GLY B   3      -2.415   7.209  -5.008  1.00 37.88 LIG 0.16  HD
BRANCH 52 55
ATOM     55  CA  TYR B   2      -3.385   9.494  -5.631  1.00 47.59 LIG 0.40  C 
ATOM     56  N   TYR B   2      -2.199   9.413  -6.483  1.00 42.90 LIG 0.61  N 
BRANCH 55 57
ATOM     57  CB  TYR B   2      -4.581   8.799  -6.289  1.00 41.46 LIG 0.09  C 
BRANCH 57 58
ATOM     58  CG  TYR B   2      -5.937   9.143  -5.678  1.00 40.04 LIG-0.06  A 
ATOM     59  CD1 TYR B   2      -6.945   9.695  -6.455  1.00 39.56 LIG 0.01  A 
ATOM     60  CE1 TYR B   2      -8.186  10.009  -5.915  1.00 39.46 LIG 0.04  A 
ATOM     61  CZ  TYR B   2      -8.432   9.769  -4.581  1.00 36.77 LIG 0.07  A 
ATOM     62  CE2 TYR B   2      -7.446   9.220  -3.783  1.00 30.56 LIG 0.04  A 
ATOM     63  CD2 TYR B   2      -6.205   8.910  -4.331  1.00 33.12 LIG 0.01  A 
BRANCH 61 64
ATOM     64 OH   TYR B   2      -9.679  10.086  -4.065  1.00 37.21 LIG-0.36  OA
ATOM     65 HH   TYR B   2      -9.589  10.427  -3.302  1.00 37.21 LIG 0.22  HD
ENDBRANCH 61 64
ENDBRANCH 57 58
ENDBRANCH 55 57
ENDBRANCH 52 55
ENDBRANCH 50 51
ENDBRANCH 45 50
ENDBRANCH 40 43
ENDBRANCH 1 39
TORSDOF 22
ENDMDL
MODEL 44
USER: ADFR SOLUTION from run 109
USER: SCORE 18.220601 LL:  -4.551 LR: -15.021 RR:   0.000 FEB:  -8.458
USER: RMSD 11.531582
USER: SEED 108
USER: STATUS no improvement in best in 8 clusters for 5 generations
USER: GENES 24
USER: genes 0 Translation |==|  0.54437 0.52553 0.54945
USER: genes 1 Rotation |==|  0.48436 0.78992 0.09300 0.50723
USER: genes 2 Torsion [C]-CA--CB-[CG] |==|  0.79878
USER: genes 3 Torsion [CA]-CB--CG-[CD] |==|  0.41084
USER: genes 4 Torsion [CB]-CG--CD-[CE] |==|  0.21015
USER: genes 5 Torsion [CG]-CD--CE-[NZ] |==|  0.62568
USER: genes 6 Torsion [CD]-CE--NZ-[HZ3] |==|  0.65105
USER: genes 7 Torsion [N]-CA--C-[N] |==|  0.59705
USER: genes 8 Torsion [C]-N--CA-[C] |==|  0.63971
USER: genes 9 Torsion [N]-CA--C-[N] |==|  0.82788
USER: genes 10 Torsion [C]-N--CA-[C] |==|  0.61548
USER: genes 11 Torsion [N]-CA--C-[O] |==|  0.00646
USER: genes 12 Torsion [N]-CA--CB-[CG] |==|  0.27980
USER: genes 13 Torsion [CA]-CB--CG-[ND2] |==|  0.75155
USER: genes 14 Torsion [N]-CA--CB-[CG] |==|  0.84685
USER: genes 15 Torsion [CA]-CB--CG-[CD2] |==|  0.19632
USER: genes 16 Torsion [CB]-CA--N-[C] |==|  0.14543
USER: genes 17 Torsion [N]-C--CA-[CB] |==|  0.98459
USER: genes 18 Torsion [N]-C--CA-[N] |==|  0.47331
USER: genes 19 Torsion [C]-CA--N-[C] |==|  0.25556
USER: genes 20 Torsion [N]-C--CA-[N] |==|  0.74182
USER: genes 21 Torsion [C]-CA--CB-[CG] |==|  0.22965
USER: genes 22 Torsion [CA]-CB--CG-[CD1] |==|  0.23774
USER: genes 23 Torsion [CE1]-CZ--OH-[HH] |==|  0.10911
ROOT
ATOM      1  CA  LYS B   5      -2.219   5.322  -1.157  1.00 42.36 LIG 0.18  C 
ENDROOT
BRANCH 1 2
ATOM      2  CB  LYS B   5      -2.091   6.699  -1.826  1.00 43.80 LIG 0.04  C 
BRANCH 2 3
ATOM      3  CG  LYS B   5      -1.811   6.665  -3.349  1.00 49.23 LIG 0.00  C 
BRANCH 3 4
ATOM      4  CD  LYS B   5      -2.429   7.848  -4.101  1.00 48.54 LIG 0.03  C 
BRANCH 4 5
ATOM      5  CE  LYS B   5      -1.634   9.123  -3.876  1.00 43.92 LIG 0.23  C 
BRANCH 5 6
ATOM      6  NZ  LYS B   5      -2.558  10.245  -3.586  1.00 45.51 LIG-0.08  N 
ATOM      7 HZ3  LYS B   5      -2.400  10.914  -4.151  1.00 45.51 LIG 0.27  HD
ATOM      8 HZ1  LYS B   5      -3.399   9.970  -3.681  1.00 45.51 LIG 0.27  HD
ATOM      9 HZ2  LYS B   5      -2.432  10.527  -2.751  1.00 45.51 LIG 0.27  HD
ENDBRANCH 5 6
ENDBRANCH 4 5
ENDBRANCH 3 4
ENDBRANCH 2 3
ENDBRANCH 1 2
BRANCH 1 10
ATOM     10  C   LYS B   5      -3.541   4.668  -1.562  1.00 41.24 LIG 0.24  C 
ATOM     11  N   TRP B   6      -4.509   5.490  -1.971  1.00 42.23 LIG-0.35  N 
ATOM     12 H    TRP B   6      -4.447   6.347  -1.979  1.00 42.23 LIG 0.16  HD
ATOM     13 O    LYS B   5      -3.694   3.445  -1.502  1.00 40.50 LIG-0.27  OA
BRANCH 11 14
ATOM     14  CA  TRP B   6      -5.783   4.962  -2.451  1.00 42.54 LIG 0.18  C 
BRANCH 14 15
ATOM     15  C   TRP B   6      -6.120   5.598  -3.798  1.00 45.00 LIG 0.24  C 
ATOM     16 O    TRP B   6      -6.231   4.895  -4.811  1.00 46.85 LIG-0.27  OA
ATOM     17  N   ASN B   7      -6.284   6.927  -3.803  1.00 47.11 LIG-0.35  N 
ATOM     18 H    ASN B   7      -6.342   7.396  -3.084  1.00 47.11 LIG 0.16  HD
BRANCH 17 19
ATOM     19  CA  ASN B   7      -6.383   7.724  -5.038  1.00 45.24 LIG 0.17  C 
BRANCH 19 20
ATOM     20  C   ASN B   7      -5.582   9.015  -4.887  1.00 46.26 LIG 0.22  C 
ATOM     21 O    ASN B   7      -4.942   9.236  -3.854  1.00 44.70 LIG-0.29  OA
ENDBRANCH 19 20
BRANCH 19 22
ATOM     22  CB  ASN B   7      -7.838   8.078  -5.390  1.00 46.57 LIG 0.14  C 
BRANCH 22 23
ATOM     23  CG  ASN B   7      -8.218   9.504  -5.001  1.00 48.94 LIG 0.22  C 
ATOM     24  ND2 ASN B   7      -8.710   9.676  -3.774  1.00 48.79 LIG-0.37  N 
ATOM     25 21HD ASN B   7      -8.942  10.461  -3.510  1.00 48.79 LIG 0.16  HD
ATOM     26 22HD ASN B   7      -8.794   9.002  -3.246  1.00 48.79 LIG 0.16  HD
ATOM     27 OD1  ASN B   7      -8.078  10.433  -5.791  1.00 52.21 LIG-0.27  OA
ENDBRANCH 22 23
ENDBRANCH 19 22
ENDBRANCH 17 19
ENDBRANCH 14 15
BRANCH 14 28
ATOM     28  CB  TRP B   6      -6.920   5.204  -1.453  1.00 42.47 LIG 0.07  C 
BRANCH 28 29
ATOM     29  CG  TRP B   6      -6.582   4.640  -0.081  1.00 46.30 LIG-0.03  A 
ATOM     30  CD1 TRP B   6      -7.124   3.521   0.507  1.00 49.14 LIG 0.10  A 
ATOM     31  NE1 TRP B   6      -6.550   3.304   1.740  1.00 51.13 LIG-0.36  N 
ATOM     32 HE1  TRP B   6      -6.743   2.659   2.274  1.00 51.13 LIG 0.17  HD
ATOM     33  CE2 TRP B   6      -5.621   4.284   1.977  1.00 47.23 LIG 0.04  A 
ATOM     34  CZ2 TRP B   6      -4.789   4.488   3.085  1.00 46.28 LIG 0.03  A 
ATOM     35  CD2 TRP B   6      -5.608   5.142   0.852  1.00 41.81 LIG-0.00  A 
ATOM     36  CH2 TRP B   6      -3.941   5.569   3.053  1.00 44.17 LIG 0.00  A 
ATOM     37  CZ3 TRP B   6      -3.909   6.439   1.961  1.00 33.54 LIG 0.00  A 
ATOM     38  CE3 TRP B   6      -4.738   6.236   0.852  1.00 38.27 LIG 0.01  A 
ENDBRANCH 28 29
ENDBRANCH 14 28
ENDBRANCH 11 14
ENDBRANCH 1 10
BRANCH 1 39
ATOM     39  N   LYS B   5      -1.094   4.465  -1.522  1.00 39.73 LIG-0.35  N 
ATOM     40  C   PRO B   4       0.179   4.836  -1.388  1.00 35.29 LIG 0.24  C 
ATOM     41 O    PRO B   4       0.516   5.940  -0.961  1.00 36.70 LIG-0.27  OA
ATOM     42 H    LYS B   5      -1.330   3.699  -1.832  1.00 39.73 LIG 0.16  HD
BRANCH 40 43
ATOM     43  CA  PRO B   4       1.211   3.798  -1.789  1.00 31.05 LIG 0.18  C 
ATOM     44  N   PRO B   4       2.072   3.441  -0.663  1.00 34.55 LIG-0.34  N 
ATOM     45  C   GLY B   3       3.090   4.229  -0.318  1.00 37.27 LIG 0.24  C 
ATOM     46  CD  PRO B   4       1.736   2.111  -0.123  1.00 31.08 LIG 0.13  C 
ATOM     47 O    GLY B   3       3.307   5.299  -0.895  1.00 44.84 LIG-0.27  OA
ATOM     48  CG  PRO B   4       0.450   1.764  -0.831  1.00 26.25 LIG 0.02  C 
ATOM     49  CB  PRO B   4       0.544   2.466  -2.145  1.00 27.99 LIG 0.04  C 
BRANCH 45 50
ATOM     50  CA  GLY B   3       3.961   3.769   0.829  1.00 35.98 LIG 0.23  C 
BRANCH 50 51
ATOM     51  N   GLY B   3       5.143   4.591   0.951  1.00 37.88 LIG-0.35  N 
ATOM     52  C   TYR B   2       5.186   5.663   1.736  1.00 38.85 LIG 0.26  C 
ATOM     53 O    TYR B   2       4.267   5.991   2.490  1.00 37.42 LIG-0.27  OA
ATOM     54 H    GLY B   3       5.806   4.324   0.473  1.00 37.88 LIG 0.16  HD
BRANCH 52 55
ATOM     55  CA  TYR B   2       6.471   6.483   1.676  1.00 47.59 LIG 0.40  C 
ATOM     56  N   TYR B   2       7.406   6.042   2.711  1.00 42.90 LIG 0.61  N 
BRANCH 55 57
ATOM     57  CB  TYR B   2       7.100   6.366   0.284  1.00 41.46 LIG 0.09  C 
BRANCH 57 58
ATOM     58  CG  TYR B   2       6.513   7.307  -0.765  1.00 40.04 LIG-0.06  A 
ATOM     59  CD1 TYR B   2       6.985   8.605  -0.896  1.00 39.56 LIG 0.01  A 
ATOM     60  CE1 TYR B   2       6.465   9.471  -1.849  1.00 39.46 LIG 0.04  A 
ATOM     61  CZ  TYR B   2       5.460   9.042  -2.689  1.00 36.77 LIG 0.07  A 
ATOM     62  CE2 TYR B   2       4.970   7.754  -2.580  1.00 30.56 LIG 0.04  A 
ATOM     63  CD2 TYR B   2       5.496   6.893  -1.622  1.00 33.12 LIG 0.01  A 
BRANCH 61 64
ATOM     64 OH   TYR B   2       4.959   9.923  -3.635  1.00 37.21 LIG-0.36  OA
ATOM     65 HH   TYR B   2       5.590  10.374  -3.960  1.00 37.21 LIG 0.22  HD
ENDBRANCH 61 64
ENDBRANCH 57 58
ENDBRANCH 55 57
ENDBRANCH 52 55
ENDBRANCH 50 51
ENDBRANCH 45 50
ENDBRANCH 40 43
ENDBRANCH 1 39
TORSDOF 22
ENDMDL
MODEL 45
USER: ADFR SOLUTION from run 105
USER: SCORE 17.736577 LL:  -3.716 LR: -14.995 RR:   0.000 FEB:  -8.432
USER: RMSD 11.175016
USER: SEED 104
USER: STATUS no improvement in best in 19 clusters for 5 generations
USER: GENES 24
USER: genes 0 Translation |==|  0.38356 0.63929 0.37709
USER: genes 1 Rotation |==|  0.41087 0.66389 0.13001 0.77984
USER: genes 2 Torsion [C]-CA--CB-[CG] |==|  0.50445
USER: genes 3 Torsion [CA]-CB--CG-[CD] |==|  0.80205
USER: genes 4 Torsion [CB]-CG--CD-[CE] |==|  0.57845
USER: genes 5 Torsion [CG]-CD--CE-[NZ] |==|  0.48864
USER: genes 6 Torsion [CD]-CE--NZ-[HZ3] |==|  0.17357
USER: genes 7 Torsion [N]-CA--C-[N] |==|  0.30855
USER: genes 8 Torsion [C]-N--CA-[C] |==|  0.73889
USER: genes 9 Torsion [N]-CA--C-[N] |==|  0.20607
USER: genes 10 Torsion [C]-N--CA-[C] |==|  0.82606
USER: genes 11 Torsion [N]-CA--C-[O] |==|  0.32970
USER: genes 12 Torsion [N]-CA--CB-[CG] |==|  0.51115
USER: genes 13 Torsion [CA]-CB--CG-[ND2] |==|  0.23928
USER: genes 14 Torsion [N]-CA--CB-[CG] |==|  0.85362
USER: genes 15 Torsion [CA]-CB--CG-[CD2] |==|  0.30343
USER: genes 16 Torsion [CB]-CA--N-[C] |==|  0.56676
USER: genes 17 Torsion [N]-C--CA-[CB] |==|  0.96396
USER: genes 18 Torsion [N]-C--CA-[N] |==|  0.56488
USER: genes 19 Torsion [C]-CA--N-[C] |==|  0.78864
USER: genes 20 Torsion [N]-C--CA-[N] |==|  0.93406
USER: genes 21 Torsion [C]-CA--CB-[CG] |==|  0.25395
USER: genes 22 Torsion [CA]-CB--CG-[CD1] |==|  0.27836
USER: genes 23 Torsion [CE1]-CZ--OH-[HH] |==|  0.67440
ROOT
ATOM      1  CA  LYS B   5      -7.043   7.540  -4.130  1.00 42.36 LIG 0.18  C 
ENDROOT
BRANCH 1 2
ATOM      2  CB  LYS B   5      -7.794   8.162  -5.318  1.00 43.80 LIG 0.04  C 
BRANCH 2 3
ATOM      3  CG  LYS B   5      -8.095   9.676  -5.184  1.00 49.23 LIG 0.00  C 
BRANCH 3 4
ATOM      4  CD  LYS B   5      -9.173   9.985  -4.139  1.00 48.54 LIG 0.03  C 
BRANCH 4 5
ATOM      5  CE  LYS B   5      -9.922  11.262  -4.481  1.00 43.92 LIG 0.23  C 
BRANCH 5 6
ATOM      6  NZ  LYS B   5     -11.018  11.475  -3.506  1.00 45.51 LIG-0.08  N 
ATOM      7 HZ3  LYS B   5     -10.675  11.580  -2.691  1.00 45.51 LIG 0.27  HD
ATOM      8 HZ1  LYS B   5     -11.477  12.204  -3.729  1.00 45.51 LIG 0.27  HD
ATOM      9 HZ2  LYS B   5     -11.561  10.770  -3.510  1.00 45.51 LIG 0.27  HD
ENDBRANCH 5 6
ENDBRANCH 4 5
ENDBRANCH 3 4
ENDBRANCH 2 3
ENDBRANCH 1 2
BRANCH 1 10
ATOM     10  C   LYS B   5      -6.775   6.060  -4.403  1.00 41.24 LIG 0.24  C 
ATOM     11  N   TRP B   6      -7.182   5.200  -3.469  1.00 42.23 LIG-0.35  N 
ATOM     12 H    TRP B   6      -7.539   5.428  -2.721  1.00 42.23 LIG 0.16  HD
ATOM     13 O    LYS B   5      -6.204   5.693  -5.434  1.00 40.50 LIG-0.27  OA
BRANCH 11 14
ATOM     14  CA  TRP B   6      -7.041   3.760  -3.666  1.00 42.54 LIG 0.18  C 
BRANCH 14 15
ATOM     15  C   TRP B   6      -8.336   3.200  -4.253  1.00 45.00 LIG 0.24  C 
ATOM     16 O    TRP B   6      -9.109   2.541  -3.545  1.00 46.85 LIG-0.27  OA
ATOM     17  N   ASN B   7      -8.568   3.468  -5.544  1.00 47.11 LIG-0.35  N 
ATOM     18 H    ASN B   7      -8.105   4.034  -5.997  1.00 47.11 LIG 0.16  HD
BRANCH 17 19
ATOM     19  CA  ASN B   7      -9.638   2.821  -6.323  1.00 45.24 LIG 0.17  C 
BRANCH 19 20
ATOM     20  C   ASN B   7      -9.385   1.318  -6.400  1.00 46.26 LIG 0.22  C 
ATOM     21 O    ASN B   7     -10.201   0.521  -5.927  1.00 44.70 LIG-0.29  OA
ENDBRANCH 19 20
BRANCH 19 22
ATOM     22  CB  ASN B   7      -9.743   3.383  -7.751  1.00 46.57 LIG 0.14  C 
BRANCH 22 23
ATOM     23  CG  ASN B   7     -10.908   2.796  -8.542  1.00 48.94 LIG 0.22  C 
ATOM     24  ND2 ASN B   7     -12.091   3.392  -8.393  1.00 48.79 LIG-0.37  N 
ATOM     25 21HD ASN B   7     -12.779   3.095  -8.815  1.00 48.79 LIG 0.16  HD
ATOM     26 22HD ASN B   7     -12.167   4.074  -7.875  1.00 48.79 LIG 0.16  HD
ATOM     27 OD1  ASN B   7     -10.749   1.820  -9.270  1.00 52.21 LIG-0.27  OA
ENDBRANCH 22 23
ENDBRANCH 19 22
ENDBRANCH 17 19
ENDBRANCH 14 15
BRANCH 14 28
ATOM     28  CB  TRP B   6      -6.692   3.030  -2.366  1.00 42.47 LIG 0.07  C 
BRANCH 28 29
ATOM     29  CG  TRP B   6      -5.477   3.652  -1.692  1.00 46.30 LIG-0.03  A 
ATOM     30  CD1 TRP B   6      -4.177   3.618  -2.141  1.00 49.14 LIG 0.10  A 
ATOM     31  NE1 TRP B   6      -3.357   4.315  -1.282  1.00 51.13 LIG-0.36  N 
ATOM     32 HE1  TRP B   6      -2.509   4.419  -1.375  1.00 51.13 LIG 0.17  HD
ATOM     33  CE2 TRP B   6      -4.113   4.816  -0.253  1.00 47.23 LIG 0.04  A 
ATOM     34  CZ2 TRP B   6      -3.732   5.582   0.855  1.00 46.28 LIG 0.03  A 
ATOM     35  CD2 TRP B   6      -5.454   4.424  -0.477  1.00 41.81 LIG-0.00  A 
ATOM     36  CH2 TRP B   6      -4.715   5.952   1.742  1.00 44.17 LIG 0.00  A 
ATOM     37  CZ3 TRP B   6      -6.047   5.574   1.553  1.00 33.54 LIG 0.00  A 
ATOM     38  CE3 TRP B   6      -6.430   4.810   0.445  1.00 38.27 LIG 0.01  A 
ENDBRANCH 28 29
ENDBRANCH 14 28
ENDBRANCH 11 14
ENDBRANCH 1 10
BRANCH 1 39
ATOM     39  N   LYS B   5      -5.790   8.249  -3.885  1.00 39.73 LIG-0.35  N 
ATOM     40  C   PRO B   4      -4.747   7.695  -3.270  1.00 35.29 LIG 0.24  C 
ATOM     41 O    PRO B   4      -4.755   6.542  -2.839  1.00 36.70 LIG-0.27  OA
ATOM     42 H    LYS B   5      -5.789   9.058  -4.175  1.00 39.73 LIG 0.16  HD
BRANCH 40 43
ATOM     43  CA  PRO B   4      -3.519   8.577  -3.135  1.00 31.05 LIG 0.18  C 
ATOM     44  N   PRO B   4      -2.326   7.912  -3.658  1.00 34.55 LIG-0.34  N 
ATOM     45  C   GLY B   3      -1.682   7.009  -2.920  1.00 37.27 LIG 0.24  C 
ATOM     46  CD  PRO B   4      -1.920   8.471  -4.961  1.00 31.08 LIG 0.13  C 
ATOM     47 O    GLY B   3      -2.092   6.668  -1.806  1.00 44.84 LIG-0.27  OA
ATOM     48  CG  PRO B   4      -3.078   9.365  -5.331  1.00 26.25 LIG 0.02  C 
ATOM     49  CB  PRO B   4      -3.633   9.821  -4.022  1.00 27.99 LIG 0.04  C 
BRANCH 45 50
ATOM     50  CA  GLY B   3      -0.431   6.399  -3.513  1.00 35.98 LIG 0.23  C 
BRANCH 50 51
ATOM     51  N   GLY B   3      -0.145   5.114  -2.919  1.00 37.88 LIG-0.35  N 
ATOM     52  C   TYR B   2       0.380   4.993  -1.703  1.00 38.85 LIG 0.26  C 
ATOM     53 O    TYR B   2       0.577   5.949  -0.949  1.00 37.42 LIG-0.27  OA
ATOM     54 H    GLY B   3      -0.343   4.444  -3.420  1.00 37.88 LIG 0.16  HD
BRANCH 52 55
ATOM     55  CA  TYR B   2       0.717   3.572  -1.260  1.00 47.59 LIG 0.40  C 
ATOM     56  N   TYR B   2      -0.092   2.603  -1.998  1.00 42.90 LIG 0.61  N 
BRANCH 55 57
ATOM     57  CB  TYR B   2       2.211   3.304  -1.460  1.00 41.46 LIG 0.09  C 
BRANCH 57 58
ATOM     58  CG  TYR B   2       3.086   3.620  -0.250  1.00 40.04 LIG-0.06  A 
ATOM     59  CD1 TYR B   2       3.520   2.609   0.596  1.00 39.56 LIG 0.01  A 
ATOM     60  CE1 TYR B   2       4.320   2.879   1.698  1.00 39.46 LIG 0.04  A 
ATOM     61  CZ  TYR B   2       4.700   4.176   1.966  1.00 36.77 LIG 0.07  A 
ATOM     62  CE2 TYR B   2       4.283   5.205   1.141  1.00 30.56 LIG 0.04  A 
ATOM     63  CD2 TYR B   2       3.481   4.925   0.040  1.00 33.12 LIG 0.01  A 
BRANCH 61 64
ATOM     64 OH   TYR B   2       5.503   4.422   3.069  1.00 37.21 LIG-0.36  OA
ATOM     65 HH   TYR B   2       5.090   4.911   3.614  1.00 37.21 LIG 0.22  HD
ENDBRANCH 61 64
ENDBRANCH 57 58
ENDBRANCH 55 57
ENDBRANCH 52 55
ENDBRANCH 50 51
ENDBRANCH 45 50
ENDBRANCH 40 43
ENDBRANCH 1 39
TORSDOF 22
ENDMDL
MODEL 46
USER: ADFR SOLUTION from run 43
USER: SCORE 17.152649 LL:  -3.651 LR: -14.984 RR:   0.000 FEB:  -8.422
USER: RMSD 4.376159
USER: SEED 42
USER: STATUS no improvement in best in 12 clusters for 5 generations
USER: GENES 24
USER: genes 0 Translation |==|  0.50887 0.49299 0.48834
USER: genes 1 Rotation |==|  0.70193 0.46709 0.33522 0.92543
USER: genes 2 Torsion [C]-CA--CB-[CG] |==|  0.58433
USER: genes 3 Torsion [CA]-CB--CG-[CD] |==|  0.52810
USER: genes 4 Torsion [CB]-CG--CD-[CE] |==|  0.77952
USER: genes 5 Torsion [CG]-CD--CE-[NZ] |==|  0.60970
USER: genes 6 Torsion [CD]-CE--NZ-[HZ3] |==|  0.63471
USER: genes 7 Torsion [N]-CA--C-[N] |==|  0.67107
USER: genes 8 Torsion [C]-N--CA-[C] |==|  0.60825
USER: genes 9 Torsion [N]-CA--C-[N] |==|  0.45276
USER: genes 10 Torsion [C]-N--CA-[C] |==|  0.77376
USER: genes 11 Torsion [N]-CA--C-[O] |==|  0.97606
USER: genes 12 Torsion [N]-CA--CB-[CG] |==|  0.55088
USER: genes 13 Torsion [CA]-CB--CG-[ND2] |==|  0.41737
USER: genes 14 Torsion [N]-CA--CB-[CG] |==|  0.07860
USER: genes 15 Torsion [CA]-CB--CG-[CD2] |==|  0.24862
USER: genes 16 Torsion [CB]-CA--N-[C] |==|  0.77778
USER: genes 17 Torsion [N]-C--CA-[CB] |==|  0.48438
USER: genes 18 Torsion [N]-C--CA-[N] |==|  0.48317
USER: genes 19 Torsion [C]-CA--N-[C] |==|  0.42116
USER: genes 20 Torsion [N]-C--CA-[N] |==|  0.25208
USER: genes 21 Torsion [C]-CA--CB-[CG] |==|  0.23660
USER: genes 22 Torsion [CA]-CB--CG-[CD1] |==|  0.44473
USER: genes 23 Torsion [CE1]-CZ--OH-[HH] |==|  0.43465
ROOT
ATOM      1  CA  LYS B   5      -3.284   4.687  -2.211  1.00 42.36 LIG 0.18  C 
ENDROOT
BRANCH 1 2
ATOM      2  CB  LYS B   5      -2.802   5.884  -3.047  1.00 43.80 LIG 0.04  C 
BRANCH 2 3
ATOM      3  CG  LYS B   5      -3.725   7.127  -3.005  1.00 49.23 LIG 0.00  C 
BRANCH 3 4
ATOM      4  CD  LYS B   5      -3.342   8.195  -4.034  1.00 48.54 LIG 0.03  C 
BRANCH 4 5
ATOM      5  CE  LYS B   5      -2.163   9.025  -3.556  1.00 43.92 LIG 0.23  C 
BRANCH 5 6
ATOM      6  NZ  LYS B   5      -2.370  10.447  -3.922  1.00 45.51 LIG-0.08  N 
ATOM      7 HZ3  LYS B   5      -1.634  10.765  -4.308  1.00 45.51 LIG 0.27  HD
ATOM      8 HZ1  LYS B   5      -3.053  10.512  -4.488  1.00 45.51 LIG 0.27  HD
ATOM      9 HZ2  LYS B   5      -2.548  10.920  -3.189  1.00 45.51 LIG 0.27  HD
ENDBRANCH 5 6
ENDBRANCH 4 5
ENDBRANCH 3 4
ENDBRANCH 2 3
ENDBRANCH 1 2
BRANCH 1 10
ATOM     10  C   LYS B   5      -2.082   3.888  -1.708  1.00 41.24 LIG 0.24  C 
ATOM     11  N   TRP B   6      -0.877   4.384  -1.992  1.00 42.23 LIG-0.35  N 
ATOM     12 H    TRP B   6      -0.741   5.087  -2.468  1.00 42.23 LIG 0.16  HD
ATOM     13 O    LYS B   5      -2.231   2.837  -1.079  1.00 40.50 LIG-0.27  OA
BRANCH 11 14
ATOM     14  CA  TRP B   6       0.334   3.738  -1.494  1.00 42.54 LIG 0.18  C 
BRANCH 14 15
ATOM     15  C   TRP B   6       1.344   4.806  -1.080  1.00 45.00 LIG 0.24  C 
ATOM     16 O    TRP B   6       1.214   5.975  -1.470  1.00 46.85 LIG-0.27  OA
ATOM     17  N   ASN B   7       2.346   4.402  -0.288  1.00 47.11 LIG-0.35  N 
ATOM     18 H    ASN B   7       2.363   3.631   0.091  1.00 47.11 LIG 0.16  HD
BRANCH 17 19
ATOM     19  CA  ASN B   7       3.521   5.236   0.015  1.00 45.24 LIG 0.17  C 
BRANCH 19 20
ATOM     20  C   ASN B   7       4.529   5.145  -1.129  1.00 46.26 LIG 0.22  C 
ATOM     21 O    ASN B   7       4.369   4.328  -2.040  1.00 44.70 LIG-0.29  OA
ENDBRANCH 19 20
BRANCH 19 22
ATOM     22  CB  ASN B   7       4.214   4.817   1.323  1.00 46.57 LIG 0.14  C 
BRANCH 22 23
ATOM     23  CG  ASN B   7       5.131   5.898   1.889  1.00 48.94 LIG 0.22  C 
ATOM     24  ND2 ASN B   7       5.278   5.922   3.214  1.00 48.79 LIG-0.37  N 
ATOM     25 21HD ASN B   7       5.781   6.515   3.580  1.00 48.79 LIG 0.16  HD
ATOM     26 22HD ASN B   7       4.869   5.344   3.702  1.00 48.79 LIG 0.16  HD
ATOM     27 OD1  ASN B   7       5.693   6.700   1.149  1.00 52.21 LIG-0.27  OA
ENDBRANCH 22 23
ENDBRANCH 19 22
ENDBRANCH 17 19
ENDBRANCH 14 15
BRANCH 14 28
ATOM     28  CB  TRP B   6       0.956   2.797  -2.530  1.00 42.47 LIG 0.07  C 
BRANCH 28 29
ATOM     29  CG  TRP B   6       0.638   3.250  -3.949  1.00 46.30 LIG-0.03  A 
ATOM     30  CD1 TRP B   6      -0.461   2.900  -4.699  1.00 49.14 LIG 0.10  A 
ATOM     31  NE1 TRP B   6      -0.422   3.528  -5.924  1.00 51.13 LIG-0.36  N 
ATOM     32 HE1  TRP B   6      -1.011   3.449  -6.545  1.00 51.13 LIG 0.17  HD
ATOM     33  CE2 TRP B   6       0.711   4.300  -5.992  1.00 47.23 LIG 0.04  A 
ATOM     34  CZ2 TRP B   6       1.184   5.114  -7.029  1.00 46.28 LIG 0.03  A 
ATOM     35  CD2 TRP B   6       1.402   4.155  -4.767  1.00 41.81 LIG-0.00  A 
ATOM     36  CH2 TRP B   6       2.366   5.784  -6.821  1.00 44.17 LIG 0.00  A 
ATOM     37  CZ3 TRP B   6       3.077   5.656  -5.625  1.00 33.54 LIG 0.00  A 
ATOM     38  CE3 TRP B   6       2.604   4.844  -4.588  1.00 38.27 LIG 0.01  A 
ENDBRANCH 28 29
ENDBRANCH 14 28
ENDBRANCH 11 14
ENDBRANCH 1 10
BRANCH 1 39
ATOM     39  N   LYS B   5      -4.102   5.139  -1.089  1.00 39.73 LIG-0.35  N 
ATOM     40  C   PRO B   4      -3.588   5.624   0.040  1.00 35.29 LIG 0.24  C 
ATOM     41 O    PRO B   4      -2.377   5.716   0.243  1.00 36.70 LIG-0.27  OA
ATOM     42 H    LYS B   5      -4.948   5.064  -1.226  1.00 39.73 LIG 0.16  HD
BRANCH 40 43
ATOM     43  CA  PRO B   4      -4.596   6.074   1.081  1.00 31.05 LIG 0.18  C 
ATOM     44  N   PRO B   4      -5.456   4.969   1.503  1.00 34.55 LIG-0.34  N 
ATOM     45  C   GLY B   3      -6.493   4.600   0.750  1.00 37.27 LIG 0.24  C 
ATOM     46  CD  PRO B   4      -5.096   4.482   2.847  1.00 31.08 LIG 0.13  C 
ATOM     47 O    GLY B   3      -6.728   5.134  -0.338  1.00 44.84 LIG-0.27  OA
ATOM     48  CG  PRO B   4      -3.799   5.195   3.137  1.00 26.25 LIG 0.02  C 
ATOM     49  CB  PRO B   4      -3.900   6.480   2.384  1.00 27.99 LIG 0.04  C 
BRANCH 45 50
ATOM     50  CA  GLY B   3      -7.361   3.478   1.275  1.00 35.98 LIG 0.23  C 
BRANCH 50 51
ATOM     51  N   GLY B   3      -8.519   3.277   0.435  1.00 37.88 LIG-0.35  N 
ATOM     52  C   TYR B   2      -9.117   2.095   0.318  1.00 38.85 LIG 0.26  C 
ATOM     53 O    TYR B   2      -8.797   1.103   0.978  1.00 37.42 LIG-0.27  OA
ATOM     54 H    GLY B   3      -8.781   3.985   0.024  1.00 37.88 LIG 0.16  HD
BRANCH 52 55
ATOM     55  CA  TYR B   2     -10.263   2.023  -0.685  1.00 47.59 LIG 0.40  C 
ATOM     56  N   TYR B   2      -9.764   1.633  -2.003  1.00 42.90 LIG 0.61  N 
BRANCH 55 57
ATOM     57  CB  TYR B   2     -11.329   1.042  -0.191  1.00 41.46 LIG 0.09  C 
BRANCH 57 58
ATOM     58  CG  TYR B   2     -12.353   1.640   0.771  1.00 40.04 LIG-0.06  A 
ATOM     59  CD1 TYR B   2     -13.579   1.022   0.977  1.00 39.56 LIG 0.01  A 
ATOM     60  CE1 TYR B   2     -14.518   1.550   1.853  1.00 39.46 LIG 0.04  A 
ATOM     61  CZ  TYR B   2     -14.237   2.712   2.539  1.00 36.77 LIG 0.07  A 
ATOM     62  CE2 TYR B   2     -13.024   3.349   2.354  1.00 30.56 LIG 0.04  A 
ATOM     63  CD2 TYR B   2     -12.089   2.813   1.474  1.00 33.12 LIG 0.01  A 
BRANCH 61 64
ATOM     64 OH   TYR B   2     -15.188   3.218   3.411  1.00 37.21 LIG-0.36  OA
ATOM     65 HH   TYR B   2     -14.813   3.704   3.985  1.00 37.21 LIG 0.22  HD
ENDBRANCH 61 64
ENDBRANCH 57 58
ENDBRANCH 55 57
ENDBRANCH 52 55
ENDBRANCH 50 51
ENDBRANCH 45 50
ENDBRANCH 40 43
ENDBRANCH 1 39
TORSDOF 22
ENDMDL
MODEL 47
USER: ADFR SOLUTION from run 15
USER: SCORE 17.884712 LL:  -4.352 LR: -14.980 RR:   0.000 FEB:  -8.417
USER: RMSD 8.606675
USER: SEED 339444
USER: STATUS no improvement in best in 10 clusters for 5 generations
USER: GENES 24
USER: genes 0 Translation |==|  0.40771 0.49858 0.55858
USER: genes 1 Rotation |==|  0.14264 0.34161 0.80365 0.57076
USER: genes 2 Torsion [C]-CA--CB-[CG] |==|  0.26338
USER: genes 3 Torsion [CA]-CB--CG-[CD] |==|  0.23395
USER: genes 4 Torsion [CB]-CG--CD-[CE] |==|  0.14063
USER: genes 5 Torsion [CG]-CD--CE-[NZ] |==|  0.67411
USER: genes 6 Torsion [CD]-CE--NZ-[HZ3] |==|  0.47304
USER: genes 7 Torsion [N]-CA--C-[N] |==|  0.46418
USER: genes 8 Torsion [C]-N--CA-[C] |==|  0.55051
USER: genes 9 Torsion [N]-CA--C-[N] |==|  0.37786
USER: genes 10 Torsion [C]-N--CA-[C] |==|  0.62928
USER: genes 11 Torsion [N]-CA--C-[O] |==|  0.34462
USER: genes 12 Torsion [N]-CA--CB-[CG] |==|  0.82703
USER: genes 13 Torsion [CA]-CB--CG-[ND2] |==|  0.80239
USER: genes 14 Torsion [N]-CA--CB-[CG] |==|  0.39672
USER: genes 15 Torsion [CA]-CB--CG-[CD2] |==|  0.70853
USER: genes 16 Torsion [CB]-CA--N-[C] |==|  0.22013
USER: genes 17 Torsion [N]-C--CA-[CB] |==|  0.21118
USER: genes 18 Torsion [N]-C--CA-[N] |==|  0.36477
USER: genes 19 Torsion [C]-CA--N-[C] |==|  0.83775
USER: genes 20 Torsion [N]-C--CA-[N] |==|  0.56957
USER: genes 21 Torsion [C]-CA--CB-[CG] |==|  0.82251
USER: genes 22 Torsion [CA]-CB--CG-[CD1] |==|  0.80229
USER: genes 23 Torsion [CE1]-CZ--OH-[HH] |==|  0.24053
ROOT
ATOM      1  CA  LYS B   5      -6.319   4.796  -1.000  1.00 42.36 LIG 0.18  C 
ENDROOT
BRANCH 1 2
ATOM      2  CB  LYS B   5      -4.838   4.789  -0.589  1.00 43.80 LIG 0.04  C 
BRANCH 2 3
ATOM      3  CG  LYS B   5      -4.309   6.129  -0.020  1.00 49.23 LIG 0.00  C 
BRANCH 3 4
ATOM      4  CD  LYS B   5      -4.592   6.301   1.476  1.00 48.54 LIG 0.03  C 
BRANCH 4 5
ATOM      5  CE  LYS B   5      -4.143   5.084   2.267  1.00 43.92 LIG 0.23  C 
BRANCH 5 6
ATOM      6  NZ  LYS B   5      -5.315   4.449   2.916  1.00 45.51 LIG-0.08  N 
ATOM      7 HZ3  LYS B   5      -5.075   3.663   3.260  1.00 45.51 LIG 0.27  HD
ATOM      8 HZ1  LYS B   5      -5.617   4.977   3.566  1.00 45.51 LIG 0.27  HD
ATOM      9 HZ2  LYS B   5      -5.958   4.325   2.313  1.00 45.51 LIG 0.27  HD
ENDBRANCH 5 6
ENDBRANCH 4 5
ENDBRANCH 3 4
ENDBRANCH 2 3
ENDBRANCH 1 2
BRANCH 1 10
ATOM     10  C   LYS B   5      -6.442   5.098  -2.493  1.00 41.24 LIG 0.24  C 
ATOM     11  N   TRP B   6      -6.152   6.344  -2.874  1.00 42.23 LIG-0.35  N 
ATOM     12 H    TRP B   6      -5.947   6.981  -2.334  1.00 42.23 LIG 0.16  HD
ATOM     13 O    LYS B   5      -6.798   4.230  -3.294  1.00 40.50 LIG-0.27  OA
BRANCH 11 14
ATOM     14  CA  TRP B   6      -6.166   6.716  -4.286  1.00 42.54 LIG 0.18  C 
BRANCH 14 15
ATOM     15  C   TRP B   6      -5.382   8.014  -4.474  1.00 45.00 LIG 0.24  C 
ATOM     16 O    TRP B   6      -5.535   8.956  -3.686  1.00 46.85 LIG-0.27  OA
ATOM     17  N   ASN B   7      -4.544   8.055  -5.518  1.00 47.11 LIG-0.35  N 
ATOM     18 H    ASN B   7      -4.337   7.362  -5.982  1.00 47.11 LIG 0.16  HD
BRANCH 17 19
ATOM     19  CA  ASN B   7      -3.891   9.292  -5.979  1.00 45.24 LIG 0.17  C 
BRANCH 19 20
ATOM     20  C   ASN B   7      -4.013   9.406  -7.497  1.00 46.26 LIG 0.22  C 
ATOM     21 O    ASN B   7      -4.525  10.406  -8.010  1.00 44.70 LIG-0.29  OA
ENDBRANCH 19 20
BRANCH 19 22
ATOM     22  CB  ASN B   7      -2.403   9.346  -5.593  1.00 46.57 LIG 0.14  C 
BRANCH 22 23
ATOM     23  CG  ASN B   7      -2.174   9.340  -4.085  1.00 48.94 LIG 0.22  C 
ATOM     24  ND2 ASN B   7      -2.509  10.449  -3.426  1.00 48.79 LIG-0.37  N 
ATOM     25 21HD ASN B   7      -2.394  10.495  -2.575  1.00 48.79 LIG 0.16  HD
ATOM     26 22HD ASN B   7      -2.839  11.119  -3.852  1.00 48.79 LIG 0.16  HD
ATOM     27 OD1  ASN B   7      -1.699   8.357  -3.522  1.00 52.21 LIG-0.27  OA
ENDBRANCH 22 23
ENDBRANCH 19 22
ENDBRANCH 17 19
ENDBRANCH 14 15
BRANCH 14 28
ATOM     28  CB  TRP B   6      -7.590   6.875  -4.827  1.00 42.47 LIG 0.07  C 
BRANCH 28 29
ATOM     29  CG  TRP B   6      -7.678   8.024  -5.821  1.00 46.30 LIG-0.03  A 
ATOM     30  CD1 TRP B   6      -7.253   8.017  -7.129  1.00 49.14 LIG 0.10  A 
ATOM     31  NE1 TRP B   6      -7.527   9.228  -7.726  1.00 51.13 LIG-0.36  N 
ATOM     32 HE1  TRP B   6      -7.344   9.436  -8.540  1.00 51.13 LIG 0.17  HD
ATOM     33  CE2 TRP B   6      -8.136  10.048  -6.811  1.00 47.23 LIG 0.04  A 
ATOM     34  CZ2 TRP B   6      -8.595  11.364  -6.946  1.00 46.28 LIG 0.03  A 
ATOM     35  CD2 TRP B   6      -8.254   9.325  -5.601  1.00 41.81 LIG-0.00  A 
ATOM     36  CH2 TRP B   6      -9.175  11.951  -5.847  1.00 44.17 LIG 0.00  A 
ATOM     37  CZ3 TRP B   6      -9.299  11.267  -4.635  1.00 33.54 LIG 0.00  A 
ATOM     38  CE3 TRP B   6      -8.843   9.951  -4.499  1.00 38.27 LIG 0.01  A 
ENDBRANCH 28 29
ENDBRANCH 14 28
ENDBRANCH 11 14
ENDBRANCH 1 10
BRANCH 1 39
ATOM     39  N   LYS B   5      -6.947   3.516  -0.684  1.00 39.73 LIG-0.35  N 
ATOM     40  C   PRO B   4      -7.353   3.184   0.540  1.00 35.29 LIG 0.24  C 
ATOM     41 O    PRO B   4      -7.218   3.922   1.516  1.00 36.70 LIG-0.27  OA
ATOM     42 H    LYS B   5      -7.030   2.996  -1.364  1.00 39.73 LIG 0.16  HD
BRANCH 40 43
ATOM     43  CA  PRO B   4      -8.014   1.824   0.667  1.00 31.05 LIG 0.18  C 
ATOM     44  N   PRO B   4      -8.853   1.529  -0.493  1.00 34.55 LIG-0.34  N 
ATOM     45  C   GLY B   3     -10.079   2.046  -0.585  1.00 37.27 LIG 0.24  C 
ATOM     46  CD  PRO B   4      -8.221   0.539  -1.384  1.00 31.08 LIG 0.13  C 
ATOM     47 O    GLY B   3     -10.522   2.822   0.268  1.00 44.84 LIG-0.27  OA
ATOM     48  CG  PRO B   4      -6.824   0.415  -0.829  1.00 26.25 LIG 0.02  C 
ATOM     49  CB  PRO B   4      -6.973   0.700   0.629  1.00 27.99 LIG 0.04  C 
BRANCH 45 50
ATOM     50  CA  GLY B   3     -10.902   1.659  -1.793  1.00 35.98 LIG 0.23  C 
BRANCH 50 51
ATOM     51  N   GLY B   3     -12.229   1.237  -1.407  1.00 37.88 LIG-0.35  N 
ATOM     52  C   TYR B   2     -12.439   0.222  -0.574  1.00 38.85 LIG 0.26  C 
ATOM     53 O    TYR B   2     -11.533  -0.379   0.008  1.00 37.42 LIG-0.27  OA
ATOM     54 H    GLY B   3     -12.861   1.699  -1.763  1.00 37.88 LIG 0.16  HD
BRANCH 52 55
ATOM     55  CA  TYR B   2     -13.898  -0.163  -0.346  1.00 47.59 LIG 0.40  C 
ATOM     56  N   TYR B   2     -14.055  -0.822   0.950  1.00 42.90 LIG 0.61  N 
BRANCH 55 57
ATOM     57  CB  TYR B   2     -14.787   1.080  -0.441  1.00 41.46 LIG 0.09  C 
BRANCH 57 58
ATOM     58  CG  TYR B   2     -14.527   2.136   0.631  1.00 40.04 LIG-0.06  A 
ATOM     59  CD1 TYR B   2     -14.892   1.911   1.951  1.00 39.56 LIG 0.01  A 
ATOM     60  CE1 TYR B   2     -14.659   2.859   2.938  1.00 39.46 LIG 0.04  A 
ATOM     61  CZ  TYR B   2     -14.050   4.051   2.612  1.00 36.77 LIG 0.07  A 
ATOM     62  CE2 TYR B   2     -13.675   4.303   1.305  1.00 30.56 LIG 0.04  A 
ATOM     63  CD2 TYR B   2     -13.914   3.348   0.322  1.00 33.12 LIG 0.01  A 
BRANCH 61 64
ATOM     64 OH   TYR B   2     -13.823   4.981   3.615  1.00 37.21 LIG-0.36  OA
ATOM     65 HH   TYR B   2     -13.088   4.817   3.989  1.00 37.21 LIG 0.22  HD
ENDBRANCH 61 64
ENDBRANCH 57 58
ENDBRANCH 55 57
ENDBRANCH 52 55
ENDBRANCH 50 51
ENDBRANCH 45 50
ENDBRANCH 40 43
ENDBRANCH 1 39
TORSDOF 22
ENDMDL
MODEL 48
USER: ADFR SOLUTION from run 43
USER: SCORE 17.655797 LL:  -3.432 LR: -14.947 RR:   0.000 FEB:  -8.384
USER: RMSD 7.552297
USER: SEED 42
USER: STATUS no improvement in best in 12 clusters for 5 generations
USER: GENES 24
USER: genes 0 Translation |==|  0.52906 0.47892 0.48793
USER: genes 1 Rotation |==|  0.78767 0.34271 0.25024 0.78307
USER: genes 2 Torsion [C]-CA--CB-[CG] |==|  0.55931
USER: genes 3 Torsion [CA]-CB--CG-[CD] |==|  0.83163
USER: genes 4 Torsion [CB]-CG--CD-[CE] |==|  0.64183
USER: genes 5 Torsion [CG]-CD--CE-[NZ] |==|  0.67497
USER: genes 6 Torsion [CD]-CE--NZ-[HZ3] |==|  0.26524
USER: genes 7 Torsion [N]-CA--C-[N] |==|  0.21667
USER: genes 8 Torsion [C]-N--CA-[C] |==|  0.83101
USER: genes 9 Torsion [N]-CA--C-[N] |==|  0.38299
USER: genes 10 Torsion [C]-N--CA-[C] |==|  0.62708
USER: genes 11 Torsion [N]-CA--C-[O] |==|  0.93938
USER: genes 12 Torsion [N]-CA--CB-[CG] |==|  0.26448
USER: genes 13 Torsion [CA]-CB--CG-[ND2] |==|  0.76634
USER: genes 14 Torsion [N]-CA--CB-[CG] |==|  0.57958
USER: genes 15 Torsion [CA]-CB--CG-[CD2] |==|  0.26915
USER: genes 16 Torsion [CB]-CA--N-[C] |==|  0.79996
USER: genes 17 Torsion [N]-C--CA-[CB] |==|  0.60372
USER: genes 18 Torsion [N]-C--CA-[N] |==|  0.48141
USER: genes 19 Torsion [C]-CA--N-[C] |==|  0.39161
USER: genes 20 Torsion [N]-C--CA-[N] |==|  0.24740
USER: genes 21 Torsion [C]-CA--CB-[CG] |==|  0.21492
USER: genes 22 Torsion [CA]-CB--CG-[CD1] |==|  0.46016
USER: genes 23 Torsion [CE1]-CZ--OH-[HH] |==|  0.44325
ROOT
ATOM      1  CA  LYS B   5      -2.678   4.413  -2.218  1.00 42.36 LIG 0.18  C 
ENDROOT
BRANCH 1 2
ATOM      2  CB  LYS B   5      -1.308   5.108  -2.205  1.00 43.80 LIG 0.04  C 
BRANCH 2 3
ATOM      3  CG  LYS B   5      -1.355   6.646  -2.030  1.00 49.23 LIG 0.00  C 
BRANCH 3 4
ATOM      4  CD  LYS B   5      -2.121   7.357  -3.150  1.00 48.54 LIG 0.03  C 
BRANCH 4 5
ATOM      5  CE  LYS B   5      -1.304   8.491  -3.744  1.00 43.92 LIG 0.23  C 
BRANCH 5 6
ATOM      6  NZ  LYS B   5      -1.994   9.782  -3.509  1.00 45.51 LIG-0.08  N 
ATOM      7 HZ3  LYS B   5      -1.667  10.166  -2.776  1.00 45.51 LIG 0.27  HD
ATOM      8 HZ1  LYS B   5      -1.866  10.319  -4.207  1.00 45.51 LIG 0.27  HD
ATOM      9 HZ2  LYS B   5      -2.866   9.638  -3.404  1.00 45.51 LIG 0.27  HD
ENDBRANCH 5 6
ENDBRANCH 4 5
ENDBRANCH 3 4
ENDBRANCH 2 3
ENDBRANCH 1 2
BRANCH 1 10
ATOM     10  C   LYS B   5      -2.514   2.934  -1.865  1.00 41.24 LIG 0.24  C 
ATOM     11  N   TRP B   6      -3.505   2.122  -2.233  1.00 42.23 LIG-0.35  N 
ATOM     12 H    TRP B   6      -4.233   2.382  -2.610  1.00 42.23 LIG 0.16  HD
ATOM     13 O    LYS B   5      -1.516   2.528  -1.264  1.00 40.50 LIG-0.27  OA
BRANCH 11 14
ATOM     14  CA  TRP B   6      -3.413   0.681  -2.010  1.00 42.54 LIG 0.18  C 
BRANCH 14 15
ATOM     15  C   TRP B   6      -2.211   0.127  -2.773  1.00 45.00 LIG 0.24  C 
ATOM     16 O    TRP B   6      -1.969   0.515  -3.925  1.00 46.85 LIG-0.27  OA
ATOM     17  N   ASN B   7      -1.462  -0.776  -2.128  1.00 47.11 LIG-0.35  N 
ATOM     18 H    ASN B   7      -1.548  -0.944  -1.289  1.00 47.11 LIG 0.16  HD
BRANCH 17 19
ATOM     19  CA  ASN B   7      -0.415  -1.575  -2.788  1.00 45.24 LIG 0.17  C 
BRANCH 19 20
ATOM     20  C   ASN B   7      -0.537  -3.037  -2.364  1.00 46.26 LIG 0.22  C 
ATOM     21 O    ASN B   7      -1.118  -3.339  -1.318  1.00 44.70 LIG-0.29  OA
ENDBRANCH 19 20
BRANCH 19 22
ATOM     22  CB  ASN B   7       1.000  -1.075  -2.452  1.00 46.57 LIG 0.14  C 
BRANCH 22 23
ATOM     23  CG  ASN B   7       1.643  -1.829  -1.291  1.00 48.94 LIG 0.22  C 
ATOM     24  ND2 ASN B   7       1.336  -1.408  -0.064  1.00 48.79 LIG-0.37  N 
ATOM     25 21HD ASN B   7       1.676  -1.799   0.622  1.00 48.79 LIG 0.16  HD
ATOM     26 22HD ASN B   7       0.797  -0.746   0.041  1.00 48.79 LIG 0.16  HD
ATOM     27 OD1  ASN B   7       2.406  -2.769  -1.494  1.00 52.21 LIG-0.27  OA
ENDBRANCH 22 23
ENDBRANCH 19 22
ENDBRANCH 17 19
ENDBRANCH 14 15
BRANCH 14 28
ATOM     28  CB  TRP B   6      -4.690  -0.052  -2.431  1.00 42.47 LIG 0.07  C 
BRANCH 28 29
ATOM     29  CG  TRP B   6      -4.897  -1.319  -1.613  1.00 46.30 LIG-0.03  A 
ATOM     30  CD1 TRP B   6      -4.301  -2.540  -1.821  1.00 49.14 LIG 0.10  A 
ATOM     31  NE1 TRP B   6      -4.709  -3.440  -0.861  1.00 51.13 LIG-0.36  N 
ATOM     32 HE1  TRP B   6      -4.456  -4.259  -0.805  1.00 51.13 LIG 0.17  HD
ATOM     33  CE2 TRP B   6      -5.583  -2.815  -0.009  1.00 47.23 LIG 0.04  A 
ATOM     34  CZ2 TRP B   6      -6.261  -3.314   1.110  1.00 46.28 LIG 0.03  A 
ATOM     35  CD2 TRP B   6      -5.724  -1.477  -0.446  1.00 41.81 LIG-0.00  A 
ATOM     36  CH2 TRP B   6      -7.088  -2.451   1.790  1.00 44.17 LIG 0.00  A 
ATOM     37  CZ3 TRP B   6      -7.255  -1.126   1.379  1.00 33.54 LIG 0.00  A 
ATOM     38  CE3 TRP B   6      -6.576  -0.626   0.262  1.00 38.27 LIG 0.01  A 
ENDBRANCH 28 29
ENDBRANCH 14 28
ENDBRANCH 11 14
ENDBRANCH 1 10
BRANCH 1 39
ATOM     39  N   LYS B   5      -3.595   5.062  -1.284  1.00 39.73 LIG-0.35  N 
ATOM     40  C   PRO B   4      -3.482   4.958   0.039  1.00 35.29 LIG 0.24  C 
ATOM     41 O    PRO B   4      -2.606   4.291   0.589  1.00 36.70 LIG-0.27  OA
ATOM     42 H    LYS B   5      -4.214   5.518  -1.669  1.00 39.73 LIG 0.16  HD
BRANCH 40 43
ATOM     43  CA  PRO B   4      -4.508   5.731   0.848  1.00 31.05 LIG 0.18  C 
ATOM     44  N   PRO B   4      -5.541   4.845   1.383  1.00 34.55 LIG-0.34  N 
ATOM     45  C   GLY B   3      -6.548   4.442   0.609  1.00 37.27 LIG 0.24  C 
ATOM     46  CD  PRO B   4      -5.366   4.618   2.830  1.00 31.08 LIG 0.13  C 
ATOM     47 O    GLY B   3      -6.615   4.755  -0.584  1.00 44.84 LIG-0.27  OA
ATOM     48  CG  PRO B   4      -4.016   5.226   3.115  1.00 26.25 LIG 0.02  C 
ATOM     49  CB  PRO B   4      -3.879   6.324   2.113  1.00 27.99 LIG 0.04  C 
BRANCH 45 50
ATOM     50  CA  GLY B   3      -7.600   3.563   1.247  1.00 35.98 LIG 0.23  C 
BRANCH 50 51
ATOM     51  N   GLY B   3      -8.705   3.331   0.345  1.00 37.88 LIG-0.35  N 
ATOM     52  C   TYR B   2      -9.315   2.153   0.255  1.00 38.85 LIG 0.26  C 
ATOM     53 O    TYR B   2      -9.057   1.196   0.990  1.00 37.42 LIG-0.27  OA
ATOM     54 H    GLY B   3      -8.926   4.019  -0.121  1.00 37.88 LIG 0.16  HD
BRANCH 52 55
ATOM     55  CA  TYR B   2     -10.395   2.041  -0.816  1.00 47.59 LIG 0.40  C 
ATOM     56  N   TYR B   2      -9.811   1.607  -2.085  1.00 42.90 LIG 0.61  N 
BRANCH 55 57
ATOM     57  CB  TYR B   2     -11.488   1.073  -0.356  1.00 41.46 LIG 0.09  C 
BRANCH 57 58
ATOM     58  CG  TYR B   2     -12.466   1.650   0.664  1.00 40.04 LIG-0.06  A 
ATOM     59  CD1 TYR B   2     -13.662   1.004   0.945  1.00 39.56 LIG 0.01  A 
ATOM     60  CE1 TYR B   2     -14.560   1.512   1.874  1.00 39.46 LIG 0.04  A 
ATOM     61  CZ  TYR B   2     -14.266   2.683   2.540  1.00 36.77 LIG 0.07  A 
ATOM     62  CE2 TYR B   2     -13.082   3.348   2.281  1.00 30.56 LIG 0.04  A 
ATOM     63  CD2 TYR B   2     -12.188   2.832   1.348  1.00 33.12 LIG 0.01  A 
BRANCH 61 64
ATOM     64 OH   TYR B   2     -15.175   3.169   3.466  1.00 37.21 LIG-0.36  OA
ATOM     65 HH   TYR B   2     -14.786   3.699   3.990  1.00 37.21 LIG 0.22  HD
ENDBRANCH 61 64
ENDBRANCH 57 58
ENDBRANCH 55 57
ENDBRANCH 52 55
ENDBRANCH 50 51
ENDBRANCH 45 50
ENDBRANCH 40 43
ENDBRANCH 1 39
TORSDOF 22
ENDMDL
MODEL 49
USER: ADFR SOLUTION from run 62
USER: SCORE 17.181766 LL:  -3.636 LR: -14.944 RR:   0.000 FEB:  -8.382
USER: RMSD 12.649398
USER: SEED 61
USER: STATUS no improvement in best in 3 clusters for 5 generations
USER: GENES 24
USER: genes 0 Translation |==|  0.40881 0.47762 0.48750
USER: genes 1 Rotation |==|  0.48144 0.45750 0.03316 0.67296
USER: genes 2 Torsion [C]-CA--CB-[CG] |==|  0.32713
USER: genes 3 Torsion [CA]-CB--CG-[CD] |==|  0.98764
USER: genes 4 Torsion [CB]-CG--CD-[CE] |==|  0.29315
USER: genes 5 Torsion [CG]-CD--CE-[NZ] |==|  0.42701
USER: genes 6 Torsion [CD]-CE--NZ-[HZ3] |==|  0.62781
USER: genes 7 Torsion [N]-CA--C-[N] |==|  0.27433
USER: genes 8 Torsion [C]-N--CA-[C] |==|  0.15393
USER: genes 9 Torsion [N]-CA--C-[N] |==|  0.63745
USER: genes 10 Torsion [C]-N--CA-[C] |==|  0.66340
USER: genes 11 Torsion [N]-CA--C-[O] |==|  0.09716
USER: genes 12 Torsion [N]-CA--CB-[CG] |==|  0.07648
USER: genes 13 Torsion [CA]-CB--CG-[ND2] |==|  0.76615
USER: genes 14 Torsion [N]-CA--CB-[CG] |==|  0.59528
USER: genes 15 Torsion [CA]-CB--CG-[CD2] |==|  0.13894
USER: genes 16 Torsion [CB]-CA--N-[C] |==|  0.79299
USER: genes 17 Torsion [N]-C--CA-[CB] |==|  0.02432
USER: genes 18 Torsion [N]-C--CA-[N] |==|  0.30563
USER: genes 19 Torsion [C]-CA--N-[C] |==|  0.78346
USER: genes 20 Torsion [N]-C--CA-[N] |==|  0.45832
USER: genes 21 Torsion [C]-CA--CB-[CG] |==|  0.19759
USER: genes 22 Torsion [CA]-CB--CG-[CD1] |==|  0.24220
USER: genes 23 Torsion [CE1]-CZ--OH-[HH] |==|  0.24309
ROOT
ATOM      1  CA  LYS B   5      -6.286   4.388  -2.226  1.00 42.36 LIG 0.18  C 
ENDROOT
BRANCH 1 2
ATOM      2  CB  LYS B   5      -6.007   4.124  -3.714  1.00 43.80 LIG 0.04  C 
BRANCH 2 3
ATOM      3  CG  LYS B   5      -6.787   5.031  -4.698  1.00 49.23 LIG 0.00  C 
BRANCH 3 4
ATOM      4  CD  LYS B   5      -7.783   5.962  -3.998  1.00 48.54 LIG 0.03  C 
BRANCH 4 5
ATOM      5  CE  LYS B   5      -7.276   7.393  -3.971  1.00 43.92 LIG 0.23  C 
BRANCH 5 6
ATOM      6  NZ  LYS B   5      -8.423   8.330  -3.898  1.00 45.51 LIG-0.08  N 
ATOM      7 HZ3  LYS B   5      -8.307   8.989  -4.486  1.00 45.51 LIG 0.27  HD
ATOM      8 HZ1  LYS B   5      -9.175   7.894  -4.088  1.00 45.51 LIG 0.27  HD
ATOM      9 HZ2  LYS B   5      -8.477   8.671  -3.078  1.00 45.51 LIG 0.27  HD
ENDBRANCH 5 6
ENDBRANCH 4 5
ENDBRANCH 3 4
ENDBRANCH 2 3
ENDBRANCH 1 2
BRANCH 1 10
ATOM     10  C   LYS B   5      -6.900   3.143  -1.584  1.00 41.24 LIG 0.24  C 
ATOM     11  N   TRP B   6      -7.899   3.350  -0.724  1.00 42.23 LIG-0.35  N 
ATOM     12 H    TRP B   6      -8.181   4.126  -0.484  1.00 42.23 LIG 0.16  HD
ATOM     13 O    LYS B   5      -6.481   2.013  -1.849  1.00 40.50 LIG-0.27  OA
BRANCH 11 14
ATOM     14  CA  TRP B   6      -8.604   2.226  -0.114  1.00 42.54 LIG 0.18  C 
BRANCH 14 15
ATOM     15  C   TRP B   6      -7.596   1.317   0.587  1.00 45.00 LIG 0.24  C 
ATOM     16 O    TRP B   6      -6.759   1.795   1.365  1.00 46.85 LIG-0.27  OA
ATOM     17  N   ASN B   7      -7.683   0.010   0.311  1.00 47.11 LIG-0.35  N 
ATOM     18 H    ASN B   7      -8.342  -0.337  -0.118  1.00 47.11 LIG 0.16  HD
BRANCH 17 19
ATOM     19  CA  ASN B   7      -6.658  -0.969   0.713  1.00 45.24 LIG 0.17  C 
BRANCH 19 20
ATOM     20  C   ASN B   7      -6.102  -1.672  -0.523  1.00 46.26 LIG 0.22  C 
ATOM     21 O    ASN B   7      -5.974  -1.060  -1.587  1.00 44.70 LIG-0.29  OA
ENDBRANCH 19 20
BRANCH 19 22
ATOM     22  CB  ASN B   7      -7.210  -2.028   1.683  1.00 46.57 LIG 0.14  C 
BRANCH 22 23
ATOM     23  CG  ASN B   7      -8.706  -2.275   1.513  1.00 48.94 LIG 0.22  C 
ATOM     24  ND2 ASN B   7      -9.525  -1.441   2.154  1.00 48.79 LIG-0.37  N 
ATOM     25 21HD ASN B   7     -10.377  -1.542   2.092  1.00 48.79 LIG 0.16  HD
ATOM     26 22HD ASN B   7      -9.201  -0.801   2.629  1.00 48.79 LIG 0.16  HD
ATOM     27 OD1  ASN B   7      -9.119  -3.202   0.822  1.00 52.21 LIG-0.27  OA
ENDBRANCH 22 23
ENDBRANCH 19 22
ENDBRANCH 17 19
ENDBRANCH 14 15
BRANCH 14 28
ATOM     28  CB  TRP B   6      -9.413   1.426  -1.139  1.00 42.47 LIG 0.07  C 
BRANCH 28 29
ATOM     29  CG  TRP B   6     -10.697   0.882  -0.529  1.00 46.30 LIG-0.03  A 
ATOM     30  CD1 TRP B   6     -11.137  -0.420  -0.560  1.00 49.14 LIG 0.10  A 
ATOM     31  NE1 TRP B   6     -12.326  -0.539   0.125  1.00 51.13 LIG-0.36  N 
ATOM     32 HE1  TRP B   6     -12.773  -1.266   0.228  1.00 51.13 LIG 0.17  HD
ATOM     33  CE2 TRP B   6     -12.682   0.692   0.614  1.00 47.23 LIG 0.04  A 
ATOM     34  CZ2 TRP B   6     -13.801   1.073   1.365  1.00 46.28 LIG 0.03  A 
ATOM     35  CD2 TRP B   6     -11.680   1.612   0.228  1.00 41.81 LIG-0.00  A 
ATOM     36  CH2 TRP B   6     -13.905   2.396   1.725  1.00 44.17 LIG 0.00  A 
ATOM     37  CZ3 TRP B   6     -12.936   3.331   1.353  1.00 33.54 LIG 0.00  A 
ATOM     38  CE3 TRP B   6     -11.816   2.951   0.604  1.00 38.27 LIG 0.01  A 
ENDBRANCH 28 29
ENDBRANCH 14 28
ENDBRANCH 11 14
ENDBRANCH 1 10
BRANCH 1 39
ATOM     39  N   LYS B   5      -5.057   4.766  -1.531  1.00 39.73 LIG-0.35  N 
ATOM     40  C   PRO B   4      -4.098   3.897  -1.220  1.00 35.29 LIG 0.24  C 
ATOM     41 O    PRO B   4      -4.171   2.694  -1.475  1.00 36.70 LIG-0.27  OA
ATOM     42 H    LYS B   5      -5.012   5.604  -1.343  1.00 39.73 LIG 0.16  HD
BRANCH 40 43
ATOM     43  CA  PRO B   4      -2.880   4.481  -0.529  1.00 31.05 LIG 0.18  C 
ATOM     44  N   PRO B   4      -1.740   4.565  -1.440  1.00 34.55 LIG-0.34  N 
ATOM     45  C   GLY B   3      -1.000   3.485  -1.692  1.00 37.27 LIG 0.24  C 
ATOM     46  CD  PRO B   4      -1.490   5.953  -1.872  1.00 31.08 LIG 0.13  C 
ATOM     47 O    GLY B   3      -1.279   2.381  -1.214  1.00 44.84 LIG-0.27  OA
ATOM     48  CG  PRO B   4      -2.699   6.697  -1.362  1.00 26.25 LIG 0.02  C 
ATOM     49  CB  PRO B   4      -3.115   5.945  -0.141  1.00 27.99 LIG 0.04  C 
BRANCH 45 50
ATOM     50  CA  GLY B   3       0.189   3.662  -2.610  1.00 35.98 LIG 0.23  C 
BRANCH 50 51
ATOM     51  N   GLY B   3       1.432   3.543  -1.884  1.00 37.88 LIG-0.35  N 
ATOM     52  C   TYR B   2       1.914   4.529  -1.133  1.00 38.85 LIG 0.26  C 
ATOM     53 O    TYR B   2       1.306   5.580  -0.917  1.00 37.42 LIG-0.27  OA
ATOM     54 H    GLY B   3       1.824   2.784  -1.984  1.00 37.88 LIG 0.16  HD
BRANCH 52 55
ATOM     55  CA  TYR B   2       3.287   4.284  -0.513  1.00 47.59 LIG 0.40  C 
ATOM     56  N   TYR B   2       3.855   5.539  -0.022  1.00 42.90 LIG 0.61  N 
BRANCH 55 57
ATOM     57  CB  TYR B   2       3.174   3.255   0.615  1.00 41.46 LIG 0.09  C 
BRANCH 57 58
ATOM     58  CG  TYR B   2       2.903   1.825   0.152  1.00 40.04 LIG-0.06  A 
ATOM     59  CD1 TYR B   2       3.948   0.978  -0.185  1.00 39.56 LIG 0.01  A 
ATOM     60  CE1 TYR B   2       3.718  -0.327  -0.602  1.00 39.46 LIG 0.04  A 
ATOM     61  CZ  TYR B   2       2.427  -0.801  -0.685  1.00 36.77 LIG 0.07  A 
ATOM     62  CE2 TYR B   2       1.365   0.021  -0.356  1.00 30.56 LIG 0.04  A 
ATOM     63  CD2 TYR B   2       1.605   1.327   0.061  1.00 33.12 LIG 0.01  A 
BRANCH 61 64
ATOM     64 OH   TYR B   2       2.221  -2.107  -1.100  1.00 37.21 LIG-0.36  OA
ATOM     65 HH   TYR B   2       2.255  -2.621  -0.436  1.00 37.21 LIG 0.22  HD
ENDBRANCH 61 64
ENDBRANCH 57 58
ENDBRANCH 55 57
ENDBRANCH 52 55
ENDBRANCH 50 51
ENDBRANCH 45 50
ENDBRANCH 40 43
ENDBRANCH 1 39
TORSDOF 22
ENDMDL
MODEL 50
USER: ADFR SOLUTION from run 176
USER: SCORE 17.720886 LL:  -3.538 LR: -14.931 RR:   0.000 FEB:  -8.369
USER: RMSD 12.497942
USER: SEED 175
USER: STATUS no improvement in best in 3 clusters for 5 generations
USER: GENES 24
USER: genes 0 Translation |==|  0.43171 0.52666 0.50054
USER: genes 1 Rotation |==|  0.37639 0.58273 0.04637 0.64863
USER: genes 2 Torsion [C]-CA--CB-[CG] |==|  0.28122
USER: genes 3 Torsion [CA]-CB--CG-[CD] |==|  0.39301
USER: genes 4 Torsion [CB]-CG--CD-[CE] |==|  0.68777
USER: genes 5 Torsion [CG]-CD--CE-[NZ] |==|  0.81826
USER: genes 6 Torsion [CD]-CE--NZ-[HZ3] |==|  0.52765
USER: genes 7 Torsion [N]-CA--C-[N] |==|  0.41767
USER: genes 8 Torsion [C]-N--CA-[C] |==|  0.80261
USER: genes 9 Torsion [N]-CA--C-[N] |==|  0.88491
USER: genes 10 Torsion [C]-N--CA-[C] |==|  0.17513
USER: genes 11 Torsion [N]-CA--C-[O] |==|  0.70425
USER: genes 12 Torsion [N]-CA--CB-[CG] |==|  0.84039
USER: genes 13 Torsion [CA]-CB--CG-[ND2] |==|  0.32900
USER: genes 14 Torsion [N]-CA--CB-[CG] |==|  0.43097
USER: genes 15 Torsion [CA]-CB--CG-[CD2] |==|  0.66750
USER: genes 16 Torsion [CB]-CA--N-[C] |==|  0.54454
USER: genes 17 Torsion [N]-C--CA-[CB] |==|  0.07121
USER: genes 18 Torsion [N]-C--CA-[N] |==|  0.33165
USER: genes 19 Torsion [C]-CA--N-[C] |==|  0.26167
USER: genes 20 Torsion [N]-C--CA-[N] |==|  0.72460
USER: genes 21 Torsion [C]-CA--CB-[CG] |==|  0.40164
USER: genes 22 Torsion [CA]-CB--CG-[CD1] |==|  0.63984
USER: genes 23 Torsion [CE1]-CZ--OH-[HH] |==|  0.25131
ROOT
ATOM      1  CA  LYS B   5      -5.599   5.344  -2.001  1.00 42.36 LIG 0.18  C 
ENDROOT
BRANCH 1 2
ATOM      2  CB  LYS B   5      -6.178   5.581  -3.404  1.00 43.80 LIG 0.04  C 
BRANCH 2 3
ATOM      3  CG  LYS B   5      -7.420   6.505  -3.453  1.00 49.23 LIG 0.00  C 
BRANCH 3 4
ATOM      4  CD  LYS B   5      -7.426   7.442  -4.665  1.00 48.54 LIG 0.03  C 
BRANCH 4 5
ATOM      5  CE  LYS B   5      -7.254   8.891  -4.243  1.00 43.92 LIG 0.23  C 
BRANCH 5 6
ATOM      6  NZ  LYS B   5      -8.430   9.324  -3.449  1.00 45.51 LIG-0.08  N 
ATOM      7 HZ3  LYS B   5      -8.397  10.205  -3.326  1.00 45.51 LIG 0.27  HD
ATOM      8 HZ1  LYS B   5      -9.176   9.113  -3.885  1.00 45.51 LIG 0.27  HD
ATOM      9 HZ2  LYS B   5      -8.422   8.914  -2.659  1.00 45.51 LIG 0.27  HD
ENDBRANCH 5 6
ENDBRANCH 4 5
ENDBRANCH 3 4
ENDBRANCH 2 3
ENDBRANCH 1 2
BRANCH 1 10
ATOM     10  C   LYS B   5      -6.044   3.977  -1.479  1.00 41.24 LIG 0.24  C 
ATOM     11  N   TRP B   6      -7.214   3.938  -0.839  1.00 42.23 LIG-0.35  N 
ATOM     12 H    TRP B   6      -7.699   4.628  -0.670  1.00 42.23 LIG 0.16  HD
ATOM     13 O    LYS B   5      -5.347   2.972  -1.641  1.00 40.50 LIG-0.27  OA
BRANCH 11 14
ATOM     14  CA  TRP B   6      -7.766   2.671  -0.368  1.00 42.54 LIG 0.18  C 
BRANCH 14 15
ATOM     15  C   TRP B   6      -8.230   1.844  -1.566  1.00 45.00 LIG 0.24  C 
ATOM     16 O    TRP B   6      -8.017   0.625  -1.604  1.00 46.85 LIG-0.27  OA
ATOM     17  N   ASN B   7      -8.866   2.511  -2.537  1.00 47.11 LIG-0.35  N 
ATOM     18 H    ASN B   7      -9.133   3.324  -2.452  1.00 47.11 LIG 0.16  HD
BRANCH 17 19
ATOM     19  CA  ASN B   7      -9.174   1.923  -3.852  1.00 45.24 LIG 0.17  C 
BRANCH 19 20
ATOM     20  C   ASN B   7     -10.126   0.741  -3.679  1.00 46.26 LIG 0.22  C 
ATOM     21 O    ASN B   7      -9.717  -0.416  -3.812  1.00 44.70 LIG-0.29  OA
ENDBRANCH 19 20
BRANCH 19 22
ATOM     22  CB  ASN B   7      -7.911   1.442  -4.587  1.00 46.57 LIG 0.14  C 
BRANCH 22 23
ATOM     23  CG  ASN B   7      -6.882   2.548  -4.797  1.00 48.94 LIG 0.22  C 
ATOM     24  ND2 ASN B   7      -5.692   2.373  -4.222  1.00 48.79 LIG-0.37  N 
ATOM     25 21HD ASN B   7      -5.080   2.971  -4.308  1.00 48.79 LIG 0.16  HD
ATOM     26 22HD ASN B   7      -5.536   1.662  -3.764  1.00 48.79 LIG 0.16  HD
ATOM     27 OD1  ASN B   7      -7.152   3.546  -5.460  1.00 52.21 LIG-0.27  OA
ENDBRANCH 22 23
ENDBRANCH 19 22
ENDBRANCH 17 19
ENDBRANCH 14 15
BRANCH 14 28
ATOM     28  CB  TRP B   6      -8.924   2.875   0.614  1.00 42.47 LIG 0.07  C 
BRANCH 28 29
ATOM     29  CG  TRP B   6      -9.857   1.672   0.627  1.00 46.30 LIG-0.03  A 
ATOM     30  CD1 TRP B   6      -9.536   0.385   0.990  1.00 49.14 LIG 0.10  A 
ATOM     31  NE1 TRP B   6     -10.647  -0.426   0.904  1.00 51.13 LIG-0.36  N 
ATOM     32 HE1  TRP B   6     -10.668  -1.265   1.086  1.00 51.13 LIG 0.17  HD
ATOM     33  CE2 TRP B   6     -11.713   0.325   0.479  1.00 47.23 LIG 0.04  A 
ATOM     34  CZ2 TRP B   6     -13.041  -0.051   0.240  1.00 46.28 LIG 0.03  A 
ATOM     35  CD2 TRP B   6     -11.258   1.652   0.298  1.00 41.81 LIG-0.00  A 
ATOM     36  CH2 TRP B   6     -13.911   0.924  -0.186  1.00 44.17 LIG 0.00  A 
ATOM     37  CZ3 TRP B   6     -13.491   2.242  -0.382  1.00 33.54 LIG 0.00  A 
ATOM     38  CE3 TRP B   6     -12.165   2.619  -0.142  1.00 38.27 LIG 0.01  A 
ENDBRANCH 28 29
ENDBRANCH 14 28
ENDBRANCH 11 14
ENDBRANCH 1 10
BRANCH 1 39
ATOM     39  N   LYS B   5      -4.141   5.431  -2.024  1.00 39.73 LIG-0.35  N 
ATOM     40  C   PRO B   4      -3.367   4.971  -1.042  1.00 35.29 LIG 0.24  C 
ATOM     41 O    PRO B   4      -3.815   4.449  -0.021  1.00 36.70 LIG-0.27  OA
ATOM     42 H    LYS B   5      -3.829   5.806  -2.732  1.00 39.73 LIG 0.16  HD
BRANCH 40 43
ATOM     43  CA  PRO B   4      -1.872   5.120  -1.259  1.00 31.05 LIG 0.18  C 
ATOM     44  N   PRO B   4      -1.320   3.966  -1.968  1.00 34.55 LIG-0.34  N 
ATOM     45  C   GLY B   3      -1.049   2.839  -1.310  1.00 37.27 LIG 0.24  C 
ATOM     46  CD  PRO B   4      -1.010   4.290  -3.373  1.00 31.08 LIG 0.13  C 
ATOM     47 O    GLY B   3      -1.300   2.713  -0.107  1.00 44.84 LIG-0.27  OA
ATOM     48  CG  PRO B   4      -1.630   5.652  -3.560  1.00 26.25 LIG 0.02  C 
ATOM     49  CB  PRO B   4      -1.566   6.283  -2.208  1.00 27.99 LIG 0.04  C 
BRANCH 45 50
ATOM     50  CA  GLY B   3      -0.438   1.707  -2.105  1.00 35.98 LIG 0.23  C 
BRANCH 50 51
ATOM     51  N   GLY B   3       0.860   1.345  -1.585  1.00 37.88 LIG-0.35  N 
ATOM     52  C   TYR B   2       1.024   0.366  -0.699  1.00 38.85 LIG 0.26  C 
ATOM     53 O    TYR B   2       0.109  -0.370  -0.321  1.00 37.42 LIG-0.27  OA
ATOM     54 H    GLY B   3       1.507   1.816  -1.898  1.00 37.88 LIG 0.16  HD
BRANCH 52 55
ATOM     55  CA  TYR B   2       2.443   0.175  -0.172  1.00 47.59 LIG 0.40  C 
ATOM     56  N   TYR B   2       3.105  -0.922  -0.878  1.00 42.90 LIG 0.61  N 
BRANCH 55 57
ATOM     57  CB  TYR B   2       3.234   1.478  -0.318  1.00 41.46 LIG 0.09  C 
BRANCH 57 58
ATOM     58  CG  TYR B   2       4.230   1.752   0.806  1.00 40.04 LIG-0.06  A 
ATOM     59  CD1 TYR B   2       4.245   2.977   1.457  1.00 39.56 LIG 0.01  A 
ATOM     60  CE1 TYR B   2       5.141   3.240   2.485  1.00 39.46 LIG 0.04  A 
ATOM     61  CZ  TYR B   2       6.038   2.270   2.876  1.00 36.77 LIG 0.07  A 
ATOM     62  CE2 TYR B   2       6.045   1.039   2.245  1.00 30.56 LIG 0.04  A 
ATOM     63  CD2 TYR B   2       5.145   0.785   1.216  1.00 33.12 LIG 0.01  A 
BRANCH 61 64
ATOM     64 OH   TYR B   2       6.920   2.554   3.907  1.00 37.21 LIG-0.36  OA
ATOM     65 HH   TYR B   2       6.575   2.331   4.641  1.00 37.21 LIG 0.22  HD
ENDBRANCH 61 64
ENDBRANCH 57 58
ENDBRANCH 55 57
ENDBRANCH 52 55
ENDBRANCH 50 51
ENDBRANCH 45 50
ENDBRANCH 40 43
ENDBRANCH 1 39
TORSDOF 22
ENDMDL
MODEL 51
USER: ADFR SOLUTION from run 109
USER: SCORE 17.841174 LL:  -4.771 LR: -14.908 RR:   0.000 FEB:  -8.346
USER: RMSD 10.088644
USER: SEED 108
USER: STATUS no improvement in best in 8 clusters for 5 generations
USER: GENES 24
USER: genes 0 Translation |==|  0.54349 0.52769 0.55211
USER: genes 1 Rotation |==|  0.49102 0.77443 0.08218 0.50577
USER: genes 2 Torsion [C]-CA--CB-[CG] |==|  0.82244
USER: genes 3 Torsion [CA]-CB--CG-[CD] |==|  0.42290
USER: genes 4 Torsion [CB]-CG--CD-[CE] |==|  0.18290
USER: genes 5 Torsion [CG]-CD--CE-[NZ] |==|  0.61199
USER: genes 6 Torsion [CD]-CE--NZ-[HZ3] |==|  0.63615
USER: genes 7 Torsion [N]-CA--C-[N] |==|  0.59505
USER: genes 8 Torsion [C]-N--CA-[C] |==|  0.62940
USER: genes 9 Torsion [N]-CA--C-[N] |==|  0.82860
USER: genes 10 Torsion [C]-N--CA-[C] |==|  0.61678
USER: genes 11 Torsion [N]-CA--C-[O] |==|  0.99047
USER: genes 12 Torsion [N]-CA--CB-[CG] |==|  0.28059
USER: genes 13 Torsion [CA]-CB--CG-[ND2] |==|  0.75199
USER: genes 14 Torsion [N]-CA--CB-[CG] |==|  0.84325
USER: genes 15 Torsion [CA]-CB--CG-[CD2] |==|  0.19899
USER: genes 16 Torsion [CB]-CA--N-[C] |==|  0.14457
USER: genes 17 Torsion [N]-C--CA-[CB] |==|  0.34047
USER: genes 18 Torsion [N]-C--CA-[N] |==|  0.26334
USER: genes 19 Torsion [C]-CA--N-[C] |==|  0.25316
USER: genes 20 Torsion [N]-C--CA-[N] |==|  0.74468
USER: genes 21 Torsion [C]-CA--CB-[CG] |==|  0.19225
USER: genes 22 Torsion [CA]-CB--CG-[CD1] |==|  0.40232
USER: genes 23 Torsion [CE1]-CZ--OH-[HH] |==|  0.10711
ROOT
ATOM      1  CA  LYS B   5      -2.245   5.364  -1.111  1.00 42.36 LIG 0.18  C 
ENDROOT
BRANCH 1 2
ATOM      2  CB  LYS B   5      -2.077   6.684  -1.879  1.00 43.80 LIG 0.04  C 
BRANCH 2 3
ATOM      3  CG  LYS B   5      -1.973   6.540  -3.417  1.00 49.23 LIG 0.00  C 
BRANCH 3 4
ATOM      4  CD  LYS B   5      -2.473   7.776  -4.173  1.00 48.54 LIG 0.03  C 
BRANCH 4 5
ATOM      5  CE  LYS B   5      -1.587   8.981  -3.908  1.00 43.92 LIG 0.23  C 
BRANCH 5 6
ATOM      6  NZ  LYS B   5      -2.425  10.194  -3.749  1.00 45.51 LIG-0.08  N 
ATOM      7 HZ3  LYS B   5      -2.102  10.847  -4.260  1.00 45.51 LIG 0.27  HD
ATOM      8 HZ1  LYS B   5      -3.260  10.012  -3.996  1.00 45.51 LIG 0.27  HD
ATOM      9 HZ2  LYS B   5      -2.417  10.451  -2.898  1.00 45.51 LIG 0.27  HD
ENDBRANCH 5 6
ENDBRANCH 4 5
ENDBRANCH 3 4
ENDBRANCH 2 3
ENDBRANCH 1 2
BRANCH 1 10
ATOM     10  C   LYS B   5      -3.572   4.706  -1.494  1.00 41.24 LIG 0.24  C 
ATOM     11  N   TRP B   6      -4.520   5.513  -1.970  1.00 42.23 LIG-0.35  N 
ATOM     12 H    TRP B   6      -4.445   6.368  -2.033  1.00 42.23 LIG 0.16  HD
ATOM     13 O    LYS B   5      -3.746   3.492  -1.358  1.00 40.50 LIG-0.27  OA
BRANCH 11 14
ATOM     14  CA  TRP B   6      -5.796   4.975  -2.435  1.00 42.54 LIG 0.18  C 
BRANCH 14 15
ATOM     15  C   TRP B   6      -6.147   5.599  -3.784  1.00 45.00 LIG 0.24  C 
ATOM     16 O    TRP B   6      -6.267   4.887  -4.790  1.00 46.85 LIG-0.27  OA
ATOM     17  N   ASN B   7      -6.313   6.928  -3.799  1.00 47.11 LIG-0.35  N 
ATOM     18 H    ASN B   7      -6.364   7.403  -3.084  1.00 47.11 LIG 0.16  HD
BRANCH 17 19
ATOM     19  CA  ASN B   7      -6.425   7.713  -5.040  1.00 45.24 LIG 0.17  C 
BRANCH 19 20
ATOM     20  C   ASN B   7      -5.615   9.001  -4.913  1.00 46.26 LIG 0.22  C 
ATOM     21 O    ASN B   7      -5.045   9.279  -3.854  1.00 44.70 LIG-0.29  OA
ENDBRANCH 19 20
BRANCH 19 22
ATOM     22  CB  ASN B   7      -7.883   8.073  -5.375  1.00 46.57 LIG 0.14  C 
BRANCH 22 23
ATOM     23  CG  ASN B   7      -8.248   9.506  -5.000  1.00 48.94 LIG 0.22  C 
ATOM     24  ND2 ASN B   7      -8.716   9.699  -3.766  1.00 48.79 LIG-0.37  N 
ATOM     25 21HD ASN B   7      -8.939  10.489  -3.510  1.00 48.79 LIG 0.16  HD
ATOM     26 22HD ASN B   7      -8.795   9.034  -3.227  1.00 48.79 LIG 0.16  HD
ATOM     27 OD1  ASN B   7      -8.117  10.423  -5.806  1.00 52.21 LIG-0.27  OA
ENDBRANCH 22 23
ENDBRANCH 19 22
ENDBRANCH 17 19
ENDBRANCH 14 15
BRANCH 14 28
ATOM     28  CB  TRP B   6      -6.925   5.219  -1.430  1.00 42.47 LIG 0.07  C 
BRANCH 28 29
ATOM     29  CG  TRP B   6      -6.585   4.639  -0.064  1.00 46.30 LIG-0.03  A 
ATOM     30  CD1 TRP B   6      -7.122   3.510   0.509  1.00 49.14 LIG 0.10  A 
ATOM     31  NE1 TRP B   6      -6.549   3.281   1.740  1.00 51.13 LIG-0.36  N 
ATOM     32 HE1  TRP B   6      -6.739   2.628   2.266  1.00 51.13 LIG 0.17  HD
ATOM     33  CE2 TRP B   6      -5.625   4.264   1.991  1.00 47.23 LIG 0.04  A 
ATOM     34  CZ2 TRP B   6      -4.797   4.458   3.103  1.00 46.28 LIG 0.03  A 
ATOM     35  CD2 TRP B   6      -5.616   5.136   0.877  1.00 41.81 LIG-0.00  A 
ATOM     36  CH2 TRP B   6      -3.954   5.544   3.085  1.00 44.17 LIG 0.00  A 
ATOM     37  CZ3 TRP B   6      -3.926   6.429   2.004  1.00 33.54 LIG 0.00  A 
ATOM     38  CE3 TRP B   6      -4.752   6.234   0.892  1.00 38.27 LIG 0.01  A 
ENDBRANCH 28 29
ENDBRANCH 14 28
ENDBRANCH 11 14
ENDBRANCH 1 10
BRANCH 1 39
ATOM     39  N   LYS B   5      -1.130   4.462  -1.387  1.00 39.73 LIG-0.35  N 
ATOM     40  C   PRO B   4       0.146   4.820  -1.260  1.00 35.29 LIG 0.24  C 
ATOM     41 O    PRO B   4       0.497   5.949  -0.916  1.00 36.70 LIG-0.27  OA
ATOM     42 H    LYS B   5      -1.375   3.677  -1.639  1.00 39.73 LIG 0.16  HD
BRANCH 40 43
ATOM     43  CA  PRO B   4       1.166   3.737  -1.559  1.00 31.05 LIG 0.18  C 
ATOM     44  N   PRO B   4       0.530   2.550  -2.128  1.00 34.55 LIG-0.34  N 
ATOM     45  C   GLY B   3      -0.081   1.669  -1.336  1.00 37.27 LIG 0.24  C 
ATOM     46  CD  PRO B   4       0.787   2.437  -3.576  1.00 31.08 LIG 0.13  C 
ATOM     47 O    GLY B   3      -0.175   1.848  -0.117  1.00 44.84 LIG-0.27  OA
ATOM     48  CG  PRO B   4       1.422   3.761  -3.919  1.00 26.25 LIG 0.02  C 
ATOM     49  CB  PRO B   4       2.127   4.175  -2.669  1.00 27.99 LIG 0.04  C 
BRANCH 45 50
ATOM     50  CA  GLY B   3      -0.676   0.444  -1.995  1.00 35.98 LIG 0.23  C 
BRANCH 50 51
ATOM     51  N   GLY B   3       0.244  -0.669  -1.954  1.00 37.88 LIG-0.35  N 
ATOM     52  C   TYR B   2       0.250  -1.551  -0.959  1.00 38.85 LIG 0.26  C 
ATOM     53 O    TYR B   2      -0.578  -1.551  -0.045  1.00 37.42 LIG-0.27  OA
ATOM     54 H    GLY B   3       0.779  -0.706  -2.626  1.00 37.88 LIG 0.16  HD
BRANCH 52 55
ATOM     55  CA  TYR B   2       1.348  -2.609  -1.012  1.00 47.59 LIG 0.40  C 
ATOM     56  N   TYR B   2       0.873  -3.802  -1.714  1.00 42.90 LIG 0.61  N 
BRANCH 55 57
ATOM     57  CB  TYR B   2       2.594  -2.034  -1.691  1.00 41.46 LIG 0.09  C 
BRANCH 57 58
ATOM     58  CG  TYR B   2       3.325  -0.963  -0.885  1.00 40.04 LIG-0.06  A 
ATOM     59  CD1 TYR B   2       4.709  -0.864  -0.929  1.00 39.56 LIG 0.01  A 
ATOM     60  CE1 TYR B   2       5.388   0.108  -0.206  1.00 39.46 LIG 0.04  A 
ATOM     61  CZ  TYR B   2       4.683   0.999   0.574  1.00 36.77 LIG 0.07  A 
ATOM     62  CE2 TYR B   2       3.304   0.924   0.636  1.00 30.56 LIG 0.04  A 
ATOM     63  CD2 TYR B   2       2.631  -0.053  -0.090  1.00 33.12 LIG 0.01  A 
BRANCH 61 64
ATOM     64 OH   TYR B   2       5.383   1.963   1.283  1.00 37.21 LIG-0.36  OA
ATOM     65 HH   TYR B   2       6.022   2.246   0.817  1.00 37.21 LIG 0.22  HD
ENDBRANCH 61 64
ENDBRANCH 57 58
ENDBRANCH 55 57
ENDBRANCH 52 55
ENDBRANCH 50 51
ENDBRANCH 45 50
ENDBRANCH 40 43
ENDBRANCH 1 39
TORSDOF 22
ENDMDL
MODEL 52
USER: ADFR SOLUTION from run 83
USER: SCORE 18.442374 LL:  -4.750 LR: -14.909 RR:   0.000 FEB:  -8.346
USER: RMSD 9.741320
USER: SEED 82
USER: STATUS no improvement in best in 18 clusters for 5 generations
USER: GENES 24
USER: genes 0 Translation |==|  0.36246 0.46239 0.63923
USER: genes 1 Rotation |==|  0.95922 0.60125 0.33817 0.55177
USER: genes 2 Torsion [C]-CA--CB-[CG] |==|  0.20148
USER: genes 3 Torsion [CA]-CB--CG-[CD] |==|  0.70758
USER: genes 4 Torsion [CB]-CG--CD-[CE] |==|  0.79055
USER: genes 5 Torsion [CG]-CD--CE-[NZ] |==|  0.15225
USER: genes 6 Torsion [CD]-CE--NZ-[HZ3] |==|  0.08880
USER: genes 7 Torsion [N]-CA--C-[N] |==|  0.17787
USER: genes 8 Torsion [C]-N--CA-[C] |==|  0.65038
USER: genes 9 Torsion [N]-CA--C-[N] |==|  0.96188
USER: genes 10 Torsion [C]-N--CA-[C] |==|  0.16018
USER: genes 11 Torsion [N]-CA--C-[O] |==|  0.15632
USER: genes 12 Torsion [N]-CA--CB-[CG] |==|  0.58805
USER: genes 13 Torsion [CA]-CB--CG-[ND2] |==|  0.22144
USER: genes 14 Torsion [N]-CA--CB-[CG] |==|  0.16975
USER: genes 15 Torsion [CA]-CB--CG-[CD2] |==|  0.26839
USER: genes 16 Torsion [CB]-CA--N-[C] |==|  0.80975
USER: genes 17 Torsion [N]-C--CA-[CB] |==|  0.48805
USER: genes 18 Torsion [N]-C--CA-[N] |==|  0.32371
USER: genes 19 Torsion [C]-CA--N-[C] |==|  0.84444
USER: genes 20 Torsion [N]-C--CA-[N] |==|  0.55602
USER: genes 21 Torsion [C]-CA--CB-[CG] |==|  0.85238
USER: genes 22 Torsion [CA]-CB--CG-[CD1] |==|  0.79630
USER: genes 23 Torsion [CE1]-CZ--OH-[HH] |==|  0.51646
ROOT
ATOM      1  CA  LYS B   5      -7.676   4.091   0.392  1.00 42.36 LIG 0.18  C 
ENDROOT
BRANCH 1 2
ATOM      2  CB  LYS B   5      -6.929   4.343   1.710  1.00 43.80 LIG 0.04  C 
BRANCH 2 3
ATOM      3  CG  LYS B   5      -6.201   5.706   1.802  1.00 49.23 LIG 0.00  C 
BRANCH 3 4
ATOM      4  CD  LYS B   5      -4.680   5.588   1.652  1.00 48.54 LIG 0.03  C 
BRANCH 4 5
ATOM      5  CE  LYS B   5      -4.042   5.037   2.915  1.00 43.92 LIG 0.23  C 
BRANCH 5 6
ATOM      6  NZ  LYS B   5      -4.679   3.747   3.275  1.00 45.51 LIG-0.08  N 
ATOM      7 HZ3  LYS B   5      -4.934   3.324   2.535  1.00 45.51 LIG 0.27  HD
ATOM      8 HZ1  LYS B   5      -4.096   3.242   3.719  1.00 45.51 LIG 0.27  HD
ATOM      9 HZ2  LYS B   5      -5.390   3.899   3.789  1.00 45.51 LIG 0.27  HD
ENDBRANCH 5 6
ENDBRANCH 4 5
ENDBRANCH 3 4
ENDBRANCH 2 3
ENDBRANCH 1 2
BRANCH 1 10
ATOM     10  C   LYS B   5      -6.673   3.824  -0.731  1.00 41.24 LIG 0.24  C 
ATOM     11  N   TRP B   6      -7.174   3.717  -1.963  1.00 42.23 LIG-0.35  N 
ATOM     12 H    TRP B   6      -8.013   3.746  -2.150  1.00 42.23 LIG 0.16  HD
ATOM     13 O    LYS B   5      -5.467   3.709  -0.497  1.00 40.50 LIG-0.27  OA
BRANCH 11 14
ATOM     14  CA  TRP B   6      -6.295   3.538  -3.114  1.00 42.54 LIG 0.18  C 
BRANCH 14 15
ATOM     15  C   TRP B   6      -6.593   4.618  -4.153  1.00 45.00 LIG 0.24  C 
ATOM     16 O    TRP B   6      -5.810   4.817  -5.091  1.00 46.85 LIG-0.27  OA
ATOM     17  N   ASN B   7      -7.727   5.309  -3.981  1.00 47.11 LIG-0.35  N 
ATOM     18 H    ASN B   7      -8.333   5.084  -3.415  1.00 47.11 LIG 0.16  HD
BRANCH 17 19
ATOM     19  CA  ASN B   7      -8.053   6.526  -4.745  1.00 45.24 LIG 0.17  C 
BRANCH 19 20
ATOM     20  C   ASN B   7      -8.043   6.216  -6.240  1.00 46.26 LIG 0.22  C 
ATOM     21 O    ASN B   7      -8.758   5.321  -6.698  1.00 44.70 LIG-0.29  OA
ENDBRANCH 19 20
BRANCH 19 22
ATOM     22  CB  ASN B   7      -7.067   7.673  -4.467  1.00 46.57 LIG 0.14  C 
BRANCH 22 23
ATOM     23  CG  ASN B   7      -7.709   9.053  -4.562  1.00 48.94 LIG 0.22  C 
ATOM     24  ND2 ASN B   7      -8.415   9.457  -3.506  1.00 48.79 LIG-0.37  N 
ATOM     25 21HD ASN B   7      -8.800  10.226  -3.514  1.00 48.79 LIG 0.16  HD
ATOM     26 22HD ASN B   7      -8.487   8.948  -2.817  1.00 48.79 LIG 0.16  HD
ATOM     27 OD1  ASN B   7      -7.578   9.743  -5.570  1.00 52.21 LIG-0.27  OA
ENDBRANCH 22 23
ENDBRANCH 19 22
ENDBRANCH 17 19
ENDBRANCH 14 15
BRANCH 14 28
ATOM     28  CB  TRP B   6      -6.440   2.148  -3.741  1.00 42.47 LIG 0.07  C 
BRANCH 28 29
ATOM     29  CG  TRP B   6      -7.857   1.915  -4.247  1.00 46.30 LIG-0.03  A 
ATOM     30  CD1 TRP B   6      -8.945   1.527  -3.500  1.00 49.14 LIG 0.10  A 
ATOM     31  NE1 TRP B   6     -10.066   1.448  -4.297  1.00 51.13 LIG-0.36  N 
ATOM     32 HE1  TRP B   6     -10.852   1.224  -4.031  1.00 51.13 LIG 0.17  HD
ATOM     33  CE2 TRP B   6      -9.724   1.782  -5.582  1.00 47.23 LIG 0.04  A 
ATOM     34  CZ2 TRP B   6     -10.513   1.843  -6.737  1.00 46.28 LIG 0.03  A 
ATOM     35  CD2 TRP B   6      -8.342   2.087  -5.591  1.00 41.81 LIG-0.00  A 
ATOM     36  CH2 TRP B   6      -9.897   2.215  -7.909  1.00 44.17 LIG 0.00  A 
ATOM     37  CZ3 TRP B   6      -8.533   2.515  -7.953  1.00 33.54 LIG 0.00  A 
ATOM     38  CE3 TRP B   6      -7.744   2.456  -6.799  1.00 38.27 LIG 0.01  A 
ENDBRANCH 28 29
ENDBRANCH 14 28
ENDBRANCH 11 14
ENDBRANCH 1 10
BRANCH 1 39
ATOM     39  N   LYS B   5      -8.599   2.966   0.529  1.00 39.73 LIG-0.35  N 
ATOM     40  C   PRO B   4      -8.196   1.707   0.688  1.00 35.29 LIG 0.24  C 
ATOM     41 O    PRO B   4      -7.009   1.379   0.714  1.00 36.70 LIG-0.27  OA
ATOM     42 H    LYS B   5      -9.427   3.194   0.499  1.00 39.73 LIG 0.16  HD
BRANCH 40 43
ATOM     43  CA  PRO B   4      -9.300   0.678   0.847  1.00 31.05 LIG 0.18  C 
ATOM     44  N   PRO B   4     -10.156   0.628  -0.338  1.00 34.55 LIG-0.34  N 
ATOM     45  C   GLY B   3     -11.114   1.537  -0.514  1.00 37.27 LIG 0.24  C 
ATOM     46  CD  PRO B   4      -9.891  -0.575  -1.148  1.00 31.08 LIG 0.13  C 
ATOM     47 O    GLY B   3     -11.277   2.471   0.278  1.00 44.84 LIG-0.27  OA
ATOM     48  CG  PRO B   4      -8.646  -1.150  -0.519  1.00 26.25 LIG 0.02  C 
ATOM     49  CB  PRO B   4      -8.726  -0.740   0.915  1.00 27.99 LIG 0.04  C 
BRANCH 45 50
ATOM     50  CA  GLY B   3     -11.986   1.392  -1.741  1.00 35.98 LIG 0.23  C 
BRANCH 50 51
ATOM     51  N   GLY B   3     -13.362   1.146  -1.378  1.00 37.88 LIG-0.35  N 
ATOM     52  C   TYR B   2     -13.722   0.131  -0.597  1.00 38.85 LIG 0.26  C 
ATOM     53 O    TYR B   2     -12.915  -0.622  -0.046  1.00 37.42 LIG-0.27  OA
ATOM     54 H    GLY B   3     -13.918   1.711  -1.711  1.00 37.88 LIG 0.16  HD
BRANCH 52 55
ATOM     55  CA  TYR B   2     -15.222  -0.052  -0.390  1.00 47.59 LIG 0.40  C 
ATOM     56  N   TYR B   2     -15.478  -0.846   0.812  1.00 42.90 LIG 0.61  N 
BRANCH 55 57
ATOM     57  CB  TYR B   2     -15.907   1.314  -0.301  1.00 41.46 LIG 0.09  C 
BRANCH 57 58
ATOM     58  CG  TYR B   2     -15.308   2.264   0.733  1.00 40.04 LIG-0.06  A 
ATOM     59  CD1 TYR B   2     -15.514   2.058   2.090  1.00 39.56 LIG 0.01  A 
ATOM     60  CE1 TYR B   2     -14.971   2.910   3.043  1.00 39.46 LIG 0.04  A 
ATOM     61  CZ  TYR B   2     -14.209   3.986   2.644  1.00 36.77 LIG 0.07  A 
ATOM     62  CE2 TYR B   2     -13.987   4.217   1.298  1.00 30.56 LIG 0.04  A 
ATOM     63  CD2 TYR B   2     -14.535   3.359   0.350  1.00 33.12 LIG 0.01  A 
BRANCH 61 64
ATOM     64 OH   TYR B   2     -13.674   4.821   3.613  1.00 37.21 LIG-0.36  OA
ATOM     65 HH   TYR B   2     -13.302   5.478   3.243  1.00 37.21 LIG 0.22  HD
ENDBRANCH 61 64
ENDBRANCH 57 58
ENDBRANCH 55 57
ENDBRANCH 52 55
ENDBRANCH 50 51
ENDBRANCH 45 50
ENDBRANCH 40 43
ENDBRANCH 1 39
TORSDOF 22
ENDMDL
MODEL 53
USER: ADFR SOLUTION from run 78
USER: SCORE 18.310466 LL:  -3.673 LR: -14.909 RR:   0.000 FEB:  -8.346
USER: RMSD 12.362107
USER: SEED 77
USER: STATUS no improvement in best in 23 clusters for 5 generations
USER: GENES 24
USER: genes 0 Translation |==|  0.65392 0.46789 0.50050
USER: genes 1 Rotation |==|  0.44938 0.04640 0.29583 0.50224
USER: genes 2 Torsion [C]-CA--CB-[CG] |==|  0.55855
USER: genes 3 Torsion [CA]-CB--CG-[CD] |==|  0.54401
USER: genes 4 Torsion [CB]-CG--CD-[CE] |==|  0.18862
USER: genes 5 Torsion [CG]-CD--CE-[NZ] |==|  0.38019
USER: genes 6 Torsion [CD]-CE--NZ-[HZ3] |==|  0.68708
USER: genes 7 Torsion [N]-CA--C-[N] |==|  0.39208
USER: genes 8 Torsion [C]-N--CA-[C] |==|  0.78443
USER: genes 9 Torsion [N]-CA--C-[N] |==|  0.43294
USER: genes 10 Torsion [C]-N--CA-[C] |==|  0.19876
USER: genes 11 Torsion [N]-CA--C-[O] |==|  0.77485
USER: genes 12 Torsion [N]-CA--CB-[CG] |==|  0.76311
USER: genes 13 Torsion [CA]-CB--CG-[ND2] |==|  0.30153
USER: genes 14 Torsion [N]-CA--CB-[CG] |==|  0.61796
USER: genes 15 Torsion [CA]-CB--CG-[CD2] |==|  0.61106
USER: genes 16 Torsion [CB]-CA--N-[C] |==|  0.85236
USER: genes 17 Torsion [N]-C--CA-[CB] |==|  0.06837
USER: genes 18 Torsion [N]-C--CA-[N] |==|  0.57443
USER: genes 19 Torsion [C]-CA--N-[C] |==|  0.16953
USER: genes 20 Torsion [N]-C--CA-[N] |==|  0.28461
USER: genes 21 Torsion [C]-CA--CB-[CG] |==|  0.08223
USER: genes 22 Torsion [CA]-CB--CG-[CD1] |==|  0.70217
USER: genes 23 Torsion [CE1]-CZ--OH-[HH] |==|  0.83933
ROOT
ATOM      1  CA  LYS B   5       1.068   4.198  -2.001  1.00 42.36 LIG 0.18  C 
ENDROOT
BRANCH 1 2
ATOM      2  CB  LYS B   5       1.217   3.154  -0.884  1.00 43.80 LIG 0.04  C 
BRANCH 2 3
ATOM      3  CG  LYS B   5       2.614   2.491  -0.788  1.00 49.23 LIG 0.00  C 
BRANCH 3 4
ATOM      4  CD  LYS B   5       2.616   1.212   0.056  1.00 48.54 LIG 0.03  C 
BRANCH 4 5
ATOM      5  CE  LYS B   5       1.834   0.101  -0.624  1.00 43.92 LIG 0.23  C 
BRANCH 5 6
ATOM      6  NZ  LYS B   5       2.578  -1.177  -0.510  1.00 45.51 LIG-0.08  N 
ATOM      7 HZ3  LYS B   5       2.856  -1.432  -1.317  1.00 45.51 LIG 0.27  HD
ATOM      8 HZ1  LYS B   5       3.281  -1.065   0.023  1.00 45.51 LIG 0.27  HD
ATOM      9 HZ2  LYS B   5       2.044  -1.802  -0.169  1.00 45.51 LIG 0.27  HD
ENDBRANCH 5 6
ENDBRANCH 4 5
ENDBRANCH 3 4
ENDBRANCH 2 3
ENDBRANCH 1 2
BRANCH 1 10
ATOM     10  C   LYS B   5      -0.105   5.129  -1.689  1.00 41.24 LIG 0.24  C 
ATOM     11  N   TRP B   6      -1.270   4.831  -2.265  1.00 42.23 LIG-0.35  N 
ATOM     12 H    TRP B   6      -1.386   4.186  -2.822  1.00 42.23 LIG 0.16  HD
ATOM     13 O    LYS B   5       0.034   6.105  -0.947  1.00 40.50 LIG-0.27  OA
BRANCH 11 14
ATOM     14  CA  TRP B   6      -2.469   5.612  -1.973  1.00 42.54 LIG 0.18  C 
BRANCH 14 15
ATOM     15  C   TRP B   6      -3.027   5.194  -0.614  1.00 45.00 LIG 0.24  C 
ATOM     16 O    TRP B   6      -2.775   4.073  -0.152  1.00 46.85 LIG-0.27  OA
ATOM     17  N   ASN B   7      -3.780   6.100   0.022  1.00 47.11 LIG-0.35  N 
ATOM     18 H    ASN B   7      -3.843   6.919  -0.230  1.00 47.11 LIG 0.16  HD
BRANCH 17 19
ATOM     19  CA  ASN B   7      -4.578   5.787   1.221  1.00 45.24 LIG 0.17  C 
BRANCH 19 20
ATOM     20  C   ASN B   7      -3.653   5.573   2.416  1.00 46.26 LIG 0.22  C 
ATOM     21 O    ASN B   7      -3.085   4.489   2.581  1.00 44.70 LIG-0.29  OA
ENDBRANCH 19 20
BRANCH 19 22
ATOM     22  CB  ASN B   7      -5.448   4.532   1.032  1.00 46.57 LIG 0.14  C 
BRANCH 22 23
ATOM     23  CG  ASN B   7      -6.788   4.827   0.365  1.00 48.94 LIG 0.22  C 
ATOM     24  ND2 ASN B   7      -6.936   4.403  -0.890  1.00 48.79 LIG-0.37  N 
ATOM     25 21HD ASN B   7      -7.672   4.548  -1.309  1.00 48.79 LIG 0.16  HD
ATOM     26 22HD ASN B   7      -6.294   3.983  -1.280  1.00 48.79 LIG 0.16  HD
ATOM     27 OD1  ASN B   7      -7.674   5.429   0.965  1.00 52.21 LIG-0.27  OA
ENDBRANCH 22 23
ENDBRANCH 19 22
ENDBRANCH 17 19
ENDBRANCH 14 15
BRANCH 14 28
ATOM     28  CB  TRP B   6      -3.541   5.450  -3.056  1.00 42.47 LIG 0.07  C 
BRANCH 28 29
ATOM     29  CG  TRP B   6      -4.188   6.785  -3.397  1.00 46.30 LIG-0.03  A 
ATOM     30  CD1 TRP B   6      -3.552   7.995  -3.548  1.00 49.14 LIG 0.10  A 
ATOM     31  NE1 TRP B   6      -4.461   8.973  -3.886  1.00 51.13 LIG-0.36  N 
ATOM     32 HE1  TRP B   6      -4.275   9.800  -4.028  1.00 51.13 LIG 0.17  HD
ATOM     33  CE2 TRP B   6      -5.711   8.413  -3.958  1.00 47.23 LIG 0.04  A 
ATOM     34  CZ2 TRP B   6      -6.945   9.001  -4.260  1.00 46.28 LIG 0.03  A 
ATOM     35  CD2 TRP B   6      -5.581   7.036  -3.661  1.00 41.81 LIG-0.00  A 
ATOM     36  CH2 TRP B   6      -8.054   8.188  -4.261  1.00 44.17 LIG 0.00  A 
ATOM     37  CZ3 TRP B   6      -7.960   6.827  -3.964  1.00 33.54 LIG 0.00  A 
ATOM     38  CE3 TRP B   6      -6.727   6.237  -3.663  1.00 38.27 LIG 0.01  A 
ENDBRANCH 28 29
ENDBRANCH 14 28
ENDBRANCH 11 14
ENDBRANCH 1 10
BRANCH 1 39
ATOM     39  N   LYS B   5       2.301   4.965  -2.158  1.00 39.73 LIG-0.35  N 
ATOM     40  C   PRO B   4       2.904   5.590  -1.148  1.00 35.29 LIG 0.24  C 
ATOM     41 O    PRO B   4       2.465   5.589   0.002  1.00 36.70 LIG-0.27  OA
ATOM     42 H    LYS B   5       2.601   4.975  -2.963  1.00 39.73 LIG 0.16  HD
BRANCH 40 43
ATOM     43  CA  PRO B   4       4.194   6.308  -1.497  1.00 31.05 LIG 0.18  C 
ATOM     44  N   PRO B   4       5.351   5.425  -1.354  1.00 34.55 LIG-0.34  N 
ATOM     45  C   GLY B   3       5.877   5.196  -0.151  1.00 37.27 LIG 0.24  C 
ATOM     46  CD  PRO B   4       5.870   4.993  -2.665  1.00 31.08 LIG 0.13  C 
ATOM     47 O    GLY B   3       5.383   5.672   0.876  1.00 44.84 LIG-0.27  OA
ATOM     48  CG  PRO B   4       4.813   5.470  -3.630  1.00 26.25 LIG 0.02  C 
ATOM     49  CB  PRO B   4       4.233   6.683  -2.981  1.00 27.99 LIG 0.04  C 
BRANCH 45 50
ATOM     50  CA  GLY B   3       7.099   4.307  -0.090  1.00 35.98 LIG 0.23  C 
BRANCH 50 51
ATOM     51  N   GLY B   3       7.200   3.643   1.188  1.00 37.88 LIG-0.35  N 
ATOM     52  C   TYR B   2       6.263   2.810   1.633  1.00 38.85 LIG 0.26  C 
ATOM     53 O    TYR B   2       5.287   2.464   0.963  1.00 37.42 LIG-0.27  OA
ATOM     54 H    GLY B   3       7.913   3.835   1.628  1.00 37.88 LIG 0.16  HD
BRANCH 52 55
ATOM     55  CA  TYR B   2       6.467   2.269   3.045  1.00 47.59 LIG 0.40  C 
ATOM     56  N   TYR B   2       5.598   2.971   3.990  1.00 42.90 LIG 0.61  N 
BRANCH 55 57
ATOM     57  CB  TYR B   2       6.200   0.762   3.071  1.00 41.46 LIG 0.09  C 
BRANCH 57 58
ATOM     58  CG  TYR B   2       6.500   0.036   1.761  1.00 40.04 LIG-0.06  A 
ATOM     59  CD1 TYR B   2       5.470  -0.423   0.953  1.00 39.56 LIG 0.01  A 
ATOM     60  CE1 TYR B   2       5.726  -1.080  -0.244  1.00 39.46 LIG 0.04  A 
ATOM     61  CZ  TYR B   2       7.028  -1.284  -0.647  1.00 36.77 LIG 0.07  A 
ATOM     62  CE2 TYR B   2       8.074  -0.838   0.139  1.00 30.56 LIG 0.04  A 
ATOM     63  CD2 TYR B   2       7.809  -0.181   1.336  1.00 33.12 LIG 0.01  A 
BRANCH 61 64
ATOM     64 OH   TYR B   2       7.259  -1.938  -1.847  1.00 37.21 LIG-0.36  OA
ATOM     65 HH   TYR B   2       6.898  -2.697  -1.828  1.00 37.21 LIG 0.22  HD
ENDBRANCH 61 64
ENDBRANCH 57 58
ENDBRANCH 55 57
ENDBRANCH 52 55
ENDBRANCH 50 51
ENDBRANCH 45 50
ENDBRANCH 40 43
ENDBRANCH 1 39
TORSDOF 22
ENDMDL
MODEL 54
USER: ADFR SOLUTION from run 55
USER: SCORE 18.082024 LL:  -4.566 LR: -14.897 RR:   0.000 FEB:  -8.334
USER: RMSD 12.557376
USER: SEED 54
USER: STATUS no improvement in best in 7 clusters for 5 generations
USER: GENES 24
USER: genes 0 Translation |==|  0.37603 0.39578 0.58344
USER: genes 1 Rotation |==|  0.70728 0.04538 0.48500 0.51120
USER: genes 2 Torsion [C]-CA--CB-[CG] |==|  0.66482
USER: genes 3 Torsion [CA]-CB--CG-[CD] |==|  0.63330
USER: genes 4 Torsion [CB]-CG--CD-[CE] |==|  0.29018
USER: genes 5 Torsion [CG]-CD--CE-[NZ] |==|  0.19950
USER: genes 6 Torsion [CD]-CE--NZ-[HZ3] |==|  0.91010
USER: genes 7 Torsion [N]-CA--C-[N] |==|  0.67715
USER: genes 8 Torsion [C]-N--CA-[C] |==|  0.56956
USER: genes 9 Torsion [N]-CA--C-[N] |==|  0.38951
USER: genes 10 Torsion [C]-N--CA-[C] |==|  0.16908
USER: genes 11 Torsion [N]-CA--C-[O] |==|  0.56316
USER: genes 12 Torsion [N]-CA--CB-[CG] |==|  0.54382
USER: genes 13 Torsion [CA]-CB--CG-[ND2] |==|  0.14866
USER: genes 14 Torsion [N]-CA--CB-[CG] |==|  0.05233
USER: genes 15 Torsion [CA]-CB--CG-[CD2] |==|  0.74028
USER: genes 16 Torsion [CB]-CA--N-[C] |==|  0.21111
USER: genes 17 Torsion [N]-C--CA-[CB] |==|  0.88436
USER: genes 18 Torsion [N]-C--CA-[N] |==|  0.14287
USER: genes 19 Torsion [C]-CA--N-[C] |==|  0.17000
USER: genes 20 Torsion [N]-C--CA-[N] |==|  0.85296
USER: genes 21 Torsion [C]-CA--CB-[CG] |==|  0.20924
USER: genes 22 Torsion [CA]-CB--CG-[CD1] |==|  0.34065
USER: genes 23 Torsion [CE1]-CZ--OH-[HH] |==|  0.61462
ROOT
ATOM      1  CA  LYS B   5      -7.269   2.792  -0.571  1.00 42.36 LIG 0.18  C 
ENDROOT
BRANCH 1 2
ATOM      2  CB  LYS B   5      -7.153   3.031   0.943  1.00 43.80 LIG 0.04  C 
BRANCH 2 3
ATOM      3  CG  LYS B   5      -6.895   4.501   1.356  1.00 49.23 LIG 0.00  C 
BRANCH 3 4
ATOM      4  CD  LYS B   5      -5.757   4.650   2.372  1.00 48.54 LIG 0.03  C 
BRANCH 4 5
ATOM      5  CE  LYS B   5      -4.497   5.185   1.714  1.00 43.92 LIG 0.23  C 
BRANCH 5 6
ATOM      6  NZ  LYS B   5      -4.680   6.616   1.372  1.00 45.51 LIG-0.08  N 
ATOM      7 HZ3  LYS B   5      -5.533   6.766   1.167  1.00 45.51 LIG 0.27  HD
ATOM      8 HZ1  LYS B   5      -4.449   7.120   2.067  1.00 45.51 LIG 0.27  HD
ATOM      9 HZ2  LYS B   5      -4.168   6.823   0.674  1.00 45.51 LIG 0.27  HD
ENDBRANCH 5 6
ENDBRANCH 4 5
ENDBRANCH 3 4
ENDBRANCH 2 3
ENDBRANCH 1 2
BRANCH 1 10
ATOM     10  C   LYS B   5      -8.637   2.192  -0.898  1.00 41.24 LIG 0.24  C 
ATOM     11  N   TRP B   6      -9.504   2.104   0.111  1.00 42.23 LIG-0.35  N 
ATOM     12 H    TRP B   6      -9.327   2.320   0.924  1.00 42.23 LIG 0.16  HD
ATOM     13 O    LYS B   5      -8.910   1.807  -2.039  1.00 40.50 LIG-0.27  OA
BRANCH 11 14
ATOM     14  CA  TRP B   6     -10.863   1.616  -0.112  1.00 42.54 LIG 0.18  C 
BRANCH 14 15
ATOM     15  C   TRP B   6     -11.785   2.177   0.969  1.00 45.00 LIG 0.24  C 
ATOM     16 O    TRP B   6     -11.395   2.262   2.142  1.00 46.85 LIG-0.27  OA
ATOM     17  N   ASN B   7     -13.004   2.560   0.569  1.00 47.11 LIG-0.35  N 
ATOM     18 H    ASN B   7     -13.227   2.629  -0.258  1.00 47.11 LIG 0.16  HD
BRANCH 17 19
ATOM     19  CA  ASN B   7     -14.089   2.903   1.505  1.00 45.24 LIG 0.17  C 
BRANCH 19 20
ATOM     20  C   ASN B   7     -13.670   4.088   2.371  1.00 46.26 LIG 0.22  C 
ATOM     21 O    ASN B   7     -14.205   4.284   3.466  1.00 44.70 LIG-0.29  OA
ENDBRANCH 19 20
BRANCH 19 22
ATOM     22  CB  ASN B   7     -14.466   1.726   2.420  1.00 46.57 LIG 0.14  C 
BRANCH 22 23
ATOM     23  CG  ASN B   7     -15.810   1.915   3.118  1.00 48.94 LIG 0.22  C 
ATOM     24  ND2 ASN B   7     -16.855   2.187   2.336  1.00 48.79 LIG-0.37  N 
ATOM     25 21HD ASN B   7     -17.633   2.306   2.684  1.00 48.79 LIG 0.16  HD
ATOM     26 22HD ASN B   7     -16.751   2.244   1.484  1.00 48.79 LIG 0.16  HD
ATOM     27 OD1  ASN B   7     -15.907   1.823   4.338  1.00 52.21 LIG-0.27  OA
ENDBRANCH 22 23
ENDBRANCH 19 22
ENDBRANCH 17 19
ENDBRANCH 14 15
BRANCH 14 28
ATOM     28  CB  TRP B   6     -10.932   0.086  -0.124  1.00 42.47 LIG 0.07  C 
BRANCH 28 29
ATOM     29  CG  TRP B   6      -9.708  -0.528   0.541  1.00 46.30 LIG-0.03  A 
ATOM     30  CD1 TRP B   6      -9.552  -0.815   1.877  1.00 49.14 LIG 0.10  A 
ATOM     31  NE1 TRP B   6      -8.322  -1.393   2.100  1.00 51.13 LIG-0.36  N 
ATOM     32 HE1  TRP B   6      -8.022  -1.650   2.863  1.00 51.13 LIG 0.17  HD
ATOM     33  CE2 TRP B   6      -7.653  -1.490   0.907  1.00 47.23 LIG 0.04  A 
ATOM     34  CZ2 TRP B   6      -6.379  -2.000   0.628  1.00 46.28 LIG 0.03  A 
ATOM     35  CD2 TRP B   6      -8.494  -0.961  -0.100  1.00 41.81 LIG-0.00  A 
ATOM     36  CH2 TRP B   6      -5.955  -1.973  -0.680  1.00 44.17 LIG 0.00  A 
ATOM     37  CZ3 TRP B   6      -6.758  -1.449  -1.696  1.00 33.54 LIG 0.00  A 
ATOM     38  CE3 TRP B   6      -8.032  -0.941  -1.419  1.00 38.27 LIG 0.01  A 
ENDBRANCH 28 29
ENDBRANCH 14 28
ENDBRANCH 11 14
ENDBRANCH 1 10
BRANCH 1 39
ATOM     39  N   LYS B   5      -7.069   4.038  -1.306  1.00 39.73 LIG-0.35  N 
ATOM     40  C   PRO B   4      -5.872   4.592  -1.490  1.00 35.29 LIG 0.24  C 
ATOM     41 O    PRO B   4      -4.831   4.110  -1.042  1.00 36.70 LIG-0.27  OA
ATOM     42 H    LYS B   5      -7.797   4.380  -1.609  1.00 39.73 LIG 0.16  HD
BRANCH 40 43
ATOM     43  CA  PRO B   4      -5.858   5.869  -2.309  1.00 31.05 LIG 0.18  C 
ATOM     44  N   PRO B   4      -4.554   6.087  -2.935  1.00 34.55 LIG-0.34  N 
ATOM     45  C   GLY B   3      -3.548   6.602  -2.229  1.00 37.27 LIG 0.24  C 
ATOM     46  CD  PRO B   4      -4.590   5.800  -4.380  1.00 31.08 LIG 0.13  C 
ATOM     47 O    GLY B   3      -3.663   6.861  -1.027  1.00 44.84 LIG-0.27  OA
ATOM     48  CG  PRO B   4      -5.941   5.156  -4.572  1.00 26.25 LIG 0.02  C 
ATOM     49  CB  PRO B   4      -6.800   5.763  -3.513  1.00 27.99 LIG 0.04  C 
BRANCH 45 50
ATOM     50  CA  GLY B   3      -2.243   6.838  -2.958  1.00 35.98 LIG 0.23  C 
BRANCH 50 51
ATOM     51  N   GLY B   3      -2.453   7.593  -4.171  1.00 37.88 LIG-0.35  N 
ATOM     52  C   TYR B   2      -2.960   8.823  -4.166  1.00 38.85 LIG 0.26  C 
ATOM     53 O    TYR B   2      -3.203   9.454  -3.134  1.00 37.42 LIG-0.27  OA
ATOM     54 H    GLY B   3      -2.222   7.177  -4.887  1.00 37.88 LIG 0.16  HD
BRANCH 52 55
ATOM     55  CA  TYR B   2      -3.213   9.446  -5.535  1.00 47.59 LIG 0.40  C 
ATOM     56  N   TYR B   2      -2.004   9.385  -6.355  1.00 42.90 LIG 0.61  N 
BRANCH 55 57
ATOM     57  CB  TYR B   2      -4.379   8.732  -6.225  1.00 41.46 LIG 0.09  C 
BRANCH 57 58
ATOM     58  CG  TYR B   2      -5.760   9.089  -5.682  1.00 40.04 LIG-0.06  A 
ATOM     59  CD1 TYR B   2      -6.740   9.606  -6.518  1.00 39.56 LIG 0.01  A 
ATOM     60  CE1 TYR B   2      -8.003   9.931  -6.041  1.00 39.46 LIG 0.04  A 
ATOM     61  CZ  TYR B   2      -8.301   9.739  -4.709  1.00 36.77 LIG 0.07  A 
ATOM     62  CE2 TYR B   2      -7.345   9.225  -3.853  1.00 30.56 LIG 0.04  A 
ATOM     63  CD2 TYR B   2      -6.082   8.903  -4.339  1.00 33.12 LIG 0.01  A 
BRANCH 61 64
ATOM     64 OH   TYR B   2      -9.570  10.067  -4.256  1.00 37.21 LIG-0.36  OA
ATOM     65 HH   TYR B   2      -9.511  10.445  -3.508  1.00 37.21 LIG 0.22  HD
ENDBRANCH 61 64
ENDBRANCH 57 58
ENDBRANCH 55 57
ENDBRANCH 52 55
ENDBRANCH 50 51
ENDBRANCH 45 50
ENDBRANCH 40 43
ENDBRANCH 1 39
TORSDOF 22
ENDMDL
MODEL 55
USER: ADFR SOLUTION from run 4
USER: SCORE 17.814612 LL:  -4.258 LR: -14.895 RR:   0.000 FEB:  -8.332
USER: RMSD 11.926284
USER: SEED 261030
USER: STATUS no improvement in best in 4 clusters for 5 generations
USER: GENES 24
USER: genes 0 Translation |==|  0.40473 0.42409 0.59028
USER: genes 1 Rotation |==|  0.40048 0.92119 0.25153 0.53092
USER: genes 2 Torsion [C]-CA--CB-[CG] |==|  0.33742
USER: genes 3 Torsion [CA]-CB--CG-[CD] |==|  0.30475
USER: genes 4 Torsion [CB]-CG--CD-[CE] |==|  0.65158
USER: genes 5 Torsion [CG]-CD--CE-[NZ] |==|  0.97988
USER: genes 6 Torsion [CD]-CE--NZ-[HZ3] |==|  0.81555
USER: genes 7 Torsion [N]-CA--C-[N] |==|  0.50406
USER: genes 8 Torsion [C]-N--CA-[C] |==|  0.53333
USER: genes 9 Torsion [N]-CA--C-[N] |==|  0.42883
USER: genes 10 Torsion [C]-N--CA-[C] |==|  0.55892
USER: genes 11 Torsion [N]-CA--C-[O] |==|  0.02096
USER: genes 12 Torsion [N]-CA--CB-[CG] |==|  0.62658
USER: genes 13 Torsion [CA]-CB--CG-[ND2] |==|  0.39699
USER: genes 14 Torsion [N]-CA--CB-[CG] |==|  0.15252
USER: genes 15 Torsion [CA]-CB--CG-[CD2] |==|  0.68611
USER: genes 16 Torsion [CB]-CA--N-[C] |==|  0.17971
USER: genes 17 Torsion [N]-C--CA-[CB] |==|  0.63961
USER: genes 18 Torsion [N]-C--CA-[N] |==|  0.44872
USER: genes 19 Torsion [C]-CA--N-[C] |==|  0.28264
USER: genes 20 Torsion [N]-C--CA-[N] |==|  0.99376
USER: genes 21 Torsion [C]-CA--CB-[CG] |==|  0.86441
USER: genes 22 Torsion [CA]-CB--CG-[CD1] |==|  0.26793
USER: genes 23 Torsion [CE1]-CZ--OH-[HH] |==|  0.08357
ROOT
ATOM      1  CA  LYS B   5      -6.408   3.344  -0.453  1.00 42.36 LIG 0.18  C 
ENDROOT
BRANCH 1 2
ATOM      2  CB  LYS B   5      -6.700   4.738   0.122  1.00 43.80 LIG 0.04  C 
BRANCH 2 3
ATOM      3  CG  LYS B   5      -6.393   4.904   1.631  1.00 49.23 LIG 0.00  C 
BRANCH 3 4
ATOM      4  CD  LYS B   5      -5.181   5.800   1.904  1.00 48.54 LIG 0.03  C 
BRANCH 4 5
ATOM      5  CE  LYS B   5      -4.154   5.091   2.770  1.00 43.92 LIG 0.23  C 
BRANCH 5 6
ATOM      6  NZ  LYS B   5      -4.705   3.798   3.242  1.00 45.51 LIG-0.08  N 
ATOM      7 HZ3  LYS B   5      -5.386   3.949   3.796  1.00 45.51 LIG 0.27  HD
ATOM      8 HZ1  LYS B   5      -4.989   3.324   2.546  1.00 45.51 LIG 0.27  HD
ATOM      9 HZ2  LYS B   5      -4.071   3.343   3.671  1.00 45.51 LIG 0.27  HD
ENDBRANCH 5 6
ENDBRANCH 4 5
ENDBRANCH 3 4
ENDBRANCH 2 3
ENDBRANCH 1 2
BRANCH 1 10
ATOM     10  C   LYS B   5      -7.684   2.751  -1.052  1.00 41.24 LIG 0.24  C 
ATOM     11  N   TRP B   6      -8.737   2.661  -0.238  1.00 42.23 LIG-0.35  N 
ATOM     12 H    TRP B   6      -8.726   2.872   0.596  1.00 42.23 LIG 0.16  HD
ATOM     13 O    LYS B   5      -7.724   2.374  -2.226  1.00 40.50 LIG-0.27  OA
BRANCH 11 14
ATOM     14  CA  TRP B   6     -10.024   2.179  -0.732  1.00 42.54 LIG 0.18  C 
BRANCH 14 15
ATOM     15  C   TRP B   6     -11.103   2.459   0.313  1.00 45.00 LIG 0.24  C 
ATOM     16 O    TRP B   6     -10.803   2.562   1.510  1.00 46.85 LIG-0.27  OA
ATOM     17  N   ASN B   7     -12.355   2.583  -0.145  1.00 47.11 LIG-0.35  N 
ATOM     18 H    ASN B   7     -12.545   2.646  -0.981  1.00 47.11 LIG 0.16  HD
BRANCH 17 19
ATOM     19  CA  ASN B   7     -13.536   2.623   0.735  1.00 45.24 LIG 0.17  C 
BRANCH 19 20
ATOM     20  C   ASN B   7     -14.785   2.244  -0.058  1.00 46.26 LIG 0.22  C 
ATOM     21 O    ASN B   7     -14.688   1.829  -1.217  1.00 44.70 LIG-0.29  OA
ENDBRANCH 19 20
BRANCH 19 22
ATOM     22  CB  ASN B   7     -13.748   4.010   1.365  1.00 46.57 LIG 0.14  C 
BRANCH 22 23
ATOM     23  CG  ASN B   7     -14.055   3.948   2.859  1.00 48.94 LIG 0.22  C 
ATOM     24  ND2 ASN B   7     -13.533   4.914   3.615  1.00 48.79 LIG-0.37  N 
ATOM     25 21HD ASN B   7     -13.675   4.920   4.463  1.00 48.79 LIG 0.16  HD
ATOM     26 22HD ASN B   7     -13.055   5.531   3.255  1.00 48.79 LIG 0.16  HD
ATOM     27 OD1  ASN B   7     -14.745   3.046   3.326  1.00 52.21 LIG-0.27  OA
ENDBRANCH 22 23
ENDBRANCH 19 22
ENDBRANCH 17 19
ENDBRANCH 14 15
BRANCH 14 28
ATOM     28  CB  TRP B   6      -9.991   0.686  -1.070  1.00 42.47 LIG 0.07  C 
BRANCH 28 29
ATOM     29  CG  TRP B   6      -9.517  -0.140   0.118  1.00 46.30 LIG-0.03  A 
ATOM     30  CD1 TRP B   6     -10.192  -0.349   1.297  1.00 49.14 LIG 0.10  A 
ATOM     31  NE1 TRP B   6      -9.463  -1.176   2.124  1.00 51.13 LIG-0.36  N 
ATOM     32 HE1  TRP B   6      -9.702  -1.434   2.908  1.00 51.13 LIG 0.17  HD
ATOM     33  CE2 TRP B   6      -8.295  -1.518   1.493  1.00 47.23 LIG 0.04  A 
ATOM     34  CZ2 TRP B   6      -7.240  -2.329   1.929  1.00 46.28 LIG 0.03  A 
ATOM     35  CD2 TRP B   6      -8.293  -0.890   0.225  1.00 41.81 LIG-0.00  A 
ATOM     36  CH2 TRP B   6      -6.176  -2.502   1.076  1.00 44.17 LIG 0.00  A 
ATOM     37  CZ3 TRP B   6      -6.140  -1.889  -0.179  1.00 33.54 LIG 0.00  A 
ATOM     38  CE3 TRP B   6      -7.195  -1.080  -0.617  1.00 38.27 LIG 0.01  A 
ENDBRANCH 28 29
ENDBRANCH 14 28
ENDBRANCH 11 14
ENDBRANCH 1 10
BRANCH 1 39
ATOM     39  N   LYS B   5      -5.355   3.413  -1.462  1.00 39.73 LIG-0.35  N 
ATOM     40  C   PRO B   4      -4.102   3.769  -1.185  1.00 35.29 LIG 0.24  C 
ATOM     41 O    PRO B   4      -3.727   4.088  -0.057  1.00 36.70 LIG-0.27  OA
ATOM     42 H    LYS B   5      -5.619   3.202  -2.252  1.00 39.73 LIG 0.16  HD
BRANCH 40 43
ATOM     43  CA  PRO B   4      -3.139   3.750  -2.358  1.00 31.05 LIG 0.18  C 
ATOM     44  N   PRO B   4      -2.632   5.090  -2.653  1.00 34.55 LIG-0.34  N 
ATOM     45  C   GLY B   3      -3.372   5.949  -3.354  1.00 37.27 LIG 0.24  C 
ATOM     46  CD  PRO B   4      -1.237   5.254  -2.206  1.00 31.08 LIG 0.13  C 
ATOM     47 O    GLY B   3      -4.514   5.667  -3.730  1.00 44.84 LIG-0.27  OA
ATOM     48  CG  PRO B   4      -0.984   4.008  -1.395  1.00 26.25 LIG 0.02  C 
ATOM     49  CB  PRO B   4      -1.865   2.973  -2.013  1.00 27.99 LIG 0.04  C 
BRANCH 45 50
ATOM     50  CA  GLY B   3      -2.761   7.299  -3.656  1.00 35.98 LIG 0.23  C 
BRANCH 50 51
ATOM     51  N   GLY B   3      -3.448   7.951  -4.747  1.00 37.88 LIG-0.35  N 
ATOM     52  C   TYR B   2      -4.334   8.923  -4.551  1.00 38.85 LIG 0.26  C 
ATOM     53 O    TYR B   2      -4.574   9.411  -3.444  1.00 37.42 LIG-0.27  OA
ATOM     54 H    GLY B   3      -3.231   7.654  -5.524  1.00 37.88 LIG 0.16  HD
BRANCH 52 55
ATOM     55  CA  TYR B   2      -5.046   9.438  -5.798  1.00 47.59 LIG 0.40  C 
ATOM     56  N   TYR B   2      -4.541   8.758  -6.990  1.00 42.90 LIG 0.61  N 
BRANCH 55 57
ATOM     57  CB  TYR B   2      -6.558   9.242  -5.654  1.00 41.46 LIG 0.09  C 
BRANCH 57 58
ATOM     58  CG  TYR B   2      -6.983   7.846  -5.205  1.00 40.04 LIG-0.06  A 
ATOM     59  CD1 TYR B   2      -7.246   7.580  -3.869  1.00 39.56 LIG 0.01  A 
ATOM     60  CE1 TYR B   2      -7.638   6.317  -3.445  1.00 39.46 LIG 0.04  A 
ATOM     61  CZ  TYR B   2      -7.774   5.299  -4.364  1.00 36.77 LIG 0.07  A 
ATOM     62  CE2 TYR B   2      -7.519   5.535  -5.702  1.00 30.56 LIG 0.04  A 
ATOM     63  CD2 TYR B   2      -7.125   6.803  -6.118  1.00 33.12 LIG 0.01  A 
BRANCH 61 64
ATOM     64 OH   TYR B   2      -8.171   4.048  -3.918  1.00 37.21 LIG-0.36  OA
ATOM     65 HH   TYR B   2      -8.662   4.133  -3.242  1.00 37.21 LIG 0.22  HD
ENDBRANCH 61 64
ENDBRANCH 57 58
ENDBRANCH 55 57
ENDBRANCH 52 55
ENDBRANCH 50 51
ENDBRANCH 45 50
ENDBRANCH 40 43
ENDBRANCH 1 39
TORSDOF 22
ENDMDL
MODEL 56
USER: ADFR SOLUTION from run 1
USER: SCORE 17.943249 LL:  -4.664 LR: -14.875 RR:   0.000 FEB:  -8.313
USER: RMSD 11.647736
USER: SEED 267010
USER: STATUS no improvement in best in 6 clusters for 5 generations
USER: GENES 24
USER: genes 0 Translation |==|  0.65015 0.46419 0.48680
USER: genes 1 Rotation |==|  0.59249 0.83070 0.84560 0.61243
USER: genes 2 Torsion [C]-CA--CB-[CG] |==|  0.76920
USER: genes 3 Torsion [CA]-CB--CG-[CD] |==|  0.62334
USER: genes 4 Torsion [CB]-CG--CD-[CE] |==|  0.34966
USER: genes 5 Torsion [CG]-CD--CE-[NZ] |==|  0.53697
USER: genes 6 Torsion [CD]-CE--NZ-[HZ3] |==|  0.79789
USER: genes 7 Torsion [N]-CA--C-[N] |==|  0.53124
USER: genes 8 Torsion [C]-N--CA-[C] |==|  0.73404
USER: genes 9 Torsion [N]-CA--C-[N] |==|  0.46428
USER: genes 10 Torsion [C]-N--CA-[C] |==|  0.21876
USER: genes 11 Torsion [N]-CA--C-[O] |==|  0.12731
USER: genes 12 Torsion [N]-CA--CB-[CG] |==|  0.74598
USER: genes 13 Torsion [CA]-CB--CG-[ND2] |==|  0.32009
USER: genes 14 Torsion [N]-CA--CB-[CG] |==|  0.73718
USER: genes 15 Torsion [CA]-CB--CG-[CD2] |==|  0.16685
USER: genes 16 Torsion [CB]-CA--N-[C] |==|  0.48893
USER: genes 17 Torsion [N]-C--CA-[CB] |==|  0.47654
USER: genes 18 Torsion [N]-C--CA-[N] |==|  0.30191
USER: genes 19 Torsion [C]-CA--N-[C] |==|  0.25529
USER: genes 20 Torsion [N]-C--CA-[N] |==|  0.92544
USER: genes 21 Torsion [C]-CA--CB-[CG] |==|  0.83727
USER: genes 22 Torsion [CA]-CB--CG-[CD1] |==|  0.75038
USER: genes 23 Torsion [CE1]-CZ--OH-[HH] |==|  0.78070
ROOT
ATOM      1  CA  LYS B   5       0.955   4.126  -2.238  1.00 42.36 LIG 0.18  C 
ENDROOT
BRANCH 1 2
ATOM      2  CB  LYS B   5       0.302   2.739  -2.134  1.00 43.80 LIG 0.04  C 
BRANCH 2 3
ATOM      3  CG  LYS B   5       0.462   2.039  -0.761  1.00 49.23 LIG 0.00  C 
BRANCH 3 4
ATOM      4  CD  LYS B   5       0.841   0.559  -0.880  1.00 48.54 LIG 0.03  C 
BRANCH 4 5
ATOM      5  CE  LYS B   5       2.094   0.245  -0.081  1.00 43.92 LIG 0.23  C 
BRANCH 5 6
ATOM      6  NZ  LYS B   5       2.611  -1.090  -0.466  1.00 45.51 LIG-0.08  N 
ATOM      7 HZ3  LYS B   5       2.079  -1.723  -0.135  1.00 45.51 LIG 0.27  HD
ATOM      8 HZ1  LYS B   5       2.632  -1.156  -1.353  1.00 45.51 LIG 0.27  HD
ATOM      9 HZ2  LYS B   5       3.433  -1.196  -0.142  1.00 45.51 LIG 0.27  HD
ENDBRANCH 5 6
ENDBRANCH 4 5
ENDBRANCH 3 4
ENDBRANCH 2 3
ENDBRANCH 1 2
BRANCH 1 10
ATOM     10  C   LYS B   5       0.016   5.186  -1.660  1.00 41.24 LIG 0.24  C 
ATOM     11  N   TRP B   6      -1.259   5.124  -2.044  1.00 42.23 LIG-0.35  N 
ATOM     12 H    TRP B   6      -1.567   4.562  -2.618  1.00 42.23 LIG 0.16  HD
ATOM     13 O    LYS B   5       0.431   6.052  -0.885  1.00 40.50 LIG-0.27  OA
BRANCH 11 14
ATOM     14  CA  TRP B   6      -2.252   6.042  -1.493  1.00 42.54 LIG 0.18  C 
BRANCH 14 15
ATOM     15  C   TRP B   6      -2.971   5.369  -0.326  1.00 45.00 LIG 0.24  C 
ATOM     16 O    TRP B   6      -2.848   4.152  -0.134  1.00 46.85 LIG-0.27  OA
ATOM     17  N   ASN B   7      -3.716   6.165   0.451  1.00 47.11 LIG-0.35  N 
ATOM     18 H    ASN B   7      -3.695   7.023   0.402  1.00 47.11 LIG 0.16  HD
BRANCH 17 19
ATOM     19  CA  ASN B   7      -4.651   5.654   1.469  1.00 45.24 LIG 0.17  C 
BRANCH 19 20
ATOM     20  C   ASN B   7      -3.878   5.240   2.719  1.00 46.26 LIG 0.22  C 
ATOM     21 O    ASN B   7      -3.005   5.977   3.187  1.00 44.70 LIG-0.29  OA
ENDBRANCH 19 20
BRANCH 19 22
ATOM     22  CB  ASN B   7      -5.463   4.450   0.964  1.00 46.57 LIG 0.14  C 
BRANCH 22 23
ATOM     23  CG  ASN B   7      -6.790   4.847   0.323  1.00 48.94 LIG 0.22  C 
ATOM     24  ND2 ASN B   7      -6.925   4.588  -0.977  1.00 48.79 LIG-0.37  N 
ATOM     25 21HD ASN B   7      -7.654   4.797  -1.384  1.00 48.79 LIG 0.16  HD
ATOM     26 22HD ASN B   7      -6.285   4.211  -1.410  1.00 48.79 LIG 0.16  HD
ATOM     27 OD1  ASN B   7      -7.675   5.383   0.984  1.00 52.21 LIG-0.27  OA
ENDBRANCH 22 23
ENDBRANCH 19 22
ENDBRANCH 17 19
ENDBRANCH 14 15
BRANCH 14 28
ATOM     28  CB  TRP B   6      -3.266   6.497  -2.547  1.00 42.47 LIG 0.07  C 
BRANCH 28 29
ATOM     29  CG  TRP B   6      -2.853   7.820  -3.177  1.00 46.30 LIG-0.03  A 
ATOM     30  CD1 TRP B   6      -3.549   9.005  -3.134  1.00 49.14 LIG 0.10  A 
ATOM     31  NE1 TRP B   6      -2.850   9.993  -3.792  1.00 51.13 LIG-0.36  N 
ATOM     32 HE1  TRP B   6      -3.105  10.809  -3.883  1.00 51.13 LIG 0.17  HD
ATOM     33  CE2 TRP B   6      -1.682   9.464  -4.277  1.00 47.23 LIG 0.04  A 
ATOM     34  CZ2 TRP B   6      -0.654  10.070  -5.009  1.00 46.28 LIG 0.03  A 
ATOM     35  CD2 TRP B   6      -1.645   8.099  -3.907  1.00 41.81 LIG-0.00  A 
ATOM     36  CH2 TRP B   6       0.418   9.288  -5.369  1.00 44.17 LIG 0.00  A 
ATOM     37  CZ3 TRP B   6       0.481   7.935  -5.026  1.00 33.54 LIG 0.00  A 
ATOM     38  CE3 TRP B   6      -0.545   7.328  -4.293  1.00 38.27 LIG 0.01  A 
ENDBRANCH 28 29
ENDBRANCH 14 28
ENDBRANCH 11 14
ENDBRANCH 1 10
BRANCH 1 39
ATOM     39  N   LYS B   5       2.238   4.145  -1.540  1.00 39.73 LIG-0.35  N 
ATOM     40  C   PRO B   4       3.051   5.199  -1.537  1.00 35.29 LIG 0.24  C 
ATOM     41 O    PRO B   4       2.799   6.244  -2.137  1.00 36.70 LIG-0.27  OA
ATOM     42 H    LYS B   5       2.418   3.411  -1.130  1.00 39.73 LIG 0.16  HD
BRANCH 40 43
ATOM     43  CA  PRO B   4       4.326   5.044  -0.728  1.00 31.05 LIG 0.18  C 
ATOM     44  N   PRO B   4       5.111   3.899  -1.187  1.00 34.55 LIG-0.34  N 
ATOM     45  C   GLY B   3       4.789   2.665  -0.800  1.00 37.27 LIG 0.24  C 
ATOM     46  CD  PRO B   4       6.293   4.325  -1.959  1.00 31.08 LIG 0.13  C 
ATOM     47 O    GLY B   3       3.801   2.442  -0.093  1.00 44.84 LIG-0.27  OA
ATOM     48  CG  PRO B   4       6.062   5.802  -2.158  1.00 26.25 LIG 0.02  C 
ATOM     49  CB  PRO B   4       5.274   6.224  -0.962  1.00 27.99 LIG 0.04  C 
BRANCH 45 50
ATOM     50  CA  GLY B   3       5.676   1.538  -1.280  1.00 35.98 LIG 0.23  C 
BRANCH 50 51
ATOM     51  N   GLY B   3       6.467   0.998  -0.199  1.00 37.88 LIG-0.35  N 
ATOM     52  C   TYR B   2       6.058  -0.030   0.538  1.00 38.85 LIG 0.26  C 
ATOM     53 O    TYR B   2       5.026  -0.665   0.307  1.00 37.42 LIG-0.27  OA
ATOM     54 H    GLY B   3       7.218   1.401  -0.080  1.00 37.88 LIG 0.16  HD
BRANCH 52 55
ATOM     55  CA  TYR B   2       6.962  -0.415   1.705  1.00 47.59 LIG 0.40  C 
ATOM     56  N   TYR B   2       8.345  -0.030   1.427  1.00 42.90 LIG 0.61  N 
BRANCH 55 57
ATOM     57  CB  TYR B   2       6.458   0.241   2.994  1.00 41.46 LIG 0.09  C 
BRANCH 57 58
ATOM     58  CG  TYR B   2       6.386   1.765   2.950  1.00 40.04 LIG-0.06  A 
ATOM     59  CD1 TYR B   2       7.473   2.538   3.332  1.00 39.56 LIG 0.01  A 
ATOM     60  CE1 TYR B   2       7.425   3.926   3.292  1.00 39.46 LIG 0.04  A 
ATOM     61  CZ  TYR B   2       6.279   4.559   2.865  1.00 36.77 LIG 0.07  A 
ATOM     62  CE2 TYR B   2       5.179   3.814   2.479  1.00 30.56 LIG 0.04  A 
ATOM     63  CD2 TYR B   2       5.236   2.425   2.522  1.00 33.12 LIG 0.01  A 
BRANCH 61 64
ATOM     64 OH   TYR B   2       6.255   5.945   2.830  1.00 37.21 LIG-0.36  OA
ATOM     65 HH   TYR B   2       6.128   6.243   3.606  1.00 37.21 LIG 0.22  HD
ENDBRANCH 61 64
ENDBRANCH 57 58
ENDBRANCH 55 57
ENDBRANCH 52 55
ENDBRANCH 50 51
ENDBRANCH 45 50
ENDBRANCH 40 43
ENDBRANCH 1 39
TORSDOF 22
ENDMDL
MODEL 57
USER: ADFR SOLUTION from run 169
USER: SCORE 17.796929 LL:  -4.706 LR: -14.880 RR:   0.000 FEB:  -8.317
USER: RMSD 14.610406
USER: SEED 168
USER: STATUS no improvement in best in 15 clusters for 5 generations
USER: GENES 24
USER: genes 0 Translation |==|  0.33744 0.33478 0.53887
USER: genes 1 Rotation |==|  0.40593 0.98274 0.58725 0.52234
USER: genes 2 Torsion [C]-CA--CB-[CG] |==|  0.37708
USER: genes 3 Torsion [CA]-CB--CG-[CD] |==|  0.77458
USER: genes 4 Torsion [CB]-CG--CD-[CE] |==|  0.71944
USER: genes 5 Torsion [CG]-CD--CE-[NZ] |==|  0.21800
USER: genes 6 Torsion [CD]-CE--NZ-[HZ3] |==|  0.84680
USER: genes 7 Torsion [N]-CA--C-[N] |==|  0.69655
USER: genes 8 Torsion [C]-N--CA-[C] |==|  0.52644
USER: genes 9 Torsion [N]-CA--C-[N] |==|  0.37495
USER: genes 10 Torsion [C]-N--CA-[C] |==|  0.13287
USER: genes 11 Torsion [N]-CA--C-[O] |==|  0.39297
USER: genes 12 Torsion [N]-CA--CB-[CG] |==|  0.31452
USER: genes 13 Torsion [CA]-CB--CG-[ND2] |==|  0.82078
USER: genes 14 Torsion [N]-CA--CB-[CG] |==|  0.30969
USER: genes 15 Torsion [CA]-CB--CG-[CD2] |==|  0.26615
USER: genes 16 Torsion [CB]-CA--N-[C] |==|  0.19444
USER: genes 17 Torsion [N]-C--CA-[CB] |==|  0.01738
USER: genes 18 Torsion [N]-C--CA-[N] |==|  0.30770
USER: genes 19 Torsion [C]-CA--N-[C] |==|  0.77604
USER: genes 20 Torsion [N]-C--CA-[N] |==|  0.40992
USER: genes 21 Torsion [C]-CA--CB-[CG] |==|  0.03325
USER: genes 22 Torsion [CA]-CB--CG-[CD1] |==|  0.75369
USER: genes 23 Torsion [CE1]-CZ--OH-[HH] |==|  0.35125
ROOT
ATOM      1  CA  LYS B   5      -8.427   1.602  -1.339  1.00 42.36 LIG 0.18  C 
ENDROOT
BRANCH 1 2
ATOM      2  CB  LYS B   5      -8.310   1.306   0.164  1.00 43.80 LIG 0.04  C 
BRANCH 2 3
ATOM      3  CG  LYS B   5      -7.350   0.149   0.532  1.00 49.23 LIG 0.00  C 
BRANCH 3 4
ATOM      4  CD  LYS B   5      -7.984  -1.236   0.369  1.00 48.54 LIG 0.03  C 
BRANCH 4 5
ATOM      5  CE  LYS B   5      -8.429  -1.801   1.707  1.00 43.92 LIG 0.23  C 
BRANCH 5 6
ATOM      6  NZ  LYS B   5      -9.710  -1.176   2.114  1.00 45.51 LIG-0.08  N 
ATOM      7 HZ3  LYS B   5      -9.620  -0.290   2.119  1.00 45.51 LIG 0.27  HD
ATOM      8 HZ1  LYS B   5     -10.348  -1.405   1.538  1.00 45.51 LIG 0.27  HD
ATOM      9 HZ2  LYS B   5      -9.932  -1.456   2.929  1.00 45.51 LIG 0.27  HD
ENDBRANCH 5 6
ENDBRANCH 4 5
ENDBRANCH 3 4
ENDBRANCH 2 3
ENDBRANCH 1 2
BRANCH 1 10
ATOM     10  C   LYS B   5      -9.894   1.807  -1.717  1.00 41.24 LIG 0.24  C 
ATOM     11  N   TRP B   6     -10.751   1.969  -0.707  1.00 42.23 LIG-0.35  N 
ATOM     12 H    TRP B   6     -10.536   1.922   0.125  1.00 42.23 LIG 0.16  HD
ATOM     13 O    LYS B   5     -10.256   1.813  -2.896  1.00 40.50 LIG-0.27  OA
BRANCH 11 14
ATOM     14  CA  TRP B   6     -12.162   2.246  -0.961  1.00 42.54 LIG 0.18  C 
BRANCH 14 15
ATOM     15  C   TRP B   6     -12.849   2.616   0.352  1.00 45.00 LIG 0.24  C 
ATOM     16 O    TRP B   6     -12.638   1.952   1.377  1.00 46.85 LIG-0.27  OA
ATOM     17  N   ASN B   7     -13.666   3.676   0.317  1.00 47.11 LIG-0.35  N 
ATOM     18 H    ASN B   7     -13.709   4.214  -0.352  1.00 47.11 LIG 0.16  HD
BRANCH 17 19
ATOM     19  CA  ASN B   7     -14.578   4.029   1.419  1.00 45.24 LIG 0.17  C 
BRANCH 19 20
ATOM     20  C   ASN B   7     -13.822   3.994   2.745  1.00 46.26 LIG 0.22  C 
ATOM     21 O    ASN B   7     -14.050   4.839   3.617  1.00 44.70 LIG-0.29  OA
ENDBRANCH 19 20
BRANCH 19 22
ATOM     22  CB  ASN B   7     -15.784   3.079   1.507  1.00 46.57 LIG 0.14  C 
BRANCH 22 23
ATOM     23  CG  ASN B   7     -15.782   2.224   2.771  1.00 48.94 LIG 0.22  C 
ATOM     24  ND2 ASN B   7     -14.783   1.351   2.900  1.00 48.79 LIG-0.37  N 
ATOM     25 21HD ASN B   7     -14.741   0.844   3.594  1.00 48.79 LIG 0.16  HD
ATOM     26 22HD ASN B   7     -14.180   1.295   2.290  1.00 48.79 LIG 0.16  HD
ATOM     27 OD1  ASN B   7     -16.667   2.342   3.615  1.00 52.21 LIG-0.27  OA
ENDBRANCH 22 23
ENDBRANCH 19 22
ENDBRANCH 17 19
ENDBRANCH 14 15
BRANCH 14 28
ATOM     28  CB  TRP B   6     -12.875   1.058  -1.614  1.00 42.47 LIG 0.07  C 
BRANCH 28 29
ATOM     29  CG  TRP B   6     -13.883   0.427  -0.664  1.00 46.30 LIG-0.03  A 
ATOM     30  CD1 TRP B   6     -13.620  -0.487   0.328  1.00 49.14 LIG 0.10  A 
ATOM     31  NE1 TRP B   6     -14.778  -0.807   1.002  1.00 51.13 LIG-0.36  N 
ATOM     32 HE1  TRP B   6     -14.838  -1.359   1.659  1.00 51.13 LIG 0.17  HD
ATOM     33  CE2 TRP B   6     -15.820  -0.103   0.455  1.00 47.23 LIG 0.04  A 
ATOM     34  CZ2 TRP B   6     -17.179  -0.094   0.795  1.00 46.28 LIG 0.03  A 
ATOM     35  CD2 TRP B   6     -15.297   0.689  -0.594  1.00 41.81 LIG-0.00  A 
ATOM     36  CH2 TRP B   6     -18.011   0.721   0.066  1.00 44.17 LIG 0.00  A 
ATOM     37  CZ3 TRP B   6     -17.527   1.510  -0.981  1.00 33.54 LIG 0.00  A 
ATOM     38  CE3 TRP B   6     -16.170   1.504  -1.320  1.00 38.27 LIG 0.01  A 
ENDBRANCH 28 29
ENDBRANCH 14 28
ENDBRANCH 11 14
ENDBRANCH 1 10
BRANCH 1 39
ATOM     39  N   LYS B   5      -7.640   2.780  -1.695  1.00 39.73 LIG-0.35  N 
ATOM     40  C   PRO B   4      -6.308   2.795  -1.693  1.00 35.29 LIG 0.24  C 
ATOM     41 O    PRO B   4      -5.625   1.822  -1.375  1.00 36.70 LIG-0.27  OA
ATOM     42 H    LYS B   5      -8.117   3.464  -1.905  1.00 39.73 LIG 0.16  HD
BRANCH 40 43
ATOM     43  CA  PRO B   4      -5.665   4.101  -2.123  1.00 31.05 LIG 0.18  C 
ATOM     44  N   PRO B   4      -5.057   3.984  -3.448  1.00 34.55 LIG-0.34  N 
ATOM     45  C   GLY B   3      -3.858   3.419  -3.589  1.00 37.27 LIG 0.24  C 
ATOM     46  CD  PRO B   4      -5.862   4.666  -4.477  1.00 31.08 LIG 0.13  C 
ATOM     47 O    GLY B   3      -3.250   2.935  -2.629  1.00 44.84 LIG-0.27  OA
ATOM     48  CG  PRO B   4      -7.136   5.010  -3.748  1.00 26.25 LIG 0.02  C 
ATOM     49  CB  PRO B   4      -6.719   5.194  -2.327  1.00 27.99 LIG 0.04  C 
BRANCH 45 50
ATOM     50  CA  GLY B   3      -3.276   3.375  -4.985  1.00 35.98 LIG 0.23  C 
BRANCH 50 51
ATOM     51  N   GLY B   3      -2.138   4.256  -5.104  1.00 37.88 LIG-0.35  N 
ATOM     52  C   TYR B   2      -2.268   5.566  -5.294  1.00 38.85 LIG 0.26  C 
ATOM     53 O    TYR B   2      -3.356   6.149  -5.290  1.00 37.42 LIG-0.27  OA
ATOM     54 H    GLY B   3      -1.378   3.858  -5.042  1.00 37.88 LIG 0.16  HD
BRANCH 52 55
ATOM     55  CA  TYR B   2      -0.972   6.343  -5.501  1.00 47.59 LIG 0.40  C 
ATOM     56  N   TYR B   2      -1.194   7.473  -6.403  1.00 42.90 LIG 0.61  N 
BRANCH 55 57
ATOM     57  CB  TYR B   2      -0.426   6.817  -4.152  1.00 41.46 LIG 0.09  C 
BRANCH 57 58
ATOM     58  CG  TYR B   2      -1.097   6.190  -2.933  1.00 40.04 LIG-0.06  A 
ATOM     59  CD1 TYR B   2      -2.226   6.767  -2.370  1.00 39.56 LIG 0.01  A 
ATOM     60  CE1 TYR B   2      -2.852   6.206  -1.264  1.00 39.46 LIG 0.04  A 
ATOM     61  CZ  TYR B   2      -2.350   5.049  -0.708  1.00 36.77 LIG 0.07  A 
ATOM     62  CE2 TYR B   2      -1.226   4.452  -1.248  1.00 30.56 LIG 0.04  A 
ATOM     63  CD2 TYR B   2      -0.605   5.021  -2.355  1.00 33.12 LIG 0.01  A 
BRANCH 61 64
ATOM     64 OH   TYR B   2      -2.994   4.505   0.393  1.00 37.21 LIG-0.36  OA
ATOM     65 HH   TYR B   2      -3.178   3.699   0.240  1.00 37.21 LIG 0.22  HD
ENDBRANCH 61 64
ENDBRANCH 57 58
ENDBRANCH 55 57
ENDBRANCH 52 55
ENDBRANCH 50 51
ENDBRANCH 45 50
ENDBRANCH 40 43
ENDBRANCH 1 39
TORSDOF 22
ENDMDL
MODEL 58
USER: ADFR SOLUTION from run 78
USER: SCORE 18.061890 LL:  -3.602 LR: -14.884 RR:   0.000 FEB:  -8.322
USER: RMSD 12.441993
USER: SEED 77
USER: STATUS no improvement in best in 23 clusters for 5 generations
USER: GENES 24
USER: genes 0 Translation |==|  0.64678 0.47607 0.49305
USER: genes 1 Rotation |==|  0.40990 0.05171 0.30130 0.53787
USER: genes 2 Torsion [C]-CA--CB-[CG] |==|  0.55490
USER: genes 3 Torsion [CA]-CB--CG-[CD] |==|  0.43378
USER: genes 4 Torsion [CB]-CG--CD-[CE] |==|  0.45285
USER: genes 5 Torsion [CG]-CD--CE-[NZ] |==|  0.64085
USER: genes 6 Torsion [CD]-CE--NZ-[HZ3] |==|  0.52664
USER: genes 7 Torsion [N]-CA--C-[N] |==|  0.38821
USER: genes 8 Torsion [C]-N--CA-[C] |==|  0.71120
USER: genes 9 Torsion [N]-CA--C-[N] |==|  0.46404
USER: genes 10 Torsion [C]-N--CA-[C] |==|  0.22155
USER: genes 11 Torsion [N]-CA--C-[O] |==|  0.56299
USER: genes 12 Torsion [N]-CA--CB-[CG] |==|  0.75867
USER: genes 13 Torsion [CA]-CB--CG-[ND2] |==|  0.30111
USER: genes 14 Torsion [N]-CA--CB-[CG] |==|  0.74974
USER: genes 15 Torsion [CA]-CB--CG-[CD2] |==|  0.17483
USER: genes 16 Torsion [CB]-CA--N-[C] |==|  0.85000
USER: genes 17 Torsion [N]-C--CA-[CB] |==|  0.01642
USER: genes 18 Torsion [N]-C--CA-[N] |==|  0.55427
USER: genes 19 Torsion [C]-CA--N-[C] |==|  0.16565
USER: genes 20 Torsion [N]-C--CA-[N] |==|  0.68223
USER: genes 21 Torsion [C]-CA--CB-[CG] |==|  0.24035
USER: genes 22 Torsion [CA]-CB--CG-[CD1] |==|  0.84059
USER: genes 23 Torsion [CE1]-CZ--OH-[HH] |==|  0.20974
ROOT
ATOM      1  CA  LYS B   5       0.853   4.357  -2.130  1.00 42.36 LIG 0.18  C 
ENDROOT
BRANCH 1 2
ATOM      2  CB  LYS B   5       1.126   3.292  -1.057  1.00 43.80 LIG 0.04  C 
BRANCH 2 3
ATOM      3  CG  LYS B   5       2.436   2.488  -1.249  1.00 49.23 LIG 0.00  C 
BRANCH 3 4
ATOM      4  CD  LYS B   5       2.970   1.887   0.056  1.00 48.54 LIG 0.03  C 
BRANCH 4 5
ATOM      5  CE  LYS B   5       3.986   0.791  -0.217  1.00 43.92 LIG 0.23  C 
BRANCH 5 6
ATOM      6  NZ  LYS B   5       3.627  -0.426   0.550  1.00 45.51 LIG-0.08  N 
ATOM      7 HZ3  LYS B   5       4.292  -1.016   0.500  1.00 45.51 LIG 0.27  HD
ATOM      8 HZ1  LYS B   5       3.486  -0.210   1.402  1.00 45.51 LIG 0.27  HD
ATOM      9 HZ2  LYS B   5       2.887  -0.785   0.210  1.00 45.51 LIG 0.27  HD
ENDBRANCH 5 6
ENDBRANCH 4 5
ENDBRANCH 3 4
ENDBRANCH 2 3
ENDBRANCH 1 2
BRANCH 1 10
ATOM     10  C   LYS B   5      -0.150   5.383  -1.600  1.00 41.24 LIG 0.24  C 
ATOM     11  N   TRP B   6      -1.423   5.209  -1.960  1.00 42.23 LIG-0.35  N 
ATOM     12 H    TRP B   6      -1.697   4.594  -2.494  1.00 42.23 LIG 0.16  HD
ATOM     13 O    LYS B   5       0.212   6.321  -0.885  1.00 40.50 LIG-0.27  OA
BRANCH 11 14
ATOM     14  CA  TRP B   6      -2.470   6.088  -1.448  1.00 42.54 LIG 0.18  C 
BRANCH 14 15
ATOM     15  C   TRP B   6      -3.261   5.356  -0.365  1.00 45.00 LIG 0.24  C 
ATOM     16 O    TRP B   6      -3.131   4.133  -0.215  1.00 46.85 LIG-0.27  OA
ATOM     17  N   ASN B   7      -4.076   6.107   0.386  1.00 47.11 LIG-0.35  N 
ATOM     18 H    ASN B   7      -4.066   6.966   0.374  1.00 47.11 LIG 0.16  HD
BRANCH 17 19
ATOM     19  CA  ASN B   7      -5.073   5.539   1.310  1.00 45.24 LIG 0.17  C 
BRANCH 19 20
ATOM     20  C   ASN B   7      -4.390   5.108   2.606  1.00 46.26 LIG 0.22  C 
ATOM     21 O    ASN B   7      -4.909   4.256   3.333  1.00 44.70 LIG-0.29  OA
ENDBRANCH 19 20
BRANCH 19 22
ATOM     22  CB  ASN B   7      -5.807   4.329   0.707  1.00 46.57 LIG 0.14  C 
BRANCH 22 23
ATOM     23  CG  ASN B   7      -7.028   4.720  -0.120  1.00 48.94 LIG 0.22  C 
ATOM     24  ND2 ASN B   7      -6.924   4.578  -1.441  1.00 48.79 LIG-0.37  N 
ATOM     25 21HD ASN B   7      -7.585   4.789  -1.949  1.00 48.79 LIG 0.16  HD
ATOM     26 22HD ASN B   7      -6.197   4.275  -1.785  1.00 48.79 LIG 0.16  HD
ATOM     27 OD1  ASN B   7      -8.045   5.148   0.419  1.00 52.21 LIG-0.27  OA
ENDBRANCH 22 23
ENDBRANCH 19 22
ENDBRANCH 17 19
ENDBRANCH 14 15
BRANCH 14 28
ATOM     28  CB  TRP B   6      -3.412   6.569  -2.555  1.00 42.47 LIG 0.07  C 
BRANCH 28 29
ATOM     29  CG  TRP B   6      -2.919   7.869  -3.175  1.00 46.30 LIG-0.03  A 
ATOM     30  CD1 TRP B   6      -3.545   9.093  -3.131  1.00 49.14 LIG 0.10  A 
ATOM     31  NE1 TRP B   6      -2.784  10.042  -3.778  1.00 51.13 LIG-0.36  N 
ATOM     32 HE1  TRP B   6      -2.989  10.871  -3.866  1.00 51.13 LIG 0.17  HD
ATOM     33  CE2 TRP B   6      -1.645   9.447  -4.258  1.00 47.23 LIG 0.04  A 
ATOM     34  CZ2 TRP B   6      -0.578   9.996  -4.980  1.00 46.28 LIG 0.03  A 
ATOM     35  CD2 TRP B   6      -1.691   8.080  -3.895  1.00 41.81 LIG-0.00  A 
ATOM     36  CH2 TRP B   6       0.448   9.154  -5.337  1.00 44.17 LIG 0.00  A 
ATOM     37  CZ3 TRP B   6       0.430   7.798  -5.001  1.00 33.54 LIG 0.00  A 
ATOM     38  CE3 TRP B   6      -0.635   7.248  -4.278  1.00 38.27 LIG 0.01  A 
ENDBRANCH 28 29
ENDBRANCH 14 28
ENDBRANCH 11 14
ENDBRANCH 1 10
BRANCH 1 39
ATOM     39  N   LYS B   5       2.094   5.017  -2.528  1.00 39.73 LIG-0.35  N 
ATOM     40  C   PRO B   4       2.927   5.590  -1.661  1.00 35.29 LIG 0.24  C 
ATOM     41 O    PRO B   4       2.713   5.629  -0.449  1.00 36.70 LIG-0.27  OA
ATOM     42 H    LYS B   5       2.238   5.000  -3.376  1.00 39.73 LIG 0.16  HD
BRANCH 40 43
ATOM     43  CA  PRO B   4       4.183   6.196  -2.258  1.00 31.05 LIG 0.18  C 
ATOM     44  N   PRO B   4       5.366   5.402  -1.928  1.00 34.55 LIG-0.34  N 
ATOM     45  C   GLY B   3       5.948   5.527  -0.735  1.00 37.27 LIG 0.24  C 
ATOM     46  CD  PRO B   4       5.839   4.624  -3.088  1.00 31.08 LIG 0.13  C 
ATOM     47 O    GLY B   3       5.486   6.267   0.139  1.00 44.84 LIG-0.27  OA
ATOM     48  CG  PRO B   4       4.732   4.798  -4.097  1.00 26.25 LIG 0.02  C 
ATOM     49  CB  PRO B   4       4.150   6.138  -3.789  1.00 27.99 LIG 0.04  C 
BRANCH 45 50
ATOM     50  CA  GLY B   3       7.193   4.704  -0.486  1.00 35.98 LIG 0.23  C 
BRANCH 50 51
ATOM     51  N   GLY B   3       7.456   4.571   0.928  1.00 37.88 LIG-0.35  N 
ATOM     52  C   TYR B   2       6.587   4.010   1.764  1.00 38.85 LIG 0.26  C 
ATOM     53 O    TYR B   2       5.537   3.477   1.397  1.00 37.42 LIG-0.27  OA
ATOM     54 H    GLY B   3       8.218   4.885   1.173  1.00 37.88 LIG 0.16  HD
BRANCH 52 55
ATOM     55  CA  TYR B   2       6.970   4.037   3.241  1.00 47.59 LIG 0.40  C 
ATOM     56  N   TYR B   2       7.200   2.679   3.732  1.00 42.90 LIG 0.61  N 
BRANCH 55 57
ATOM     57  CB  TYR B   2       8.211   4.910   3.442  1.00 41.46 LIG 0.09  C 
BRANCH 57 58
ATOM     58  CG  TYR B   2       7.923   6.397   3.633  1.00 40.04 LIG-0.06  A 
ATOM     59  CD1 TYR B   2       7.223   7.113   2.673  1.00 39.56 LIG 0.01  A 
ATOM     60  CE1 TYR B   2       6.949   8.465   2.835  1.00 39.46 LIG 0.04  A 
ATOM     61  CZ  TYR B   2       7.375   9.119   3.970  1.00 36.77 LIG 0.07  A 
ATOM     62  CE2 TYR B   2       8.076   8.431   4.944  1.00 30.56 LIG 0.04  A 
ATOM     63  CD2 TYR B   2       8.347   7.077   4.773  1.00 33.12 LIG 0.01  A 
BRANCH 61 64
ATOM     64 OH   TYR B   2       7.087  10.468   4.112  1.00 37.21 LIG-0.36  OA
ATOM     65 HH   TYR B   2       6.277  10.561   4.315  1.00 37.21 LIG 0.22  HD
ENDBRANCH 61 64
ENDBRANCH 57 58
ENDBRANCH 55 57
ENDBRANCH 52 55
ENDBRANCH 50 51
ENDBRANCH 45 50
ENDBRANCH 40 43
ENDBRANCH 1 39
TORSDOF 22
ENDMDL
MODEL 59
USER: ADFR SOLUTION from run 131
USER: SCORE 18.072440 LL:  -4.221 LR: -14.883 RR:   0.000 FEB:  -8.320
USER: RMSD 8.723117
USER: SEED 130
USER: STATUS searching
USER: GENES 24
USER: genes 0 Translation |==|  0.35869 0.43636 0.61672
USER: genes 1 Rotation |==|  0.95594 0.55560 0.30348 0.52021
USER: genes 2 Torsion [C]-CA--CB-[CG] |==|  0.31925
USER: genes 3 Torsion [CA]-CB--CG-[CD] |==|  0.68211
USER: genes 4 Torsion [CB]-CG--CD-[CE] |==|  0.75591
USER: genes 5 Torsion [CG]-CD--CE-[NZ] |==|  0.01600
USER: genes 6 Torsion [CD]-CE--NZ-[HZ3] |==|  0.87571
USER: genes 7 Torsion [N]-CA--C-[N] |==|  0.30556
USER: genes 8 Torsion [C]-N--CA-[C] |==|  0.77400
USER: genes 9 Torsion [N]-CA--C-[N] |==|  0.99326
USER: genes 10 Torsion [C]-N--CA-[C] |==|  0.66665
USER: genes 11 Torsion [N]-CA--C-[O] |==|  0.25215
USER: genes 12 Torsion [N]-CA--CB-[CG] |==|  0.81227
USER: genes 13 Torsion [CA]-CB--CG-[ND2] |==|  0.32365
USER: genes 14 Torsion [N]-CA--CB-[CG] |==|  0.15681
USER: genes 15 Torsion [CA]-CB--CG-[CD2] |==|  0.29443
USER: genes 16 Torsion [CB]-CA--N-[C] |==|  0.84371
USER: genes 17 Torsion [N]-C--CA-[CB] |==|  0.33695
USER: genes 18 Torsion [N]-C--CA-[N] |==|  0.24605
USER: genes 19 Torsion [C]-CA--N-[C] |==|  0.27284
USER: genes 20 Torsion [N]-C--CA-[N] |==|  0.42069
USER: genes 21 Torsion [C]-CA--CB-[CG] |==|  0.17268
USER: genes 22 Torsion [CA]-CB--CG-[CD1] |==|  0.74410
USER: genes 23 Torsion [CE1]-CZ--OH-[HH] |==|  0.29708
ROOT
ATOM      1  CA  LYS B   5      -7.789   3.583   0.003  1.00 42.36 LIG 0.18  C 
ENDROOT
BRANCH 1 2
ATOM      2  CB  LYS B   5      -6.835   3.611   1.207  1.00 43.80 LIG 0.04  C 
BRANCH 2 3
ATOM      3  CG  LYS B   5      -6.595   5.012   1.822  1.00 49.23 LIG 0.00  C 
BRANCH 3 4
ATOM      4  CD  LYS B   5      -5.151   5.499   1.665  1.00 48.54 LIG 0.03  C 
BRANCH 4 5
ATOM      5  CE  LYS B   5      -4.282   5.031   2.819  1.00 43.92 LIG 0.23  C 
BRANCH 5 6
ATOM      6  NZ  LYS B   5      -5.059   4.119   3.693  1.00 45.51 LIG-0.08  N 
ATOM      7 HZ3  LYS B   5      -5.869   4.461   3.835  1.00 45.51 LIG 0.27  HD
ATOM      8 HZ1  LYS B   5      -5.139   3.325   3.298  1.00 45.51 LIG 0.27  HD
ATOM      9 HZ2  LYS B   5      -4.638   4.021   4.471  1.00 45.51 LIG 0.27  HD
ENDBRANCH 5 6
ENDBRANCH 4 5
ENDBRANCH 3 4
ENDBRANCH 2 3
ENDBRANCH 1 2
BRANCH 1 10
ATOM     10  C   LYS B   5      -7.030   3.153  -1.252  1.00 41.24 LIG 0.24  C 
ATOM     11  N   TRP B   6      -7.141   3.950  -2.316  1.00 42.23 LIG-0.35  N 
ATOM     12 H    TRP B   6      -7.639   4.651  -2.348  1.00 42.23 LIG 0.16  HD
ATOM     13 O    LYS B   5      -6.357   2.119  -1.270  1.00 40.50 LIG-0.27  OA
BRANCH 11 14
ATOM     14  CA  TRP B   6      -6.396   3.670  -3.541  1.00 42.54 LIG 0.18  C 
BRANCH 14 15
ATOM     15  C   TRP B   6      -4.967   4.190  -3.393  1.00 45.00 LIG 0.24  C 
ATOM     16 O    TRP B   6      -4.144   4.020  -4.303  1.00 46.85 LIG-0.27  OA
ATOM     17  N   ASN B   7      -4.680   4.823  -2.249  1.00 47.11 LIG-0.35  N 
ATOM     18 H    ASN B   7      -5.280   5.059  -1.680  1.00 47.11 LIG 0.16  HD
BRANCH 17 19
ATOM     19  CA  ASN B   7      -3.309   5.180  -1.847  1.00 45.24 LIG 0.17  C 
BRANCH 19 20
ATOM     20  C   ASN B   7      -2.965   4.501  -0.523  1.00 46.26 LIG 0.22  C 
ATOM     21 O    ASN B   7      -2.437   3.386  -0.510  1.00 44.70 LIG-0.29  OA
ENDBRANCH 19 20
BRANCH 19 22
ATOM     22  CB  ASN B   7      -3.122   6.699  -1.692  1.00 46.57 LIG 0.14  C 
BRANCH 22 23
ATOM     23  CG  ASN B   7      -3.217   7.453  -3.015  1.00 48.94 LIG 0.22  C 
ATOM     24  ND2 ASN B   7      -4.221   8.322  -3.135  1.00 48.79 LIG-0.37  N 
ATOM     25 21HD ASN B   7      -4.318   8.768  -3.864  1.00 48.79 LIG 0.16  HD
ATOM     26 22HD ASN B   7      -4.771   8.436  -2.484  1.00 48.79 LIG 0.16  HD
ATOM     27 OD1  ASN B   7      -2.406   7.254  -3.915  1.00 52.21 LIG-0.27  OA
ENDBRANCH 22 23
ENDBRANCH 19 22
ENDBRANCH 17 19
ENDBRANCH 14 15
BRANCH 14 28
ATOM     28  CB  TRP B   6      -7.059   4.291  -4.774  1.00 42.47 LIG 0.07  C 
BRANCH 28 29
ATOM     29  CG  TRP B   6      -7.239   5.793  -4.610  1.00 46.30 LIG-0.03  A 
ATOM     30  CD1 TRP B   6      -8.139   6.431  -3.788  1.00 49.14 LIG 0.10  A 
ATOM     31  NE1 TRP B   6      -7.987   7.796  -3.883  1.00 51.13 LIG-0.36  N 
ATOM     32 HE1  TRP B   6      -8.449   8.381  -3.454  1.00 51.13 LIG 0.17  HD
ATOM     33  CE2 TRP B   6      -6.982   8.072  -4.775  1.00 47.23 LIG 0.04  A 
ATOM     34  CZ2 TRP B   6      -6.469   9.303  -5.201  1.00 46.28 LIG 0.03  A 
ATOM     35  CD2 TRP B   6      -6.482   6.837  -5.250  1.00 41.81 LIG-0.00  A 
ATOM     36  CH2 TRP B   6      -5.443   9.281  -6.117  1.00 44.17 LIG 0.00  A 
ATOM     37  CZ3 TRP B   6      -4.933   8.079  -6.612  1.00 33.54 LIG 0.00  A 
ATOM     38  CE3 TRP B   6      -5.443   6.848  -6.185  1.00 38.27 LIG 0.01  A 
ENDBRANCH 28 29
ENDBRANCH 14 28
ENDBRANCH 11 14
ENDBRANCH 1 10
BRANCH 1 39
ATOM     39  N   LYS B   5      -8.910   2.681   0.256  1.00 39.73 LIG-0.35  N 
ATOM     40  C   PRO B   4      -8.755   1.397   0.574  1.00 35.29 LIG 0.24  C 
ATOM     41 O    PRO B   4      -7.653   0.855   0.666  1.00 36.70 LIG-0.27  OA
ATOM     42 H    LYS B   5      -9.679   3.056   0.180  1.00 39.73 LIG 0.16  HD
BRANCH 40 43
ATOM     43  CA  PRO B   4     -10.036   0.624   0.832  1.00 31.05 LIG 0.18  C 
ATOM     44  N   PRO B   4     -11.215   1.426   0.508  1.00 34.55 LIG-0.34  N 
ATOM     45  C   GLY B   3     -11.665   2.338   1.370  1.00 37.27 LIG 0.24  C 
ATOM     46  CD  PRO B   4     -11.841   0.986  -0.752  1.00 31.08 LIG 0.13  C 
ATOM     47 O    GLY B   3     -11.081   2.572   2.432  1.00 44.84 LIG-0.27  OA
ATOM     48  CG  PRO B   4     -10.836   0.014  -1.318  1.00 26.25 LIG 0.02  C 
ATOM     49  CB  PRO B   4     -10.162  -0.569  -0.120  1.00 27.99 LIG 0.04  C 
BRANCH 45 50
ATOM     50  CA  GLY B   3     -12.916   3.095   0.982  1.00 35.98 LIG 0.23  C 
BRANCH 50 51
ATOM     51  N   GLY B   3     -14.104   2.400   1.420  1.00 37.88 LIG-0.35  N 
ATOM     52  C   TYR B   2     -14.747   2.724   2.538  1.00 38.85 LIG 0.26  C 
ATOM     53 O    TYR B   2     -14.445   3.693   3.240  1.00 37.42 LIG-0.27  OA
ATOM     54 H    GLY B   3     -14.352   1.765   0.895  1.00 37.88 LIG 0.16  HD
BRANCH 52 55
ATOM     55  CA  TYR B   2     -15.924   1.829   2.914  1.00 47.59 LIG 0.40  C 
ATOM     56  N   TYR B   2     -16.109   1.815   4.365  1.00 42.90 LIG 0.61  N 
BRANCH 55 57
ATOM     57  CB  TYR B   2     -17.192   2.310   2.204  1.00 41.46 LIG 0.09  C 
BRANCH 57 58
ATOM     58  CG  TYR B   2     -17.133   2.256   0.680  1.00 40.04 LIG-0.06  A 
ATOM     59  CD1 TYR B   2     -16.713   3.357  -0.053  1.00 39.56 LIG 0.01  A 
ATOM     60  CE1 TYR B   2     -16.648   3.322  -1.440  1.00 39.46 LIG 0.04  A 
ATOM     61  CZ  TYR B   2     -17.004   2.173  -2.113  1.00 36.77 LIG 0.07  A 
ATOM     62  CE2 TYR B   2     -17.426   1.061  -1.408  1.00 30.56 LIG 0.04  A 
ATOM     63  CD2 TYR B   2     -17.489   1.105  -0.019  1.00 33.12 LIG 0.01  A 
BRANCH 61 64
ATOM     64 OH   TYR B   2     -16.927   2.160  -3.497  1.00 37.21 LIG-0.36  OA
ATOM     65 HH   TYR B   2     -16.271   1.692  -3.737  1.00 37.21 LIG 0.22  HD
ENDBRANCH 61 64
ENDBRANCH 57 58
ENDBRANCH 55 57
ENDBRANCH 52 55
ENDBRANCH 50 51
ENDBRANCH 45 50
ENDBRANCH 40 43
ENDBRANCH 1 39
TORSDOF 22
ENDMDL
MODEL 60
USER: ADFR SOLUTION from run 198
USER: SCORE 19.293968 LL:  -5.791 LR: -14.861 RR:   0.000 FEB:  -8.298
USER: RMSD 10.471652
USER: SEED 197
USER: STATUS no improvement in best in 1 clusters for 5 generations
USER: GENES 24
USER: genes 0 Translation |==|  0.40016 0.57827 0.40643
USER: genes 1 Rotation |==|  0.44316 0.55615 0.10405 0.79468
USER: genes 2 Torsion [C]-CA--CB-[CG] |==|  0.53119
USER: genes 3 Torsion [CA]-CB--CG-[CD] |==|  0.72602
USER: genes 4 Torsion [CB]-CG--CD-[CE] |==|  0.38050
USER: genes 5 Torsion [CG]-CD--CE-[NZ] |==|  0.74296
USER: genes 6 Torsion [CD]-CE--NZ-[HZ3] |==|  0.62300
USER: genes 7 Torsion [N]-CA--C-[N] |==|  0.35278
USER: genes 8 Torsion [C]-N--CA-[C] |==|  0.56072
USER: genes 9 Torsion [N]-CA--C-[N] |==|  0.64463
USER: genes 10 Torsion [C]-N--CA-[C] |==|  0.72839
USER: genes 11 Torsion [N]-CA--C-[O] |==|  0.87583
USER: genes 12 Torsion [N]-CA--CB-[CG] |==|  0.17249
USER: genes 13 Torsion [CA]-CB--CG-[ND2] |==|  0.38002
USER: genes 14 Torsion [N]-CA--CB-[CG] |==|  0.09380
USER: genes 15 Torsion [CA]-CB--CG-[CD2] |==|  0.70254
USER: genes 16 Torsion [CB]-CA--N-[C] |==|  0.84351
USER: genes 17 Torsion [N]-C--CA-[CB] |==|  0.78687
USER: genes 18 Torsion [N]-C--CA-[N] |==|  0.53874
USER: genes 19 Torsion [C]-CA--N-[C] |==|  0.80000
USER: genes 20 Torsion [N]-C--CA-[N] |==|  0.40478
USER: genes 21 Torsion [C]-CA--CB-[CG] |==|  0.14238
USER: genes 22 Torsion [CA]-CB--CG-[CD1] |==|  0.16514
USER: genes 23 Torsion [CE1]-CZ--OH-[HH] |==|  0.54868
ROOT
ATOM      1  CA  LYS B   5      -6.545   6.350  -3.624  1.00 42.36 LIG 0.18  C 
ENDROOT
BRANCH 1 2
ATOM      2  CB  LYS B   5      -6.788   6.589  -5.122  1.00 43.80 LIG 0.04  C 
BRANCH 2 3
ATOM      3  CG  LYS B   5      -6.838   8.077  -5.550  1.00 49.23 LIG 0.00  C 
BRANCH 3 4
ATOM      4  CD  LYS B   5      -8.265   8.615  -5.691  1.00 48.54 LIG 0.03  C 
BRANCH 4 5
ATOM      5  CE  LYS B   5      -8.395  10.002  -5.084  1.00 43.92 LIG 0.23  C 
BRANCH 5 6
ATOM      6  NZ  LYS B   5      -8.833   9.891  -3.671  1.00 45.51 LIG-0.08  N 
ATOM      7 HZ3  LYS B   5      -9.471  10.490  -3.510  1.00 45.51 LIG 0.27  HD
ATOM      8 HZ1  LYS B   5      -9.150   9.073  -3.522  1.00 45.51 LIG 0.27  HD
ATOM      9 HZ2  LYS B   5      -8.141  10.043  -3.132  1.00 45.51 LIG 0.27  HD
ENDBRANCH 5 6
ENDBRANCH 4 5
ENDBRANCH 3 4
ENDBRANCH 2 3
ENDBRANCH 1 2
BRANCH 1 10
ATOM     10  C   LYS B   5      -6.241   4.872  -3.376  1.00 41.24 LIG 0.24  C 
ATOM     11  N   TRP B   6      -7.172   4.175  -2.723  1.00 42.23 LIG-0.35  N 
ATOM     12 H    TRP B   6      -7.896   4.512  -2.404  1.00 42.23 LIG 0.16  HD
ATOM     13 O    LYS B   5      -5.183   4.364  -3.759  1.00 40.50 LIG-0.27  OA
BRANCH 11 14
ATOM     14  CA  TRP B   6      -7.013   2.741  -2.502  1.00 42.54 LIG 0.18  C 
BRANCH 14 15
ATOM     15  C   TRP B   6      -8.382   2.113  -2.247  1.00 45.00 LIG 0.24  C 
ATOM     16 O    TRP B   6      -9.315   2.306  -3.039  1.00 46.85 LIG-0.27  OA
ATOM     17  N   ASN B   7      -8.495   1.362  -1.144  1.00 47.11 LIG-0.35  N 
ATOM     18 H    ASN B   7      -7.820   1.118  -0.671  1.00 47.11 LIG 0.16  HD
BRANCH 17 19
ATOM     19  CA  ASN B   7      -9.787   0.877  -0.628  1.00 45.24 LIG 0.17  C 
BRANCH 19 20
ATOM     20  C   ASN B   7     -10.275   1.796   0.489  1.00 46.26 LIG 0.22  C 
ATOM     21 O    ASN B   7      -9.499   2.180   1.368  1.00 44.70 LIG-0.29  OA
ENDBRANCH 19 20
BRANCH 19 22
ATOM     22  CB  ASN B   7      -9.697  -0.561  -0.088  1.00 46.57 LIG 0.14  C 
BRANCH 22 23
ATOM     23  CG  ASN B   7      -8.741  -0.699   1.093  1.00 48.94 LIG 0.22  C 
ATOM     24  ND2 ASN B   7      -9.158  -1.447   2.114  1.00 48.79 LIG-0.37  N 
ATOM     25 21HD ASN B   7      -8.655  -1.551   2.805  1.00 48.79 LIG 0.16  HD
ATOM     26 22HD ASN B   7      -9.930  -1.825   2.084  1.00 48.79 LIG 0.16  HD
ATOM     27 OD1  ASN B   7      -7.648  -0.139   1.090  1.00 52.21 LIG-0.27  OA
ENDBRANCH 22 23
ENDBRANCH 19 22
ENDBRANCH 17 19
ENDBRANCH 14 15
BRANCH 14 28
ATOM     28  CB  TRP B   6      -6.068   2.438  -1.335  1.00 42.47 LIG 0.07  C 
BRANCH 28 29
ATOM     29  CG  TRP B   6      -6.180   3.493  -0.243  1.00 46.30 LIG-0.03  A 
ATOM     30  CD1 TRP B   6      -7.205   3.636   0.662  1.00 49.14 LIG 0.10  A 
ATOM     31  NE1 TRP B   6      -6.945   4.685   1.516  1.00 51.13 LIG-0.36  N 
ATOM     32 HE1  TRP B   6      -7.455   4.946   2.157  1.00 51.13 LIG 0.17  HD
ATOM     33  CE2 TRP B   6      -5.740   5.246   1.177  1.00 47.23 LIG 0.04  A 
ATOM     34  CZ2 TRP B   6      -5.059   6.329   1.747  1.00 46.28 LIG 0.03  A 
ATOM     35  CD2 TRP B   6      -5.225   4.521   0.077  1.00 41.81 LIG-0.00  A 
ATOM     36  CH2 TRP B   6      -3.849   6.680   1.196  1.00 44.17 LIG 0.00  A 
ATOM     37  CZ3 TRP B   6      -3.317   5.989   0.105  1.00 33.54 LIG 0.00  A 
ATOM     38  CE3 TRP B   6      -3.995   4.906  -0.464  1.00 38.27 LIG 0.01  A 
ENDBRANCH 28 29
ENDBRANCH 14 28
ENDBRANCH 11 14
ENDBRANCH 1 10
BRANCH 1 39
ATOM     39  N   LYS B   5      -5.448   7.185  -3.140  1.00 39.73 LIG-0.35  N 
ATOM     40  C   PRO B   4      -4.227   7.164  -3.671  1.00 35.29 LIG 0.24  C 
ATOM     41 O    PRO B   4      -3.911   6.426  -4.604  1.00 36.70 LIG-0.27  OA
ATOM     42 H    LYS B   5      -5.666   7.692  -2.481  1.00 39.73 LIG 0.16  HD
BRANCH 40 43
ATOM     43  CA  PRO B   4      -3.227   8.126  -3.056  1.00 31.05 LIG 0.18  C 
ATOM     44  N   PRO B   4      -1.869   7.854  -3.525  1.00 34.55 LIG-0.34  N 
ATOM     45  C   GLY B   3      -1.156   6.866  -2.984  1.00 37.27 LIG 0.24  C 
ATOM     46  CD  PRO B   4      -1.420   8.861  -4.505  1.00 31.08 LIG 0.13  C 
ATOM     47 O    GLY B   3      -1.629   6.124  -2.117  1.00 44.84 LIG-0.27  OA
ATOM     48  CG  PRO B   4      -2.677   9.643  -4.798  1.00 26.25 LIG 0.02  C 
ATOM     49  CB  PRO B   4      -3.474   9.559  -3.538  1.00 27.99 LIG 0.04  C 
BRANCH 45 50
ATOM     50  CA  GLY B   3       0.256   6.676  -3.492  1.00 35.98 LIG 0.23  C 
BRANCH 50 51
ATOM     51  N   GLY B   3       0.794   5.403  -3.073  1.00 37.88 LIG-0.35  N 
ATOM     52  C   TYR B   2       1.143   5.157  -1.814  1.00 38.85 LIG 0.26  C 
ATOM     53 O    TYR B   2       0.952   5.949  -0.888  1.00 37.42 LIG-0.27  OA
ATOM     54 H    GLY B   3       0.867   4.828  -3.708  1.00 37.88 LIG 0.16  HD
BRANCH 52 55
ATOM     55  CA  TYR B   2       1.790   3.800  -1.554  1.00 47.59 LIG 0.40  C 
ATOM     56  N   TYR B   2       2.799   3.910  -0.501  1.00 42.90 LIG 0.61  N 
BRANCH 55 57
ATOM     57  CB  TYR B   2       0.717   2.773  -1.180  1.00 41.46 LIG 0.09  C 
BRANCH 57 58
ATOM     58  CG  TYR B   2      -0.461   2.697  -2.148  1.00 40.04 LIG-0.06  A 
ATOM     59  CD1 TYR B   2      -0.263   2.380  -3.484  1.00 39.56 LIG 0.01  A 
ATOM     60  CE1 TYR B   2      -1.325   2.302  -4.376  1.00 39.46 LIG 0.04  A 
ATOM     61  CZ  TYR B   2      -2.608   2.541  -3.934  1.00 36.77 LIG 0.07  A 
ATOM     62  CE2 TYR B   2      -2.836   2.859  -2.608  1.00 30.56 LIG 0.04  A 
ATOM     63  CD2 TYR B   2      -1.766   2.936  -1.722  1.00 33.12 LIG 0.01  A 
BRANCH 61 64
ATOM     64 OH   TYR B   2      -3.653   2.453  -4.841  1.00 37.21 LIG-0.36  OA
ATOM     65 HH   TYR B   2      -4.329   2.843  -4.529  1.00 37.21 LIG 0.22  HD
ENDBRANCH 61 64
ENDBRANCH 57 58
ENDBRANCH 55 57
ENDBRANCH 52 55
ENDBRANCH 50 51
ENDBRANCH 45 50
ENDBRANCH 40 43
ENDBRANCH 1 39
TORSDOF 22
ENDMDL
MODEL 61
USER: ADFR SOLUTION from run 169
USER: SCORE 18.538734 LL:  -4.963 LR: -14.863 RR:   0.000 FEB:  -8.301
USER: RMSD 14.004161
USER: SEED 168
USER: STATUS no improvement in best in 15 clusters for 5 generations
USER: GENES 24
USER: genes 0 Translation |==|  0.35830 0.32010 0.53980
USER: genes 1 Rotation |==|  0.52013 0.00055 0.49621 0.51132
USER: genes 2 Torsion [C]-CA--CB-[CG] |==|  0.35920
USER: genes 3 Torsion [CA]-CB--CG-[CD] |==|  0.87192
USER: genes 4 Torsion [CB]-CG--CD-[CE] |==|  0.69030
USER: genes 5 Torsion [CG]-CD--CE-[NZ] |==|  0.25309
USER: genes 6 Torsion [CD]-CE--NZ-[HZ3] |==|  0.83634
USER: genes 7 Torsion [N]-CA--C-[N] |==|  0.58929
USER: genes 8 Torsion [C]-N--CA-[C] |==|  0.53889
USER: genes 9 Torsion [N]-CA--C-[N] |==|  0.46593
USER: genes 10 Torsion [C]-N--CA-[C] |==|  0.18668
USER: genes 11 Torsion [N]-CA--C-[O] |==|  0.40336
USER: genes 12 Torsion [N]-CA--CB-[CG] |==|  0.54941
USER: genes 13 Torsion [CA]-CB--CG-[ND2] |==|  0.20564
USER: genes 14 Torsion [N]-CA--CB-[CG] |==|  0.26375
USER: genes 15 Torsion [CA]-CB--CG-[CD2] |==|  0.29847
USER: genes 16 Torsion [CB]-CA--N-[C] |==|  0.15770
USER: genes 17 Torsion [N]-C--CA-[CB] |==|  0.60876
USER: genes 18 Torsion [N]-C--CA-[N] |==|  0.36335
USER: genes 19 Torsion [C]-CA--N-[C] |==|  0.76842
USER: genes 20 Torsion [N]-C--CA-[N] |==|  0.39052
USER: genes 21 Torsion [C]-CA--CB-[CG] |==|  0.09074
USER: genes 22 Torsion [CA]-CB--CG-[CD1] |==|  0.74220
USER: genes 23 Torsion [CE1]-CZ--OH-[HH] |==|  0.35582
ROOT
ATOM      1  CA  LYS B   5      -7.801   1.316  -1.324  1.00 42.36 LIG 0.18  C 
ENDROOT
BRANCH 1 2
ATOM      2  CB  LYS B   5      -7.514   1.494   0.175  1.00 43.80 LIG 0.04  C 
BRANCH 2 3
ATOM      3  CG  LYS B   5      -6.985   0.230   0.897  1.00 49.23 LIG 0.00  C 
BRANCH 3 4
ATOM      4  CD  LYS B   5      -7.778  -1.035   0.554  1.00 48.54 LIG 0.03  C 
BRANCH 4 5
ATOM      5  CE  LYS B   5      -8.569  -1.533   1.751  1.00 43.92 LIG 0.23  C 
BRANCH 5 6
ATOM      6  NZ  LYS B   5      -9.925  -0.932   1.740  1.00 45.51 LIG-0.08  N 
ATOM      7 HZ3  LYS B   5      -9.857  -0.044   1.764  1.00 45.51 LIG 0.27  HD
ATOM      8 HZ1  LYS B   5     -10.352  -1.176   0.999  1.00 45.51 LIG 0.27  HD
ATOM      9 HZ2  LYS B   5     -10.381  -1.212   2.451  1.00 45.51 LIG 0.27  HD
ENDBRANCH 5 6
ENDBRANCH 4 5
ENDBRANCH 3 4
ENDBRANCH 2 3
ENDBRANCH 1 2
BRANCH 1 10
ATOM     10  C   LYS B   5      -9.206   1.824  -1.648  1.00 41.24 LIG 0.24  C 
ATOM     11  N   TRP B   6     -10.087   1.814  -0.646  1.00 42.23 LIG-0.35  N 
ATOM     12 H    TRP B   6      -9.926   1.506   0.140  1.00 42.23 LIG 0.16  HD
ATOM     13 O    LYS B   5      -9.500   2.213  -2.781  1.00 40.50 LIG-0.27  OA
BRANCH 11 14
ATOM     14  CA  TRP B   6     -11.434   2.347  -0.831  1.00 42.54 LIG 0.18  C 
BRANCH 14 15
ATOM     15  C   TRP B   6     -12.097   2.531   0.533  1.00 45.00 LIG 0.24  C 
ATOM     16 O    TRP B   6     -11.587   2.036   1.548  1.00 46.85 LIG-0.27  OA
ATOM     17  N   ASN B   7     -13.230   3.244   0.552  1.00 47.11 LIG-0.35  N 
ATOM     18 H    ASN B   7     -13.510   3.699  -0.122  1.00 47.11 LIG 0.16  HD
BRANCH 17 19
ATOM     19  CA  ASN B   7     -14.113   3.324   1.728  1.00 45.24 LIG 0.17  C 
BRANCH 19 20
ATOM     20  C   ASN B   7     -13.407   4.074   2.855  1.00 46.26 LIG 0.22  C 
ATOM     21 O    ASN B   7     -14.047   4.801   3.620  1.00 44.70 LIG-0.29  OA
ENDBRANCH 19 20
BRANCH 19 22
ATOM     22  CB  ASN B   7     -14.533   1.936   2.240  1.00 46.57 LIG 0.14  C 
BRANCH 22 23
ATOM     23  CG  ASN B   7     -15.755   1.977   3.152  1.00 48.94 LIG 0.22  C 
ATOM     24  ND2 ASN B   7     -16.932   2.190   2.563  1.00 48.79 LIG-0.37  N 
ATOM     25 21HD ASN B   7     -17.650   2.225   3.036  1.00 48.79 LIG 0.16  HD
ATOM     26 22HD ASN B   7     -16.974   2.292   1.710  1.00 48.79 LIG 0.16  HD
ATOM     27 OD1  ASN B   7     -15.644   1.825   4.365  1.00 52.21 LIG-0.27  OA
ENDBRANCH 22 23
ENDBRANCH 19 22
ENDBRANCH 17 19
ENDBRANCH 14 15
BRANCH 14 28
ATOM     28  CB  TRP B   6     -12.296   1.446  -1.719  1.00 42.47 LIG 0.07  C 
BRANCH 28 29
ATOM     29  CG  TRP B   6     -13.138   0.489  -0.887  1.00 46.30 LIG-0.03  A 
ATOM     30  CD1 TRP B   6     -12.686  -0.590  -0.163  1.00 49.14 LIG 0.10  A 
ATOM     31  NE1 TRP B   6     -13.736  -1.201   0.487  1.00 51.13 LIG-0.36  N 
ATOM     32 HE1  TRP B   6     -13.675  -1.893   0.993  1.00 51.13 LIG 0.17  HD
ATOM     33  CE2 TRP B   6     -14.894  -0.527   0.194  1.00 47.23 LIG 0.04  A 
ATOM     34  CZ2 TRP B   6     -16.208  -0.771   0.612  1.00 46.28 LIG 0.03  A 
ATOM     35  CD2 TRP B   6     -14.559   0.546  -0.664  1.00 41.81 LIG-0.00  A 
ATOM     36  CH2 TRP B   6     -17.188   0.079   0.157  1.00 44.17 LIG 0.00  A 
ATOM     37  CZ3 TRP B   6     -16.891   1.144  -0.698  1.00 33.54 LIG 0.00  A 
ATOM     38  CE3 TRP B   6     -15.578   1.389  -1.115  1.00 38.27 LIG 0.01  A 
ENDBRANCH 28 29
ENDBRANCH 14 28
ENDBRANCH 11 14
ENDBRANCH 1 10
BRANCH 1 39
ATOM     39  N   LYS B   5      -6.806   2.023  -2.126  1.00 39.73 LIG-0.35  N 
ATOM     40  C   PRO B   4      -5.497   1.798  -2.027  1.00 35.29 LIG 0.24  C 
ATOM     41 O    PRO B   4      -5.010   0.988  -1.239  1.00 36.70 LIG-0.27  OA
ATOM     42 H    LYS B   5      -7.144   2.597  -2.668  1.00 39.73 LIG 0.16  HD
BRANCH 40 43
ATOM     43  CA  PRO B   4      -4.619   2.605  -2.966  1.00 31.05 LIG 0.18  C 
ATOM     44  N   PRO B   4      -3.927   3.680  -2.257  1.00 34.55 LIG-0.34  N 
ATOM     45  C   GLY B   3      -4.564   4.817  -1.975  1.00 37.27 LIG 0.24  C 
ATOM     46  CD  PRO B   4      -2.500   3.370  -2.058  1.00 31.08 LIG 0.13  C 
ATOM     47 O    GLY B   3      -5.756   4.981  -2.252  1.00 44.84 LIG-0.27  OA
ATOM     48  CG  PRO B   4      -2.398   1.925  -2.477  1.00 26.25 LIG 0.02  C 
ATOM     49  CB  PRO B   4      -3.464   1.756  -3.508  1.00 27.99 LIG 0.04  C 
BRANCH 45 50
ATOM     50  CA  GLY B   3      -3.767   5.899  -1.279  1.00 35.98 LIG 0.23  C 
BRANCH 50 51
ATOM     51  N   GLY B   3      -3.925   7.172  -1.942  1.00 37.88 LIG-0.35  N 
ATOM     52  C   TYR B   2      -3.203   7.516  -3.004  1.00 38.85 LIG 0.26  C 
ATOM     53 O    TYR B   2      -2.414   6.752  -3.566  1.00 37.42 LIG-0.27  OA
ATOM     54 H    GLY B   3      -4.522   7.680  -1.588  1.00 37.88 LIG 0.16  HD
BRANCH 52 55
ATOM     55  CA  TYR B   2      -3.416   8.933  -3.526  1.00 47.59 LIG 0.40  C 
ATOM     56  N   TYR B   2      -2.143   9.520  -3.942  1.00 42.90 LIG 0.61  N 
BRANCH 55 57
ATOM     57  CB  TYR B   2      -4.417   8.918  -4.685  1.00 41.46 LIG 0.09  C 
BRANCH 57 58
ATOM     58  CG  TYR B   2      -5.501   7.847  -4.581  1.00 40.04 LIG-0.06  A 
ATOM     59  CD1 TYR B   2      -5.330   6.605  -5.175  1.00 39.56 LIG 0.01  A 
ATOM     60  CE1 TYR B   2      -6.304   5.619  -5.085  1.00 39.46 LIG 0.04  A 
ATOM     61  CZ  TYR B   2      -7.468   5.868  -4.391  1.00 36.77 LIG 0.07  A 
ATOM     62  CE2 TYR B   2      -7.666   7.097  -3.789  1.00 30.56 LIG 0.04  A 
ATOM     63  CD2 TYR B   2      -6.685   8.080  -3.885  1.00 33.12 LIG 0.01  A 
BRANCH 61 64
ATOM     64 OH   TYR B   2      -8.424   4.868  -4.311  1.00 37.21 LIG-0.36  OA
ATOM     65 HH   TYR B   2      -8.638   4.748  -3.507  1.00 37.21 LIG 0.22  HD
ENDBRANCH 61 64
ENDBRANCH 57 58
ENDBRANCH 55 57
ENDBRANCH 52 55
ENDBRANCH 50 51
ENDBRANCH 45 50
ENDBRANCH 40 43
ENDBRANCH 1 39
TORSDOF 22
ENDMDL
MODEL 62
USER: ADFR SOLUTION from run 78
USER: SCORE 18.017176 LL:  -4.030 LR: -14.840 RR:   0.000 FEB:  -8.277
USER: RMSD 12.099247
USER: SEED 77
USER: STATUS no improvement in best in 23 clusters for 5 generations
USER: GENES 24
USER: genes 0 Translation |==|  0.64985 0.47889 0.49117
USER: genes 1 Rotation |==|  0.45631 0.04589 0.29666 0.52307
USER: genes 2 Torsion [C]-CA--CB-[CG] |==|  0.27628
USER: genes 3 Torsion [CA]-CB--CG-[CD] |==|  0.46032
USER: genes 4 Torsion [CB]-CG--CD-[CE] |==|  0.72240
USER: genes 5 Torsion [CG]-CD--CE-[NZ] |==|  0.57381
USER: genes 6 Torsion [CD]-CE--NZ-[HZ3] |==|  0.61501
USER: genes 7 Torsion [N]-CA--C-[N] |==|  0.37400
USER: genes 8 Torsion [C]-N--CA-[C] |==|  0.79745
USER: genes 9 Torsion [N]-CA--C-[N] |==|  0.42887
USER: genes 10 Torsion [C]-N--CA-[C] |==|  0.18918
USER: genes 11 Torsion [N]-CA--C-[O] |==|  0.64830
USER: genes 12 Torsion [N]-CA--CB-[CG] |==|  0.78101
USER: genes 13 Torsion [CA]-CB--CG-[ND2] |==|  0.30769
USER: genes 14 Torsion [N]-CA--CB-[CG] |==|  0.64716
USER: genes 15 Torsion [CA]-CB--CG-[CD2] |==|  0.60546
USER: genes 16 Torsion [CB]-CA--N-[C] |==|  0.51938
USER: genes 17 Torsion [N]-C--CA-[CB] |==|  0.38625
USER: genes 18 Torsion [N]-C--CA-[N] |==|  0.50291
USER: genes 19 Torsion [C]-CA--N-[C] |==|  0.82217
USER: genes 20 Torsion [N]-C--CA-[N] |==|  0.48394
USER: genes 21 Torsion [C]-CA--CB-[CG] |==|  0.20235
USER: genes 22 Torsion [CA]-CB--CG-[CD1] |==|  0.70732
USER: genes 23 Torsion [CE1]-CZ--OH-[HH] |==|  0.66082
ROOT
ATOM      1  CA  LYS B   5       0.945   4.412  -2.162  1.00 42.36 LIG 0.18  C 
ENDROOT
BRANCH 1 2
ATOM      2  CB  LYS B   5       1.228   3.376  -1.064  1.00 43.80 LIG 0.04  C 
BRANCH 2 3
ATOM      3  CG  LYS B   5       0.681   1.955  -1.346  1.00 49.23 LIG 0.00  C 
BRANCH 3 4
ATOM      4  CD  LYS B   5       1.270   0.887  -0.418  1.00 48.54 LIG 0.03  C 
BRANCH 4 5
ATOM      5  CE  LYS B   5       2.383   0.113  -1.104  1.00 43.92 LIG 0.23  C 
BRANCH 5 6
ATOM      6  NZ  LYS B   5       2.491  -1.241  -0.510  1.00 45.51 LIG-0.08  N 
ATOM      7 HZ3  LYS B   5       3.349  -1.454  -0.411  1.00 45.51 LIG 0.27  HD
ATOM      8 HZ1  LYS B   5       2.090  -1.249   0.284  1.00 45.51 LIG 0.27  HD
ATOM      9 HZ2  LYS B   5       2.099  -1.833  -1.046  1.00 45.51 LIG 0.27  HD
ENDBRANCH 5 6
ENDBRANCH 4 5
ENDBRANCH 3 4
ENDBRANCH 2 3
ENDBRANCH 1 2
BRANCH 1 10
ATOM     10  C   LYS B   5      -0.257   5.271  -1.769  1.00 41.24 LIG 0.24  C 
ATOM     11  N   TRP B   6      -1.412   4.989  -2.374  1.00 42.23 LIG-0.35  N 
ATOM     12 H    TRP B   6      -1.506   4.396  -2.989  1.00 42.23 LIG 0.16  HD
ATOM     13 O    LYS B   5      -0.151   6.178  -0.939  1.00 40.50 LIG-0.27  OA
BRANCH 11 14
ATOM     14  CA  TRP B   6      -2.636   5.700  -2.016  1.00 42.54 LIG 0.18  C 
BRANCH 14 15
ATOM     15  C   TRP B   6      -3.116   5.222  -0.647  1.00 45.00 LIG 0.24  C 
ATOM     16 O    TRP B   6      -2.811   4.094  -0.236  1.00 46.85 LIG-0.27  OA
ATOM     17  N   ASN B   7      -3.863   6.084   0.055  1.00 47.11 LIG-0.35  N 
ATOM     18 H    ASN B   7      -3.961   6.908  -0.166  1.00 47.11 LIG 0.16  HD
BRANCH 17 19
ATOM     19  CA  ASN B   7      -4.594   5.708   1.278  1.00 45.24 LIG 0.17  C 
BRANCH 19 20
ATOM     20  C   ASN B   7      -3.603   5.398   2.398  1.00 46.26 LIG 0.22  C 
ATOM     21 O    ASN B   7      -3.663   4.326   3.007  1.00 44.70 LIG-0.29  OA
ENDBRANCH 19 20
BRANCH 19 22
ATOM     22  CB  ASN B   7      -5.502   4.485   1.064  1.00 46.57 LIG 0.14  C 
BRANCH 22 23
ATOM     23  CG  ASN B   7      -6.811   4.827   0.358  1.00 48.94 LIG 0.22  C 
ATOM     24  ND2 ASN B   7      -6.956   4.368  -0.885  1.00 48.79 LIG-0.37  N 
ATOM     25 21HD ASN B   7      -7.675   4.538  -1.325  1.00 48.79 LIG 0.16  HD
ATOM     26 22HD ASN B   7      -6.330   3.902  -1.247  1.00 48.79 LIG 0.16  HD
ATOM     27 OD1  ASN B   7      -7.675   5.495   0.919  1.00 52.21 LIG-0.27  OA
ENDBRANCH 22 23
ENDBRANCH 19 22
ENDBRANCH 17 19
ENDBRANCH 14 15
BRANCH 14 28
ATOM     28  CB  TRP B   6      -3.741   5.509  -3.059  1.00 42.47 LIG 0.07  C 
BRANCH 28 29
ATOM     29  CG  TRP B   6      -4.295   6.847  -3.530  1.00 46.30 LIG-0.03  A 
ATOM     30  CD1 TRP B   6      -3.578   7.993  -3.781  1.00 49.14 LIG 0.10  A 
ATOM     31  NE1 TRP B   6      -4.416   8.994  -4.219  1.00 51.13 LIG-0.36  N 
ATOM     32 HE1  TRP B   6      -4.174   9.791  -4.433  1.00 51.13 LIG 0.17  HD
ATOM     33  CE2 TRP B   6      -5.700   8.513  -4.259  1.00 47.23 LIG 0.04  A 
ATOM     34  CZ2 TRP B   6      -6.889   9.152  -4.633  1.00 46.28 LIG 0.03  A 
ATOM     35  CD2 TRP B   6      -5.665   7.164  -3.836  1.00 41.81 LIG-0.00  A 
ATOM     36  CH2 TRP B   6      -8.050   8.417  -4.576  1.00 44.17 LIG 0.00  A 
ATOM     37  CZ3 TRP B   6      -8.050   7.085  -4.155  1.00 33.54 LIG 0.00  A 
ATOM     38  CE3 TRP B   6      -6.862   6.445  -3.784  1.00 38.27 LIG 0.01  A 
ENDBRANCH 28 29
ENDBRANCH 14 28
ENDBRANCH 11 14
ENDBRANCH 1 10
BRANCH 1 39
ATOM     39  N   LYS B   5       2.118   5.252  -2.393  1.00 39.73 LIG-0.35  N 
ATOM     40  C   PRO B   4       2.108   6.316  -3.193  1.00 35.29 LIG 0.24  C 
ATOM     41 O    PRO B   4       1.113   6.675  -3.822  1.00 36.70 LIG-0.27  OA
ATOM     42 H    LYS B   5       2.817   4.994  -1.962  1.00 39.73 LIG 0.16  HD
BRANCH 40 43
ATOM     43  CA  PRO B   4       3.413   7.085  -3.281  1.00 31.05 LIG 0.18  C 
ATOM     44  N   PRO B   4       4.557   6.230  -2.966  1.00 34.55 LIG-0.34  N 
ATOM     45  C   GLY B   3       4.870   5.967  -1.697  1.00 37.27 LIG 0.24  C 
ATOM     46  CD  PRO B   4       5.314   5.867  -4.178  1.00 31.08 LIG 0.13  C 
ATOM     47 O    GLY B   3       4.185   6.387  -0.759  1.00 44.84 LIG-0.27  OA
ATOM     48  CG  PRO B   4       4.429   6.352  -5.298  1.00 26.25 LIG 0.02  C 
ATOM     49  CB  PRO B   4       3.700   7.521  -4.721  1.00 27.99 LIG 0.04  C 
BRANCH 45 50
ATOM     50  CA  GLY B   3       6.093   5.112  -1.452  1.00 35.98 LIG 0.23  C 
BRANCH 50 51
ATOM     51  N   GLY B   3       6.299   4.888  -0.040  1.00 37.88 LIG-0.35  N 
ATOM     52  C   TYR B   2       6.572   5.878   0.806  1.00 38.85 LIG 0.26  C 
ATOM     53 O    TYR B   2       6.581   7.067   0.480  1.00 37.42 LIG-0.27  OA
ATOM     54 H    GLY B   3       6.229   4.064   0.198  1.00 37.88 LIG 0.16  HD
BRANCH 52 55
ATOM     55  CA  TYR B   2       6.863   5.464   2.245  1.00 47.59 LIG 0.40  C 
ATOM     56  N   TYR B   2       7.280   6.624   3.034  1.00 42.90 LIG 0.61  N 
BRANCH 55 57
ATOM     57  CB  TYR B   2       5.627   4.801   2.857  1.00 41.46 LIG 0.09  C 
BRANCH 57 58
ATOM     58  CG  TYR B   2       5.330   3.396   2.338  1.00 40.04 LIG-0.06  A 
ATOM     59  CD1 TYR B   2       4.287   3.173   1.451  1.00 39.56 LIG 0.01  A 
ATOM     60  CE1 TYR B   2       4.008   1.902   0.965  1.00 39.46 LIG 0.04  A 
ATOM     61  CZ  TYR B   2       4.779   0.833   1.365  1.00 36.77 LIG 0.07  A 
ATOM     62  CE2 TYR B   2       5.825   1.025   2.248  1.00 30.56 LIG 0.04  A 
ATOM     63  CD2 TYR B   2       6.097   2.301   2.731  1.00 33.12 LIG 0.01  A 
BRANCH 61 64
ATOM     64 OH   TYR B   2       4.484  -0.426   0.864  1.00 37.21 LIG-0.36  OA
ATOM     65 HH   TYR B   2       4.326  -0.952   1.500  1.00 37.21 LIG 0.22  HD
ENDBRANCH 61 64
ENDBRANCH 57 58
ENDBRANCH 55 57
ENDBRANCH 52 55
ENDBRANCH 50 51
ENDBRANCH 45 50
ENDBRANCH 40 43
ENDBRANCH 1 39
TORSDOF 22
ENDMDL
MODEL 63
USER: ADFR SOLUTION from run 148
USER: SCORE 18.199962 LL:  -4.083 LR: -14.799 RR:   0.000 FEB:  -8.236
USER: RMSD 8.303050
USER: SEED 147
USER: STATUS no improvement in best in 1 clusters for 5 generations
USER: GENES 24
USER: genes 0 Translation |==|  0.31087 0.36106 0.59335
USER: genes 1 Rotation |==|  0.86537 0.79439 0.58695 0.64926
USER: genes 2 Torsion [C]-CA--CB-[CG] |==|  0.31966
USER: genes 3 Torsion [CA]-CB--CG-[CD] |==|  0.58546
USER: genes 4 Torsion [CB]-CG--CD-[CE] |==|  0.51575
USER: genes 5 Torsion [CG]-CD--CE-[NZ] |==|  0.72420
USER: genes 6 Torsion [CD]-CE--NZ-[HZ3] |==|  0.23072
USER: genes 7 Torsion [N]-CA--C-[N] |==|  0.18338
USER: genes 8 Torsion [C]-N--CA-[C] |==|  0.65340
USER: genes 9 Torsion [N]-CA--C-[N] |==|  0.45394
USER: genes 10 Torsion [C]-N--CA-[C] |==|  0.52426
USER: genes 11 Torsion [N]-CA--C-[O] |==|  0.37570
USER: genes 12 Torsion [N]-CA--CB-[CG] |==|  0.32142
USER: genes 13 Torsion [CA]-CB--CG-[ND2] |==|  0.23001
USER: genes 14 Torsion [N]-CA--CB-[CG] |==|  0.64110
USER: genes 15 Torsion [CA]-CB--CG-[CD2] |==|  0.14686
USER: genes 16 Torsion [CB]-CA--N-[C] |==|  0.78765
USER: genes 17 Torsion [N]-C--CA-[CB] |==|  0.28443
USER: genes 18 Torsion [N]-C--CA-[N] |==|  0.66208
USER: genes 19 Torsion [C]-CA--N-[C] |==|  0.17712
USER: genes 20 Torsion [N]-C--CA-[N] |==|  0.89843
USER: genes 21 Torsion [C]-CA--CB-[CG] |==|  0.43523
USER: genes 22 Torsion [CA]-CB--CG-[CD1] |==|  0.88149
USER: genes 23 Torsion [CE1]-CZ--OH-[HH] |==|  0.45572
ROOT
ATOM      1  CA  LYS B   5      -9.224   2.115  -0.400  1.00 42.36 LIG 0.18  C 
ENDROOT
BRANCH 1 2
ATOM      2  CB  LYS B   5     -10.058   2.216   0.886  1.00 43.80 LIG 0.04  C 
BRANCH 2 3
ATOM      3  CG  LYS B   5     -11.560   2.526   0.671  1.00 49.23 LIG 0.00  C 
BRANCH 3 4
ATOM      4  CD  LYS B   5     -12.181   3.327   1.821  1.00 48.54 LIG 0.03  C 
BRANCH 4 5
ATOM      5  CE  LYS B   5     -13.680   3.488   1.636  1.00 43.92 LIG 0.23  C 
BRANCH 5 6
ATOM      6  NZ  LYS B   5     -13.973   4.826   1.067  1.00 45.51 LIG-0.08  N 
ATOM      7 HZ3  LYS B   5     -13.871   4.802   0.183  1.00 45.51 LIG 0.27  HD
ATOM      8 HZ1  LYS B   5     -14.810   5.055   1.263  1.00 45.51 LIG 0.27  HD
ATOM      9 HZ2  LYS B   5     -13.414   5.425   1.413  1.00 45.51 LIG 0.27  HD
ENDBRANCH 5 6
ENDBRANCH 4 5
ENDBRANCH 3 4
ENDBRANCH 2 3
ENDBRANCH 1 2
BRANCH 1 10
ATOM     10  C   LYS B   5      -8.190   3.241  -0.438  1.00 41.24 LIG 0.24  C 
ATOM     11  N   TRP B   6      -7.508   3.383  -1.576  1.00 42.23 LIG-0.35  N 
ATOM     12 H    TRP B   6      -7.585   2.863  -2.257  1.00 42.23 LIG 0.16  HD
ATOM     13 O    LYS B   5      -8.000   3.968   0.540  1.00 40.50 LIG-0.27  OA
BRANCH 11 14
ATOM     14  CA  TRP B   6      -6.552   4.473  -1.743  1.00 42.54 LIG 0.18  C 
BRANCH 14 15
ATOM     15  C   TRP B   6      -6.913   5.277  -2.991  1.00 45.00 LIG 0.24  C 
ATOM     16 O    TRP B   6      -7.682   4.803  -3.839  1.00 46.85 LIG-0.27  OA
ATOM     17  N   ASN B   7      -6.359   6.491  -3.096  1.00 47.11 LIG-0.35  N 
ATOM     18 H    ASN B   7      -5.939   6.873  -2.451  1.00 47.11 LIG 0.16  HD
BRANCH 17 19
ATOM     19  CA  ASN B   7      -6.413   7.299  -4.327  1.00 45.24 LIG 0.17  C 
BRANCH 19 20
ATOM     20  C   ASN B   7      -5.510   8.521  -4.184  1.00 46.26 LIG 0.22  C 
ATOM     21 O    ASN B   7      -4.757   8.853  -5.104  1.00 44.70 LIG-0.29  OA
ENDBRANCH 19 20
BRANCH 19 22
ATOM     22  CB  ASN B   7      -7.841   7.769  -4.655  1.00 46.57 LIG 0.14  C 
BRANCH 22 23
ATOM     23  CG  ASN B   7      -7.999   9.286  -4.601  1.00 48.94 LIG 0.22  C 
ATOM     24  ND2 ASN B   7      -7.630   9.964  -5.687  1.00 48.79 LIG-0.37  N 
ATOM     25 21HD ASN B   7      -7.697  10.821  -5.703  1.00 48.79 LIG 0.16  HD
ATOM     26 22HD ASN B   7      -7.325   9.544  -6.373  1.00 48.79 LIG 0.16  HD
ATOM     27 OD1  ASN B   7      -8.441   9.839  -3.597  1.00 52.21 LIG-0.27  OA
ENDBRANCH 22 23
ENDBRANCH 19 22
ENDBRANCH 17 19
ENDBRANCH 14 15
BRANCH 14 28
ATOM     28  CB  TRP B   6      -5.110   3.967  -1.840  1.00 42.47 LIG 0.07  C 
BRANCH 28 29
ATOM     29  CG  TRP B   6      -4.197   4.706  -0.871  1.00 46.30 LIG-0.03  A 
ATOM     30  CD1 TRP B   6      -3.035   5.373  -1.180  1.00 49.14 LIG 0.10  A 
ATOM     31  NE1 TRP B   6      -2.498   5.945  -0.047  1.00 51.13 LIG-0.36  N 
ATOM     32 HE1  TRP B   6      -1.774   6.407  -0.017  1.00 51.13 LIG 0.17  HD
ATOM     33  CE2 TRP B   6      -3.305   5.655   1.023  1.00 47.23 LIG 0.04  A 
ATOM     34  CZ2 TRP B   6      -3.175   6.010   2.371  1.00 46.28 LIG 0.03  A 
ATOM     35  CD2 TRP B   6      -4.388   4.881   0.545  1.00 41.81 LIG-0.00  A 
ATOM     36  CH2 TRP B   6      -4.148   5.576   3.240  1.00 44.17 LIG 0.00  A 
ATOM     37  CZ3 TRP B   6      -5.225   4.803   2.801  1.00 33.54 LIG 0.00  A 
ATOM     38  CE3 TRP B   6      -5.358   4.449   1.454  1.00 38.27 LIG 0.01  A 
ENDBRANCH 28 29
ENDBRANCH 14 28
ENDBRANCH 11 14
ENDBRANCH 1 10
BRANCH 1 39
ATOM     39  N   LYS B   5      -8.565   0.814  -0.485  1.00 39.73 LIG-0.35  N 
ATOM     40  C   PRO B   4      -7.485   0.495   0.226  1.00 35.29 LIG 0.24  C 
ATOM     41 O    PRO B   4      -6.937   1.277   1.004  1.00 36.70 LIG-0.27  OA
ATOM     42 H    LYS B   5      -8.941   0.272  -1.037  1.00 39.73 LIG 0.16  HD
BRANCH 40 43
ATOM     43  CA  PRO B   4      -6.961  -0.915   0.029  1.00 31.05 LIG 0.18  C 
ATOM     44  N   PRO B   4      -7.916  -1.740  -0.709  1.00 34.55 LIG-0.34  N 
ATOM     45  C   GLY B   3      -8.960  -2.283  -0.083  1.00 37.27 LIG 0.24  C 
ATOM     46  CD  PRO B   4      -7.481  -1.962  -2.100  1.00 31.08 LIG 0.13  C 
ATOM     47 O    GLY B   3      -9.183  -2.069   1.113  1.00 44.84 LIG-0.27  OA
ATOM     48  CG  PRO B   4      -6.312  -1.022  -2.252  1.00 26.25 LIG 0.02  C 
ATOM     49  CB  PRO B   4      -5.729  -0.923  -0.882  1.00 27.99 LIG 0.04  C 
BRANCH 45 50
ATOM     50  CA  GLY B   3      -9.879  -3.159  -0.905  1.00 35.98 LIG 0.23  C 
BRANCH 50 51
ATOM     51  N   GLY B   3     -11.234  -2.660  -0.885  1.00 37.88 LIG-0.35  N 
ATOM     52  C   TYR B   2     -11.564  -1.478  -1.398  1.00 38.85 LIG 0.26  C 
ATOM     53 O    TYR B   2     -10.772  -0.757  -2.010  1.00 37.42 LIG-0.27  OA
ATOM     54 H    GLY B   3     -11.798  -3.192  -0.515  1.00 37.88 LIG 0.16  HD
BRANCH 52 55
ATOM     55  CA  TYR B   2     -13.016  -1.050  -1.207  1.00 47.59 LIG 0.40  C 
ATOM     56  N   TYR B   2     -13.905  -2.207  -1.309  1.00 42.90 LIG 0.61  N 
BRANCH 55 57
ATOM     57  CB  TYR B   2     -13.181  -0.350   0.144  1.00 41.46 LIG 0.09  C 
BRANCH 57 58
ATOM     58  CG  TYR B   2     -14.377   0.593   0.235  1.00 40.04 LIG-0.06  A 
ATOM     59  CD1 TYR B   2     -14.686   1.451  -0.812  1.00 39.56 LIG 0.01  A 
ATOM     60  CE1 TYR B   2     -15.774   2.311  -0.747  1.00 39.46 LIG 0.04  A 
ATOM     61  CZ  TYR B   2     -16.573   2.321   0.376  1.00 36.77 LIG 0.07  A 
ATOM     62  CE2 TYR B   2     -16.289   1.477   1.435  1.00 30.56 LIG 0.04  A 
ATOM     63  CD2 TYR B   2     -15.197   0.619   1.362  1.00 33.12 LIG 0.01  A 
BRANCH 61 64
ATOM     64 OH   TYR B   2     -17.656   3.185   0.417  1.00 37.21 LIG-0.36  OA
ATOM     65 HH   TYR B   2     -18.178   2.951   1.033  1.00 37.21 LIG 0.22  HD
ENDBRANCH 61 64
ENDBRANCH 57 58
ENDBRANCH 55 57
ENDBRANCH 52 55
ENDBRANCH 50 51
ENDBRANCH 45 50
ENDBRANCH 40 43
ENDBRANCH 1 39
TORSDOF 22
ENDMDL
MODEL 64
USER: ADFR SOLUTION from run 56
USER: SCORE 18.219399 LL:  -4.303 LR: -14.795 RR:   0.000 FEB:  -8.232
USER: RMSD 6.824485
USER: SEED 55
USER: STATUS no improvement in best in 17 clusters for 5 generations
USER: GENES 24
USER: genes 0 Translation |==|  0.37175 0.48796 0.62028
USER: genes 1 Rotation |==|  0.95623 0.65183 0.38111 0.56832
USER: genes 2 Torsion [C]-CA--CB-[CG] |==|  0.09496
USER: genes 3 Torsion [CA]-CB--CG-[CD] |==|  0.74349
USER: genes 4 Torsion [CB]-CG--CD-[CE] |==|  0.76333
USER: genes 5 Torsion [CG]-CD--CE-[NZ] |==|  0.14733
USER: genes 6 Torsion [CD]-CE--NZ-[HZ3] |==|  0.72922
USER: genes 7 Torsion [N]-CA--C-[N] |==|  0.34547
USER: genes 8 Torsion [C]-N--CA-[C] |==|  0.85488
USER: genes 9 Torsion [N]-CA--C-[N] |==|  0.32295
USER: genes 10 Torsion [C]-N--CA-[C] |==|  0.90217
USER: genes 11 Torsion [N]-CA--C-[O] |==|  0.41404
USER: genes 12 Torsion [N]-CA--CB-[CG] |==|  0.81015
USER: genes 13 Torsion [CA]-CB--CG-[ND2] |==|  0.43302
USER: genes 14 Torsion [N]-CA--CB-[CG] |==|  0.37604
USER: genes 15 Torsion [CA]-CB--CG-[CD2] |==|  0.17971
USER: genes 16 Torsion [CB]-CA--N-[C] |==|  0.88302
USER: genes 17 Torsion [N]-C--CA-[CB] |==|  0.36365
USER: genes 18 Torsion [N]-C--CA-[N] |==|  0.35827
USER: genes 19 Torsion [C]-CA--N-[C] |==|  0.85554
USER: genes 20 Torsion [N]-C--CA-[N] |==|  0.58169
USER: genes 21 Torsion [C]-CA--CB-[CG] |==|  0.83835
USER: genes 22 Torsion [CA]-CB--CG-[CD1] |==|  0.30398
USER: genes 23 Torsion [CE1]-CZ--OH-[HH] |==|  0.96262
ROOT
ATOM      1  CA  LYS B   5      -7.398   4.589   0.065  1.00 42.36 LIG 0.18  C 
ENDROOT
BRANCH 1 2
ATOM      2  CB  LYS B   5      -6.921   4.929   1.485  1.00 43.80 LIG 0.04  C 
BRANCH 2 3
ATOM      3  CG  LYS B   5      -5.760   5.952   1.561  1.00 49.23 LIG 0.00  C 
BRANCH 3 4
ATOM      4  CD  LYS B   5      -4.377   5.292   1.587  1.00 48.54 LIG 0.03  C 
BRANCH 4 5
ATOM      5  CE  LYS B   5      -3.979   4.900   2.999  1.00 43.92 LIG 0.23  C 
BRANCH 5 6
ATOM      6  NZ  LYS B   5      -5.049   4.074   3.609  1.00 45.51 LIG-0.08  N 
ATOM      7 HZ3  LYS B   5      -5.568   4.589   4.117  1.00 45.51 LIG 0.27  HD
ATOM      8 HZ1  LYS B   5      -5.539   3.701   2.968  1.00 45.51 LIG 0.27  HD
ATOM      9 HZ2  LYS B   5      -4.683   3.436   4.111  1.00 45.51 LIG 0.27  HD
ENDBRANCH 5 6
ENDBRANCH 4 5
ENDBRANCH 3 4
ENDBRANCH 2 3
ENDBRANCH 1 2
BRANCH 1 10
ATOM     10  C   LYS B   5      -6.212   4.614  -0.901  1.00 41.24 LIG 0.24  C 
ATOM     11  N   TRP B   6      -6.221   5.574  -1.827  1.00 42.23 LIG-0.35  N 
ATOM     12 H    TRP B   6      -6.860   6.139  -1.936  1.00 42.23 LIG 0.16  HD
ATOM     13 O    LYS B   5      -5.306   3.781  -0.823  1.00 40.50 LIG-0.27  OA
BRANCH 11 14
ATOM     14  CA  TRP B   6      -5.100   5.732  -2.750  1.00 42.54 LIG 0.18  C 
BRANCH 14 15
ATOM     15  C   TRP B   6      -3.798   5.816  -1.955  1.00 45.00 LIG 0.24  C 
ATOM     16 O    TRP B   6      -3.602   6.757  -1.174  1.00 46.85 LIG-0.27  OA
ATOM     17  N   ASN B   7      -2.915   4.829  -2.156  1.00 47.11 LIG-0.35  N 
ATOM     18 H    ASN B   7      -3.103   4.111  -2.589  1.00 47.11 LIG 0.16  HD
BRANCH 17 19
ATOM     19  CA  ASN B   7      -1.530   4.872  -1.654  1.00 45.24 LIG 0.17  C 
BRANCH 19 20
ATOM     20  C   ASN B   7      -1.003   6.304  -1.712  1.00 46.26 LIG 0.22  C 
ATOM     21 O    ASN B   7      -0.175   6.699  -0.886  1.00 44.70 LIG-0.29  OA
ENDBRANCH 19 20
BRANCH 19 22
ATOM     22  CB  ASN B   7      -0.589   3.962  -2.461  1.00 46.57 LIG 0.14  C 
BRANCH 22 23
ATOM     23  CG  ASN B   7      -0.880   2.476  -2.269  1.00 48.94 LIG 0.22  C 
ATOM     24  ND2 ASN B   7      -0.490   1.660  -3.248  1.00 48.79 LIG-0.37  N 
ATOM     25 21HD ASN B   7      -0.636   0.815  -3.187  1.00 48.79 LIG 0.16  HD
ATOM     26 22HD ASN B   7      -0.094   1.979  -3.941  1.00 48.79 LIG 0.16  HD
ATOM     27 OD1  ASN B   7      -1.450   2.070  -1.260  1.00 52.21 LIG-0.27  OA
ENDBRANCH 22 23
ENDBRANCH 19 22
ENDBRANCH 17 19
ENDBRANCH 14 15
BRANCH 14 28
ATOM     28  CB  TRP B   6      -5.255   6.968  -3.641  1.00 42.47 LIG 0.07  C 
BRANCH 28 29
ATOM     29  CG  TRP B   6      -3.952   7.750  -3.735  1.00 46.30 LIG-0.03  A 
ATOM     30  CD1 TRP B   6      -3.712   9.012  -3.244  1.00 49.14 LIG 0.10  A 
ATOM     31  NE1 TRP B   6      -2.408   9.379  -3.492  1.00 51.13 LIG-0.36  N 
ATOM     32 HE1  TRP B   6      -2.049  10.128  -3.268  1.00 51.13 LIG 0.17  HD
ATOM     33  CE2 TRP B   6      -1.775   8.357  -4.152  1.00 47.23 LIG 0.04  A 
ATOM     34  CZ2 TRP B   6      -0.457   8.264  -4.614  1.00 46.28 LIG 0.03  A 
ATOM     35  CD2 TRP B   6      -2.713   7.311  -4.320  1.00 41.81 LIG-0.00  A 
ATOM     36  CH2 TRP B   6      -0.088   7.103  -5.252  1.00 44.17 LIG 0.00  A 
ATOM     37  CZ3 TRP B   6      -0.992   6.055  -5.441  1.00 33.54 LIG 0.00  A 
ATOM     38  CE3 TRP B   6      -2.309   6.146  -4.978  1.00 38.27 LIG 0.01  A 
ENDBRANCH 28 29
ENDBRANCH 14 28
ENDBRANCH 11 14
ENDBRANCH 1 10
BRANCH 1 39
ATOM     39  N   LYS B   5      -8.049   3.282   0.039  1.00 39.73 LIG-0.35  N 
ATOM     40  C   PRO B   4      -7.582   2.221   0.695  1.00 35.29 LIG 0.24  C 
ATOM     41 O    PRO B   4      -6.550   2.246   1.365  1.00 36.70 LIG-0.27  OA
ATOM     42 H    LYS B   5      -8.764   3.262  -0.438  1.00 39.73 LIG 0.16  HD
BRANCH 40 43
ATOM     43  CA  PRO B   4      -8.413   0.957   0.576  1.00 31.05 LIG 0.18  C 
ATOM     44  N   PRO B   4      -9.348   1.037  -0.546  1.00 34.55 LIG-0.34  N 
ATOM     45  C   GLY B   3     -10.495   1.705  -0.418  1.00 37.27 LIG 0.24  C 
ATOM     46  CD  PRO B   4      -8.906   0.208  -1.681  1.00 31.08 LIG 0.13  C 
ATOM     47 O    GLY B   3     -10.781   2.313   0.618  1.00 44.84 LIG-0.27  OA
ATOM     48  CG  PRO B   4      -7.510  -0.206  -1.286  1.00 26.25 LIG 0.02  C 
ATOM     49  CB  PRO B   4      -7.539  -0.245   0.206  1.00 27.99 LIG 0.04  C 
BRANCH 45 50
ATOM     50  CA  GLY B   3     -11.428   1.705  -1.608  1.00 35.98 LIG 0.23  C 
BRANCH 50 51
ATOM     51  N   GLY B   3     -12.765   1.316  -1.223  1.00 37.88 LIG-0.35  N 
ATOM     52  C   TYR B   2     -13.013   0.204  -0.536  1.00 38.85 LIG 0.26  C 
ATOM     53 O    TYR B   2     -12.129  -0.532  -0.093  1.00 37.42 LIG-0.27  OA
ATOM     54 H    GLY B   3     -13.376   1.864  -1.478  1.00 37.88 LIG 0.16  HD
BRANCH 52 55
ATOM     55  CA  TYR B   2     -14.485  -0.118  -0.296  1.00 47.59 LIG 0.40  C 
ATOM     56  N   TYR B   2     -14.646  -0.861   0.953  1.00 42.90 LIG 0.61  N 
BRANCH 55 57
ATOM     57  CB  TYR B   2     -15.304   1.175  -0.275  1.00 41.46 LIG 0.09  C 
BRANCH 57 58
ATOM     58  CG  TYR B   2     -14.869   2.192   0.778  1.00 40.04 LIG-0.06  A 
ATOM     59  CD1 TYR B   2     -14.244   3.374   0.407  1.00 39.56 LIG 0.01  A 
ATOM     60  CE1 TYR B   2     -13.847   4.311   1.352  1.00 39.46 LIG 0.04  A 
ATOM     61  CZ  TYR B   2     -14.076   4.073   2.690  1.00 36.77 LIG 0.07  A 
ATOM     62  CE2 TYR B   2     -14.697   2.904   3.089  1.00 30.56 LIG 0.04  A 
ATOM     63  CD2 TYR B   2     -15.091   1.970   2.136  1.00 33.12 LIG 0.01  A 
BRANCH 61 64
ATOM     64 OH   TYR B   2     -13.675   5.024   3.615  1.00 37.21 LIG-0.36  OA
ATOM     65 HH   TYR B   2     -13.161   5.577   3.245  1.00 37.21 LIG 0.22  HD
ENDBRANCH 61 64
ENDBRANCH 57 58
ENDBRANCH 55 57
ENDBRANCH 52 55
ENDBRANCH 50 51
ENDBRANCH 45 50
ENDBRANCH 40 43
ENDBRANCH 1 39
TORSDOF 22
ENDMDL
MODEL 65
USER: ADFR SOLUTION from run 169
USER: SCORE 17.517900 LL:  -4.794 LR: -14.780 RR:   0.000 FEB:  -8.218
USER: RMSD 14.425338
USER: SEED 168
USER: STATUS no improvement in best in 15 clusters for 5 generations
USER: GENES 24
USER: genes 0 Translation |==|  0.35131 0.35414 0.52261
USER: genes 1 Rotation |==|  0.64058 0.02678 0.42406 0.52313
USER: genes 2 Torsion [C]-CA--CB-[CG] |==|  0.28074
USER: genes 3 Torsion [CA]-CB--CG-[CD] |==|  0.82787
USER: genes 4 Torsion [CB]-CG--CD-[CE] |==|  0.68675
USER: genes 5 Torsion [CG]-CD--CE-[NZ] |==|  0.29145
USER: genes 6 Torsion [CD]-CE--NZ-[HZ3] |==|  0.85358
USER: genes 7 Torsion [N]-CA--C-[N] |==|  0.70370
USER: genes 8 Torsion [C]-N--CA-[C] |==|  0.51825
USER: genes 9 Torsion [N]-CA--C-[N] |==|  0.38832
USER: genes 10 Torsion [C]-N--CA-[C] |==|  0.19202
USER: genes 11 Torsion [N]-CA--C-[O] |==|  0.42101
USER: genes 12 Torsion [N]-CA--CB-[CG] |==|  0.57998
USER: genes 13 Torsion [CA]-CB--CG-[ND2] |==|  0.16450
USER: genes 14 Torsion [N]-CA--CB-[CG] |==|  0.39862
USER: genes 15 Torsion [CA]-CB--CG-[CD2] |==|  0.20203
USER: genes 16 Torsion [CB]-CA--N-[C] |==|  0.16653
USER: genes 17 Torsion [N]-C--CA-[CB] |==|  0.06661
USER: genes 18 Torsion [N]-C--CA-[N] |==|  0.24537
USER: genes 19 Torsion [C]-CA--N-[C] |==|  0.71704
USER: genes 20 Torsion [N]-C--CA-[N] |==|  0.39961
USER: genes 21 Torsion [C]-CA--CB-[CG] |==|  0.88280
USER: genes 22 Torsion [CA]-CB--CG-[CD1] |==|  0.81827
USER: genes 23 Torsion [CE1]-CZ--OH-[HH] |==|  0.47024
ROOT
ATOM      1  CA  LYS B   5      -8.011   1.980  -1.620  1.00 42.36 LIG 0.18  C 
ENDROOT
BRANCH 1 2
ATOM      2  CB  LYS B   5      -7.648   1.856  -0.132  1.00 43.80 LIG 0.04  C 
BRANCH 2 3
ATOM      3  CG  LYS B   5      -7.086   0.477   0.294  1.00 49.23 LIG 0.00  C 
BRANCH 3 4
ATOM      4  CD  LYS B   5      -8.082  -0.669   0.085  1.00 48.54 LIG 0.03  C 
BRANCH 4 5
ATOM      5  CE  LYS B   5      -8.536  -1.254   1.412  1.00 43.92 LIG 0.23  C 
BRANCH 5 6
ATOM      6  NZ  LYS B   5      -9.916  -0.801   1.712  1.00 45.51 LIG-0.08  N 
ATOM      7 HZ3  LYS B   5      -9.956   0.087   1.656  1.00 45.51 LIG 0.27  HD
ATOM      8 HZ1  LYS B   5     -10.481  -1.160   1.126  1.00 45.51 LIG 0.27  HD
ATOM      9 HZ2  LYS B   5     -10.141  -1.056   2.534  1.00 45.51 LIG 0.27  HD
ENDBRANCH 5 6
ENDBRANCH 4 5
ENDBRANCH 3 4
ENDBRANCH 2 3
ENDBRANCH 1 2
BRANCH 1 10
ATOM     10  C   LYS B   5      -9.522   1.837  -1.800  1.00 41.24 LIG 0.24  C 
ATOM     11  N   TRP B   6     -10.266   1.962  -0.700  1.00 42.23 LIG-0.35  N 
ATOM     12 H    TRP B   6      -9.949   2.073   0.092  1.00 42.23 LIG 0.16  HD
ATOM     13 O    LYS B   5     -10.016   1.610  -2.908  1.00 40.50 LIG-0.27  OA
BRANCH 11 14
ATOM     14  CA  TRP B   6     -11.724   1.917  -0.775  1.00 42.54 LIG 0.18  C 
BRANCH 14 15
ATOM     15  C   TRP B   6     -12.311   2.248   0.596  1.00 45.00 LIG 0.24  C 
ATOM     16 O    TRP B   6     -11.784   1.804   1.626  1.00 46.85 LIG-0.27  OA
ATOM     17  N   ASN B   7     -13.399   3.029   0.604  1.00 47.11 LIG-0.35  N 
ATOM     18 H    ASN B   7     -13.683   3.445  -0.093  1.00 47.11 LIG 0.16  HD
BRANCH 17 19
ATOM     19  CA  ASN B   7     -14.221   3.255   1.805  1.00 45.24 LIG 0.17  C 
BRANCH 19 20
ATOM     20  C   ASN B   7     -13.439   4.088   2.818  1.00 46.26 LIG 0.22  C 
ATOM     21 O    ASN B   7     -14.030   4.822   3.614  1.00 44.70 LIG-0.29  OA
ENDBRANCH 19 20
BRANCH 19 22
ATOM     22  CB  ASN B   7     -14.657   1.939   2.472  1.00 46.57 LIG 0.14  C 
BRANCH 22 23
ATOM     23  CG  ASN B   7     -15.984   2.055   3.216  1.00 48.94 LIG 0.22  C 
ATOM     24  ND2 ASN B   7     -17.043   2.421   2.494  1.00 48.79 LIG-0.37  N 
ATOM     25 21HD ASN B   7     -17.812   2.504   2.870  1.00 48.79 LIG 0.16  HD
ATOM     26 22HD ASN B   7     -16.957   2.575   1.652  1.00 48.79 LIG 0.16  HD
ATOM     27 OD1  ASN B   7     -16.055   1.824   4.420  1.00 52.21 LIG-0.27  OA
ENDBRANCH 22 23
ENDBRANCH 19 22
ENDBRANCH 17 19
ENDBRANCH 14 15
BRANCH 14 28
ATOM     28  CB  TRP B   6     -12.236   0.556  -1.254  1.00 42.47 LIG 0.07  C 
BRANCH 28 29
ATOM     29  CG  TRP B   6     -13.527   0.169  -0.546  1.00 46.30 LIG-0.03  A 
ATOM     30  CD1 TRP B   6     -13.673  -0.770   0.447  1.00 49.14 LIG 0.10  A 
ATOM     31  NE1 TRP B   6     -14.984  -0.824   0.865  1.00 51.13 LIG-0.36  N 
ATOM     32 HE1  TRP B   6     -15.293  -1.342   1.477  1.00 51.13 LIG 0.17  HD
ATOM     33  CE2 TRP B   6     -15.718   0.085   0.145  1.00 47.23 LIG 0.04  A 
ATOM     34  CZ2 TRP B   6     -17.082   0.391   0.207  1.00 46.28 LIG 0.03  A 
ATOM     35  CD2 TRP B   6     -14.835   0.733  -0.750  1.00 41.81 LIG-0.00  A 
ATOM     36  CH2 TRP B   6     -17.556   1.361  -0.645  1.00 44.17 LIG 0.00  A 
ATOM     37  CZ3 TRP B   6     -16.712   2.014  -1.547  1.00 33.54 LIG 0.00  A 
ATOM     38  CE3 TRP B   6     -15.348   1.710  -1.609  1.00 38.27 LIG 0.01  A 
ENDBRANCH 28 29
ENDBRANCH 14 28
ENDBRANCH 11 14
ENDBRANCH 1 10
BRANCH 1 39
ATOM     39  N   LYS B   5      -7.552   3.258  -2.157  1.00 39.73 LIG-0.35  N 
ATOM     40  C   PRO B   4      -6.273   3.629  -2.164  1.00 35.29 LIG 0.24  C 
ATOM     41 O    PRO B   4      -5.368   2.934  -1.703  1.00 36.70 LIG-0.27  OA
ATOM     42 H    LYS B   5      -8.185   3.749  -2.469  1.00 39.73 LIG 0.16  HD
BRANCH 40 43
ATOM     43  CA  PRO B   4      -5.983   4.979  -2.795  1.00 31.05 LIG 0.18  C 
ATOM     44  N   PRO B   4      -5.714   4.851  -4.226  1.00 34.55 LIG-0.34  N 
ATOM     45  C   GLY B   3      -4.511   4.465  -4.652  1.00 37.27 LIG 0.24  C 
ATOM     46  CD  PRO B   4      -6.851   5.321  -5.038  1.00 31.08 LIG 0.13  C 
ATOM     47 O    GLY B   3      -3.611   4.156  -3.864  1.00 44.84 LIG-0.27  OA
ATOM     48  CG  PRO B   4      -7.944   5.524  -4.018  1.00 26.25 LIG 0.02  C 
ATOM     49  CB  PRO B   4      -7.222   5.880  -2.760  1.00 27.99 LIG 0.04  C 
BRANCH 45 50
ATOM     50  CA  GLY B   3      -4.296   4.400  -6.147  1.00 35.98 LIG 0.23  C 
BRANCH 50 51
ATOM     51  N   GLY B   3      -3.846   5.670  -6.667  1.00 37.88 LIG-0.35  N 
ATOM     52  C   TYR B   2      -4.662   6.510  -7.298  1.00 38.85 LIG 0.26  C 
ATOM     53 O    TYR B   2      -5.875   6.323  -7.412  1.00 37.42 LIG-0.27  OA
ATOM     54 H    GLY B   3      -3.012   5.829  -6.530  1.00 37.88 LIG 0.16  HD
BRANCH 52 55
ATOM     55  CA  TYR B   2      -4.011   7.764  -7.875  1.00 47.59 LIG 0.40  C 
ATOM     56  N   TYR B   2      -4.642   8.127  -9.144  1.00 42.90 LIG 0.61  N 
BRANCH 55 57
ATOM     57  CB  TYR B   2      -4.106   8.912  -6.867  1.00 41.46 LIG 0.09  C 
BRANCH 57 58
ATOM     58  CG  TYR B   2      -5.451   9.029  -6.154  1.00 40.04 LIG-0.06  A 
ATOM     59  CD1 TYR B   2      -6.603   9.349  -6.860  1.00 39.56 LIG 0.01  A 
ATOM     60  CE1 TYR B   2      -7.834   9.454  -6.227  1.00 39.46 LIG 0.04  A 
ATOM     61  CZ  TYR B   2      -7.927   9.235  -4.869  1.00 36.77 LIG 0.07  A 
ATOM     62  CE2 TYR B   2      -6.796   8.915  -4.141  1.00 30.56 LIG 0.04  A 
ATOM     63  CD2 TYR B   2      -5.566   8.813  -4.783  1.00 33.12 LIG 0.01  A 
BRANCH 61 64
ATOM     64 OH   TYR B   2      -9.168   9.341  -4.260  1.00 37.21 LIG-0.36  OA
ATOM     65 HH   TYR B   2      -9.121   9.046  -3.474  1.00 37.21 LIG 0.22  HD
ENDBRANCH 61 64
ENDBRANCH 57 58
ENDBRANCH 55 57
ENDBRANCH 52 55
ENDBRANCH 50 51
ENDBRANCH 45 50
ENDBRANCH 40 43
ENDBRANCH 1 39
TORSDOF 22
ENDMDL
