MODEL 1
USER: ADFR SOLUTION from run 182
USER: SCORE 18.405785 LL:  -3.064 LR: -17.509 RR:   0.000 FEB: -12.438
USER: RMSD 0.760643
USER: SEED 181
USER: STATUS no improvement in best in 7 clusters for 5 generations
USER: GENES 19
USER: genes 0 Translation |==|  0.49420 0.48245 0.51477
USER: genes 1 Rotation |==|  0.45921 0.52665 0.48684 0.99745
USER: genes 2 Torsion [C]-CA--CB-[CG] |==|  0.51306
USER: genes 3 Torsion [CA]-CB--CG-[CD] |==|  0.42657
USER: genes 4 Torsion [CB]-CG--CD-[NE] |==|  0.35421
USER: genes 5 Torsion [CG]-CD--NE-[CZ] |==|  0.33859
USER: genes 6 Torsion [N]-CA--C-[N] |==|  0.49384
USER: genes 7 Torsion [C]-N--CA-[C] |==|  0.40938
USER: genes 8 Torsion [N]-CA--C-[N] |==|  0.45718
USER: genes 9 Torsion [C]-N--CA-[CB] |==|  0.29284
USER: genes 10 Torsion [N]-CA--C-[O] |==|  0.84611
USER: genes 11 Torsion [CB]-CA--N-[C] |==|  0.34814
USER: genes 12 Torsion [N]-C--CA-[N] |==|  0.34381
USER: genes 13 Torsion [N]-C--CA-[N] |==|  0.31766
USER: genes 14 Torsion [C]-CA--N-[C] |==|  0.74616
USER: genes 15 Torsion [N]-C--CA-[N] |==|  0.53749
USER: genes 16 Torsion [C]-CA--CB-[CG] |==|  0.05473
USER: genes 17 Torsion [CA]-CB--CG-[SD] |==|  0.63192
USER: genes 18 Torsion [CB]-CG--SD-[CE] |==|  0.63949
ROOT
ATOM      1  CA  ARG C  85     120.850  42.779  -8.329  1.00 24.81 LIG 0.18  C 
ENDROOT
BRANCH 1 2
ATOM      2  CB  ARG C  85     119.953  41.692  -7.730  1.00 26.62 LIG 0.04  C 
BRANCH 2 3
ATOM      3  CG  ARG C  85     118.702  42.183  -7.052  1.00 27.35 LIG 0.02  C 
BRANCH 3 4
ATOM      4  CD  ARG C  85     117.650  41.053  -7.117  1.00 30.83 LIG 0.14  C 
BRANCH 4 5
ATOM      5  NE  ARG C  85     117.087  40.732  -5.812  1.00 23.70 LIG-0.23  N 
ATOM      6 HE   ARG C  85     117.627  40.487  -5.188  1.00 23.70 LIG 0.18  HD
ATOM      7  CZ  ARG C  85     115.789  40.795  -5.523  1.00 30.65 LIG 0.67  C 
ATOM      8  NH1 ARG C  85     114.913  41.195  -6.442  1.00 24.79 LIG-0.23  N 
ATOM      9  NH2 ARG C  85     115.373  40.477  -4.301  1.00 28.31 LIG-0.23  N 
ATOM     10 2HH1 ARG C  85     114.076  41.233  -6.250  1.00 24.79 LIG 0.17  HD
ATOM     11 1HH1 ARG C  85     115.185  41.415  -7.229  1.00 24.79 LIG 0.17  HD
ATOM     12 1HH2 ARG C  85     115.941  40.232  -3.703  1.00 28.31 LIG 0.17  HD
ATOM     13 2HH2 ARG C  85     114.536  40.515  -4.109  1.00 28.31 LIG 0.17  HD
ENDBRANCH 4 5
ENDBRANCH 3 4
ENDBRANCH 2 3
ENDBRANCH 1 2
BRANCH 1 14
ATOM     14  C   ARG C  85     121.987  42.102  -9.064  1.00 23.94 LIG 0.24  C 
ATOM     15  N   GLY C  86     122.777  41.323  -8.343  1.00 22.55 LIG-0.35  N 
ATOM     16 H    GLY C  86     122.746  41.229  -7.489  1.00 22.55 LIG 0.16  HD
ATOM     17 O    ARG C  85     122.136  42.262 -10.275  1.00 20.62 LIG-0.27  OA
BRANCH 15 18
ATOM     18  CA  GLY C  86     123.790  40.553  -9.031  1.00 30.25 LIG 0.23  C 
BRANCH 18 19
ATOM     19  C   GLY C  86     125.030  40.368  -8.196  1.00 23.49 LIG 0.24  C 
ATOM     20 O    GLY C  86     125.265  41.085  -7.211  1.00 21.63 LIG-0.27  OA
ATOM     21  N   ALA C  87     125.844  39.417  -8.638  1.00 19.98 LIG-0.35  N 
ATOM     22 H    ALA C  87     125.652  38.908  -9.303  1.00 19.98 LIG 0.16  HD
BRANCH 21 23
ATOM     23  CA  ALA C  87     127.139  39.137  -8.046  1.00 25.46 LIG 0.18  C 
ATOM     24  CB  ALA C  87     127.079  37.858  -7.226  1.00 28.24 LIG 0.04  C 
BRANCH 23 25
ATOM     25  C   ALA C  87     128.229  39.030  -9.133  1.00 31.90 LIG 0.20  C 
ATOM     26 O    ALA C  87     128.124  38.236 -10.088  1.00 29.46 LIG-0.65  OA
ATOM     27 OXT  ALA C  87     129.246  39.732  -9.076  1.00 32.87 LIG-0.65  OA
ENDBRANCH 23 25
ENDBRANCH 21 23
ENDBRANCH 18 19
ENDBRANCH 15 18
ENDBRANCH 1 14
BRANCH 1 28
ATOM     28  N   ARG C  85     120.140  43.622  -9.272  1.00 18.65 LIG-0.35  N 
ATOM     29  C   PRO C  84     120.092  44.935  -9.169  1.00 20.35 LIG 0.24  C 
ATOM     30 O    PRO C  84     120.619  45.540  -8.238  1.00 17.99 LIG-0.27  OA
ATOM     31 H    ARG C  85     119.753  43.185  -9.904  1.00 18.65 LIG 0.16  HD
BRANCH 29 32
ATOM     32  CA  PRO C  84     119.344  45.660 -10.293  1.00 19.37 LIG 0.18  C 
ATOM     33  N   PRO C  84     118.259  46.504  -9.771  1.00 20.85 LIG-0.34  N 
ATOM     34  CD  PRO C  84     118.519  47.947  -9.959  1.00 20.85 LIG 0.13  C 
ATOM     35  C   MET C  83     117.190  45.926  -9.217  1.00 22.34 LIG 0.24  C 
ATOM     36  CG  PRO C  84     119.969  47.990 -10.407  1.00 19.31 LIG 0.02  C 
ATOM     37  CB  PRO C  84     120.254  46.656 -11.037  1.00 19.29 LIG 0.04  C 
ATOM     38 O    MET C  83     117.072  44.692  -9.183  1.00 21.27 LIG-0.27  OA
BRANCH 35 39
ATOM     39  CA  MET C  83     116.091  46.775  -8.615  1.00 20.32 LIG 0.18  C 
BRANCH 39 40
ATOM     40  N   MET C  83     114.884  46.585  -9.404  1.00 21.66 LIG-0.35  N 
ATOM     41  C   GLY C  82     114.569  47.363 -10.441  1.00 33.13 LIG 0.25  C 
ATOM     42 O    GLY C  82     115.245  48.349 -10.789  1.00 25.06 LIG-0.27  OA
ATOM     43 H    MET C  83     114.395  45.928  -9.140  1.00 21.66 LIG 0.16  HD
BRANCH 41 44
ATOM     44  CA  GLY C  82     113.303  46.965 -11.185  1.00 30.04 LIG 0.47  C 
ATOM     45  N   GLY C  82     113.131  47.608 -12.474  1.00 27.71 LIG 0.61  N 
ENDBRANCH 41 44
ENDBRANCH 39 40
BRANCH 39 46
ATOM     46  CB  MET C  83     115.852  46.362  -7.159  1.00 20.93 LIG 0.04  C 
BRANCH 46 47
ATOM     47  CG  MET C  83     117.004  45.599  -6.524  1.00 22.56 LIG 0.08  C 
BRANCH 47 48
ATOM     48 SD   MET C  83     116.434  44.115  -5.657  1.00 24.19 LIG-0.17  SA
ATOM     49  CE  MET C  83     117.248  44.328  -4.064  1.00 17.13 LIG 0.09  C 
ENDBRANCH 47 48
ENDBRANCH 46 47
ENDBRANCH 39 46
ENDBRANCH 35 39
ENDBRANCH 29 32
ENDBRANCH 1 28
TORSDOF 17
ENDMDL
MODEL 2
USER: ADFR SOLUTION from run 189
USER: SCORE 16.942736 LL:  -2.859 LR: -16.583 RR:   0.000 FEB: -11.512
USER: RMSD 2.298666
USER: SEED 188
USER: STATUS no improvement in best in 2 clusters for 5 generations
USER: GENES 19
USER: genes 0 Translation |==|  0.49173 0.48291 0.51102
USER: genes 1 Rotation |==|  0.46690 0.54241 0.48268 0.99680
USER: genes 2 Torsion [C]-CA--CB-[CG] |==|  0.51401
USER: genes 3 Torsion [CA]-CB--CG-[CD] |==|  0.42022
USER: genes 4 Torsion [CB]-CG--CD-[NE] |==|  0.35764
USER: genes 5 Torsion [CG]-CD--NE-[CZ] |==|  0.34708
USER: genes 6 Torsion [N]-CA--C-[N] |==|  0.37058
USER: genes 7 Torsion [C]-N--CA-[C] |==|  0.57490
USER: genes 8 Torsion [N]-CA--C-[N] |==|  0.47832
USER: genes 9 Torsion [C]-N--CA-[CB] |==|  0.24482
USER: genes 10 Torsion [N]-CA--C-[O] |==|  0.39375
USER: genes 11 Torsion [CB]-CA--N-[C] |==|  0.34763
USER: genes 12 Torsion [N]-C--CA-[N] |==|  0.23209
USER: genes 13 Torsion [N]-C--CA-[N] |==|  0.17912
USER: genes 14 Torsion [C]-CA--N-[C] |==|  0.60669
USER: genes 15 Torsion [N]-C--CA-[N] |==|  0.31357
USER: genes 16 Torsion [C]-CA--CB-[CG] |==|  0.58822
USER: genes 17 Torsion [CA]-CB--CG-[SD] |==|  0.30156
USER: genes 18 Torsion [CB]-CG--SD-[CE] |==|  0.56189
ROOT
ATOM      1  CA  ARG C  85     120.787  42.788  -8.391  1.00 24.81 LIG 0.18  C 
ENDROOT
BRANCH 1 2
ATOM      2  CB  ARG C  85     119.902  41.703  -7.772  1.00 26.62 LIG 0.04  C 
BRANCH 2 3
ATOM      3  CG  ARG C  85     118.701  42.199  -7.011  1.00 27.35 LIG 0.02  C 
BRANCH 3 4
ATOM      4  CD  ARG C  85     117.602  41.117  -7.096  1.00 30.83 LIG 0.14  C 
BRANCH 4 5
ATOM      5  NE  ARG C  85     117.061  40.760  -5.790  1.00 23.70 LIG-0.23  N 
ATOM      6 HE   ARG C  85     117.612  40.503  -5.182  1.00 23.70 LIG 0.18  HD
ATOM      7  CZ  ARG C  85     115.768  40.806  -5.480  1.00 30.65 LIG 0.67  C 
ATOM      8  NH1 ARG C  85     114.875  41.223  -6.375  1.00 24.79 LIG-0.23  N 
ATOM      9  NH2 ARG C  85     115.373  40.455  -4.260  1.00 28.31 LIG-0.23  N 
ATOM     10 2HH1 ARG C  85     114.041  41.251  -6.170  1.00 24.79 LIG 0.17  HD
ATOM     11 1HH1 ARG C  85     115.133  41.465  -7.160  1.00 24.79 LIG 0.17  HD
ATOM     12 1HH2 ARG C  85     115.952  40.200  -3.678  1.00 28.31 LIG 0.17  HD
ATOM     13 2HH2 ARG C  85     114.539  40.483  -4.055  1.00 28.31 LIG 0.17  HD
ENDBRANCH 4 5
ENDBRANCH 3 4
ENDBRANCH 2 3
ENDBRANCH 1 2
BRANCH 1 14
ATOM     14  C   ARG C  85     121.861  42.109  -9.214  1.00 23.94 LIG 0.24  C 
ATOM     15  N   GLY C  86     123.076  42.078  -8.692  1.00 22.55 LIG-0.35  N 
ATOM     16 H    GLY C  86     123.322  42.472  -7.968  1.00 22.55 LIG 0.16  HD
ATOM     17 O    ARG C  85     121.590  41.597 -10.300  1.00 20.62 LIG-0.27  OA
BRANCH 15 18
ATOM     18  CA  GLY C  86     124.097  41.322  -9.382  1.00 30.25 LIG 0.23  C 
BRANCH 18 19
ATOM     19  C   GLY C  86     125.169  40.824  -8.446  1.00 23.49 LIG 0.24  C 
ATOM     20 O    GLY C  86     125.235  41.211  -7.269  1.00 21.63 LIG-0.27  OA
ATOM     21  N   ALA C  87     126.035  39.991  -9.009  1.00 19.98 LIG-0.35  N 
ATOM     22 H    ALA C  87     125.958  39.709  -9.817  1.00 19.98 LIG 0.16  HD
BRANCH 21 23
ATOM     23  CA  ALA C  87     127.202  39.470  -8.320  1.00 25.46 LIG 0.18  C 
ATOM     24  CB  ALA C  87     126.847  38.196  -7.572  1.00 28.24 LIG 0.04  C 
BRANCH 23 25
ATOM     25  C   ALA C  87     128.354  39.210  -9.313  1.00 31.90 LIG 0.20  C 
ATOM     26 O    ALA C  87     129.541  39.445  -9.014  1.00 29.46 LIG-0.65  OA
ATOM     27 OXT  ALA C  87     128.123  38.764 -10.444  1.00 32.87 LIG-0.65  OA
ENDBRANCH 23 25
ENDBRANCH 21 23
ENDBRANCH 18 19
ENDBRANCH 15 18
ENDBRANCH 1 14
BRANCH 1 28
ATOM     28  N   ARG C  85     120.042  43.676  -9.263  1.00 18.65 LIG-0.35  N 
ATOM     29  C   PRO C  84     120.030  44.986  -9.114  1.00 20.35 LIG 0.24  C 
ATOM     30 O    PRO C  84     120.624  45.548  -8.198  1.00 17.99 LIG-0.27  OA
ATOM     31 H    ARG C  85     119.610  43.268  -9.884  1.00 18.65 LIG 0.16  HD
BRANCH 29 32
ATOM     32  CA  PRO C  84     119.234  45.763 -10.169  1.00 19.37 LIG 0.18  C 
ATOM     33  N   PRO C  84     117.800  45.811  -9.845  1.00 20.85 LIG-0.34  N 
ATOM     34  CD  PRO C  84     117.340  47.174  -9.501  1.00 20.85 LIG 0.13  C 
ATOM     35  C   MET C  83     117.080  44.688  -9.898  1.00 22.34 LIG 0.24  C 
ATOM     36  CG  PRO C  84     118.631  47.961  -9.373  1.00 19.31 LIG 0.02  C 
ATOM     37  CB  PRO C  84     119.646  47.246 -10.220  1.00 19.29 LIG 0.04  C 
ATOM     38 O    MET C  83     117.584  43.617 -10.267  1.00 21.27 LIG-0.27  OA
BRANCH 35 39
ATOM     39  CA  MET C  83     115.618  44.702  -9.506  1.00 20.32 LIG 0.18  C 
BRANCH 39 40
ATOM     40  N   MET C  83     114.900  45.546 -10.448  1.00 21.66 LIG-0.35  N 
ATOM     41  C   GLY C  82     113.908  46.358 -10.079  1.00 33.13 LIG 0.25  C 
ATOM     42 O    GLY C  82     113.472  46.423  -8.915  1.00 25.06 LIG-0.27  OA
ATOM     43 H    MET C  83     115.175  45.473 -11.260  1.00 21.66 LIG 0.16  HD
BRANCH 41 44
ATOM     44  CA  GLY C  82     113.327  47.214 -11.195  1.00 30.04 LIG 0.47  C 
ATOM     45  N   GLY C  82     111.959  46.890 -11.556  1.00 27.71 LIG 0.61  N 
ENDBRANCH 41 44
ENDBRANCH 39 40
BRANCH 39 46
ATOM     46  CB  MET C  83     115.059  43.276  -9.529  1.00 20.93 LIG 0.04  C 
BRANCH 46 47
ATOM     47  CG  MET C  83     113.588  43.182  -9.907  1.00 22.56 LIG 0.08  C 
BRANCH 47 48
ATOM     48 SD   MET C  83     113.360  42.476 -11.559  1.00 24.19 LIG-0.17  SA
ATOM     49  CE  MET C  83     111.723  43.109 -11.968  1.00 17.13 LIG 0.09  C 
ENDBRANCH 47 48
ENDBRANCH 46 47
ENDBRANCH 39 46
ENDBRANCH 35 39
ENDBRANCH 29 32
ENDBRANCH 1 28
TORSDOF 17
ENDMDL
MODEL 3
USER: ADFR SOLUTION from run 168
USER: SCORE 17.562792 LL:  -2.465 LR: -16.219 RR:   0.000 FEB: -11.148
USER: RMSD 3.859943
USER: SEED 167
USER: STATUS no improvement in best in 7 clusters for 5 generations
USER: GENES 19
USER: genes 0 Translation |==|  0.48089 0.40241 0.56741
USER: genes 1 Rotation |==|  0.59764 0.53540 0.54763 0.98677
USER: genes 2 Torsion [C]-CA--CB-[CG] |==|  0.44432
USER: genes 3 Torsion [CA]-CB--CG-[CD] |==|  0.13359
USER: genes 4 Torsion [CB]-CG--CD-[NE] |==|  0.22971
USER: genes 5 Torsion [CG]-CD--NE-[CZ] |==|  0.34496
USER: genes 6 Torsion [N]-CA--C-[N] |==|  0.37809
USER: genes 7 Torsion [C]-N--CA-[C] |==|  0.53982
USER: genes 8 Torsion [N]-CA--C-[N] |==|  0.36461
USER: genes 9 Torsion [C]-N--CA-[CB] |==|  0.27699
USER: genes 10 Torsion [N]-CA--C-[O] |==|  0.84134
USER: genes 11 Torsion [CB]-CA--N-[C] |==|  0.52778
USER: genes 12 Torsion [N]-C--CA-[N] |==|  0.63369
USER: genes 13 Torsion [N]-C--CA-[N] |==|  0.90622
USER: genes 14 Torsion [C]-CA--N-[C] |==|  0.80634
USER: genes 15 Torsion [N]-C--CA-[N] |==|  0.08552
USER: genes 16 Torsion [C]-CA--CB-[CG] |==|  0.80730
USER: genes 17 Torsion [CA]-CB--CG-[SD] |==|  0.31099
USER: genes 18 Torsion [CB]-CG--SD-[CE] |==|  0.96236
ROOT
ATOM      1  CA  ARG C  85     120.511  41.278  -7.461  1.00 24.81 LIG 0.18  C 
ENDROOT
BRANCH 1 2
ATOM      2  CB  ARG C  85     119.897  39.879  -7.560  1.00 26.62 LIG 0.04  C 
BRANCH 2 3
ATOM      3  CG  ARG C  85     119.056  39.453  -6.385  1.00 27.35 LIG 0.02  C 
BRANCH 3 4
ATOM      4  CD  ARG C  85     118.078  40.603  -6.057  1.00 30.83 LIG 0.14  C 
BRANCH 4 5
ATOM      5  NE  ARG C  85     116.889  40.588  -6.899  1.00 23.70 LIG-0.23  N 
ATOM      6 HE   ARG C  85     116.999  40.605  -7.752  1.00 23.70 LIG 0.18  HD
ATOM      7  CZ  ARG C  85     115.644  40.550  -6.432  1.00 30.65 LIG 0.67  C 
ATOM      8  NH1 ARG C  85     115.418  40.495  -5.120  1.00 24.79 LIG-0.23  N 
ATOM      9  NH2 ARG C  85     114.623  40.545  -7.283  1.00 28.31 LIG-0.23  N 
ATOM     10 2HH1 ARG C  85     114.611  40.470  -4.824  1.00 24.79 LIG 0.17  HD
ATOM     11 1HH1 ARG C  85     116.079  40.483  -4.570  1.00 24.79 LIG 0.17  HD
ATOM     12 1HH2 ARG C  85     114.770  40.566  -8.130  1.00 28.31 LIG 0.17  HD
ATOM     13 2HH2 ARG C  85     113.816  40.520  -6.986  1.00 28.31 LIG 0.17  HD
ENDBRANCH 4 5
ENDBRANCH 3 4
ENDBRANCH 2 3
ENDBRANCH 1 2
BRANCH 1 14
ATOM     14  C   ARG C  85     121.676  41.352  -8.424  1.00 23.94 LIG 0.24  C 
ATOM     15  N   GLY C  86     122.885  41.241  -7.900  1.00 22.55 LIG-0.35  N 
ATOM     16 H    GLY C  86     123.067  41.207  -7.060  1.00 22.55 LIG 0.16  HD
ATOM     17 O    ARG C  85     121.484  41.484  -9.632  1.00 20.62 LIG-0.27  OA
BRANCH 15 18
ATOM     18  CA  GLY C  86     124.016  41.170  -8.799  1.00 30.25 LIG 0.23  C 
BRANCH 18 19
ATOM     19  C   GLY C  86     125.269  40.705  -8.103  1.00 23.49 LIG 0.24  C 
ATOM     20 O    GLY C  86     125.664  41.233  -7.051  1.00 21.63 LIG-0.27  OA
ATOM     21  N   ALA C  87     125.912  39.732  -8.737  1.00 19.98 LIG-0.35  N 
ATOM     22 H    ALA C  87     125.609  39.356  -9.448  1.00 19.98 LIG 0.16  HD
BRANCH 21 23
ATOM     23  CA  ALA C  87     127.190  39.203  -8.299  1.00 25.46 LIG 0.18  C 
ATOM     24  CB  ALA C  87     126.989  37.903  -7.536  1.00 28.24 LIG 0.04  C 
BRANCH 23 25
ATOM     25  C   ALA C  87     128.135  38.984  -9.499  1.00 31.90 LIG 0.20  C 
ATOM     26 O    ALA C  87     127.816  38.256 -10.458  1.00 29.46 LIG-0.65  OA
ATOM     27 OXT  ALA C  87     129.247  39.527  -9.532  1.00 32.87 LIG-0.65  OA
ENDBRANCH 23 25
ENDBRANCH 21 23
ENDBRANCH 18 19
ENDBRANCH 15 18
ENDBRANCH 1 14
BRANCH 1 28
ATOM     28  N   ARG C  85     119.565  42.321  -7.812  1.00 18.65 LIG-0.35  N 
ATOM     29  C   PRO C  84     119.916  43.580  -7.985  1.00 20.35 LIG 0.24  C 
ATOM     30 O    PRO C  84     121.070  43.969  -7.824  1.00 17.99 LIG-0.27  OA
ATOM     31 H    ARG C  85     118.757  42.041  -7.897  1.00 18.65 LIG 0.16  HD
BRANCH 29 32
ATOM     32  CA  PRO C  84     118.788  44.527  -8.413  1.00 19.37 LIG 0.18  C 
ATOM     33  N   PRO C  84     119.185  45.367  -9.553  1.00 20.85 LIG-0.34  N 
ATOM     34  CD  PRO C  84     118.436  45.042 -10.787  1.00 20.85 LIG 0.13  C 
ATOM     35  C   MET C  83     120.120  46.304  -9.381  1.00 22.34 LIG 0.24  C 
ATOM     36  CG  PRO C  84     117.711  43.756 -10.432  1.00 19.31 LIG 0.02  C 
ATOM     37  CB  PRO C  84     117.562  43.756  -8.937  1.00 19.29 LIG 0.04  C 
ATOM     38 O    MET C  83     120.623  46.514  -8.267  1.00 21.27 LIG-0.27  OA
BRANCH 35 39
ATOM     39  CA  MET C  83     120.590  47.136 -10.556  1.00 20.32 LIG 0.18  C 
BRANCH 39 40
ATOM     40  N   MET C  83     120.554  46.304 -11.747  1.00 21.66 LIG-0.35  N 
ATOM     41  C   GLY C  82     121.397  45.288 -11.945  1.00 33.13 LIG 0.25  C 
ATOM     42 O    GLY C  82     122.320  45.002 -11.160  1.00 25.06 LIG-0.27  OA
ATOM     43 H    MET C  83     119.941  46.526 -12.309  1.00 21.66 LIG 0.16  HD
BRANCH 41 44
ATOM     44  CA  GLY C  82     121.159  44.491 -13.218  1.00 30.04 LIG 0.47  C 
ATOM     45  N   GLY C  82     120.608  45.259 -14.319  1.00 27.71 LIG 0.61  N 
ENDBRANCH 41 44
ENDBRANCH 39 40
BRANCH 39 46
ATOM     46  CB  MET C  83     119.681  48.357 -10.726  1.00 20.93 LIG 0.04  C 
BRANCH 46 47
ATOM     47  CG  MET C  83     118.273  48.032 -11.203  1.00 22.56 LIG 0.08  C 
BRANCH 47 48
ATOM     48 SD   MET C  83     117.035  48.356  -9.923  1.00 24.19 LIG-0.17  SA
ATOM     49  CE  MET C  83     118.093  48.547  -8.477  1.00 17.13 LIG 0.09  C 
ENDBRANCH 47 48
ENDBRANCH 46 47
ENDBRANCH 39 46
ENDBRANCH 35 39
ENDBRANCH 29 32
ENDBRANCH 1 28
TORSDOF 17
ENDMDL
MODEL 4
USER: ADFR SOLUTION from run 168
USER: SCORE 16.890956 LL:  -3.209 LR: -15.624 RR:   0.000 FEB: -10.553
USER: RMSD 3.666816
USER: SEED 167
USER: STATUS no improvement in best in 7 clusters for 5 generations
USER: GENES 19
USER: genes 0 Translation |==|  0.47159 0.42917 0.57440
USER: genes 1 Rotation |==|  0.76348 0.49425 0.51927 0.92447
USER: genes 2 Torsion [C]-CA--CB-[CG] |==|  0.40459
USER: genes 3 Torsion [CA]-CB--CG-[CD] |==|  0.27313
USER: genes 4 Torsion [CB]-CG--CD-[NE] |==|  0.67304
USER: genes 5 Torsion [CG]-CD--NE-[CZ] |==|  0.50401
USER: genes 6 Torsion [N]-CA--C-[N] |==|  0.37851
USER: genes 7 Torsion [C]-N--CA-[C] |==|  0.48091
USER: genes 8 Torsion [N]-CA--C-[N] |==|  0.32147
USER: genes 9 Torsion [C]-N--CA-[CB] |==|  0.23912
USER: genes 10 Torsion [N]-CA--C-[O] |==|  0.91296
USER: genes 11 Torsion [CB]-CA--N-[C] |==|  0.23123
USER: genes 12 Torsion [N]-C--CA-[N] |==|  0.17879
USER: genes 13 Torsion [N]-C--CA-[N] |==|  0.46053
USER: genes 14 Torsion [C]-CA--N-[C] |==|  0.82190
USER: genes 15 Torsion [N]-C--CA-[N] |==|  0.98616
USER: genes 16 Torsion [C]-CA--CB-[CG] |==|  0.31689
USER: genes 17 Torsion [CA]-CB--CG-[SD] |==|  0.06476
USER: genes 18 Torsion [CB]-CG--SD-[CE] |==|  0.32919
ROOT
ATOM      1  CA  ARG C  85     120.274  41.780  -7.345  1.00 24.81 LIG 0.18  C 
ENDROOT
BRANCH 1 2
ATOM      2  CB  ARG C  85     119.492  40.917  -8.339  1.00 26.62 LIG 0.04  C 
BRANCH 2 3
ATOM      3  CG  ARG C  85     118.731  39.763  -7.741  1.00 27.35 LIG 0.02  C 
BRANCH 3 4
ATOM      4  CD  ARG C  85     117.259  40.199  -7.573  1.00 30.83 LIG 0.14  C 
BRANCH 4 5
ATOM      5  NE  ARG C  85     116.827  40.203  -6.181  1.00 23.70 LIG-0.23  N 
ATOM      6 HE   ARG C  85     117.405  39.990  -5.580  1.00 23.70 LIG 0.18  HD
ATOM      7  CZ  ARG C  85     115.597  40.514  -5.782  1.00 30.65 LIG 0.67  C 
ATOM      8  NH1 ARG C  85     114.673  40.877  -6.668  1.00 24.79 LIG-0.23  N 
ATOM      9  NH2 ARG C  85     115.300  40.483  -4.486  1.00 28.31 LIG-0.23  N 
ATOM     10 2HH1 ARG C  85     113.879  41.077  -6.405  1.00 24.79 LIG 0.17  HD
ATOM     11 1HH1 ARG C  85     114.869  40.911  -7.506  1.00 24.79 LIG 0.17  HD
ATOM     12 1HH2 ARG C  85     115.902  40.262  -3.912  1.00 28.31 LIG 0.17  HD
ATOM     13 2HH2 ARG C  85     114.507  40.683  -4.223  1.00 28.31 LIG 0.17  HD
ENDBRANCH 4 5
ENDBRANCH 3 4
ENDBRANCH 2 3
ENDBRANCH 1 2
BRANCH 1 14
ATOM     14  C   ARG C  85     121.538  42.257  -8.026  1.00 23.94 LIG 0.24  C 
ATOM     15  N   GLY C  86     122.655  41.621  -7.714  1.00 22.55 LIG-0.35  N 
ATOM     16 H    GLY C  86     122.736  41.017  -7.107  1.00 22.55 LIG 0.16  HD
ATOM     17 O    ARG C  85     121.503  43.175  -8.845  1.00 20.62 LIG-0.27  OA
BRANCH 15 18
ATOM     18  CA  GLY C  86     123.859  41.955  -8.442  1.00 30.25 LIG 0.23  C 
BRANCH 18 19
ATOM     19  C   GLY C  86     125.078  41.278  -7.870  1.00 23.49 LIG 0.24  C 
ATOM     20 O    GLY C  86     125.509  41.558  -6.741  1.00 21.63 LIG-0.27  OA
ATOM     21  N   ALA C  87     125.651  40.409  -8.695  1.00 19.98 LIG-0.35  N 
ATOM     22 H    ALA C  87     125.322  40.203  -9.461  1.00 19.98 LIG 0.16  HD
BRANCH 21 23
ATOM     23  CA  ALA C  87     126.891  39.719  -8.389  1.00 25.46 LIG 0.18  C 
ATOM     24  CB  ALA C  87     126.607  38.456  -7.591  1.00 28.24 LIG 0.04  C 
BRANCH 23 25
ATOM     25  C   ALA C  87     127.664  39.379  -9.680  1.00 31.90 LIG 0.20  C 
ATOM     26 O    ALA C  87     127.074  39.136 -10.751  1.00 29.46 LIG-0.65  OA
ATOM     27 OXT  ALA C  87     128.901  39.331  -9.680  1.00 32.87 LIG-0.65  OA
ENDBRANCH 23 25
ENDBRANCH 21 23
ENDBRANCH 18 19
ENDBRANCH 15 18
ENDBRANCH 1 14
BRANCH 1 28
ATOM     28  N   ARG C  85     119.522  42.945  -6.918  1.00 18.65 LIG-0.35  N 
ATOM     29  C   PRO C  84     118.629  42.908  -5.948  1.00 20.35 LIG 0.24  C 
ATOM     30 O    PRO C  84     118.342  41.869  -5.360  1.00 17.99 LIG-0.27  OA
ATOM     31 H    ARG C  85     119.714  43.659  -7.355  1.00 18.65 LIG 0.16  HD
BRANCH 29 32
ATOM     32  CA  PRO C  84     117.981  44.252  -5.596  1.00 19.37 LIG 0.18  C 
ATOM     33  N   PRO C  84     117.186  44.783  -6.714  1.00 20.85 LIG-0.34  N 
ATOM     34  CD  PRO C  84     115.736  44.799  -6.424  1.00 20.85 LIG 0.13  C 
ATOM     35  C   MET C  83     117.808  45.193  -7.822  1.00 22.34 LIG 0.24  C 
ATOM     36  CG  PRO C  84     115.624  43.998  -5.139  1.00 19.31 LIG 0.02  C 
ATOM     37  CB  PRO C  84     116.957  44.112  -4.454  1.00 19.29 LIG 0.04  C 
ATOM     38 O    MET C  83     119.045  45.184  -7.906  1.00 21.27 LIG-0.27  OA
BRANCH 35 39
ATOM     39  CA  MET C  83     117.005  45.683  -9.009  1.00 20.32 LIG 0.18  C 
BRANCH 39 40
ATOM     40  N   MET C  83     117.909  46.370  -9.918  1.00 21.66 LIG-0.35  N 
ATOM     41  C   GLY C  82     118.553  47.490  -9.586  1.00 33.13 LIG 0.25  C 
ATOM     42 O    GLY C  82     118.394  48.075  -8.498  1.00 25.06 LIG-0.27  OA
ATOM     43 H    MET C  83     117.990  45.987 -10.684  1.00 21.66 LIG 0.16  HD
BRANCH 41 44
ATOM     44  CA  GLY C  82     119.508  48.023 -10.644  1.00 30.04 LIG 0.47  C 
ATOM     45  N   GLY C  82     119.659  47.169 -11.807  1.00 27.71 LIG 0.61  N 
ENDBRANCH 41 44
ENDBRANCH 39 40
BRANCH 39 46
ATOM     46  CB  MET C  83     116.337  44.496  -9.711  1.00 20.93 LIG 0.04  C 
BRANCH 46 47
ATOM     47  CG  MET C  83     114.818  44.495  -9.636  1.00 22.56 LIG 0.08  C 
BRANCH 47 48
ATOM     48 SD   MET C  83     114.155  46.157  -9.355  1.00 24.19 LIG-0.17  SA
ATOM     49  CE  MET C  83     113.171  46.378 -10.849  1.00 17.13 LIG 0.09  C 
ENDBRANCH 47 48
ENDBRANCH 46 47
ENDBRANCH 39 46
ENDBRANCH 35 39
ENDBRANCH 29 32
ENDBRANCH 1 28
TORSDOF 17
ENDMDL
MODEL 5
USER: ADFR SOLUTION from run 146
USER: SCORE 17.663220 LL:  -3.403 LR: -15.560 RR:   0.000 FEB: -10.489
USER: RMSD 3.838078
USER: SEED 145
USER: STATUS no improvement in best in 1 clusters for 5 generations
USER: GENES 19
USER: genes 0 Translation |==|  0.47277 0.49051 0.60231
USER: genes 1 Rotation |==|  0.47711 0.57903 0.59635 0.98368
USER: genes 2 Torsion [C]-CA--CB-[CG] |==|  0.78551
USER: genes 3 Torsion [CA]-CB--CG-[CD] |==|  0.67510
USER: genes 4 Torsion [CB]-CG--CD-[NE] |==|  0.35308
USER: genes 5 Torsion [CG]-CD--NE-[CZ] |==|  0.54773
USER: genes 6 Torsion [N]-CA--C-[N] |==|  0.56756
USER: genes 7 Torsion [C]-N--CA-[C] |==|  0.43301
USER: genes 8 Torsion [N]-CA--C-[N] |==|  0.41457
USER: genes 9 Torsion [C]-N--CA-[CB] |==|  0.21508
USER: genes 10 Torsion [N]-CA--C-[O] |==|  0.98279
USER: genes 11 Torsion [CB]-CA--N-[C] |==|  0.18333
USER: genes 12 Torsion [N]-C--CA-[N] |==|  0.85864
USER: genes 13 Torsion [N]-C--CA-[N] |==|  0.88453
USER: genes 14 Torsion [C]-CA--N-[C] |==|  0.83126
USER: genes 15 Torsion [N]-C--CA-[N] |==|  0.10406
USER: genes 16 Torsion [C]-CA--CB-[CG] |==|  0.63424
USER: genes 17 Torsion [CA]-CB--CG-[SD] |==|  0.48545
USER: genes 18 Torsion [CB]-CG--SD-[CE] |==|  0.85042
ROOT
ATOM      1  CA  ARG C  85     120.304  42.930  -6.885  1.00 24.81 LIG 0.18  C 
ENDROOT
BRANCH 1 2
ATOM      2  CB  ARG C  85     120.088  41.546  -6.267  1.00 26.62 LIG 0.04  C 
BRANCH 2 3
ATOM      3  CG  ARG C  85     119.287  40.580  -7.100  1.00 27.35 LIG 0.02  C 
BRANCH 3 4
ATOM      4  CD  ARG C  85     117.997  40.236  -6.322  1.00 30.83 LIG 0.14  C 
BRANCH 4 5
ATOM      5  NE  ARG C  85     116.790  40.445  -7.112  1.00 23.70 LIG-0.23  N 
ATOM      6 HE   ARG C  85     116.874  40.509  -7.966  1.00 23.70 LIG 0.18  HD
ATOM      7  CZ  ARG C  85     115.568  40.541  -6.597  1.00 30.65 LIG 0.67  C 
ATOM      8  NH1 ARG C  85     115.379  40.420  -5.285  1.00 24.79 LIG-0.23  N 
ATOM      9  NH2 ARG C  85     114.529  40.737  -7.403  1.00 28.31 LIG-0.23  N 
ATOM     10 2HH1 ARG C  85     114.586  40.483  -4.957  1.00 24.79 LIG 0.17  HD
ATOM     11 1HH1 ARG C  85     116.050  40.278  -4.765  1.00 24.79 LIG 0.17  HD
ATOM     12 1HH2 ARG C  85     114.650  40.801  -8.253  1.00 28.31 LIG 0.17  HD
ATOM     13 2HH2 ARG C  85     113.737  40.800  -7.075  1.00 28.31 LIG 0.17  HD
ENDBRANCH 4 5
ENDBRANCH 3 4
ENDBRANCH 2 3
ENDBRANCH 1 2
BRANCH 1 14
ATOM     14  C   ARG C  85     121.384  42.814  -7.939  1.00 23.94 LIG 0.24  C 
ATOM     15  N   GLY C  86     122.348  41.939  -7.705  1.00 22.55 LIG-0.35  N 
ATOM     16 H    GLY C  86     122.453  41.490  -6.979  1.00 22.55 LIG 0.16  HD
ATOM     17 O    ARG C  85     121.334  43.491  -8.966  1.00 20.62 LIG-0.27  OA
BRANCH 15 18
ATOM     18  CA  GLY C  86     123.322  41.700  -8.747  1.00 30.25 LIG 0.23  C 
BRANCH 18 19
ATOM     19  C   GLY C  86     124.626  41.180  -8.200  1.00 23.49 LIG 0.24  C 
ATOM     20 O    GLY C  86     125.049  41.526  -7.086  1.00 21.63 LIG-0.27  OA
ATOM     21  N   ALA C  87     125.277  40.373  -9.029  1.00 19.98 LIG-0.35  N 
ATOM     22 H    ALA C  87     124.956  40.118  -9.784  1.00 19.98 LIG 0.16  HD
BRANCH 21 23
ATOM     23  CA  ALA C  87     126.597  39.838  -8.747  1.00 25.46 LIG 0.18  C 
ATOM     24  CB  ALA C  87     126.500  38.691  -7.755  1.00 28.24 LIG 0.04  C 
BRANCH 23 25
ATOM     25  C   ALA C  87     127.289  39.372 -10.045  1.00 31.90 LIG 0.20  C 
ATOM     26 O    ALA C  87     126.691  39.365 -11.139  1.00 29.46 LIG-0.65  OA
ATOM     27 OXT  ALA C  87     128.464  38.983 -10.028  1.00 32.87 LIG-0.65  OA
ENDBRANCH 23 25
ENDBRANCH 21 23
ENDBRANCH 18 19
ENDBRANCH 15 18
ENDBRANCH 1 14
BRANCH 1 28
ATOM     28  N   ARG C  85     119.105  43.443  -7.519  1.00 18.65 LIG-0.35  N 
ATOM     29  C   PRO C  84     118.013  43.755  -6.848  1.00 20.35 LIG 0.24  C 
ATOM     30 O    PRO C  84     117.922  43.597  -5.634  1.00 17.99 LIG-0.27  OA
ATOM     31 H    ARG C  85     119.173  43.525  -8.372  1.00 18.65 LIG 0.16  HD
BRANCH 29 32
ATOM     32  CA  PRO C  84     116.868  44.340  -7.684  1.00 19.37 LIG 0.18  C 
ATOM     33  N   PRO C  84     117.323  45.455  -8.527  1.00 20.85 LIG-0.34  N 
ATOM     34  CD  PRO C  84     117.281  45.130  -9.970  1.00 20.85 LIG 0.13  C 
ATOM     35  C   MET C  83     117.699  46.599  -7.953  1.00 22.34 LIG 0.24  C 
ATOM     36  CG  PRO C  84     117.013  43.636  -9.989  1.00 19.31 LIG 0.02  C 
ATOM     37  CB  PRO C  84     116.318  43.317  -8.695  1.00 19.29 LIG 0.04  C 
ATOM     38 O    MET C  83     117.623  46.758  -6.725  1.00 21.27 LIG-0.27  OA
BRANCH 35 39
ATOM     39  CA  MET C  83     118.232  47.737  -8.797  1.00 20.32 LIG 0.18  C 
BRANCH 39 40
ATOM     40  N   MET C  83     119.118  47.179  -9.806  1.00 21.66 LIG-0.35  N 
ATOM     41  C   GLY C  82     120.223  46.497  -9.500  1.00 33.13 LIG 0.25  C 
ATOM     42 O    GLY C  82     120.623  46.329  -8.333  1.00 25.06 LIG-0.27  OA
ATOM     43 H    MET C  83     118.864  47.329 -10.615  1.00 21.66 LIG 0.16  HD
BRANCH 41 44
ATOM     44  CA  GLY C  82     120.984  45.932 -10.690  1.00 30.04 LIG 0.47  C 
ATOM     45  N   GLY C  82     121.003  46.792 -11.859  1.00 27.71 LIG 0.61  N 
ENDBRANCH 41 44
ENDBRANCH 39 40
BRANCH 39 46
ATOM     46  CB  MET C  83     117.070  48.485  -9.457  1.00 20.93 LIG 0.04  C 
BRANCH 46 47
ATOM     47  CG  MET C  83     117.246  48.733 -10.948  1.00 22.56 LIG 0.08  C 
BRANCH 47 48
ATOM     48 SD   MET C  83     115.772  49.483 -11.686  1.00 24.19 LIG-0.17  SA
ATOM     49  CE  MET C  83     114.507  48.309 -11.168  1.00 17.13 LIG 0.09  C 
ENDBRANCH 47 48
ENDBRANCH 46 47
ENDBRANCH 39 46
ENDBRANCH 35 39
ENDBRANCH 29 32
ENDBRANCH 1 28
TORSDOF 17
ENDMDL
