MODEL 1
USER: ADFR SOLUTION from run 24
USER: SCORE 20.899637 LL:  -5.515 LR: -16.159 RR:   0.000 FEB:  -8.105
USER: RMSD 2.383253
USER: SEED 23
USER: STATUS no improvement in best in 2 clusters for 5 generations
USER: GENES 29
USER: genes 0 Translation |==|  0.54455 0.44330 0.53766
USER: genes 1 Rotation |==|  0.51965 0.49994 0.48736 0.99945
USER: genes 2 Torsion [C]-N--CA-[C] |==|  0.71123
USER: genes 3 Torsion [N]-CA--C-[N] |==|  0.33256
USER: genes 4 Torsion [C]-N--CA-[C] |==|  0.65859
USER: genes 5 Torsion [N]-CA--C-[N] |==|  0.27222
USER: genes 6 Torsion [C]-N--CA-[CB] |==|  0.30033
USER: genes 7 Torsion [N]-CA--CB-[CG] |==|  0.06055
USER: genes 8 Torsion [CA]-CB--CG-[CD2] |==|  0.62857
USER: genes 9 Torsion [N]-CA--C-[O] |==|  0.97798
USER: genes 10 Torsion [N]-CA--CB-[CG] |==|  0.63446
USER: genes 11 Torsion [CA]-CB--CG-[CD] |==|  0.25015
USER: genes 12 Torsion [CB]-CG--CD-[CE] |==|  0.37329
USER: genes 13 Torsion [CG]-CD--CE-[NZ] |==|  0.86955
USER: genes 14 Torsion [CD]-CE--NZ-[HZ2] |==|  0.82926
USER: genes 15 Torsion [N]-CA--CB-[CG2] |==|  0.70075
USER: genes 16 Torsion [CA]-CB--OG1-[HG1] |==|  0.83100
USER: genes 17 Torsion [N]-C--CA-[N] |==|  0.44662
USER: genes 18 Torsion [C]-CA--N-[C] |==|  0.54005
USER: genes 19 Torsion [N]-C--CA-[N] |==|  0.34506
USER: genes 20 Torsion [C]-CA--CB-[CG] |==|  0.21211
USER: genes 21 Torsion [CA]-CB--CG-[CD] |==|  0.25617
USER: genes 22 Torsion [CB]-CG--CD-[OE2] |==|  0.53314
USER: genes 23 Torsion [C]-CA--N-[C] |==|  0.79016
USER: genes 24 Torsion [N]-C--CA-[N] |==|  0.39744
USER: genes 25 Torsion [C]-CA--CB-[CG2] |==|  0.96281
USER: genes 26 Torsion [C]-CA--CB-[CG] |==|  0.85507
USER: genes 27 Torsion [CA]-CB--CG-[CD1] |==|  0.73570
USER: genes 28 Torsion [CE1]-CZ--OH-[HH] |==|  0.52257
ROOT
ATOM      1  C   TYR F 311      37.244  51.006  -2.576  1.00 39.57 LIG 0.24  C 
ATOM      2 O    TYR F 311      37.249  50.003  -3.294  1.00 35.87 LIG-0.27  OA
ATOM      3  N   THR F 312      36.439  51.161  -1.527  1.00 39.28 LIG-0.34  N 
ATOM      4 H    THR F 312      36.470  51.847  -1.010  1.00 39.28 LIG 0.16  HD
ENDROOT
BRANCH 3 5
ATOM      5  CA  THR F 312      35.421  50.190  -1.145  1.00 41.67 LIG 0.20  C 
BRANCH 5 6
ATOM      6  C   THR F 312      34.034  50.676  -1.540  1.00 45.40 LIG 0.24  C 
ATOM      7  N   LYS F 313      33.369  49.905  -2.384  1.00 48.10 LIG-0.35  N 
ATOM      8 H    LYS F 313      33.705  49.211  -2.765  1.00 48.10 LIG 0.16  HD
ATOM      9 O    THR F 312      33.563  51.707  -1.066  1.00 48.99 LIG-0.27  OA
BRANCH 7 10
ATOM     10  CA  LYS F 313      31.985  50.173  -2.745  1.00 51.61 LIG 0.18  C 
BRANCH 10 11
ATOM     11  C   LYS F 313      31.122  48.949  -2.415  1.00 54.92 LIG 0.24  C 
ATOM     12 O    LYS F 313      31.074  47.987  -3.190  1.00 54.36 LIG-0.27  OA
ATOM     13  N   HIS F 314      30.460  49.002  -1.255  1.00 57.06 LIG-0.35  N 
ATOM     14 H    HIS F 314      30.494  49.685  -0.732  1.00 57.06 LIG 0.16  HD
BRANCH 13 15
ATOM     15  CA  HIS F 314      29.608  47.918  -0.740  1.00 57.78 LIG 0.17  C 
BRANCH 15 16
ATOM     16  CB  HIS F 314      30.269  47.212   0.454  1.00 57.79 LIG 0.09  C 
BRANCH 16 17
ATOM     17  CG  HIS F 314      31.308  48.037   1.149  1.00 61.61 LIG 0.06  A 
ATOM     18  CD2 HIS F 314      32.559  47.730   1.570  1.00 62.97 LIG 0.14  A 
ATOM     19 NE2  HIS F 314      33.083  48.862   2.149  1.00 63.36 LIG-0.25  NA
ATOM     20  CE1 HIS F 314      32.188  49.832   2.085  1.00 61.50 LIG 0.23  A 
ATOM     21 ND1  HIS F 314      31.107  49.361   1.488  1.00 63.00 LIG-0.24  NA
ENDBRANCH 16 17
ENDBRANCH 15 16
BRANCH 15 22
ATOM     22  C   HIS F 314      28.206  48.409  -0.361  1.00 59.91 LIG 0.22  C 
ATOM     23 O    HIS F 314      27.931  49.614  -0.358  1.00 59.00 LIG-0.29  OA
ENDBRANCH 15 22
ENDBRANCH 13 15
ENDBRANCH 10 11
BRANCH 10 24
ATOM     24  CB  LYS F 313      31.875  50.552  -4.226  1.00 49.70 LIG 0.04  C 
BRANCH 24 25
ATOM     25  CG  LYS F 313      31.044  51.804  -4.465  1.00 49.89 LIG 0.00  C 
BRANCH 25 26
ATOM     26  CD  LYS F 313      31.885  53.070  -4.442  1.00 49.58 LIG 0.03  C 
BRANCH 26 27
ATOM     27  CE  LYS F 313      31.531  53.982  -5.609  1.00 48.23 LIG 0.23  C 
BRANCH 27 28
ATOM     28  NZ  LYS F 313      31.463  53.229  -6.884  1.00 47.83 LIG-0.08  N 
ATOM     29 HZ2  LYS F 313      32.258  52.871  -7.060  1.00 47.83 LIG 0.27  HD
ATOM     30 HZ1  LYS F 313      31.233  53.782  -7.543  1.00 47.83 LIG 0.27  HD
ATOM     31 HZ3  LYS F 313      30.855  52.582  -6.815  1.00 47.83 LIG 0.27  HD
ENDBRANCH 27 28
ENDBRANCH 26 27
ENDBRANCH 25 26
ENDBRANCH 24 25
ENDBRANCH 10 24
ENDBRANCH 7 10
ENDBRANCH 5 6
BRANCH 5 32
ATOM     32  CB  THR F 312      35.395  49.984   0.379  1.00 41.09 LIG 0.15  C 
ATOM     33  CG2 THR F 312      35.969  48.632   0.761  1.00 40.88 LIG 0.04  C 
BRANCH 32 34
ATOM     34 OG1  THR F 312      36.163  51.020   1.001  1.00 43.07 LIG-0.39  OA
ATOM     35 HG1  THR F 312      36.958  50.980   0.733  1.00 43.07 LIG 0.21  HD
ENDBRANCH 32 34
ENDBRANCH 5 32
ENDBRANCH 3 5
BRANCH 1 36
ATOM     36  CA  TYR F 311      38.170  52.190  -2.865  1.00 39.31 LIG 0.18  C 
BRANCH 36 37
ATOM     37  N   TYR F 311      39.313  51.831  -3.702  1.00 40.62 LIG-0.35  N 
ATOM     38 H    TYR F 311      39.243  51.069  -4.095  1.00 40.62 LIG 0.16  HD
ATOM     39  C   GLU F 310      40.361  52.640  -3.824  1.00 41.86 LIG 0.24  C 
ATOM     40 O    GLU F 310      40.471  53.669  -3.173  1.00 41.90 LIG-0.27  OA
BRANCH 39 41
ATOM     41  CA  GLU F 310      41.464  52.223  -4.795  1.00 43.14 LIG 0.18  C 
BRANCH 41 42
ATOM     42  CB  GLU F 310      42.740  51.927  -4.002  1.00 44.06 LIG 0.04  C 
BRANCH 42 43
ATOM     43  CG  GLU F 310      42.717  50.590  -3.280  1.00 45.60 LIG 0.12  C 
BRANCH 43 44
ATOM     44  CD  GLU F 310      43.313  49.453  -4.097  1.00 46.85 LIG 0.17  C 
ATOM     45 OE2  GLU F 310      43.133  48.285  -3.685  1.00 47.09 LIG-0.65  OA
ATOM     46 OE1  GLU F 310      43.972  49.717  -5.132  1.00 45.53 LIG-0.65  OA
ENDBRANCH 43 44
ENDBRANCH 42 43
ENDBRANCH 41 42
BRANCH 41 47
ATOM     47  N   GLU F 310      41.709  53.280  -5.790  1.00 43.23 LIG-0.35  N 
ATOM     48  C   VAL F 309      40.892  53.523  -6.821  1.00 44.16 LIG 0.26  C 
ATOM     49 O    VAL F 309      39.879  52.862  -7.060  1.00 43.83 LIG-0.27  OA
ATOM     50 H    GLU F 310      42.428  53.728  -5.646  1.00 43.23 LIG 0.16  HD
BRANCH 48 51
ATOM     51  CA  VAL F 309      41.270  54.699  -7.731  1.00 44.86 LIG 0.40  C 
ATOM     52  N   VAL F 309      40.944  54.362  -9.149  1.00 44.58 LIG 0.61  N 
BRANCH 51 53
ATOM     53  CB  VAL F 309      40.552  56.010  -7.297  1.00 44.54 LIG 0.03  C 
ATOM     54  CG2 VAL F 309      39.434  55.698  -6.310  1.00 44.44 LIG 0.01  C 
ATOM     55  CG1 VAL F 309      40.008  56.797  -8.488  1.00 43.50 LIG 0.01  C 
ENDBRANCH 51 53
ENDBRANCH 48 51
ENDBRANCH 41 47
ENDBRANCH 39 41
ENDBRANCH 36 37
BRANCH 36 56
ATOM     56  CB  TYR F 311      37.359  53.297  -3.547  1.00 38.48 LIG 0.07  C 
BRANCH 56 57
ATOM     57  CG  TYR F 311      36.588  52.809  -4.753  1.00 36.48 LIG-0.06  A 
ATOM     58  CD1 TYR F 311      37.117  52.929  -6.035  1.00 35.51 LIG 0.01  A 
ATOM     59  CE1 TYR F 311      36.416  52.487  -7.145  1.00 35.35 LIG 0.04  A 
ATOM     60  CZ  TYR F 311      35.168  51.931  -6.983  1.00 34.90 LIG 0.07  A 
ATOM     61  CE2 TYR F 311      34.613  51.801  -5.725  1.00 36.46 LIG 0.04  A 
ATOM     62  CD2 TYR F 311      35.318  52.245  -4.616  1.00 36.25 LIG 0.01  A 
BRANCH 60 63
ATOM     63 OH   TYR F 311      34.474  51.502  -8.079  1.00 38.07 LIG-0.36  OA
ATOM     64 HH   TYR F 311      33.693  51.290  -7.852  1.00 38.07 LIG 0.22  HD
ENDBRANCH 60 63
ENDBRANCH 56 57
ENDBRANCH 36 56
ENDBRANCH 1 36
TORSDOF 27
ENDMDL
MODEL 2
USER: ADFR SOLUTION from run 1
USER: SCORE 20.359521 LL:  -5.569 LR: -16.096 RR:   0.000 FEB:  -8.042
USER: RMSD 9.016809
USER: SEED 151670
USER: STATUS no improvement in best in 11 clusters for 5 generations
USER: GENES 29
USER: genes 0 Translation |==|  0.41529 0.50157 0.41363
USER: genes 1 Rotation |==|  0.49996 0.92119 0.57711 0.75816
USER: genes 2 Torsion [C]-N--CA-[C] |==|  0.83829
USER: genes 3 Torsion [N]-CA--C-[N] |==|  0.95409
USER: genes 4 Torsion [C]-N--CA-[C] |==|  0.64842
USER: genes 5 Torsion [N]-CA--C-[N] |==|  0.22147
USER: genes 6 Torsion [C]-N--CA-[CB] |==|  0.32041
USER: genes 7 Torsion [N]-CA--CB-[CG] |==|  0.45102
USER: genes 8 Torsion [CA]-CB--CG-[CD2] |==|  0.73470
USER: genes 9 Torsion [N]-CA--C-[O] |==|  0.79891
USER: genes 10 Torsion [N]-CA--CB-[CG] |==|  0.90671
USER: genes 11 Torsion [CA]-CB--CG-[CD] |==|  0.79885
USER: genes 12 Torsion [CB]-CG--CD-[CE] |==|  0.93410
USER: genes 13 Torsion [CG]-CD--CE-[NZ] |==|  0.26692
USER: genes 14 Torsion [CD]-CE--NZ-[HZ2] |==|  0.95232
USER: genes 15 Torsion [N]-CA--CB-[CG2] |==|  0.47225
USER: genes 16 Torsion [CA]-CB--OG1-[HG1] |==|  0.68578
USER: genes 17 Torsion [N]-C--CA-[N] |==|  0.45645
USER: genes 18 Torsion [C]-CA--N-[C] |==|  0.55453
USER: genes 19 Torsion [N]-C--CA-[N] |==|  0.81116
USER: genes 20 Torsion [C]-CA--CB-[CG] |==|  0.18041
USER: genes 21 Torsion [CA]-CB--CG-[CD] |==|  0.15840
USER: genes 22 Torsion [CB]-CG--CD-[OE2] |==|  0.76242
USER: genes 23 Torsion [C]-CA--N-[C] |==|  0.61825
USER: genes 24 Torsion [N]-C--CA-[N] |==|  0.39865
USER: genes 25 Torsion [C]-CA--CB-[CG2] |==|  0.21029
USER: genes 26 Torsion [C]-CA--CB-[CG] |==|  0.45828
USER: genes 27 Torsion [CA]-CB--CG-[CD1] |==|  0.31353
USER: genes 28 Torsion [CE1]-CZ--OH-[HH] |==|  0.72883
ROOT
ATOM      1  C   TYR F 311      33.657  52.143  -4.994  1.00 39.57 LIG 0.24  C 
ATOM      2 O    TYR F 311      33.245  50.981  -5.051  1.00 35.87 LIG-0.27  OA
ATOM      3  N   THR F 312      34.906  52.469  -4.669  1.00 39.28 LIG-0.34  N 
ATOM      4 H    THR F 312      35.194  53.279  -4.671  1.00 39.28 LIG 0.16  HD
ENDROOT
BRANCH 3 5
ATOM      5  CA  THR F 312      35.915  51.493  -4.276  1.00 41.67 LIG 0.20  C 
BRANCH 5 6
ATOM      6  C   THR F 312      35.458  50.701  -3.060  1.00 45.40 LIG 0.24  C 
ATOM      7  N   LYS F 313      34.452  51.219  -2.376  1.00 48.10 LIG-0.35  N 
ATOM      8 H    LYS F 313      34.112  51.992  -2.536  1.00 48.10 LIG 0.16  HD
ATOM      9 O    THR F 312      35.980  49.628  -2.767  1.00 48.99 LIG-0.27  OA
BRANCH 7 10
ATOM     10  CA  LYS F 313      33.824  50.508  -1.272  1.00 51.61 LIG 0.18  C 
BRANCH 10 11
ATOM     11  C   LYS F 313      32.310  50.433  -1.504  1.00 54.92 LIG 0.24  C 
ATOM     12 O    LYS F 313      31.547  51.220  -0.933  1.00 54.36 LIG-0.27  OA
ATOM     13  N   HIS F 314      31.901  49.489  -2.357  1.00 57.06 LIG-0.35  N 
ATOM     14 H    HIS F 314      32.444  48.941  -2.738  1.00 57.06 LIG 0.16  HD
BRANCH 13 15
ATOM     15  CA  HIS F 314      30.497  49.275  -2.742  1.00 57.78 LIG 0.17  C 
BRANCH 15 16
ATOM     16  CB  HIS F 314      30.281  49.558  -4.237  1.00 57.79 LIG 0.09  C 
BRANCH 16 17
ATOM     17  CG  HIS F 314      29.016  48.977  -4.789  1.00 61.61 LIG 0.06  A 
ATOM     18  CD2 HIS F 314      28.776  47.813  -5.440  1.00 62.97 LIG 0.14  A 
ATOM     19 NE2  HIS F 314      27.432  47.775  -5.725  1.00 63.36 LIG-0.25  NA
ATOM     20  CE1 HIS F 314      26.863  48.875  -5.265  1.00 61.50 LIG 0.23  A 
ATOM     21 ND1  HIS F 314      27.796  49.619  -4.696  1.00 63.00 LIG-0.24  NA
ENDBRANCH 16 17
ENDBRANCH 15 16
BRANCH 15 22
ATOM     22  C   HIS F 314      30.002  47.868  -2.389  1.00 59.91 LIG 0.22  C 
ATOM     23 O    HIS F 314      30.383  46.879  -3.026  1.00 59.00 LIG-0.29  OA
ENDBRANCH 15 22
ENDBRANCH 13 15
ENDBRANCH 10 11
BRANCH 10 24
ATOM     24  CB  LYS F 313      34.151  51.185   0.064  1.00 49.70 LIG 0.04  C 
BRANCH 24 25
ATOM     25  CG  LYS F 313      35.539  51.808   0.097  1.00 49.89 LIG 0.00  C 
BRANCH 25 26
ATOM     26  CD  LYS F 313      36.641  50.764   0.171  1.00 49.58 LIG 0.03  C 
BRANCH 26 27
ATOM     27  CE  LYS F 313      36.120  49.462   0.764  1.00 48.23 LIG 0.23  C 
BRANCH 27 28
ATOM     28  NZ  LYS F 313      35.735  48.499  -0.296  1.00 47.83 LIG-0.08  N 
ATOM     29 HZ2  LYS F 313      35.641  48.930  -1.069  1.00 47.83 LIG 0.27  HD
ATOM     30 HZ1  LYS F 313      34.966  48.109  -0.077  1.00 47.83 LIG 0.27  HD
ATOM     31 HZ3  LYS F 313      36.368  47.878  -0.377  1.00 47.83 LIG 0.27  HD
ENDBRANCH 27 28
ENDBRANCH 26 27
ENDBRANCH 25 26
ENDBRANCH 24 25
ENDBRANCH 10 24
ENDBRANCH 7 10
ENDBRANCH 5 6
BRANCH 5 32
ATOM     32  CB  THR F 312      37.230  52.185  -3.878  1.00 41.09 LIG 0.15  C 
ATOM     33  CG2 THR F 312      38.197  51.203  -3.239  1.00 40.88 LIG 0.04  C 
BRANCH 32 34
ATOM     34 OG1  THR F 312      37.830  52.750  -5.048  1.00 43.07 LIG-0.39  OA
ATOM     35 HG1  THR F 312      38.546  52.345  -5.221  1.00 43.07 LIG 0.21  HD
ENDBRANCH 32 34
ENDBRANCH 5 32
ENDBRANCH 3 5
BRANCH 1 36
ATOM     36  CA  TYR F 311      32.728  53.326  -5.274  1.00 39.31 LIG 0.18  C 
BRANCH 36 37
ATOM     37  N   TYR F 311      31.501  52.939  -5.968  1.00 40.62 LIG-0.35  N 
ATOM     38 H    TYR F 311      31.306  52.103  -5.909  1.00 40.62 LIG 0.16  HD
ATOM     39  C   GLU F 310      30.770  53.832  -6.628  1.00 41.86 LIG 0.24  C 
ATOM     40 O    GLU F 310      31.130  54.990  -6.775  1.00 41.90 LIG-0.27  OA
BRANCH 39 41
ATOM     41  CA  GLU F 310      29.456  53.352  -7.241  1.00 43.14 LIG 0.18  C 
BRANCH 41 42
ATOM     42  CB  GLU F 310      28.615  52.680  -6.152  1.00 44.06 LIG 0.04  C 
BRANCH 42 43
ATOM     43  CG  GLU F 310      28.170  53.626  -5.048  1.00 45.60 LIG 0.12  C 
BRANCH 43 44
ATOM     44  CD  GLU F 310      27.376  54.819  -5.560  1.00 46.85 LIG 0.17  C 
ATOM     45 OE2  GLU F 310      28.019  55.819  -5.951  1.00 47.09 LIG-0.65  OA
ATOM     46 OE1  GLU F 310      26.123  54.772  -5.557  1.00 45.53 LIG-0.65  OA
ENDBRANCH 43 44
ENDBRANCH 42 43
ENDBRANCH 41 42
BRANCH 41 47
ATOM     47  N   GLU F 310      29.708  52.416  -8.348  1.00 43.23 LIG-0.35  N 
ATOM     48  C   VAL F 309      29.039  52.448  -9.506  1.00 44.16 LIG 0.26  C 
ATOM     49 O    VAL F 309      28.121  53.237  -9.742  1.00 43.83 LIG-0.27  OA
ATOM     50 H    GLU F 310      30.328  51.844  -8.181  1.00 43.23 LIG 0.16  HD
BRANCH 48 51
ATOM     51  CA  VAL F 309      29.468  51.433 -10.573  1.00 44.86 LIG 0.40  C 
ATOM     52  N   VAL F 309      28.269  50.953 -11.322  1.00 44.58 LIG 0.61  N 
BRANCH 51 53
ATOM     53  CB  VAL F 309      30.520  52.040 -11.548  1.00 44.54 LIG 0.03  C 
ATOM     54  CG2 VAL F 309      31.885  52.112 -10.874  1.00 44.44 LIG 0.01  C 
ATOM     55  CG1 VAL F 309      30.107  53.417 -12.065  1.00 43.50 LIG 0.01  C 
ENDBRANCH 51 53
ENDBRANCH 48 51
ENDBRANCH 41 47
ENDBRANCH 39 41
ENDBRANCH 36 37
BRANCH 36 56
ATOM     56  CB  TYR F 311      32.377  54.004  -3.945  1.00 38.48 LIG 0.07  C 
BRANCH 56 57
ATOM     57  CG  TYR F 311      31.770  55.379  -4.124  1.00 36.48 LIG-0.06  A 
ATOM     58  CD1 TYR F 311      30.443  55.623  -3.785  1.00 35.51 LIG 0.01  A 
ATOM     59  CE1 TYR F 311      29.880  56.878  -3.948  1.00 35.35 LIG 0.04  A 
ATOM     60  CZ  TYR F 311      30.639  57.901  -4.467  1.00 34.90 LIG 0.07  A 
ATOM     61  CE2 TYR F 311      31.959  57.691  -4.817  1.00 36.46 LIG 0.04  A 
ATOM     62  CD2 TYR F 311      32.519  56.432  -4.652  1.00 36.25 LIG 0.01  A 
BRANCH 60 63
ATOM     63 OH   TYR F 311      30.081  59.137  -4.634  1.00 38.07 LIG-0.36  OA
ATOM     64 HH   TYR F 311      29.831  59.227  -5.432  1.00 38.07 LIG 0.22  HD
ENDBRANCH 60 63
ENDBRANCH 56 57
ENDBRANCH 36 56
ENDBRANCH 1 36
TORSDOF 27
ENDMDL
MODEL 3
USER: ADFR SOLUTION from run 42
USER: SCORE 20.604063 LL:  -5.362 LR: -16.069 RR:   0.000 FEB:  -8.015
USER: RMSD 11.763991
USER: SEED 41
USER: STATUS no improvement in best in 5 clusters for 5 generations
USER: GENES 29
USER: genes 0 Translation |==|  0.38717 0.43729 0.46249
USER: genes 1 Rotation |==|  0.70358 0.04639 0.54843 0.52128
USER: genes 2 Torsion [C]-N--CA-[C] |==|  0.79444
USER: genes 3 Torsion [N]-CA--C-[N] |==|  0.42424
USER: genes 4 Torsion [C]-N--CA-[C] |==|  0.70739
USER: genes 5 Torsion [N]-CA--C-[N] |==|  0.41343
USER: genes 6 Torsion [C]-N--CA-[CB] |==|  0.82533
USER: genes 7 Torsion [N]-CA--CB-[CG] |==|  0.34725
USER: genes 8 Torsion [CA]-CB--CG-[CD2] |==|  0.24668
USER: genes 9 Torsion [N]-CA--C-[O] |==|  0.40561
USER: genes 10 Torsion [N]-CA--CB-[CG] |==|  0.92613
USER: genes 11 Torsion [CA]-CB--CG-[CD] |==|  0.81206
USER: genes 12 Torsion [CB]-CG--CD-[CE] |==|  0.48161
USER: genes 13 Torsion [CG]-CD--CE-[NZ] |==|  0.90034
USER: genes 14 Torsion [CD]-CE--NZ-[HZ2] |==|  0.40024
USER: genes 15 Torsion [N]-CA--CB-[CG2] |==|  0.43054
USER: genes 16 Torsion [CA]-CB--OG1-[HG1] |==|  0.14307
USER: genes 17 Torsion [N]-C--CA-[N] |==|  0.05980
USER: genes 18 Torsion [C]-CA--N-[C] |==|  0.61697
USER: genes 19 Torsion [N]-C--CA-[N] |==|  0.87799
USER: genes 20 Torsion [C]-CA--CB-[CG] |==|  0.57828
USER: genes 21 Torsion [CA]-CB--CG-[CD] |==|  0.84137
USER: genes 22 Torsion [CB]-CG--CD-[OE2] |==|  0.82089
USER: genes 23 Torsion [C]-CA--N-[C] |==|  0.71963
USER: genes 24 Torsion [N]-C--CA-[N] |==|  0.79934
USER: genes 25 Torsion [C]-CA--CB-[CG2] |==|  0.59566
USER: genes 26 Torsion [C]-CA--CB-[CG] |==|  0.68074
USER: genes 27 Torsion [CA]-CB--CG-[CD1] |==|  0.22236
USER: genes 28 Torsion [CE1]-CZ--OH-[HH] |==|  0.94089
ROOT
ATOM      1  C   TYR F 311      32.877  50.889  -4.041  1.00 39.57 LIG 0.24  C 
ATOM      2 O    TYR F 311      33.626  50.296  -3.261  1.00 35.87 LIG-0.27  OA
ATOM      3  N   THR F 312      33.273  51.393  -5.208  1.00 39.28 LIG-0.34  N 
ATOM      4 H    THR F 312      32.735  51.770  -5.762  1.00 39.28 LIG 0.16  HD
ENDROOT
BRANCH 3 5
ATOM      5  CA  THR F 312      34.656  51.362  -5.668  1.00 41.67 LIG 0.20  C 
BRANCH 5 6
ATOM      6  C   THR F 312      35.502  52.374  -4.911  1.00 45.40 LIG 0.24  C 
ATOM      7  N   LYS F 313      36.789  52.089  -4.805  1.00 48.10 LIG-0.35  N 
ATOM      8 H    LYS F 313      37.138  51.349  -5.066  1.00 48.10 LIG 0.16  HD
ATOM      9 O    THR F 312      35.009  53.406  -4.461  1.00 48.99 LIG-0.27  OA
BRANCH 7 10
ATOM     10  CA  LYS F 313      37.740  53.027  -4.226  1.00 51.61 LIG 0.18  C 
BRANCH 10 11
ATOM     11  C   LYS F 313      38.584  53.658  -5.341  1.00 54.92 LIG 0.24  C 
ATOM     12 O    LYS F 313      38.835  53.025  -6.372  1.00 54.36 LIG-0.27  OA
ATOM     13  N   HIS F 314      38.997  54.909  -5.116  1.00 57.06 LIG-0.35  N 
ATOM     14 H    HIS F 314      38.824  55.331  -4.387  1.00 57.06 LIG 0.16  HD
BRANCH 13 15
ATOM     15  CA  HIS F 314      39.785  55.702  -6.073  1.00 57.78 LIG 0.17  C 
BRANCH 15 16
ATOM     16  CB  HIS F 314      41.152  55.054  -6.339  1.00 57.79 LIG 0.09  C 
BRANCH 16 17
ATOM     17  CG  HIS F 314      41.431  54.796  -7.789  1.00 61.61 LIG 0.06  A 
ATOM     18  CD2 HIS F 314      41.999  55.574  -8.741  1.00 62.97 LIG 0.14  A 
ATOM     19 NE2  HIS F 314      42.012  54.846  -9.908  1.00 63.36 LIG-0.25  NA
ATOM     20  CE1 HIS F 314      41.473  53.661  -9.681  1.00 61.50 LIG 0.23  A 
ATOM     21 ND1  HIS F 314      41.112  53.604  -8.410  1.00 63.00 LIG-0.24  NA
ENDBRANCH 16 17
ENDBRANCH 15 16
BRANCH 15 22
ATOM     22  C   HIS F 314      39.039  55.936  -7.392  1.00 59.91 LIG 0.22  C 
ATOM     23 O    HIS F 314      39.180  56.988  -8.026  1.00 59.00 LIG-0.29  OA
ENDBRANCH 15 22
ENDBRANCH 13 15
ENDBRANCH 10 11
BRANCH 10 24
ATOM     24  CB  LYS F 313      38.623  52.328  -3.185  1.00 49.70 LIG 0.04  C 
BRANCH 24 25
ATOM     25  CG  LYS F 313      37.954  51.122  -2.543  1.00 49.89 LIG 0.00  C 
BRANCH 25 26
ATOM     26  CD  LYS F 313      36.774  51.513  -1.666  1.00 49.58 LIG 0.03  C 
BRANCH 26 27
ATOM     27  CE  LYS F 313      36.030  50.281  -1.172  1.00 48.23 LIG 0.23  C 
BRANCH 27 28
ATOM     28  NZ  LYS F 313      36.008  49.211  -2.198  1.00 47.83 LIG-0.08  N 
ATOM     29 HZ2  LYS F 313      36.071  48.417  -1.802  1.00 47.83 LIG 0.27  HD
ATOM     30 HZ1  LYS F 313      36.693  49.320  -2.756  1.00 47.83 LIG 0.27  HD
ATOM     31 HZ3  LYS F 313      35.245  49.254  -2.656  1.00 47.83 LIG 0.27  HD
ENDBRANCH 27 28
ENDBRANCH 26 27
ENDBRANCH 25 26
ENDBRANCH 24 25
ENDBRANCH 10 24
ENDBRANCH 7 10
ENDBRANCH 5 6
BRANCH 5 32
ATOM     32  CB  THR F 312      34.753  51.737  -7.157  1.00 41.09 LIG 0.15  C 
ATOM     33  CG2 THR F 312      36.124  52.297  -7.495  1.00 40.88 LIG 0.04  C 
BRANCH 32 34
ATOM     34 OG1  THR F 312      34.508  50.570  -7.948  1.00 43.07 LIG-0.39  OA
ATOM     35 HG1  THR F 312      33.792  50.207  -7.699  1.00 43.07 LIG 0.21  HD
ENDBRANCH 32 34
ENDBRANCH 5 32
ENDBRANCH 3 5
BRANCH 1 36
ATOM     36  CA  TYR F 311      31.402  51.119  -3.702  1.00 39.31 LIG 0.18  C 
BRANCH 36 37
ATOM     37  N   TYR F 311      30.581  51.393  -4.879  1.00 40.62 LIG-0.35  N 
ATOM     38 H    TYR F 311      30.756  50.898  -5.561  1.00 40.62 LIG 0.16  HD
ATOM     39  C   GLU F 310      29.646  52.339  -4.865  1.00 41.86 LIG 0.24  C 
ATOM     40 O    GLU F 310      29.492  53.090  -3.913  1.00 41.90 LIG-0.27  OA
BRANCH 39 41
ATOM     41  CA  GLU F 310      28.774  52.487  -6.110  1.00 43.14 LIG 0.18  C 
BRANCH 41 42
ATOM     42  CB  GLU F 310      27.714  51.382  -6.110  1.00 44.06 LIG 0.04  C 
BRANCH 42 43
ATOM     43  CG  GLU F 310      27.249  50.977  -7.499  1.00 45.60 LIG 0.12  C 
BRANCH 43 44
ATOM     44  CD  GLU F 310      26.690  52.137  -8.311  1.00 46.85 LIG 0.17  C 
ATOM     45 OE2  GLU F 310      25.646  52.687  -7.895  1.00 47.09 LIG-0.65  OA
ATOM     46 OE1  GLU F 310      27.273  52.488  -9.365  1.00 45.53 LIG-0.65  OA
ENDBRANCH 43 44
ENDBRANCH 42 43
ENDBRANCH 41 42
BRANCH 41 47
ATOM     47  N   GLU F 310      29.592  52.416  -7.331  1.00 43.23 LIG-0.35  N 
ATOM     48  C   VAL F 309      29.968  53.494  -8.028  1.00 44.16 LIG 0.26  C 
ATOM     49 O    VAL F 309      29.633  54.645  -7.740  1.00 43.83 LIG-0.27  OA
ATOM     50 H    GLU F 310      29.808  51.614  -7.555  1.00 43.23 LIG 0.16  HD
BRANCH 48 51
ATOM     51  CA  VAL F 309      30.867  53.243  -9.246  1.00 44.86 LIG 0.40  C 
ATOM     52  N   VAL F 309      32.237  52.862  -8.791  1.00 44.58 LIG 0.61  N 
BRANCH 51 53
ATOM     53  CB  VAL F 309      30.271  52.147 -10.178  1.00 44.54 LIG 0.03  C 
ATOM     54  CG2 VAL F 309      31.388  51.326 -10.810  1.00 44.44 LIG 0.01  C 
ATOM     55  CG1 VAL F 309      29.363  52.733 -11.258  1.00 43.50 LIG 0.01  C 
ENDBRANCH 51 53
ENDBRANCH 48 51
ENDBRANCH 41 47
ENDBRANCH 39 41
ENDBRANCH 36 37
BRANCH 36 56
ATOM     56  CB  TYR F 311      30.863  49.884  -2.973  1.00 38.48 LIG 0.07  C 
BRANCH 56 57
ATOM     57  CG  TYR F 311      29.794  49.155  -3.756  1.00 36.48 LIG-0.06  A 
ATOM     58  CD1 TYR F 311      30.133  48.287  -4.789  1.00 35.51 LIG 0.01  A 
ATOM     59  CE1 TYR F 311      29.159  47.617  -5.512  1.00 35.35 LIG 0.04  A 
ATOM     60  CZ  TYR F 311      27.831  47.821  -5.216  1.00 34.90 LIG 0.07  A 
ATOM     61  CE2 TYR F 311      27.461  48.680  -4.199  1.00 36.46 LIG 0.04  A 
ATOM     62  CD2 TYR F 311      28.439  49.349  -3.478  1.00 36.25 LIG 0.01  A 
BRANCH 60 63
ATOM     63 OH   TYR F 311      26.871  47.166  -5.935  1.00 38.07 LIG-0.36  OA
ATOM     64 HH   TYR F 311      27.190  46.923  -6.673  1.00 38.07 LIG 0.22  HD
ENDBRANCH 60 63
ENDBRANCH 56 57
ENDBRANCH 36 56
ENDBRANCH 1 36
TORSDOF 27
ENDMDL
MODEL 4
USER: ADFR SOLUTION from run 170
USER: SCORE 20.135554 LL:  -4.784 LR: -16.031 RR:   0.000 FEB:  -7.977
USER: RMSD 9.025527
USER: SEED 169
USER: STATUS no improvement in best in 17 clusters for 5 generations
USER: GENES 29
USER: genes 0 Translation |==|  0.31492 0.59627 0.31661
USER: genes 1 Rotation |==|  0.92808 0.71261 0.63329 0.56147
USER: genes 2 Torsion [C]-N--CA-[C] |==|  0.83491
USER: genes 3 Torsion [N]-CA--C-[N] |==|  0.92790
USER: genes 4 Torsion [C]-N--CA-[C] |==|  0.55792
USER: genes 5 Torsion [N]-CA--C-[N] |==|  0.44848
USER: genes 6 Torsion [C]-N--CA-[CB] |==|  0.77631
USER: genes 7 Torsion [N]-CA--CB-[CG] |==|  0.22064
USER: genes 8 Torsion [CA]-CB--CG-[CD2] |==|  0.23636
USER: genes 9 Torsion [N]-CA--C-[O] |==|  0.10617
USER: genes 10 Torsion [N]-CA--CB-[CG] |==|  0.53907
USER: genes 11 Torsion [CA]-CB--CG-[CD] |==|  0.69099
USER: genes 12 Torsion [CB]-CG--CD-[CE] |==|  0.62371
USER: genes 13 Torsion [CG]-CD--CE-[NZ] |==|  0.25286
USER: genes 14 Torsion [CD]-CE--NZ-[HZ2] |==|  0.29340
USER: genes 15 Torsion [N]-CA--CB-[CG2] |==|  0.59710
USER: genes 16 Torsion [CA]-CB--OG1-[HG1] |==|  0.17871
USER: genes 17 Torsion [N]-C--CA-[N] |==|  0.48862
USER: genes 18 Torsion [C]-CA--N-[C] |==|  0.82778
USER: genes 19 Torsion [N]-C--CA-[N] |==|  0.45990
USER: genes 20 Torsion [C]-CA--CB-[CG] |==|  0.98827
USER: genes 21 Torsion [CA]-CB--CG-[CD] |==|  0.72657
USER: genes 22 Torsion [CB]-CG--CD-[OE2] |==|  0.43043
USER: genes 23 Torsion [C]-CA--N-[C] |==|  0.76342
USER: genes 24 Torsion [N]-C--CA-[N] |==|  0.38078
USER: genes 25 Torsion [C]-CA--CB-[CG2] |==|  0.05475
USER: genes 26 Torsion [C]-CA--CB-[CG] |==|  0.39323
USER: genes 27 Torsion [CA]-CB--CG-[CD1] |==|  0.84421
USER: genes 28 Torsion [CE1]-CZ--OH-[HH] |==|  0.96183
ROOT
ATOM      1  C   TYR F 311      30.872  53.989  -6.886  1.00 39.57 LIG 0.24  C 
ATOM      2 O    TYR F 311      29.844  54.666  -6.800  1.00 35.87 LIG-0.27  OA
ATOM      3  N   THR F 312      31.179  53.241  -7.943  1.00 39.28 LIG-0.34  N 
ATOM      4 H    THR F 312      31.916  52.804  -8.010  1.00 39.28 LIG 0.16  HD
ENDROOT
BRANCH 3 5
ATOM      5  CA  THR F 312      30.301  53.081  -9.096  1.00 41.67 LIG 0.20  C 
BRANCH 5 6
ATOM      6  C   THR F 312      28.964  52.487  -8.680  1.00 45.40 LIG 0.24  C 
ATOM      7  N   LYS F 313      28.973  51.749  -7.583  1.00 48.10 LIG-0.35  N 
ATOM      8 H    LYS F 313      29.688  51.534  -7.157  1.00 48.10 LIG 0.16  HD
ATOM      9 O    THR F 312      27.939  52.719  -9.318  1.00 48.99 LIG-0.27  OA
BRANCH 7 10
ATOM     10  CA  LYS F 313      27.748  51.229  -6.994  1.00 51.61 LIG 0.18  C 
BRANCH 10 11
ATOM     11  C   LYS F 313      27.994  50.883  -5.520  1.00 54.92 LIG 0.24  C 
ATOM     12 O    LYS F 313      29.144  50.740  -5.091  1.00 54.36 LIG-0.27  OA
ATOM     13  N   HIS F 314      26.898  50.767  -4.762  1.00 57.06 LIG-0.35  N 
ATOM     14 H    HIS F 314      26.103  50.857  -5.079  1.00 57.06 LIG 0.16  HD
BRANCH 13 15
ATOM     15  CA  HIS F 314      26.919  50.475  -3.320  1.00 57.78 LIG 0.17  C 
BRANCH 15 16
ATOM     16  CB  HIS F 314      27.117  48.974  -3.059  1.00 57.79 LIG 0.09  C 
BRANCH 16 17
ATOM     17  CG  HIS F 314      28.538  48.517  -3.187  1.00 61.61 LIG 0.06  A 
ATOM     18  CD2 HIS F 314      29.560  48.517  -2.297  1.00 62.97 LIG 0.14  A 
ATOM     19 NE2  HIS F 314      30.655  47.984  -2.935  1.00 63.36 LIG-0.25  NA
ATOM     20  CE1 HIS F 314      30.320  47.664  -4.172  1.00 61.50 LIG 0.23  A 
ATOM     21 ND1  HIS F 314      29.047  47.977  -4.352  1.00 63.00 LIG-0.24  NA
ENDBRANCH 16 17
ENDBRANCH 15 16
BRANCH 15 22
ATOM     22  C   HIS F 314      27.982  51.291  -2.575  1.00 59.91 LIG 0.22  C 
ATOM     23 O    HIS F 314      28.210  52.468  -2.878  1.00 59.00 LIG-0.29  OA
ENDBRANCH 15 22
ENDBRANCH 13 15
ENDBRANCH 10 11
BRANCH 10 24
ATOM     24  CB  LYS F 313      27.245  50.011  -7.777  1.00 49.70 LIG 0.04  C 
BRANCH 24 25
ATOM     25  CG  LYS F 313      25.812  49.628  -7.435  1.00 49.89 LIG 0.00  C 
BRANCH 25 26
ATOM     26  CD  LYS F 313      25.729  48.306  -6.689  1.00 49.58 LIG 0.03  C 
BRANCH 26 27
ATOM     27  CE  LYS F 313      24.613  47.434  -7.247  1.00 48.23 LIG 0.23  C 
BRANCH 27 28
ATOM     28  NZ  LYS F 313      25.108  46.544  -8.324  1.00 47.83 LIG-0.08  N 
ATOM     29 HZ2  LYS F 313      25.170  45.711  -8.017  1.00 47.83 LIG 0.27  HD
ATOM     30 HZ1  LYS F 313      25.910  46.821  -8.594  1.00 47.83 LIG 0.27  HD
ATOM     31 HZ3  LYS F 313      24.542  46.564  -9.011  1.00 47.83 LIG 0.27  HD
ENDBRANCH 27 28
ENDBRANCH 26 27
ENDBRANCH 25 26
ENDBRANCH 24 25
ENDBRANCH 10 24
ENDBRANCH 7 10
ENDBRANCH 5 6
BRANCH 5 32
ATOM     32  CB  THR F 312      30.908  52.112 -10.125  1.00 41.09 LIG 0.15  C 
ATOM     33  CG2 THR F 312      30.569  52.533 -11.544  1.00 40.88 LIG 0.04  C 
BRANCH 32 34
ATOM     34 OG1  THR F 312      32.330  52.092  -9.962  1.00 43.07 LIG-0.39  OA
ATOM     35 HG1  THR F 312      32.522  51.780  -9.206  1.00 43.07 LIG 0.21  HD
ENDBRANCH 32 34
ENDBRANCH 5 32
ENDBRANCH 3 5
BRANCH 1 36
ATOM     36  CA  TYR F 311      31.883  53.938  -5.739  1.00 39.31 LIG 0.18  C 
BRANCH 36 37
ATOM     37  N   TYR F 311      31.551  54.847  -4.643  1.00 40.62 LIG-0.35  N 
ATOM     38 H    TYR F 311      31.400  54.460  -3.890  1.00 40.62 LIG 0.16  HD
ATOM     39  C   GLU F 310      31.496  56.163  -4.830  1.00 41.86 LIG 0.24  C 
ATOM     40 O    GLU F 310      31.618  56.671  -5.935  1.00 41.90 LIG-0.27  OA
BRANCH 39 41
ATOM     41  CA  GLU F 310      31.235  57.039  -3.606  1.00 43.14 LIG 0.18  C 
BRANCH 41 42
ATOM     42  CB  GLU F 310      29.771  56.882  -3.185  1.00 44.06 LIG 0.04  C 
BRANCH 42 43
ATOM     43  CG  GLU F 310      28.953  56.008  -4.121  1.00 45.60 LIG 0.12  C 
BRANCH 43 44
ATOM     44  CD  GLU F 310      28.128  56.803  -5.123  1.00 46.85 LIG 0.17  C 
ATOM     45 OE2  GLU F 310      27.818  56.240  -6.196  1.00 47.09 LIG-0.65  OA
ATOM     46 OE1  GLU F 310      27.806  57.986  -4.855  1.00 45.53 LIG-0.65  OA
ENDBRANCH 43 44
ENDBRANCH 42 43
ENDBRANCH 41 42
BRANCH 41 47
ATOM     47  N   GLU F 310      31.539  58.448  -3.900  1.00 43.23 LIG-0.35  N 
ATOM     48  C   VAL F 309      32.766  58.972  -3.799  1.00 44.16 LIG 0.26  C 
ATOM     49 O    VAL F 309      33.750  58.338  -3.412  1.00 43.83 LIG-0.27  OA
ATOM     50 H    GLU F 310      30.853  58.905  -4.143  1.00 43.23 LIG 0.16  HD
BRANCH 48 51
ATOM     51  CA  VAL F 309      32.915  60.447  -4.196  1.00 44.86 LIG 0.40  C 
ATOM     52  N   VAL F 309      33.783  61.149  -3.205  1.00 44.58 LIG 0.61  N 
BRANCH 51 53
ATOM     53  CB  VAL F 309      33.491  60.594  -5.635  1.00 44.54 LIG 0.03  C 
ATOM     54  CG2 VAL F 309      33.293  59.301  -6.418  1.00 44.44 LIG 0.01  C 
ATOM     55  CG1 VAL F 309      34.964  60.997  -5.634  1.00 43.50 LIG 0.01  C 
ENDBRANCH 51 53
ENDBRANCH 48 51
ENDBRANCH 41 47
ENDBRANCH 39 41
ENDBRANCH 36 37
BRANCH 36 56
ATOM     56  CB  TYR F 311      31.960  52.502  -5.210  1.00 38.48 LIG 0.07  C 
BRANCH 56 57
ATOM     57  CG  TYR F 311      33.365  52.083  -4.836  1.00 36.48 LIG-0.06  A 
ATOM     58  CD1 TYR F 311      34.402  52.155  -5.761  1.00 35.51 LIG 0.01  A 
ATOM     59  CE1 TYR F 311      35.690  51.771  -5.426  1.00 35.35 LIG 0.04  A 
ATOM     60  CZ  TYR F 311      35.951  51.297  -4.161  1.00 34.90 LIG 0.07  A 
ATOM     61  CE2 TYR F 311      34.943  51.209  -3.221  1.00 36.46 LIG 0.04  A 
ATOM     62  CD2 TYR F 311      33.654  51.595  -3.560  1.00 36.25 LIG 0.01  A 
BRANCH 60 63
ATOM     63 OH   TYR F 311      37.221  50.911  -3.834  1.00 38.07 LIG-0.36  OA
ATOM     64 HH   TYR F 311      37.681  50.838  -4.533  1.00 38.07 LIG 0.22  HD
ENDBRANCH 60 63
ENDBRANCH 56 57
ENDBRANCH 36 56
ENDBRANCH 1 36
TORSDOF 27
ENDMDL
MODEL 5
USER: ADFR SOLUTION from run 199
USER: SCORE 19.909201 LL:  -5.173 LR: -15.609 RR:   0.000 FEB:  -7.555
USER: RMSD 9.075405
USER: SEED 198
USER: STATUS no improvement in best in 5 clusters for 5 generations
USER: GENES 29
USER: genes 0 Translation |==|  0.28704 0.46119 0.46580
USER: genes 1 Rotation |==|  0.81952 0.80533 0.29197 0.60679
USER: genes 2 Torsion [C]-N--CA-[C] |==|  0.78891
USER: genes 3 Torsion [N]-CA--C-[N] |==|  0.90270
USER: genes 4 Torsion [C]-N--CA-[C] |==|  0.59564
USER: genes 5 Torsion [N]-CA--C-[N] |==|  0.84842
USER: genes 6 Torsion [C]-N--CA-[CB] |==|  0.26427
USER: genes 7 Torsion [N]-CA--CB-[CG] |==|  0.91474
USER: genes 8 Torsion [CA]-CB--CG-[CD2] |==|  0.77666
USER: genes 9 Torsion [N]-CA--C-[O] |==|  0.67621
USER: genes 10 Torsion [N]-CA--CB-[CG] |==|  0.80037
USER: genes 11 Torsion [CA]-CB--CG-[CD] |==|  0.64720
USER: genes 12 Torsion [CB]-CG--CD-[CE] |==|  0.39560
USER: genes 13 Torsion [CG]-CD--CE-[NZ] |==|  0.42243
USER: genes 14 Torsion [CD]-CE--NZ-[HZ2] |==|  0.85075
USER: genes 15 Torsion [N]-CA--CB-[CG2] |==|  0.83699
USER: genes 16 Torsion [CA]-CB--OG1-[HG1] |==|  0.51279
USER: genes 17 Torsion [N]-C--CA-[N] |==|  0.36311
USER: genes 18 Torsion [C]-CA--N-[C] |==|  0.85556
USER: genes 19 Torsion [N]-C--CA-[N] |==|  0.93251
USER: genes 20 Torsion [C]-CA--CB-[CG] |==|  0.40096
USER: genes 21 Torsion [CA]-CB--CG-[CD] |==|  0.82054
USER: genes 22 Torsion [CB]-CG--CD-[OE2] |==|  0.03214
USER: genes 23 Torsion [C]-CA--N-[C] |==|  0.76748
USER: genes 24 Torsion [N]-C--CA-[N] |==|  0.56508
USER: genes 25 Torsion [C]-CA--CB-[CG2] |==|  0.81799
USER: genes 26 Torsion [C]-CA--CB-[CG] |==|  0.41928
USER: genes 27 Torsion [CA]-CB--CG-[CD1] |==|  0.94997
USER: genes 28 Torsion [CE1]-CZ--OH-[HH] |==|  0.75060
ROOT
ATOM      1  C   TYR F 311      30.098  51.355  -3.977  1.00 39.57 LIG 0.24  C 
ATOM      2 O    TYR F 311      29.255  52.059  -3.416  1.00 35.87 LIG-0.27  OA
ATOM      3  N   THR F 312      30.081  50.024  -3.960  1.00 39.28 LIG-0.34  N 
ATOM      4 H    THR F 312      30.650  49.543  -4.387  1.00 39.28 LIG 0.16  HD
ENDROOT
BRANCH 3 5
ATOM      5  CA  THR F 312      29.099  49.243  -3.219  1.00 41.67 LIG 0.20  C 
BRANCH 5 6
ATOM      6  C   THR F 312      29.415  49.246  -1.731  1.00 45.40 LIG 0.24  C 
ATOM      7  N   LYS F 313      30.699  49.248  -1.412  1.00 48.10 LIG-0.35  N 
ATOM      8 H    LYS F 313      31.334  49.170  -1.985  1.00 48.10 LIG 0.16  HD
ATOM      9 O    THR F 312      28.520  49.281  -0.890  1.00 48.99 LIG-0.27  OA
BRANCH 7 10
ATOM     10  CA  LYS F 313      31.150  49.385  -0.034  1.00 51.61 LIG 0.18  C 
BRANCH 10 11
ATOM     11  C   LYS F 313      32.463  50.177  -0.001  1.00 54.92 LIG 0.24  C 
ATOM     12 O    LYS F 313      32.572  51.182   0.709  1.00 54.36 LIG-0.27  OA
ATOM     13  N   HIS F 314      33.448  49.698  -0.767  1.00 57.06 LIG-0.35  N 
ATOM     14 H    HIS F 314      33.352  49.003  -1.266  1.00 57.06 LIG 0.16  HD
BRANCH 13 15
ATOM     15  CA  HIS F 314      34.793  50.289  -0.849  1.00 57.78 LIG 0.17  C 
BRANCH 15 16
ATOM     16  CB  HIS F 314      35.767  49.590   0.112  1.00 57.79 LIG 0.09  C 
BRANCH 16 17
ATOM     17  CG  HIS F 314      35.118  49.053   1.350  1.00 61.61 LIG 0.06  A 
ATOM     18  CD2 HIS F 314      34.748  49.663   2.502  1.00 62.97 LIG 0.14  A 
ATOM     19 NE2  HIS F 314      34.194  48.701   3.313  1.00 63.36 LIG-0.25  NA
ATOM     20  CE1 HIS F 314      34.220  47.540   2.683  1.00 61.50 LIG 0.23  A 
ATOM     21 ND1  HIS F 314      34.773  47.723   1.496  1.00 63.00 LIG-0.24  NA
ENDBRANCH 16 17
ENDBRANCH 15 16
BRANCH 15 22
ATOM     22  C   HIS F 314      35.350  50.277  -2.277  1.00 59.91 LIG 0.22  C 
ATOM     23 O    HIS F 314      36.363  49.628  -2.561  1.00 59.00 LIG-0.29  OA
ENDBRANCH 15 22
ENDBRANCH 13 15
ENDBRANCH 10 11
BRANCH 10 24
ATOM     24  CB  LYS F 313      31.311  48.009   0.622  1.00 49.70 LIG 0.04  C 
BRANCH 24 25
ATOM     25  CG  LYS F 313      29.984  47.326   0.918  1.00 49.89 LIG 0.00  C 
BRANCH 25 26
ATOM     26  CD  LYS F 313      29.871  46.883   2.368  1.00 49.58 LIG 0.03  C 
BRANCH 26 27
ATOM     27  CE  LYS F 313      28.454  47.079   2.889  1.00 48.23 LIG 0.23  C 
BRANCH 27 28
ATOM     28  NZ  LYS F 313      28.133  46.112   3.966  1.00 47.83 LIG-0.08  N 
ATOM     29 HZ2  LYS F 313      28.293  45.285   3.679  1.00 47.83 LIG 0.27  HD
ATOM     30 HZ1  LYS F 313      27.275  46.189   4.188  1.00 47.83 LIG 0.27  HD
ATOM     31 HZ3  LYS F 313      28.639  46.282   4.678  1.00 47.83 LIG 0.27  HD
ENDBRANCH 27 28
ENDBRANCH 26 27
ENDBRANCH 25 26
ENDBRANCH 24 25
ENDBRANCH 10 24
ENDBRANCH 7 10
ENDBRANCH 5 6
BRANCH 5 32
ATOM     32  CB  THR F 312      29.109  47.771  -3.665  1.00 41.09 LIG 0.15  C 
ATOM     33  CG2 THR F 312      28.814  47.644  -5.149  1.00 40.88 LIG 0.04  C 
BRANCH 32 34
ATOM     34 OG1  THR F 312      30.397  47.210  -3.386  1.00 43.07 LIG-0.39  OA
ATOM     35 HG1  THR F 312      30.432  46.425  -3.684  1.00 43.07 LIG 0.21  HD
ENDBRANCH 32 34
ENDBRANCH 5 32
ENDBRANCH 3 5
BRANCH 1 36
ATOM     36  CA  TYR F 311      31.275  51.980  -4.730  1.00 39.31 LIG 0.18  C 
BRANCH 36 37
ATOM     37  N   TYR F 311      30.863  53.011  -5.681  1.00 40.62 LIG-0.35  N 
ATOM     38 H    TYR F 311      31.276  53.760  -5.598  1.00 40.62 LIG 0.16  HD
ATOM     39  C   GLU F 310      29.920  52.776  -6.589  1.00 41.86 LIG 0.24  C 
ATOM     40 O    GLU F 310      29.284  51.733  -6.614  1.00 41.90 LIG-0.27  OA
BRANCH 39 41
ATOM     41  CA  GLU F 310      29.624  53.881  -7.600  1.00 43.14 LIG 0.18  C 
BRANCH 41 42
ATOM     42  CB  GLU F 310      30.386  53.588  -8.896  1.00 44.06 LIG 0.04  C 
BRANCH 42 43
ATOM     43  CG  GLU F 310      29.633  53.987 -10.154  1.00 45.60 LIG 0.12  C 
BRANCH 43 44
ATOM     44  CD  GLU F 310      28.352  53.193 -10.369  1.00 46.85 LIG 0.17  C 
ATOM     45 OE2  GLU F 310      27.941  52.488  -9.421  1.00 47.09 LIG-0.65  OA
ATOM     46 OE1  GLU F 310      27.767  53.256 -11.477  1.00 45.53 LIG-0.65  OA
ENDBRANCH 43 44
ENDBRANCH 42 43
ENDBRANCH 41 42
BRANCH 41 47
ATOM     47  N   GLU F 310      30.009  55.196  -7.062  1.00 43.23 LIG-0.35  N 
ATOM     48  C   VAL F 309      29.222  55.921  -6.259  1.00 44.16 LIG 0.26  C 
ATOM     49 O    VAL F 309      28.085  55.578  -5.926  1.00 43.83 LIG-0.27  OA
ATOM     50 H    GLU F 310      30.789  55.456  -7.313  1.00 43.23 LIG 0.16  HD
BRANCH 48 51
ATOM     51  CA  VAL F 309      29.802  57.245  -5.746  1.00 44.86 LIG 0.40  C 
ATOM     52  N   VAL F 309      29.111  57.641  -4.483  1.00 44.58 LIG 0.61  N 
BRANCH 51 53
ATOM     53  CB  VAL F 309      31.340  57.147  -5.526  1.00 44.54 LIG 0.03  C 
ATOM     54  CG2 VAL F 309      31.651  56.162  -4.406  1.00 44.44 LIG 0.01  C 
ATOM     55  CG1 VAL F 309      31.973  58.505  -5.233  1.00 43.50 LIG 0.01  C 
ENDBRANCH 51 53
ENDBRANCH 48 51
ENDBRANCH 41 47
ENDBRANCH 39 41
ENDBRANCH 36 37
BRANCH 36 56
ATOM     56  CB  TYR F 311      32.252  52.578  -3.713  1.00 38.48 LIG 0.07  C 
BRANCH 56 57
ATOM     57  CG  TYR F 311      33.685  52.583  -4.200  1.00 36.48 LIG-0.06  A 
ATOM     58  CD1 TYR F 311      34.082  51.770  -5.256  1.00 35.51 LIG 0.01  A 
ATOM     59  CE1 TYR F 311      35.392  51.767  -5.706  1.00 35.35 LIG 0.04  A 
ATOM     60  CZ  TYR F 311      36.324  52.571  -5.090  1.00 34.90 LIG 0.07  A 
ATOM     61  CE2 TYR F 311      35.963  53.386  -4.036  1.00 36.46 LIG 0.04  A 
ATOM     62  CD2 TYR F 311      34.650  53.387  -3.589  1.00 36.25 LIG 0.01  A 
BRANCH 60 63
ATOM     63 OH   TYR F 311      37.618  52.561  -5.530  1.00 38.07 LIG-0.36  OA
ATOM     64 HH   TYR F 311      38.052  51.974  -5.114  1.00 38.07 LIG 0.22  HD
ENDBRANCH 60 63
ENDBRANCH 56 57
ENDBRANCH 36 56
ENDBRANCH 1 36
TORSDOF 27
ENDMDL
MODEL 6
USER: ADFR SOLUTION from run 74
USER: SCORE 19.367801 LL:  -5.016 LR: -15.550 RR:   0.000 FEB:  -7.496
USER: RMSD 10.236674
USER: SEED 73
USER: STATUS no improvement in best in 7 clusters for 5 generations
USER: GENES 29
USER: genes 0 Translation |==|  0.41871 0.50400 0.39677
USER: genes 1 Rotation |==|  0.48080 0.95058 0.65801 0.64712
USER: genes 2 Torsion [C]-N--CA-[C] |==|  0.64754
USER: genes 3 Torsion [N]-CA--C-[N] |==|  0.85777
USER: genes 4 Torsion [C]-N--CA-[C] |==|  0.77625
USER: genes 5 Torsion [N]-CA--C-[N] |==|  0.95661
USER: genes 6 Torsion [C]-N--CA-[CB] |==|  0.78496
USER: genes 7 Torsion [N]-CA--CB-[CG] |==|  0.92440
USER: genes 8 Torsion [CA]-CB--CG-[CD2] |==|  0.33615
USER: genes 9 Torsion [N]-CA--C-[O] |==|  0.18348
USER: genes 10 Torsion [N]-CA--CB-[CG] |==|  0.78747
USER: genes 11 Torsion [CA]-CB--CG-[CD] |==|  0.34752
USER: genes 12 Torsion [CB]-CG--CD-[CE] |==|  0.65652
USER: genes 13 Torsion [CG]-CD--CE-[NZ] |==|  0.44157
USER: genes 14 Torsion [CD]-CE--NZ-[HZ2] |==|  0.98974
USER: genes 15 Torsion [N]-CA--CB-[CG2] |==|  0.39721
USER: genes 16 Torsion [CA]-CB--OG1-[HG1] |==|  0.21293
USER: genes 17 Torsion [N]-C--CA-[N] |==|  0.35011
USER: genes 18 Torsion [C]-CA--N-[C] |==|  0.66055
USER: genes 19 Torsion [N]-C--CA-[N] |==|  0.81588
USER: genes 20 Torsion [C]-CA--CB-[CG] |==|  0.16159
USER: genes 21 Torsion [CA]-CB--CG-[CD] |==|  0.18962
USER: genes 22 Torsion [CB]-CG--CD-[OE2] |==|  0.78533
USER: genes 23 Torsion [C]-CA--N-[C] |==|  0.65311
USER: genes 24 Torsion [N]-C--CA-[N] |==|  0.92088
USER: genes 25 Torsion [C]-CA--CB-[CG2] |==|  0.23522
USER: genes 26 Torsion [C]-CA--CB-[CG] |==|  0.82579
USER: genes 27 Torsion [CA]-CB--CG-[CD1] |==|  0.85479
USER: genes 28 Torsion [CE1]-CZ--OH-[HH] |==|  0.13467
ROOT
ATOM      1  C   TYR F 311      33.752  52.190  -5.323  1.00 39.57 LIG 0.24  C 
ATOM      2 O    TYR F 311      33.652  50.978  -5.532  1.00 35.87 LIG-0.27  OA
ATOM      3  N   THR F 312      34.896  52.864  -5.413  1.00 39.28 LIG-0.34  N 
ATOM      4 H    THR F 312      34.949  53.715  -5.304  1.00 39.28 LIG 0.16  HD
ENDROOT
BRANCH 3 5
ATOM      5  CA  THR F 312      36.178  52.235  -5.705  1.00 41.67 LIG 0.20  C 
BRANCH 5 6
ATOM      6  C   THR F 312      37.216  52.610  -4.658  1.00 45.40 LIG 0.24  C 
ATOM      7  N   LYS F 313      37.350  53.902  -4.410  1.00 48.10 LIG-0.35  N 
ATOM      8 H    LYS F 313      36.948  54.518  -4.855  1.00 48.10 LIG 0.16  HD
ATOM      9 O    THR F 312      37.858  51.748  -4.062  1.00 48.99 LIG-0.27  OA
BRANCH 7 10
ATOM     10  CA  LYS F 313      38.206  54.397  -3.342  1.00 51.61 LIG 0.18  C 
BRANCH 10 11
ATOM     11  C   LYS F 313      37.468  54.289  -2.002  1.00 54.92 LIG 0.24  C 
ATOM     12 O    LYS F 313      38.085  54.388  -0.935  1.00 54.36 LIG-0.27  OA
ATOM     13  N   HIS F 314      36.147  54.098  -2.082  1.00 57.06 LIG-0.35  N 
ATOM     14 H    HIS F 314      35.735  54.019  -2.832  1.00 57.06 LIG 0.16  HD
BRANCH 13 15
ATOM     15  CA  HIS F 314      35.255  54.003  -0.915  1.00 57.78 LIG 0.17  C 
BRANCH 15 16
ATOM     16  CB  HIS F 314      35.360  52.623  -0.247  1.00 57.79 LIG 0.09  C 
BRANCH 16 17
ATOM     17  CG  HIS F 314      35.766  51.525  -1.181  1.00 61.61 LIG 0.06  A 
ATOM     18  CD2 HIS F 314      36.824  50.678  -1.158  1.00 62.97 LIG 0.14  A 
ATOM     19 NE2  HIS F 314      36.717  49.862  -2.259  1.00 63.36 LIG-0.25  NA
ATOM     20  CE1 HIS F 314      35.631  50.192  -2.935  1.00 61.50 LIG 0.23  A 
ATOM     21 ND1  HIS F 314      35.038  51.194  -2.307  1.00 63.00 LIG-0.24  NA
ENDBRANCH 16 17
ENDBRANCH 15 16
BRANCH 15 22
ATOM     22  C   HIS F 314      35.512  55.114   0.109  1.00 59.91 LIG 0.22  C 
ATOM     23 O    HIS F 314      35.285  56.298  -0.164  1.00 59.00 LIG-0.29  OA
ENDBRANCH 15 22
ENDBRANCH 13 15
ENDBRANCH 10 11
BRANCH 10 24
ATOM     24  CB  LYS F 313      38.643  55.839  -3.624  1.00 49.70 LIG 0.04  C 
BRANCH 24 25
ATOM     25  CG  LYS F 313      39.739  55.939  -4.675  1.00 49.89 LIG 0.00  C 
BRANCH 25 26
ATOM     26  CD  LYS F 313      39.359  56.864  -5.821  1.00 49.58 LIG 0.03  C 
BRANCH 26 27
ATOM     27  CE  LYS F 313      39.443  56.139  -7.157  1.00 48.23 LIG 0.23  C 
BRANCH 27 28
ATOM     28  NZ  LYS F 313      38.628  56.815  -8.194  1.00 47.83 LIG-0.08  N 
ATOM     29 HZ2  LYS F 313      38.191  57.500  -7.829  1.00 47.83 LIG 0.27  HD
ATOM     30 HZ1  LYS F 313      38.043  56.238  -8.535  1.00 47.83 LIG 0.27  HD
ATOM     31 HZ3  LYS F 313      39.160  57.115  -8.842  1.00 47.83 LIG 0.27  HD
ENDBRANCH 27 28
ENDBRANCH 26 27
ENDBRANCH 25 26
ENDBRANCH 24 25
ENDBRANCH 10 24
ENDBRANCH 7 10
ENDBRANCH 5 6
BRANCH 5 32
ATOM     32  CB  THR F 312      36.734  52.709  -7.059  1.00 41.09 LIG 0.15  C 
ATOM     33  CG2 THR F 312      38.244  52.862  -7.012  1.00 40.88 LIG 0.04  C 
BRANCH 32 34
ATOM     34 OG1  THR F 312      36.384  51.752  -8.065  1.00 43.07 LIG-0.39  OA
ATOM     35 HG1  THR F 312      35.575  51.845  -8.272  1.00 43.07 LIG 0.21  HD
ENDBRANCH 32 34
ENDBRANCH 5 32
ENDBRANCH 3 5
BRANCH 1 36
ATOM     36  CA  TYR F 311      32.539  53.023  -4.905  1.00 39.31 LIG 0.18  C 
BRANCH 36 37
ATOM     37  N   TYR F 311      31.417  52.908  -5.835  1.00 40.62 LIG-0.35  N 
ATOM     38 H    TYR F 311      31.133  52.104  -5.954  1.00 40.62 LIG 0.16  HD
ATOM     39  C   GLU F 310      30.903  53.978  -6.434  1.00 41.86 LIG 0.24  C 
ATOM     40 O    GLU F 310      31.395  55.090  -6.318  1.00 41.90 LIG-0.27  OA
BRANCH 39 41
ATOM     41  CA  GLU F 310      29.673  53.770  -7.315  1.00 43.14 LIG 0.18  C 
BRANCH 41 42
ATOM     42  CB  GLU F 310      28.579  53.086  -6.490  1.00 44.06 LIG 0.04  C 
BRANCH 42 43
ATOM     43  CG  GLU F 310      28.171  53.862  -5.248  1.00 45.60 LIG 0.12  C 
BRANCH 43 44
ATOM     44  CD  GLU F 310      27.444  55.162  -5.560  1.00 46.85 LIG 0.17  C 
ATOM     45 OE2  GLU F 310      28.133  56.137  -5.935  1.00 47.09 LIG-0.65  OA
ATOM     46 OE1  GLU F 310      26.199  55.221  -5.416  1.00 45.53 LIG-0.65  OA
ENDBRANCH 43 44
ENDBRANCH 42 43
ENDBRANCH 41 42
BRANCH 41 47
ATOM     47  N   GLU F 310      30.009  52.960  -8.496  1.00 43.23 LIG-0.35  N 
ATOM     48  C   VAL F 309      29.776  53.358  -9.752  1.00 44.16 LIG 0.26  C 
ATOM     49 O    VAL F 309      29.222  54.421 -10.039  1.00 43.83 LIG-0.27  OA
ATOM     50 H    GLU F 310      30.371  52.204  -8.304  1.00 43.23 LIG 0.16  HD
BRANCH 48 51
ATOM     51  CA  VAL F 309      30.240  52.413 -10.868  1.00 44.86 LIG 0.40  C 
ATOM     52  N   VAL F 309      31.415  51.620 -10.399  1.00 44.58 LIG 0.61  N 
BRANCH 51 53
ATOM     53  CB  VAL F 309      29.091  51.472 -11.334  1.00 44.54 LIG 0.03  C 
ATOM     54  CG2 VAL F 309      28.229  52.170 -12.380  1.00 44.44 LIG 0.01  C 
ATOM     55  CG1 VAL F 309      28.228  50.987 -10.170  1.00 43.50 LIG 0.01  C 
ENDBRANCH 51 53
ENDBRANCH 48 51
ENDBRANCH 41 47
ENDBRANCH 39 41
ENDBRANCH 36 37
BRANCH 36 56
ATOM     56  CB  TYR F 311      32.094  52.584  -3.506  1.00 38.48 LIG 0.07  C 
BRANCH 56 57
ATOM     57  CG  TYR F 311      31.641  51.141  -3.455  1.00 36.48 LIG-0.06  A 
ATOM     58  CD1 TYR F 311      30.681  50.662  -4.341  1.00 35.51 LIG 0.01  A 
ATOM     59  CE1 TYR F 311      30.259  49.344  -4.299  1.00 35.35 LIG 0.04  A 
ATOM     60  CZ  TYR F 311      30.787  48.492  -3.356  1.00 34.90 LIG 0.07  A 
ATOM     61  CE2 TYR F 311      31.738  48.936  -2.459  1.00 36.46 LIG 0.04  A 
ATOM     62  CD2 TYR F 311      32.158  50.257  -2.505  1.00 36.25 LIG 0.01  A 
BRANCH 60 63
ATOM     63 OH   TYR F 311      30.364  47.192  -3.310  1.00 38.07 LIG-0.36  OA
ATOM     64 HH   TYR F 311      30.384  46.863  -4.083  1.00 38.07 LIG 0.22  HD
ENDBRANCH 60 63
ENDBRANCH 56 57
ENDBRANCH 36 56
ENDBRANCH 1 36
TORSDOF 27
ENDMDL
MODEL 7
USER: ADFR SOLUTION from run 80
USER: SCORE 20.096565 LL:  -5.063 LR: -15.418 RR:   0.000 FEB:  -7.364
USER: RMSD 11.637730
USER: SEED 79
USER: STATUS no improvement in best in 8 clusters for 5 generations
USER: GENES 29
USER: genes 0 Translation |==|  0.40032 0.46551 0.43687
USER: genes 1 Rotation |==|  0.70954 0.05997 0.61167 0.50071
USER: genes 2 Torsion [C]-N--CA-[C] |==|  0.82778
USER: genes 3 Torsion [N]-CA--C-[N] |==|  0.41683
USER: genes 4 Torsion [C]-N--CA-[C] |==|  0.67969
USER: genes 5 Torsion [N]-CA--C-[N] |==|  0.91567
USER: genes 6 Torsion [C]-N--CA-[CB] |==|  0.83213
USER: genes 7 Torsion [N]-CA--CB-[CG] |==|  0.59195
USER: genes 8 Torsion [CA]-CB--CG-[CD2] |==|  0.55338
USER: genes 9 Torsion [N]-CA--C-[O] |==|  0.05910
USER: genes 10 Torsion [N]-CA--CB-[CG] |==|  0.11010
USER: genes 11 Torsion [CA]-CB--CG-[CD] |==|  0.80769
USER: genes 12 Torsion [CB]-CG--CD-[CE] |==|  0.84114
USER: genes 13 Torsion [CG]-CD--CE-[NZ] |==|  0.55152
USER: genes 14 Torsion [CD]-CE--NZ-[HZ2] |==|  0.13593
USER: genes 15 Torsion [N]-CA--CB-[CG2] |==|  0.41762
USER: genes 16 Torsion [CA]-CB--OG1-[HG1] |==|  0.12023
USER: genes 17 Torsion [N]-C--CA-[N] |==|  0.94345
USER: genes 18 Torsion [C]-CA--N-[C] |==|  0.81061
USER: genes 19 Torsion [N]-C--CA-[N] |==|  0.99782
USER: genes 20 Torsion [C]-CA--CB-[CG] |==|  0.85578
USER: genes 21 Torsion [CA]-CB--CG-[CD] |==|  0.76693
USER: genes 22 Torsion [CB]-CG--CD-[OE2] |==|  0.23395
USER: genes 23 Torsion [C]-CA--N-[C] |==|  0.76480
USER: genes 24 Torsion [N]-C--CA-[N] |==|  0.95591
USER: genes 25 Torsion [C]-CA--CB-[CG2] |==|  0.54822
USER: genes 26 Torsion [C]-CA--CB-[CG] |==|  0.25170
USER: genes 27 Torsion [CA]-CB--CG-[CD1] |==|  0.44270
USER: genes 28 Torsion [CE1]-CZ--OH-[HH] |==|  0.78293
ROOT
ATOM      1  C   TYR F 311      33.242  51.439  -4.541  1.00 39.57 LIG 0.24  C 
ATOM      2 O    TYR F 311      33.866  51.069  -3.543  1.00 35.87 LIG-0.27  OA
ATOM      3  N   THR F 312      33.817  51.739  -5.704  1.00 39.28 LIG-0.34  N 
ATOM      4 H    THR F 312      33.369  51.958  -6.405  1.00 39.28 LIG 0.16  HD
ENDROOT
BRANCH 3 5
ATOM      5  CA  THR F 312      35.259  51.729  -5.914  1.00 41.67 LIG 0.20  C 
BRANCH 5 6
ATOM      6  C   THR F 312      35.944  52.749  -5.017  1.00 45.40 LIG 0.24  C 
ATOM      7  N   LYS F 313      37.178  52.455  -4.642  1.00 48.10 LIG-0.35  N 
ATOM      8 H    LYS F 313      37.563  51.706  -4.811  1.00 48.10 LIG 0.16  HD
ATOM      9 O    THR F 312      35.382  53.795  -4.699  1.00 48.99 LIG-0.27  OA
BRANCH 7 10
ATOM     10  CA  LYS F 313      38.000  53.396  -3.896  1.00 51.61 LIG 0.18  C 
BRANCH 10 11
ATOM     11  C   LYS F 313      39.209  53.806  -4.746  1.00 54.92 LIG 0.24  C 
ATOM     12 O    LYS F 313      39.723  54.922  -4.611  1.00 54.36 LIG-0.27  OA
ATOM     13  N   HIS F 314      39.653  52.883  -5.605  1.00 57.06 LIG-0.35  N 
ATOM     14 H    HIS F 314      39.276  52.115  -5.696  1.00 57.06 LIG 0.16  HD
BRANCH 13 15
ATOM     15  CA  HIS F 314      40.819  53.065  -6.484  1.00 57.78 LIG 0.17  C 
BRANCH 15 16
ATOM     16  CB  HIS F 314      40.615  54.251  -7.439  1.00 57.79 LIG 0.09  C 
BRANCH 16 17
ATOM     17  CG  HIS F 314      41.260  54.070  -8.779  1.00 61.61 LIG 0.06  A 
ATOM     18  CD2 HIS F 314      41.603  54.968  -9.735  1.00 62.97 LIG 0.14  A 
ATOM     19 NE2  HIS F 314      42.168  54.264 -10.771  1.00 63.36 LIG-0.25  NA
ATOM     20  CE1 HIS F 314      42.176  52.979 -10.465  1.00 61.50 LIG 0.23  A 
ATOM     21 ND1  HIS F 314      41.633  52.833  -9.268  1.00 63.00 LIG-0.24  NA
ENDBRANCH 16 17
ENDBRANCH 15 16
BRANCH 15 22
ATOM     22  C   HIS F 314      42.123  53.232  -5.696  1.00 59.91 LIG 0.22  C 
ATOM     23 O    HIS F 314      42.219  52.833  -4.530  1.00 59.00 LIG-0.29  OA
ENDBRANCH 15 22
ENDBRANCH 13 15
ENDBRANCH 10 11
BRANCH 10 24
ATOM     24  CB  LYS F 313      38.438  52.790  -2.558  1.00 49.70 LIG 0.04  C 
BRANCH 24 25
ATOM     25  CG  LYS F 313      38.807  51.317  -2.659  1.00 49.89 LIG 0.00  C 
BRANCH 25 26
ATOM     26  CD  LYS F 313      37.598  50.435  -2.926  1.00 49.58 LIG 0.03  C 
BRANCH 26 27
ATOM     27  CE  LYS F 313      36.540  50.618  -1.846  1.00 48.23 LIG 0.23  C 
BRANCH 27 28
ATOM     28  NZ  LYS F 313      35.581  49.487  -1.829  1.00 47.83 LIG-0.08  N 
ATOM     29 HZ2  LYS F 313      36.029  48.718  -1.830  1.00 47.83 LIG 0.27  HD
ATOM     30 HZ1  LYS F 313      35.060  49.528  -2.550  1.00 47.83 LIG 0.27  HD
ATOM     31 HZ3  LYS F 313      35.077  49.536  -1.096  1.00 47.83 LIG 0.27  HD
ENDBRANCH 27 28
ENDBRANCH 26 27
ENDBRANCH 25 26
ENDBRANCH 24 25
ENDBRANCH 10 24
ENDBRANCH 7 10
ENDBRANCH 5 6
BRANCH 5 32
ATOM     32  CB  THR F 312      35.612  52.112  -7.361  1.00 41.09 LIG 0.15  C 
ATOM     33  CG2 THR F 312      36.965  52.796  -7.435  1.00 40.88 LIG 0.04  C 
BRANCH 32 34
ATOM     34 OG1  THR F 312      35.633  50.927  -8.164  1.00 43.07 LIG-0.39  OA
ATOM     35 HG1  THR F 312      34.973  50.444  -7.970  1.00 43.07 LIG 0.21  HD
ENDBRANCH 32 34
ENDBRANCH 5 32
ENDBRANCH 3 5
BRANCH 1 36
ATOM     36  CA  TYR F 311      31.722  51.613  -4.504  1.00 39.31 LIG 0.18  C 
BRANCH 36 37
ATOM     37  N   TYR F 311      31.223  52.502  -5.552  1.00 40.62 LIG-0.35  N 
ATOM     38 H    TYR F 311      30.753  52.112  -6.158  1.00 40.62 LIG 0.16  HD
ATOM     39  C   GLU F 310      31.492  53.804  -5.539  1.00 41.86 LIG 0.24  C 
ATOM     40 O    GLU F 310      32.244  54.307  -4.718  1.00 41.90 LIG-0.27  OA
BRANCH 39 41
ATOM     41  CA  GLU F 310      30.848  54.668  -6.622  1.00 43.14 LIG 0.18  C 
BRANCH 41 42
ATOM     42  CB  GLU F 310      29.992  55.748  -5.954  1.00 44.06 LIG 0.04  C 
BRANCH 42 43
ATOM     43  CG  GLU F 310      29.002  55.204  -4.937  1.00 45.60 LIG 0.12  C 
BRANCH 43 44
ATOM     44  CD  GLU F 310      27.703  54.714  -5.560  1.00 46.85 LIG 0.17  C 
ATOM     45 OE2  GLU F 310      27.681  53.548  -6.013  1.00 47.09 LIG-0.65  OA
ATOM     46 OE1  GLU F 310      26.716  55.487  -5.616  1.00 45.53 LIG-0.65  OA
ENDBRANCH 43 44
ENDBRANCH 42 43
ENDBRANCH 41 42
BRANCH 41 47
ATOM     47  N   GLU F 310      30.027  53.845  -7.525  1.00 43.23 LIG-0.35  N 
ATOM     48  C   VAL F 309      30.526  53.186  -8.577  1.00 44.16 LIG 0.26  C 
ATOM     49 O    VAL F 309      31.711  53.237  -8.915  1.00 43.83 LIG-0.27  OA
ATOM     50 H    GLU F 310      29.194  53.826  -7.313  1.00 43.23 LIG 0.16  HD
BRANCH 48 51
ATOM     51  CA  VAL F 309      29.538  52.331  -9.381  1.00 44.86 LIG 0.40  C 
ATOM     52  N   VAL F 309      28.294  52.117  -8.584  1.00 44.58 LIG 0.61  N 
BRANCH 51 53
ATOM     53  CB  VAL F 309      29.208  52.982 -10.756  1.00 44.54 LIG 0.03  C 
ATOM     54  CG2 VAL F 309      27.939  52.370 -11.338  1.00 44.44 LIG 0.01  C 
ATOM     55  CG1 VAL F 309      30.362  52.862 -11.748  1.00 43.50 LIG 0.01  C 
ENDBRANCH 51 53
ENDBRANCH 48 51
ENDBRANCH 41 47
ENDBRANCH 39 41
ENDBRANCH 36 37
BRANCH 36 56
ATOM     56  CB  TYR F 311      31.063  50.237  -4.638  1.00 38.48 LIG 0.07  C 
BRANCH 56 57
ATOM     57  CG  TYR F 311      30.812  49.567  -3.305  1.00 36.48 LIG-0.06  A 
ATOM     58  CD1 TYR F 311      29.870  48.551  -3.183  1.00 35.51 LIG 0.01  A 
ATOM     59  CE1 TYR F 311      29.633  47.934  -1.966  1.00 35.35 LIG 0.04  A 
ATOM     60  CZ  TYR F 311      30.329  48.341  -0.851  1.00 34.90 LIG 0.07  A 
ATOM     61  CE2 TYR F 311      31.268  49.351  -0.937  1.00 36.46 LIG 0.04  A 
ATOM     62  CD2 TYR F 311      31.503  49.965  -2.158  1.00 36.25 LIG 0.01  A 
BRANCH 60 63
ATOM     63 OH   TYR F 311      30.089  47.737   0.352  1.00 38.07 LIG-0.36  OA
ATOM     64 HH   TYR F 311      29.378  48.041   0.681  1.00 38.07 LIG 0.22  HD
ENDBRANCH 60 63
ENDBRANCH 56 57
ENDBRANCH 36 56
ENDBRANCH 1 36
TORSDOF 27
ENDMDL
MODEL 8
USER: ADFR SOLUTION from run 119
USER: SCORE 18.951360 LL:  -5.061 LR: -15.242 RR:   0.000 FEB:  -7.188
USER: RMSD 9.686064
USER: SEED 118
USER: STATUS no improvement in best in 8 clusters for 5 generations
USER: GENES 29
USER: genes 0 Translation |==|  0.33403 0.55031 0.43417
USER: genes 1 Rotation |==|  0.02916 0.34935 0.46299 0.56513
USER: genes 2 Torsion [C]-N--CA-[C] |==|  0.59444
USER: genes 3 Torsion [N]-CA--C-[N] |==|  0.27834
USER: genes 4 Torsion [C]-N--CA-[C] |==|  0.85942
USER: genes 5 Torsion [N]-CA--C-[N] |==|  0.40209
USER: genes 6 Torsion [C]-N--CA-[CB] |==|  0.29831
USER: genes 7 Torsion [N]-CA--CB-[CG] |==|  0.83761
USER: genes 8 Torsion [CA]-CB--CG-[CD2] |==|  0.33727
USER: genes 9 Torsion [N]-CA--C-[O] |==|  0.01363
USER: genes 10 Torsion [N]-CA--CB-[CG] |==|  0.59626
USER: genes 11 Torsion [CA]-CB--CG-[CD] |==|  0.39934
USER: genes 12 Torsion [CB]-CG--CD-[CE] |==|  0.35869
USER: genes 13 Torsion [CG]-CD--CE-[NZ] |==|  0.14453
USER: genes 14 Torsion [CD]-CE--NZ-[HZ2] |==|  0.24276
USER: genes 15 Torsion [N]-CA--CB-[CG2] |==|  0.76044
USER: genes 16 Torsion [CA]-CB--OG1-[HG1] |==|  0.05960
USER: genes 17 Torsion [N]-C--CA-[N] |==|  0.68569
USER: genes 18 Torsion [C]-CA--N-[C] |==|  0.68604
USER: genes 19 Torsion [N]-C--CA-[N] |==|  0.96093
USER: genes 20 Torsion [C]-CA--CB-[CG] |==|  0.89714
USER: genes 21 Torsion [CA]-CB--CG-[CD] |==|  0.36072
USER: genes 22 Torsion [CB]-CG--CD-[OE2] |==|  0.92713
USER: genes 23 Torsion [C]-CA--N-[C] |==|  0.81499
USER: genes 24 Torsion [N]-C--CA-[N] |==|  0.34075
USER: genes 25 Torsion [C]-CA--CB-[CG2] |==|  0.66452
USER: genes 26 Torsion [C]-CA--CB-[CG] |==|  0.37979
USER: genes 27 Torsion [CA]-CB--CG-[CD1] |==|  0.05053
USER: genes 28 Torsion [CE1]-CZ--OH-[HH] |==|  0.23195
ROOT
ATOM      1  C   TYR F 311      31.402  53.093  -4.594  1.00 39.57 LIG 0.24  C 
ATOM      2 O    TYR F 311      30.791  53.767  -3.761  1.00 35.87 LIG-0.27  OA
ATOM      3  N   THR F 312      30.923  52.793  -5.799  1.00 39.28 LIG-0.34  N 
ATOM      4 H    THR F 312      31.373  52.356  -6.387  1.00 39.28 LIG 0.16  HD
ENDROOT
BRANCH 3 5
ATOM      5  CA  THR F 312      29.590  53.171  -6.250  1.00 41.67 LIG 0.20  C 
BRANCH 5 6
ATOM      6  C   THR F 312      29.008  52.108  -7.170  1.00 45.40 LIG 0.24  C 
ATOM      7  N   LYS F 313      28.144  51.273  -6.618  1.00 48.10 LIG-0.35  N 
ATOM      8 H    LYS F 313      27.966  51.256  -5.777  1.00 48.10 LIG 0.16  HD
ATOM      9 O    THR F 312      29.308  52.065  -8.361  1.00 48.99 LIG-0.27  OA
BRANCH 7 10
ATOM     10  CA  LYS F 313      27.409  50.293  -7.404  1.00 51.61 LIG 0.18  C 
BRANCH 10 11
ATOM     11  C   LYS F 313      26.748  50.987  -8.601  1.00 54.92 LIG 0.24  C 
ATOM     12 O    LYS F 313      26.318  52.141  -8.500  1.00 54.36 LIG-0.27  OA
ATOM     13  N   HIS F 314      26.691  50.269  -9.728  1.00 57.06 LIG-0.35  N 
ATOM     14 H    HIS F 314      26.984  49.462  -9.779  1.00 57.06 LIG 0.16  HD
BRANCH 13 15
ATOM     15  CA  HIS F 314      26.129  50.764 -10.995  1.00 57.78 LIG 0.17  C 
BRANCH 15 16
ATOM     16  CB  HIS F 314      27.238  51.045 -12.021  1.00 57.79 LIG 0.09  C 
BRANCH 16 17
ATOM     17  CG  HIS F 314      28.254  52.045 -11.560  1.00 61.61 LIG 0.06  A 
ATOM     18  CD2 HIS F 314      29.596  51.948 -11.406  1.00 62.97 LIG 0.14  A 
ATOM     19 NE2  HIS F 314      30.043  53.168 -10.954  1.00 63.36 LIG-0.25  NA
ATOM     20  CE1 HIS F 314      29.013  53.987 -10.837  1.00 61.50 LIG 0.23  A 
ATOM     21 ND1  HIS F 314      27.920  53.335 -11.195  1.00 63.00 LIG-0.24  NA
ENDBRANCH 16 17
ENDBRANCH 15 16
BRANCH 15 22
ATOM     22  C   HIS F 314      25.086  49.808 -11.584  1.00 59.91 LIG 0.22  C 
ATOM     23 O    HIS F 314      24.726  48.799 -10.967  1.00 59.00 LIG-0.29  OA
ENDBRANCH 15 22
ENDBRANCH 13 15
ENDBRANCH 10 11
BRANCH 10 24
ATOM     24  CB  LYS F 313      26.373  49.569  -6.537  1.00 49.70 LIG 0.04  C 
BRANCH 24 25
ATOM     25  CG  LYS F 313      26.181  48.110  -6.923  1.00 49.89 LIG 0.00  C 
BRANCH 25 26
ATOM     26  CD  LYS F 313      25.935  47.218  -5.717  1.00 49.58 LIG 0.03  C 
BRANCH 26 27
ATOM     27  CE  LYS F 313      24.699  46.354  -5.921  1.00 48.23 LIG 0.23  C 
BRANCH 27 28
ATOM     28  NZ  LYS F 313      24.758  45.617  -7.206  1.00 47.83 LIG-0.08  N 
ATOM     29 HZ2  LYS F 313      25.187  44.847  -7.087  1.00 47.83 LIG 0.27  HD
ATOM     30 HZ1  LYS F 313      25.190  46.108  -7.810  1.00 47.83 LIG 0.27  HD
ATOM     31 HZ3  LYS F 313      23.931  45.455  -7.494  1.00 47.83 LIG 0.27  HD
ENDBRANCH 27 28
ENDBRANCH 26 27
ENDBRANCH 25 26
ENDBRANCH 24 25
ENDBRANCH 10 24
ENDBRANCH 7 10
ENDBRANCH 5 6
BRANCH 5 32
ATOM     32  CB  THR F 312      29.628  54.478  -7.061  1.00 41.09 LIG 0.15  C 
ATOM     33  CG2 THR F 312      29.542  55.691  -6.152  1.00 40.88 LIG 0.04  C 
BRANCH 32 34
ATOM     34 OG1  THR F 312      30.849  54.527  -7.806  1.00 43.07 LIG-0.39  OA
ATOM     35 HG1  THR F 312      31.155  53.750  -7.895  1.00 43.07 LIG 0.21  HD
ENDBRANCH 32 34
ENDBRANCH 5 32
ENDBRANCH 3 5
BRANCH 1 36
ATOM     36  CA  TYR F 311      32.783  52.513  -4.281  1.00 39.31 LIG 0.18  C 
BRANCH 36 37
ATOM     37  N   TYR F 311      32.753  51.506  -3.221  1.00 40.62 LIG-0.35  N 
ATOM     38 H    TYR F 311      32.338  50.781  -3.428  1.00 40.62 LIG 0.16  HD
ATOM     39  C   GLU F 310      33.331  51.724  -2.044  1.00 41.86 LIG 0.24  C 
ATOM     40 O    GLU F 310      33.826  52.803  -1.750  1.00 41.90 LIG-0.27  OA
BRANCH 39 41
ATOM     41  CA  GLU F 310      33.330  50.578  -1.034  1.00 43.14 LIG 0.18  C 
BRANCH 41 42
ATOM     42  CB  GLU F 310      34.748  50.011  -0.924  1.00 44.06 LIG 0.04  C 
BRANCH 42 43
ATOM     43  CG  GLU F 310      35.502  49.981  -2.244  1.00 45.60 LIG 0.12  C 
BRANCH 43 44
ATOM     44  CD  GLU F 310      36.890  50.598  -2.161  1.00 46.85 LIG 0.17  C 
ATOM     45 OE2  GLU F 310      37.088  51.467  -1.283  1.00 47.09 LIG-0.65  OA
ATOM     46 OE1  GLU F 310      37.775  50.237  -2.975  1.00 45.53 LIG-0.65  OA
ENDBRANCH 43 44
ENDBRANCH 42 43
ENDBRANCH 41 42
BRANCH 41 47
ATOM     47  N   GLU F 310      32.385  49.527  -1.441  1.00 43.23 LIG-0.35  N 
ATOM     48  C   VAL F 309      31.059  49.703  -1.475  1.00 44.16 LIG 0.26  C 
ATOM     49 O    VAL F 309      30.500  50.748  -1.133  1.00 43.83 LIG-0.27  OA
ATOM     50 H    GLU F 310      32.764  48.786  -1.655  1.00 43.23 LIG 0.16  HD
BRANCH 48 51
ATOM     51  CA  VAL F 309      30.223  48.518  -1.976  1.00 44.86 LIG 0.40  C 
ATOM     52  N   VAL F 309      29.232  48.125  -0.931  1.00 44.58 LIG 0.61  N 
BRANCH 51 53
ATOM     53  CB  VAL F 309      29.508  48.851  -3.318  1.00 44.54 LIG 0.03  C 
ATOM     54  CG2 VAL F 309      27.998  48.717  -3.159  1.00 44.44 LIG 0.01  C 
ATOM     55  CG1 VAL F 309      30.001  47.981  -4.471  1.00 43.50 LIG 0.01  C 
ENDBRANCH 51 53
ENDBRANCH 48 51
ENDBRANCH 41 47
ENDBRANCH 39 41
ENDBRANCH 36 37
BRANCH 36 56
ATOM     56  CB  TYR F 311      33.363  51.898  -5.559  1.00 38.48 LIG 0.07  C 
BRANCH 56 57
ATOM     57  CG  TYR F 311      34.825  52.230  -5.766  1.00 36.48 LIG-0.06  A 
ATOM     58  CD1 TYR F 311      35.610  52.682  -4.710  1.00 35.51 LIG 0.01  A 
ATOM     59  CE1 TYR F 311      36.949  52.990  -4.891  1.00 35.35 LIG 0.04  A 
ATOM     60  CZ  TYR F 311      37.512  52.862  -6.140  1.00 34.90 LIG 0.07  A 
ATOM     61  CE2 TYR F 311      36.758  52.421  -7.210  1.00 36.46 LIG 0.04  A 
ATOM     62  CD2 TYR F 311      35.419  52.113  -7.024  1.00 36.25 LIG 0.01  A 
BRANCH 60 63
ATOM     63 OH   TYR F 311      38.830  53.174  -6.320  1.00 38.07 LIG-0.36  OA
ATOM     64 HH   TYR F 311      39.306  52.516  -6.105  1.00 38.07 LIG 0.22  HD
ENDBRANCH 60 63
ENDBRANCH 56 57
ENDBRANCH 36 56
ENDBRANCH 1 36
TORSDOF 27
ENDMDL
MODEL 9
USER: ADFR SOLUTION from run 80
USER: SCORE 19.852063 LL:  -5.184 LR: -15.239 RR:   0.000 FEB:  -7.185
USER: RMSD 11.297378
USER: SEED 79
USER: STATUS no improvement in best in 8 clusters for 5 generations
USER: GENES 29
USER: genes 0 Translation |==|  0.40050 0.46512 0.43688
USER: genes 1 Rotation |==|  0.70985 0.06022 0.61204 0.50048
USER: genes 2 Torsion [C]-N--CA-[C] |==|  0.83256
USER: genes 3 Torsion [N]-CA--C-[N] |==|  0.43329
USER: genes 4 Torsion [C]-N--CA-[C] |==|  0.64876
USER: genes 5 Torsion [N]-CA--C-[N] |==|  0.84823
USER: genes 6 Torsion [C]-N--CA-[CB] |==|  0.45639
USER: genes 7 Torsion [N]-CA--CB-[CG] |==|  0.83605
USER: genes 8 Torsion [CA]-CB--CG-[CD2] |==|  0.52290
USER: genes 9 Torsion [N]-CA--C-[O] |==|  0.01971
USER: genes 10 Torsion [N]-CA--CB-[CG] |==|  0.12000
USER: genes 11 Torsion [CA]-CB--CG-[CD] |==|  0.80278
USER: genes 12 Torsion [CB]-CG--CD-[CE] |==|  0.83988
USER: genes 13 Torsion [CG]-CD--CE-[NZ] |==|  0.55265
USER: genes 14 Torsion [CD]-CE--NZ-[HZ2] |==|  0.13585
USER: genes 15 Torsion [N]-CA--CB-[CG2] |==|  0.41760
USER: genes 16 Torsion [CA]-CB--OG1-[HG1] |==|  0.12023
USER: genes 17 Torsion [N]-C--CA-[N] |==|  0.94295
USER: genes 18 Torsion [C]-CA--N-[C] |==|  0.81064
USER: genes 19 Torsion [N]-C--CA-[N] |==|  0.99783
USER: genes 20 Torsion [C]-CA--CB-[CG] |==|  0.85587
USER: genes 21 Torsion [CA]-CB--CG-[CD] |==|  0.76687
USER: genes 22 Torsion [CB]-CG--CD-[OE2] |==|  0.23393
USER: genes 23 Torsion [C]-CA--N-[C] |==|  0.76472
USER: genes 24 Torsion [N]-C--CA-[N] |==|  0.95587
USER: genes 25 Torsion [C]-CA--CB-[CG2] |==|  0.54818
USER: genes 26 Torsion [C]-CA--CB-[CG] |==|  0.25176
USER: genes 27 Torsion [CA]-CB--CG-[CD1] |==|  0.44164
USER: genes 28 Torsion [CE1]-CZ--OH-[HH] |==|  0.78293
ROOT
ATOM      1  C   TYR F 311      33.247  51.432  -4.541  1.00 39.57 LIG 0.24  C 
ATOM      2 O    TYR F 311      33.871  51.064  -3.542  1.00 35.87 LIG-0.27  OA
ATOM      3  N   THR F 312      33.822  51.731  -5.704  1.00 39.28 LIG-0.34  N 
ATOM      4 H    THR F 312      33.375  51.948  -6.405  1.00 39.28 LIG 0.16  HD
ENDROOT
BRANCH 3 5
ATOM      5  CA  THR F 312      35.265  51.723  -5.911  1.00 41.67 LIG 0.20  C 
BRANCH 5 6
ATOM      6  C   THR F 312      35.951  52.716  -4.985  1.00 45.40 LIG 0.24  C 
ATOM      7  N   LYS F 313      37.223  52.472  -4.715  1.00 48.10 LIG-0.35  N 
ATOM      8 H    LYS F 313      37.637  51.763  -4.965  1.00 48.10 LIG 0.16  HD
ATOM      9 O    THR F 312      35.354  53.699  -4.551  1.00 48.99 LIG-0.27  OA
BRANCH 7 10
ATOM     10  CA  LYS F 313      38.040  53.405  -3.953  1.00 51.61 LIG 0.18  C 
BRANCH 10 11
ATOM     11  C   LYS F 313      39.312  53.736  -4.744  1.00 54.92 LIG 0.24  C 
ATOM     12 O    LYS F 313      39.617  54.910  -4.982  1.00 54.36 LIG-0.27  OA
ATOM     13  N   HIS F 314      40.044  52.685  -5.129  1.00 57.06 LIG-0.35  N 
ATOM     14 H    HIS F 314      39.811  51.873  -4.966  1.00 57.06 LIG 0.16  HD
BRANCH 13 15
ATOM     15  CA  HIS F 314      41.314  52.789  -5.865  1.00 57.78 LIG 0.17  C 
BRANCH 15 16
ATOM     16  CB  HIS F 314      42.092  51.465  -5.820  1.00 57.79 LIG 0.09  C 
BRANCH 16 17
ATOM     17  CG  HIS F 314      42.426  51.003  -4.434  1.00 61.61 LIG 0.06  A 
ATOM     18  CD2 HIS F 314      43.210  49.989  -3.995  1.00 62.97 LIG 0.14  A 
ATOM     19 NE2  HIS F 314      43.169  50.009  -2.620  1.00 63.36 LIG-0.25  NA
ATOM     20  CE1 HIS F 314      42.390  51.001  -2.227  1.00 61.50 LIG 0.23  A 
ATOM     21 ND1  HIS F 314      41.927  51.617  -3.302  1.00 63.00 LIG-0.24  NA
ENDBRANCH 16 17
ENDBRANCH 15 16
BRANCH 15 22
ATOM     22  C   HIS F 314      41.112  53.240  -7.316  1.00 59.91 LIG 0.22  C 
ATOM     23 O    HIS F 314      40.002  53.601  -7.723  1.00 59.00 LIG-0.29  OA
ENDBRANCH 15 22
ENDBRANCH 13 15
ENDBRANCH 10 11
BRANCH 10 24
ATOM     24  CB  LYS F 313      38.375  52.830  -2.573  1.00 49.70 LIG 0.04  C 
BRANCH 24 25
ATOM     25  CG  LYS F 313      38.770  51.361  -2.614  1.00 49.89 LIG 0.00  C 
BRANCH 25 26
ATOM     26  CD  LYS F 313      37.590  50.452  -2.920  1.00 49.58 LIG 0.03  C 
BRANCH 26 27
ATOM     27  CE  LYS F 313      36.479  50.638  -1.896  1.00 48.23 LIG 0.23  C 
BRANCH 27 28
ATOM     28  NZ  LYS F 313      35.544  49.487  -1.894  1.00 47.83 LIG-0.08  N 
ATOM     29 HZ2  LYS F 313      36.008  48.728  -1.855  1.00 47.83 LIG 0.27  HD
ATOM     30 HZ1  LYS F 313      35.057  49.499  -2.638  1.00 47.83 LIG 0.27  HD
ATOM     31 HZ3  LYS F 313      35.006  49.542  -1.187  1.00 47.83 LIG 0.27  HD
ENDBRANCH 27 28
ENDBRANCH 26 27
ENDBRANCH 25 26
ENDBRANCH 24 25
ENDBRANCH 10 24
ENDBRANCH 7 10
ENDBRANCH 5 6
BRANCH 5 32
ATOM     32  CB  THR F 312      35.621  52.147  -7.347  1.00 41.09 LIG 0.15  C 
ATOM     33  CG2 THR F 312      36.976  52.829  -7.399  1.00 40.88 LIG 0.04  C 
BRANCH 32 34
ATOM     34 OG1  THR F 312      35.640  50.985  -8.183  1.00 43.07 LIG-0.39  OA
ATOM     35 HG1  THR F 312      34.979  50.499  -8.004  1.00 43.07 LIG 0.21  HD
ENDBRANCH 32 34
ENDBRANCH 5 32
ENDBRANCH 3 5
BRANCH 1 36
ATOM     36  CA  TYR F 311      31.727  51.603  -4.505  1.00 39.31 LIG 0.18  C 
BRANCH 36 37
ATOM     37  N   TYR F 311      31.227  52.493  -5.552  1.00 40.62 LIG-0.35  N 
ATOM     38 H    TYR F 311      30.759  52.104  -6.160  1.00 40.62 LIG 0.16  HD
ATOM     39  C   GLU F 310      31.494  53.796  -5.537  1.00 41.86 LIG 0.24  C 
ATOM     40 O    GLU F 310      32.245  54.298  -4.714  1.00 41.90 LIG-0.27  OA
BRANCH 39 41
ATOM     41  CA  GLU F 310      30.850  54.660  -6.619  1.00 43.14 LIG 0.18  C 
BRANCH 41 42
ATOM     42  CB  GLU F 310      29.992  55.738  -5.951  1.00 44.06 LIG 0.04  C 
BRANCH 42 43
ATOM     43  CG  GLU F 310      29.002  55.191  -4.935  1.00 45.60 LIG 0.12  C 
BRANCH 43 44
ATOM     44  CD  GLU F 310      27.705  54.699  -5.560  1.00 46.85 LIG 0.17  C 
ATOM     45 OE2  GLU F 310      27.685  53.534  -6.015  1.00 47.09 LIG-0.65  OA
ATOM     46 OE1  GLU F 310      26.717  55.471  -5.616  1.00 45.53 LIG-0.65  OA
ENDBRANCH 43 44
ENDBRANCH 42 43
ENDBRANCH 41 42
BRANCH 41 47
ATOM     47  N   GLU F 310      30.033  53.838  -7.525  1.00 43.23 LIG-0.35  N 
ATOM     48  C   VAL F 309      30.534  53.182  -8.578  1.00 44.16 LIG 0.26  C 
ATOM     49 O    VAL F 309      31.719  53.236  -8.914  1.00 43.83 LIG-0.27  OA
ATOM     50 H    GLU F 310      29.199  53.817  -7.313  1.00 43.23 LIG 0.16  HD
BRANCH 48 51
ATOM     51  CA  VAL F 309      29.548  52.327  -9.384  1.00 44.86 LIG 0.40  C 
ATOM     52  N   VAL F 309      28.304  52.108  -8.589  1.00 44.58 LIG 0.61  N 
BRANCH 51 53
ATOM     53  CB  VAL F 309      29.218  52.980 -10.758  1.00 44.54 LIG 0.03  C 
ATOM     54  CG2 VAL F 309      27.951  52.367 -11.344  1.00 44.44 LIG 0.01  C 
ATOM     55  CG1 VAL F 309      30.373  52.865 -11.750  1.00 43.50 LIG 0.01  C 
ENDBRANCH 51 53
ENDBRANCH 48 51
ENDBRANCH 41 47
ENDBRANCH 39 41
ENDBRANCH 36 37
BRANCH 36 56
ATOM     56  CB  TYR F 311      31.070  50.226  -4.644  1.00 38.48 LIG 0.07  C 
BRANCH 56 57
ATOM     57  CG  TYR F 311      30.817  49.554  -3.312  1.00 36.48 LIG-0.06  A 
ATOM     58  CD1 TYR F 311      29.871  48.541  -3.192  1.00 35.51 LIG 0.01  A 
ATOM     59  CE1 TYR F 311      29.633  47.922  -1.976  1.00 35.35 LIG 0.04  A 
ATOM     60  CZ  TYR F 311      30.332  48.322  -0.861  1.00 34.90 LIG 0.07  A 
ATOM     61  CE2 TYR F 311      31.275  49.328  -0.946  1.00 36.46 LIG 0.04  A 
ATOM     62  CD2 TYR F 311      31.511  49.945  -2.165  1.00 36.25 LIG 0.01  A 
BRANCH 60 63
ATOM     63 OH   TYR F 311      30.091  47.716   0.340  1.00 38.07 LIG-0.36  OA
ATOM     64 HH   TYR F 311      29.382  48.022   0.671  1.00 38.07 LIG 0.22  HD
ENDBRANCH 60 63
ENDBRANCH 56 57
ENDBRANCH 36 56
ENDBRANCH 1 36
TORSDOF 27
ENDMDL
MODEL 10
USER: ADFR SOLUTION from run 42
USER: SCORE 19.304927 LL:  -5.355 LR: -15.222 RR:   0.000 FEB:  -7.167
USER: RMSD 11.218744
USER: SEED 41
USER: STATUS no improvement in best in 5 clusters for 5 generations
USER: GENES 29
USER: genes 0 Translation |==|  0.38569 0.43604 0.46288
USER: genes 1 Rotation |==|  0.70628 0.04769 0.55114 0.51572
USER: genes 2 Torsion [C]-N--CA-[C] |==|  0.82210
USER: genes 3 Torsion [N]-CA--C-[N] |==|  0.41098
USER: genes 4 Torsion [C]-N--CA-[C] |==|  0.67586
USER: genes 5 Torsion [N]-CA--C-[N] |==|  0.17833
USER: genes 6 Torsion [C]-N--CA-[CB] |==|  0.74681
USER: genes 7 Torsion [N]-CA--CB-[CG] |==|  0.07145
USER: genes 8 Torsion [CA]-CB--CG-[CD2] |==|  0.30252
USER: genes 9 Torsion [N]-CA--C-[O] |==|  0.40026
USER: genes 10 Torsion [N]-CA--CB-[CG] |==|  0.81922
USER: genes 11 Torsion [CA]-CB--CG-[CD] |==|  0.23859
USER: genes 12 Torsion [CB]-CG--CD-[CE] |==|  0.49118
USER: genes 13 Torsion [CG]-CD--CE-[NZ] |==|  0.21836
USER: genes 14 Torsion [CD]-CE--NZ-[HZ2] |==|  0.61561
USER: genes 15 Torsion [N]-CA--CB-[CG2] |==|  0.43395
USER: genes 16 Torsion [CA]-CB--OG1-[HG1] |==|  0.14582
USER: genes 17 Torsion [N]-C--CA-[N] |==|  0.05999
USER: genes 18 Torsion [C]-CA--N-[C] |==|  0.61747
USER: genes 19 Torsion [N]-C--CA-[N] |==|  0.87495
USER: genes 20 Torsion [C]-CA--CB-[CG] |==|  0.57008
USER: genes 21 Torsion [CA]-CB--CG-[CD] |==|  0.84969
USER: genes 22 Torsion [CB]-CG--CD-[OE2] |==|  0.81529
USER: genes 23 Torsion [C]-CA--N-[C] |==|  0.71846
USER: genes 24 Torsion [N]-C--CA-[N] |==|  0.80396
USER: genes 25 Torsion [C]-CA--CB-[CG2] |==|  0.60403
USER: genes 26 Torsion [C]-CA--CB-[CG] |==|  0.67096
USER: genes 27 Torsion [CA]-CB--CG-[CD1] |==|  0.22692
USER: genes 28 Torsion [CE1]-CZ--OH-[HH] |==|  0.94074
ROOT
ATOM      1  C   TYR F 311      32.836  50.865  -4.034  1.00 39.57 LIG 0.24  C 
ATOM      2 O    TYR F 311      33.575  50.283  -3.235  1.00 35.87 LIG-0.27  OA
ATOM      3  N   THR F 312      33.252  51.374  -5.191  1.00 39.28 LIG-0.34  N 
ATOM      4 H    THR F 312      32.722  51.742  -5.759  1.00 39.28 LIG 0.16  HD
ENDROOT
BRANCH 3 5
ATOM      5  CA  THR F 312      34.645  51.362  -5.619  1.00 41.67 LIG 0.20  C 
BRANCH 5 6
ATOM      6  C   THR F 312      35.505  52.202  -4.687  1.00 45.40 LIG 0.24  C 
ATOM      7  N   LYS F 313      36.753  51.794  -4.525  1.00 48.10 LIG-0.35  N 
ATOM      8 H    LYS F 313      37.062  51.059  -4.848  1.00 48.10 LIG 0.16  HD
ATOM      9 O    THR F 312      35.061  53.216  -4.152  1.00 48.99 LIG-0.27  OA
BRANCH 7 10
ATOM     10  CA  LYS F 313      37.726  52.570  -3.770  1.00 51.61 LIG 0.18  C 
BRANCH 10 11
ATOM     11  C   LYS F 313      38.863  53.012  -4.700  1.00 54.92 LIG 0.24  C 
ATOM     12 O    LYS F 313      40.014  52.596  -4.526  1.00 54.36 LIG-0.27  OA
ATOM     13  N   HIS F 314      38.514  53.844  -5.686  1.00 57.06 LIG-0.35  N 
ATOM     14 H    HIS F 314      37.710  54.134  -5.786  1.00 57.06 LIG 0.16  HD
BRANCH 13 15
ATOM     15  CA  HIS F 314      39.446  54.355  -6.704  1.00 57.78 LIG 0.17  C 
BRANCH 15 16
ATOM     16  CB  HIS F 314      40.078  55.684  -6.262  1.00 57.79 LIG 0.09  C 
BRANCH 16 17
ATOM     17  CG  HIS F 314      40.131  55.866  -4.776  1.00 61.61 LIG 0.06  A 
ATOM     18  CD2 HIS F 314      41.174  55.850  -3.910  1.00 62.97 LIG 0.14  A 
ATOM     19 NE2  HIS F 314      40.663  56.072  -2.653  1.00 63.36 LIG-0.25  NA
ATOM     20  CE1 HIS F 314      39.353  56.222  -2.741  1.00 61.50 LIG 0.23  A 
ATOM     21 ND1  HIS F 314      39.005  56.101  -4.011  1.00 63.00 LIG-0.24  NA
ENDBRANCH 16 17
ENDBRANCH 15 16
BRANCH 15 22
ATOM     22  C   HIS F 314      40.536  53.338  -7.060  1.00 59.91 LIG 0.22  C 
ATOM     23 O    HIS F 314      40.964  53.240  -8.216  1.00 59.00 LIG-0.29  OA
ENDBRANCH 15 22
ENDBRANCH 13 15
ENDBRANCH 10 11
BRANCH 10 24
ATOM     24  CB  LYS F 313      38.258  51.763  -2.581  1.00 49.70 LIG 0.04  C 
BRANCH 24 25
ATOM     25  CG  LYS F 313      37.191  51.452  -1.541  1.00 49.89 LIG 0.00  C 
BRANCH 25 26
ATOM     26  CD  LYS F 313      36.410  50.191  -1.872  1.00 49.58 LIG 0.03  C 
BRANCH 26 27
ATOM     27  CE  LYS F 313      35.406  49.867  -0.774  1.00 48.23 LIG 0.23  C 
BRANCH 27 28
ATOM     28  NZ  LYS F 313      34.196  50.717  -0.877  1.00 47.83 LIG-0.08  N 
ATOM     29 HZ2  LYS F 313      33.949  50.982  -0.064  1.00 47.83 LIG 0.27  HD
ATOM     30 HZ1  LYS F 313      33.536  50.250  -1.250  1.00 47.83 LIG 0.27  HD
ATOM     31 HZ3  LYS F 313      34.375  51.429  -1.380  1.00 47.83 LIG 0.27  HD
ENDBRANCH 27 28
ENDBRANCH 26 27
ENDBRANCH 25 26
ENDBRANCH 24 25
ENDBRANCH 10 24
ENDBRANCH 7 10
ENDBRANCH 5 6
BRANCH 5 32
ATOM     32  CB  THR F 312      34.799  51.972  -7.024  1.00 41.09 LIG 0.15  C 
ATOM     33  CG2 THR F 312      36.207  52.496  -7.244  1.00 40.88 LIG 0.04  C 
BRANCH 32 34
ATOM     34 OG1  THR F 312      34.507  50.967  -8.001  1.00 43.07 LIG-0.39  OA
ATOM     35 HG1  THR F 312      33.760  50.621  -7.833  1.00 43.07 LIG 0.21  HD
ENDBRANCH 32 34
ENDBRANCH 5 32
ENDBRANCH 3 5
BRANCH 1 36
ATOM     36  CA  TYR F 311      31.351  51.074  -3.729  1.00 39.31 LIG 0.18  C 
BRANCH 36 37
ATOM     37  N   TYR F 311      30.553  51.333  -4.926  1.00 40.62 LIG-0.35  N 
ATOM     38 H    TYR F 311      30.749  50.838  -5.601  1.00 40.62 LIG 0.16  HD
ATOM     39  C   GLU F 310      29.606  52.267  -4.936  1.00 41.86 LIG 0.24  C 
ATOM     40 O    GLU F 310      29.422  53.019  -3.991  1.00 41.90 LIG-0.27  OA
BRANCH 39 41
ATOM     41  CA  GLU F 310      28.761  52.400  -6.201  1.00 43.14 LIG 0.18  C 
BRANCH 41 42
ATOM     42  CB  GLU F 310      27.733  51.266  -6.234  1.00 44.06 LIG 0.04  C 
BRANCH 42 43
ATOM     43  CG  GLU F 310      27.260  50.907  -7.634  1.00 45.60 LIG 0.12  C 
BRANCH 43 44
ATOM     44  CD  GLU F 310      26.724  52.098  -8.415  1.00 46.85 LIG 0.17  C 
ATOM     45 OE2  GLU F 310      25.670  52.633  -8.006  1.00 47.09 LIG-0.65  OA
ATOM     46 OE1  GLU F 310      27.335  52.489  -9.438  1.00 45.53 LIG-0.65  OA
ENDBRANCH 43 44
ENDBRANCH 42 43
ENDBRANCH 41 42
BRANCH 41 47
ATOM     47  N   GLU F 310      29.611  52.361  -7.402  1.00 43.23 LIG-0.35  N 
ATOM     48  C   VAL F 309      29.966  53.454  -8.088  1.00 44.16 LIG 0.26  C 
ATOM     49 O    VAL F 309      29.585  54.591  -7.804  1.00 43.83 LIG-0.27  OA
ATOM     50 H    GLU F 310      29.858  51.568  -7.623  1.00 43.23 LIG 0.16  HD
BRANCH 48 51
ATOM     51  CA  VAL F 309      30.901  53.237  -9.284  1.00 44.86 LIG 0.40  C 
ATOM     52  N   VAL F 309      32.262  52.862  -8.798  1.00 44.58 LIG 0.61  N 
BRANCH 51 53
ATOM     53  CB  VAL F 309      30.345  52.154 -10.254  1.00 44.54 LIG 0.03  C 
ATOM     54  CG2 VAL F 309      31.484  51.310 -10.813  1.00 44.44 LIG 0.01  C 
ATOM     55  CG1 VAL F 309      29.523  52.758 -11.390  1.00 43.50 LIG 0.01  C 
ENDBRANCH 51 53
ENDBRANCH 48 51
ENDBRANCH 41 47
ENDBRANCH 39 41
ENDBRANCH 36 37
BRANCH 36 56
ATOM     56  CB  TYR F 311      30.813  49.832  -3.011  1.00 38.48 LIG 0.07  C 
BRANCH 56 57
ATOM     57  CG  TYR F 311      29.713  49.133  -3.779  1.00 36.48 LIG-0.06  A 
ATOM     58  CD1 TYR F 311      30.013  48.255  -4.815  1.00 35.51 LIG 0.01  A 
ATOM     59  CE1 TYR F 311      29.012  47.613  -5.525  1.00 35.35 LIG 0.04  A 
ATOM     60  CZ  TYR F 311      27.694  47.856  -5.211  1.00 34.90 LIG 0.07  A 
ATOM     61  CE2 TYR F 311      27.362  48.726  -4.191  1.00 36.46 LIG 0.04  A 
ATOM     62  CD2 TYR F 311      28.369  49.366  -3.483  1.00 36.25 LIG 0.01  A 
BRANCH 60 63
ATOM     63 OH   TYR F 311      26.706  47.228  -5.917  1.00 38.07 LIG-0.36  OA
ATOM     64 HH   TYR F 311      27.008  46.976  -6.659  1.00 38.07 LIG 0.22  HD
ENDBRANCH 60 63
ENDBRANCH 56 57
ENDBRANCH 36 56
ENDBRANCH 1 36
TORSDOF 27
ENDMDL
MODEL 11
USER: ADFR SOLUTION from run 80
USER: SCORE 20.296843 LL:  -6.388 LR: -15.203 RR:   0.000 FEB:  -7.149
USER: RMSD 11.391588
USER: SEED 79
USER: STATUS no improvement in best in 8 clusters for 5 generations
USER: GENES 29
USER: genes 0 Translation |==|  0.39427 0.44227 0.46131
USER: genes 1 Rotation |==|  0.74444 0.07390 0.59285 0.50785
USER: genes 2 Torsion [C]-N--CA-[C] |==|  0.83041
USER: genes 3 Torsion [N]-CA--C-[N] |==|  0.42747
USER: genes 4 Torsion [C]-N--CA-[C] |==|  0.62757
USER: genes 5 Torsion [N]-CA--C-[N] |==|  0.86365
USER: genes 6 Torsion [C]-N--CA-[CB] |==|  0.45355
USER: genes 7 Torsion [N]-CA--CB-[CG] |==|  0.81536
USER: genes 8 Torsion [CA]-CB--CG-[CD2] |==|  0.54859
USER: genes 9 Torsion [N]-CA--C-[O] |==|  0.98536
USER: genes 10 Torsion [N]-CA--CB-[CG] |==|  0.15307
USER: genes 11 Torsion [CA]-CB--CG-[CD] |==|  0.79053
USER: genes 12 Torsion [CB]-CG--CD-[CE] |==|  0.85958
USER: genes 13 Torsion [CG]-CD--CE-[NZ] |==|  0.50509
USER: genes 14 Torsion [CD]-CE--NZ-[HZ2] |==|  0.49710
USER: genes 15 Torsion [N]-CA--CB-[CG2] |==|  0.47807
USER: genes 16 Torsion [CA]-CB--OG1-[HG1] |==|  0.18175
USER: genes 17 Torsion [N]-C--CA-[N] |==|  0.97800
USER: genes 18 Torsion [C]-CA--N-[C] |==|  0.73069
USER: genes 19 Torsion [N]-C--CA-[N] |==|  0.94775
USER: genes 20 Torsion [C]-CA--CB-[CG] |==|  0.77629
USER: genes 21 Torsion [CA]-CB--CG-[CD] |==|  0.75118
USER: genes 22 Torsion [CB]-CG--CD-[OE2] |==|  0.52947
USER: genes 23 Torsion [C]-CA--N-[C] |==|  0.60000
USER: genes 24 Torsion [N]-C--CA-[N] |==|  0.22551
USER: genes 25 Torsion [C]-CA--CB-[CG2] |==|  0.71324
USER: genes 26 Torsion [C]-CA--CB-[CG] |==|  0.56324
USER: genes 27 Torsion [CA]-CB--CG-[CD1] |==|  0.31705
USER: genes 28 Torsion [CE1]-CZ--OH-[HH] |==|  0.78277
ROOT
ATOM      1  C   TYR F 311      33.074  50.986  -4.064  1.00 39.57 LIG 0.24  C 
ATOM      2 O    TYR F 311      33.831  50.673  -3.142  1.00 35.87 LIG-0.27  OA
ATOM      3  N   THR F 312      33.494  51.405  -5.256  1.00 39.28 LIG-0.34  N 
ATOM      4 H    THR F 312      32.960  51.584  -5.905  1.00 39.28 LIG 0.16  HD
ENDROOT
BRANCH 3 5
ATOM      5  CA  THR F 312      34.899  51.606  -5.587  1.00 41.67 LIG 0.20  C 
BRANCH 5 6
ATOM      6  C   THR F 312      35.522  52.664  -4.688  1.00 45.40 LIG 0.24  C 
ATOM      7  N   LYS F 313      36.828  52.570  -4.502  1.00 48.10 LIG-0.35  N 
ATOM      8 H    LYS F 313      37.307  51.918  -4.791  1.00 48.10 LIG 0.16  HD
ATOM      9 O    THR F 312      34.842  53.564  -4.201  1.00 48.99 LIG-0.27  OA
BRANCH 7 10
ATOM     10  CA  LYS F 313      37.577  53.586  -3.777  1.00 51.61 LIG 0.18  C 
BRANCH 10 11
ATOM     11  C   LYS F 313      38.852  53.936  -4.556  1.00 54.92 LIG 0.24  C 
ATOM     12 O    LYS F 313      39.156  55.115  -4.765  1.00 54.36 LIG-0.27  OA
ATOM     13  N   HIS F 314      39.586  52.895  -4.961  1.00 57.06 LIG-0.35  N 
ATOM     14 H    HIS F 314      39.354  52.079  -4.818  1.00 57.06 LIG 0.16  HD
BRANCH 13 15
ATOM     15  CA  HIS F 314      40.859  53.017  -5.690  1.00 57.78 LIG 0.17  C 
BRANCH 15 16
ATOM     16  CB  HIS F 314      41.651  51.701  -5.650  1.00 57.79 LIG 0.09  C 
BRANCH 16 17
ATOM     17  CG  HIS F 314      42.134  51.323  -4.283  1.00 61.61 LIG 0.06  A 
ATOM     18  CD2 HIS F 314      43.090  50.451  -3.883  1.00 62.97 LIG 0.14  A 
ATOM     19 NE2  HIS F 314      43.129  50.491  -2.509  1.00 63.36 LIG-0.25  NA
ATOM     20  CE1 HIS F 314      42.230  51.359  -2.078  1.00 61.50 LIG 0.23  A 
ATOM     21 ND1  HIS F 314      41.615  51.876  -3.128  1.00 63.00 LIG-0.24  NA
ENDBRANCH 16 17
ENDBRANCH 15 16
BRANCH 15 22
ATOM     22  C   HIS F 314      40.661  53.477  -7.139  1.00 59.91 LIG 0.22  C 
ATOM     23 O    HIS F 314      39.528  53.612  -7.615  1.00 59.00 LIG-0.29  OA
ENDBRANCH 15 22
ENDBRANCH 13 15
ENDBRANCH 10 11
BRANCH 10 24
ATOM     24  CB  LYS F 313      37.903  53.108  -2.358  1.00 49.70 LIG 0.04  C 
BRANCH 24 25
ATOM     25  CG  LYS F 313      38.637  51.776  -2.327  1.00 49.89 LIG 0.00  C 
BRANCH 25 26
ATOM     26  CD  LYS F 313      37.717  50.600  -2.616  1.00 49.58 LIG 0.03  C 
BRANCH 26 27
ATOM     27  CE  LYS F 313      36.475  50.652  -1.739  1.00 48.23 LIG 0.23  C 
BRANCH 27 28
ATOM     28  NZ  LYS F 313      35.590  49.487  -1.981  1.00 47.83 LIG-0.08  N 
ATOM     29 HZ2  LYS F 313      34.881  49.536  -1.445  1.00 47.83 LIG 0.27  HD
ATOM     30 HZ1  LYS F 313      36.037  48.736  -1.814  1.00 47.83 LIG 0.27  HD
ATOM     31 HZ3  LYS F 313      35.321  49.490  -2.829  1.00 47.83 LIG 0.27  HD
ENDBRANCH 27 28
ENDBRANCH 26 27
ENDBRANCH 25 26
ENDBRANCH 24 25
ENDBRANCH 10 24
ENDBRANCH 7 10
ENDBRANCH 5 6
BRANCH 5 32
ATOM     32  CB  THR F 312      35.062  52.110  -7.032  1.00 41.09 LIG 0.15  C 
ATOM     33  CG2 THR F 312      36.500  52.503  -7.319  1.00 40.88 LIG 0.04  C 
BRANCH 32 34
ATOM     34 OG1  THR F 312      34.664  51.071  -7.934  1.00 43.07 LIG-0.39  OA
ATOM     35 HG1  THR F 312      33.843  50.921  -7.844  1.00 43.07 LIG 0.21  HD
ENDBRANCH 32 34
ENDBRANCH 5 32
ENDBRANCH 3 5
BRANCH 1 36
ATOM     36  CA  TYR F 311      31.554  50.943  -3.890  1.00 39.31 LIG 0.18  C 
BRANCH 36 37
ATOM     37  N   TYR F 311      30.833  51.546  -5.010  1.00 40.62 LIG-0.35  N 
ATOM     38 H    TYR F 311      30.718  51.025  -5.684  1.00 40.62 LIG 0.16  HD
ATOM     39  C   GLU F 310      30.404  52.804  -4.957  1.00 41.86 LIG 0.24  C 
ATOM     40 O    GLU F 310      30.672  53.546  -4.024  1.00 41.90 LIG-0.27  OA
BRANCH 39 41
ATOM     41  CA  GLU F 310      29.577  53.316  -6.135  1.00 43.14 LIG 0.18  C 
BRANCH 41 42
ATOM     42  CB  GLU F 310      28.100  53.342  -5.733  1.00 44.06 LIG 0.04  C 
BRANCH 42 43
ATOM     43  CG  GLU F 310      27.416  51.988  -5.821  1.00 45.60 LIG 0.12  C 
BRANCH 43 44
ATOM     44  CD  GLU F 310      26.798  51.711  -7.184  1.00 46.85 LIG 0.17  C 
ATOM     45 OE2  GLU F 310      26.044  50.718  -7.288  1.00 47.09 LIG-0.65  OA
ATOM     46 OE1  GLU F 310      27.072  52.464  -8.149  1.00 45.53 LIG-0.65  OA
ENDBRANCH 43 44
ENDBRANCH 42 43
ENDBRANCH 41 42
BRANCH 41 47
ATOM     47  N   GLU F 310      29.775  52.465  -7.319  1.00 43.23 LIG-0.35  N 
ATOM     48  C   VAL F 309      29.807  52.940  -8.569  1.00 44.16 LIG 0.26  C 
ATOM     49 O    VAL F 309      29.636  54.128  -8.853  1.00 43.83 LIG-0.27  OA
ATOM     50 H    GLU F 310      29.867  51.631  -7.132  1.00 43.23 LIG 0.16  HD
BRANCH 48 51
ATOM     51  CA  VAL F 309      30.077  51.920  -9.682  1.00 44.86 LIG 0.40  C 
ATOM     52  N   VAL F 309      28.813  51.201 -10.023  1.00 44.58 LIG 0.61  N 
BRANCH 51 53
ATOM     53  CB  VAL F 309      30.682  52.600 -10.945  1.00 44.54 LIG 0.03  C 
ATOM     54  CG2 VAL F 309      29.617  52.749 -12.026  1.00 44.44 LIG 0.01  C 
ATOM     55  CG1 VAL F 309      31.892  51.844 -11.490  1.00 43.50 LIG 0.01  C 
ENDBRANCH 51 53
ENDBRANCH 48 51
ENDBRANCH 41 47
ENDBRANCH 39 41
ENDBRANCH 36 37
BRANCH 36 56
ATOM     56  CB  TYR F 311      31.117  49.484  -3.722  1.00 38.48 LIG 0.07  C 
BRANCH 56 57
ATOM     57  CG  TYR F 311      29.666  49.255  -4.085  1.00 36.48 LIG-0.06  A 
ATOM     58  CD1 TYR F 311      29.319  48.468  -5.178  1.00 35.51 LIG 0.01  A 
ATOM     59  CE1 TYR F 311      27.993  48.256  -5.518  1.00 35.35 LIG 0.04  A 
ATOM     60  CZ  TYR F 311      26.998  48.844  -4.771  1.00 34.90 LIG 0.07  A 
ATOM     61  CE2 TYR F 311      27.309  49.635  -3.682  1.00 36.46 LIG 0.04  A 
ATOM     62  CD2 TYR F 311      28.638  49.844  -3.346  1.00 36.25 LIG 0.01  A 
BRANCH 60 63
ATOM     63 OH   TYR F 311      25.690  48.640  -5.112  1.00 38.07 LIG-0.36  OA
ATOM     64 HH   TYR F 311      25.491  49.129  -5.766  1.00 38.07 LIG 0.22  HD
ENDBRANCH 60 63
ENDBRANCH 56 57
ENDBRANCH 36 56
ENDBRANCH 1 36
TORSDOF 27
ENDMDL
MODEL 12
USER: ADFR SOLUTION from run 1
USER: SCORE 19.984932 LL:  -6.009 LR: -15.119 RR:   0.000 FEB:  -7.065
USER: RMSD 8.875570
USER: SEED 151670
USER: STATUS no improvement in best in 11 clusters for 5 generations
USER: GENES 29
USER: genes 0 Translation |==|  0.41342 0.50196 0.42181
USER: genes 1 Rotation |==|  0.51125 0.91129 0.60505 0.76396
USER: genes 2 Torsion [C]-N--CA-[C] |==|  0.82198
USER: genes 3 Torsion [N]-CA--C-[N] |==|  0.94326
USER: genes 4 Torsion [C]-N--CA-[C] |==|  0.65692
USER: genes 5 Torsion [N]-CA--C-[N] |==|  0.21886
USER: genes 6 Torsion [C]-N--CA-[CB] |==|  0.31379
USER: genes 7 Torsion [N]-CA--CB-[CG] |==|  0.43045
USER: genes 8 Torsion [CA]-CB--CG-[CD2] |==|  0.73724
USER: genes 9 Torsion [N]-CA--C-[O] |==|  0.80567
USER: genes 10 Torsion [N]-CA--CB-[CG] |==|  0.91206
USER: genes 11 Torsion [CA]-CB--CG-[CD] |==|  0.78820
USER: genes 12 Torsion [CB]-CG--CD-[CE] |==|  0.94209
USER: genes 13 Torsion [CG]-CD--CE-[NZ] |==|  0.25166
USER: genes 14 Torsion [CD]-CE--NZ-[HZ2] |==|  0.96295
USER: genes 15 Torsion [N]-CA--CB-[CG2] |==|  0.45459
USER: genes 16 Torsion [CA]-CB--OG1-[HG1] |==|  0.68540
USER: genes 17 Torsion [N]-C--CA-[N] |==|  0.43907
USER: genes 18 Torsion [C]-CA--N-[C] |==|  0.55266
USER: genes 19 Torsion [N]-C--CA-[N] |==|  0.82045
USER: genes 20 Torsion [C]-CA--CB-[CG] |==|  0.16884
USER: genes 21 Torsion [CA]-CB--CG-[CD] |==|  0.15972
USER: genes 22 Torsion [CB]-CG--CD-[OE2] |==|  0.79831
USER: genes 23 Torsion [C]-CA--N-[C] |==|  0.67232
USER: genes 24 Torsion [N]-C--CA-[N] |==|  0.92856
USER: genes 25 Torsion [C]-CA--CB-[CG2] |==|  0.23558
USER: genes 26 Torsion [C]-CA--CB-[CG] |==|  0.17570
USER: genes 27 Torsion [CA]-CB--CG-[CD1] |==|  0.60234
USER: genes 28 Torsion [CE1]-CZ--OH-[HH] |==|  0.71201
ROOT
ATOM      1  C   TYR F 311      33.605  52.150  -4.835  1.00 39.57 LIG 0.24  C 
ATOM      2 O    TYR F 311      33.216  50.999  -5.048  1.00 35.87 LIG-0.27  OA
ATOM      3  N   THR F 312      34.837  52.451  -4.430  1.00 39.28 LIG-0.34  N 
ATOM      4 H    THR F 312      35.111  53.259  -4.322  1.00 39.28 LIG 0.16  HD
ENDROOT
BRANCH 3 5
ATOM      5  CA  THR F 312      35.850  51.449  -4.126  1.00 41.67 LIG 0.20  C 
BRANCH 5 6
ATOM      6  C   THR F 312      35.430  50.597  -2.937  1.00 45.40 LIG 0.24  C 
ATOM      7  N   LYS F 313      34.511  51.122  -2.144  1.00 48.10 LIG-0.35  N 
ATOM      8 H    LYS F 313      34.212  51.924  -2.224  1.00 48.10 LIG 0.16  HD
ATOM      9 O    THR F 312      35.902  49.476  -2.760  1.00 48.99 LIG-0.27  OA
BRANCH 7 10
ATOM     10  CA  LYS F 313      33.918  50.369  -1.048  1.00 51.61 LIG 0.18  C 
BRANCH 10 11
ATOM     11  C   LYS F 313      32.394  50.338  -1.213  1.00 54.92 LIG 0.24  C 
ATOM     12 O    LYS F 313      31.675  51.098  -0.555  1.00 54.36 LIG-0.27  OA
ATOM     13  N   HIS F 314      31.926  49.459  -2.105  1.00 57.06 LIG-0.35  N 
ATOM     14 H    HIS F 314      32.439  48.928  -2.547  1.00 57.06 LIG 0.16  HD
BRANCH 13 15
ATOM     15  CA  HIS F 314      30.501  49.297  -2.436  1.00 57.78 LIG 0.17  C 
BRANCH 15 16
ATOM     16  CB  HIS F 314      30.212  49.739  -3.879  1.00 57.79 LIG 0.09  C 
BRANCH 16 17
ATOM     17  CG  HIS F 314      29.004  49.090  -4.483  1.00 61.61 LIG 0.06  A 
ATOM     18  CD2 HIS F 314      28.877  47.987  -5.260  1.00 62.97 LIG 0.14  A 
ATOM     19 NE2  HIS F 314      27.538  47.836  -5.536  1.00 63.36 LIG-0.25  NA
ATOM     20  CE1 HIS F 314      26.865  48.809  -4.948  1.00 61.50 LIG 0.23  A 
ATOM     21 ND1  HIS F 314      27.725  49.581  -4.306  1.00 63.00 LIG-0.24  NA
ENDBRANCH 16 17
ENDBRANCH 15 16
BRANCH 15 22
ATOM     22  C   HIS F 314      30.008  47.864  -2.207  1.00 59.91 LIG 0.22  C 
ATOM     23 O    HIS F 314      30.379  46.938  -2.938  1.00 59.00 LIG-0.29  OA
ENDBRANCH 15 22
ENDBRANCH 13 15
ENDBRANCH 10 11
BRANCH 10 24
ATOM     24  CB  LYS F 313      34.322  50.971   0.302  1.00 49.70 LIG 0.04  C 
BRANCH 24 25
ATOM     25  CG  LYS F 313      35.706  51.604   0.288  1.00 49.89 LIG 0.00  C 
BRANCH 25 26
ATOM     26  CD  LYS F 313      36.818  50.568   0.328  1.00 49.58 LIG 0.03  C 
BRANCH 26 27
ATOM     27  CE  LYS F 313      36.308  49.243   0.876  1.00 48.23 LIG 0.23  C 
BRANCH 27 28
ATOM     28  NZ  LYS F 313      35.811  48.362  -0.208  1.00 47.83 LIG-0.08  N 
ATOM     29 HZ2  LYS F 313      35.720  48.835  -0.956  1.00 47.83 LIG 0.27  HD
ATOM     30 HZ1  LYS F 313      35.022  48.021   0.025  1.00 47.83 LIG 0.27  HD
ATOM     31 HZ3  LYS F 313      36.391  47.701  -0.343  1.00 47.83 LIG 0.27  HD
ENDBRANCH 27 28
ENDBRANCH 26 27
ENDBRANCH 25 26
ENDBRANCH 24 25
ENDBRANCH 10 24
ENDBRANCH 7 10
ENDBRANCH 5 6
BRANCH 5 32
ATOM     32  CB  THR F 312      37.186  52.108  -3.741  1.00 41.09 LIG 0.15  C 
ATOM     33  CG2 THR F 312      38.108  51.120  -3.048  1.00 40.88 LIG 0.04  C 
BRANCH 32 34
ATOM     34 OG1  THR F 312      37.820  52.601  -4.926  1.00 43.07 LIG-0.39  OA
ATOM     35 HG1  THR F 312      38.523  52.164  -5.071  1.00 43.07 LIG 0.21  HD
ENDBRANCH 32 34
ENDBRANCH 5 32
ENDBRANCH 3 5
BRANCH 1 36
ATOM     36  CA  TYR F 311      32.665  53.346  -4.998  1.00 39.31 LIG 0.18  C 
BRANCH 36 37
ATOM     37  N   TYR F 311      31.543  53.073  -5.894  1.00 40.62 LIG-0.35  N 
ATOM     38 H    TYR F 311      31.384  52.238  -6.024  1.00 40.62 LIG 0.16  HD
ATOM     39  C   GLU F 310      30.846  54.060  -6.449  1.00 41.86 LIG 0.24  C 
ATOM     40 O    GLU F 310      31.162  55.234  -6.322  1.00 41.90 LIG-0.27  OA
BRANCH 39 41
ATOM     41  CA  GLU F 310      29.633  53.678  -7.295  1.00 43.14 LIG 0.18  C 
BRANCH 41 42
ATOM     42  CB  GLU F 310      28.670  52.849  -6.439  1.00 44.06 LIG 0.04  C 
BRANCH 42 43
ATOM     43  CG  GLU F 310      28.144  53.586  -5.219  1.00 45.60 LIG 0.12  C 
BRANCH 43 44
ATOM     44  CD  GLU F 310      27.427  54.884  -5.560  1.00 46.85 LIG 0.17  C 
ATOM     45 OE2  GLU F 310      28.125  55.852  -5.935  1.00 47.09 LIG-0.65  OA
ATOM     46 OE1  GLU F 310      26.180  54.949  -5.439  1.00 45.53 LIG-0.65  OA
ENDBRANCH 43 44
ENDBRANCH 42 43
ENDBRANCH 41 42
BRANCH 41 47
ATOM     47  N   GLU F 310      30.046  52.920  -8.486  1.00 43.23 LIG-0.35  N 
ATOM     48  C   VAL F 309      29.840  53.346  -9.738  1.00 44.16 LIG 0.26  C 
ATOM     49 O    VAL F 309      29.248  54.392 -10.014  1.00 43.83 LIG-0.27  OA
ATOM     50 H    GLU F 310      30.435  52.175  -8.303  1.00 43.23 LIG 0.16  HD
BRANCH 48 51
ATOM     51  CA  VAL F 309      30.384  52.456 -10.862  1.00 44.86 LIG 0.40  C 
ATOM     52  N   VAL F 309      31.535  51.651 -10.355  1.00 44.58 LIG 0.61  N 
BRANCH 51 53
ATOM     53  CB  VAL F 309      29.277  51.529 -11.444  1.00 44.54 LIG 0.03  C 
ATOM     54  CG2 VAL F 309      28.479  52.266 -12.513  1.00 44.44 LIG 0.01  C 
ATOM     55  CG1 VAL F 309      28.345  50.987 -10.362  1.00 43.50 LIG 0.01  C 
ENDBRANCH 51 53
ENDBRANCH 48 51
ENDBRANCH 41 47
ENDBRANCH 39 41
ENDBRANCH 36 37
BRANCH 36 56
ATOM     56  CB  TYR F 311      32.135  53.751  -3.618  1.00 38.48 LIG 0.07  C 
BRANCH 56 57
ATOM     57  CG  TYR F 311      33.224  54.222  -2.680  1.00 36.48 LIG-0.06  A 
ATOM     58  CD1 TYR F 311      33.176  53.920  -1.323  1.00 35.51 LIG 0.01  A 
ATOM     59  CE1 TYR F 311      34.169  54.350  -0.456  1.00 35.35 LIG 0.04  A 
ATOM     60  CZ  TYR F 311      35.215  55.100  -0.941  1.00 34.90 LIG 0.07  A 
ATOM     61  CE2 TYR F 311      35.290  55.421  -2.282  1.00 36.46 LIG 0.04  A 
ATOM     62  CD2 TYR F 311      34.294  54.989  -3.146  1.00 36.25 LIG 0.01  A 
BRANCH 60 63
ATOM     63 OH   TYR F 311      36.190  55.531  -0.084  1.00 38.07 LIG-0.36  OA
ATOM     64 HH   TYR F 311      36.077  56.347   0.082  1.00 38.07 LIG 0.22  HD
ENDBRANCH 60 63
ENDBRANCH 56 57
ENDBRANCH 36 56
ENDBRANCH 1 36
TORSDOF 27
ENDMDL
MODEL 13
USER: ADFR SOLUTION from run 141
USER: SCORE 20.370123 LL:  -6.084 LR: -15.013 RR:   0.000 FEB:  -6.958
USER: RMSD 10.119390
USER: SEED 140
USER: STATUS searching
USER: GENES 29
USER: genes 0 Translation |==|  0.39968 0.44300 0.45914
USER: genes 1 Rotation |==|  0.72367 0.06037 0.56949 0.54329
USER: genes 2 Torsion [C]-N--CA-[C] |==|  0.84196
USER: genes 3 Torsion [N]-CA--C-[N] |==|  0.38757
USER: genes 4 Torsion [C]-N--CA-[C] |==|  0.15190
USER: genes 5 Torsion [N]-CA--C-[N] |==|  0.10556
USER: genes 6 Torsion [C]-N--CA-[CB] |==|  0.29026
USER: genes 7 Torsion [N]-CA--CB-[CG] |==|  0.83340
USER: genes 8 Torsion [CA]-CB--CG-[CD2] |==|  0.89092
USER: genes 9 Torsion [N]-CA--C-[O] |==|  0.89611
USER: genes 10 Torsion [N]-CA--CB-[CG] |==|  0.83688
USER: genes 11 Torsion [CA]-CB--CG-[CD] |==|  0.48926
USER: genes 12 Torsion [CB]-CG--CD-[CE] |==|  0.40358
USER: genes 13 Torsion [CG]-CD--CE-[NZ] |==|  0.42587
USER: genes 14 Torsion [CD]-CE--NZ-[HZ2] |==|  0.05284
USER: genes 15 Torsion [N]-CA--CB-[CG2] |==|  0.48816
USER: genes 16 Torsion [CA]-CB--OG1-[HG1] |==|  0.12450
USER: genes 17 Torsion [N]-C--CA-[N] |==|  0.02827
USER: genes 18 Torsion [C]-CA--N-[C] |==|  0.63621
USER: genes 19 Torsion [N]-C--CA-[N] |==|  0.88186
USER: genes 20 Torsion [C]-CA--CB-[CG] |==|  0.60464
USER: genes 21 Torsion [CA]-CB--CG-[CD] |==|  0.80643
USER: genes 22 Torsion [CB]-CG--CD-[OE2] |==|  0.31217
USER: genes 23 Torsion [C]-CA--N-[C] |==|  0.69022
USER: genes 24 Torsion [N]-C--CA-[N] |==|  0.81781
USER: genes 25 Torsion [C]-CA--CB-[CG2] |==|  0.59594
USER: genes 26 Torsion [C]-CA--CB-[CG] |==|  0.64573
USER: genes 27 Torsion [CA]-CB--CG-[CD1] |==|  0.74407
USER: genes 28 Torsion [CE1]-CZ--OH-[HH] |==|  0.48608
ROOT
ATOM      1  C   TYR F 311      33.224  51.001  -4.107  1.00 39.57 LIG 0.24  C 
ATOM      2 O    TYR F 311      34.064  50.570  -3.312  1.00 35.87 LIG-0.27  OA
ATOM      3  N   THR F 312      33.512  51.398  -5.344  1.00 39.28 LIG-0.34  N 
ATOM      4 H    THR F 312      32.914  51.659  -5.903  1.00 39.28 LIG 0.16  HD
ENDROOT
BRANCH 3 5
ATOM      5  CA  THR F 312      34.867  51.434  -5.881  1.00 41.67 LIG 0.20  C 
BRANCH 5 6
ATOM      6  C   THR F 312      35.769  52.301  -5.017  1.00 45.40 LIG 0.24  C 
ATOM      7  N   LYS F 313      36.993  51.842  -4.815  1.00 48.10 LIG-0.35  N 
ATOM      8 H    LYS F 313      37.263  51.068  -5.074  1.00 48.10 LIG 0.16  HD
ATOM      9 O    THR F 312      35.380  53.378  -4.570  1.00 48.99 LIG-0.27  OA
BRANCH 7 10
ATOM     10  CA  LYS F 313      38.005  52.625  -4.121  1.00 51.61 LIG 0.18  C 
BRANCH 10 11
ATOM     11  C   LYS F 313      37.469  53.059  -2.751  1.00 54.92 LIG 0.24  C 
ATOM     12 O    LYS F 313      37.722  54.183  -2.304  1.00 54.36 LIG-0.27  OA
ATOM     13  N   HIS F 314      36.721  52.155  -2.111  1.00 57.06 LIG-0.35  N 
ATOM     14 H    HIS F 314      36.564  51.372  -2.430  1.00 57.06 LIG 0.16  HD
BRANCH 13 15
ATOM     15  CA  HIS F 314      36.084  52.386  -0.804  1.00 57.78 LIG 0.17  C 
BRANCH 15 16
ATOM     16  CB  HIS F 314      34.575  52.628  -0.956  1.00 57.79 LIG 0.09  C 
BRANCH 16 17
ATOM     17  CG  HIS F 314      34.232  53.814  -1.805  1.00 61.61 LIG 0.06  A 
ATOM     18  CD2 HIS F 314      34.803  55.039  -1.901  1.00 62.97 LIG 0.14  A 
ATOM     19 NE2  HIS F 314      34.090  55.748  -2.839  1.00 63.36 LIG-0.25  NA
ATOM     20  CE1 HIS F 314      33.116  54.987  -3.305  1.00 61.50 LIG 0.23  A 
ATOM     21 ND1  HIS F 314      33.178  53.814  -2.698  1.00 63.00 LIG-0.24  NA
ENDBRANCH 16 17
ENDBRANCH 15 16
BRANCH 15 22
ATOM     22  C   HIS F 314      36.346  51.243   0.183  1.00 59.91 LIG 0.22  C 
ATOM     23 O    HIS F 314      36.375  50.067  -0.197  1.00 59.00 LIG-0.29  OA
ENDBRANCH 15 22
ENDBRANCH 13 15
ENDBRANCH 10 11
BRANCH 10 24
ATOM     24  CB  LYS F 313      38.425  53.835  -4.964  1.00 49.70 LIG 0.04  C 
BRANCH 24 25
ATOM     25  CG  LYS F 313      38.984  53.451  -6.327  1.00 49.89 LIG 0.00  C 
BRANCH 25 26
ATOM     26  CD  LYS F 313      39.307  54.665  -7.183  1.00 49.58 LIG 0.03  C 
BRANCH 26 27
ATOM     27  CE  LYS F 313      40.534  54.412  -8.047  1.00 48.23 LIG 0.23  C 
BRANCH 27 28
ATOM     28  NZ  LYS F 313      40.508  55.233  -9.281  1.00 47.83 LIG-0.08  N 
ATOM     29 HZ2  LYS F 313      39.943  55.913  -9.174  1.00 47.83 LIG 0.27  HD
ATOM     30 HZ1  LYS F 313      40.242  54.732  -9.967  1.00 47.83 LIG 0.27  HD
ATOM     31 HZ3  LYS F 313      41.324  55.550  -9.445  1.00 47.83 LIG 0.27  HD
ENDBRANCH 27 28
ENDBRANCH 26 27
ENDBRANCH 25 26
ENDBRANCH 24 25
ENDBRANCH 10 24
ENDBRANCH 7 10
ENDBRANCH 5 6
BRANCH 5 32
ATOM     32  CB  THR F 312      34.888  52.050  -7.291  1.00 41.09 LIG 0.15  C 
ATOM     33  CG2 THR F 312      36.308  52.185  -7.811  1.00 40.88 LIG 0.04  C 
BRANCH 32 34
ATOM     34 OG1  THR F 312      34.135  51.214  -8.175  1.00 43.07 LIG-0.39  OA
ATOM     35 HG1  THR F 312      33.415  50.989  -7.804  1.00 43.07 LIG 0.21  HD
ENDBRANCH 32 34
ENDBRANCH 5 32
ENDBRANCH 3 5
BRANCH 1 36
ATOM     36  CA  TYR F 311      31.754  51.139  -3.706  1.00 39.31 LIG 0.18  C 
BRANCH 36 37
ATOM     37  N   TYR F 311      30.882  51.465  -4.834  1.00 40.62 LIG-0.35  N 
ATOM     38 H    TYR F 311      30.992  50.966  -5.526  1.00 40.62 LIG 0.16  HD
ATOM     39  C   GLU F 310      30.001  52.458  -4.762  1.00 41.86 LIG 0.24  C 
ATOM     40 O    GLU F 310      29.940  53.208  -3.799  1.00 41.90 LIG-0.27  OA
BRANCH 39 41
ATOM     41  CA  GLU F 310      29.069  52.661  -5.955  1.00 43.14 LIG 0.18  C 
BRANCH 41 42
ATOM     42  CB  GLU F 310      27.934  51.635  -5.880  1.00 44.06 LIG 0.04  C 
BRANCH 42 43
ATOM     43  CG  GLU F 310      27.514  51.086  -7.234  1.00 45.60 LIG 0.12  C 
BRANCH 43 44
ATOM     44  CD  GLU F 310      26.801  52.110  -8.106  1.00 46.85 LIG 0.17  C 
ATOM     45 OE2  GLU F 310      27.387  52.500  -9.140  1.00 47.09 LIG-0.65  OA
ATOM     46 OE1  GLU F 310      25.674  52.537  -7.757  1.00 45.53 LIG-0.65  OA
ENDBRANCH 43 44
ENDBRANCH 42 43
ENDBRANCH 41 42
BRANCH 41 47
ATOM     47  N   GLU F 310      29.806  52.524  -7.221  1.00 43.23 LIG-0.35  N 
ATOM     48  C   VAL F 309      30.037  53.547  -8.052  1.00 44.16 LIG 0.26  C 
ATOM     49 O    VAL F 309      29.622  54.692  -7.857  1.00 43.83 LIG-0.27  OA
ATOM     50 H    GLU F 310      30.075  51.723  -7.378  1.00 43.23 LIG 0.16  HD
BRANCH 48 51
ATOM     51  CA  VAL F 309      30.869  53.238  -9.303  1.00 44.86 LIG 0.40  C 
ATOM     52  N   VAL F 309      32.258  52.862  -8.903  1.00 44.58 LIG 0.61  N 
BRANCH 51 53
ATOM     53  CB  VAL F 309      30.218  52.112 -10.158  1.00 44.54 LIG 0.03  C 
ATOM     54  CG2 VAL F 309      31.295  51.253 -10.810  1.00 44.44 LIG 0.01  C 
ATOM     55  CG1 VAL F 309      29.263  52.663 -11.214  1.00 43.50 LIG 0.01  C 
ENDBRANCH 51 53
ENDBRANCH 48 51
ENDBRANCH 41 47
ENDBRANCH 39 41
ENDBRANCH 36 37
BRANCH 36 56
ATOM     56  CB  TYR F 311      31.291  49.830  -3.059  1.00 38.48 LIG 0.07  C 
BRANCH 56 57
ATOM     57  CG  TYR F 311      30.033  49.271  -3.686  1.00 36.48 LIG-0.06  A 
ATOM     58  CD1 TYR F 311      28.778  49.592  -3.176  1.00 35.51 LIG 0.01  A 
ATOM     59  CE1 TYR F 311      27.622  49.082  -3.743  1.00 35.35 LIG 0.04  A 
ATOM     60  CZ  TYR F 311      27.711  48.233  -4.822  1.00 34.90 LIG 0.07  A 
ATOM     61  CE2 TYR F 311      28.941  47.891  -5.349  1.00 36.46 LIG 0.04  A 
ATOM     62  CD2 TYR F 311      30.097  48.404  -4.778  1.00 36.25 LIG 0.01  A 
BRANCH 60 63
ATOM     63 OH   TYR F 311      26.570  47.724  -5.376  1.00 38.07 LIG-0.36  OA
ATOM     64 HH   TYR F 311      26.764  47.280  -6.062  1.00 38.07 LIG 0.22  HD
ENDBRANCH 60 63
ENDBRANCH 56 57
ENDBRANCH 36 56
ENDBRANCH 1 36
TORSDOF 27
ENDMDL
MODEL 14
USER: ADFR SOLUTION from run 70
USER: SCORE 19.973267 LL:  -5.312 LR: -14.997 RR:   0.000 FEB:  -6.943
USER: RMSD 9.020996
USER: SEED 69
USER: STATUS no improvement in best in 4 clusters for 5 generations
USER: GENES 29
USER: genes 0 Translation |==|  0.33495 0.45073 0.48126
USER: genes 1 Rotation |==|  0.15059 0.22236 0.72220 0.53817
USER: genes 2 Torsion [C]-N--CA-[C] |==|  0.83937
USER: genes 3 Torsion [N]-CA--C-[N] |==|  0.39531
USER: genes 4 Torsion [C]-N--CA-[C] |==|  0.16495
USER: genes 5 Torsion [N]-CA--C-[N] |==|  0.12008
USER: genes 6 Torsion [C]-N--CA-[CB] |==|  0.30299
USER: genes 7 Torsion [N]-CA--CB-[CG] |==|  0.72519
USER: genes 8 Torsion [CA]-CB--CG-[CD2] |==|  0.69026
USER: genes 9 Torsion [N]-CA--C-[O] |==|  0.38576
USER: genes 10 Torsion [N]-CA--CB-[CG] |==|  0.59780
USER: genes 11 Torsion [CA]-CB--CG-[CD] |==|  0.22519
USER: genes 12 Torsion [CB]-CG--CD-[CE] |==|  0.59843
USER: genes 13 Torsion [CG]-CD--CE-[NZ] |==|  0.83249
USER: genes 14 Torsion [CD]-CE--NZ-[HZ2] |==|  0.58604
USER: genes 15 Torsion [N]-CA--CB-[CG2] |==|  0.87306
USER: genes 16 Torsion [CA]-CB--OG1-[HG1] |==|  0.49026
USER: genes 17 Torsion [N]-C--CA-[N] |==|  0.33474
USER: genes 18 Torsion [C]-CA--N-[C] |==|  0.85000
USER: genes 19 Torsion [N]-C--CA-[N] |==|  0.42115
USER: genes 20 Torsion [C]-CA--CB-[CG] |==|  0.86332
USER: genes 21 Torsion [CA]-CB--CG-[CD] |==|  0.73591
USER: genes 22 Torsion [CB]-CG--CD-[OE2] |==|  0.37661
USER: genes 23 Torsion [C]-CA--N-[C] |==|  0.81981
USER: genes 24 Torsion [N]-C--CA-[N] |==|  0.39679
USER: genes 25 Torsion [C]-CA--CB-[CG2] |==|  0.06862
USER: genes 26 Torsion [C]-CA--CB-[CG] |==|  0.49913
USER: genes 27 Torsion [CA]-CB--CG-[CD1] |==|  0.41293
USER: genes 28 Torsion [CE1]-CZ--OH-[HH] |==|  0.27357
ROOT
ATOM      1  C   TYR F 311      31.428  51.151  -3.675  1.00 39.57 LIG 0.24  C 
ATOM      2 O    TYR F 311      31.130  51.838  -2.695  1.00 35.87 LIG-0.27  OA
ATOM      3  N   THR F 312      30.846  49.991  -3.971  1.00 39.28 LIG-0.34  N 
ATOM      4 H    THR F 312      31.033  49.539  -4.678  1.00 39.28 LIG 0.16  HD
ENDROOT
BRANCH 3 5
ATOM      5  CA  THR F 312      29.833  49.364  -3.131  1.00 41.67 LIG 0.20  C 
BRANCH 5 6
ATOM      6  C   THR F 312      30.368  49.120  -1.728  1.00 45.40 LIG 0.24  C 
ATOM      7  N   LYS F 313      29.509  49.308  -0.739  1.00 48.10 LIG-0.35  N 
ATOM      8 H    LYS F 313      28.718  49.625  -0.847  1.00 48.10 LIG 0.16  HD
ATOM      9 O    THR F 312      31.522  48.739  -1.544  1.00 48.99 LIG-0.27  OA
BRANCH 7 10
ATOM     10  CA  LYS F 313      29.841  48.985   0.641  1.00 51.61 LIG 0.18  C 
BRANCH 10 11
ATOM     11  C   LYS F 313      31.065  49.799   1.078  1.00 54.92 LIG 0.24  C 
ATOM     12 O    LYS F 313      31.978  49.266   1.719  1.00 54.36 LIG-0.27  OA
ATOM     13  N   HIS F 314      31.067  51.084   0.709  1.00 57.06 LIG-0.35  N 
ATOM     14 H    HIS F 314      30.418  51.443   0.273  1.00 57.06 LIG 0.16  HD
BRANCH 13 15
ATOM     15  CA  HIS F 314      32.163  52.024   0.997  1.00 57.78 LIG 0.17  C 
BRANCH 15 16
ATOM     16  CB  HIS F 314      32.938  52.383  -0.280  1.00 57.79 LIG 0.09  C 
BRANCH 16 17
ATOM     17  CG  HIS F 314      34.209  51.611  -0.456  1.00 61.61 LIG 0.06  A 
ATOM     18  CD2 HIS F 314      35.506  52.001  -0.406  1.00 62.97 LIG 0.14  A 
ATOM     19 NE2  HIS F 314      36.276  50.885  -0.639  1.00 63.36 LIG-0.25  NA
ATOM     20  CE1 HIS F 314      35.482  49.845  -0.823  1.00 61.50 LIG 0.23  A 
ATOM     21 ND1  HIS F 314      34.229  50.255  -0.719  1.00 63.00 LIG-0.24  NA
ENDBRANCH 16 17
ENDBRANCH 15 16
BRANCH 15 22
ATOM     22  C   HIS F 314      31.671  53.295   1.699  1.00 59.91 LIG 0.22  C 
ATOM     23 O    HIS F 314      32.312  53.798   2.629  1.00 59.00 LIG-0.29  OA
ENDBRANCH 15 22
ENDBRANCH 13 15
ENDBRANCH 10 11
BRANCH 10 24
ATOM     24  CB  LYS F 313      30.084  47.480   0.802  1.00 49.70 LIG 0.04  C 
BRANCH 24 25
ATOM     25  CG  LYS F 313      29.607  46.935   2.140  1.00 49.89 LIG 0.00  C 
BRANCH 25 26
ATOM     26  CD  LYS F 313      28.110  46.666   2.156  1.00 49.58 LIG 0.03  C 
BRANCH 26 27
ATOM     27  CE  LYS F 313      27.515  46.974   3.523  1.00 48.23 LIG 0.23  C 
BRANCH 27 28
ATOM     28  NZ  LYS F 313      28.128  46.137   4.582  1.00 47.83 LIG-0.08  N 
ATOM     29 HZ2  LYS F 313      27.529  45.984   5.222  1.00 47.83 LIG 0.27  HD
ATOM     30 HZ1  LYS F 313      28.830  46.561   4.927  1.00 47.83 LIG 0.27  HD
ATOM     31 HZ3  LYS F 313      28.393  45.362   4.232  1.00 47.83 LIG 0.27  HD
ENDBRANCH 27 28
ENDBRANCH 26 27
ENDBRANCH 25 26
ENDBRANCH 24 25
ENDBRANCH 10 24
ENDBRANCH 7 10
ENDBRANCH 5 6
BRANCH 5 32
ATOM     32  CB  THR F 312      29.424  47.989  -3.688  1.00 41.09 LIG 0.15  C 
ATOM     33  CG2 THR F 312      29.185  48.051  -5.186  1.00 40.88 LIG 0.04  C 
BRANCH 32 34
ATOM     34 OG1  THR F 312      30.467  47.047  -3.411  1.00 43.07 LIG-0.39  OA
ATOM     35 HG1  THR F 312      30.231  46.283  -3.670  1.00 43.07 LIG 0.21  HD
ENDBRANCH 32 34
ENDBRANCH 5 32
ENDBRANCH 3 5
BRANCH 1 36
ATOM     36  CA  TYR F 311      32.540  51.582  -4.634  1.00 39.31 LIG 0.18  C 
BRANCH 36 37
ATOM     37  N   TYR F 311      32.274  52.868  -5.278  1.00 40.62 LIG-0.35  N 
ATOM     38 H    TYR F 311      32.901  53.450  -5.187  1.00 40.62 LIG 0.16  HD
ATOM     39  C   GLU F 310      31.142  53.087  -5.941  1.00 41.86 LIG 0.24  C 
ATOM     40 O    GLU F 310      30.232  52.272  -5.965  1.00 41.90 LIG-0.27  OA
BRANCH 39 41
ATOM     41  CA  GLU F 310      30.995  54.426  -6.660  1.00 43.14 LIG 0.18  C 
BRANCH 41 42
ATOM     42  CB  GLU F 310      30.437  55.460  -5.678  1.00 44.06 LIG 0.04  C 
BRANCH 42 43
ATOM     43  CG  GLU F 310      29.212  54.983  -4.915  1.00 45.60 LIG 0.12  C 
BRANCH 43 44
ATOM     44  CD  GLU F 310      27.898  55.409  -5.553  1.00 46.85 LIG 0.17  C 
ATOM     45 OE2  GLU F 310      26.990  54.553  -5.640  1.00 47.09 LIG-0.65  OA
ATOM     46 OE1  GLU F 310      27.774  56.582  -5.983  1.00 45.53 LIG-0.65  OA
ENDBRANCH 43 44
ENDBRANCH 42 43
ENDBRANCH 41 42
BRANCH 41 47
ATOM     47  N   GLU F 310      30.110  54.295  -7.829  1.00 43.23 LIG-0.35  N 
ATOM     48  C   VAL F 309      30.407  53.546  -8.896  1.00 44.16 LIG 0.26  C 
ATOM     49 O    VAL F 309      31.465  52.925  -9.022  1.00 43.83 LIG-0.27  OA
ATOM     50 H    GLU F 310      29.381  54.747  -7.761  1.00 43.23 LIG 0.16  HD
BRANCH 48 51
ATOM     51  CA  VAL F 309      29.346  53.478 -10.002  1.00 44.86 LIG 0.40  C 
ATOM     52  N   VAL F 309      30.012  53.455 -11.338  1.00 44.58 LIG 0.61  N 
BRANCH 51 53
ATOM     53  CB  VAL F 309      28.417  52.241  -9.827  1.00 44.54 LIG 0.03  C 
ATOM     54  CG2 VAL F 309      28.391  51.803  -8.368  1.00 44.44 LIG 0.01  C 
ATOM     55  CG1 VAL F 309      28.824  51.076 -10.727  1.00 43.50 LIG 0.01  C 
ENDBRANCH 51 53
ENDBRANCH 48 51
ENDBRANCH 41 47
ENDBRANCH 39 41
ENDBRANCH 36 37
BRANCH 36 56
ATOM     56  CB  TYR F 311      33.860  51.658  -3.860  1.00 38.48 LIG 0.07  C 
BRANCH 56 57
ATOM     57  CG  TYR F 311      35.031  52.071  -4.724  1.00 36.48 LIG-0.06  A 
ATOM     58  CD1 TYR F 311      36.090  52.798  -4.190  1.00 35.51 LIG 0.01  A 
ATOM     59  CE1 TYR F 311      37.165  53.182  -4.975  1.00 35.35 LIG 0.04  A 
ATOM     60  CZ  TYR F 311      37.183  52.852  -6.310  1.00 34.90 LIG 0.07  A 
ATOM     61  CE2 TYR F 311      36.145  52.134  -6.872  1.00 36.46 LIG 0.04  A 
ATOM     62  CD2 TYR F 311      35.071  51.752  -6.083  1.00 36.25 LIG 0.01  A 
BRANCH 60 63
ATOM     63 OH   TYR F 311      38.240  53.238  -7.086  1.00 38.07 LIG-0.36  OA
ATOM     64 HH   TYR F 311      38.777  52.597  -7.168  1.00 38.07 LIG 0.22  HD
ENDBRANCH 60 63
ENDBRANCH 56 57
ENDBRANCH 36 56
ENDBRANCH 1 36
TORSDOF 27
ENDMDL
MODEL 15
USER: ADFR SOLUTION from run 141
USER: SCORE 19.218831 LL:  -5.093 LR: -14.959 RR:   0.000 FEB:  -6.905
USER: RMSD 11.670030
USER: SEED 140
USER: STATUS searching
USER: GENES 29
USER: genes 0 Translation |==|  0.40208 0.44218 0.46162
USER: genes 1 Rotation |==|  0.73631 0.06626 0.56971 0.53422
USER: genes 2 Torsion [C]-N--CA-[C] |==|  0.83291
USER: genes 3 Torsion [N]-CA--C-[N] |==|  0.40542
USER: genes 4 Torsion [C]-N--CA-[C] |==|  0.67822
USER: genes 5 Torsion [N]-CA--C-[N] |==|  0.31345
USER: genes 6 Torsion [C]-N--CA-[CB] |==|  0.19642
USER: genes 7 Torsion [N]-CA--CB-[CG] |==|  0.67434
USER: genes 8 Torsion [CA]-CB--CG-[CD2] |==|  0.68369
USER: genes 9 Torsion [N]-CA--C-[O] |==|  0.03441
USER: genes 10 Torsion [N]-CA--CB-[CG] |==|  0.96665
USER: genes 11 Torsion [CA]-CB--CG-[CD] |==|  0.77586
USER: genes 12 Torsion [CB]-CG--CD-[CE] |==|  0.60534
USER: genes 13 Torsion [CG]-CD--CE-[NZ] |==|  0.72280
USER: genes 14 Torsion [CD]-CE--NZ-[HZ2] |==|  0.32283
USER: genes 15 Torsion [N]-CA--CB-[CG2] |==|  0.49022
USER: genes 16 Torsion [CA]-CB--OG1-[HG1] |==|  0.14047
USER: genes 17 Torsion [N]-C--CA-[N] |==|  0.01837
USER: genes 18 Torsion [C]-CA--N-[C] |==|  0.65566
USER: genes 19 Torsion [N]-C--CA-[N] |==|  0.87920
USER: genes 20 Torsion [C]-CA--CB-[CG] |==|  0.61783
USER: genes 21 Torsion [CA]-CB--CG-[CD] |==|  0.78643
USER: genes 22 Torsion [CB]-CG--CD-[OE2] |==|  0.31029
USER: genes 23 Torsion [C]-CA--N-[C] |==|  0.67448
USER: genes 24 Torsion [N]-C--CA-[N] |==|  0.82738
USER: genes 25 Torsion [C]-CA--CB-[CG2] |==|  0.59629
USER: genes 26 Torsion [C]-CA--CB-[CG] |==|  0.26039
USER: genes 27 Torsion [CA]-CB--CG-[CD1] |==|  0.93185
USER: genes 28 Torsion [CE1]-CZ--OH-[HH] |==|  0.48368
ROOT
ATOM      1  C   TYR F 311      33.291  50.985  -4.058  1.00 39.57 LIG 0.24  C 
ATOM      2 O    TYR F 311      34.137  50.592  -3.251  1.00 35.87 LIG-0.27  OA
ATOM      3  N   THR F 312      33.583  51.420  -5.282  1.00 39.28 LIG-0.34  N 
ATOM      4 H    THR F 312      32.982  51.654  -5.851  1.00 39.28 LIG 0.16  HD
ENDROOT
BRANCH 3 5
ATOM      5  CA  THR F 312      34.944  51.546  -5.786  1.00 41.67 LIG 0.20  C 
BRANCH 5 6
ATOM      6  C   THR F 312      35.750  52.513  -4.933  1.00 45.40 LIG 0.24  C 
ATOM      7  N   LYS F 313      37.035  52.230  -4.793  1.00 48.10 LIG-0.35  N 
ATOM      8 H    LYS F 313      37.400  51.510  -5.085  1.00 48.10 LIG 0.16  HD
ATOM      9 O    THR F 312      35.231  53.512  -4.439  1.00 48.99 LIG-0.27  OA
BRANCH 7 10
ATOM     10  CA  LYS F 313      37.954  53.135  -4.117  1.00 51.61 LIG 0.18  C 
BRANCH 10 11
ATOM     11  C   LYS F 313      39.004  53.639  -5.114  1.00 54.92 LIG 0.24  C 
ATOM     12 O    LYS F 313      39.830  52.862  -5.604  1.00 54.36 LIG-0.27  OA
ATOM     13  N   HIS F 314      38.943  54.942  -5.409  1.00 57.06 LIG-0.35  N 
ATOM     14 H    HIS F 314      38.369  55.473  -5.049  1.00 57.06 LIG 0.16  HD
BRANCH 13 15
ATOM     15  CA  HIS F 314      39.835  55.614  -6.367  1.00 57.78 LIG 0.17  C 
BRANCH 15 16
ATOM     16  CB  HIS F 314      39.521  55.191  -7.810  1.00 57.79 LIG 0.09  C 
BRANCH 16 17
ATOM     17  CG  HIS F 314      40.648  54.480  -8.494  1.00 61.61 LIG 0.06  A 
ATOM     18  CD2 HIS F 314      41.416  54.835  -9.553  1.00 62.97 LIG 0.14  A 
ATOM     19 NE2  HIS F 314      42.309  53.811  -9.768  1.00 63.36 LIG-0.25  NA
ATOM     20  CE1 HIS F 314      42.100  52.862  -8.874  1.00 61.50 LIG 0.23  A 
ATOM     21 ND1  HIS F 314      41.102  53.239  -8.093  1.00 63.00 LIG-0.24  NA
ENDBRANCH 16 17
ENDBRANCH 15 16
BRANCH 15 22
ATOM     22  C   HIS F 314      39.789  57.141  -6.235  1.00 59.91 LIG 0.22  C 
ATOM     23 O    HIS F 314      39.247  57.681  -5.264  1.00 59.00 LIG-0.29  OA
ENDBRANCH 15 22
ENDBRANCH 13 15
ENDBRANCH 10 11
BRANCH 10 24
ATOM     24  CB  LYS F 313      38.610  52.442  -2.917  1.00 49.70 LIG 0.04  C 
BRANCH 24 25
ATOM     25  CG  LYS F 313      37.949  51.121  -2.551  1.00 49.89 LIG 0.00  C 
BRANCH 25 26
ATOM     26  CD  LYS F 313      36.688  51.314  -1.725  1.00 49.58 LIG 0.03  C 
BRANCH 26 27
ATOM     27  CE  LYS F 313      36.567  50.237  -0.655  1.00 48.23 LIG 0.23  C 
BRANCH 27 28
ATOM     28  NZ  LYS F 313      35.633  49.163  -1.070  1.00 47.83 LIG-0.08  N 
ATOM     29 HZ2  LYS F 313      36.078  48.396  -1.146  1.00 47.83 LIG 0.27  HD
ATOM     30 HZ1  LYS F 313      35.268  49.373  -1.853  1.00 47.83 LIG 0.27  HD
ATOM     31 HZ3  LYS F 313      34.992  49.074  -0.458  1.00 47.83 LIG 0.27  HD
ENDBRANCH 27 28
ENDBRANCH 26 27
ENDBRANCH 25 26
ENDBRANCH 24 25
ENDBRANCH 10 24
ENDBRANCH 7 10
ENDBRANCH 5 6
BRANCH 5 32
ATOM     32  CB  THR F 312      34.955  52.112  -7.217  1.00 41.09 LIG 0.15  C 
ATOM     33  CG2 THR F 312      36.375  52.325  -7.713  1.00 40.88 LIG 0.04  C 
BRANCH 32 34
ATOM     34 OG1  THR F 312      34.281  51.195  -8.085  1.00 43.07 LIG-0.39  OA
ATOM     35 HG1  THR F 312      33.534  50.995  -7.756  1.00 43.07 LIG 0.21  HD
ENDBRANCH 32 34
ENDBRANCH 5 32
ENDBRANCH 3 5
BRANCH 1 36
ATOM     36  CA  TYR F 311      31.806  51.028  -3.690  1.00 39.31 LIG 0.18  C 
BRANCH 36 37
ATOM     37  N   TYR F 311      30.949  51.401  -4.815  1.00 40.62 LIG-0.35  N 
ATOM     38 H    TYR F 311      31.033  50.901  -5.510  1.00 40.62 LIG 0.16  HD
ATOM     39  C   GLU F 310      30.118  52.437  -4.736  1.00 41.86 LIG 0.24  C 
ATOM     40 O    GLU F 310      30.098  53.185  -3.770  1.00 41.90 LIG-0.27  OA
BRANCH 39 41
ATOM     41  CA  GLU F 310      29.195  52.691  -5.926  1.00 43.14 LIG 0.18  C 
BRANCH 41 42
ATOM     42  CB  GLU F 310      28.024  51.707  -5.867  1.00 44.06 LIG 0.04  C 
BRANCH 42 43
ATOM     43  CG  GLU F 310      27.658  51.106  -7.214  1.00 45.60 LIG 0.12  C 
BRANCH 43 44
ATOM     44  CD  GLU F 310      26.874  52.057  -8.107  1.00 46.85 LIG 0.17  C 
ATOM     45 OE2  GLU F 310      27.440  52.487  -9.136  1.00 47.09 LIG-0.65  OA
ATOM     46 OE1  GLU F 310      25.709  52.390  -7.779  1.00 45.53 LIG-0.65  OA
ENDBRANCH 43 44
ENDBRANCH 42 43
ENDBRANCH 41 42
BRANCH 41 47
ATOM     47  N   GLU F 310      29.927  52.546  -7.194  1.00 43.23 LIG-0.35  N 
ATOM     48  C   VAL F 309      30.102  53.549  -8.062  1.00 44.16 LIG 0.26  C 
ATOM     49 O    VAL F 309      29.633  54.678  -7.903  1.00 43.83 LIG-0.27  OA
ATOM     50 H    GLU F 310      30.234  51.753  -7.326  1.00 43.23 LIG 0.16  HD
BRANCH 48 51
ATOM     51  CA  VAL F 309      30.937  53.237  -9.310  1.00 44.86 LIG 0.40  C 
ATOM     52  N   VAL F 309      32.325  52.861  -8.905  1.00 44.58 LIG 0.61  N 
BRANCH 51 53
ATOM     53  CB  VAL F 309      30.288  52.110 -10.164  1.00 44.54 LIG 0.03  C 
ATOM     54  CG2 VAL F 309      31.366  51.247 -10.809  1.00 44.44 LIG 0.01  C 
ATOM     55  CG1 VAL F 309      29.338  52.659 -11.227  1.00 43.50 LIG 0.01  C 
ENDBRANCH 51 53
ENDBRANCH 48 51
ENDBRANCH 41 47
ENDBRANCH 39 41
ENDBRANCH 36 37
BRANCH 36 56
ATOM     56  CB  TYR F 311      31.387  49.654  -3.158  1.00 38.48 LIG 0.07  C 
BRANCH 56 57
ATOM     57  CG  TYR F 311      31.472  49.551  -1.651  1.00 36.48 LIG-0.06  A 
ATOM     58  CD1 TYR F 311      32.329  50.374  -0.927  1.00 35.51 LIG 0.01  A 
ATOM     59  CE1 TYR F 311      32.414  50.284   0.453  1.00 35.35 LIG 0.04  A 
ATOM     60  CZ  TYR F 311      31.649  49.357   1.122  1.00 34.90 LIG 0.07  A 
ATOM     61  CE2 TYR F 311      30.791  48.523   0.432  1.00 36.46 LIG 0.04  A 
ATOM     62  CD2 TYR F 311      30.709  48.616  -0.949  1.00 36.25 LIG 0.01  A 
BRANCH 60 63
ATOM     63 OH   TYR F 311      31.739  49.264   2.483  1.00 38.07 LIG-0.36  OA
ATOM     64 HH   TYR F 311      31.165  48.720   2.766  1.00 38.07 LIG 0.22  HD
ENDBRANCH 60 63
ENDBRANCH 56 57
ENDBRANCH 36 56
ENDBRANCH 1 36
TORSDOF 27
ENDMDL
MODEL 16
USER: ADFR SOLUTION from run 97
USER: SCORE 19.243970 LL:  -5.500 LR: -14.898 RR:   0.000 FEB:  -6.844
USER: RMSD 11.815183
USER: SEED 96
USER: STATUS no improvement in best in 1 clusters for 5 generations
USER: GENES 29
USER: genes 0 Translation |==|  0.42815 0.51947 0.38580
USER: genes 1 Rotation |==|  0.49724 0.89349 0.73763 0.69669
USER: genes 2 Torsion [C]-N--CA-[C] |==|  0.58225
USER: genes 3 Torsion [N]-CA--C-[N] |==|  0.40084
USER: genes 4 Torsion [C]-N--CA-[C] |==|  0.68180
USER: genes 5 Torsion [N]-CA--C-[N] |==|  0.89444
USER: genes 6 Torsion [C]-N--CA-[CB] |==|  0.86758
USER: genes 7 Torsion [N]-CA--CB-[CG] |==|  0.67854
USER: genes 8 Torsion [CA]-CB--CG-[CD2] |==|  0.76365
USER: genes 9 Torsion [N]-CA--C-[O] |==|  0.23082
USER: genes 10 Torsion [N]-CA--CB-[CG] |==|  0.62164
USER: genes 11 Torsion [CA]-CB--CG-[CD] |==|  0.04796
USER: genes 12 Torsion [CB]-CG--CD-[CE] |==|  0.69706
USER: genes 13 Torsion [CG]-CD--CE-[NZ] |==|  0.30701
USER: genes 14 Torsion [CD]-CE--NZ-[HZ2] |==|  0.21738
USER: genes 15 Torsion [N]-CA--CB-[CG2] |==|  0.40470
USER: genes 16 Torsion [CA]-CB--OG1-[HG1] |==|  0.09766
USER: genes 17 Torsion [N]-C--CA-[N] |==|  0.42530
USER: genes 18 Torsion [C]-CA--N-[C] |==|  0.64546
USER: genes 19 Torsion [N]-C--CA-[N] |==|  0.82429
USER: genes 20 Torsion [C]-CA--CB-[CG] |==|  0.63352
USER: genes 21 Torsion [CA]-CB--CG-[CD] |==|  0.76396
USER: genes 22 Torsion [CB]-CG--CD-[OE2] |==|  0.67362
USER: genes 23 Torsion [C]-CA--N-[C] |==|  0.66865
USER: genes 24 Torsion [N]-C--CA-[N] |==|  0.96622
USER: genes 25 Torsion [C]-CA--CB-[CG2] |==|  0.15507
USER: genes 26 Torsion [C]-CA--CB-[CG] |==|  0.05510
USER: genes 27 Torsion [CA]-CB--CG-[CD1] |==|  0.27723
USER: genes 28 Torsion [CE1]-CZ--OH-[HH] |==|  0.16101
ROOT
ATOM      1  C   TYR F 311      34.014  52.492  -5.537  1.00 39.57 LIG 0.24  C 
ATOM      2 O    TYR F 311      33.987  51.455  -6.205  1.00 35.87 LIG-0.27  OA
ATOM      3  N   THR F 312      35.137  53.080  -5.130  1.00 39.28 LIG-0.34  N 
ATOM      4 H    THR F 312      35.146  53.824  -4.699  1.00 39.28 LIG 0.16  HD
ENDROOT
BRANCH 3 5
ATOM      5  CA  THR F 312      36.465  52.531  -5.370  1.00 41.67 LIG 0.20  C 
BRANCH 5 6
ATOM      6  C   THR F 312      37.428  52.938  -4.265  1.00 45.40 LIG 0.24  C 
ATOM      7  N   LYS F 313      38.333  52.036  -3.923  1.00 48.10 LIG-0.35  N 
ATOM      8 H    LYS F 313      38.348  51.233  -4.230  1.00 48.10 LIG 0.16  HD
ATOM      9 O    THR F 312      37.376  54.055  -3.756  1.00 48.99 LIG-0.27  OA
BRANCH 7 10
ATOM     10  CA  LYS F 313      39.398  52.334  -2.977  1.00 51.61 LIG 0.18  C 
BRANCH 10 11
ATOM     11  C   LYS F 313      40.752  52.275  -3.696  1.00 54.92 LIG 0.24  C 
ATOM     12 O    LYS F 313      41.651  53.074  -3.411  1.00 54.36 LIG-0.27  OA
ATOM     13  N   HIS F 314      40.879  51.311  -4.614  1.00 57.06 LIG-0.35  N 
ATOM     14 H    HIS F 314      40.239  50.770  -4.810  1.00 57.06 LIG 0.16  HD
BRANCH 13 15
ATOM     15  CA  HIS F 314      42.106  51.064  -5.388  1.00 57.78 LIG 0.17  C 
BRANCH 15 16
ATOM     16  CB  HIS F 314      42.668  52.369  -5.971  1.00 57.79 LIG 0.09  C 
BRANCH 16 17
ATOM     17  CG  HIS F 314      42.662  52.417  -7.469  1.00 61.61 LIG 0.06  A 
ATOM     18  CD2 HIS F 314      43.553  51.959  -8.381  1.00 62.97 LIG 0.14  A 
ATOM     19 NE2  HIS F 314      43.055  52.266  -9.626  1.00 63.36 LIG-0.25  NA
ATOM     20  CE1 HIS F 314      41.899  52.889  -9.485  1.00 61.50 LIG 0.23  A 
ATOM     21 ND1  HIS F 314      41.638  52.995  -8.194  1.00 63.00 LIG-0.24  NA
ENDBRANCH 16 17
ENDBRANCH 15 16
BRANCH 15 22
ATOM     22  C   HIS F 314      43.179  50.341  -4.565  1.00 59.91 LIG 0.22  C 
ATOM     23 O    HIS F 314      43.162  49.112  -4.435  1.00 59.00 LIG-0.29  OA
ENDBRANCH 15 22
ENDBRANCH 13 15
ENDBRANCH 10 11
BRANCH 10 24
ATOM     24  CB  LYS F 313      39.354  51.368  -1.789  1.00 49.70 LIG 0.04  C 
BRANCH 24 25
ATOM     25  CG  LYS F 313      39.550  52.058  -0.447  1.00 49.89 LIG 0.00  C 
BRANCH 25 26
ATOM     26  CD  LYS F 313      39.329  53.560  -0.530  1.00 49.58 LIG 0.03  C 
BRANCH 26 27
ATOM     27  CE  LYS F 313      40.644  54.313  -0.387  1.00 48.23 LIG 0.23  C 
BRANCH 27 28
ATOM     28  NZ  LYS F 313      41.043  54.955  -1.662  1.00 47.83 LIG-0.08  N 
ATOM     29 HZ2  LYS F 313      40.570  55.700  -1.780  1.00 47.83 LIG 0.27  HD
ATOM     30 HZ1  LYS F 313      40.888  54.396  -2.337  1.00 47.83 LIG 0.27  HD
ATOM     31 HZ3  LYS F 313      41.910  55.155  -1.636  1.00 47.83 LIG 0.27  HD
ENDBRANCH 27 28
ENDBRANCH 26 27
ENDBRANCH 25 26
ENDBRANCH 24 25
ENDBRANCH 10 24
ENDBRANCH 7 10
ENDBRANCH 5 6
BRANCH 5 32
ATOM     32  CB  THR F 312      37.057  53.065  -6.685  1.00 41.09 LIG 0.15  C 
ATOM     33  CG2 THR F 312      38.562  53.239  -6.580  1.00 40.88 LIG 0.04  C 
BRANCH 32 34
ATOM     34 OG1  THR F 312      36.757  52.144  -7.739  1.00 43.07 LIG-0.39  OA
ATOM     35 HG1  THR F 312      35.999  51.805  -7.608  1.00 43.07 LIG 0.21  HD
ENDBRANCH 32 34
ENDBRANCH 5 32
ENDBRANCH 3 5
BRANCH 1 36
ATOM     36  CA  TYR F 311      32.722  53.179  -5.091  1.00 39.31 LIG 0.18  C 
BRANCH 36 37
ATOM     37  N   TYR F 311      31.602  52.935  -5.999  1.00 40.62 LIG-0.35  N 
ATOM     38 H    TYR F 311      31.456  52.105  -6.173  1.00 40.62 LIG 0.16  HD
ATOM     39  C   GLU F 310      30.887  53.939  -6.499  1.00 41.86 LIG 0.24  C 
ATOM     40 O    GLU F 310      31.185  55.109  -6.310  1.00 41.90 LIG-0.27  OA
BRANCH 39 41
ATOM     41  CA  GLU F 310      29.679  53.582  -7.362  1.00 43.14 LIG 0.18  C 
BRANCH 41 42
ATOM     42  CB  GLU F 310      28.716  52.722  -6.540  1.00 44.06 LIG 0.04  C 
BRANCH 42 43
ATOM     43  CG  GLU F 310      28.238  51.473  -7.262  1.00 45.60 LIG 0.12  C 
BRANCH 43 44
ATOM     44  CD  GLU F 310      27.037  51.719  -8.164  1.00 46.85 LIG 0.17  C 
ATOM     45 OE2  GLU F 310      25.975  51.117  -7.893  1.00 47.09 LIG-0.65  OA
ATOM     46 OE1  GLU F 310      27.153  52.492  -9.146  1.00 45.53 LIG-0.65  OA
ENDBRANCH 43 44
ENDBRANCH 42 43
ENDBRANCH 41 42
BRANCH 41 47
ATOM     47  N   GLU F 310      30.100  52.867  -8.578  1.00 43.23 LIG-0.35  N 
ATOM     48  C   VAL F 309      29.874  53.322  -9.815  1.00 44.16 LIG 0.26  C 
ATOM     49 O    VAL F 309      29.258  54.363 -10.058  1.00 43.83 LIG-0.27  OA
ATOM     50 H    GLU F 310      30.506  52.126  -8.418  1.00 43.23 LIG 0.16  HD
BRANCH 48 51
ATOM     51  CA  VAL F 309      30.429  52.476 -10.968  1.00 44.86 LIG 0.40  C 
ATOM     52  N   VAL F 309      31.372  51.451 -10.431  1.00 44.58 LIG 0.61  N 
BRANCH 51 53
ATOM     53  CB  VAL F 309      29.286  51.803 -11.783  1.00 44.54 LIG 0.03  C 
ATOM     54  CG2 VAL F 309      28.307  52.855 -12.289  1.00 44.44 LIG 0.01  C 
ATOM     55  CG1 VAL F 309      28.550  50.734 -10.978  1.00 43.50 LIG 0.01  C 
ENDBRANCH 51 53
ENDBRANCH 48 51
ENDBRANCH 41 47
ENDBRANCH 39 41
ENDBRANCH 36 37
BRANCH 36 56
ATOM     56  CB  TYR F 311      32.360  52.689  -3.685  1.00 38.48 LIG 0.07  C 
BRANCH 56 57
ATOM     57  CG  TYR F 311      33.536  52.088  -2.946  1.00 36.48 LIG-0.06  A 
ATOM     58  CD1 TYR F 311      34.238  52.827  -2.000  1.00 35.51 LIG 0.01  A 
ATOM     59  CE1 TYR F 311      35.317  52.285  -1.321  1.00 35.35 LIG 0.04  A 
ATOM     60  CZ  TYR F 311      35.713  50.996  -1.595  1.00 34.90 LIG 0.07  A 
ATOM     61  CE2 TYR F 311      35.040  50.237  -2.533  1.00 36.46 LIG 0.04  A 
ATOM     62  CD2 TYR F 311      33.961  50.784  -3.210  1.00 36.25 LIG 0.01  A 
BRANCH 60 63
ATOM     63 OH   TYR F 311      36.783  50.464  -0.931  1.00 38.07 LIG-0.36  OA
ATOM     64 HH   TYR F 311      36.638  50.486  -0.103  1.00 38.07 LIG 0.22  HD
ENDBRANCH 60 63
ENDBRANCH 56 57
ENDBRANCH 36 56
ENDBRANCH 1 36
TORSDOF 27
ENDMDL
MODEL 17
USER: ADFR SOLUTION from run 8
USER: SCORE 19.055889 LL:  -5.037 LR: -14.904 RR:   0.000 FEB:  -6.850
USER: RMSD 7.460328
USER: SEED 870094
USER: STATUS searching
USER: GENES 29
USER: genes 0 Translation |==|  0.40454 0.44241 0.44923
USER: genes 1 Rotation |==|  0.78125 0.46815 0.41082 0.90241
USER: genes 2 Torsion [C]-N--CA-[C] |==|  0.78840
USER: genes 3 Torsion [N]-CA--C-[N] |==|  0.21679
USER: genes 4 Torsion [C]-N--CA-[C] |==|  0.82958
USER: genes 5 Torsion [N]-CA--C-[N] |==|  0.90144
USER: genes 6 Torsion [C]-N--CA-[CB] |==|  0.38419
USER: genes 7 Torsion [N]-CA--CB-[CG] |==|  0.77911
USER: genes 8 Torsion [CA]-CB--CG-[CD2] |==|  0.97666
USER: genes 9 Torsion [N]-CA--C-[O] |==|  0.77153
USER: genes 10 Torsion [N]-CA--CB-[CG] |==|  0.26523
USER: genes 11 Torsion [CA]-CB--CG-[CD] |==|  0.67635
USER: genes 12 Torsion [CB]-CG--CD-[CE] |==|  0.45238
USER: genes 13 Torsion [CG]-CD--CE-[NZ] |==|  0.35241
USER: genes 14 Torsion [CD]-CE--NZ-[HZ2] |==|  0.94112
USER: genes 15 Torsion [N]-CA--CB-[CG2] |==|  0.53433
USER: genes 16 Torsion [CA]-CB--OG1-[HG1] |==|  0.11648
USER: genes 17 Torsion [N]-C--CA-[N] |==|  0.53333
USER: genes 18 Torsion [C]-CA--N-[C] |==|  0.66982
USER: genes 19 Torsion [N]-C--CA-[N] |==|  0.44609
USER: genes 20 Torsion [C]-CA--CB-[CG] |==|  0.11678
USER: genes 21 Torsion [CA]-CB--CG-[CD] |==|  0.61084
USER: genes 22 Torsion [CB]-CG--CD-[OE2] |==|  0.22444
USER: genes 23 Torsion [C]-CA--N-[C] |==|  0.78096
USER: genes 24 Torsion [N]-C--CA-[N] |==|  0.64507
USER: genes 25 Torsion [C]-CA--CB-[CG2] |==|  0.56411
USER: genes 26 Torsion [C]-CA--CB-[CG] |==|  0.25815
USER: genes 27 Torsion [CA]-CB--CG-[CD1] |==|  0.16875
USER: genes 28 Torsion [CE1]-CZ--OH-[HH] |==|  0.33201
ROOT
ATOM      1  C   TYR F 311      33.359  50.989  -4.300  1.00 39.57 LIG 0.24  C 
ATOM      2 O    TYR F 311      33.378  51.210  -5.513  1.00 35.87 LIG-0.27  OA
ATOM      3  N   THR F 312      32.332  50.427  -3.667  1.00 39.28 LIG-0.34  N 
ATOM      4 H    THR F 312      32.344  50.241  -2.827  1.00 39.28 LIG 0.16  HD
ENDROOT
BRANCH 3 5
ATOM      5  CA  THR F 312      31.081  50.069  -4.324  1.00 41.67 LIG 0.20  C 
BRANCH 5 6
ATOM      6  C   THR F 312      30.230  51.304  -4.577  1.00 45.40 LIG 0.24  C 
ATOM      7  N   LYS F 313      30.585  52.052  -5.608  1.00 48.10 LIG-0.35  N 
ATOM      8 H    LYS F 313      31.296  51.918  -6.073  1.00 48.10 LIG 0.16  HD
ATOM      9 O    THR F 312      29.252  51.557  -3.876  1.00 48.99 LIG-0.27  OA
BRANCH 7 10
ATOM     10  CA  LYS F 313      29.787  53.186  -6.049  1.00 51.61 LIG 0.18  C 
BRANCH 10 11
ATOM     11  C   LYS F 313      28.396  52.699  -6.476  1.00 54.92 LIG 0.24  C 
ATOM     12 O    LYS F 313      27.397  53.399  -6.276  1.00 54.36 LIG-0.27  OA
ATOM     13  N   HIS F 314      28.359  51.503  -7.072  1.00 57.06 LIG-0.35  N 
ATOM     14 H    HIS F 314      29.063  51.023  -7.192  1.00 57.06 LIG 0.16  HD
BRANCH 13 15
ATOM     15  CA  HIS F 314      27.132  50.874  -7.586  1.00 57.78 LIG 0.17  C 
BRANCH 15 16
ATOM     16  CB  HIS F 314      27.378  50.207  -8.948  1.00 57.79 LIG 0.09  C 
BRANCH 16 17
ATOM     17  CG  HIS F 314      27.385  51.164 -10.100  1.00 61.61 LIG 0.06  A 
ATOM     18  CD2 HIS F 314      27.069  52.480 -10.171  1.00 62.97 LIG 0.14  A 
ATOM     19 NE2  HIS F 314      27.252  52.873 -11.476  1.00 63.36 LIG-0.25  NA
ATOM     20  CE1 HIS F 314      27.669  51.838 -12.183  1.00 61.50 LIG 0.23  A 
ATOM     21 ND1  HIS F 314      27.757  50.793 -11.378  1.00 63.00 LIG-0.24  NA
ENDBRANCH 16 17
ENDBRANCH 15 16
BRANCH 15 22
ATOM     22  C   HIS F 314      26.535  49.866  -6.597  1.00 59.91 LIG 0.22  C 
ATOM     23 O    HIS F 314      26.966  48.710  -6.528  1.00 59.00 LIG-0.29  OA
ENDBRANCH 15 22
ENDBRANCH 13 15
ENDBRANCH 10 11
BRANCH 10 24
ATOM     24  CB  LYS F 313      30.490  53.934  -7.188  1.00 49.70 LIG 0.04  C 
BRANCH 24 25
ATOM     25  CG  LYS F 313      30.022  53.500  -8.569  1.00 49.89 LIG 0.00  C 
BRANCH 25 26
ATOM     26  CD  LYS F 313      31.136  52.862  -9.384  1.00 49.58 LIG 0.03  C 
BRANCH 26 27
ATOM     27  CE  LYS F 313      30.571  52.073 -10.557  1.00 48.23 LIG 0.23  C 
BRANCH 27 28
ATOM     28  NZ  LYS F 313      31.191  52.487 -11.839  1.00 47.83 LIG-0.08  N 
ATOM     29 HZ2  LYS F 313      31.539  53.301 -11.750  1.00 47.83 LIG 0.27  HD
ATOM     30 HZ1  LYS F 313      30.572  52.497 -12.478  1.00 47.83 LIG 0.27  HD
ATOM     31 HZ3  LYS F 313      31.833  51.911 -12.058  1.00 47.83 LIG 0.27  HD
ENDBRANCH 27 28
ENDBRANCH 26 27
ENDBRANCH 25 26
ENDBRANCH 24 25
ENDBRANCH 10 24
ENDBRANCH 7 10
ENDBRANCH 5 6
BRANCH 5 32
ATOM     32  CB  THR F 312      30.239  49.131  -3.441  1.00 41.09 LIG 0.15  C 
ATOM     33  CG2 THR F 312      29.094  48.517  -4.227  1.00 40.88 LIG 0.04  C 
BRANCH 32 34
ATOM     34 OG1  THR F 312      31.081  48.089  -2.936  1.00 43.07 LIG-0.39  OA
ATOM     35 HG1  THR F 312      31.819  48.414  -2.699  1.00 43.07 LIG 0.21  HD
ENDBRANCH 32 34
ENDBRANCH 5 32
ENDBRANCH 3 5
BRANCH 1 36
ATOM     36  CA  TYR F 311      34.537  51.382  -3.406  1.00 39.31 LIG 0.18  C 
BRANCH 36 37
ATOM     37  N   TYR F 311      35.510  52.236  -4.085  1.00 40.62 LIG-0.35  N 
ATOM     38 H    TYR F 311      35.196  52.989  -4.358  1.00 40.62 LIG 0.16  HD
ATOM     39  C   GLU F 310      36.771  51.850  -4.251  1.00 41.86 LIG 0.24  C 
ATOM     40 O    GLU F 310      37.158  50.734  -3.940  1.00 41.90 LIG-0.27  OA
BRANCH 39 41
ATOM     41  CA  GLU F 310      37.737  52.849  -4.887  1.00 43.14 LIG 0.18  C 
BRANCH 41 42
ATOM     42  CB  GLU F 310      37.499  52.878  -6.399  1.00 44.06 LIG 0.04  C 
BRANCH 42 43
ATOM     43  CG  GLU F 310      36.030  52.860  -6.790  1.00 45.60 LIG 0.12  C 
BRANCH 43 44
ATOM     44  CD  GLU F 310      35.738  51.985  -8.000  1.00 46.85 LIG 0.17  C 
ATOM     45 OE2  GLU F 310      35.633  50.752  -7.814  1.00 47.09 LIG-0.65  OA
ATOM     46 OE1  GLU F 310      35.631  52.515  -9.133  1.00 45.53 LIG-0.65  OA
ENDBRANCH 43 44
ENDBRANCH 42 43
ENDBRANCH 41 42
BRANCH 41 47
ATOM     47  N   GLU F 310      39.131  52.486  -4.591  1.00 43.23 LIG-0.35  N 
ATOM     48  C   VAL F 309      39.727  52.744  -3.421  1.00 44.16 LIG 0.26  C 
ATOM     49 O    VAL F 309      39.179  53.345  -2.494  1.00 43.83 LIG-0.27  OA
ATOM     50 H    GLU F 310      39.530  52.090  -5.243  1.00 43.23 LIG 0.16  HD
BRANCH 48 51
ATOM     51  CA  VAL F 309      41.170  52.247  -3.263  1.00 44.86 LIG 0.40  C 
ATOM     52  N   VAL F 309      41.291  51.445  -2.009  1.00 44.58 LIG 0.61  N 
BRANCH 51 53
ATOM     53  CB  VAL F 309      41.625  51.415  -4.497  1.00 44.54 LIG 0.03  C 
ATOM     54  CG2 VAL F 309      42.770  50.484  -4.113  1.00 44.44 LIG 0.01  C 
ATOM     55  CG1 VAL F 309      42.028  52.296  -5.677  1.00 43.50 LIG 0.01  C 
ENDBRANCH 51 53
ENDBRANCH 48 51
ENDBRANCH 41 47
ENDBRANCH 39 41
ENDBRANCH 36 37
BRANCH 36 56
ATOM     56  CB  TYR F 311      33.999  52.100  -2.165  1.00 38.48 LIG 0.07  C 
BRANCH 56 57
ATOM     57  CG  TYR F 311      33.760  51.168  -0.997  1.00 36.48 LIG-0.06  A 
ATOM     58  CD1 TYR F 311      34.807  50.440  -0.440  1.00 35.51 LIG 0.01  A 
ATOM     59  CE1 TYR F 311      34.596  49.583   0.628  1.00 35.35 LIG 0.04  A 
ATOM     60  CZ  TYR F 311      33.328  49.435   1.140  1.00 34.90 LIG 0.07  A 
ATOM     61  CE2 TYR F 311      32.266  50.139   0.606  1.00 36.46 LIG 0.04  A 
ATOM     62  CD2 TYR F 311      32.482  50.997  -0.462  1.00 36.25 LIG 0.01  A 
BRANCH 60 63
ATOM     63 OH   TYR F 311      33.119  48.582   2.188  1.00 38.07 LIG-0.36  OA
ATOM     64 HH   TYR F 311      32.815  49.012   2.843  1.00 38.07 LIG 0.22  HD
ENDBRANCH 60 63
ENDBRANCH 56 57
ENDBRANCH 36 56
ENDBRANCH 1 36
TORSDOF 27
ENDMDL
MODEL 18
USER: ADFR SOLUTION from run 83
USER: SCORE 19.635014 LL:  -5.623 LR: -14.870 RR:   0.000 FEB:  -6.816
USER: RMSD 5.381982
USER: SEED 82
USER: STATUS searching
USER: GENES 29
USER: genes 0 Translation |==|  0.50227 0.50406 0.41380
USER: genes 1 Rotation |==|  0.66992 0.37019 0.40399 0.94166
USER: genes 2 Torsion [C]-N--CA-[C] |==|  0.65734
USER: genes 3 Torsion [N]-CA--C-[N] |==|  0.40677
USER: genes 4 Torsion [C]-N--CA-[C] |==|  0.76222
USER: genes 5 Torsion [N]-CA--C-[N] |==|  0.90757
USER: genes 6 Torsion [C]-N--CA-[CB] |==|  0.76614
USER: genes 7 Torsion [N]-CA--CB-[CG] |==|  0.75935
USER: genes 8 Torsion [CA]-CB--CG-[CD2] |==|  0.43053
USER: genes 9 Torsion [N]-CA--C-[O] |==|  0.10971
USER: genes 10 Torsion [N]-CA--CB-[CG] |==|  0.22108
USER: genes 11 Torsion [CA]-CB--CG-[CD] |==|  0.52192
USER: genes 12 Torsion [CB]-CG--CD-[CE] |==|  0.34486
USER: genes 13 Torsion [CG]-CD--CE-[NZ] |==|  0.58866
USER: genes 14 Torsion [CD]-CE--NZ-[HZ2] |==|  0.74213
USER: genes 15 Torsion [N]-CA--CB-[CG2] |==|  0.09306
USER: genes 16 Torsion [CA]-CB--OG1-[HG1] |==|  0.12764
USER: genes 17 Torsion [N]-C--CA-[N] |==|  0.43239
USER: genes 18 Torsion [C]-CA--N-[C] |==|  0.64443
USER: genes 19 Torsion [N]-C--CA-[N] |==|  0.05408
USER: genes 20 Torsion [C]-CA--CB-[CG] |==|  0.41863
USER: genes 21 Torsion [CA]-CB--CG-[CD] |==|  0.07656
USER: genes 22 Torsion [CB]-CG--CD-[OE2] |==|  0.67398
USER: genes 23 Torsion [C]-CA--N-[C] |==|  0.22222
USER: genes 24 Torsion [N]-C--CA-[N] |==|  0.82812
USER: genes 25 Torsion [C]-CA--CB-[CG2] |==|  0.43312
USER: genes 26 Torsion [C]-CA--CB-[CG] |==|  0.51468
USER: genes 27 Torsion [CA]-CB--CG-[CD1] |==|  0.35707
USER: genes 28 Torsion [CE1]-CZ--OH-[HH] |==|  0.30181
ROOT
ATOM      1  C   TYR F 311      36.071  52.191  -4.991  1.00 39.57 LIG 0.24  C 
ATOM      2 O    TYR F 311      36.320  51.747  -6.115  1.00 35.87 LIG-0.27  OA
ATOM      3  N   THR F 312      34.849  52.229  -4.464  1.00 39.28 LIG-0.34  N 
ATOM      4 H    THR F 312      34.691  52.504  -3.665  1.00 39.28 LIG 0.16  HD
ENDROOT
BRANCH 3 5
ATOM      5  CA  THR F 312      33.651  51.811  -5.183  1.00 41.67 LIG 0.20  C 
BRANCH 5 6
ATOM      6  C   THR F 312      32.629  52.937  -5.232  1.00 45.40 LIG 0.24  C 
ATOM      7  N   LYS F 313      31.885  52.997  -6.324  1.00 48.10 LIG-0.35  N 
ATOM      8 H    LYS F 313      32.005  52.496  -7.012  1.00 48.10 LIG 0.16  HD
ATOM      9 O    THR F 312      32.492  53.714  -4.290  1.00 48.99 LIG-0.27  OA
BRANCH 7 10
ATOM     10  CA  LYS F 313      30.780  53.935  -6.453  1.00 51.61 LIG 0.18  C 
BRANCH 10 11
ATOM     11  C   LYS F 313      29.514  53.325  -5.839  1.00 54.92 LIG 0.24  C 
ATOM     12 O    LYS F 313      28.672  54.044  -5.290  1.00 54.36 LIG-0.27  OA
ATOM     13  N   HIS F 314      29.397  51.998  -5.955  1.00 57.06 LIG-0.35  N 
ATOM     14 H    HIS F 314      29.999  51.510  -6.329  1.00 57.06 LIG 0.16  HD
BRANCH 13 15
ATOM     15  CA  HIS F 314      28.244  51.225  -5.466  1.00 57.78 LIG 0.17  C 
BRANCH 15 16
ATOM     16  CB  HIS F 314      28.394  50.888  -3.974  1.00 57.79 LIG 0.09  C 
BRANCH 16 17
ATOM     17  CG  HIS F 314      29.164  49.631  -3.710  1.00 61.61 LIG 0.06  A 
ATOM     18  CD2 HIS F 314      29.877  49.230  -2.629  1.00 62.97 LIG 0.14  A 
ATOM     19 NE2  HIS F 314      30.383  47.984  -2.914  1.00 63.36 LIG-0.25  NA
ATOM     20  CE1 HIS F 314      29.994  47.628  -4.126  1.00 61.50 LIG 0.23  A 
ATOM     21 ND1  HIS F 314      29.258  48.604  -4.629  1.00 63.00 LIG-0.24  NA
ENDBRANCH 16 17
ENDBRANCH 15 16
BRANCH 15 22
ATOM     22  C   HIS F 314      26.912  51.940  -5.721  1.00 59.91 LIG 0.22  C 
ATOM     23 O    HIS F 314      26.709  52.552  -6.775  1.00 59.00 LIG-0.29  OA
ENDBRANCH 15 22
ENDBRANCH 13 15
ENDBRANCH 10 11
BRANCH 10 24
ATOM     24  CB  LYS F 313      30.561  54.315  -7.922  1.00 49.70 LIG 0.04  C 
BRANCH 24 25
ATOM     25  CG  LYS F 313      29.791  53.263  -8.705  1.00 49.89 LIG 0.00  C 
BRANCH 25 26
ATOM     26  CD  LYS F 313      29.749  53.564 -10.195  1.00 49.58 LIG 0.03  C 
BRANCH 26 27
ATOM     27  CE  LYS F 313      30.299  52.397 -11.003  1.00 48.23 LIG 0.23  C 
BRANCH 27 28
ATOM     28  NZ  LYS F 313      30.967  52.862 -12.242  1.00 47.83 LIG-0.08  N 
ATOM     29 HZ2  LYS F 313      30.383  52.860 -12.914  1.00 47.83 LIG 0.27  HD
ATOM     30 HZ1  LYS F 313      31.644  52.318 -12.436  1.00 47.83 LIG 0.27  HD
ATOM     31 HZ3  LYS F 313      31.277  53.688 -12.121  1.00 47.83 LIG 0.27  HD
ENDBRANCH 27 28
ENDBRANCH 26 27
ENDBRANCH 25 26
ENDBRANCH 24 25
ENDBRANCH 10 24
ENDBRANCH 7 10
ENDBRANCH 5 6
BRANCH 5 32
ATOM     32  CB  THR F 312      32.966  50.629  -4.477  1.00 41.09 LIG 0.15  C 
ATOM     33  CG2 THR F 312      33.129  50.717  -2.970  1.00 40.88 LIG 0.04  C 
BRANCH 32 34
ATOM     34 OG1  THR F 312      31.572  50.636  -4.806  1.00 43.07 LIG-0.39  OA
ATOM     35 HG1  THR F 312      31.479  50.756  -5.632  1.00 43.07 LIG 0.21  HD
ENDBRANCH 32 34
ENDBRANCH 5 32
ENDBRANCH 3 5
BRANCH 1 36
ATOM     36  CA  TYR F 311      37.177  52.773  -4.108  1.00 39.31 LIG 0.18  C 
BRANCH 36 37
ATOM     37  N   TYR F 311      38.500  52.234  -4.419  1.00 40.62 LIG-0.35  N 
ATOM     38 H    TYR F 311      38.719  52.280  -5.250  1.00 40.62 LIG 0.16  HD
ATOM     39  C   GLU F 310      39.277  51.720  -3.470  1.00 41.86 LIG 0.24  C 
ATOM     40 O    GLU F 310      38.894  51.581  -2.318  1.00 41.90 LIG-0.27  OA
BRANCH 39 41
ATOM     41  CA  GLU F 310      40.679  51.269  -3.874  1.00 43.14 LIG 0.18  C 
BRANCH 41 42
ATOM     42  CB  GLU F 310      41.661  51.632  -2.757  1.00 44.06 LIG 0.04  C 
BRANCH 42 43
ATOM     43  CG  GLU F 310      42.854  50.696  -2.660  1.00 45.60 LIG 0.12  C 
BRANCH 43 44
ATOM     44  CD  GLU F 310      43.218  50.042  -3.985  1.00 46.85 LIG 0.17  C 
ATOM     45 OE2  GLU F 310      43.135  48.796  -4.060  1.00 47.09 LIG-0.65  OA
ATOM     46 OE1  GLU F 310      43.601  50.759  -4.941  1.00 45.53 LIG-0.65  OA
ENDBRANCH 43 44
ENDBRANCH 42 43
ENDBRANCH 41 42
BRANCH 41 47
ATOM     47  N   GLU F 310      41.084  51.899  -5.141  1.00 43.23 LIG-0.35  N 
ATOM     48  C   VAL F 309      41.549  53.151  -5.224  1.00 44.16 LIG 0.26  C 
ATOM     49 O    VAL F 309      41.645  53.909  -4.257  1.00 43.83 LIG-0.27  OA
ATOM     50 H    GLU F 310      40.993  51.387  -5.825  1.00 43.23 LIG 0.16  HD
BRANCH 48 51
ATOM     51  CA  VAL F 309      41.976  53.632  -6.617  1.00 44.86 LIG 0.40  C 
ATOM     52  N   VAL F 309      43.101  52.787  -7.117  1.00 44.58 LIG 0.61  N 
BRANCH 51 53
ATOM     53  CB  VAL F 309      40.784  53.612  -7.618  1.00 44.54 LIG 0.03  C 
ATOM     54  CG2 VAL F 309      41.031  54.599  -8.753  1.00 44.44 LIG 0.01  C 
ATOM     55  CG1 VAL F 309      39.448  53.905  -6.938  1.00 43.50 LIG 0.01  C 
ENDBRANCH 51 53
ENDBRANCH 48 51
ENDBRANCH 41 47
ENDBRANCH 39 41
ENDBRANCH 36 37
BRANCH 36 56
ATOM     56  CB  TYR F 311      37.191  54.296  -4.271  1.00 38.48 LIG 0.07  C 
BRANCH 56 57
ATOM     57  CG  TYR F 311      38.334  54.961  -3.535  1.00 36.48 LIG-0.06  A 
ATOM     58  CD1 TYR F 311      39.179  55.853  -4.187  1.00 35.51 LIG 0.01  A 
ATOM     59  CE1 TYR F 311      40.229  56.464  -3.521  1.00 35.35 LIG 0.04  A 
ATOM     60  CZ  TYR F 311      40.452  56.175  -2.194  1.00 34.90 LIG 0.07  A 
ATOM     61  CE2 TYR F 311      39.634  55.290  -1.520  1.00 36.46 LIG 0.04  A 
ATOM     62  CD2 TYR F 311      38.584  54.681  -2.190  1.00 36.25 LIG 0.01  A 
BRANCH 60 63
ATOM     63 OH   TYR F 311      41.493  56.771  -1.540  1.00 38.07 LIG-0.36  OA
ATOM     64 HH   TYR F 311      41.195  57.337  -0.994  1.00 38.07 LIG 0.22  HD
ENDBRANCH 60 63
ENDBRANCH 56 57
ENDBRANCH 36 56
ENDBRANCH 1 36
TORSDOF 27
ENDMDL
MODEL 19
USER: ADFR SOLUTION from run 170
USER: SCORE 19.517132 LL:  -5.828 LR: -14.857 RR:   0.000 FEB:  -6.803
USER: RMSD 9.136091
USER: SEED 169
USER: STATUS no improvement in best in 17 clusters for 5 generations
USER: GENES 29
USER: genes 0 Translation |==|  0.32652 0.60404 0.31611
USER: genes 1 Rotation |==|  0.94394 0.66910 0.61942 0.60031
USER: genes 2 Torsion [C]-N--CA-[C] |==|  0.79930
USER: genes 3 Torsion [N]-CA--C-[N] |==|  0.93889
USER: genes 4 Torsion [C]-N--CA-[C] |==|  0.54812
USER: genes 5 Torsion [N]-CA--C-[N] |==|  0.43980
USER: genes 6 Torsion [C]-N--CA-[CB] |==|  0.77842
USER: genes 7 Torsion [N]-CA--CB-[CG] |==|  0.22089
USER: genes 8 Torsion [CA]-CB--CG-[CD2] |==|  0.24069
USER: genes 9 Torsion [N]-CA--C-[O] |==|  0.20695
USER: genes 10 Torsion [N]-CA--CB-[CG] |==|  0.44858
USER: genes 11 Torsion [CA]-CB--CG-[CD] |==|  0.69516
USER: genes 12 Torsion [CB]-CG--CD-[CE] |==|  0.53686
USER: genes 13 Torsion [CG]-CD--CE-[NZ] |==|  0.26535
USER: genes 14 Torsion [CD]-CE--NZ-[HZ2] |==|  0.33859
USER: genes 15 Torsion [N]-CA--CB-[CG2] |==|  0.59511
USER: genes 16 Torsion [CA]-CB--OG1-[HG1] |==|  0.18640
USER: genes 17 Torsion [N]-C--CA-[N] |==|  0.53462
USER: genes 18 Torsion [C]-CA--N-[C] |==|  0.15666
USER: genes 19 Torsion [N]-C--CA-[N] |==|  0.88394
USER: genes 20 Torsion [C]-CA--CB-[CG] |==|  0.03024
USER: genes 21 Torsion [CA]-CB--CG-[CD] |==|  0.27818
USER: genes 22 Torsion [CB]-CG--CD-[OE2] |==|  0.68115
USER: genes 23 Torsion [C]-CA--N-[C] |==|  0.84216
USER: genes 24 Torsion [N]-C--CA-[N] |==|  0.36923
USER: genes 25 Torsion [C]-CA--CB-[CG2] |==|  0.08160
USER: genes 26 Torsion [C]-CA--CB-[CG] |==|  0.39620
USER: genes 27 Torsion [CA]-CB--CG-[CD1] |==|  0.85275
USER: genes 28 Torsion [CE1]-CZ--OH-[HH] |==|  0.95394
ROOT
ATOM      1  C   TYR F 311      31.194  54.141  -6.896  1.00 39.57 LIG 0.24  C 
ATOM      2 O    TYR F 311      30.342  55.033  -6.913  1.00 35.87 LIG-0.27  OA
ATOM      3  N   THR F 312      31.337  53.237  -7.863  1.00 39.28 LIG-0.34  N 
ATOM      4 H    THR F 312      31.959  52.644  -7.861  1.00 39.28 LIG 0.16  HD
ENDROOT
BRANCH 3 5
ATOM      5  CA  THR F 312      30.459  53.156  -9.023  1.00 41.67 LIG 0.20  C 
BRANCH 5 6
ATOM      6  C   THR F 312      29.093  52.614  -8.632  1.00 45.40 LIG 0.24  C 
ATOM      7  N   LYS F 313      29.048  51.908  -7.514  1.00 48.10 LIG-0.35  N 
ATOM      8 H    LYS F 313      29.743  51.685  -7.061  1.00 48.10 LIG 0.16  HD
ATOM      9 O    THR F 312      28.095  52.856  -9.308  1.00 48.99 LIG-0.27  OA
BRANCH 7 10
ATOM     10  CA  LYS F 313      27.791  51.441  -6.948  1.00 51.61 LIG 0.18  C 
BRANCH 10 11
ATOM     11  C   LYS F 313      28.003  51.048  -5.481  1.00 54.92 LIG 0.24  C 
ATOM     12 O    LYS F 313      29.133  50.778  -5.060  1.00 54.36 LIG-0.27  OA
ATOM     13  N   HIS F 314      26.904  51.036  -4.720  1.00 57.06 LIG-0.35  N 
ATOM     14 H    HIS F 314      26.122  51.215  -5.032  1.00 57.06 LIG 0.16  HD
BRANCH 13 15
ATOM     15  CA  HIS F 314      26.898  50.722  -3.283  1.00 57.78 LIG 0.17  C 
BRANCH 15 16
ATOM     16  CB  HIS F 314      26.956  49.205  -3.045  1.00 57.79 LIG 0.09  C 
BRANCH 16 17
ATOM     17  CG  HIS F 314      28.329  48.621  -3.180  1.00 61.61 LIG 0.06  A 
ATOM     18  CD2 HIS F 314      29.335  48.488  -2.283  1.00 62.97 LIG 0.14  A 
ATOM     19 NE2  HIS F 314      30.383  47.879  -2.933  1.00 63.36 LIG-0.25  NA
ATOM     20  CE1 HIS F 314      30.033  47.643  -4.185  1.00 61.50 LIG 0.23  A 
ATOM     21 ND1  HIS F 314      28.799  48.082  -4.362  1.00 63.00 LIG-0.24  NA
ENDBRANCH 16 17
ENDBRANCH 15 16
BRANCH 15 22
ATOM     22  C   HIS F 314      28.032  51.424  -2.527  1.00 59.91 LIG 0.22  C 
ATOM     23 O    HIS F 314      27.980  52.635  -2.282  1.00 59.00 LIG-0.29  OA
ENDBRANCH 15 22
ENDBRANCH 13 15
ENDBRANCH 10 11
BRANCH 10 24
ATOM     24  CB  LYS F 313      27.232  50.270  -7.764  1.00 49.70 LIG 0.04  C 
BRANCH 24 25
ATOM     25  CG  LYS F 313      26.193  49.453  -7.009  1.00 49.89 LIG 0.00  C 
BRANCH 25 26
ATOM     26  CD  LYS F 313      26.706  48.074  -6.628  1.00 49.58 LIG 0.03  C 
BRANCH 26 27
ATOM     27  CE  LYS F 313      25.565  47.174  -6.174  1.00 48.23 LIG 0.23  C 
BRANCH 27 28
ATOM     28  NZ  LYS F 313      25.063  46.331  -7.285  1.00 47.83 LIG-0.08  N 
ATOM     29 HZ2  LYS F 313      25.133  45.472  -7.061  1.00 47.83 LIG 0.27  HD
ATOM     30 HZ1  LYS F 313      25.544  46.487  -8.017  1.00 47.83 LIG 0.27  HD
ATOM     31 HZ3  LYS F 313      24.209  46.526  -7.445  1.00 47.83 LIG 0.27  HD
ENDBRANCH 27 28
ENDBRANCH 26 27
ENDBRANCH 25 26
ENDBRANCH 24 25
ENDBRANCH 10 24
ENDBRANCH 7 10
ENDBRANCH 5 6
BRANCH 5 32
ATOM     32  CB  THR F 312      31.026  52.193 -10.081  1.00 41.09 LIG 0.15  C 
ATOM     33  CG2 THR F 312      30.699  52.666 -11.487  1.00 40.88 LIG 0.04  C 
BRANCH 32 34
ATOM     34 OG1  THR F 312      32.446  52.114  -9.924  1.00 43.07 LIG-0.39  OA
ATOM     35 HG1  THR F 312      32.628  51.739  -9.194  1.00 43.07 LIG 0.21  HD
ENDBRANCH 32 34
ENDBRANCH 5 32
ENDBRANCH 3 5
BRANCH 1 36
ATOM     36  CA  TYR F 311      32.155  53.987  -5.715  1.00 39.31 LIG 0.18  C 
BRANCH 36 37
ATOM     37  N   TYR F 311      31.779  54.803  -4.562  1.00 40.62 LIG-0.35  N 
ATOM     38 H    TYR F 311      32.391  55.344  -4.292  1.00 40.62 LIG 0.16  HD
ATOM     39  C   GLU F 310      30.579  54.694  -4.000  1.00 41.86 LIG 0.24  C 
ATOM     40 O    GLU F 310      29.771  53.846  -4.347  1.00 41.90 LIG-0.27  OA
BRANCH 39 41
ATOM     41  CA  GLU F 310      30.244  55.655  -2.861  1.00 43.14 LIG 0.18  C 
BRANCH 41 42
ATOM     42  CB  GLU F 310      29.836  57.007  -3.455  1.00 44.06 LIG 0.04  C 
BRANCH 42 43
ATOM     43  CG  GLU F 310      29.614  56.975  -4.958  1.00 45.60 LIG 0.12  C 
BRANCH 43 44
ATOM     44  CD  GLU F 310      28.146  56.891  -5.350  1.00 46.85 LIG 0.17  C 
ATOM     45 OE2  GLU F 310      27.759  55.855  -5.935  1.00 47.09 LIG-0.65  OA
ATOM     46 OE1  GLU F 310      27.384  57.855  -5.095  1.00 45.53 LIG-0.65  OA
ENDBRANCH 43 44
ENDBRANCH 42 43
ENDBRANCH 41 42
BRANCH 41 47
ATOM     47  N   GLU F 310      31.395  55.815  -1.958  1.00 43.23 LIG-0.35  N 
ATOM     48  C   VAL F 309      31.990  54.791  -1.336  1.00 44.16 LIG 0.26  C 
ATOM     49 O    VAL F 309      31.607  53.622  -1.427  1.00 43.83 LIG-0.27  OA
ATOM     50 H    GLU F 310      31.651  56.631  -1.867  1.00 43.23 LIG 0.16  HD
BRANCH 48 51
ATOM     51  CA  VAL F 309      33.212  55.130  -0.473  1.00 44.86 LIG 0.40  C 
ATOM     52  N   VAL F 309      33.094  54.455   0.854  1.00 44.58 LIG 0.61  N 
BRANCH 51 53
ATOM     53  CB  VAL F 309      34.539  54.729  -1.180  1.00 44.54 LIG 0.03  C 
ATOM     54  CG2 VAL F 309      34.374  54.804  -2.694  1.00 44.44 LIG 0.01  C 
ATOM     55  CG1 VAL F 309      35.022  53.341  -0.765  1.00 43.50 LIG 0.01  C 
ENDBRANCH 51 53
ENDBRANCH 48 51
ENDBRANCH 41 47
ENDBRANCH 39 41
ENDBRANCH 36 37
BRANCH 36 56
ATOM     56  CB  TYR F 311      32.205  52.511  -5.306  1.00 38.48 LIG 0.07  C 
BRANCH 56 57
ATOM     57  CG  TYR F 311      33.586  52.060  -4.884  1.00 36.48 LIG-0.06  A 
ATOM     58  CD1 TYR F 311      34.687  52.265  -5.710  1.00 35.51 LIG 0.01  A 
ATOM     59  CE1 TYR F 311      35.954  51.852  -5.331  1.00 35.35 LIG 0.04  A 
ATOM     60  CZ  TYR F 311      36.129  51.215  -4.125  1.00 34.90 LIG 0.07  A 
ATOM     61  CE2 TYR F 311      35.056  50.992  -3.284  1.00 36.46 LIG 0.04  A 
ATOM     62  CD2 TYR F 311      33.789  51.407  -3.666  1.00 36.25 LIG 0.01  A 
BRANCH 60 63
ATOM     63 OH   TYR F 311      37.379  50.801  -3.755  1.00 38.07 LIG-0.36  OA
ATOM     64 HH   TYR F 311      37.881  50.790  -4.429  1.00 38.07 LIG 0.22  HD
ENDBRANCH 60 63
ENDBRANCH 56 57
ENDBRANCH 36 56
ENDBRANCH 1 36
TORSDOF 27
ENDMDL
MODEL 20
USER: ADFR SOLUTION from run 170
USER: SCORE 19.003625 LL:  -4.792 LR: -14.817 RR:   0.000 FEB:  -6.763
USER: RMSD 9.798762
USER: SEED 169
USER: STATUS no improvement in best in 17 clusters for 5 generations
USER: GENES 29
USER: genes 0 Translation |==|  0.31662 0.59625 0.31957
USER: genes 1 Rotation |==|  0.92617 0.71199 0.63905 0.56406
USER: genes 2 Torsion [C]-N--CA-[C] |==|  0.83487
USER: genes 3 Torsion [N]-CA--C-[N] |==|  0.92635
USER: genes 4 Torsion [C]-N--CA-[C] |==|  0.82268
USER: genes 5 Torsion [N]-CA--C-[N] |==|  0.42063
USER: genes 6 Torsion [C]-N--CA-[CB] |==|  0.33062
USER: genes 7 Torsion [N]-CA--CB-[CG] |==|  0.02537
USER: genes 8 Torsion [CA]-CB--CG-[CD2] |==|  0.29428
USER: genes 9 Torsion [N]-CA--C-[O] |==|  0.13746
USER: genes 10 Torsion [N]-CA--CB-[CG] |==|  0.62910
USER: genes 11 Torsion [CA]-CB--CG-[CD] |==|  0.02189
USER: genes 12 Torsion [CB]-CG--CD-[CE] |==|  0.57708
USER: genes 13 Torsion [CG]-CD--CE-[NZ] |==|  0.64722
USER: genes 14 Torsion [CD]-CE--NZ-[HZ2] |==|  0.34929
USER: genes 15 Torsion [N]-CA--CB-[CG2] |==|  0.59581
USER: genes 16 Torsion [CA]-CB--OG1-[HG1] |==|  0.14077
USER: genes 17 Torsion [N]-C--CA-[N] |==|  0.48310
USER: genes 18 Torsion [C]-CA--N-[C] |==|  0.83333
USER: genes 19 Torsion [N]-C--CA-[N] |==|  0.46784
USER: genes 20 Torsion [C]-CA--CB-[CG] |==|  0.96291
USER: genes 21 Torsion [CA]-CB--CG-[CD] |==|  0.75495
USER: genes 22 Torsion [CB]-CG--CD-[OE2] |==|  0.41263
USER: genes 23 Torsion [C]-CA--N-[C] |==|  0.77289
USER: genes 24 Torsion [N]-C--CA-[N] |==|  0.35604
USER: genes 25 Torsion [C]-CA--CB-[CG2] |==|  0.05119
USER: genes 26 Torsion [C]-CA--CB-[CG] |==|  0.38611
USER: genes 27 Torsion [CA]-CB--CG-[CD1] |==|  0.85479
USER: genes 28 Torsion [CE1]-CZ--OH-[HH] |==|  0.99158
ROOT
ATOM      1  C   TYR F 311      30.919  53.989  -6.828  1.00 39.57 LIG 0.24  C 
ATOM      2 O    TYR F 311      29.888  54.664  -6.769  1.00 35.87 LIG-0.27  OA
ATOM      3  N   THR F 312      31.254  53.241  -7.878  1.00 39.28 LIG-0.34  N 
ATOM      4 H    THR F 312      31.994  52.806  -7.925  1.00 39.28 LIG 0.16  HD
ENDROOT
BRANCH 3 5
ATOM      5  CA  THR F 312      30.408  53.081  -9.053  1.00 41.67 LIG 0.20  C 
BRANCH 5 6
ATOM      6  C   THR F 312      29.061  52.486  -8.673  1.00 45.40 LIG 0.24  C 
ATOM      7  N   LYS F 313      29.045  51.737  -7.583  1.00 48.10 LIG-0.35  N 
ATOM      8 H    LYS F 313      29.750  51.517  -7.144  1.00 48.10 LIG 0.16  HD
ATOM      9 O    THR F 312      28.051  52.725  -9.332  1.00 48.99 LIG-0.27  OA
BRANCH 7 10
ATOM     10  CA  LYS F 313      27.806  51.213  -7.027  1.00 51.61 LIG 0.18  C 
BRANCH 10 11
ATOM     11  C   LYS F 313      26.917  52.376  -6.568  1.00 54.92 LIG 0.24  C 
ATOM     12 O    LYS F 313      27.419  53.447  -6.210  1.00 54.36 LIG-0.27  OA
ATOM     13  N   HIS F 314      25.601  52.146  -6.601  1.00 57.06 LIG-0.35  N 
ATOM     14 H    HIS F 314      25.267  51.390  -6.841  1.00 57.06 LIG 0.16  HD
BRANCH 13 15
ATOM     15  CA  HIS F 314      24.579  53.141  -6.235  1.00 57.78 LIG 0.17  C 
BRANCH 15 16
ATOM     16  CB  HIS F 314      23.654  53.449  -7.423  1.00 57.79 LIG 0.09  C 
BRANCH 16 17
ATOM     17  CG  HIS F 314      23.845  52.536  -8.595  1.00 61.61 LIG 0.06  A 
ATOM     18  CD2 HIS F 314      23.086  51.517  -9.067  1.00 62.97 LIG 0.14  A 
ATOM     19 NE2  HIS F 314      23.725  51.013 -10.175  1.00 63.36 LIG-0.25  NA
ATOM     20  CE1 HIS F 314      24.837  51.697 -10.379  1.00 61.50 LIG 0.23  A 
ATOM     21 ND1  HIS F 314      24.935  52.622  -9.439  1.00 63.00 LIG-0.24  NA
ENDBRANCH 16 17
ENDBRANCH 15 16
BRANCH 15 22
ATOM     22  C   HIS F 314      23.757  52.712  -5.014  1.00 59.91 LIG 0.22  C 
ATOM     23 O    HIS F 314      24.309  52.317  -3.981  1.00 59.00 LIG-0.29  OA
ENDBRANCH 15 22
ENDBRANCH 13 15
ENDBRANCH 10 11
BRANCH 10 24
ATOM     24  CB  LYS F 313      28.096  50.245  -5.875  1.00 49.70 LIG 0.04  C 
BRANCH 24 25
ATOM     25  CG  LYS F 313      27.296  48.953  -5.960  1.00 49.89 LIG 0.00  C 
BRANCH 25 26
ATOM     26  CD  LYS F 313      26.532  48.831  -7.269  1.00 49.58 LIG 0.03  C 
BRANCH 26 27
ATOM     27  CE  LYS F 313      25.284  47.977  -7.093  1.00 48.23 LIG 0.23  C 
BRANCH 27 28
ATOM     28  NZ  LYS F 313      25.233  46.879  -8.088  1.00 47.83 LIG-0.08  N 
ATOM     29 HZ2  LYS F 313      25.135  46.101  -7.666  1.00 47.83 LIG 0.27  HD
ATOM     30 HZ1  LYS F 313      25.989  46.869  -8.558  1.00 47.83 LIG 0.27  HD
ATOM     31 HZ3  LYS F 313      24.544  47.007  -8.637  1.00 47.83 LIG 0.27  HD
ENDBRANCH 27 28
ENDBRANCH 26 27
ENDBRANCH 25 26
ENDBRANCH 24 25
ENDBRANCH 10 24
ENDBRANCH 7 10
ENDBRANCH 5 6
BRANCH 5 32
ATOM     32  CB  THR F 312      31.044  52.114 -10.067  1.00 41.09 LIG 0.15  C 
ATOM     33  CG2 THR F 312      30.732  52.529 -11.494  1.00 40.88 LIG 0.04  C 
BRANCH 32 34
ATOM     34 OG1  THR F 312      32.462  52.104  -9.873  1.00 43.07 LIG-0.39  OA
ATOM     35 HG1  THR F 312      32.634  51.976  -9.061  1.00 43.07 LIG 0.21  HD
ENDBRANCH 32 34
ENDBRANCH 5 32
ENDBRANCH 3 5
BRANCH 1 36
ATOM     36  CA  TYR F 311      31.900  53.938  -5.655  1.00 39.31 LIG 0.18  C 
BRANCH 36 37
ATOM     37  N   TYR F 311      31.564  54.880  -4.588  1.00 40.62 LIG-0.35  N 
ATOM     38 H    TYR F 311      31.410  54.515  -3.824  1.00 40.62 LIG 0.16  HD
ATOM     39  C   GLU F 310      31.508  56.189  -4.814  1.00 41.86 LIG 0.24  C 
ATOM     40 O    GLU F 310      31.634  56.663  -5.933  1.00 41.90 LIG-0.27  OA
BRANCH 39 41
ATOM     41  CA  GLU F 310      31.243  57.101  -3.618  1.00 43.14 LIG 0.18  C 
BRANCH 41 42
ATOM     42  CB  GLU F 310      29.798  56.903  -3.152  1.00 44.06 LIG 0.04  C 
BRANCH 42 43
ATOM     43  CG  GLU F 310      28.932  56.143  -4.143  1.00 45.60 LIG 0.12  C 
BRANCH 43 44
ATOM     44  CD  GLU F 310      28.261  57.042  -5.172  1.00 46.85 LIG 0.17  C 
ATOM     45 OE2  GLU F 310      28.053  56.566  -6.310  1.00 47.09 LIG-0.65  OA
ATOM     46 OE1  GLU F 310      27.957  58.218  -4.858  1.00 45.53 LIG-0.65  OA
ENDBRANCH 43 44
ENDBRANCH 42 43
ENDBRANCH 41 42
BRANCH 41 47
ATOM     47  N   GLU F 310      31.482  58.508  -3.973  1.00 43.23 LIG-0.35  N 
ATOM     48  C   VAL F 309      32.698  59.067  -3.988  1.00 44.16 LIG 0.26  C 
ATOM     49 O    VAL F 309      33.728  58.469  -3.668  1.00 43.83 LIG-0.27  OA
ATOM     50 H    GLU F 310      30.765  58.941  -4.170  1.00 43.23 LIG 0.16  HD
BRANCH 48 51
ATOM     51  CA  VAL F 309      32.772  60.533  -4.435  1.00 44.86 LIG 0.40  C 
ATOM     52  N   VAL F 309      33.521  61.331  -3.419  1.00 44.58 LIG 0.61  N 
BRANCH 51 53
ATOM     53  CB  VAL F 309      33.432  60.668  -5.839  1.00 44.54 LIG 0.03  C 
ATOM     54  CG2 VAL F 309      33.405  59.329  -6.566  1.00 44.44 LIG 0.01  C 
ATOM     55  CG1 VAL F 309      34.859  61.204  -5.761  1.00 43.50 LIG 0.01  C 
ENDBRANCH 51 53
ENDBRANCH 48 51
ENDBRANCH 41 47
ENDBRANCH 39 41
ENDBRANCH 36 37
BRANCH 36 56
ATOM     56  CB  TYR F 311      31.927  52.513  -5.094  1.00 38.48 LIG 0.07  C 
BRANCH 56 57
ATOM     57  CG  TYR F 311      33.320  52.045  -4.731  1.00 36.48 LIG-0.06  A 
ATOM     58  CD1 TYR F 311      34.361  52.126  -5.651  1.00 35.51 LIG 0.01  A 
ATOM     59  CE1 TYR F 311      35.639  51.698  -5.328  1.00 35.35 LIG 0.04  A 
ATOM     60  CZ  TYR F 311      35.883  51.170  -4.081  1.00 34.90 LIG 0.07  A 
ATOM     61  CE2 TYR F 311      34.870  51.071  -3.147  1.00 36.46 LIG 0.04  A 
ATOM     62  CD2 TYR F 311      33.593  51.502  -3.475  1.00 36.25 LIG 0.01  A 
BRANCH 60 63
ATOM     63 OH   TYR F 311      37.142  50.740  -3.765  1.00 38.07 LIG-0.36  OA
ATOM     64 HH   TYR F 311      37.642  50.822  -4.435  1.00 38.07 LIG 0.22  HD
ENDBRANCH 60 63
ENDBRANCH 56 57
ENDBRANCH 36 56
ENDBRANCH 1 36
TORSDOF 27
ENDMDL
MODEL 21
USER: ADFR SOLUTION from run 8
USER: SCORE 18.955312 LL:  -5.076 LR: -14.762 RR:   0.000 FEB:  -6.708
USER: RMSD 6.960078
USER: SEED 870094
USER: STATUS searching
USER: GENES 29
USER: genes 0 Translation |==|  0.40418 0.44226 0.44835
USER: genes 1 Rotation |==|  0.77932 0.46679 0.41526 0.90459
USER: genes 2 Torsion [C]-N--CA-[C] |==|  0.78758
USER: genes 3 Torsion [N]-CA--C-[N] |==|  0.20148
USER: genes 4 Torsion [C]-N--CA-[C] |==|  0.83467
USER: genes 5 Torsion [N]-CA--C-[N] |==|  0.90507
USER: genes 6 Torsion [C]-N--CA-[CB] |==|  0.83741
USER: genes 7 Torsion [N]-CA--CB-[CG] |==|  0.74924
USER: genes 8 Torsion [CA]-CB--CG-[CD2] |==|  0.39247
USER: genes 9 Torsion [N]-CA--C-[O] |==|  0.04424
USER: genes 10 Torsion [N]-CA--CB-[CG] |==|  0.29691
USER: genes 11 Torsion [CA]-CB--CG-[CD] |==|  0.71318
USER: genes 12 Torsion [CB]-CG--CD-[CE] |==|  0.46082
USER: genes 13 Torsion [CG]-CD--CE-[NZ] |==|  0.36899
USER: genes 14 Torsion [CD]-CE--NZ-[HZ2] |==|  0.90288
USER: genes 15 Torsion [N]-CA--CB-[CG2] |==|  0.58715
USER: genes 16 Torsion [CA]-CB--OG1-[HG1] |==|  0.11584
USER: genes 17 Torsion [N]-C--CA-[N] |==|  0.53148
USER: genes 18 Torsion [C]-CA--N-[C] |==|  0.67163
USER: genes 19 Torsion [N]-C--CA-[N] |==|  0.44720
USER: genes 20 Torsion [C]-CA--CB-[CG] |==|  0.11667
USER: genes 21 Torsion [CA]-CB--CG-[CD] |==|  0.61030
USER: genes 22 Torsion [CB]-CG--CD-[OE2] |==|  0.22401
USER: genes 23 Torsion [C]-CA--N-[C] |==|  0.78093
USER: genes 24 Torsion [N]-C--CA-[N] |==|  0.64517
USER: genes 25 Torsion [C]-CA--CB-[CG2] |==|  0.56405
USER: genes 26 Torsion [C]-CA--CB-[CG] |==|  0.25827
USER: genes 27 Torsion [CA]-CB--CG-[CD1] |==|  0.16878
USER: genes 28 Torsion [CE1]-CZ--OH-[HH] |==|  0.40618
ROOT
ATOM      1  C   TYR F 311      33.349  50.986  -4.317  1.00 39.57 LIG 0.24  C 
ATOM      2 O    TYR F 311      33.380  51.192  -5.533  1.00 35.87 LIG-0.27  OA
ATOM      3  N   THR F 312      32.321  50.420  -3.689  1.00 39.28 LIG-0.34  N 
ATOM      4 H    THR F 312      32.325  50.245  -2.847  1.00 39.28 LIG 0.16  HD
ENDROOT
BRANCH 3 5
ATOM      5  CA  THR F 312      31.083  50.038  -4.357  1.00 41.67 LIG 0.20  C 
BRANCH 5 6
ATOM      6  C   THR F 312      30.217  51.258  -4.631  1.00 45.40 LIG 0.24  C 
ATOM      7  N   LYS F 313      30.637  52.063  -5.592  1.00 48.10 LIG-0.35  N 
ATOM      8 H    LYS F 313      31.389  51.972  -5.997  1.00 48.10 LIG 0.16  HD
ATOM      9 O    THR F 312      29.174  51.449  -4.009  1.00 48.99 LIG-0.27  OA
BRANCH 7 10
ATOM     10  CA  LYS F 313      29.842  53.193  -6.052  1.00 51.61 LIG 0.18  C 
BRANCH 10 11
ATOM     11  C   LYS F 313      28.493  52.690  -6.580  1.00 54.92 LIG 0.24  C 
ATOM     12 O    LYS F 313      27.472  53.374  -6.447  1.00 54.36 LIG-0.27  OA
ATOM     13  N   HIS F 314      28.516  51.499  -7.186  1.00 57.06 LIG-0.35  N 
ATOM     14 H    HIS F 314      29.233  51.029  -7.259  1.00 57.06 LIG 0.16  HD
BRANCH 13 15
ATOM     15  CA  HIS F 314      27.337  50.857  -7.790  1.00 57.78 LIG 0.17  C 
BRANCH 15 16
ATOM     16  CB  HIS F 314      26.222  50.653  -6.753  1.00 57.79 LIG 0.09  C 
BRANCH 16 17
ATOM     17  CG  HIS F 314      26.290  49.338  -6.039  1.00 61.61 LIG 0.06  A 
ATOM     18  CD2 HIS F 314      26.052  49.011  -4.745  1.00 62.97 LIG 0.14  A 
ATOM     19 NE2  HIS F 314      26.261  47.657  -4.623  1.00 63.36 LIG-0.25  NA
ATOM     20  CE1 HIS F 314      26.612  47.168  -5.799  1.00 61.50 LIG 0.23  A 
ATOM     21 ND1  HIS F 314      26.639  48.161  -6.672  1.00 63.00 LIG-0.24  NA
ENDBRANCH 16 17
ENDBRANCH 15 16
BRANCH 15 22
ATOM     22  C   HIS F 314      26.806  51.634  -9.000  1.00 59.91 LIG 0.22  C 
ATOM     23 O    HIS F 314      27.495  52.496  -9.557  1.00 59.00 LIG-0.29  OA
ENDBRANCH 15 22
ENDBRANCH 13 15
ENDBRANCH 10 11
BRANCH 10 24
ATOM     24  CB  LYS F 313      30.600  53.987  -7.122  1.00 49.70 LIG 0.04  C 
BRANCH 24 25
ATOM     25  CG  LYS F 313      30.043  53.787  -8.524  1.00 49.89 LIG 0.00  C 
BRANCH 25 26
ATOM     26  CD  LYS F 313      30.901  52.853  -9.361  1.00 49.58 LIG 0.03  C 
BRANCH 26 27
ATOM     27  CE  LYS F 313      30.157  52.401 -10.610  1.00 48.23 LIG 0.23  C 
BRANCH 27 28
ATOM     28  NZ  LYS F 313      31.005  52.523 -11.821  1.00 47.83 LIG-0.08  N 
ATOM     29 HZ2  LYS F 313      31.530  53.237 -11.745  1.00 47.83 LIG 0.27  HD
ATOM     30 HZ1  LYS F 313      30.486  52.610 -12.539  1.00 47.83 LIG 0.27  HD
ATOM     31 HZ3  LYS F 313      31.508  51.793 -11.906  1.00 47.83 LIG 0.27  HD
ENDBRANCH 27 28
ENDBRANCH 26 27
ENDBRANCH 25 26
ENDBRANCH 24 25
ENDBRANCH 10 24
ENDBRANCH 7 10
ENDBRANCH 5 6
BRANCH 5 32
ATOM     32  CB  THR F 312      30.245  49.095  -3.476  1.00 41.09 LIG 0.15  C 
ATOM     33  CG2 THR F 312      29.440  48.123  -4.320  1.00 40.88 LIG 0.04  C 
BRANCH 32 34
ATOM     34 OG1  THR F 312      31.123  48.363  -2.614  1.00 43.07 LIG-0.39  OA
ATOM     35 HG1  THR F 312      31.718  48.876  -2.316  1.00 43.07 LIG 0.21  HD
ENDBRANCH 32 34
ENDBRANCH 5 32
ENDBRANCH 3 5
BRANCH 1 36
ATOM     36  CA  TYR F 311      34.511  51.405  -3.414  1.00 39.31 LIG 0.18  C 
BRANCH 36 37
ATOM     37  N   TYR F 311      35.490  52.250  -4.097  1.00 40.62 LIG-0.35  N 
ATOM     38 H    TYR F 311      35.178  52.999  -4.383  1.00 40.62 LIG 0.16  HD
ATOM     39  C   GLU F 310      36.753  51.862  -4.246  1.00 41.86 LIG 0.24  C 
ATOM     40 O    GLU F 310      37.137  50.750  -3.915  1.00 41.90 LIG-0.27  OA
BRANCH 39 41
ATOM     41  CA  GLU F 310      37.723  52.851  -4.887  1.00 43.14 LIG 0.18  C 
BRANCH 41 42
ATOM     42  CB  GLU F 310      37.492  52.866  -6.401  1.00 44.06 LIG 0.04  C 
BRANCH 42 43
ATOM     43  CG  GLU F 310      36.025  52.847  -6.798  1.00 45.60 LIG 0.12  C 
BRANCH 43 44
ATOM     44  CD  GLU F 310      35.737  51.964  -8.004  1.00 46.85 LIG 0.17  C 
ATOM     45 OE2  GLU F 310      35.633  50.733  -7.810  1.00 47.09 LIG-0.65  OA
ATOM     46 OE1  GLU F 310      35.633  52.487  -9.140  1.00 45.53 LIG-0.65  OA
ENDBRANCH 43 44
ENDBRANCH 42 43
ENDBRANCH 41 42
BRANCH 41 47
ATOM     47  N   GLU F 310      39.116  52.487  -4.582  1.00 43.23 LIG-0.35  N 
ATOM     48  C   VAL F 309      39.707  52.756  -3.412  1.00 44.16 LIG 0.26  C 
ATOM     49 O    VAL F 309      39.157  53.368  -2.494  1.00 43.83 LIG-0.27  OA
ATOM     50 H    GLU F 310      39.516  52.084  -5.228  1.00 43.23 LIG 0.16  HD
BRANCH 48 51
ATOM     51  CA  VAL F 309      41.148  52.257  -3.243  1.00 44.86 LIG 0.40  C 
ATOM     52  N   VAL F 309      41.261  51.466  -1.981  1.00 44.58 LIG 0.61  N 
BRANCH 51 53
ATOM     53  CB  VAL F 309      41.606  51.411  -4.466  1.00 44.54 LIG 0.03  C 
ATOM     54  CG2 VAL F 309      42.747  50.482  -4.069  1.00 44.44 LIG 0.01  C 
ATOM     55  CG1 VAL F 309      42.016  52.280  -5.653  1.00 43.50 LIG 0.01  C 
ENDBRANCH 51 53
ENDBRANCH 48 51
ENDBRANCH 41 47
ENDBRANCH 39 41
ENDBRANCH 36 37
BRANCH 36 56
ATOM     56  CB  TYR F 311      33.950  52.148  -2.197  1.00 38.48 LIG 0.07  C 
BRANCH 56 57
ATOM     57  CG  TYR F 311      33.699  51.240  -1.013  1.00 36.48 LIG-0.06  A 
ATOM     58  CD1 TYR F 311      34.741  50.532  -0.424  1.00 35.51 LIG 0.01  A 
ATOM     59  CE1 TYR F 311      34.519  49.697   0.660  1.00 35.35 LIG 0.04  A 
ATOM     60  CZ  TYR F 311      33.244  49.552   1.155  1.00 34.90 LIG 0.07  A 
ATOM     61  CE2 TYR F 311      32.187  50.238   0.590  1.00 36.46 LIG 0.04  A 
ATOM     62  CD2 TYR F 311      32.413  51.073  -0.494  1.00 36.25 LIG 0.01  A 
BRANCH 60 63
ATOM     63 OH   TYR F 311      33.024  48.722   2.219  1.00 38.07 LIG-0.36  OA
ATOM     64 HH   TYR F 311      32.407  49.035   2.696  1.00 38.07 LIG 0.22  HD
ENDBRANCH 60 63
ENDBRANCH 56 57
ENDBRANCH 36 56
ENDBRANCH 1 36
TORSDOF 27
ENDMDL
MODEL 22
USER: ADFR SOLUTION from run 31
USER: SCORE 20.682991 LL:  -6.988 LR: -14.732 RR:   0.000 FEB:  -6.678
USER: RMSD 8.387817
USER: SEED 30
USER: STATUS no improvement in best in 7 clusters for 5 generations
USER: GENES 29
USER: genes 0 Translation |==|  0.30499 0.61960 0.31392
USER: genes 1 Rotation |==|  0.91793 0.60386 0.68160 0.67768
USER: genes 2 Torsion [C]-N--CA-[C] |==|  0.77806
USER: genes 3 Torsion [N]-CA--C-[N] |==|  0.89100
USER: genes 4 Torsion [C]-N--CA-[C] |==|  0.70954
USER: genes 5 Torsion [N]-CA--C-[N] |==|  0.92892
USER: genes 6 Torsion [C]-N--CA-[CB] |==|  0.42480
USER: genes 7 Torsion [N]-CA--CB-[CG] |==|  0.90581
USER: genes 8 Torsion [CA]-CB--CG-[CD2] |==|  0.69710
USER: genes 9 Torsion [N]-CA--C-[O] |==|  0.97241
USER: genes 10 Torsion [N]-CA--CB-[CG] |==|  0.27462
USER: genes 11 Torsion [CA]-CB--CG-[CD] |==|  0.48200
USER: genes 12 Torsion [CB]-CG--CD-[CE] |==|  0.83355
USER: genes 13 Torsion [CG]-CD--CE-[NZ] |==|  0.26713
USER: genes 14 Torsion [CD]-CE--NZ-[HZ2] |==|  0.16148
USER: genes 15 Torsion [N]-CA--CB-[CG2] |==|  0.53185
USER: genes 16 Torsion [CA]-CB--OG1-[HG1] |==|  0.18809
USER: genes 17 Torsion [N]-C--CA-[N] |==|  0.02603
USER: genes 18 Torsion [C]-CA--N-[C] |==|  0.57222
USER: genes 19 Torsion [N]-C--CA-[N] |==|  0.10352
USER: genes 20 Torsion [C]-CA--CB-[CG] |==|  0.50828
USER: genes 21 Torsion [CA]-CB--CG-[CD] |==|  0.21444
USER: genes 22 Torsion [CB]-CG--CD-[OE2] |==|  0.16034
USER: genes 23 Torsion [C]-CA--N-[C] |==|  0.15051
USER: genes 24 Torsion [N]-C--CA-[N] |==|  0.75872
USER: genes 25 Torsion [C]-CA--CB-[CG2] |==|  0.42395
USER: genes 26 Torsion [C]-CA--CB-[CG] |==|  0.19965
USER: genes 27 Torsion [CA]-CB--CG-[CD1] |==|  0.58086
USER: genes 28 Torsion [CE1]-CZ--OH-[HH] |==|  0.11605
ROOT
ATOM      1  C   TYR F 311      30.596  54.444  -6.939  1.00 39.57 LIG 0.24  C 
ATOM      2 O    TYR F 311      30.059  55.458  -7.390  1.00 35.87 LIG-0.27  OA
ATOM      3  N   THR F 312      30.866  53.363  -7.667  1.00 39.28 LIG-0.34  N 
ATOM      4 H    THR F 312      31.277  52.677  -7.352  1.00 39.28 LIG 0.16  HD
ENDROOT
BRANCH 3 5
ATOM      5  CA  THR F 312      30.496  53.227  -9.070  1.00 41.67 LIG 0.20  C 
BRANCH 5 6
ATOM      6  C   THR F 312      29.030  52.843  -9.208  1.00 45.40 LIG 0.24  C 
ATOM      7  N   LYS F 313      28.573  51.972  -8.324  1.00 48.10 LIG-0.35  N 
ATOM      8 H    LYS F 313      29.069  51.571  -7.748  1.00 48.10 LIG 0.16  HD
ATOM      9 O    THR F 312      28.319  53.348 -10.075  1.00 48.99 LIG-0.27  OA
BRANCH 7 10
ATOM     10  CA  LYS F 313      27.164  51.615  -8.252  1.00 51.61 LIG 0.18  C 
BRANCH 10 11
ATOM     11  C   LYS F 313      26.522  52.303  -7.040  1.00 54.92 LIG 0.24  C 
ATOM     12 O    LYS F 313      25.308  52.535  -7.020  1.00 54.36 LIG-0.27  OA
ATOM     13  N   HIS F 314      27.354  52.607  -6.039  1.00 57.06 LIG-0.35  N 
ATOM     14 H    HIS F 314      28.199  52.450  -6.074  1.00 57.06 LIG 0.16  HD
BRANCH 13 15
ATOM     15  CA  HIS F 314      26.932  53.236  -4.777  1.00 57.78 LIG 0.17  C 
BRANCH 15 16
ATOM     16  CB  HIS F 314      27.881  52.866  -3.627  1.00 57.79 LIG 0.09  C 
BRANCH 16 17
ATOM     17  CG  HIS F 314      28.446  51.482  -3.728  1.00 61.61 LIG 0.06  A 
ATOM     18  CD2 HIS F 314      28.207  50.364  -3.000  1.00 62.97 LIG 0.14  A 
ATOM     19 NE2  HIS F 314      28.997  49.365  -3.518  1.00 63.36 LIG-0.25  NA
ATOM     20  CE1 HIS F 314      29.696  49.849  -4.530  1.00 61.50 LIG 0.23  A 
ATOM     21 ND1  HIS F 314      29.384  51.125  -4.678  1.00 63.00 LIG-0.24  NA
ENDBRANCH 16 17
ENDBRANCH 15 16
BRANCH 15 22
ATOM     22  C   HIS F 314      26.808  54.759  -4.898  1.00 59.91 LIG 0.22  C 
ATOM     23 O    HIS F 314      27.219  55.355  -5.899  1.00 59.00 LIG-0.29  OA
ENDBRANCH 15 22
ENDBRANCH 13 15
ENDBRANCH 10 11
BRANCH 10 24
ATOM     24  CB  LYS F 313      26.994  50.093  -8.185  1.00 49.70 LIG 0.04  C 
BRANCH 24 25
ATOM     25  CG  LYS F 313      26.770  49.576  -6.771  1.00 49.89 LIG 0.00  C 
BRANCH 25 26
ATOM     26  CD  LYS F 313      26.448  48.090  -6.743  1.00 49.58 LIG 0.03  C 
BRANCH 26 27
ATOM     27  CE  LYS F 313      25.184  47.791  -7.538  1.00 48.23 LIG 0.23  C 
BRANCH 27 28
ATOM     28  NZ  LYS F 313      25.503  47.354  -8.918  1.00 47.83 LIG-0.08  N 
ATOM     29 HZ2  LYS F 313      26.021  46.632  -8.889  1.00 47.83 LIG 0.27  HD
ATOM     30 HZ1  LYS F 313      25.929  48.009  -9.346  1.00 47.83 LIG 0.27  HD
ATOM     31 HZ3  LYS F 313      24.748  47.161  -9.350  1.00 47.83 LIG 0.27  HD
ENDBRANCH 27 28
ENDBRANCH 26 27
ENDBRANCH 25 26
ENDBRANCH 24 25
ENDBRANCH 10 24
ENDBRANCH 7 10
ENDBRANCH 5 6
BRANCH 5 32
ATOM     32  CB  THR F 312      31.306  52.111  -9.752  1.00 41.09 LIG 0.15  C 
ATOM     33  CG2 THR F 312      31.133  52.149 -11.260  1.00 40.88 LIG 0.04  C 
BRANCH 32 34
ATOM     34 OG1  THR F 312      32.690  52.278  -9.428  1.00 43.07 LIG-0.39  OA
ATOM     35 HG1  THR F 312      32.807  52.128  -8.609  1.00 43.07 LIG 0.21  HD
ENDBRANCH 32 34
ENDBRANCH 5 32
ENDBRANCH 3 5
BRANCH 1 36
ATOM     36  CA  TYR F 311      30.977  54.342  -5.460  1.00 39.31 LIG 0.18  C 
BRANCH 36 37
ATOM     37  N   TYR F 311      31.769  53.152  -5.154  1.00 40.62 LIG-0.35  N 
ATOM     38 H    TYR F 311      32.223  52.844  -5.817  1.00 40.62 LIG 0.16  HD
ATOM     39  C   GLU F 310      31.766  52.613  -3.938  1.00 41.86 LIG 0.24  C 
ATOM     40 O    GLU F 310      31.033  53.018  -3.048  1.00 41.90 LIG-0.27  OA
BRANCH 39 41
ATOM     41  CA  GLU F 310      32.698  51.430  -3.689  1.00 43.14 LIG 0.18  C 
BRANCH 41 42
ATOM     42  CB  GLU F 310      32.945  51.298  -2.184  1.00 44.06 LIG 0.04  C 
BRANCH 42 43
ATOM     43  CG  GLU F 310      33.920  50.192  -1.816  1.00 45.60 LIG 0.12  C 
BRANCH 43 44
ATOM     44  CD  GLU F 310      35.375  50.564  -2.062  1.00 46.85 LIG 0.17  C 
ATOM     45 OE2  GLU F 310      35.821  51.579  -1.483  1.00 47.09 LIG-0.65  OA
ATOM     46 OE1  GLU F 310      36.067  49.863  -2.839  1.00 45.53 LIG-0.65  OA
ENDBRANCH 43 44
ENDBRANCH 42 43
ENDBRANCH 41 42
BRANCH 41 47
ATOM     47  N   GLU F 310      33.971  51.609  -4.406  1.00 43.23 LIG-0.35  N 
ATOM     48  C   VAL F 309      34.741  52.695  -4.278  1.00 44.16 LIG 0.26  C 
ATOM     49 O    VAL F 309      34.441  53.666  -3.580  1.00 43.83 LIG-0.27  OA
ATOM     50 H    GLU F 310      34.174  50.948  -4.918  1.00 43.23 LIG 0.16  HD
BRANCH 48 51
ATOM     51  CA  VAL F 309      36.062  52.694  -5.058  1.00 44.86 LIG 0.40  C 
ATOM     52  N   VAL F 309      37.126  52.035  -4.243  1.00 44.58 LIG 0.61  N 
BRANCH 51 53
ATOM     53  CB  VAL F 309      35.909  51.990  -6.438  1.00 44.54 LIG 0.03  C 
ATOM     54  CG2 VAL F 309      36.920  52.551  -7.431  1.00 44.44 LIG 0.01  C 
ATOM     55  CG1 VAL F 309      34.493  52.106  -6.996  1.00 43.50 LIG 0.01  C 
ENDBRANCH 51 53
ENDBRANCH 48 51
ENDBRANCH 41 47
ENDBRANCH 39 41
ENDBRANCH 36 37
BRANCH 36 56
ATOM     56  CB  TYR F 311      31.759  55.598  -5.062  1.00 38.48 LIG 0.07  C 
BRANCH 56 57
ATOM     57  CG  TYR F 311      30.892  56.835  -4.980  1.00 36.48 LIG-0.06  A 
ATOM     58  CD1 TYR F 311      31.423  58.096  -5.231  1.00 35.51 LIG 0.01  A 
ATOM     59  CE1 TYR F 311      30.636  59.234  -5.155  1.00 35.35 LIG 0.04  A 
ATOM     60  CZ  TYR F 311      29.308  59.120  -4.812  1.00 34.90 LIG 0.07  A 
ATOM     61  CE2 TYR F 311      28.752  57.883  -4.552  1.00 36.46 LIG 0.04  A 
ATOM     62  CD2 TYR F 311      29.543  56.747  -4.629  1.00 36.25 LIG 0.01  A 
BRANCH 60 63
ATOM     63 OH   TYR F 311      28.534  60.244  -4.730  1.00 38.07 LIG-0.36  OA
ATOM     64 HH   TYR F 311      28.714  60.756  -5.372  1.00 38.07 LIG 0.22  HD
ENDBRANCH 60 63
ENDBRANCH 56 57
ENDBRANCH 36 56
ENDBRANCH 1 36
TORSDOF 27
ENDMDL
MODEL 23
USER: ADFR SOLUTION from run 170
USER: SCORE 19.234928 LL:  -5.036 LR: -14.706 RR:   0.000 FEB:  -6.652
USER: RMSD 9.368558
USER: SEED 169
USER: STATUS no improvement in best in 17 clusters for 5 generations
USER: GENES 29
USER: genes 0 Translation |==|  0.31444 0.59710 0.31825
USER: genes 1 Rotation |==|  0.92458 0.71534 0.63818 0.56532
USER: genes 2 Torsion [C]-N--CA-[C] |==|  0.83194
USER: genes 3 Torsion [N]-CA--C-[N] |==|  0.93242
USER: genes 4 Torsion [C]-N--CA-[C] |==|  0.80656
USER: genes 5 Torsion [N]-CA--C-[N] |==|  0.45866
USER: genes 6 Torsion [C]-N--CA-[CB] |==|  0.76097
USER: genes 7 Torsion [N]-CA--CB-[CG] |==|  0.08112
USER: genes 8 Torsion [CA]-CB--CG-[CD2] |==|  0.25992
USER: genes 9 Torsion [N]-CA--C-[O] |==|  0.30508
USER: genes 10 Torsion [N]-CA--CB-[CG] |==|  0.63587
USER: genes 11 Torsion [CA]-CB--CG-[CD] |==|  0.01159
USER: genes 12 Torsion [CB]-CG--CD-[CE] |==|  0.59157
USER: genes 13 Torsion [CG]-CD--CE-[NZ] |==|  0.66478
USER: genes 14 Torsion [CD]-CE--NZ-[HZ2] |==|  0.33270
USER: genes 15 Torsion [N]-CA--CB-[CG2] |==|  0.60320
USER: genes 16 Torsion [CA]-CB--OG1-[HG1] |==|  0.18644
USER: genes 17 Torsion [N]-C--CA-[N] |==|  0.48333
USER: genes 18 Torsion [C]-CA--N-[C] |==|  0.82060
USER: genes 19 Torsion [N]-C--CA-[N] |==|  0.46636
USER: genes 20 Torsion [C]-CA--CB-[CG] |==|  0.99225
USER: genes 21 Torsion [CA]-CB--CG-[CD] |==|  0.72092
USER: genes 22 Torsion [CB]-CG--CD-[OE2] |==|  0.42621
USER: genes 23 Torsion [C]-CA--N-[C] |==|  0.76496
USER: genes 24 Torsion [N]-C--CA-[N] |==|  0.37908
USER: genes 25 Torsion [C]-CA--CB-[CG2] |==|  0.05461
USER: genes 26 Torsion [C]-CA--CB-[CG] |==|  0.38352
USER: genes 27 Torsion [CA]-CB--CG-[CD1] |==|  0.85127
USER: genes 28 Torsion [CE1]-CZ--OH-[HH] |==|  0.95174
ROOT
ATOM      1  C   TYR F 311      30.859  54.005  -6.854  1.00 39.57 LIG 0.24  C 
ATOM      2 O    TYR F 311      29.820  54.669  -6.801  1.00 35.87 LIG-0.27  OA
ATOM      3  N   THR F 312      31.203  53.251  -7.896  1.00 39.28 LIG-0.34  N 
ATOM      4 H    THR F 312      31.947  52.824  -7.940  1.00 39.28 LIG 0.16  HD
ENDROOT
BRANCH 3 5
ATOM      5  CA  THR F 312      30.357  53.069  -9.069  1.00 41.67 LIG 0.20  C 
BRANCH 5 6
ATOM      6  C   THR F 312      29.028  52.437  -8.686  1.00 45.40 LIG 0.24  C 
ATOM      7  N   LYS F 313      29.025  51.724  -7.571  1.00 48.10 LIG-0.35  N 
ATOM      8 H    LYS F 313      29.732  51.545  -7.116  1.00 48.10 LIG 0.16  HD
ATOM      9 O    THR F 312      28.019  52.616  -9.364  1.00 48.99 LIG-0.27  OA
BRANCH 7 10
ATOM     10  CA  LYS F 313      27.799  51.174  -7.012  1.00 51.61 LIG 0.18  C 
BRANCH 10 11
ATOM     11  C   LYS F 313      26.925  52.312  -6.471  1.00 54.92 LIG 0.24  C 
ATOM     12 O    LYS F 313      27.397  53.442  -6.306  1.00 54.36 LIG-0.27  OA
ATOM     13  N   HIS F 314      25.652  51.993  -6.215  1.00 57.06 LIG-0.35  N 
ATOM     14 H    HIS F 314      25.342  51.198  -6.323  1.00 57.06 LIG 0.16  HD
BRANCH 13 15
ATOM     15  CA  HIS F 314      24.645  52.947  -5.724  1.00 57.78 LIG 0.17  C 
BRANCH 15 16
ATOM     16  CB  HIS F 314      24.684  53.059  -4.193  1.00 57.79 LIG 0.09  C 
BRANCH 16 17
ATOM     17  CG  HIS F 314      26.035  52.801  -3.599  1.00 61.61 LIG 0.06  A 
ATOM     18  CD2 HIS F 314      27.040  53.646  -3.265  1.00 62.97 LIG 0.14  A 
ATOM     19 NE2  HIS F 314      28.063  52.881  -2.755  1.00 63.36 LIG-0.25  NA
ATOM     20  CE1 HIS F 314      27.700  51.611  -2.773  1.00 61.50 LIG 0.23  A 
ATOM     21 ND1  HIS F 314      26.481  51.533  -3.278  1.00 63.00 LIG-0.24  NA
ENDBRANCH 16 17
ENDBRANCH 15 16
BRANCH 15 22
ATOM     22  C   HIS F 314      24.792  54.333  -6.365  1.00 59.91 LIG 0.22  C 
ATOM     23 O    HIS F 314      23.957  54.753  -7.174  1.00 59.00 LIG-0.29  OA
ENDBRANCH 15 22
ENDBRANCH 13 15
ENDBRANCH 10 11
BRANCH 10 24
ATOM     24  CB  LYS F 313      28.115  50.146  -5.920  1.00 49.70 LIG 0.04  C 
BRANCH 24 25
ATOM     25  CG  LYS F 313      27.353  48.839  -6.088  1.00 49.89 LIG 0.00  C 
BRANCH 25 26
ATOM     26  CD  LYS F 313      26.523  48.811  -7.361  1.00 49.58 LIG 0.03  C 
BRANCH 26 27
ATOM     27  CE  LYS F 313      25.248  48.003  -7.163  1.00 48.23 LIG 0.23  C 
BRANCH 27 28
ATOM     28  NZ  LYS F 313      25.177  46.863  -8.108  1.00 47.83 LIG-0.08  N 
ATOM     29 HZ2  LYS F 313      25.138  46.100  -7.651  1.00 47.83 LIG 0.27  HD
ATOM     30 HZ1  LYS F 313      25.899  46.861  -8.627  1.00 47.83 LIG 0.27  HD
ATOM     31 HZ3  LYS F 313      24.449  46.942  -8.615  1.00 47.83 LIG 0.27  HD
ENDBRANCH 27 28
ENDBRANCH 26 27
ENDBRANCH 25 26
ENDBRANCH 24 25
ENDBRANCH 10 24
ENDBRANCH 7 10
ENDBRANCH 5 6
BRANCH 5 32
ATOM     32  CB  THR F 312      31.016  52.119 -10.085  1.00 41.09 LIG 0.15  C 
ATOM     33  CG2 THR F 312      30.742  52.564 -11.511  1.00 40.88 LIG 0.04  C 
BRANCH 32 34
ATOM     34 OG1  THR F 312      32.429  52.100  -9.855  1.00 43.07 LIG-0.39  OA
ATOM     35 HG1  THR F 312      32.588  51.740  -9.112  1.00 43.07 LIG 0.21  HD
ENDBRANCH 32 34
ENDBRANCH 5 32
ENDBRANCH 3 5
BRANCH 1 36
ATOM     36  CA  TYR F 311      31.841  53.979  -5.681  1.00 39.31 LIG 0.18  C 
BRANCH 36 37
ATOM     37  N   TYR F 311      31.493  54.926  -4.623  1.00 40.62 LIG-0.35  N 
ATOM     38 H    TYR F 311      31.285  54.562  -3.871  1.00 40.62 LIG 0.16  HD
ATOM     39  C   GLU F 310      31.507  56.238  -4.838  1.00 41.86 LIG 0.24  C 
ATOM     40 O    GLU F 310      31.711  56.715  -5.944  1.00 41.90 LIG-0.27  OA
BRANCH 39 41
ATOM     41  CA  GLU F 310      31.222  57.151  -3.647  1.00 43.14 LIG 0.18  C 
BRANCH 41 42
ATOM     42  CB  GLU F 310      29.745  57.025  -3.265  1.00 44.06 LIG 0.04  C 
BRANCH 42 43
ATOM     43  CG  GLU F 310      28.950  56.107  -4.181  1.00 45.60 LIG 0.12  C 
BRANCH 43 44
ATOM     44  CD  GLU F 310      28.125  56.856  -5.217  1.00 46.85 LIG 0.17  C 
ATOM     45 OE2  GLU F 310      27.860  56.263  -6.287  1.00 47.09 LIG-0.65  OA
ATOM     46 OE1  GLU F 310      27.757  58.032  -4.980  1.00 45.53 LIG-0.65  OA
ENDBRANCH 43 44
ENDBRANCH 42 43
ENDBRANCH 41 42
BRANCH 41 47
ATOM     47  N   GLU F 310      31.553  58.547  -3.970  1.00 43.23 LIG-0.35  N 
ATOM     48  C   VAL F 309      32.785  59.057  -3.858  1.00 44.16 LIG 0.26  C 
ATOM     49 O    VAL F 309      33.752  58.418  -3.435  1.00 43.83 LIG-0.27  OA
ATOM     50 H    GLU F 310      30.879  59.008  -4.240  1.00 43.23 LIG 0.16  HD
BRANCH 48 51
ATOM     51  CA  VAL F 309      32.965  60.518  -4.289  1.00 44.86 LIG 0.40  C 
ATOM     52  N   VAL F 309      33.811  61.237  -3.291  1.00 44.58 LIG 0.61  N 
BRANCH 51 53
ATOM     53  CB  VAL F 309      33.586  60.620  -5.713  1.00 44.54 LIG 0.03  C 
ATOM     54  CG2 VAL F 309      33.397  59.308  -6.466  1.00 44.44 LIG 0.01  C 
ATOM     55  CG1 VAL F 309      35.062  61.007  -5.678  1.00 43.50 LIG 0.01  C 
ENDBRANCH 51 53
ENDBRANCH 48 51
ENDBRANCH 41 47
ENDBRANCH 39 41
ENDBRANCH 36 37
BRANCH 36 56
ATOM     56  CB  TYR F 311      31.888  52.559  -5.106  1.00 38.48 LIG 0.07  C 
BRANCH 56 57
ATOM     57  CG  TYR F 311      33.289  52.106  -4.762  1.00 36.48 LIG-0.06  A 
ATOM     58  CD1 TYR F 311      34.310  52.160  -5.706  1.00 35.51 LIG 0.01  A 
ATOM     59  CE1 TYR F 311      35.595  51.745  -5.400  1.00 35.35 LIG 0.04  A 
ATOM     60  CZ  TYR F 311      35.869  51.255  -4.143  1.00 34.90 LIG 0.07  A 
ATOM     61  CE2 TYR F 311      34.877  51.183  -3.184  1.00 36.46 LIG 0.04  A 
ATOM     62  CD2 TYR F 311      33.592  51.601  -3.496  1.00 36.25 LIG 0.01  A 
BRANCH 60 63
ATOM     63 OH   TYR F 311      37.135  50.837  -3.843  1.00 38.07 LIG-0.36  OA
ATOM     64 HH   TYR F 311      37.565  50.712  -4.555  1.00 38.07 LIG 0.22  HD
ENDBRANCH 60 63
ENDBRANCH 56 57
ENDBRANCH 36 56
ENDBRANCH 1 36
TORSDOF 27
ENDMDL
MODEL 24
USER: ADFR SOLUTION from run 125
USER: SCORE 19.974952 LL:  -5.806 LR: -14.684 RR:   0.000 FEB:  -6.630
USER: RMSD 11.879682
USER: SEED 124
USER: STATUS 1 or 2 clusters left
USER: GENES 29
USER: genes 0 Translation |==|  0.42041 0.44368 0.48211
USER: genes 1 Rotation |==|  0.75154 0.08097 0.57775 0.57135
USER: genes 2 Torsion [C]-N--CA-[C] |==|  0.82329
USER: genes 3 Torsion [N]-CA--C-[N] |==|  0.39966
USER: genes 4 Torsion [C]-N--CA-[C] |==|  0.69041
USER: genes 5 Torsion [N]-CA--C-[N] |==|  0.45394
USER: genes 6 Torsion [C]-N--CA-[CB] |==|  0.80950
USER: genes 7 Torsion [N]-CA--CB-[CG] |==|  0.32280
USER: genes 8 Torsion [CA]-CB--CG-[CD2] |==|  0.23322
USER: genes 9 Torsion [N]-CA--C-[O] |==|  0.15268
USER: genes 10 Torsion [N]-CA--CB-[CG] |==|  0.11680
USER: genes 11 Torsion [CA]-CB--CG-[CD] |==|  0.35236
USER: genes 12 Torsion [CB]-CG--CD-[CE] |==|  0.80440
USER: genes 13 Torsion [CG]-CD--CE-[NZ] |==|  0.86327
USER: genes 14 Torsion [CD]-CE--NZ-[HZ2] |==|  0.19031
USER: genes 15 Torsion [N]-CA--CB-[CG2] |==|  0.45368
USER: genes 16 Torsion [CA]-CB--OG1-[HG1] |==|  0.24239
USER: genes 17 Torsion [N]-C--CA-[N] |==|  0.93912
USER: genes 18 Torsion [C]-CA--N-[C] |==|  0.81841
USER: genes 19 Torsion [N]-C--CA-[N] |==|  0.90673
USER: genes 20 Torsion [C]-CA--CB-[CG] |==|  0.41835
USER: genes 21 Torsion [CA]-CB--CG-[CD] |==|  0.16328
USER: genes 22 Torsion [CB]-CG--CD-[OE2] |==|  0.11023
USER: genes 23 Torsion [C]-CA--N-[C] |==|  0.68030
USER: genes 24 Torsion [N]-C--CA-[N] |==|  0.17249
USER: genes 25 Torsion [C]-CA--CB-[CG2] |==|  0.62750
USER: genes 26 Torsion [C]-CA--CB-[CG] |==|  0.61733
USER: genes 27 Torsion [CA]-CB--CG-[CD1] |==|  0.32413
USER: genes 28 Torsion [CE1]-CZ--OH-[HH] |==|  0.12655
ROOT
ATOM      1  C   TYR F 311      33.799  51.014  -3.659  1.00 39.57 LIG 0.24  C 
ATOM      2 O    TYR F 311      34.763  50.756  -2.932  1.00 35.87 LIG-0.27  OA
ATOM      3  N   THR F 312      33.909  51.333  -4.947  1.00 39.28 LIG-0.34  N 
ATOM      4 H    THR F 312      33.229  51.472  -5.454  1.00 39.28 LIG 0.16  HD
ENDROOT
BRANCH 3 5
ATOM      5  CA  THR F 312      35.186  51.481  -5.632  1.00 41.67 LIG 0.20  C 
BRANCH 5 6
ATOM      6  C   THR F 312      35.987  52.632  -5.043  1.00 45.40 LIG 0.24  C 
ATOM      7  N   LYS F 313      37.297  52.457  -4.986  1.00 48.10 LIG-0.35  N 
ATOM      8 H    LYS F 313      37.690  51.719  -5.186  1.00 48.10 LIG 0.16  HD
ATOM      9 O    THR F 312      35.438  53.669  -4.678  1.00 48.99 LIG-0.27  OA
BRANCH 7 10
ATOM     10  CA  LYS F 313      38.199  53.521  -4.571  1.00 51.61 LIG 0.18  C 
BRANCH 10 11
ATOM     11  C   LYS F 313      39.039  53.978  -5.770  1.00 54.92 LIG 0.24  C 
ATOM     12 O    LYS F 313      39.114  53.281  -6.788  1.00 54.36 LIG-0.27  OA
ATOM     13  N   HIS F 314      39.651  55.159  -5.632  1.00 57.06 LIG-0.35  N 
ATOM     14 H    HIS F 314      39.600  55.627  -4.912  1.00 57.06 LIG 0.16  HD
BRANCH 13 15
ATOM     15  CA  HIS F 314      40.474  55.790  -6.676  1.00 57.78 LIG 0.17  C 
BRANCH 15 16
ATOM     16  CB  HIS F 314      41.774  55.005  -6.910  1.00 57.79 LIG 0.09  C 
BRANCH 16 17
ATOM     17  CG  HIS F 314      41.889  54.413  -8.281  1.00 61.61 LIG 0.06  A 
ATOM     18  CD2 HIS F 314      42.313  54.947  -9.452  1.00 62.97 LIG 0.14  A 
ATOM     19 NE2  HIS F 314      42.215  53.963 -10.407  1.00 63.36 LIG-0.25  NA
ATOM     20  CE1 HIS F 314      41.749  52.862  -9.845  1.00 61.50 LIG 0.23  A 
ATOM     21 ND1  HIS F 314      41.543  53.106  -8.562  1.00 63.00 LIG-0.24  NA
ENDBRANCH 16 17
ENDBRANCH 15 16
BRANCH 15 22
ATOM     22  C   HIS F 314      39.711  55.963  -7.995  1.00 59.91 LIG 0.22  C 
ATOM     23 O    HIS F 314      38.631  56.563  -8.032  1.00 59.00 LIG-0.29  OA
ENDBRANCH 15 22
ENDBRANCH 13 15
ENDBRANCH 10 11
BRANCH 10 24
ATOM     24  CB  LYS F 313      39.088  53.057  -3.411  1.00 49.70 LIG 0.04  C 
BRANCH 24 25
ATOM     25  CG  LYS F 313      39.615  51.641  -3.590  1.00 49.89 LIG 0.00  C 
BRANCH 25 26
ATOM     26  CD  LYS F 313      41.127  51.564  -3.453  1.00 49.58 LIG 0.03  C 
BRANCH 26 27
ATOM     27  CE  LYS F 313      41.816  52.220  -4.641  1.00 48.23 LIG 0.23  C 
BRANCH 27 28
ATOM     28  NZ  LYS F 313      41.258  51.737  -5.927  1.00 47.83 LIG-0.08  N 
ATOM     29 HZ2  LYS F 313      40.424  52.034  -6.019  1.00 47.83 LIG 0.27  HD
ATOM     30 HZ1  LYS F 313      41.258  50.847  -5.935  1.00 47.83 LIG 0.27  HD
ATOM     31 HZ3  LYS F 313      41.756  52.039  -6.600  1.00 47.83 LIG 0.27  HD
ENDBRANCH 27 28
ENDBRANCH 26 27
ENDBRANCH 25 26
ENDBRANCH 24 25
ENDBRANCH 10 24
ENDBRANCH 7 10
ENDBRANCH 5 6
BRANCH 5 32
ATOM     32  CB  THR F 312      34.982  51.808  -7.122  1.00 41.09 LIG 0.15  C 
ATOM     33  CG2 THR F 312      36.254  52.357  -7.743  1.00 40.88 LIG 0.04  C 
BRANCH 32 34
ATOM     34 OG1  THR F 312      34.593  50.614  -7.810  1.00 43.07 LIG-0.39  OA
ATOM     35 HG1  THR F 312      33.758  50.528  -7.772  1.00 43.07 LIG 0.21  HD
ENDBRANCH 32 34
ENDBRANCH 5 32
ENDBRANCH 3 5
BRANCH 1 36
ATOM     36  CA  TYR F 311      32.371  51.013  -3.109  1.00 39.31 LIG 0.18  C 
BRANCH 36 37
ATOM     37  N   TYR F 311      31.453  51.828  -3.902  1.00 40.62 LIG-0.35  N 
ATOM     38 H    TYR F 311      30.830  51.384  -4.296  1.00 40.62 LIG 0.16  HD
ATOM     39  C   GLU F 310      31.597  53.147  -3.988  1.00 41.86 LIG 0.24  C 
ATOM     40 O    GLU F 310      32.551  53.733  -3.497  1.00 41.90 LIG-0.27  OA
BRANCH 39 41
ATOM     41  CA  GLU F 310      30.534  53.924  -4.762  1.00 43.14 LIG 0.18  C 
BRANCH 41 42
ATOM     42  CB  GLU F 310      29.399  54.301  -3.806  1.00 44.06 LIG 0.04  C 
BRANCH 42 43
ATOM     43  CG  GLU F 310      28.680  55.586  -4.183  1.00 45.60 LIG 0.12  C 
BRANCH 43 44
ATOM     44  CD  GLU F 310      28.061  55.546  -5.573  1.00 46.85 LIG 0.17  C 
ATOM     45 OE2  GLU F 310      27.515  54.480  -5.935  1.00 47.09 LIG-0.65  OA
ATOM     46 OE1  GLU F 310      28.133  56.560  -6.309  1.00 45.53 LIG-0.65  OA
ENDBRANCH 43 44
ENDBRANCH 42 43
ENDBRANCH 41 42
BRANCH 41 47
ATOM     47  N   GLU F 310      30.019  53.125  -5.885  1.00 43.23 LIG-0.35  N 
ATOM     48  C   VAL F 309      30.190  53.463  -7.168  1.00 44.16 LIG 0.26  C 
ATOM     49 O    VAL F 309      30.758  54.495  -7.532  1.00 43.83 LIG-0.27  OA
ATOM     50 H    GLU F 310      29.597  52.417  -5.639  1.00 43.23 LIG 0.16  HD
BRANCH 48 51
ATOM     51  CA  VAL F 309      29.634  52.487  -8.213  1.00 44.86 LIG 0.40  C 
ATOM     52  N   VAL F 309      28.153  52.375  -8.059  1.00 44.58 LIG 0.61  N 
BRANCH 51 53
ATOM     53  CB  VAL F 309      30.007  52.927  -9.659  1.00 44.54 LIG 0.03  C 
ATOM     54  CG2 VAL F 309      28.789  52.836 -10.569  1.00 44.44 LIG 0.01  C 
ATOM     55  CG1 VAL F 309      31.164  52.112 -10.234  1.00 43.50 LIG 0.01  C 
ENDBRANCH 51 53
ENDBRANCH 48 51
ENDBRANCH 41 47
ENDBRANCH 39 41
ENDBRANCH 36 37
BRANCH 36 56
ATOM     56  CB  TYR F 311      31.862  49.570  -3.053  1.00 38.48 LIG 0.07  C 
BRANCH 56 57
ATOM     57  CG  TYR F 311      30.431  49.428  -3.523  1.00 36.48 LIG-0.06  A 
ATOM     58  CD1 TYR F 311      30.121  48.674  -4.650  1.00 35.51 LIG 0.01  A 
ATOM     59  CE1 TYR F 311      28.814  48.541  -5.088  1.00 35.35 LIG 0.04  A 
ATOM     60  CZ  TYR F 311      27.801  49.176  -4.406  1.00 34.90 LIG 0.07  A 
ATOM     61  CE2 TYR F 311      28.076  49.936  -3.285  1.00 36.46 LIG 0.04  A 
ATOM     62  CD2 TYR F 311      29.387  50.066  -2.851  1.00 36.25 LIG 0.01  A 
BRANCH 60 63
ATOM     63 OH   TYR F 311      26.512  49.051  -4.843  1.00 38.07 LIG-0.36  OA
ATOM     64 HH   TYR F 311      26.353  48.245  -5.022  1.00 38.07 LIG 0.22  HD
ENDBRANCH 60 63
ENDBRANCH 56 57
ENDBRANCH 36 56
ENDBRANCH 1 36
TORSDOF 27
ENDMDL
MODEL 25
USER: ADFR SOLUTION from run 8
USER: SCORE 19.640122 LL:  -5.809 LR: -14.678 RR:   0.000 FEB:  -6.624
USER: RMSD 7.244601
USER: SEED 870094
USER: STATUS searching
USER: GENES 29
USER: genes 0 Translation |==|  0.40393 0.44450 0.44800
USER: genes 1 Rotation |==|  0.76936 0.45774 0.41736 0.91089
USER: genes 2 Torsion [C]-N--CA-[C] |==|  0.77753
USER: genes 3 Torsion [N]-CA--C-[N] |==|  0.20615
USER: genes 4 Torsion [C]-N--CA-[C] |==|  0.84444
USER: genes 5 Torsion [N]-CA--C-[N] |==|  0.90324
USER: genes 6 Torsion [C]-N--CA-[CB] |==|  0.37590
USER: genes 7 Torsion [N]-CA--CB-[CG] |==|  0.78979
USER: genes 8 Torsion [CA]-CB--CG-[CD2] |==|  0.97513
USER: genes 9 Torsion [N]-CA--C-[O] |==|  0.77371
USER: genes 10 Torsion [N]-CA--CB-[CG] |==|  0.26441
USER: genes 11 Torsion [CA]-CB--CG-[CD] |==|  0.67319
USER: genes 12 Torsion [CB]-CG--CD-[CE] |==|  0.45394
USER: genes 13 Torsion [CG]-CD--CE-[NZ] |==|  0.34802
USER: genes 14 Torsion [CD]-CE--NZ-[HZ2] |==|  0.94310
USER: genes 15 Torsion [N]-CA--CB-[CG2] |==|  0.53640
USER: genes 16 Torsion [CA]-CB--OG1-[HG1] |==|  0.11629
USER: genes 17 Torsion [N]-C--CA-[N] |==|  0.53471
USER: genes 18 Torsion [C]-CA--N-[C] |==|  0.67381
USER: genes 19 Torsion [N]-C--CA-[N] |==|  0.45053
USER: genes 20 Torsion [C]-CA--CB-[CG] |==|  0.11474
USER: genes 21 Torsion [CA]-CB--CG-[CD] |==|  0.60777
USER: genes 22 Torsion [CB]-CG--CD-[OE2] |==|  0.22460
USER: genes 23 Torsion [C]-CA--N-[C] |==|  0.78118
USER: genes 24 Torsion [N]-C--CA-[N] |==|  0.64586
USER: genes 25 Torsion [C]-CA--CB-[CG2] |==|  0.56342
USER: genes 26 Torsion [C]-CA--CB-[CG] |==|  0.87268
USER: genes 27 Torsion [CA]-CB--CG-[CD1] |==|  0.33972
USER: genes 28 Torsion [CE1]-CZ--OH-[HH] |==|  0.30907
ROOT
ATOM      1  C   TYR F 311      33.342  51.030  -4.324  1.00 39.57 LIG 0.24  C 
ATOM      2 O    TYR F 311      33.407  51.170  -5.548  1.00 35.87 LIG-0.27  OA
ATOM      3  N   THR F 312      32.292  50.509  -3.694  1.00 39.28 LIG-0.34  N 
ATOM      4 H    THR F 312      32.272  50.379  -2.844  1.00 39.28 LIG 0.16  HD
ENDROOT
BRANCH 3 5
ATOM      5  CA  THR F 312      31.066  50.106  -4.372  1.00 41.67 LIG 0.20  C 
BRANCH 5 6
ATOM      6  C   THR F 312      30.181  51.311  -4.653  1.00 45.40 LIG 0.24  C 
ATOM      7  N   LYS F 313      30.577  52.105  -5.634  1.00 48.10 LIG-0.35  N 
ATOM      8 H    LYS F 313      31.324  52.016  -6.048  1.00 48.10 LIG 0.16  HD
ATOM      9 O    THR F 312      29.145  51.500  -4.019  1.00 48.99 LIG-0.27  OA
BRANCH 7 10
ATOM     10  CA  LYS F 313      29.762  53.217  -6.100  1.00 51.61 LIG 0.18  C 
BRANCH 10 11
ATOM     11  C   LYS F 313      28.380  52.701  -6.517  1.00 54.92 LIG 0.24  C 
ATOM     12 O    LYS F 313      27.372  53.395  -6.345  1.00 54.36 LIG-0.27  OA
ATOM     13  N   HIS F 314      28.360  51.486  -7.075  1.00 57.06 LIG-0.35  N 
ATOM     14 H    HIS F 314      29.069  51.010  -7.176  1.00 57.06 LIG 0.16  HD
BRANCH 13 15
ATOM     15  CA  HIS F 314      27.142  50.827  -7.574  1.00 57.78 LIG 0.17  C 
BRANCH 15 16
ATOM     16  CB  HIS F 314      27.383  50.182  -8.948  1.00 57.79 LIG 0.09  C 
BRANCH 16 17
ATOM     17  CG  HIS F 314      27.432  51.163 -10.079  1.00 61.61 LIG 0.06  A 
ATOM     18  CD2 HIS F 314      27.147  52.487 -10.127  1.00 62.97 LIG 0.14  A 
ATOM     19 NE2  HIS F 314      27.362  52.903 -11.420  1.00 63.36 LIG-0.25  NA
ATOM     20  CE1 HIS F 314      27.767  51.874 -12.142  1.00 61.50 LIG 0.23  A 
ATOM     21 ND1  HIS F 314      27.818  50.810 -11.358  1.00 63.00 LIG-0.24  NA
ENDBRANCH 16 17
ENDBRANCH 15 16
BRANCH 15 22
ATOM     22  C   HIS F 314      26.593  49.791  -6.587  1.00 59.91 LIG 0.22  C 
ATOM     23 O    HIS F 314      27.068  48.651  -6.528  1.00 59.00 LIG-0.29  OA
ENDBRANCH 15 22
ENDBRANCH 13 15
ENDBRANCH 10 11
BRANCH 10 24
ATOM     24  CB  LYS F 313      30.456  53.950  -7.254  1.00 49.70 LIG 0.04  C 
BRANCH 24 25
ATOM     25  CG  LYS F 313      30.002  53.474  -8.627  1.00 49.89 LIG 0.00  C 
BRANCH 25 26
ATOM     26  CD  LYS F 313      31.137  52.862  -9.432  1.00 49.58 LIG 0.03  C 
BRANCH 26 27
ATOM     27  CE  LYS F 313      30.599  52.043 -10.597  1.00 48.23 LIG 0.23  C 
BRANCH 27 28
ATOM     28  NZ  LYS F 313      31.180  52.487 -11.887  1.00 47.83 LIG-0.08  N 
ATOM     29 HZ2  LYS F 313      31.496  53.315 -11.801  1.00 47.83 LIG 0.27  HD
ATOM     30 HZ1  LYS F 313      30.551  52.473 -12.516  1.00 47.83 LIG 0.27  HD
ATOM     31 HZ3  LYS F 313      31.843  51.939 -12.119  1.00 47.83 LIG 0.27  HD
ENDBRANCH 27 28
ENDBRANCH 26 27
ENDBRANCH 25 26
ENDBRANCH 24 25
ENDBRANCH 10 24
ENDBRANCH 7 10
ENDBRANCH 5 6
BRANCH 5 32
ATOM     32  CB  THR F 312      30.238  49.148  -3.498  1.00 41.09 LIG 0.15  C 
ATOM     33  CG2 THR F 312      29.139  48.478  -4.305  1.00 40.88 LIG 0.04  C 
BRANCH 32 34
ATOM     34 OG1  THR F 312      31.105  48.149  -2.953  1.00 43.07 LIG-0.39  OA
ATOM     35 HG1  THR F 312      31.823  48.506  -2.702  1.00 43.07 LIG 0.21  HD
ENDBRANCH 32 34
ENDBRANCH 5 32
ENDBRANCH 3 5
BRANCH 1 36
ATOM     36  CA  TYR F 311      34.486  51.483  -3.414  1.00 39.31 LIG 0.18  C 
BRANCH 36 37
ATOM     37  N   TYR F 311      35.478  52.302  -4.109  1.00 40.62 LIG-0.35  N 
ATOM     38 H    TYR F 311      35.174  53.045  -4.420  1.00 40.62 LIG 0.16  HD
ATOM     39  C   GLU F 310      36.740  51.902  -4.232  1.00 41.86 LIG 0.24  C 
ATOM     40 O    GLU F 310      37.114  50.798  -3.865  1.00 41.90 LIG-0.27  OA
BRANCH 39 41
ATOM     41  CA  GLU F 310      37.725  52.867  -4.890  1.00 43.14 LIG 0.18  C 
BRANCH 41 42
ATOM     42  CB  GLU F 310      37.492  52.862  -6.403  1.00 44.06 LIG 0.04  C 
BRANCH 42 43
ATOM     43  CG  GLU F 310      36.024  52.843  -6.798  1.00 45.60 LIG 0.12  C 
BRANCH 43 44
ATOM     44  CD  GLU F 310      35.735  51.962  -8.005  1.00 46.85 LIG 0.17  C 
ATOM     45 OE2  GLU F 310      35.628  50.731  -7.813  1.00 47.09 LIG-0.65  OA
ATOM     46 OE1  GLU F 310      35.633  52.487  -9.140  1.00 45.53 LIG-0.65  OA
ENDBRANCH 43 44
ENDBRANCH 42 43
ENDBRANCH 41 42
BRANCH 41 47
ATOM     47  N   GLU F 310      39.112  52.487  -4.581  1.00 43.23 LIG-0.35  N 
ATOM     48  C   VAL F 309      39.709  52.763  -3.415  1.00 44.16 LIG 0.26  C 
ATOM     49 O    VAL F 309      39.169  53.396  -2.505  1.00 43.83 LIG-0.27  OA
ATOM     50 H    GLU F 310      39.506  52.069  -5.221  1.00 43.23 LIG 0.16  HD
BRANCH 48 51
ATOM     51  CA  VAL F 309      41.142  52.245  -3.240  1.00 44.86 LIG 0.40  C 
ATOM     52  N   VAL F 309      41.243  51.465  -1.971  1.00 44.58 LIG 0.61  N 
BRANCH 51 53
ATOM     53  CB  VAL F 309      41.589  51.381  -4.455  1.00 44.54 LIG 0.03  C 
ATOM     54  CG2 VAL F 309      42.720  50.443  -4.049  1.00 44.44 LIG 0.01  C 
ATOM     55  CG1 VAL F 309      42.006  52.232  -5.652  1.00 43.50 LIG 0.01  C 
ENDBRANCH 51 53
ENDBRANCH 48 51
ENDBRANCH 41 47
ENDBRANCH 39 41
ENDBRANCH 36 37
BRANCH 36 56
ATOM     56  CB  TYR F 311      33.901  52.271  -2.238  1.00 38.48 LIG 0.07  C 
BRANCH 56 57
ATOM     57  CG  TYR F 311      32.864  53.288  -2.663  1.00 36.48 LIG-0.06  A 
ATOM     58  CD1 TYR F 311      31.571  53.246  -2.150  1.00 35.51 LIG 0.01  A 
ATOM     59  CE1 TYR F 311      30.616  54.172  -2.536  1.00 35.35 LIG 0.04  A 
ATOM     60  CZ  TYR F 311      30.942  55.143  -3.454  1.00 34.90 LIG 0.07  A 
ATOM     61  CE2 TYR F 311      32.215  55.209  -3.986  1.00 36.46 LIG 0.04  A 
ATOM     62  CD2 TYR F 311      33.169  54.280  -3.596  1.00 36.25 LIG 0.01  A 
BRANCH 60 63
ATOM     63 OH   TYR F 311      29.997  56.051  -3.840  1.00 38.07 LIG-0.36  OA
ATOM     64 HH   TYR F 311      30.201  56.811  -3.545  1.00 38.07 LIG 0.22  HD
ENDBRANCH 60 63
ENDBRANCH 56 57
ENDBRANCH 36 56
ENDBRANCH 1 36
TORSDOF 27
ENDMDL
MODEL 26
USER: ADFR SOLUTION from run 14
USER: SCORE 20.475002 LL:  -6.568 LR: -14.680 RR:   0.000 FEB:  -6.626
USER: RMSD 10.041446
USER: SEED 169347
USER: STATUS no improvement in best in 4 clusters for 5 generations
USER: GENES 29
USER: genes 0 Translation |==|  0.37584 0.44237 0.46387
USER: genes 1 Rotation |==|  0.23705 0.90711 0.37837 0.51807
USER: genes 2 Torsion [C]-N--CA-[C] |==|  0.81720
USER: genes 3 Torsion [N]-CA--C-[N] |==|  0.94313
USER: genes 4 Torsion [C]-N--CA-[C] |==|  0.82745
USER: genes 5 Torsion [N]-CA--C-[N] |==|  0.91152
USER: genes 6 Torsion [C]-N--CA-[CB] |==|  0.80409
USER: genes 7 Torsion [N]-CA--CB-[CG] |==|  0.85471
USER: genes 8 Torsion [CA]-CB--CG-[CD2] |==|  0.84761
USER: genes 9 Torsion [N]-CA--C-[O] |==|  0.21036
USER: genes 10 Torsion [N]-CA--CB-[CG] |==|  0.83914
USER: genes 11 Torsion [CA]-CB--CG-[CD] |==|  0.58029
USER: genes 12 Torsion [CB]-CG--CD-[CE] |==|  0.33430
USER: genes 13 Torsion [CG]-CD--CE-[NZ] |==|  0.43471
USER: genes 14 Torsion [CD]-CE--NZ-[HZ2] |==|  0.22262
USER: genes 15 Torsion [N]-CA--CB-[CG2] |==|  0.49996
USER: genes 16 Torsion [CA]-CB--OG1-[HG1] |==|  0.21448
USER: genes 17 Torsion [N]-C--CA-[N] |==|  0.95837
USER: genes 18 Torsion [C]-CA--N-[C] |==|  0.73890
USER: genes 19 Torsion [N]-C--CA-[N] |==|  0.95183
USER: genes 20 Torsion [C]-CA--CB-[CG] |==|  0.75829
USER: genes 21 Torsion [CA]-CB--CG-[CD] |==|  0.77723
USER: genes 22 Torsion [CB]-CG--CD-[OE2] |==|  0.45030
USER: genes 23 Torsion [C]-CA--N-[C] |==|  0.59148
USER: genes 24 Torsion [N]-C--CA-[N] |==|  0.24468
USER: genes 25 Torsion [C]-CA--CB-[CG2] |==|  0.73188
USER: genes 26 Torsion [C]-CA--CB-[CG] |==|  0.53545
USER: genes 27 Torsion [CA]-CB--CG-[CD1] |==|  0.36251
USER: genes 28 Torsion [CE1]-CZ--OH-[HH] |==|  0.61084
ROOT
ATOM      1  C   TYR F 311      32.562  50.988  -4.015  1.00 39.57 LIG 0.24  C 
ATOM      2 O    TYR F 311      33.222  50.820  -2.985  1.00 35.87 LIG-0.27  OA
ATOM      3  N   THR F 312      33.085  51.393  -5.170  1.00 39.28 LIG-0.34  N 
ATOM      4 H    THR F 312      32.624  51.470  -5.891  1.00 39.28 LIG 0.16  HD
ENDROOT
BRANCH 3 5
ATOM      5  CA  THR F 312      34.489  51.750  -5.335  1.00 41.67 LIG 0.20  C 
BRANCH 5 6
ATOM      6  C   THR F 312      34.830  52.994  -4.528  1.00 45.40 LIG 0.24  C 
ATOM      7  N   LYS F 313      33.808  53.762  -4.187  1.00 48.10 LIG-0.35  N 
ATOM      8 H    LYS F 313      33.003  53.635  -4.458  1.00 48.10 LIG 0.16  HD
ATOM      9 O    THR F 312      35.987  53.237  -4.193  1.00 48.99 LIG-0.27  OA
BRANCH 7 10
ATOM     10  CA  LYS F 313      33.967  54.909  -3.305  1.00 51.61 LIG 0.18  C 
BRANCH 10 11
ATOM     11  C   LYS F 313      34.462  54.435  -1.932  1.00 54.92 LIG 0.24  C 
ATOM     12 O    LYS F 313      35.189  55.159  -1.243  1.00 54.36 LIG-0.27  OA
ATOM     13  N   HIS F 314      34.045  53.223  -1.553  1.00 57.06 LIG-0.35  N 
ATOM     14 H    HIS F 314      33.549  52.726  -2.051  1.00 57.06 LIG 0.16  HD
BRANCH 13 15
ATOM     15  CA  HIS F 314      34.378  52.602  -0.261  1.00 57.78 LIG 0.17  C 
BRANCH 15 16
ATOM     16  CB  HIS F 314      35.860  52.203  -0.202  1.00 57.79 LIG 0.09  C 
BRANCH 16 17
ATOM     17  CG  HIS F 314      36.311  51.365  -1.359  1.00 61.61 LIG 0.06  A 
ATOM     18  CD2 HIS F 314      35.836  50.196  -1.854  1.00 62.97 LIG 0.14  A 
ATOM     19 NE2  HIS F 314      36.621  49.862  -2.932  1.00 63.36 LIG-0.25  NA
ATOM     20  CE1 HIS F 314      37.545  50.792  -3.097  1.00 61.50 LIG 0.23  A 
ATOM     21 ND1  HIS F 314      37.382  51.711  -2.160  1.00 63.00 LIG-0.24  NA
ENDBRANCH 16 17
ENDBRANCH 15 16
BRANCH 15 22
ATOM     22  C   HIS F 314      34.019  53.501   0.928  1.00 59.91 LIG 0.22  C 
ATOM     23 O    HIS F 314      32.846  53.634   1.295  1.00 59.00 LIG-0.29  OA
ENDBRANCH 15 22
ENDBRANCH 13 15
ENDBRANCH 10 11
BRANCH 10 24
ATOM     24  CB  LYS F 313      32.653  55.687  -3.186  1.00 49.70 LIG 0.04  C 
BRANCH 24 25
ATOM     25  CG  LYS F 313      32.123  56.178  -4.526  1.00 49.89 LIG 0.00  C 
BRANCH 25 26
ATOM     26  CD  LYS F 313      31.305  57.453  -4.394  1.00 49.58 LIG 0.03  C 
BRANCH 26 27
ATOM     27  CE  LYS F 313      31.918  58.580  -5.213  1.00 48.23 LIG 0.23  C 
BRANCH 27 28
ATOM     28  NZ  LYS F 313      30.908  59.609  -5.560  1.00 47.83 LIG-0.08  N 
ATOM     29 HZ2  LYS F 313      30.783  60.149  -4.864  1.00 47.83 LIG 0.27  HD
ATOM     30 HZ1  LYS F 313      30.139  59.213  -5.769  1.00 47.83 LIG 0.27  HD
ATOM     31 HZ3  LYS F 313      31.195  60.085  -6.256  1.00 47.83 LIG 0.27  HD
ENDBRANCH 27 28
ENDBRANCH 26 27
ENDBRANCH 25 26
ENDBRANCH 24 25
ENDBRANCH 10 24
ENDBRANCH 7 10
ENDBRANCH 5 6
BRANCH 5 32
ATOM     32  CB  THR F 312      34.808  52.080  -6.804  1.00 41.09 LIG 0.15  C 
ATOM     33  CG2 THR F 312      36.270  52.453  -6.978  1.00 40.88 LIG 0.04  C 
BRANCH 32 34
ATOM     34 OG1  THR F 312      34.508  50.938  -7.612  1.00 43.07 LIG-0.39  OA
ATOM     35 HG1  THR F 312      33.677  50.885  -7.727  1.00 43.07 LIG 0.21  HD
ENDBRANCH 32 34
ENDBRANCH 5 32
ENDBRANCH 3 5
BRANCH 1 36
ATOM     36  CA  TYR F 311      31.049  50.764  -4.030  1.00 39.31 LIG 0.18  C 
BRANCH 36 37
ATOM     37  N   TYR F 311      30.395  51.360  -5.194  1.00 40.62 LIG-0.35  N 
ATOM     38 H    TYR F 311      30.385  50.860  -5.894  1.00 40.62 LIG 0.16  HD
ATOM     39  C   GLU F 310      29.867  52.580  -5.141  1.00 41.86 LIG 0.24  C 
ATOM     40 O    GLU F 310      29.987  53.300  -4.161  1.00 41.90 LIG-0.27  OA
BRANCH 39 41
ATOM     41  CA  GLU F 310      29.122  53.080  -6.376  1.00 43.14 LIG 0.18  C 
BRANCH 41 42
ATOM     42  CB  GLU F 310      27.615  53.016  -6.109  1.00 44.06 LIG 0.04  C 
BRANCH 42 43
ATOM     43  CG  GLU F 310      26.990  51.671  -6.437  1.00 45.60 LIG 0.12  C 
BRANCH 43 44
ATOM     44  CD  GLU F 310      26.707  51.482  -7.921  1.00 46.85 LIG 0.17  C 
ATOM     45 OE2  GLU F 310      26.521  50.316  -8.333  1.00 47.09 LIG-0.65  OA
ATOM     46 OE1  GLU F 310      26.688  52.484  -8.676  1.00 45.53 LIG-0.65  OA
ENDBRANCH 43 44
ENDBRANCH 42 43
ENDBRANCH 41 42
BRANCH 41 47
ATOM     47  N   GLU F 310      29.470  52.273  -7.557  1.00 43.23 LIG-0.35  N 
ATOM     48  C   VAL F 309      29.529  52.771  -8.797  1.00 44.16 LIG 0.26  C 
ATOM     49 O    VAL F 309      29.259  53.941  -9.076  1.00 43.83 LIG-0.27  OA
ATOM     50 H    GLU F 310      29.632  51.448  -7.375  1.00 43.23 LIG 0.16  HD
BRANCH 48 51
ATOM     51  CA  VAL F 309      29.962  51.801  -9.904  1.00 44.86 LIG 0.40  C 
ATOM     52  N   VAL F 309      28.766  51.089 -10.444  1.00 44.58 LIG 0.61  N 
BRANCH 51 53
ATOM     53  CB  VAL F 309      30.725  52.540 -11.043  1.00 44.54 LIG 0.03  C 
ATOM     54  CG2 VAL F 309      29.773  52.875 -12.185  1.00 44.44 LIG 0.01  C 
ATOM     55  CG1 VAL F 309      31.917  51.737 -11.560  1.00 43.50 LIG 0.01  C 
ENDBRANCH 51 53
ENDBRANCH 48 51
ENDBRANCH 41 47
ENDBRANCH 39 41
ENDBRANCH 36 37
BRANCH 36 56
ATOM     56  CB  TYR F 311      30.770  49.258  -3.998  1.00 38.48 LIG 0.07  C 
BRANCH 56 57
ATOM     57  CG  TYR F 311      29.332  48.915  -4.317  1.00 36.48 LIG-0.06  A 
ATOM     58  CD1 TYR F 311      29.023  47.941  -5.262  1.00 35.51 LIG 0.01  A 
ATOM     59  CE1 TYR F 311      27.709  47.623  -5.561  1.00 35.35 LIG 0.04  A 
ATOM     60  CZ  TYR F 311      26.687  48.289  -4.925  1.00 34.90 LIG 0.07  A 
ATOM     61  CE2 TYR F 311      26.959  49.264  -3.985  1.00 36.46 LIG 0.04  A 
ATOM     62  CD2 TYR F 311      28.276  49.579  -3.688  1.00 36.25 LIG 0.01  A 
BRANCH 60 63
ATOM     63 OH   TYR F 311      25.390  47.979  -5.226  1.00 38.07 LIG-0.36  OA
ATOM     64 HH   TYR F 311      24.932  48.684  -5.255  1.00 38.07 LIG 0.22  HD
ENDBRANCH 60 63
ENDBRANCH 56 57
ENDBRANCH 36 56
ENDBRANCH 1 36
TORSDOF 27
ENDMDL
MODEL 27
USER: ADFR SOLUTION from run 8
USER: SCORE 19.666277 LL:  -5.884 LR: -14.609 RR:   0.000 FEB:  -6.555
USER: RMSD 6.745155
USER: SEED 870094
USER: STATUS searching
USER: GENES 29
USER: genes 0 Translation |==|  0.40416 0.44794 0.44796
USER: genes 1 Rotation |==|  0.77106 0.46235 0.42054 0.91084
USER: genes 2 Torsion [C]-N--CA-[C] |==|  0.78296
USER: genes 3 Torsion [N]-CA--C-[N] |==|  0.19645
USER: genes 4 Torsion [C]-N--CA-[C] |==|  0.83776
USER: genes 5 Torsion [N]-CA--C-[N] |==|  0.89996
USER: genes 6 Torsion [C]-N--CA-[CB] |==|  0.84706
USER: genes 7 Torsion [N]-CA--CB-[CG] |==|  0.74818
USER: genes 8 Torsion [CA]-CB--CG-[CD2] |==|  0.38322
USER: genes 9 Torsion [N]-CA--C-[O] |==|  0.02815
USER: genes 10 Torsion [N]-CA--CB-[CG] |==|  0.29385
USER: genes 11 Torsion [CA]-CB--CG-[CD] |==|  0.71382
USER: genes 12 Torsion [CB]-CG--CD-[CE] |==|  0.44975
USER: genes 13 Torsion [CG]-CD--CE-[NZ] |==|  0.35620
USER: genes 14 Torsion [CD]-CE--NZ-[HZ2] |==|  0.91188
USER: genes 15 Torsion [N]-CA--CB-[CG2] |==|  0.56562
USER: genes 16 Torsion [CA]-CB--OG1-[HG1] |==|  0.11349
USER: genes 17 Torsion [N]-C--CA-[N] |==|  0.52744
USER: genes 18 Torsion [C]-CA--N-[C] |==|  0.67531
USER: genes 19 Torsion [N]-C--CA-[N] |==|  0.45170
USER: genes 20 Torsion [C]-CA--CB-[CG] |==|  0.11502
USER: genes 21 Torsion [CA]-CB--CG-[CD] |==|  0.60678
USER: genes 22 Torsion [CB]-CG--CD-[OE2] |==|  0.22455
USER: genes 23 Torsion [C]-CA--N-[C] |==|  0.78124
USER: genes 24 Torsion [N]-C--CA-[N] |==|  0.64585
USER: genes 25 Torsion [C]-CA--CB-[CG2] |==|  0.56341
USER: genes 26 Torsion [C]-CA--CB-[CG] |==|  0.87267
USER: genes 27 Torsion [CA]-CB--CG-[CD1] |==|  0.33972
USER: genes 28 Torsion [CE1]-CZ--OH-[HH] |==|  0.30590
ROOT
ATOM      1  C   TYR F 311      33.348  51.097  -4.325  1.00 39.57 LIG 0.24  C 
ATOM      2 O    TYR F 311      33.401  51.248  -5.548  1.00 35.87 LIG-0.27  OA
ATOM      3  N   THR F 312      32.313  50.549  -3.691  1.00 39.28 LIG-0.34  N 
ATOM      4 H    THR F 312      32.303  50.412  -2.842  1.00 39.28 LIG 0.16  HD
ENDROOT
BRANCH 3 5
ATOM      5  CA  THR F 312      31.092  50.126  -4.364  1.00 41.67 LIG 0.20  C 
BRANCH 5 6
ATOM      6  C   THR F 312      30.201  51.320  -4.672  1.00 45.40 LIG 0.24  C 
ATOM      7  N   LYS F 313      30.633  52.135  -5.620  1.00 48.10 LIG-0.35  N 
ATOM      8 H    LYS F 313      31.401  52.065  -5.998  1.00 48.10 LIG 0.16  HD
ATOM      9 O    THR F 312      29.132  51.483  -4.089  1.00 48.99 LIG-0.27  OA
BRANCH 7 10
ATOM     10  CA  LYS F 313      29.823  53.241  -6.112  1.00 51.61 LIG 0.18  C 
BRANCH 10 11
ATOM     11  C   LYS F 313      28.497  52.702  -6.661  1.00 54.92 LIG 0.24  C 
ATOM     12 O    LYS F 313      27.452  53.349  -6.528  1.00 54.36 LIG-0.27  OA
ATOM     13  N   HIS F 314      28.566  51.521  -7.283  1.00 57.06 LIG-0.35  N 
ATOM     14 H    HIS F 314      29.299  51.077  -7.356  1.00 57.06 LIG 0.16  HD
BRANCH 13 15
ATOM     15  CA  HIS F 314      27.416  50.849  -7.910  1.00 57.78 LIG 0.17  C 
BRANCH 15 16
ATOM     16  CB  HIS F 314      26.264  50.670  -6.908  1.00 57.79 LIG 0.09  C 
BRANCH 16 17
ATOM     17  CG  HIS F 314      26.310  49.375  -6.155  1.00 61.61 LIG 0.06  A 
ATOM     18  CD2 HIS F 314      26.083  49.093  -4.849  1.00 62.97 LIG 0.14  A 
ATOM     19 NE2  HIS F 314      26.261  47.739  -4.689  1.00 63.36 LIG-0.25  NA
ATOM     20  CE1 HIS F 314      26.582  47.206  -5.854  1.00 61.50 LIG 0.23  A 
ATOM     21 ND1  HIS F 314      26.621  48.171  -6.757  1.00 63.00 LIG-0.24  NA
ENDBRANCH 16 17
ENDBRANCH 15 16
BRANCH 15 22
ATOM     22  C   HIS F 314      26.924  51.581  -9.164  1.00 59.91 LIG 0.22  C 
ATOM     23 O    HIS F 314      27.579  52.504  -9.661  1.00 59.00 LIG-0.29  OA
ENDBRANCH 15 22
ENDBRANCH 13 15
ENDBRANCH 10 11
BRANCH 10 24
ATOM     24  CB  LYS F 313      30.586  54.038  -7.176  1.00 49.70 LIG 0.04  C 
BRANCH 24 25
ATOM     25  CG  LYS F 313      30.080  53.788  -8.590  1.00 49.89 LIG 0.00  C 
BRANCH 25 26
ATOM     26  CD  LYS F 313      30.994  52.862  -9.376  1.00 49.58 LIG 0.03  C 
BRANCH 26 27
ATOM     27  CE  LYS F 313      30.272  52.280 -10.584  1.00 48.23 LIG 0.23  C 
BRANCH 27 28
ATOM     28  NZ  LYS F 313      31.051  52.479 -11.829  1.00 47.83 LIG-0.08  N 
ATOM     29 HZ2  LYS F 313      31.515  53.236 -11.772  1.00 47.83 LIG 0.27  HD
ATOM     30 HZ1  LYS F 313      30.495  52.524 -12.523  1.00 47.83 LIG 0.27  HD
ATOM     31 HZ3  LYS F 313      31.611  51.796 -11.942  1.00 47.83 LIG 0.27  HD
ENDBRANCH 27 28
ENDBRANCH 26 27
ENDBRANCH 25 26
ENDBRANCH 24 25
ENDBRANCH 10 24
ENDBRANCH 7 10
ENDBRANCH 5 6
BRANCH 5 32
ATOM     32  CB  THR F 312      30.266  49.183  -3.472  1.00 41.09 LIG 0.15  C 
ATOM     33  CG2 THR F 312      29.349  48.303  -4.303  1.00 40.88 LIG 0.04  C 
BRANCH 32 34
ATOM     34 OG1  THR F 312      31.159  48.359  -2.715  1.00 43.07 LIG-0.39  OA
ATOM     35 HG1  THR F 312      31.807  48.820  -2.446  1.00 43.07 LIG 0.21  HD
ENDBRANCH 32 34
ENDBRANCH 5 32
ENDBRANCH 3 5
BRANCH 1 36
ATOM     36  CA  TYR F 311      34.489  51.567  -3.420  1.00 39.31 LIG 0.18  C 
BRANCH 36 37
ATOM     37  N   TYR F 311      35.491  52.362  -4.129  1.00 40.62 LIG-0.35  N 
ATOM     38 H    TYR F 311      35.195  53.101  -4.456  1.00 40.62 LIG 0.16  HD
ATOM     39  C   GLU F 310      36.749  51.946  -4.242  1.00 41.86 LIG 0.24  C 
ATOM     40 O    GLU F 310      37.110  50.845  -3.852  1.00 41.90 LIG-0.27  OA
BRANCH 39 41
ATOM     41  CA  GLU F 310      37.744  52.887  -4.917  1.00 43.14 LIG 0.18  C 
BRANCH 41 42
ATOM     42  CB  GLU F 310      37.506  52.862  -6.430  1.00 44.06 LIG 0.04  C 
BRANCH 42 43
ATOM     43  CG  GLU F 310      36.037  52.860  -6.820  1.00 45.60 LIG 0.12  C 
BRANCH 43 44
ATOM     44  CD  GLU F 310      35.732  51.972  -8.018  1.00 46.85 LIG 0.17  C 
ATOM     45 OE2  GLU F 310      35.609  50.743  -7.813  1.00 47.09 LIG-0.65  OA
ATOM     46 OE1  GLU F 310      35.633  52.487  -9.157  1.00 45.53 LIG-0.65  OA
ENDBRANCH 43 44
ENDBRANCH 42 43
ENDBRANCH 41 42
BRANCH 41 47
ATOM     47  N   GLU F 310      39.127  52.492  -4.607  1.00 43.23 LIG-0.35  N 
ATOM     48  C   VAL F 309      39.731  52.777  -3.447  1.00 44.16 LIG 0.26  C 
ATOM     49 O    VAL F 309      39.203  53.430  -2.545  1.00 43.83 LIG-0.27  OA
ATOM     50 H    GLU F 310      39.513  52.059  -5.242  1.00 43.23 LIG 0.16  HD
BRANCH 48 51
ATOM     51  CA  VAL F 309      41.158  52.242  -3.269  1.00 44.86 LIG 0.40  C 
ATOM     52  N   VAL F 309      41.253  51.480  -1.988  1.00 44.58 LIG 0.61  N 
BRANCH 51 53
ATOM     53  CB  VAL F 309      41.589  51.354  -4.472  1.00 44.54 LIG 0.03  C 
ATOM     54  CG2 VAL F 309      42.708  50.406  -4.056  1.00 44.44 LIG 0.01  C 
ATOM     55  CG1 VAL F 309      42.014  52.182  -5.683  1.00 43.50 LIG 0.01  C 
ENDBRANCH 51 53
ENDBRANCH 48 51
ENDBRANCH 41 47
ENDBRANCH 39 41
ENDBRANCH 36 37
BRANCH 36 56
ATOM     56  CB  TYR F 311      33.901  52.389  -2.269  1.00 38.48 LIG 0.07  C 
BRANCH 56 57
ATOM     57  CG  TYR F 311      32.874  53.401  -2.727  1.00 36.48 LIG-0.06  A 
ATOM     58  CD1 TYR F 311      31.577  53.381  -2.222  1.00 35.51 LIG 0.01  A 
ATOM     59  CE1 TYR F 311      30.630  54.302  -2.638  1.00 35.35 LIG 0.04  A 
ATOM     60  CZ  TYR F 311      30.969  55.246  -3.579  1.00 34.90 LIG 0.07  A 
ATOM     61  CE2 TYR F 311      32.246  55.290  -4.105  1.00 36.46 LIG 0.04  A 
ATOM     62  CD2 TYR F 311      33.191  54.367  -3.684  1.00 36.25 LIG 0.01  A 
BRANCH 60 63
ATOM     63 OH   TYR F 311      30.032  56.150  -3.996  1.00 38.07 LIG-0.36  OA
ATOM     64 HH   TYR F 311      30.230  56.914  -3.707  1.00 38.07 LIG 0.22  HD
ENDBRANCH 60 63
ENDBRANCH 56 57
ENDBRANCH 36 56
ENDBRANCH 1 36
TORSDOF 27
ENDMDL
MODEL 28
USER: ADFR SOLUTION from run 70
USER: SCORE 19.144186 LL:  -4.751 LR: -14.590 RR:   0.000 FEB:  -6.535
USER: RMSD 8.752665
USER: SEED 69
USER: STATUS no improvement in best in 4 clusters for 5 generations
USER: GENES 29
USER: genes 0 Translation |==|  0.32617 0.45042 0.47368
USER: genes 1 Rotation |==|  0.84113 0.78891 0.27611 0.50592
USER: genes 2 Torsion [C]-N--CA-[C] |==|  0.81991
USER: genes 3 Torsion [N]-CA--C-[N] |==|  0.39638
USER: genes 4 Torsion [C]-N--CA-[C] |==|  0.16111
USER: genes 5 Torsion [N]-CA--C-[N] |==|  0.07527
USER: genes 6 Torsion [C]-N--CA-[CB] |==|  0.83248
USER: genes 7 Torsion [N]-CA--CB-[CG] |==|  0.91029
USER: genes 8 Torsion [CA]-CB--CG-[CD2] |==|  0.82718
USER: genes 9 Torsion [N]-CA--C-[O] |==|  0.24156
USER: genes 10 Torsion [N]-CA--CB-[CG] |==|  0.58848
USER: genes 11 Torsion [CA]-CB--CG-[CD] |==|  0.24293
USER: genes 12 Torsion [CB]-CG--CD-[CE] |==|  0.60357
USER: genes 13 Torsion [CG]-CD--CE-[NZ] |==|  0.76415
USER: genes 14 Torsion [CD]-CE--NZ-[HZ2] |==|  0.59728
USER: genes 15 Torsion [N]-CA--CB-[CG2] |==|  0.84528
USER: genes 16 Torsion [CA]-CB--OG1-[HG1] |==|  0.51801
USER: genes 17 Torsion [N]-C--CA-[N] |==|  0.36141
USER: genes 18 Torsion [C]-CA--N-[C] |==|  0.85426
USER: genes 19 Torsion [N]-C--CA-[N] |==|  0.40122
USER: genes 20 Torsion [C]-CA--CB-[CG] |==|  0.93923
USER: genes 21 Torsion [CA]-CB--CG-[CD] |==|  0.67497
USER: genes 22 Torsion [CB]-CG--CD-[OE2] |==|  0.53929
USER: genes 23 Torsion [C]-CA--N-[C] |==|  0.83468
USER: genes 24 Torsion [N]-C--CA-[N] |==|  0.41991
USER: genes 25 Torsion [C]-CA--CB-[CG2] |==|  0.00915
USER: genes 26 Torsion [C]-CA--CB-[CG] |==|  0.48551
USER: genes 27 Torsion [CA]-CB--CG-[CD1] |==|  0.43072
USER: genes 28 Torsion [CE1]-CZ--OH-[HH] |==|  0.20965
ROOT
ATOM      1  C   TYR F 311      31.184  51.145  -3.823  1.00 39.57 LIG 0.24  C 
ATOM      2 O    TYR F 311      30.718  51.880  -2.949  1.00 35.87 LIG-0.27  OA
ATOM      3  N   THR F 312      30.778  49.895  -4.033  1.00 39.28 LIG-0.34  N 
ATOM      4 H    THR F 312      31.082  49.404  -4.670  1.00 39.28 LIG 0.16  HD
ENDROOT
BRANCH 3 5
ATOM      5  CA  THR F 312      29.781  49.225  -3.208  1.00 41.67 LIG 0.20  C 
BRANCH 5 6
ATOM      6  C   THR F 312      30.290  49.041  -1.786  1.00 45.40 LIG 0.24  C 
ATOM      7  N   LYS F 313      29.392  49.188  -0.825  1.00 48.10 LIG-0.35  N 
ATOM      8 H    LYS F 313      28.585  49.451  -0.961  1.00 48.10 LIG 0.16  HD
ATOM      9 O    THR F 312      31.460  48.739  -1.563  1.00 48.99 LIG-0.27  OA
BRANCH 7 10
ATOM     10  CA  LYS F 313      29.704  48.911   0.569  1.00 51.61 LIG 0.18  C 
BRANCH 10 11
ATOM     11  C   LYS F 313      30.882  49.787   1.015  1.00 54.92 LIG 0.24  C 
ATOM     12 O    LYS F 313      31.638  49.411   1.918  1.00 54.36 LIG-0.27  OA
ATOM     13  N   HIS F 314      31.025  50.943   0.359  1.00 57.06 LIG-0.35  N 
ATOM     14 H    HIS F 314      30.482  51.196  -0.259  1.00 57.06 LIG 0.16  HD
BRANCH 13 15
ATOM     15  CA  HIS F 314      32.108  51.906   0.610  1.00 57.78 LIG 0.17  C 
BRANCH 15 16
ATOM     16  CB  HIS F 314      32.076  52.414   2.060  1.00 57.79 LIG 0.09  C 
BRANCH 16 17
ATOM     17  CG  HIS F 314      30.699  52.498   2.643  1.00 61.61 LIG 0.06  A 
ATOM     18  CD2 HIS F 314      29.620  53.236   2.285  1.00 62.97 LIG 0.14  A 
ATOM     19 NE2  HIS F 314      28.607  52.929   3.162  1.00 63.36 LIG-0.25  NA
ATOM     20  CE1 HIS F 314      29.044  52.032   4.027  1.00 61.50 LIG 0.23  A 
ATOM     21 ND1  HIS F 314      30.304  51.755   3.739  1.00 63.00 LIG-0.24  NA
ENDBRANCH 16 17
ENDBRANCH 15 16
BRANCH 15 22
ATOM     22  C   HIS F 314      33.490  51.330   0.276  1.00 59.91 LIG 0.22  C 
ATOM     23 O    HIS F 314      33.950  51.402  -0.868  1.00 59.00 LIG-0.29  OA
ENDBRANCH 15 22
ENDBRANCH 13 15
ENDBRANCH 10 11
BRANCH 10 24
ATOM     24  CB  LYS F 313      30.006  47.422   0.771  1.00 49.70 LIG 0.04  C 
BRANCH 24 25
ATOM     25  CG  LYS F 313      29.593  46.907   2.143  1.00 49.89 LIG 0.00  C 
BRANCH 25 26
ATOM     26  CD  LYS F 313      28.147  46.441   2.175  1.00 49.58 LIG 0.03  C 
BRANCH 26 27
ATOM     27  CE  LYS F 313      27.489  46.796   3.501  1.00 48.23 LIG 0.23  C 
BRANCH 27 28
ATOM     28  NZ  LYS F 313      27.759  45.766   4.533  1.00 47.83 LIG-0.08  N 
ATOM     29 HZ2  LYS F 313      27.048  45.682   5.062  1.00 47.83 LIG 0.27  HD
ATOM     30 HZ1  LYS F 313      28.463  46.011   5.020  1.00 47.83 LIG 0.27  HD
ATOM     31 HZ3  LYS F 313      27.929  44.987   4.138  1.00 47.83 LIG 0.27  HD
ENDBRANCH 27 28
ENDBRANCH 26 27
ENDBRANCH 25 26
ENDBRANCH 24 25
ENDBRANCH 10 24
ENDBRANCH 7 10
ENDBRANCH 5 6
BRANCH 5 32
ATOM     32  CB  THR F 312      29.470  47.818  -3.746  1.00 41.09 LIG 0.15  C 
ATOM     33  CG2 THR F 312      29.031  47.869  -5.199  1.00 40.88 LIG 0.04  C 
BRANCH 32 34
ATOM     34 OG1  THR F 312      30.644  47.007  -3.633  1.00 43.07 LIG-0.39  OA
ATOM     35 HG1  THR F 312      30.511  46.265  -4.005  1.00 43.07 LIG 0.21  HD
ENDBRANCH 32 34
ENDBRANCH 5 32
ENDBRANCH 3 5
BRANCH 1 36
ATOM     36  CA  TYR F 311      32.315  51.623  -4.737  1.00 39.31 LIG 0.18  C 
BRANCH 36 37
ATOM     37  N   TYR F 311      32.035  52.913  -5.366  1.00 40.62 LIG-0.35  N 
ATOM     38 H    TYR F 311      32.652  53.503  -5.262  1.00 40.62 LIG 0.16  HD
ATOM     39  C   GLU F 310      30.906  53.124  -6.037  1.00 41.86 LIG 0.24  C 
ATOM     40 O    GLU F 310      30.008  52.296  -6.080  1.00 41.90 LIG-0.27  OA
BRANCH 39 41
ATOM     41  CA  GLU F 310      30.745  54.471  -6.739  1.00 43.14 LIG 0.18  C 
BRANCH 41 42
ATOM     42  CB  GLU F 310      30.000  55.432  -5.809  1.00 44.06 LIG 0.04  C 
BRANCH 42 43
ATOM     43  CG  GLU F 310      29.178  54.735  -4.737  1.00 45.60 LIG 0.12  C 
BRANCH 43 44
ATOM     44  CD  GLU F 310      27.684  55.002  -4.852  1.00 46.85 LIG 0.17  C 
ATOM     45 OE2  GLU F 310      26.963  54.702  -3.875  1.00 47.09 LIG-0.65  OA
ATOM     46 OE1  GLU F 310      27.226  55.490  -5.914  1.00 45.53 LIG-0.65  OA
ENDBRANCH 43 44
ENDBRANCH 42 43
ENDBRANCH 41 42
BRANCH 41 47
ATOM     47  N   GLU F 310      30.015  54.312  -8.008  1.00 43.23 LIG-0.35  N 
ATOM     48  C   VAL F 309      30.442  53.535  -9.009  1.00 44.16 LIG 0.26  C 
ATOM     49 O    VAL F 309      31.504  52.909  -8.983  1.00 43.83 LIG-0.27  OA
ATOM     50 H    GLU F 310      29.287  54.768  -8.045  1.00 43.23 LIG 0.16  HD
BRANCH 48 51
ATOM     51  CA  VAL F 309      29.530  53.442 -10.240  1.00 44.86 LIG 0.40  C 
ATOM     52  N   VAL F 309      30.354  53.180 -11.457  1.00 44.58 LIG 0.61  N 
BRANCH 51 53
ATOM     53  CB  VAL F 309      28.442  52.343 -10.062  1.00 44.54 LIG 0.03  C 
ATOM     54  CG2 VAL F 309      28.541  51.722  -8.674  1.00 44.44 LIG 0.01  C 
ATOM     55  CG1 VAL F 309      28.526  51.262 -11.138  1.00 43.50 LIG 0.01  C 
ENDBRANCH 51 53
ENDBRANCH 48 51
ENDBRANCH 41 47
ENDBRANCH 39 41
ENDBRANCH 36 37
BRANCH 36 56
ATOM     56  CB  TYR F 311      33.606  51.719  -3.919  1.00 38.48 LIG 0.07  C 
BRANCH 56 57
ATOM     57  CG  TYR F 311      34.816  52.063  -4.760  1.00 36.48 LIG-0.06  A 
ATOM     58  CD1 TYR F 311      35.925  52.685  -4.193  1.00 35.51 LIG 0.01  A 
ATOM     59  CE1 TYR F 311      37.035  53.006  -4.957  1.00 35.35 LIG 0.04  A 
ATOM     60  CZ  TYR F 311      37.041  52.719  -6.302  1.00 34.90 LIG 0.07  A 
ATOM     61  CE2 TYR F 311      35.954  52.107  -6.896  1.00 36.46 LIG 0.04  A 
ATOM     62  CD2 TYR F 311      34.844  51.787  -6.128  1.00 36.25 LIG 0.01  A 
BRANCH 60 63
ATOM     63 OH   TYR F 311      38.134  53.044  -7.057  1.00 38.07 LIG-0.36  OA
ATOM     64 HH   TYR F 311      38.753  52.497  -6.903  1.00 38.07 LIG 0.22  HD
ENDBRANCH 60 63
ENDBRANCH 56 57
ENDBRANCH 36 56
ENDBRANCH 1 36
TORSDOF 27
ENDMDL
MODEL 29
USER: ADFR SOLUTION from run 141
USER: SCORE 19.299542 LL:  -5.405 LR: -14.568 RR:   0.000 FEB:  -6.514
USER: RMSD 10.524553
USER: SEED 140
USER: STATUS searching
USER: GENES 29
USER: genes 0 Translation |==|  0.40597 0.44244 0.46076
USER: genes 1 Rotation |==|  0.74080 0.07147 0.57848 0.54710
USER: genes 2 Torsion [C]-N--CA-[C] |==|  0.84983
USER: genes 3 Torsion [N]-CA--C-[N] |==|  0.38019
USER: genes 4 Torsion [C]-N--CA-[C] |==|  0.14661
USER: genes 5 Torsion [N]-CA--C-[N] |==|  0.10014
USER: genes 6 Torsion [C]-N--CA-[CB] |==|  0.84457
USER: genes 7 Torsion [N]-CA--CB-[CG] |==|  0.87979
USER: genes 8 Torsion [CA]-CB--CG-[CD2] |==|  0.84498
USER: genes 9 Torsion [N]-CA--C-[O] |==|  0.09848
USER: genes 10 Torsion [N]-CA--CB-[CG] |==|  0.83620
USER: genes 11 Torsion [CA]-CB--CG-[CD] |==|  0.47085
USER: genes 12 Torsion [CB]-CG--CD-[CE] |==|  0.41283
USER: genes 13 Torsion [CG]-CD--CE-[NZ] |==|  0.46725
USER: genes 14 Torsion [CD]-CE--NZ-[HZ2] |==|  0.99544
USER: genes 15 Torsion [N]-CA--CB-[CG2] |==|  0.48332
USER: genes 16 Torsion [CA]-CB--OG1-[HG1] |==|  0.14321
USER: genes 17 Torsion [N]-C--CA-[N] |==|  0.00039
USER: genes 18 Torsion [C]-CA--N-[C] |==|  0.67778
USER: genes 19 Torsion [N]-C--CA-[N] |==|  0.87440
USER: genes 20 Torsion [C]-CA--CB-[CG] |==|  0.63013
USER: genes 21 Torsion [CA]-CB--CG-[CD] |==|  0.76414
USER: genes 22 Torsion [CB]-CG--CD-[OE2] |==|  0.34474
USER: genes 23 Torsion [C]-CA--N-[C] |==|  0.65648
USER: genes 24 Torsion [N]-C--CA-[N] |==|  0.83473
USER: genes 25 Torsion [C]-CA--CB-[CG2] |==|  0.59136
USER: genes 26 Torsion [C]-CA--CB-[CG] |==|  0.61700
USER: genes 27 Torsion [CA]-CB--CG-[CD1] |==|  0.78851
USER: genes 28 Torsion [CE1]-CZ--OH-[HH] |==|  0.12733
ROOT
ATOM      1  C   TYR F 311      33.399  50.990  -4.075  1.00 39.57 LIG 0.24  C 
ATOM      2 O    TYR F 311      34.278  50.660  -3.275  1.00 35.87 LIG-0.27  OA
ATOM      3  N   THR F 312      33.642  51.360  -5.330  1.00 39.28 LIG-0.34  N 
ATOM      4 H    THR F 312      33.020  51.550  -5.892  1.00 39.28 LIG 0.16  HD
ENDROOT
BRANCH 3 5
ATOM      5  CA  THR F 312      34.984  51.485  -5.885  1.00 41.67 LIG 0.20  C 
BRANCH 5 6
ATOM      6  C   THR F 312      35.843  52.401  -5.026  1.00 45.40 LIG 0.24  C 
ATOM      7  N   LYS F 313      37.080  51.990  -4.798  1.00 48.10 LIG-0.35  N 
ATOM      8 H    LYS F 313      37.380  51.222  -5.039  1.00 48.10 LIG 0.16  HD
ATOM      9 O    THR F 312      35.408  53.471  -4.606  1.00 48.99 LIG-0.27  OA
BRANCH 7 10
ATOM     10  CA  LYS F 313      38.053  52.824  -4.107  1.00 51.61 LIG 0.18  C 
BRANCH 10 11
ATOM     11  C   LYS F 313      37.463  53.303  -2.775  1.00 54.92 LIG 0.24  C 
ATOM     12 O    LYS F 313      37.708  54.438  -2.351  1.00 54.36 LIG-0.27  OA
ATOM     13  N   HIS F 314      36.679  52.425  -2.140  1.00 57.06 LIG-0.35  N 
ATOM     14 H    HIS F 314      36.529  51.634  -2.442  1.00 57.06 LIG 0.16  HD
BRANCH 13 15
ATOM     15  CA  HIS F 314      35.991  52.702  -0.869  1.00 57.78 LIG 0.17  C 
BRANCH 15 16
ATOM     16  CB  HIS F 314      36.986  53.137   0.219  1.00 57.79 LIG 0.09  C 
BRANCH 16 17
ATOM     17  CG  HIS F 314      38.242  52.321   0.254  1.00 61.61 LIG 0.06  A 
ATOM     18  CD2 HIS F 314      38.437  50.986   0.382  1.00 62.97 LIG 0.14  A 
ATOM     19 NE2  HIS F 314      39.795  50.769   0.352  1.00 63.36 LIG-0.25  NA
ATOM     20  CE1 HIS F 314      40.413  51.927   0.209  1.00 61.50 LIG 0.23  A 
ATOM     21 ND1  HIS F 314      39.500  52.881   0.148  1.00 63.00 LIG-0.24  NA
ENDBRANCH 16 17
ENDBRANCH 15 16
BRANCH 15 22
ATOM     22  C   HIS F 314      34.878  53.745  -1.023  1.00 59.91 LIG 0.22  C 
ATOM     23 O    HIS F 314      34.191  53.797  -2.049  1.00 59.00 LIG-0.29  OA
ENDBRANCH 15 22
ENDBRANCH 13 15
ENDBRANCH 10 11
BRANCH 10 24
ATOM     24  CB  LYS F 313      38.476  54.005  -4.987  1.00 49.70 LIG 0.04  C 
BRANCH 24 25
ATOM     25  CG  LYS F 313      39.092  53.576  -6.312  1.00 49.89 LIG 0.00  C 
BRANCH 25 26
ATOM     26  CD  LYS F 313      39.270  54.742  -7.272  1.00 49.58 LIG 0.03  C 
BRANCH 26 27
ATOM     27  CE  LYS F 313      40.482  54.530  -8.168  1.00 48.23 LIG 0.23  C 
BRANCH 27 28
ATOM     28  NZ  LYS F 313      40.508  55.504  -9.285  1.00 47.83 LIG-0.08  N 
ATOM     29 HZ2  LYS F 313      39.789  56.026  -9.241  1.00 47.83 LIG 0.27  HD
ATOM     30 HZ1  LYS F 313      40.510  55.067 -10.060  1.00 47.83 LIG 0.27  HD
ATOM     31 HZ3  LYS F 313      41.242  56.005  -9.226  1.00 47.83 LIG 0.27  HD
ENDBRANCH 27 28
ENDBRANCH 26 27
ENDBRANCH 25 26
ENDBRANCH 24 25
ENDBRANCH 10 24
ENDBRANCH 7 10
ENDBRANCH 5 6
BRANCH 5 32
ATOM     32  CB  THR F 312      34.948  52.111  -7.290  1.00 41.09 LIG 0.15  C 
ATOM     33  CG2 THR F 312      36.350  52.377  -7.810  1.00 40.88 LIG 0.04  C 
BRANCH 32 34
ATOM     34 OG1  THR F 312      34.272  51.216  -8.180  1.00 43.07 LIG-0.39  OA
ATOM     35 HG1  THR F 312      33.532  50.996  -7.849  1.00 43.07 LIG 0.21  HD
ENDBRANCH 32 34
ENDBRANCH 5 32
ENDBRANCH 3 5
BRANCH 1 36
ATOM     36  CA  TYR F 311      31.925  51.025  -3.662  1.00 39.31 LIG 0.18  C 
BRANCH 36 37
ATOM     37  N   TYR F 311      31.040  51.463  -4.740  1.00 40.62 LIG-0.35  N 
ATOM     38 H    TYR F 311      31.019  50.939  -5.421  1.00 40.62 LIG 0.16  HD
ATOM     39  C   GLU F 310      30.337  52.588  -4.642  1.00 41.86 LIG 0.24  C 
ATOM     40 O    GLU F 310      30.467  53.358  -3.702  1.00 41.90 LIG-0.27  OA
BRANCH 39 41
ATOM     41  CA  GLU F 310      29.368  52.914  -5.776  1.00 43.14 LIG 0.18  C 
BRANCH 41 42
ATOM     42  CB  GLU F 310      28.119  52.040  -5.631  1.00 44.06 LIG 0.04  C 
BRANCH 42 43
ATOM     43  CG  GLU F 310      27.680  51.377  -6.926  1.00 45.60 LIG 0.12  C 
BRANCH 43 44
ATOM     44  CD  GLU F 310      26.798  52.266  -7.791  1.00 46.85 LIG 0.17  C 
ATOM     45 OE2  GLU F 310      27.166  52.484  -8.966  1.00 47.09 LIG-0.65  OA
ATOM     46 OE1  GLU F 310      25.754  52.761  -7.300  1.00 45.53 LIG-0.65  OA
ENDBRANCH 43 44
ENDBRANCH 42 43
ENDBRANCH 41 42
BRANCH 41 47
ATOM     47  N   GLU F 310      30.004  52.693  -7.084  1.00 43.23 LIG-0.35  N 
ATOM     48  C   VAL F 309      30.100  53.639  -8.025  1.00 44.16 LIG 0.26  C 
ATOM     49 O    VAL F 309      29.632  54.773  -7.903  1.00 43.83 LIG-0.27  OA
ATOM     50 H    GLU F 310      30.308  51.895  -7.189  1.00 43.23 LIG 0.16  HD
BRANCH 48 51
ATOM     51  CA  VAL F 309      30.843  53.253  -9.311  1.00 44.86 LIG 0.40  C 
ATOM     52  N   VAL F 309      32.243  52.852  -8.982  1.00 44.58 LIG 0.61  N 
BRANCH 51 53
ATOM     53  CB  VAL F 309      30.107  52.113 -10.074  1.00 44.54 LIG 0.03  C 
ATOM     54  CG2 VAL F 309      31.114  51.219 -10.788  1.00 44.44 LIG 0.01  C 
ATOM     55  CG1 VAL F 309      29.074  52.648 -11.064  1.00 43.50 LIG 0.01  C 
ENDBRANCH 51 53
ENDBRANCH 48 51
ENDBRANCH 41 47
ENDBRANCH 39 41
ENDBRANCH 36 37
BRANCH 36 56
ATOM     56  CB  TYR F 311      31.510  49.627  -3.191  1.00 38.48 LIG 0.07  C 
BRANCH 56 57
ATOM     57  CG  TYR F 311      30.145  49.214  -3.695  1.00 36.48 LIG-0.06  A 
ATOM     58  CD1 TYR F 311      28.986  49.733  -3.125  1.00 35.51 LIG 0.01  A 
ATOM     59  CE1 TYR F 311      27.733  49.357  -3.579  1.00 35.35 LIG 0.04  A 
ATOM     60  CZ  TYR F 311      27.626  48.444  -4.603  1.00 34.90 LIG 0.07  A 
ATOM     61  CE2 TYR F 311      28.757  47.906  -5.187  1.00 36.46 LIG 0.04  A 
ATOM     62  CD2 TYR F 311      30.010  48.286  -4.729  1.00 36.25 LIG 0.01  A 
BRANCH 60 63
ATOM     63 OH   TYR F 311      26.389  48.068  -5.045  1.00 38.07 LIG-0.36  OA
ATOM     64 HH   TYR F 311      25.907  48.749  -5.144  1.00 38.07 LIG 0.22  HD
ENDBRANCH 60 63
ENDBRANCH 56 57
ENDBRANCH 36 56
ENDBRANCH 1 36
TORSDOF 27
ENDMDL
MODEL 30
USER: ADFR SOLUTION from run 141
USER: SCORE 18.909284 LL:  -4.871 LR: -14.555 RR:   0.000 FEB:  -6.501
USER: RMSD 11.452502
USER: SEED 140
USER: STATUS searching
USER: GENES 29
USER: genes 0 Translation |==|  0.40114 0.44694 0.44807
USER: genes 1 Rotation |==|  0.71186 0.05542 0.58509 0.51497
USER: genes 2 Torsion [C]-N--CA-[C] |==|  0.82233
USER: genes 3 Torsion [N]-CA--C-[N] |==|  0.41243
USER: genes 4 Torsion [C]-N--CA-[C] |==|  0.68912
USER: genes 5 Torsion [N]-CA--C-[N] |==|  0.29756
USER: genes 6 Torsion [C]-N--CA-[CB] |==|  0.22519
USER: genes 7 Torsion [N]-CA--CB-[CG] |==|  0.63709
USER: genes 8 Torsion [CA]-CB--CG-[CD2] |==|  0.73298
USER: genes 9 Torsion [N]-CA--C-[O] |==|  0.90285
USER: genes 10 Torsion [N]-CA--CB-[CG] |==|  0.94829
USER: genes 11 Torsion [CA]-CB--CG-[CD] |==|  0.80215
USER: genes 12 Torsion [CB]-CG--CD-[CE] |==|  0.59404
USER: genes 13 Torsion [CG]-CD--CE-[NZ] |==|  0.72386
USER: genes 14 Torsion [CD]-CE--NZ-[HZ2] |==|  0.32371
USER: genes 15 Torsion [N]-CA--CB-[CG2] |==|  0.37815
USER: genes 16 Torsion [CA]-CB--OG1-[HG1] |==|  0.17432
USER: genes 17 Torsion [N]-C--CA-[N] |==|  0.97146
USER: genes 18 Torsion [C]-CA--N-[C] |==|  0.77131
USER: genes 19 Torsion [N]-C--CA-[N] |==|  0.47889
USER: genes 20 Torsion [C]-CA--CB-[CG] |==|  0.42339
USER: genes 21 Torsion [CA]-CB--CG-[CD] |==|  0.82766
USER: genes 22 Torsion [CB]-CG--CD-[OE2] |==|  0.49587
USER: genes 23 Torsion [C]-CA--N-[C] |==|  0.66766
USER: genes 24 Torsion [N]-C--CA-[N] |==|  0.56040
USER: genes 25 Torsion [C]-CA--CB-[CG2] |==|  0.58665
USER: genes 26 Torsion [C]-CA--CB-[CG] |==|  0.25571
USER: genes 27 Torsion [CA]-CB--CG-[CD1] |==|  0.93592
USER: genes 28 Torsion [CE1]-CZ--OH-[HH] |==|  0.48610
ROOT
ATOM      1  C   TYR F 311      33.265  51.077  -4.323  1.00 39.57 LIG 0.24  C 
ATOM      2 O    TYR F 311      33.976  50.629  -3.420  1.00 35.87 LIG-0.27  OA
ATOM      3  N   THR F 312      33.729  51.457  -5.511  1.00 39.28 LIG-0.34  N 
ATOM      4 H    THR F 312      33.220  51.731  -6.147  1.00 39.28 LIG 0.16  HD
ENDROOT
BRANCH 3 5
ATOM      5  CA  THR F 312      35.144  51.450  -5.860  1.00 41.67 LIG 0.20  C 
BRANCH 5 6
ATOM      6  C   THR F 312      35.920  52.431  -4.994  1.00 45.40 LIG 0.24  C 
ATOM      7  N   LYS F 313      37.173  52.101  -4.726  1.00 48.10 LIG-0.35  N 
ATOM      8 H    LYS F 313      37.527  51.349  -4.944  1.00 48.10 LIG 0.16  HD
ATOM      9 O    THR F 312      35.409  53.479  -4.605  1.00 48.99 LIG-0.27  OA
BRANCH 7 10
ATOM     10  CA  LYS F 313      38.073  53.004  -4.023  1.00 51.61 LIG 0.18  C 
BRANCH 10 11
ATOM     11  C   LYS F 313      39.174  53.479  -4.980  1.00 54.92 LIG 0.24  C 
ATOM     12 O    LYS F 313      40.071  52.708  -5.338  1.00 54.36 LIG-0.27  OA
ATOM     13  N   HIS F 314      39.076  54.747  -5.391  1.00 57.06 LIG-0.35  N 
ATOM     14 H    HIS F 314      38.451  55.275  -5.123  1.00 57.06 LIG 0.16  HD
BRANCH 13 15
ATOM     15  CA  HIS F 314      40.008  55.384  -6.335  1.00 57.78 LIG 0.17  C 
BRANCH 15 16
ATOM     16  CB  HIS F 314      39.661  55.022  -7.787  1.00 57.79 LIG 0.09  C 
BRANCH 16 17
ATOM     17  CG  HIS F 314      40.832  54.546  -8.591  1.00 61.61 LIG 0.06  A 
ATOM     18  CD2 HIS F 314      41.659  55.202  -9.440  1.00 62.97 LIG 0.14  A 
ATOM     19 NE2  HIS F 314      42.571  54.286  -9.910  1.00 63.36 LIG-0.25  NA
ATOM     20  CE1 HIS F 314      42.317  53.109  -9.367  1.00 61.50 LIG 0.23  A 
ATOM     21 ND1  HIS F 314      41.272  53.236  -8.567  1.00 63.00 LIG-0.24  NA
ENDBRANCH 16 17
ENDBRANCH 15 16
BRANCH 15 22
ATOM     22  C   HIS F 314      40.064  56.906  -6.163  1.00 59.91 LIG 0.22  C 
ATOM     23 O    HIS F 314      39.055  57.550  -5.852  1.00 59.00 LIG-0.29  OA
ENDBRANCH 15 22
ENDBRANCH 13 15
ENDBRANCH 10 11
BRANCH 10 24
ATOM     24  CB  LYS F 313      38.666  52.322  -2.785  1.00 49.70 LIG 0.04  C 
BRANCH 24 25
ATOM     25  CG  LYS F 313      37.874  51.103  -2.334  1.00 49.89 LIG 0.00  C 
BRANCH 25 26
ATOM     26  CD  LYS F 313      36.536  51.477  -1.719  1.00 49.58 LIG 0.03  C 
BRANCH 26 27
ATOM     27  CE  LYS F 313      36.160  50.512  -0.603  1.00 48.23 LIG 0.23  C 
BRANCH 27 28
ATOM     28  NZ  LYS F 313      35.197  49.487  -1.073  1.00 47.83 LIG-0.08  N 
ATOM     29 HZ2  LYS F 313      35.572  48.681  -1.020  1.00 47.83 LIG 0.27  HD
ATOM     30 HZ1  LYS F 313      34.974  49.655  -1.918  1.00 47.83 LIG 0.27  HD
ATOM     31 HZ3  LYS F 313      34.467  49.509  -0.564  1.00 47.83 LIG 0.27  HD
ENDBRANCH 27 28
ENDBRANCH 26 27
ENDBRANCH 25 26
ENDBRANCH 24 25
ENDBRANCH 10 24
ENDBRANCH 7 10
ENDBRANCH 5 6
BRANCH 5 32
ATOM     32  CB  THR F 312      35.358  51.890  -7.318  1.00 41.09 LIG 0.15  C 
ATOM     33  CG2 THR F 312      36.519  52.863  -7.435  1.00 40.88 LIG 0.04  C 
BRANCH 32 34
ATOM     34 OG1  THR F 312      35.624  50.733  -8.119  1.00 43.07 LIG-0.39  OA
ATOM     35 HG1  THR F 312      34.957  50.223  -8.105  1.00 43.07 LIG 0.21  HD
ENDBRANCH 32 34
ENDBRANCH 5 32
ENDBRANCH 3 5
BRANCH 1 36
ATOM     36  CA  TYR F 311      31.758  51.261  -4.125  1.00 39.31 LIG 0.18  C 
BRANCH 36 37
ATOM     37  N   TYR F 311      31.133  52.043  -5.191  1.00 40.62 LIG-0.35  N 
ATOM     38 H    TYR F 311      30.756  51.573  -5.805  1.00 40.62 LIG 0.16  HD
ATOM     39  C   GLU F 310      31.164  53.372  -5.182  1.00 41.86 LIG 0.24  C 
ATOM     40 O    GLU F 310      31.795  54.005  -4.348  1.00 41.90 LIG-0.27  OA
BRANCH 39 41
ATOM     41  CA  GLU F 310      30.403  54.103  -6.287  1.00 43.14 LIG 0.18  C 
BRANCH 41 42
ATOM     42  CB  GLU F 310      31.067  53.800  -7.633  1.00 44.06 LIG 0.04  C 
BRANCH 42 43
ATOM     43  CG  GLU F 310      30.116  53.874  -8.816  1.00 45.60 LIG 0.12  C 
BRANCH 43 44
ATOM     44  CD  GLU F 310      28.982  52.862  -8.744  1.00 46.85 LIG 0.17  C 
ATOM     45 OE2  GLU F 310      28.135  52.872  -9.665  1.00 47.09 LIG-0.65  OA
ATOM     46 OE1  GLU F 310      28.921  52.073  -7.770  1.00 45.53 LIG-0.65  OA
ENDBRANCH 43 44
ENDBRANCH 42 43
ENDBRANCH 41 42
BRANCH 41 47
ATOM     47  N   GLU F 310      30.384  55.552  -6.035  1.00 43.23 LIG-0.35  N 
ATOM     48  C   VAL F 309      29.258  56.256  -5.868  1.00 44.16 LIG 0.26  C 
ATOM     49 O    VAL F 309      28.130  55.766  -5.949  1.00 43.83 LIG-0.27  OA
ATOM     50 H    GLU F 310      31.167  55.907  -6.005  1.00 43.23 LIG 0.16  HD
BRANCH 48 51
ATOM     51  CA  VAL F 309      29.423  57.750  -5.560  1.00 44.86 LIG 0.40  C 
ATOM     52  N   VAL F 309      28.189  58.266  -4.899  1.00 44.58 LIG 0.61  N 
BRANCH 51 53
ATOM     53  CB  VAL F 309      30.676  58.014  -4.675  1.00 44.54 LIG 0.03  C 
ATOM     54  CG2 VAL F 309      30.441  59.222  -3.775  1.00 44.44 LIG 0.01  C 
ATOM     55  CG1 VAL F 309      31.944  58.205  -5.503  1.00 43.50 LIG 0.01  C 
ENDBRANCH 51 53
ENDBRANCH 48 51
ENDBRANCH 41 47
ENDBRANCH 39 41
ENDBRANCH 36 37
BRANCH 36 56
ATOM     56  CB  TYR F 311      31.097  49.882  -4.043  1.00 38.48 LIG 0.07  C 
BRANCH 56 57
ATOM     57  CG  TYR F 311      30.977  49.365  -2.626  1.00 36.48 LIG-0.06  A 
ATOM     58  CD1 TYR F 311      31.819  49.835  -1.622  1.00 35.51 LIG 0.01  A 
ATOM     59  CE1 TYR F 311      31.717  49.365  -0.323  1.00 35.35 LIG 0.04  A 
ATOM     60  CZ  TYR F 311      30.777  48.407  -0.018  1.00 34.90 LIG 0.07  A 
ATOM     61  CE2 TYR F 311      29.930  47.917  -0.993  1.00 36.46 LIG 0.04  A 
ATOM     62  CD2 TYR F 311      30.035  48.390  -2.293  1.00 36.25 LIG 0.01  A 
BRANCH 60 63
ATOM     63 OH   TYR F 311      30.682  47.939   1.262  1.00 38.07 LIG-0.36  OA
ATOM     64 HH   TYR F 311      30.029  47.414   1.322  1.00 38.07 LIG 0.22  HD
ENDBRANCH 60 63
ENDBRANCH 56 57
ENDBRANCH 36 56
ENDBRANCH 1 36
TORSDOF 27
ENDMDL
MODEL 31
USER: ADFR SOLUTION from run 24
USER: SCORE 19.119687 LL:  -5.285 LR: -14.479 RR:   0.000 FEB:  -6.425
USER: RMSD 3.988870
USER: SEED 23
USER: STATUS no improvement in best in 2 clusters for 5 generations
USER: GENES 29
USER: genes 0 Translation |==|  0.55111 0.44700 0.53999
USER: genes 1 Rotation |==|  0.51903 0.53494 0.49565 0.99840
USER: genes 2 Torsion [C]-N--CA-[C] |==|  0.72655
USER: genes 3 Torsion [N]-CA--C-[N] |==|  0.51649
USER: genes 4 Torsion [C]-N--CA-[C] |==|  0.79338
USER: genes 5 Torsion [N]-CA--C-[N] |==|  0.38739
USER: genes 6 Torsion [C]-N--CA-[CB] |==|  0.29318
USER: genes 7 Torsion [N]-CA--CB-[CG] |==|  0.01391
USER: genes 8 Torsion [CA]-CB--CG-[CD2] |==|  0.68183
USER: genes 9 Torsion [N]-CA--C-[O] |==|  0.37807
USER: genes 10 Torsion [N]-CA--CB-[CG] |==|  0.28670
USER: genes 11 Torsion [CA]-CB--CG-[CD] |==|  0.54726
USER: genes 12 Torsion [CB]-CG--CD-[CE] |==|  0.40315
USER: genes 13 Torsion [CG]-CD--CE-[NZ] |==|  0.40001
USER: genes 14 Torsion [CD]-CE--NZ-[HZ2] |==|  0.52563
USER: genes 15 Torsion [N]-CA--CB-[CG2] |==|  0.61610
USER: genes 16 Torsion [CA]-CB--OG1-[HG1] |==|  0.82816
USER: genes 17 Torsion [N]-C--CA-[N] |==|  0.43936
USER: genes 18 Torsion [C]-CA--N-[C] |==|  0.55443
USER: genes 19 Torsion [N]-C--CA-[N] |==|  0.35532
USER: genes 20 Torsion [C]-CA--CB-[CG] |==|  0.19534
USER: genes 21 Torsion [CA]-CB--CG-[CD] |==|  0.30891
USER: genes 22 Torsion [CB]-CG--CD-[OE2] |==|  0.53735
USER: genes 23 Torsion [C]-CA--N-[C] |==|  0.76501
USER: genes 24 Torsion [N]-C--CA-[N] |==|  0.40269
USER: genes 25 Torsion [C]-CA--CB-[CG2] |==|  0.93759
USER: genes 26 Torsion [C]-CA--CB-[CG] |==|  0.84013
USER: genes 27 Torsion [CA]-CB--CG-[CD1] |==|  0.75378
USER: genes 28 Torsion [CE1]-CZ--OH-[HH] |==|  0.52762
ROOT
ATOM      1  C   TYR F 311      37.426  51.078  -2.530  1.00 39.57 LIG 0.24  C 
ATOM      2 O    TYR F 311      37.371  50.075  -3.246  1.00 35.87 LIG-0.27  OA
ATOM      3  N   THR F 312      36.768  51.204  -1.380  1.00 39.28 LIG-0.34  N 
ATOM      4 H    THR F 312      36.845  51.891  -0.869  1.00 39.28 LIG 0.16  HD
ENDROOT
BRANCH 3 5
ATOM      5  CA  THR F 312      35.851  50.195  -0.865  1.00 41.67 LIG 0.20  C 
BRANCH 5 6
ATOM      6  C   THR F 312      34.409  50.561  -1.182  1.00 45.40 LIG 0.24  C 
ATOM      7  N   LYS F 313      33.483  49.778  -0.656  1.00 48.10 LIG-0.35  N 
ATOM      8 H    LYS F 313      33.656  49.054  -0.226  1.00 48.10 LIG 0.16  HD
ATOM      9 O    THR F 312      34.139  51.550  -1.861  1.00 48.99 LIG-0.27  OA
BRANCH 7 10
ATOM     10  CA  LYS F 313      32.064  50.083  -0.764  1.00 51.61 LIG 0.18  C 
BRANCH 10 11
ATOM     11  C   LYS F 313      31.713  51.235   0.186  1.00 54.92 LIG 0.24  C 
ATOM     12 O    LYS F 313      32.212  51.293   1.314  1.00 54.36 LIG-0.27  OA
ATOM     13  N   HIS F 314      30.862  52.145  -0.299  1.00 57.06 LIG-0.35  N 
ATOM     14 H    HIS F 314      30.513  52.083  -1.083  1.00 57.06 LIG 0.16  HD
BRANCH 13 15
ATOM     15  CA  HIS F 314      30.426  53.342   0.438  1.00 57.78 LIG 0.17  C 
BRANCH 15 16
ATOM     16  CB  HIS F 314      31.102  54.608  -0.110  1.00 57.79 LIG 0.09  C 
BRANCH 16 17
ATOM     17  CG  HIS F 314      31.946  54.370  -1.325  1.00 61.61 LIG 0.06  A 
ATOM     18  CD2 HIS F 314      33.282  54.480  -1.520  1.00 62.97 LIG 0.14  A 
ATOM     19 NE2  HIS F 314      33.532  54.140  -2.829  1.00 63.36 LIG-0.25  NA
ATOM     20  CE1 HIS F 314      32.391  53.829  -3.418  1.00 61.50 LIG 0.23  A 
ATOM     21 ND1  HIS F 314      31.417  53.960  -2.533  1.00 63.00 LIG-0.24  NA
ENDBRANCH 16 17
ENDBRANCH 15 16
BRANCH 15 22
ATOM     22  C   HIS F 314      28.902  53.507   0.435  1.00 59.91 LIG 0.22  C 
ATOM     23 O    HIS F 314      28.292  53.818   1.464  1.00 59.00 LIG-0.29  OA
ENDBRANCH 15 22
ENDBRANCH 13 15
ENDBRANCH 10 11
BRANCH 10 24
ATOM     24  CB  LYS F 313      31.218  48.839  -0.469  1.00 49.70 LIG 0.04  C 
BRANCH 24 25
ATOM     25  CG  LYS F 313      30.592  48.854   0.918  1.00 49.89 LIG 0.00  C 
BRANCH 25 26
ATOM     26  CD  LYS F 313      30.116  47.478   1.354  1.00 49.58 LIG 0.03  C 
BRANCH 26 27
ATOM     27  CE  LYS F 313      30.304  47.285   2.853  1.00 48.23 LIG 0.23  C 
BRANCH 27 28
ATOM     28  NZ  LYS F 313      29.202  46.487   3.440  1.00 47.83 LIG-0.08  N 
ATOM     29 HZ2  LYS F 313      29.264  46.503   4.328  1.00 47.83 LIG 0.27  HD
ATOM     30 HZ1  LYS F 313      29.259  45.646   3.154  1.00 47.83 LIG 0.27  HD
ATOM     31 HZ3  LYS F 313      28.420  46.832   3.191  1.00 47.83 LIG 0.27  HD
ENDBRANCH 27 28
ENDBRANCH 26 27
ENDBRANCH 25 26
ENDBRANCH 24 25
ENDBRANCH 10 24
ENDBRANCH 7 10
ENDBRANCH 5 6
BRANCH 5 32
ATOM     32  CB  THR F 312      35.948  50.088   0.667  1.00 41.09 LIG 0.15  C 
ATOM     33  CG2 THR F 312      35.917  48.639   1.120  1.00 40.88 LIG 0.04  C 
BRANCH 32 34
ATOM     34 OG1  THR F 312      37.170  50.695   1.099  1.00 43.07 LIG-0.39  OA
ATOM     35 HG1  THR F 312      37.822  50.283   0.766  1.00 43.07 LIG 0.21  HD
ENDBRANCH 32 34
ENDBRANCH 5 32
ENDBRANCH 3 5
BRANCH 1 36
ATOM     36  CA  TYR F 311      38.257  52.297  -2.940  1.00 39.31 LIG 0.18  C 
BRANCH 36 37
ATOM     37  N   TYR F 311      39.325  51.970  -3.882  1.00 40.62 LIG-0.35  N 
ATOM     38 H    TYR F 311      39.218  51.226  -4.301  1.00 40.62 LIG 0.16  HD
ATOM     39  C   GLU F 310      40.367  52.779  -4.055  1.00 41.86 LIG 0.24  C 
ATOM     40 O    GLU F 310      40.537  53.777  -3.371  1.00 41.90 LIG-0.27  OA
BRANCH 39 41
ATOM     41  CA  GLU F 310      41.383  52.400  -5.130  1.00 43.14 LIG 0.18  C 
BRANCH 41 42
ATOM     42  CB  GLU F 310      42.689  51.975  -4.452  1.00 44.06 LIG 0.04  C 
BRANCH 42 43
ATOM     43  CG  GLU F 310      42.598  50.644  -3.724  1.00 45.60 LIG 0.12  C 
BRANCH 43 44
ATOM     44  CD  GLU F 310      43.409  49.538  -4.384  1.00 46.85 LIG 0.17  C 
ATOM     45 OE2  GLU F 310      43.195  48.362  -4.014  1.00 47.09 LIG-0.65  OA
ATOM     46 OE1  GLU F 310      44.266  49.836  -5.251  1.00 45.53 LIG-0.65  OA
ENDBRANCH 43 44
ENDBRANCH 42 43
ENDBRANCH 41 42
BRANCH 41 47
ATOM     47  N   GLU F 310      41.620  53.529  -6.043  1.00 43.23 LIG-0.35  N 
ATOM     48  C   VAL F 309      40.845  53.795  -7.100  1.00 44.16 LIG 0.26  C 
ATOM     49 O    VAL F 309      39.883  53.099  -7.434  1.00 43.83 LIG-0.27  OA
ATOM     50 H    GLU F 310      42.306  54.004  -5.834  1.00 43.23 LIG 0.16  HD
BRANCH 48 51
ATOM     51  CA  VAL F 309      41.204  55.044  -7.916  1.00 44.86 LIG 0.40  C 
ATOM     52  N   VAL F 309      40.926  54.797  -9.362  1.00 44.58 LIG 0.61  N 
BRANCH 51 53
ATOM     53  CB  VAL F 309      40.429  56.296  -7.412  1.00 44.54 LIG 0.03  C 
ATOM     54  CG2 VAL F 309      39.169  55.873  -6.666  1.00 44.44 LIG 0.01  C 
ATOM     55  CG1 VAL F 309      40.080  57.259  -8.544  1.00 43.50 LIG 0.01  C 
ENDBRANCH 51 53
ENDBRANCH 48 51
ENDBRANCH 41 47
ENDBRANCH 39 41
ENDBRANCH 36 37
BRANCH 36 56
ATOM     56  CB  TYR F 311      37.327  53.345  -3.559  1.00 38.48 LIG 0.07  C 
BRANCH 56 57
ATOM     57  CG  TYR F 311      36.556  52.822  -4.752  1.00 36.48 LIG-0.06  A 
ATOM     58  CD1 TYR F 311      37.087  52.904  -6.036  1.00 35.51 LIG 0.01  A 
ATOM     59  CE1 TYR F 311      36.387  52.430  -7.133  1.00 35.35 LIG 0.04  A 
ATOM     60  CZ  TYR F 311      35.138  51.880  -6.956  1.00 34.90 LIG 0.07  A 
ATOM     61  CE2 TYR F 311      34.581  51.788  -5.695  1.00 36.46 LIG 0.04  A 
ATOM     62  CD2 TYR F 311      35.286  52.263  -4.599  1.00 36.25 LIG 0.01  A 
BRANCH 60 63
ATOM     63 OH   TYR F 311      34.444  51.419  -8.040  1.00 38.07 LIG-0.36  OA
ATOM     64 HH   TYR F 311      33.656  51.238  -7.813  1.00 38.07 LIG 0.22  HD
ENDBRANCH 60 63
ENDBRANCH 56 57
ENDBRANCH 36 56
ENDBRANCH 1 36
TORSDOF 27
ENDMDL
MODEL 32
USER: ADFR SOLUTION from run 1
USER: SCORE 19.150768 LL:  -6.211 LR: -14.478 RR:   0.000 FEB:  -6.424
USER: RMSD 9.151905
USER: SEED 151670
USER: STATUS no improvement in best in 11 clusters for 5 generations
USER: GENES 29
USER: genes 0 Translation |==|  0.41457 0.49993 0.40118
USER: genes 1 Rotation |==|  0.50287 0.93327 0.65183 0.69804
USER: genes 2 Torsion [C]-N--CA-[C] |==|  0.78206
USER: genes 3 Torsion [N]-CA--C-[N] |==|  0.99717
USER: genes 4 Torsion [C]-N--CA-[C] |==|  0.52222
USER: genes 5 Torsion [N]-CA--C-[N] |==|  0.27656
USER: genes 6 Torsion [C]-N--CA-[CB] |==|  0.47960
USER: genes 7 Torsion [N]-CA--CB-[CG] |==|  0.84003
USER: genes 8 Torsion [CA]-CB--CG-[CD2] |==|  0.90250
USER: genes 9 Torsion [N]-CA--C-[O] |==|  0.98220
USER: genes 10 Torsion [N]-CA--CB-[CG] |==|  0.13706
USER: genes 11 Torsion [CA]-CB--CG-[CD] |==|  0.69380
USER: genes 12 Torsion [CB]-CG--CD-[CE] |==|  0.96732
USER: genes 13 Torsion [CG]-CD--CE-[NZ] |==|  0.37271
USER: genes 14 Torsion [CD]-CE--NZ-[HZ2] |==|  0.65822
USER: genes 15 Torsion [N]-CA--CB-[CG2] |==|  0.84794
USER: genes 16 Torsion [CA]-CB--OG1-[HG1] |==|  0.61842
USER: genes 17 Torsion [N]-C--CA-[N] |==|  0.39309
USER: genes 18 Torsion [C]-CA--N-[C] |==|  0.62378
USER: genes 19 Torsion [N]-C--CA-[N] |==|  0.81247
USER: genes 20 Torsion [C]-CA--CB-[CG] |==|  0.16037
USER: genes 21 Torsion [CA]-CB--CG-[CD] |==|  0.17292
USER: genes 22 Torsion [CB]-CG--CD-[OE2] |==|  0.79791
USER: genes 23 Torsion [C]-CA--N-[C] |==|  0.64456
USER: genes 24 Torsion [N]-C--CA-[N] |==|  0.96836
USER: genes 25 Torsion [C]-CA--CB-[CG2] |==|  0.19364
USER: genes 26 Torsion [C]-CA--CB-[CG] |==|  0.23512
USER: genes 27 Torsion [CA]-CB--CG-[CD1] |==|  0.46612
USER: genes 28 Torsion [CE1]-CZ--OH-[HH] |==|  0.89679
ROOT
ATOM      1  C   TYR F 311      33.637  52.111  -5.237  1.00 39.57 LIG 0.24  C 
ATOM      2 O    TYR F 311      33.402  50.932  -5.516  1.00 35.87 LIG-0.27  OA
ATOM      3  N   THR F 312      34.865  52.606  -5.097  1.00 39.28 LIG-0.34  N 
ATOM      4 H    THR F 312      35.019  53.438  -4.941  1.00 39.28 LIG 0.16  HD
ENDROOT
BRANCH 3 5
ATOM      5  CA  THR F 312      36.073  51.798  -5.190  1.00 41.67 LIG 0.20  C 
BRANCH 5 6
ATOM      6  C   THR F 312      36.306  51.021  -3.903  1.00 45.40 LIG 0.24  C 
ATOM      7  N   LYS F 313      35.421  51.215  -2.940  1.00 48.10 LIG-0.35  N 
ATOM      8 H    LYS F 313      34.791  51.799  -2.981  1.00 48.10 LIG 0.16  HD
ATOM      9 O    THR F 312      37.247  50.237  -3.795  1.00 48.99 LIG-0.27  OA
BRANCH 7 10
ATOM     10  CA  LYS F 313      35.441  50.442  -1.707  1.00 51.61 LIG 0.18  C 
BRANCH 10 11
ATOM     11  C   LYS F 313      34.185  50.755  -0.885  1.00 54.92 LIG 0.24  C 
ATOM     12 O    LYS F 313      34.122  51.782  -0.200  1.00 54.36 LIG-0.27  OA
ATOM     13  N   HIS F 314      33.195  49.861  -0.977  1.00 57.06 LIG-0.35  N 
ATOM     14 H    HIS F 314      33.260  49.145  -1.449  1.00 57.06 LIG 0.16  HD
BRANCH 13 15
ATOM     15  CA  HIS F 314      31.897  49.994  -0.297  1.00 57.78 LIG 0.17  C 
BRANCH 15 16
ATOM     16  CB  HIS F 314      30.918  48.899  -0.749  1.00 57.79 LIG 0.09  C 
BRANCH 16 17
ATOM     17  CG  HIS F 314      30.668  48.881  -2.226  1.00 61.61 LIG 0.06  A 
ATOM     18  CD2 HIS F 314      30.591  49.886  -3.132  1.00 62.97 LIG 0.14  A 
ATOM     19 NE2  HIS F 314      30.343  49.312  -4.357  1.00 63.36 LIG-0.25  NA
ATOM     20  CE1 HIS F 314      30.273  48.000  -4.211  1.00 61.50 LIG 0.23  A 
ATOM     21 ND1  HIS F 314      30.465  47.713  -2.935  1.00 63.00 LIG-0.24  NA
ENDBRANCH 16 17
ENDBRANCH 15 16
BRANCH 15 22
ATOM     22  C   HIS F 314      32.036  49.988   1.230  1.00 59.91 LIG 0.22  C 
ATOM     23 O    HIS F 314      33.125  49.764   1.771  1.00 59.00 LIG-0.29  OA
ENDBRANCH 15 22
ENDBRANCH 13 15
ENDBRANCH 10 11
BRANCH 10 24
ATOM     24  CB  LYS F 313      36.718  50.730  -0.909  1.00 49.70 LIG 0.04  C 
BRANCH 24 25
ATOM     25  CG  LYS F 313      36.996  52.216  -0.738  1.00 49.89 LIG 0.00  C 
BRANCH 25 26
ATOM     26  CD  LYS F 313      38.204  52.676  -1.538  1.00 49.58 LIG 0.03  C 
BRANCH 26 27
ATOM     27  CE  LYS F 313      38.990  51.485  -2.071  1.00 48.23 LIG 0.23  C 
BRANCH 27 28
ATOM     28  NZ  LYS F 313      39.349  51.667  -3.498  1.00 47.83 LIG-0.08  N 
ATOM     29 HZ2  LYS F 313      39.030  50.986  -3.974  1.00 47.83 LIG 0.27  HD
ATOM     30 HZ1  LYS F 313      40.235  51.697  -3.580  1.00 47.83 LIG 0.27  HD
ATOM     31 HZ3  LYS F 313      38.998  52.429  -3.798  1.00 47.83 LIG 0.27  HD
ENDBRANCH 27 28
ENDBRANCH 26 27
ENDBRANCH 25 26
ENDBRANCH 24 25
ENDBRANCH 10 24
ENDBRANCH 7 10
ENDBRANCH 5 6
BRANCH 5 32
ATOM     32  CB  THR F 312      37.316  52.680  -5.399  1.00 41.09 LIG 0.15  C 
ATOM     33  CG2 THR F 312      37.150  53.587  -6.606  1.00 40.88 LIG 0.04  C 
BRANCH 32 34
ATOM     34 OG1  THR F 312      37.522  53.478  -4.229  1.00 43.07 LIG-0.39  OA
ATOM     35 HG1  THR F 312      37.723  54.262  -4.455  1.00 43.07 LIG 0.21  HD
ENDBRANCH 32 34
ENDBRANCH 5 32
ENDBRANCH 3 5
BRANCH 1 36
ATOM     36  CA  TYR F 311      32.502  53.108  -4.997  1.00 39.31 LIG 0.18  C 
BRANCH 36 37
ATOM     37  N   TYR F 311      31.382  52.932  -5.919  1.00 40.62 LIG-0.35  N 
ATOM     38 H    TYR F 311      31.141  52.114  -6.038  1.00 40.62 LIG 0.16  HD
ATOM     39  C   GLU F 310      30.803  53.973  -6.511  1.00 41.86 LIG 0.24  C 
ATOM     40 O    GLU F 310      31.234  55.111  -6.397  1.00 41.90 LIG-0.27  OA
BRANCH 39 41
ATOM     41  CA  GLU F 310      29.580  53.698  -7.383  1.00 43.14 LIG 0.18  C 
BRANCH 41 42
ATOM     42  CB  GLU F 310      28.545  52.926  -6.560  1.00 44.06 LIG 0.04  C 
BRANCH 42 43
ATOM     43  CG  GLU F 310      28.108  53.643  -5.293  1.00 45.60 LIG 0.12  C 
BRANCH 43 44
ATOM     44  CD  GLU F 310      27.421  54.975  -5.560  1.00 46.85 LIG 0.17  C 
ATOM     45 OE2  GLU F 310      28.134  55.930  -5.941  1.00 47.09 LIG-0.65  OA
ATOM     46 OE1  GLU F 310      26.185  55.078  -5.375  1.00 45.53 LIG-0.65  OA
ENDBRANCH 43 44
ENDBRANCH 42 43
ENDBRANCH 41 42
BRANCH 41 47
ATOM     47  N   GLU F 310      29.956  52.936  -8.584  1.00 43.23 LIG-0.35  N 
ATOM     48  C   VAL F 309      29.630  53.311  -9.826  1.00 44.16 LIG 0.26  C 
ATOM     49 O    VAL F 309      28.949  54.307 -10.082  1.00 43.83 LIG-0.27  OA
ATOM     50 H    GLU F 310      30.408  52.224  -8.412  1.00 43.23 LIG 0.16  HD
BRANCH 48 51
ATOM     51  CA  VAL F 309      30.151  52.428 -10.967  1.00 44.86 LIG 0.40  C 
ATOM     52  N   VAL F 309      31.162  51.465 -10.437  1.00 44.58 LIG 0.61  N 
BRANCH 51 53
ATOM     53  CB  VAL F 309      28.991  51.673 -11.679  1.00 44.54 LIG 0.03  C 
ATOM     54  CG2 VAL F 309      28.131  52.652 -12.470  1.00 44.44 LIG 0.01  C 
ATOM     55  CG1 VAL F 309      28.130  50.875 -10.703  1.00 43.50 LIG 0.01  C 
ENDBRANCH 51 53
ENDBRANCH 48 51
ENDBRANCH 41 47
ENDBRANCH 39 41
ENDBRANCH 36 37
BRANCH 36 56
ATOM     56  CB  TYR F 311      32.009  52.960  -3.554  1.00 38.48 LIG 0.07  C 
BRANCH 56 57
ATOM     57  CG  TYR F 311      32.828  53.759  -2.564  1.00 36.48 LIG-0.06  A 
ATOM     58  CD1 TYR F 311      32.384  53.948  -1.259  1.00 35.51 LIG 0.01  A 
ATOM     59  CE1 TYR F 311      33.127  54.680  -0.347  1.00 35.35 LIG 0.04  A 
ATOM     60  CZ  TYR F 311      34.319  55.243  -0.738  1.00 34.90 LIG 0.07  A 
ATOM     61  CE2 TYR F 311      34.786  55.078  -2.028  1.00 36.46 LIG 0.04  A 
ATOM     62  CD2 TYR F 311      34.040  54.344  -2.937  1.00 36.25 LIG 0.01  A 
BRANCH 60 63
ATOM     63 OH   TYR F 311      35.048  55.972   0.160  1.00 38.07 LIG-0.36  OA
ATOM     64 HH   TYR F 311      34.528  56.412   0.652  1.00 38.07 LIG 0.22  HD
ENDBRANCH 60 63
ENDBRANCH 56 57
ENDBRANCH 36 56
ENDBRANCH 1 36
TORSDOF 27
ENDMDL
MODEL 33
USER: ADFR SOLUTION from run 163
USER: SCORE 19.619937 LL:  -6.452 LR: -14.466 RR:   0.000 FEB:  -6.412
USER: RMSD 8.948074
USER: SEED 162
USER: STATUS no improvement in best in 11 clusters for 5 generations
USER: GENES 29
USER: genes 0 Translation |==|  0.42305 0.49679 0.41541
USER: genes 1 Rotation |==|  0.51418 0.89640 0.61046 0.78367
USER: genes 2 Torsion [C]-N--CA-[C] |==|  0.80682
USER: genes 3 Torsion [N]-CA--C-[N] |==|  0.97280
USER: genes 4 Torsion [C]-N--CA-[C] |==|  0.64157
USER: genes 5 Torsion [N]-CA--C-[N] |==|  0.20418
USER: genes 6 Torsion [C]-N--CA-[CB] |==|  0.36205
USER: genes 7 Torsion [N]-CA--CB-[CG] |==|  0.47577
USER: genes 8 Torsion [CA]-CB--CG-[CD2] |==|  0.71240
USER: genes 9 Torsion [N]-CA--C-[O] |==|  0.14279
USER: genes 10 Torsion [N]-CA--CB-[CG] |==|  0.62392
USER: genes 11 Torsion [CA]-CB--CG-[CD] |==|  0.89395
USER: genes 12 Torsion [CB]-CG--CD-[CE] |==|  0.77387
USER: genes 13 Torsion [CG]-CD--CE-[NZ] |==|  0.35769
USER: genes 14 Torsion [CD]-CE--NZ-[HZ2] |==|  0.40920
USER: genes 15 Torsion [N]-CA--CB-[CG2] |==|  0.18722
USER: genes 16 Torsion [CA]-CB--OG1-[HG1] |==|  0.17804
USER: genes 17 Torsion [N]-C--CA-[N] |==|  0.47717
USER: genes 18 Torsion [C]-CA--N-[C] |==|  0.54957
USER: genes 19 Torsion [N]-C--CA-[N] |==|  0.79959
USER: genes 20 Torsion [C]-CA--CB-[CG] |==|  0.41199
USER: genes 21 Torsion [CA]-CB--CG-[CD] |==|  0.80291
USER: genes 22 Torsion [CB]-CG--CD-[OE2] |==|  0.57554
USER: genes 23 Torsion [C]-CA--N-[C] |==|  0.69508
USER: genes 24 Torsion [N]-C--CA-[N] |==|  0.89214
USER: genes 25 Torsion [C]-CA--CB-[CG2] |==|  0.27294
USER: genes 26 Torsion [C]-CA--CB-[CG] |==|  0.69644
USER: genes 27 Torsion [CA]-CB--CG-[CD1] |==|  0.68407
USER: genes 28 Torsion [CE1]-CZ--OH-[HH] |==|  0.92651
ROOT
ATOM      1  C   TYR F 311      33.873  52.049  -4.960  1.00 39.57 LIG 0.24  C 
ATOM      2 O    TYR F 311      33.489  50.913  -5.249  1.00 35.87 LIG-0.27  OA
ATOM      3  N   THR F 312      35.065  52.314  -4.430  1.00 39.28 LIG-0.34  N 
ATOM      4 H    THR F 312      35.339  53.113  -4.269  1.00 39.28 LIG 0.16  HD
ENDROOT
BRANCH 3 5
ATOM      5  CA  THR F 312      36.030  51.284  -4.068  1.00 41.67 LIG 0.20  C 
BRANCH 5 6
ATOM      6  C   THR F 312      35.546  50.486  -2.868  1.00 45.40 LIG 0.24  C 
ATOM      7  N   LYS F 313      34.481  50.964  -2.245  1.00 48.10 LIG-0.35  N 
ATOM      8 H    LYS F 313      34.115  51.718  -2.434  1.00 48.10 LIG 0.16  HD
ATOM      9 O    THR F 312      36.101  49.442  -2.531  1.00 48.99 LIG-0.27  OA
BRANCH 7 10
ATOM     10  CA  LYS F 313      33.828  50.236  -1.166  1.00 51.61 LIG 0.18  C 
BRANCH 10 11
ATOM     11  C   LYS F 313      32.324  50.141  -1.449  1.00 54.92 LIG 0.24  C 
ATOM     12 O    LYS F 313      31.520  50.833  -0.814  1.00 54.36 LIG-0.27  OA
ATOM     13  N   HIS F 314      31.969  49.286  -2.414  1.00 57.06 LIG-0.35  N 
ATOM     14 H    HIS F 314      32.540  48.802  -2.838  1.00 57.06 LIG 0.16  HD
BRANCH 13 15
ATOM     15  CA  HIS F 314      30.583  49.073  -2.860  1.00 57.78 LIG 0.17  C 
BRANCH 15 16
ATOM     16  CB  HIS F 314      30.472  49.158  -4.390  1.00 57.79 LIG 0.09  C 
BRANCH 16 17
ATOM     17  CG  HIS F 314      29.135  48.749  -4.926  1.00 61.61 LIG 0.06  A 
ATOM     18  CD2 HIS F 314      28.729  47.612  -5.543  1.00 62.97 LIG 0.14  A 
ATOM     19 NE2  HIS F 314      27.392  47.759  -5.828  1.00 63.36 LIG-0.25  NA
ATOM     20  CE1 HIS F 314      26.988  48.942  -5.401  1.00 61.50 LIG 0.23  A 
ATOM     21 ND1  HIS F 314      28.020  49.561  -4.853  1.00 63.00 LIG-0.24  NA
ENDBRANCH 16 17
ENDBRANCH 15 16
BRANCH 15 22
ATOM     22  C   HIS F 314      30.004  47.746  -2.355  1.00 59.91 LIG 0.22  C 
ATOM     23 O    HIS F 314      30.057  47.442  -1.158  1.00 59.00 LIG-0.29  OA
ENDBRANCH 15 22
ENDBRANCH 13 15
ENDBRANCH 10 11
BRANCH 10 24
ATOM     24  CB  LYS F 313      34.101  50.910   0.183  1.00 49.70 LIG 0.04  C 
BRANCH 24 25
ATOM     25  CG  LYS F 313      34.468  49.923   1.283  1.00 49.89 LIG 0.00  C 
BRANCH 25 26
ATOM     26  CD  LYS F 313      33.668  48.633   1.194  1.00 49.58 LIG 0.03  C 
BRANCH 26 27
ATOM     27  CE  LYS F 313      32.290  48.802   1.820  1.00 48.23 LIG 0.23  C 
BRANCH 27 28
ATOM     28  NZ  LYS F 313      31.218  48.351   0.902  1.00 47.83 LIG-0.08  N 
ATOM     29 HZ2  LYS F 313      30.545  48.011   1.376  1.00 47.83 LIG 0.27  HD
ATOM     30 HZ1  LYS F 313      31.539  47.728   0.354  1.00 47.83 LIG 0.27  HD
ATOM     31 HZ3  LYS F 313      30.924  49.043   0.425  1.00 47.83 LIG 0.27  HD
ENDBRANCH 27 28
ENDBRANCH 26 27
ENDBRANCH 25 26
ENDBRANCH 24 25
ENDBRANCH 10 24
ENDBRANCH 7 10
ENDBRANCH 5 6
BRANCH 5 32
ATOM     32  CB  THR F 312      37.379  51.905  -3.665  1.00 41.09 LIG 0.15  C 
ATOM     33  CG2 THR F 312      37.259  52.686  -2.368  1.00 40.88 LIG 0.04  C 
BRANCH 32 34
ATOM     34 OG1  THR F 312      38.342  50.858  -3.503  1.00 43.07 LIG-0.39  OA
ATOM     35 HG1  THR F 312      38.469  50.477  -4.241  1.00 43.07 LIG 0.21  HD
ENDBRANCH 32 34
ENDBRANCH 5 32
ENDBRANCH 3 5
BRANCH 1 36
ATOM     36  CA  TYR F 311      32.969  53.267  -5.168  1.00 39.31 LIG 0.18  C 
BRANCH 36 37
ATOM     37  N   TYR F 311      31.756  52.956  -5.922  1.00 40.62 LIG-0.35  N 
ATOM     38 H    TYR F 311      31.560  52.119  -5.955  1.00 40.62 LIG 0.16  HD
ATOM     39  C   GLU F 310      31.036  53.914  -6.498  1.00 41.86 LIG 0.24  C 
ATOM     40 O    GLU F 310      31.398  55.081  -6.515  1.00 41.90 LIG-0.27  OA
BRANCH 39 41
ATOM     41  CA  GLU F 310      29.734  53.502  -7.183  1.00 43.14 LIG 0.18  C 
BRANCH 41 42
ATOM     42  CB  GLU F 310      28.920  52.632  -6.221  1.00 44.06 LIG 0.04  C 
BRANCH 42 43
ATOM     43  CG  GLU F 310      27.416  52.775  -6.389  1.00 45.60 LIG 0.12  C 
BRANCH 43 44
ATOM     44  CD  GLU F 310      26.879  54.115  -5.907  1.00 46.85 LIG 0.17  C 
ATOM     45 OE2  GLU F 310      25.692  54.158  -5.513  1.00 47.09 LIG-0.65  OA
ATOM     46 OE1  GLU F 310      27.625  55.124  -5.935  1.00 45.53 LIG-0.65  OA
ENDBRANCH 43 44
ENDBRANCH 42 43
ENDBRANCH 41 42
BRANCH 41 47
ATOM     47  N   GLU F 310      30.010  52.773  -8.430  1.00 43.23 LIG-0.35  N 
ATOM     48  C   VAL F 309      29.769  53.277  -9.646  1.00 44.16 LIG 0.26  C 
ATOM     49 O    VAL F 309      29.258  54.382  -9.838  1.00 43.83 LIG-0.27  OA
ATOM     50 H    GLU F 310      30.341  51.989  -8.305  1.00 43.23 LIG 0.16  HD
BRANCH 48 51
ATOM     51  CA  VAL F 309      30.167  52.402 -10.842  1.00 44.86 LIG 0.40  C 
ATOM     52  N   VAL F 309      31.459  51.712 -10.552  1.00 44.58 LIG 0.61  N 
BRANCH 51 53
ATOM     53  CB  VAL F 309      29.055  51.368 -11.187  1.00 44.54 LIG 0.03  C 
ATOM     54  CG2 VAL F 309      28.199  51.879 -12.340  1.00 44.44 LIG 0.01  C 
ATOM     55  CG1 VAL F 309      28.181  51.031  -9.982  1.00 43.50 LIG 0.01  C 
ENDBRANCH 51 53
ENDBRANCH 48 51
ENDBRANCH 41 47
ENDBRANCH 39 41
ENDBRANCH 36 37
BRANCH 36 56
ATOM     56  CB  TYR F 311      32.591  53.843  -3.799  1.00 38.48 LIG 0.07  C 
BRANCH 56 57
ATOM     57  CG  TYR F 311      31.139  53.614  -3.441  1.00 36.48 LIG-0.06  A 
ATOM     58  CD1 TYR F 311      30.256  54.683  -3.326  1.00 35.51 LIG 0.01  A 
ATOM     59  CE1 TYR F 311      28.925  54.482  -2.996  1.00 35.35 LIG 0.04  A 
ATOM     60  CZ  TYR F 311      28.469  53.205  -2.762  1.00 34.90 LIG 0.07  A 
ATOM     61  CE2 TYR F 311      29.322  52.123  -2.863  1.00 36.46 LIG 0.04  A 
ATOM     62  CD2 TYR F 311      30.653  52.329  -3.194  1.00 36.25 LIG 0.01  A 
BRANCH 60 63
ATOM     63 OH   TYR F 311      27.158  53.009  -2.428  1.00 38.07 LIG-0.36  OA
ATOM     64 HH   TYR F 311      26.856  53.700  -2.059  1.00 38.07 LIG 0.22  HD
ENDBRANCH 60 63
ENDBRANCH 56 57
ENDBRANCH 36 56
ENDBRANCH 1 36
TORSDOF 27
ENDMDL
MODEL 34
USER: ADFR SOLUTION from run 195
USER: SCORE 19.030594 LL:  -5.334 LR: -14.456 RR:   0.000 FEB:  -6.402
USER: RMSD 11.126923
USER: SEED 194
USER: STATUS no improvement in best in 8 clusters for 5 generations
USER: GENES 29
USER: genes 0 Translation |==|  0.25879 0.33697 0.44698
USER: genes 1 Rotation |==|  0.28692 0.88464 0.55726 0.73102
USER: genes 2 Torsion [C]-N--CA-[C] |==|  0.80066
USER: genes 3 Torsion [N]-CA--C-[N] |==|  0.29632
USER: genes 4 Torsion [C]-N--CA-[C] |==|  0.74801
USER: genes 5 Torsion [N]-CA--C-[N] |==|  0.97222
USER: genes 6 Torsion [C]-N--CA-[CB] |==|  0.38482
USER: genes 7 Torsion [N]-CA--CB-[CG] |==|  0.28529
USER: genes 8 Torsion [CA]-CB--CG-[CD2] |==|  0.23834
USER: genes 9 Torsion [N]-CA--C-[O] |==|  0.93961
USER: genes 10 Torsion [N]-CA--CB-[CG] |==|  0.75014
USER: genes 11 Torsion [CA]-CB--CG-[CD] |==|  0.58760
USER: genes 12 Torsion [CB]-CG--CD-[CE] |==|  0.28984
USER: genes 13 Torsion [CG]-CD--CE-[NZ] |==|  0.48509
USER: genes 14 Torsion [CD]-CE--NZ-[HZ2] |==|  0.67387
USER: genes 15 Torsion [N]-CA--CB-[CG2] |==|  0.60019
USER: genes 16 Torsion [CA]-CB--OG1-[HG1] |==|  0.78832
USER: genes 17 Torsion [N]-C--CA-[N] |==|  0.07426
USER: genes 18 Torsion [C]-CA--N-[C] |==|  0.70245
USER: genes 19 Torsion [N]-C--CA-[N] |==|  0.00911
USER: genes 20 Torsion [C]-CA--CB-[CG] |==|  0.71199
USER: genes 21 Torsion [CA]-CB--CG-[CD] |==|  0.74204
USER: genes 22 Torsion [CB]-CG--CD-[OE2] |==|  0.73897
USER: genes 23 Torsion [C]-CA--N-[C] |==|  0.65654
USER: genes 24 Torsion [N]-C--CA-[N] |==|  0.13203
USER: genes 25 Torsion [C]-CA--CB-[CG2] |==|  0.72735
USER: genes 26 Torsion [C]-CA--CB-[CG] |==|  0.47779
USER: genes 27 Torsion [CA]-CB--CG-[CD1] |==|  0.69225
USER: genes 28 Torsion [CE1]-CZ--OH-[HH] |==|  0.81010
ROOT
ATOM      1  C   TYR F 311      29.315  48.933  -4.344  1.00 39.57 LIG 0.24  C 
ATOM      2 O    TYR F 311      29.715  47.894  -3.812  1.00 35.87 LIG-0.27  OA
ATOM      3  N   THR F 312      29.971  50.090  -4.294  1.00 39.28 LIG-0.34  N 
ATOM      4 H    THR F 312      29.703  50.798  -4.702  1.00 39.28 LIG 0.16  HD
ENDROOT
BRANCH 3 5
ATOM      5  CA  THR F 312      31.208  50.281  -3.548  1.00 41.67 LIG 0.20  C 
BRANCH 5 6
ATOM      6  C   THR F 312      30.941  50.284  -2.050  1.00 45.40 LIG 0.24  C 
ATOM      7  N   LYS F 313      31.328  49.205  -1.390  1.00 48.10 LIG-0.35  N 
ATOM      8 H    LYS F 313      31.638  48.499  -1.769  1.00 48.10 LIG 0.16  HD
ATOM      9 O    THR F 312      30.428  51.255  -1.497  1.00 48.99 LIG-0.27  OA
BRANCH 7 10
ATOM     10  CA  LYS F 313      31.259  49.124   0.062  1.00 51.61 LIG 0.18  C 
BRANCH 10 11
ATOM     11  C   LYS F 313      32.580  49.616   0.666  1.00 54.92 LIG 0.24  C 
ATOM     12 O    LYS F 313      32.684  49.798   1.884  1.00 54.36 LIG-0.27  OA
ATOM     13  N   HIS F 314      33.577  49.812  -0.202  1.00 57.06 LIG-0.35  N 
ATOM     14 H    HIS F 314      33.484  49.693  -1.049  1.00 57.06 LIG 0.16  HD
BRANCH 13 15
ATOM     15  CA  HIS F 314      34.930  50.247   0.178  1.00 57.78 LIG 0.17  C 
BRANCH 15 16
ATOM     16  CB  HIS F 314      36.003  49.481  -0.611  1.00 57.79 LIG 0.09  C 
BRANCH 16 17
ATOM     17  CG  HIS F 314      36.610  50.266  -1.733  1.00 61.61 LIG 0.06  A 
ATOM     18  CD2 HIS F 314      37.643  51.143  -1.753  1.00 62.97 LIG 0.14  A 
ATOM     19 NE2  HIS F 314      37.783  51.577  -3.050  1.00 63.36 LIG-0.25  NA
ATOM     20  CE1 HIS F 314      36.871  50.987  -3.802  1.00 61.50 LIG 0.23  A 
ATOM     21 ND1  HIS F 314      36.148  50.191  -3.033  1.00 63.00 LIG-0.24  NA
ENDBRANCH 16 17
ENDBRANCH 15 16
BRANCH 15 22
ATOM     22  C   HIS F 314      35.125  51.759   0.014  1.00 59.91 LIG 0.22  C 
ATOM     23 O    HIS F 314      34.400  52.416  -0.742  1.00 59.00 LIG-0.29  OA
ENDBRANCH 15 22
ENDBRANCH 13 15
ENDBRANCH 10 11
BRANCH 10 24
ATOM     24  CB  LYS F 313      30.938  47.694   0.509  1.00 49.70 LIG 0.04  C 
BRANCH 24 25
ATOM     25  CG  LYS F 313      29.446  47.424   0.634  1.00 49.89 LIG 0.00  C 
BRANCH 25 26
ATOM     26  CD  LYS F 313      29.129  46.412   1.723  1.00 49.58 LIG 0.03  C 
BRANCH 26 27
ATOM     27  CE  LYS F 313      28.565  47.098   2.959  1.00 48.23 LIG 0.23  C 
BRANCH 27 28
ATOM     28  NZ  LYS F 313      28.133  46.112   3.978  1.00 47.83 LIG-0.08  N 
ATOM     29 HZ2  LYS F 313      27.256  46.188   4.113  1.00 47.83 LIG 0.27  HD
ATOM     30 HZ1  LYS F 313      28.565  46.265   4.741  1.00 47.83 LIG 0.27  HD
ATOM     31 HZ3  LYS F 313      28.319  45.289   3.693  1.00 47.83 LIG 0.27  HD
ENDBRANCH 27 28
ENDBRANCH 26 27
ENDBRANCH 25 26
ENDBRANCH 24 25
ENDBRANCH 10 24
ENDBRANCH 7 10
ENDBRANCH 5 6
BRANCH 5 32
ATOM     32  CB  THR F 312      31.853  51.637  -3.880  1.00 41.09 LIG 0.15  C 
ATOM     33  CG2 THR F 312      33.368  51.537  -3.895  1.00 40.88 LIG 0.04  C 
BRANCH 32 34
ATOM     34 OG1  THR F 312      31.392  52.068  -5.165  1.00 43.07 LIG-0.39  OA
ATOM     35 HG1  THR F 312      31.788  51.634  -5.766  1.00 43.07 LIG 0.21  HD
ENDBRANCH 32 34
ENDBRANCH 5 32
ENDBRANCH 3 5
BRANCH 1 36
ATOM     36  CA  TYR F 311      27.982  48.974  -5.096  1.00 39.31 LIG 0.18  C 
BRANCH 36 37
ATOM     37  N   TYR F 311      27.935  50.017  -6.118  1.00 40.62 LIG-0.35  N 
ATOM     38 H    TYR F 311      28.407  49.854  -6.818  1.00 40.62 LIG 0.16  HD
ATOM     39  C   GLU F 310      27.208  51.118  -5.948  1.00 41.86 LIG 0.24  C 
ATOM     40 O    GLU F 310      26.629  51.362  -4.901  1.00 41.90 LIG-0.27  OA
BRANCH 39 41
ATOM     41  CA  GLU F 310      27.145  52.107  -7.111  1.00 43.14 LIG 0.18  C 
BRANCH 41 42
ATOM     42  CB  GLU F 310      25.678  52.363  -7.467  1.00 44.06 LIG 0.04  C 
BRANCH 42 43
ATOM     43  CG  GLU F 310      25.217  51.644  -8.724  1.00 45.60 LIG 0.12  C 
BRANCH 43 44
ATOM     44  CD  GLU F 310      25.349  52.487  -9.985  1.00 46.85 LIG 0.17  C 
ATOM     45 OE2  GLU F 310      24.347  53.139 -10.354  1.00 47.09 LIG-0.65  OA
ATOM     46 OE1  GLU F 310      26.434  52.487 -10.615  1.00 45.53 LIG-0.65  OA
ENDBRANCH 43 44
ENDBRANCH 42 43
ENDBRANCH 41 42
BRANCH 41 47
ATOM     47  N   GLU F 310      27.876  51.587  -8.277  1.00 43.23 LIG-0.35  N 
ATOM     48  C   VAL F 309      28.875  52.247  -8.874  1.00 44.16 LIG 0.26  C 
ATOM     49 O    VAL F 309      29.253  53.369  -8.530  1.00 43.83 LIG-0.27  OA
ATOM     50 H    GLU F 310      27.600  50.817  -8.541  1.00 43.23 LIG 0.16  HD
BRANCH 48 51
ATOM     51  CA  VAL F 309      29.564  51.535 -10.045  1.00 44.86 LIG 0.40  C 
ATOM     52  N   VAL F 309      28.534  50.986 -10.976  1.00 44.58 LIG 0.61  N 
BRANCH 51 53
ATOM     53  CB  VAL F 309      30.538  52.487 -10.798  1.00 44.54 LIG 0.03  C 
ATOM     54  CG2 VAL F 309      29.865  53.056 -12.041  1.00 44.44 LIG 0.01  C 
ATOM     55  CG1 VAL F 309      31.851  51.800 -11.170  1.00 43.50 LIG 0.01  C 
ENDBRANCH 51 53
ENDBRANCH 48 51
ENDBRANCH 41 47
ENDBRANCH 39 41
ENDBRANCH 36 37
BRANCH 36 56
ATOM     56  CB  TYR F 311      27.737  47.607  -5.743  1.00 38.48 LIG 0.07  C 
BRANCH 56 57
ATOM     57  CG  TYR F 311      26.357  47.478  -6.350  1.00 36.48 LIG-0.06  A 
ATOM     58  CD1 TYR F 311      25.406  46.632  -5.788  1.00 35.51 LIG 0.01  A 
ATOM     59  CE1 TYR F 311      24.142  46.506  -6.339  1.00 35.35 LIG 0.04  A 
ATOM     60  CZ  TYR F 311      23.821  47.219  -7.471  1.00 34.90 LIG 0.07  A 
ATOM     61  CE2 TYR F 311      24.743  48.064  -8.057  1.00 36.46 LIG 0.04  A 
ATOM     62  CD2 TYR F 311      26.008  48.187  -7.501  1.00 36.25 LIG 0.01  A 
BRANCH 60 63
ATOM     63 OH   TYR F 311      22.575  47.088  -8.019  1.00 38.07 LIG-0.36  OA
ATOM     64 HH   TYR F 311      22.489  46.317  -8.340  1.00 38.07 LIG 0.22  HD
ENDBRANCH 60 63
ENDBRANCH 56 57
ENDBRANCH 36 56
ENDBRANCH 1 36
TORSDOF 27
ENDMDL
MODEL 35
USER: ADFR SOLUTION from run 160
USER: SCORE 18.877018 LL:  -5.061 LR: -14.450 RR:   0.000 FEB:  -6.396
USER: RMSD 9.204412
USER: SEED 159
USER: STATUS no improvement in best in 20 clusters for 5 generations
USER: GENES 29
USER: genes 0 Translation |==|  0.31322 0.59698 0.31217
USER: genes 1 Rotation |==|  0.91678 0.71641 0.65601 0.57155
USER: genes 2 Torsion [C]-N--CA-[C] |==|  0.84706
USER: genes 3 Torsion [N]-CA--C-[N] |==|  0.91051
USER: genes 4 Torsion [C]-N--CA-[C] |==|  0.54202
USER: genes 5 Torsion [N]-CA--C-[N] |==|  0.46032
USER: genes 6 Torsion [C]-N--CA-[CB] |==|  0.38300
USER: genes 7 Torsion [N]-CA--CB-[CG] |==|  0.98474
USER: genes 8 Torsion [CA]-CB--CG-[CD2] |==|  0.71535
USER: genes 9 Torsion [N]-CA--C-[O] |==|  0.00782
USER: genes 10 Torsion [N]-CA--CB-[CG] |==|  0.52319
USER: genes 11 Torsion [CA]-CB--CG-[CD] |==|  0.44092
USER: genes 12 Torsion [CB]-CG--CD-[CE] |==|  0.32235
USER: genes 13 Torsion [CG]-CD--CE-[NZ] |==|  0.93266
USER: genes 14 Torsion [CD]-CE--NZ-[HZ2] |==|  0.50876
USER: genes 15 Torsion [N]-CA--CB-[CG2] |==|  0.54873
USER: genes 16 Torsion [CA]-CB--OG1-[HG1] |==|  0.77952
USER: genes 17 Torsion [N]-C--CA-[N] |==|  0.48889
USER: genes 18 Torsion [C]-CA--N-[C] |==|  0.82102
USER: genes 19 Torsion [N]-C--CA-[N] |==|  0.41378
USER: genes 20 Torsion [C]-CA--CB-[CG] |==|  0.11832
USER: genes 21 Torsion [CA]-CB--CG-[CD] |==|  0.68967
USER: genes 22 Torsion [CB]-CG--CD-[OE2] |==|  0.55984
USER: genes 23 Torsion [C]-CA--N-[C] |==|  0.80776
USER: genes 24 Torsion [N]-C--CA-[N] |==|  0.47187
USER: genes 25 Torsion [C]-CA--CB-[CG2] |==|  0.92353
USER: genes 26 Torsion [C]-CA--CB-[CG] |==|  0.36879
USER: genes 27 Torsion [CA]-CB--CG-[CD1] |==|  0.84598
USER: genes 28 Torsion [CE1]-CZ--OH-[HH] |==|  0.96679
ROOT
ATOM      1  C   TYR F 311      30.825  54.003  -6.973  1.00 39.57 LIG 0.24  C 
ATOM      2 O    TYR F 311      29.772  54.646  -7.000  1.00 35.87 LIG-0.27  OA
ATOM      3  N   THR F 312      31.265  53.261  -7.987  1.00 39.28 LIG-0.34  N 
ATOM      4 H    THR F 312      32.019  52.849  -7.973  1.00 39.28 LIG 0.16  HD
ENDROOT
BRANCH 3 5
ATOM      5  CA  THR F 312      30.519  53.068  -9.224  1.00 41.67 LIG 0.20  C 
BRANCH 5 6
ATOM      6  C   THR F 312      29.124  52.533  -8.937  1.00 45.40 LIG 0.24  C 
ATOM      7  N   LYS F 313      29.012  51.743  -7.882  1.00 48.10 LIG-0.35  N 
ATOM      8 H    LYS F 313      29.681  51.467  -7.418  1.00 48.10 LIG 0.16  HD
ATOM      9 O    THR F 312      28.164  52.853  -9.635  1.00 48.99 LIG-0.27  OA
BRANCH 7 10
ATOM     10  CA  LYS F 313      27.720  51.266  -7.411  1.00 51.61 LIG 0.18  C 
BRANCH 10 11
ATOM     11  C   LYS F 313      27.867  50.704  -5.992  1.00 54.92 LIG 0.24  C 
ATOM     12 O    LYS F 313      28.985  50.471  -5.521  1.00 54.36 LIG-0.27  OA
ATOM     13  N   HIS F 314      26.724  50.507  -5.326  1.00 57.06 LIG-0.35  N 
ATOM     14 H    HIS F 314      25.952  50.662  -5.673  1.00 57.06 LIG 0.16  HD
BRANCH 13 15
ATOM     15  CA  HIS F 314      26.650  50.009  -3.943  1.00 57.78 LIG 0.17  C 
BRANCH 15 16
ATOM     16  CB  HIS F 314      25.596  50.778  -3.132  1.00 57.79 LIG 0.09  C 
BRANCH 16 17
ATOM     17  CG  HIS F 314      24.982  51.928  -3.869  1.00 61.61 LIG 0.06  A 
ATOM     18  CD2 HIS F 314      25.200  53.263  -3.784  1.00 62.97 LIG 0.14  A 
ATOM     19 NE2  HIS F 314      24.365  53.871  -4.691  1.00 63.36 LIG-0.25  NA
ATOM     20  CE1 HIS F 314      23.659  52.944  -5.315  1.00 61.50 LIG 0.23  A 
ATOM     21 ND1  HIS F 314      24.011  51.762  -4.838  1.00 63.00 LIG-0.24  NA
ENDBRANCH 16 17
ENDBRANCH 15 16
BRANCH 15 22
ATOM     22  C   HIS F 314      26.377  48.501  -3.880  1.00 59.91 LIG 0.22  C 
ATOM     23 O    HIS F 314      26.296  47.825  -4.911  1.00 59.00 LIG-0.29  OA
ENDBRANCH 15 22
ENDBRANCH 13 15
ENDBRANCH 10 11
BRANCH 10 24
ATOM     24  CB  LYS F 313      27.147  50.217  -8.371  1.00 49.70 LIG 0.04  C 
BRANCH 24 25
ATOM     25  CG  LYS F 313      25.713  49.826  -8.046  1.00 49.89 LIG 0.00  C 
BRANCH 25 26
ATOM     26  CD  LYS F 313      24.994  49.217  -9.239  1.00 49.58 LIG 0.03  C 
BRANCH 26 27
ATOM     27  CE  LYS F 313      24.618  47.767  -8.968  1.00 48.23 LIG 0.23  C 
BRANCH 27 28
ATOM     28  NZ  LYS F 313      25.499  47.161  -7.941  1.00 47.83 LIG-0.08  N 
ATOM     29 HZ2  LYS F 313      25.286  46.303  -7.836  1.00 47.83 LIG 0.27  HD
ATOM     30 HZ1  LYS F 313      25.392  47.590  -7.168  1.00 47.83 LIG 0.27  HD
ATOM     31 HZ3  LYS F 313      26.347  47.226  -8.201  1.00 47.83 LIG 0.27  HD
ENDBRANCH 27 28
ENDBRANCH 26 27
ENDBRANCH 25 26
ENDBRANCH 24 25
ENDBRANCH 10 24
ENDBRANCH 7 10
ENDBRANCH 5 6
BRANCH 5 32
ATOM     32  CB  THR F 312      31.207  52.033 -10.131  1.00 41.09 LIG 0.15  C 
ATOM     33  CG2 THR F 312      30.705  52.134 -11.560  1.00 40.88 LIG 0.04  C 
BRANCH 32 34
ATOM     34 OG1  THR F 312      32.620  52.260 -10.106  1.00 43.07 LIG-0.39  OA
ATOM     35 HG1  THR F 312      32.811  52.902 -10.614  1.00 43.07 LIG 0.21  HD
ENDBRANCH 32 34
ENDBRANCH 5 32
ENDBRANCH 3 5
BRANCH 1 36
ATOM     36  CA  TYR F 311      31.711  53.989  -5.725  1.00 39.31 LIG 0.18  C 
BRANCH 36 37
ATOM     37  N   TYR F 311      31.236  54.890  -4.676  1.00 40.62 LIG-0.35  N 
ATOM     38 H    TYR F 311      30.988  54.497  -3.952  1.00 40.62 LIG 0.16  HD
ATOM     39  C   GLU F 310      31.201  56.207  -4.859  1.00 41.86 LIG 0.24  C 
ATOM     40 O    GLU F 310      31.465  56.723  -5.935  1.00 41.90 LIG-0.27  OA
BRANCH 39 41
ATOM     41  CA  GLU F 310      30.779  57.072  -3.674  1.00 43.14 LIG 0.18  C 
BRANCH 41 42
ATOM     42  CB  GLU F 310      29.258  57.245  -3.699  1.00 44.06 LIG 0.04  C 
BRANCH 42 43
ATOM     43  CG  GLU F 310      28.501  55.968  -4.026  1.00 45.60 LIG 0.12  C 
BRANCH 43 44
ATOM     44  CD  GLU F 310      27.806  56.007  -5.379  1.00 46.85 LIG 0.17  C 
ATOM     45 OE2  GLU F 310      26.852  55.220  -5.565  1.00 47.09 LIG-0.65  OA
ATOM     46 OE1  GLU F 310      28.217  56.801  -6.260  1.00 45.53 LIG-0.65  OA
ENDBRANCH 43 44
ENDBRANCH 42 43
ENDBRANCH 41 42
BRANCH 41 47
ATOM     47  N   GLU F 310      31.447  58.383  -3.723  1.00 43.23 LIG-0.35  N 
ATOM     48  C   VAL F 309      32.759  58.548  -3.519  1.00 44.16 LIG 0.26  C 
ATOM     49 O    VAL F 309      33.526  57.626  -3.232  1.00 43.83 LIG-0.27  OA
ATOM     50 H    GLU F 310      30.914  59.035  -3.894  1.00 43.23 LIG 0.16  HD
BRANCH 48 51
ATOM     51  CA  VAL F 309      33.300  59.977  -3.661  1.00 44.86 LIG 0.40  C 
ATOM     52  N   VAL F 309      34.708  60.033  -3.168  1.00 44.58 LIG 0.61  N 
BRANCH 51 53
ATOM     53  CB  VAL F 309      33.209  60.477  -5.132  1.00 44.54 LIG 0.03  C 
ATOM     54  CG2 VAL F 309      33.274  59.298  -6.096  1.00 44.44 LIG 0.01  C 
ATOM     55  CG1 VAL F 309      34.294  61.499  -5.466  1.00 43.50 LIG 0.01  C 
ENDBRANCH 51 53
ENDBRANCH 48 51
ENDBRANCH 41 47
ENDBRANCH 39 41
ENDBRANCH 36 37
BRANCH 36 56
ATOM     56  CB  TYR F 311      31.781  52.558  -5.183  1.00 38.48 LIG 0.07  C 
BRANCH 56 57
ATOM     57  CG  TYR F 311      33.191  52.116  -4.857  1.00 36.48 LIG-0.06  A 
ATOM     58  CD1 TYR F 311      34.195  52.169  -5.818  1.00 35.51 LIG 0.01  A 
ATOM     59  CE1 TYR F 311      35.488  51.763  -5.529  1.00 35.35 LIG 0.04  A 
ATOM     60  CZ  TYR F 311      35.784  51.286  -4.273  1.00 34.90 LIG 0.07  A 
ATOM     61  CE2 TYR F 311      34.809  51.217  -3.297  1.00 36.46 LIG 0.04  A 
ATOM     62  CD2 TYR F 311      33.516  51.624  -3.591  1.00 36.25 LIG 0.01  A 
BRANCH 60 63
ATOM     63 OH   TYR F 311      37.058  50.879  -3.990  1.00 38.07 LIG-0.36  OA
ATOM     64 HH   TYR F 311      37.499  50.821  -4.703  1.00 38.07 LIG 0.22  HD
ENDBRANCH 60 63
ENDBRANCH 56 57
ENDBRANCH 36 56
ENDBRANCH 1 36
TORSDOF 27
ENDMDL
MODEL 36
USER: ADFR SOLUTION from run 195
USER: SCORE 19.187707 LL:  -5.532 LR: -14.405 RR:   0.000 FEB:  -6.350
USER: RMSD 10.796983
USER: SEED 194
USER: STATUS no improvement in best in 8 clusters for 5 generations
USER: GENES 29
USER: genes 0 Translation |==|  0.28491 0.34622 0.45560
USER: genes 1 Rotation |==|  0.28506 0.90596 0.54720 0.69175
USER: genes 2 Torsion [C]-N--CA-[C] |==|  0.79444
USER: genes 3 Torsion [N]-CA--C-[N] |==|  0.27831
USER: genes 4 Torsion [C]-N--CA-[C] |==|  0.79758
USER: genes 5 Torsion [N]-CA--C-[N] |==|  0.89248
USER: genes 6 Torsion [C]-N--CA-[CB] |==|  0.20798
USER: genes 7 Torsion [N]-CA--CB-[CG] |==|  0.02477
USER: genes 8 Torsion [CA]-CB--CG-[CD2] |==|  0.21038
USER: genes 9 Torsion [N]-CA--C-[O] |==|  0.94039
USER: genes 10 Torsion [N]-CA--CB-[CG] |==|  0.68594
USER: genes 11 Torsion [CA]-CB--CG-[CD] |==|  0.36547
USER: genes 12 Torsion [CB]-CG--CD-[CE] |==|  0.23886
USER: genes 13 Torsion [CG]-CD--CE-[NZ] |==|  0.51888
USER: genes 14 Torsion [CD]-CE--NZ-[HZ2] |==|  0.66377
USER: genes 15 Torsion [N]-CA--CB-[CG2] |==|  0.67901
USER: genes 16 Torsion [CA]-CB--OG1-[HG1] |==|  0.78788
USER: genes 17 Torsion [N]-C--CA-[N] |==|  0.05831
USER: genes 18 Torsion [C]-CA--N-[C] |==|  0.69801
USER: genes 19 Torsion [N]-C--CA-[N] |==|  0.00391
USER: genes 20 Torsion [C]-CA--CB-[CG] |==|  0.70706
USER: genes 21 Torsion [CA]-CB--CG-[CD] |==|  0.74405
USER: genes 22 Torsion [CB]-CG--CD-[OE2] |==|  0.74189
USER: genes 23 Torsion [C]-CA--N-[C] |==|  0.65081
USER: genes 24 Torsion [N]-C--CA-[N] |==|  0.13600
USER: genes 25 Torsion [C]-CA--CB-[CG2] |==|  0.72399
USER: genes 26 Torsion [C]-CA--CB-[CG] |==|  0.49977
USER: genes 27 Torsion [CA]-CB--CG-[CD1] |==|  0.69550
USER: genes 28 Torsion [CE1]-CZ--OH-[HH] |==|  0.81009
ROOT
ATOM      1  C   TYR F 311      30.039  49.113  -4.176  1.00 39.57 LIG 0.24  C 
ATOM      2 O    TYR F 311      30.488  48.124  -3.591  1.00 35.87 LIG-0.27  OA
ATOM      3  N   THR F 312      30.722  50.242  -4.349  1.00 39.28 LIG-0.34  N 
ATOM      4 H    THR F 312      30.415  50.912  -4.792  1.00 39.28 LIG 0.16  HD
ENDROOT
BRANCH 3 5
ATOM      5  CA  THR F 312      32.058  50.465  -3.810  1.00 41.67 LIG 0.20  C 
BRANCH 5 6
ATOM      6  C   THR F 312      32.003  50.695  -2.307  1.00 45.40 LIG 0.24  C 
ATOM      7  N   LYS F 313      32.310  49.655  -1.549  1.00 48.10 LIG-0.35  N 
ATOM      8 H    LYS F 313      32.454  48.866  -1.857  1.00 48.10 LIG 0.16  HD
ATOM      9 O    THR F 312      31.723  51.798  -1.843  1.00 48.99 LIG-0.27  OA
BRANCH 7 10
ATOM     10  CA  LYS F 313      32.429  49.765  -0.103  1.00 51.61 LIG 0.18  C 
BRANCH 10 11
ATOM     11  C   LYS F 313      33.719  50.516   0.250  1.00 54.92 LIG 0.24  C 
ATOM     12 O    LYS F 313      33.743  51.315   1.193  1.00 54.36 LIG-0.27  OA
ATOM     13  N   HIS F 314      34.779  50.235  -0.513  1.00 57.06 LIG-0.35  N 
ATOM     14 H    HIS F 314      34.743  49.686  -1.174  1.00 57.06 LIG 0.16  HD
BRANCH 13 15
ATOM     15  CA  HIS F 314      36.115  50.821  -0.318  1.00 57.78 LIG 0.17  C 
BRANCH 15 16
ATOM     16  CB  HIS F 314      36.824  50.196   0.894  1.00 57.79 LIG 0.09  C 
BRANCH 16 17
ATOM     17  CG  HIS F 314      36.113  49.009   1.468  1.00 61.61 LIG 0.06  A 
ATOM     18  CD2 HIS F 314      36.016  47.729   1.034  1.00 62.97 LIG 0.14  A 
ATOM     19 NE2  HIS F 314      35.241  47.048   1.943  1.00 63.36 LIG-0.25  NA
ATOM     20  CE1 HIS F 314      34.876  47.878   2.904  1.00 61.50 LIG 0.23  A 
ATOM     21 ND1  HIS F 314      35.388  49.069   2.642  1.00 63.00 LIG-0.24  NA
ENDBRANCH 16 17
ENDBRANCH 15 16
BRANCH 15 22
ATOM     22  C   HIS F 314      36.993  50.703  -1.569  1.00 59.91 LIG 0.22  C 
ATOM     23 O    HIS F 314      36.754  49.856  -2.438  1.00 59.00 LIG-0.29  OA
ENDBRANCH 15 22
ENDBRANCH 13 15
ENDBRANCH 10 11
BRANCH 10 24
ATOM     24  CB  LYS F 313      32.394  48.378   0.550  1.00 49.70 LIG 0.04  C 
BRANCH 24 25
ATOM     25  CG  LYS F 313      31.153  48.146   1.399  1.00 49.89 LIG 0.00  C 
BRANCH 25 26
ATOM     26  CD  LYS F 313      30.481  46.817   1.090  1.00 49.58 LIG 0.03  C 
BRANCH 26 27
ATOM     27  CE  LYS F 313      31.104  45.690   1.901  1.00 48.23 LIG 0.23  C 
BRANCH 27 28
ATOM     28  NZ  LYS F 313      30.570  44.368   1.492  1.00 47.83 LIG-0.08  N 
ATOM     29 HZ2  LYS F 313      30.191  43.972   2.193  1.00 47.83 LIG 0.27  HD
ATOM     30 HZ1  LYS F 313      31.235  43.861   1.188  1.00 47.83 LIG 0.27  HD
ATOM     31 HZ3  LYS F 313      29.964  44.478   0.850  1.00 47.83 LIG 0.27  HD
ENDBRANCH 27 28
ENDBRANCH 26 27
ENDBRANCH 25 26
ENDBRANCH 24 25
ENDBRANCH 10 24
ENDBRANCH 7 10
ENDBRANCH 5 6
BRANCH 5 32
ATOM     32  CB  THR F 312      32.702  51.721  -4.422  1.00 41.09 LIG 0.15  C 
ATOM     33  CG2 THR F 312      33.930  51.365  -5.241  1.00 40.88 LIG 0.04  C 
BRANCH 32 34
ATOM     34 OG1  THR F 312      31.743  52.373  -5.261  1.00 43.07 LIG-0.39  OA
ATOM     35 HG1  THR F 312      31.671  51.952  -5.985  1.00 43.07 LIG 0.21  HD
ENDBRANCH 32 34
ENDBRANCH 5 32
ENDBRANCH 3 5
BRANCH 1 36
ATOM     36  CA  TYR F 311      28.614  49.124  -4.733  1.00 39.31 LIG 0.18  C 
BRANCH 36 37
ATOM     37  N   TYR F 311      28.410  50.145  -5.760  1.00 40.62 LIG-0.35  N 
ATOM     38 H    TYR F 311      28.800  49.982  -6.509  1.00 40.62 LIG 0.16  HD
ATOM     39  C   GLU F 310      27.674  51.227  -5.521  1.00 41.86 LIG 0.24  C 
ATOM     40 O    GLU F 310      27.217  51.474  -4.415  1.00 41.90 LIG-0.27  OA
BRANCH 39 41
ATOM     41  CA  GLU F 310      27.439  52.190  -6.683  1.00 43.14 LIG 0.18  C 
BRANCH 41 42
ATOM     42  CB  GLU F 310      25.931  52.357  -6.893  1.00 44.06 LIG 0.04  C 
BRANCH 42 43
ATOM     43  CG  GLU F 310      25.397  51.626  -8.114  1.00 45.60 LIG 0.12  C 
BRANCH 43 44
ATOM     44  CD  GLU F 310      25.371  52.485  -9.369  1.00 46.85 LIG 0.17  C 
ATOM     45 OE2  GLU F 310      24.314  53.103  -9.628  1.00 47.09 LIG-0.65  OA
ATOM     46 OE1  GLU F 310      26.387  52.532 -10.105  1.00 45.53 LIG-0.65  OA
ENDBRANCH 43 44
ENDBRANCH 42 43
ENDBRANCH 41 42
BRANCH 41 47
ATOM     47  N   GLU F 310      28.078  51.690  -7.911  1.00 43.23 LIG-0.35  N 
ATOM     48  C   VAL F 309      28.944  52.409  -8.634  1.00 44.16 LIG 0.26  C 
ATOM     49 O    VAL F 309      29.258  53.571  -8.366  1.00 43.83 LIG-0.27  OA
ATOM     50 H    GLU F 310      27.843  50.890  -8.121  1.00 43.23 LIG 0.16  HD
BRANCH 48 51
ATOM     51  CA  VAL F 309      29.558  51.714  -9.856  1.00 44.86 LIG 0.40  C 
ATOM     52  N   VAL F 309      28.479  51.078 -10.668  1.00 44.58 LIG 0.61  N 
BRANCH 51 53
ATOM     53  CB  VAL F 309      30.385  52.709 -10.722  1.00 44.54 LIG 0.03  C 
ATOM     54  CG2 VAL F 309      29.564  53.179 -11.917  1.00 44.44 LIG 0.01  C 
ATOM     55  CG1 VAL F 309      31.711  52.110 -11.188  1.00 43.50 LIG 0.01  C 
ENDBRANCH 51 53
ENDBRANCH 48 51
ENDBRANCH 41 47
ENDBRANCH 39 41
ENDBRANCH 36 37
BRANCH 36 56
ATOM     56  CB  TYR F 311      28.299  47.741  -5.312  1.00 38.48 LIG 0.07  C 
BRANCH 56 57
ATOM     57  CG  TYR F 311      26.904  47.645  -5.891  1.00 36.48 LIG-0.06  A 
ATOM     58  CD1 TYR F 311      25.921  46.888  -5.262  1.00 35.51 LIG 0.01  A 
ATOM     59  CE1 TYR F 311      24.642  46.793  -5.786  1.00 35.35 LIG 0.04  A 
ATOM     60  CZ  TYR F 311      24.338  47.447  -6.958  1.00 34.90 LIG 0.07  A 
ATOM     61  CE2 TYR F 311      25.293  48.204  -7.610  1.00 36.46 LIG 0.04  A 
ATOM     62  CD2 TYR F 311      26.572  48.296  -7.081  1.00 36.25 LIG 0.01  A 
BRANCH 60 63
ATOM     63 OH   TYR F 311      23.079  47.347  -7.479  1.00 38.07 LIG-0.36  OA
ATOM     64 HH   TYR F 311      22.948  46.562  -7.748  1.00 38.07 LIG 0.22  HD
ENDBRANCH 60 63
ENDBRANCH 56 57
ENDBRANCH 36 56
ENDBRANCH 1 36
TORSDOF 27
ENDMDL
MODEL 37
USER: ADFR SOLUTION from run 57
USER: SCORE 18.163661 LL:  -5.480 LR: -14.398 RR:   0.000 FEB:  -6.344
USER: RMSD 9.558255
USER: SEED 56
USER: STATUS no improvement in best in 13 clusters for 5 generations
USER: GENES 29
USER: genes 0 Translation |==|  0.41687 0.51386 0.40187
USER: genes 1 Rotation |==|  0.53726 0.80147 0.79323 0.76785
USER: genes 2 Torsion [C]-N--CA-[C] |==|  0.61191
USER: genes 3 Torsion [N]-CA--C-[N] |==|  0.90635
USER: genes 4 Torsion [C]-N--CA-[C] |==|  0.83823
USER: genes 5 Torsion [N]-CA--C-[N] |==|  0.44325
USER: genes 6 Torsion [C]-N--CA-[CB] |==|  0.47638
USER: genes 7 Torsion [N]-CA--CB-[CG] |==|  0.62483
USER: genes 8 Torsion [CA]-CB--CG-[CD2] |==|  0.74503
USER: genes 9 Torsion [N]-CA--C-[O] |==|  0.15396
USER: genes 10 Torsion [N]-CA--CB-[CG] |==|  0.14024
USER: genes 11 Torsion [CA]-CB--CG-[CD] |==|  0.25423
USER: genes 12 Torsion [CB]-CG--CD-[CE] |==|  0.63150
USER: genes 13 Torsion [CG]-CD--CE-[NZ] |==|  0.42343
USER: genes 14 Torsion [CD]-CE--NZ-[HZ2] |==|  0.73218
USER: genes 15 Torsion [N]-CA--CB-[CG2] |==|  0.39258
USER: genes 16 Torsion [CA]-CB--OG1-[HG1] |==|  0.03473
USER: genes 17 Torsion [N]-C--CA-[N] |==|  0.50806
USER: genes 18 Torsion [C]-CA--N-[C] |==|  0.65787
USER: genes 19 Torsion [N]-C--CA-[N] |==|  0.80562
USER: genes 20 Torsion [C]-CA--CB-[CG] |==|  0.60933
USER: genes 21 Torsion [CA]-CB--CG-[CD] |==|  0.77217
USER: genes 22 Torsion [CB]-CG--CD-[OE2] |==|  0.74777
USER: genes 23 Torsion [C]-CA--N-[C] |==|  0.66479
USER: genes 24 Torsion [N]-C--CA-[N] |==|  0.96671
USER: genes 25 Torsion [C]-CA--CB-[CG2] |==|  0.14931
USER: genes 26 Torsion [C]-CA--CB-[CG] |==|  0.81495
USER: genes 27 Torsion [CA]-CB--CG-[CD1] |==|  0.31687
USER: genes 28 Torsion [CE1]-CZ--OH-[HH] |==|  0.66935
ROOT
ATOM      1  C   TYR F 311      33.701  52.382  -5.223  1.00 39.57 LIG 0.24  C 
ATOM      2 O    TYR F 311      33.778  51.706  -6.252  1.00 35.87 LIG-0.27  OA
ATOM      3  N   THR F 312      34.692  52.506  -4.344  1.00 39.28 LIG-0.34  N 
ATOM      4 H    THR F 312      34.642  53.011  -3.650  1.00 39.28 LIG 0.16  HD
ENDROOT
BRANCH 3 5
ATOM      5  CA  THR F 312      35.963  51.801  -4.460  1.00 41.67 LIG 0.20  C 
BRANCH 5 6
ATOM      6  C   THR F 312      36.434  51.306  -3.101  1.00 45.40 LIG 0.24  C 
ATOM      7  N   LYS F 313      36.132  52.074  -2.068  1.00 48.10 LIG-0.35  N 
ATOM      8 H    LYS F 313      35.765  52.848  -2.138  1.00 48.10 LIG 0.16  HD
ATOM      9 O    THR F 312      37.029  50.237  -2.985  1.00 48.99 LIG-0.27  OA
BRANCH 7 10
ATOM     10  CA  LYS F 313      36.401  51.662  -0.698  1.00 51.61 LIG 0.18  C 
BRANCH 10 11
ATOM     11  C   LYS F 313      35.677  50.342  -0.407  1.00 54.92 LIG 0.24  C 
ATOM     12 O    LYS F 313      34.727  49.978  -1.109  1.00 54.36 LIG-0.27  OA
ATOM     13  N   HIS F 314      36.153  49.636   0.624  1.00 57.06 LIG-0.35  N 
ATOM     14 H    HIS F 314      36.808  49.909   1.110  1.00 57.06 LIG 0.16  HD
BRANCH 13 15
ATOM     15  CA  HIS F 314      35.623  48.329   1.044  1.00 57.78 LIG 0.17  C 
BRANCH 15 16
ATOM     16  CB  HIS F 314      36.515  47.687   2.119  1.00 57.79 LIG 0.09  C 
BRANCH 16 17
ATOM     17  CG  HIS F 314      36.796  46.234   1.887  1.00 61.61 LIG 0.06  A 
ATOM     18  CD2 HIS F 314      36.153  45.120   2.315  1.00 62.97 LIG 0.14  A 
ATOM     19 NE2  HIS F 314      36.834  44.038   1.809  1.00 63.36 LIG-0.25  NA
ATOM     20  CE1 HIS F 314      37.857  44.469   1.093  1.00 61.50 LIG 0.23  A 
ATOM     21 ND1  HIS F 314      37.859  45.791   1.124  1.00 63.00 LIG-0.24  NA
ENDBRANCH 16 17
ENDBRANCH 15 16
BRANCH 15 22
ATOM     22  C   HIS F 314      34.174  48.417   1.535  1.00 59.91 LIG 0.22  C 
ATOM     23 O    HIS F 314      33.287  48.899   0.821  1.00 59.00 LIG-0.29  OA
ENDBRANCH 15 22
ENDBRANCH 13 15
ENDBRANCH 10 11
BRANCH 10 24
ATOM     24  CB  LYS F 313      35.981  52.758   0.289  1.00 49.70 LIG 0.04  C 
BRANCH 24 25
ATOM     25  CG  LYS F 313      34.563  53.261   0.059  1.00 49.89 LIG 0.00  C 
BRANCH 25 26
ATOM     26  CD  LYS F 313      33.537  52.496   0.880  1.00 49.58 LIG 0.03  C 
BRANCH 26 27
ATOM     27  CE  LYS F 313      32.351  52.082   0.021  1.00 48.23 LIG 0.23  C 
BRANCH 27 28
ATOM     28  NZ  LYS F 313      31.704  50.855   0.544  1.00 47.83 LIG-0.08  N 
ATOM     29 HZ2  LYS F 313      32.016  50.145   0.107  1.00 47.83 LIG 0.27  HD
ATOM     30 HZ1  LYS F 313      30.823  50.911   0.428  1.00 47.83 LIG 0.27  HD
ATOM     31 HZ3  LYS F 313      31.883  50.771   1.412  1.00 47.83 LIG 0.27  HD
ENDBRANCH 27 28
ENDBRANCH 26 27
ENDBRANCH 25 26
ENDBRANCH 24 25
ENDBRANCH 10 24
ENDBRANCH 7 10
ENDBRANCH 5 6
BRANCH 5 32
ATOM     32  CB  THR F 312      37.066  52.731  -4.994  1.00 41.09 LIG 0.15  C 
ATOM     33  CG2 THR F 312      38.392  52.465  -4.303  1.00 40.88 LIG 0.04  C 
BRANCH 32 34
ATOM     34 OG1  THR F 312      37.212  52.519  -6.402  1.00 43.07 LIG-0.39  OA
ATOM     35 HG1  THR F 312      36.565  52.065  -6.686  1.00 43.07 LIG 0.21  HD
ENDBRANCH 32 34
ENDBRANCH 5 32
ENDBRANCH 3 5
BRANCH 1 36
ATOM     36  CA  TYR F 311      32.413  53.125  -4.860  1.00 39.31 LIG 0.18  C 
BRANCH 36 37
ATOM     37  N   TYR F 311      31.335  52.904  -5.822  1.00 40.62 LIG-0.35  N 
ATOM     38 H    TYR F 311      31.127  52.078  -5.942  1.00 40.62 LIG 0.16  HD
ATOM     39  C   GLU F 310      30.745  53.920  -6.445  1.00 41.86 LIG 0.24  C 
ATOM     40 O    GLU F 310      31.133  55.073  -6.325  1.00 41.90 LIG-0.27  OA
BRANCH 39 41
ATOM     41  CA  GLU F 310      29.565  53.597  -7.359  1.00 43.14 LIG 0.18  C 
BRANCH 41 42
ATOM     42  CB  GLU F 310      28.555  52.745  -6.586  1.00 44.06 LIG 0.04  C 
BRANCH 42 43
ATOM     43  CG  GLU F 310      27.926  51.637  -7.415  1.00 45.60 LIG 0.12  C 
BRANCH 43 44
ATOM     44  CD  GLU F 310      26.765  52.112  -8.277  1.00 46.85 LIG 0.17  C 
ATOM     45 OE2  GLU F 310      25.616  52.060  -7.784  1.00 47.09 LIG-0.65  OA
ATOM     46 OE1  GLU F 310      26.989  52.518  -9.443  1.00 45.53 LIG-0.65  OA
ENDBRANCH 43 44
ENDBRANCH 42 43
ENDBRANCH 41 42
BRANCH 41 47
ATOM     47  N   GLU F 310      30.020  52.890  -8.566  1.00 43.23 LIG-0.35  N 
ATOM     48  C   VAL F 309      29.828  53.353  -9.807  1.00 44.16 LIG 0.26  C 
ATOM     49 O    VAL F 309      29.217  54.394 -10.060  1.00 43.83 LIG-0.27  OA
ATOM     50 H    GLU F 310      30.423  52.148  -8.400  1.00 43.23 LIG 0.16  HD
BRANCH 48 51
ATOM     51  CA  VAL F 309      30.416  52.514 -10.949  1.00 44.86 LIG 0.40  C 
ATOM     52  N   VAL F 309      31.342  51.484 -10.392  1.00 44.58 LIG 0.61  N 
BRANCH 51 53
ATOM     53  CB  VAL F 309      29.297  51.848 -11.802  1.00 44.54 LIG 0.03  C 
ATOM     54  CG2 VAL F 309      28.305  52.899 -12.287  1.00 44.44 LIG 0.01  C 
ATOM     55  CG1 VAL F 309      28.570  50.739 -11.043  1.00 43.50 LIG 0.01  C 
ENDBRANCH 51 53
ENDBRANCH 48 51
ENDBRANCH 41 47
ENDBRANCH 39 41
ENDBRANCH 36 37
BRANCH 36 56
ATOM     56  CB  TYR F 311      31.960  52.679  -3.467  1.00 38.48 LIG 0.07  C 
BRANCH 56 57
ATOM     57  CG  TYR F 311      31.530  51.229  -3.420  1.00 36.48 LIG-0.06  A 
ATOM     58  CD1 TYR F 311      32.253  50.294  -2.685  1.00 35.51 LIG 0.01  A 
ATOM     59  CE1 TYR F 311      31.867  48.964  -2.639  1.00 35.35 LIG 0.04  A 
ATOM     60  CZ  TYR F 311      30.758  48.553  -3.343  1.00 34.90 LIG 0.07  A 
ATOM     61  CE2 TYR F 311      30.023  49.456  -4.086  1.00 36.46 LIG 0.04  A 
ATOM     62  CD2 TYR F 311      30.412  50.786  -4.129  1.00 36.25 LIG 0.01  A 
BRANCH 60 63
ATOM     63 OH   TYR F 311      30.383  47.240  -3.304  1.00 38.07 LIG-0.36  OA
ATOM     64 HH   TYR F 311      30.408  46.917  -4.080  1.00 38.07 LIG 0.22  HD
ENDBRANCH 60 63
ENDBRANCH 56 57
ENDBRANCH 36 56
ENDBRANCH 1 36
TORSDOF 27
ENDMDL
MODEL 38
USER: ADFR SOLUTION from run 120
USER: SCORE 20.611976 LL:  -6.986 LR: -14.400 RR:   0.000 FEB:  -6.346
USER: RMSD 9.748585
USER: SEED 119
USER: STATUS no improvement in best in 16 clusters for 5 generations
USER: GENES 29
USER: genes 0 Translation |==|  0.29708 0.61684 0.31406
USER: genes 1 Rotation |==|  0.91848 0.61357 0.68246 0.66936
USER: genes 2 Torsion [C]-N--CA-[C] |==|  0.76112
USER: genes 3 Torsion [N]-CA--C-[N] |==|  0.90734
USER: genes 4 Torsion [C]-N--CA-[C] |==|  0.78390
USER: genes 5 Torsion [N]-CA--C-[N] |==|  0.89573
USER: genes 6 Torsion [C]-N--CA-[CB] |==|  0.22717
USER: genes 7 Torsion [N]-CA--CB-[CG] |==|  0.12109
USER: genes 8 Torsion [CA]-CB--CG-[CD2] |==|  0.18342
USER: genes 9 Torsion [N]-CA--C-[O] |==|  0.19564
USER: genes 10 Torsion [N]-CA--CB-[CG] |==|  0.46063
USER: genes 11 Torsion [CA]-CB--CG-[CD] |==|  0.16355
USER: genes 12 Torsion [CB]-CG--CD-[CE] |==|  0.33063
USER: genes 13 Torsion [CG]-CD--CE-[NZ] |==|  0.81675
USER: genes 14 Torsion [CD]-CE--NZ-[HZ2] |==|  0.17221
USER: genes 15 Torsion [N]-CA--CB-[CG2] |==|  0.55259
USER: genes 16 Torsion [CA]-CB--OG1-[HG1] |==|  0.16377
USER: genes 17 Torsion [N]-C--CA-[N] |==|  0.97567
USER: genes 18 Torsion [C]-CA--N-[C] |==|  0.79196
USER: genes 19 Torsion [N]-C--CA-[N] |==|  0.21901
USER: genes 20 Torsion [C]-CA--CB-[CG] |==|  0.69238
USER: genes 21 Torsion [CA]-CB--CG-[CD] |==|  0.77865
USER: genes 22 Torsion [CB]-CG--CD-[OE2] |==|  0.35162
USER: genes 23 Torsion [C]-CA--N-[C] |==|  0.66809
USER: genes 24 Torsion [N]-C--CA-[N] |==|  0.23246
USER: genes 25 Torsion [C]-CA--CB-[CG2] |==|  0.14134
USER: genes 26 Torsion [C]-CA--CB-[CG] |==|  0.21571
USER: genes 27 Torsion [CA]-CB--CG-[CD1] |==|  0.56410
USER: genes 28 Torsion [CE1]-CZ--OH-[HH] |==|  0.15693
ROOT
ATOM      1  C   TYR F 311      30.377  54.390  -6.936  1.00 39.57 LIG 0.24  C 
ATOM      2 O    TYR F 311      29.785  55.386  -7.362  1.00 35.87 LIG-0.27  OA
ATOM      3  N   THR F 312      30.681  53.334  -7.686  1.00 39.28 LIG-0.34  N 
ATOM      4 H    THR F 312      31.128  52.662  -7.390  1.00 39.28 LIG 0.16  HD
ENDROOT
BRANCH 3 5
ATOM      5  CA  THR F 312      30.290  53.201  -9.084  1.00 41.67 LIG 0.20  C 
BRANCH 5 6
ATOM      6  C   THR F 312      28.893  52.611  -9.202  1.00 45.40 LIG 0.24  C 
ATOM      7  N   LYS F 313      28.554  51.734  -8.272  1.00 48.10 LIG-0.35  N 
ATOM      8 H    LYS F 313      29.096  51.437  -7.675  1.00 48.10 LIG 0.16  HD
ATOM      9 O    THR F 312      28.127  52.966 -10.095  1.00 48.99 LIG-0.27  OA
BRANCH 7 10
ATOM     10  CA  LYS F 313      27.207  51.190  -8.182  1.00 51.61 LIG 0.18  C 
BRANCH 10 11
ATOM     11  C   LYS F 313      26.279  52.222  -7.530  1.00 54.92 LIG 0.24  C 
ATOM     12 O    LYS F 313      25.110  52.346  -7.912  1.00 54.36 LIG-0.27  OA
ATOM     13  N   HIS F 314      26.818  52.942  -6.541  1.00 57.06 LIG-0.35  N 
ATOM     14 H    HIS F 314      27.637  52.853  -6.296  1.00 57.06 LIG 0.16  HD
BRANCH 13 15
ATOM     15  CA  HIS F 314      26.087  53.957  -5.766  1.00 57.78 LIG 0.17  C 
BRANCH 15 16
ATOM     16  CB  HIS F 314      25.254  53.310  -4.649  1.00 57.79 LIG 0.09  C 
BRANCH 16 17
ATOM     17  CG  HIS F 314      25.978  52.235  -3.897  1.00 61.61 LIG 0.06  A 
ATOM     18  CD2 HIS F 314      27.060  52.287  -3.083  1.00 62.97 LIG 0.14  A 
ATOM     19 NE2  HIS F 314      27.308  51.005  -2.653  1.00 63.36 LIG-0.25  NA
ATOM     20  CE1 HIS F 314      26.410  50.192  -3.181  1.00 61.50 LIG 0.23  A 
ATOM     21 ND1  HIS F 314      25.595  50.908  -3.938  1.00 63.00 LIG-0.24  NA
ENDBRANCH 16 17
ENDBRANCH 15 16
BRANCH 15 22
ATOM     22  C   HIS F 314      27.016  55.030  -5.186  1.00 59.91 LIG 0.22  C 
ATOM     23 O    HIS F 314      27.565  55.861  -5.919  1.00 59.00 LIG-0.29  OA
ENDBRANCH 15 22
ENDBRANCH 13 15
ENDBRANCH 10 11
BRANCH 10 24
ATOM     24  CB  LYS F 313      27.208  49.870  -7.403  1.00 49.70 LIG 0.04  C 
BRANCH 24 25
ATOM     25  CG  LYS F 313      25.816  49.423  -6.977  1.00 49.89 LIG 0.00  C 
BRANCH 25 26
ATOM     26  CD  LYS F 313      24.881  49.235  -8.161  1.00 49.58 LIG 0.03  C 
BRANCH 26 27
ATOM     27  CE  LYS F 313      24.392  47.796  -8.245  1.00 48.23 LIG 0.23  C 
BRANCH 27 28
ATOM     28  NZ  LYS F 313      25.502  46.862  -8.550  1.00 47.83 LIG-0.08  N 
ATOM     29 HZ2  LYS F 313      26.104  46.892  -7.895  1.00 47.83 LIG 0.27  HD
ATOM     30 HZ1  LYS F 313      25.886  47.099  -9.317  1.00 47.83 LIG 0.27  HD
ATOM     31 HZ3  LYS F 313      25.183  46.034  -8.622  1.00 47.83 LIG 0.27  HD
ENDBRANCH 27 28
ENDBRANCH 26 27
ENDBRANCH 25 26
ENDBRANCH 24 25
ENDBRANCH 10 24
ENDBRANCH 7 10
ENDBRANCH 5 6
BRANCH 5 32
ATOM     32  CB  THR F 312      31.234  52.246  -9.836  1.00 41.09 LIG 0.15  C 
ATOM     33  CG2 THR F 312      31.140  52.450 -11.338  1.00 40.88 LIG 0.04  C 
BRANCH 32 34
ATOM     34 OG1  THR F 312      32.578  52.487  -9.406  1.00 43.07 LIG-0.39  OA
ATOM     35 HG1  THR F 312      32.634  52.364  -8.576  1.00 43.07 LIG 0.21  HD
ENDBRANCH 32 34
ENDBRANCH 5 32
ENDBRANCH 3 5
BRANCH 1 36
ATOM     36  CA  TYR F 311      30.789  54.284  -5.466  1.00 39.31 LIG 0.18  C 
BRANCH 36 37
ATOM     37  N   TYR F 311      31.266  52.951  -5.101  1.00 40.62 LIG-0.35  N 
ATOM     38 H    TYR F 311      32.118  52.890  -5.004  1.00 40.62 LIG 0.16  HD
ATOM     39  C   GLU F 310      30.422  51.935  -4.941  1.00 41.86 LIG 0.24  C 
ATOM     40 O    GLU F 310      29.228  52.035  -5.184  1.00 41.90 LIG-0.27  OA
BRANCH 39 41
ATOM     41  CA  GLU F 310      31.002  50.605  -4.467  1.00 43.14 LIG 0.18  C 
BRANCH 41 42
ATOM     42  CB  GLU F 310      30.029  49.479  -4.830  1.00 44.06 LIG 0.04  C 
BRANCH 42 43
ATOM     43  CG  GLU F 310      29.347  48.846  -3.629  1.00 45.60 LIG 0.12  C 
BRANCH 43 44
ATOM     44  CD  GLU F 310      30.221  47.835  -2.902  1.00 46.85 LIG 0.17  C 
ATOM     45 OE2  GLU F 310      30.383  47.987  -1.670  1.00 47.09 LIG-0.65  OA
ATOM     46 OE1  GLU F 310      30.758  46.905  -3.551  1.00 45.53 LIG-0.65  OA
ENDBRANCH 43 44
ENDBRANCH 42 43
ENDBRANCH 41 42
BRANCH 41 47
ATOM     47  N   GLU F 310      31.243  50.629  -3.015  1.00 43.23 LIG-0.35  N 
ATOM     48  C   VAL F 309      32.452  50.462  -2.467  1.00 44.16 LIG 0.26  C 
ATOM     49 O    VAL F 309      33.472  50.233  -3.120  1.00 43.83 LIG-0.27  OA
ATOM     50 H    GLU F 310      30.531  50.761  -2.550  1.00 43.23 LIG 0.16  HD
BRANCH 48 51
ATOM     51  CA  VAL F 309      32.531  50.571  -0.939  1.00 44.86 LIG 0.40  C 
ATOM     52  N   VAL F 309      32.166  49.262  -0.321  1.00 44.58 LIG 0.61  N 
BRANCH 51 53
ATOM     53  CB  VAL F 309      33.945  51.026  -0.472  1.00 44.54 LIG 0.03  C 
ATOM     54  CG2 VAL F 309      34.376  52.275  -1.232  1.00 44.44 LIG 0.01  C 
ATOM     55  CG1 VAL F 309      34.990  49.923  -0.624  1.00 43.50 LIG 0.01  C 
ENDBRANCH 51 53
ENDBRANCH 48 51
ENDBRANCH 41 47
ENDBRANCH 39 41
ENDBRANCH 36 37
BRANCH 36 56
ATOM     56  CB  TYR F 311      31.884  55.317  -5.183  1.00 38.48 LIG 0.07  C 
BRANCH 56 57
ATOM     57  CG  TYR F 311      31.346  56.722  -5.024  1.00 36.48 LIG-0.06  A 
ATOM     58  CD1 TYR F 311      32.164  57.828  -5.237  1.00 35.51 LIG 0.01  A 
ATOM     59  CE1 TYR F 311      31.679  59.118  -5.092  1.00 35.35 LIG 0.04  A 
ATOM     60  CZ  TYR F 311      30.370  59.313  -4.715  1.00 34.90 LIG 0.07  A 
ATOM     61  CE2 TYR F 311      29.534  58.237  -4.491  1.00 36.46 LIG 0.04  A 
ATOM     62  CD2 TYR F 311      30.023  56.947  -4.639  1.00 36.25 LIG 0.01  A 
BRANCH 60 63
ATOM     63 OH   TYR F 311      29.895  60.586  -4.564  1.00 38.07 LIG-0.36  OA
ATOM     64 HH   TYR F 311      30.008  61.014  -5.278  1.00 38.07 LIG 0.22  HD
ENDBRANCH 60 63
ENDBRANCH 56 57
ENDBRANCH 36 56
ENDBRANCH 1 36
TORSDOF 27
ENDMDL
MODEL 39
USER: ADFR SOLUTION from run 120
USER: SCORE 19.287909 LL:  -5.916 LR: -14.370 RR:   0.000 FEB:  -6.316
USER: RMSD 10.018743
USER: SEED 119
USER: STATUS no improvement in best in 16 clusters for 5 generations
USER: GENES 29
USER: genes 0 Translation |==|  0.29992 0.61750 0.30981
USER: genes 1 Rotation |==|  0.91840 0.58426 0.68585 0.68249
USER: genes 2 Torsion [C]-N--CA-[C] |==|  0.75205
USER: genes 3 Torsion [N]-CA--C-[N] |==|  0.88428
USER: genes 4 Torsion [C]-N--CA-[C] |==|  0.57013
USER: genes 5 Torsion [N]-CA--C-[N] |==|  0.38896
USER: genes 6 Torsion [C]-N--CA-[CB] |==|  0.82734
USER: genes 7 Torsion [N]-CA--CB-[CG] |==|  0.90314
USER: genes 8 Torsion [CA]-CB--CG-[CD2] |==|  0.78419
USER: genes 9 Torsion [N]-CA--C-[O] |==|  0.06770
USER: genes 10 Torsion [N]-CA--CB-[CG] |==|  0.56616
USER: genes 11 Torsion [CA]-CB--CG-[CD] |==|  0.40943
USER: genes 12 Torsion [CB]-CG--CD-[CE] |==|  0.36425
USER: genes 13 Torsion [CG]-CD--CE-[NZ] |==|  0.70702
USER: genes 14 Torsion [CD]-CE--NZ-[HZ2] |==|  0.92578
USER: genes 15 Torsion [N]-CA--CB-[CG2] |==|  0.54512
USER: genes 16 Torsion [CA]-CB--OG1-[HG1] |==|  0.20473
USER: genes 17 Torsion [N]-C--CA-[N] |==|  0.99946
USER: genes 18 Torsion [C]-CA--N-[C] |==|  0.76143
USER: genes 19 Torsion [N]-C--CA-[N] |==|  0.23382
USER: genes 20 Torsion [C]-CA--CB-[CG] |==|  0.70829
USER: genes 21 Torsion [CA]-CB--CG-[CD] |==|  0.78009
USER: genes 22 Torsion [CB]-CG--CD-[OE2] |==|  0.32997
USER: genes 23 Torsion [C]-CA--N-[C] |==|  0.64281
USER: genes 24 Torsion [N]-C--CA-[N] |==|  0.27557
USER: genes 25 Torsion [C]-CA--CB-[CG2] |==|  0.12176
USER: genes 26 Torsion [C]-CA--CB-[CG] |==|  0.20823
USER: genes 27 Torsion [CA]-CB--CG-[CD1] |==|  0.55777
USER: genes 28 Torsion [CE1]-CZ--OH-[HH] |==|  0.19806
ROOT
ATOM      1  C   TYR F 311      30.456  54.403  -7.019  1.00 39.57 LIG 0.24  C 
ATOM      2 O    TYR F 311      30.008  55.458  -7.475  1.00 35.87 LIG-0.27  OA
ATOM      3  N   THR F 312      30.686  53.318  -7.754  1.00 39.28 LIG-0.34  N 
ATOM      4 H    THR F 312      31.035  52.600  -7.433  1.00 39.28 LIG 0.16  HD
ENDROOT
BRANCH 3 5
ATOM      5  CA  THR F 312      30.372  53.228  -9.174  1.00 41.67 LIG 0.20  C 
BRANCH 5 6
ATOM      6  C   THR F 312      28.953  52.721  -9.384  1.00 45.40 LIG 0.24  C 
ATOM      7  N   LYS F 313      28.569  51.731  -8.597  1.00 48.10 LIG-0.35  N 
ATOM      8 H    LYS F 313      29.092  51.325  -8.049  1.00 48.10 LIG 0.16  HD
ATOM      9 O    THR F 312      28.210  53.237 -10.217  1.00 48.99 LIG-0.27  OA
BRANCH 7 10
ATOM     10  CA  LYS F 313      27.200  51.236  -8.593  1.00 51.61 LIG 0.18  C 
BRANCH 10 11
ATOM     11  C   LYS F 313      26.890  50.591  -7.237  1.00 54.92 LIG 0.24  C 
ATOM     12 O    LYS F 313      27.740  49.905  -6.658  1.00 54.36 LIG-0.27  OA
ATOM     13  N   HIS F 314      25.672  50.836  -6.744  1.00 57.06 LIG-0.35  N 
ATOM     14 H    HIS F 314      25.087  51.305  -7.165  1.00 57.06 LIG 0.16  HD
BRANCH 13 15
ATOM     15  CA  HIS F 314      25.192  50.340  -5.444  1.00 57.78 LIG 0.17  C 
BRANCH 15 16
ATOM     16  CB  HIS F 314      25.163  48.804  -5.411  1.00 57.79 LIG 0.09  C 
BRANCH 16 17
ATOM     17  CG  HIS F 314      24.800  48.176  -6.722  1.00 61.61 LIG 0.06  A 
ATOM     18  CD2 HIS F 314      23.603  48.022  -7.338  1.00 62.97 LIG 0.14  A 
ATOM     19 NE2  HIS F 314      23.838  47.374  -8.528  1.00 63.36 LIG-0.25  NA
ATOM     20  CE1 HIS F 314      25.133  47.140  -8.642  1.00 61.50 LIG 0.23  A 
ATOM     21 ND1  HIS F 314      25.738  47.612  -7.565  1.00 63.00 LIG-0.24  NA
ENDBRANCH 16 17
ENDBRANCH 15 16
BRANCH 15 22
ATOM     22  C   HIS F 314      26.017  50.884  -4.271  1.00 59.91 LIG 0.22  C 
ATOM     23 O    HIS F 314      26.644  51.944  -4.371  1.00 59.00 LIG-0.29  OA
ENDBRANCH 15 22
ENDBRANCH 13 15
ENDBRANCH 10 11
BRANCH 10 24
ATOM     24  CB  LYS F 313      26.978  50.248  -9.744  1.00 49.70 LIG 0.04  C 
BRANCH 24 25
ATOM     25  CG  LYS F 313      25.520  50.135 -10.166  1.00 49.89 LIG 0.00  C 
BRANCH 25 26
ATOM     26  CD  LYS F 313      25.366  49.859 -11.653  1.00 49.58 LIG 0.03  C 
BRANCH 26 27
ATOM     27  CE  LYS F 313      24.408  48.702 -11.897  1.00 48.23 LIG 0.23  C 
BRANCH 27 28
ATOM     28  NZ  LYS F 313      25.133  47.471 -12.294  1.00 47.83 LIG-0.08  N 
ATOM     29 HZ2  LYS F 313      25.901  47.693 -12.686  1.00 47.83 LIG 0.27  HD
ATOM     30 HZ1  LYS F 313      24.634  47.003 -12.862  1.00 47.83 LIG 0.27  HD
ATOM     31 HZ3  LYS F 313      25.300  46.979 -11.571  1.00 47.83 LIG 0.27  HD
ENDBRANCH 27 28
ENDBRANCH 26 27
ENDBRANCH 25 26
ENDBRANCH 24 25
ENDBRANCH 10 24
ENDBRANCH 7 10
ENDBRANCH 5 6
BRANCH 5 32
ATOM     32  CB  THR F 312      31.302  52.230  -9.886  1.00 41.09 LIG 0.15  C 
ATOM     33  CG2 THR F 312      31.259  52.417 -11.392  1.00 40.88 LIG 0.04  C 
BRANCH 32 34
ATOM     34 OG1  THR F 312      32.641  52.429  -9.420  1.00 43.07 LIG-0.39  OA
ATOM     35 HG1  THR F 312      32.715  52.125  -8.640  1.00 43.07 LIG 0.21  HD
ENDBRANCH 32 34
ENDBRANCH 5 32
ENDBRANCH 3 5
BRANCH 1 36
ATOM     36  CA  TYR F 311      30.760  54.254  -5.526  1.00 39.31 LIG 0.18  C 
BRANCH 36 37
ATOM     37  N   TYR F 311      31.252  52.923  -5.174  1.00 40.62 LIG-0.35  N 
ATOM     38 H    TYR F 311      32.109  52.850  -5.160  1.00 40.62 LIG 0.16  HD
ATOM     39  C   GLU F 310      30.415  51.926  -4.903  1.00 41.86 LIG 0.24  C 
ATOM     40 O    GLU F 310      29.204  52.038  -5.030  1.00 41.90 LIG-0.27  OA
BRANCH 39 41
ATOM     41  CA  GLU F 310      31.021  50.598  -4.452  1.00 43.14 LIG 0.18  C 
BRANCH 41 42
ATOM     42  CB  GLU F 310      30.057  49.464  -4.809  1.00 44.06 LIG 0.04  C 
BRANCH 42 43
ATOM     43  CG  GLU F 310      29.301  48.902  -3.616  1.00 45.60 LIG 0.12  C 
BRANCH 43 44
ATOM     44  CD  GLU F 310      30.126  47.934  -2.781  1.00 46.85 LIG 0.17  C 
ATOM     45 OE2  GLU F 310      30.340  48.235  -1.586  1.00 47.09 LIG-0.65  OA
ATOM     46 OE1  GLU F 310      30.573  46.889  -3.312  1.00 45.53 LIG-0.65  OA
ENDBRANCH 43 44
ENDBRANCH 42 43
ENDBRANCH 41 42
BRANCH 41 47
ATOM     47  N   GLU F 310      31.287  50.612  -3.005  1.00 43.23 LIG-0.35  N 
ATOM     48  C   VAL F 309      32.469  50.284  -2.472  1.00 44.16 LIG 0.26  C 
ATOM     49 O    VAL F 309      33.435  49.900  -3.136  1.00 43.83 LIG-0.27  OA
ATOM     50 H    GLU F 310      30.610  50.852  -2.533  1.00 43.23 LIG 0.16  HD
BRANCH 48 51
ATOM     51  CA  VAL F 309      32.590  50.406  -0.947  1.00 44.86 LIG 0.40  C 
ATOM     52  N   VAL F 309      32.415  49.063  -0.320  1.00 44.58 LIG 0.61  N 
BRANCH 51 53
ATOM     53  CB  VAL F 309      33.952  51.036  -0.532  1.00 44.54 LIG 0.03  C 
ATOM     54  CG2 VAL F 309      34.276  52.229  -1.424  1.00 44.44 LIG 0.01  C 
ATOM     55  CG1 VAL F 309      35.094  50.023  -0.559  1.00 43.50 LIG 0.01  C 
ENDBRANCH 51 53
ENDBRANCH 48 51
ENDBRANCH 41 47
ENDBRANCH 39 41
ENDBRANCH 36 37
BRANCH 36 56
ATOM     56  CB  TYR F 311      31.795  55.308  -5.124  1.00 38.48 LIG 0.07  C 
BRANCH 56 57
ATOM     57  CG  TYR F 311      31.213  56.701  -5.020  1.00 36.48 LIG-0.06  A 
ATOM     58  CD1 TYR F 311      32.031  57.824  -5.094  1.00 35.51 LIG 0.01  A 
ATOM     59  CE1 TYR F 311      31.506  59.102  -4.997  1.00 35.35 LIG 0.04  A 
ATOM     60  CZ  TYR F 311      30.153  59.268  -4.810  1.00 34.90 LIG 0.07  A 
ATOM     61  CE2 TYR F 311      29.314  58.174  -4.728  1.00 36.46 LIG 0.04  A 
ATOM     62  CD2 TYR F 311      29.844  56.896  -4.826  1.00 36.25 LIG 0.01  A 
BRANCH 60 63
ATOM     63 OH   TYR F 311      29.636  60.530  -4.706  1.00 38.07 LIG-0.36  OA
ATOM     64 HH   TYR F 311      29.662  60.906  -5.457  1.00 38.07 LIG 0.22  HD
ENDBRANCH 60 63
ENDBRANCH 56 57
ENDBRANCH 36 56
ENDBRANCH 1 36
TORSDOF 27
ENDMDL
MODEL 40
USER: ADFR SOLUTION from run 144
USER: SCORE 19.379041 LL:  -6.274 LR: -14.366 RR:   0.000 FEB:  -6.312
USER: RMSD 11.217922
USER: SEED 143
USER: STATUS no improvement in best in 5 clusters for 5 generations
USER: GENES 29
USER: genes 0 Translation |==|  0.36876 0.51201 0.42818
USER: genes 1 Rotation |==|  0.63148 0.07012 0.71655 0.53201
USER: genes 2 Torsion [C]-N--CA-[C] |==|  0.90543
USER: genes 3 Torsion [N]-CA--C-[N] |==|  0.35708
USER: genes 4 Torsion [C]-N--CA-[C] |==|  0.65350
USER: genes 5 Torsion [N]-CA--C-[N] |==|  0.37666
USER: genes 6 Torsion [C]-N--CA-[CB] |==|  0.38499
USER: genes 7 Torsion [N]-CA--CB-[CG] |==|  0.82566
USER: genes 8 Torsion [CA]-CB--CG-[CD2] |==|  0.71932
USER: genes 9 Torsion [N]-CA--C-[O] |==|  0.91651
USER: genes 10 Torsion [N]-CA--CB-[CG] |==|  0.80717
USER: genes 11 Torsion [CA]-CB--CG-[CD] |==|  0.32970
USER: genes 12 Torsion [CB]-CG--CD-[CE] |==|  0.98607
USER: genes 13 Torsion [CG]-CD--CE-[NZ] |==|  0.72964
USER: genes 14 Torsion [CD]-CE--NZ-[HZ2] |==|  0.32306
USER: genes 15 Torsion [N]-CA--CB-[CG2] |==|  0.40554
USER: genes 16 Torsion [CA]-CB--OG1-[HG1] |==|  0.12282
USER: genes 17 Torsion [N]-C--CA-[N] |==|  0.05122
USER: genes 18 Torsion [C]-CA--N-[C] |==|  0.73311
USER: genes 19 Torsion [N]-C--CA-[N] |==|  0.07620
USER: genes 20 Torsion [C]-CA--CB-[CG] |==|  0.47637
USER: genes 21 Torsion [CA]-CB--CG-[CD] |==|  0.14440
USER: genes 22 Torsion [CB]-CG--CD-[OE2] |==|  0.67433
USER: genes 23 Torsion [C]-CA--N-[C] |==|  0.13333
USER: genes 24 Torsion [N]-C--CA-[N] |==|  0.88694
USER: genes 25 Torsion [C]-CA--CB-[CG2] |==|  0.58317
USER: genes 26 Torsion [C]-CA--CB-[CG] |==|  0.86575
USER: genes 27 Torsion [CA]-CB--CG-[CD1] |==|  0.85516
USER: genes 28 Torsion [CE1]-CZ--OH-[HH] |==|  0.94311
ROOT
ATOM      1  C   TYR F 311      32.366  52.346  -4.710  1.00 39.57 LIG 0.24  C 
ATOM      2 O    TYR F 311      32.778  52.306  -3.548  1.00 35.87 LIG-0.27  OA
ATOM      3  N   THR F 312      33.083  51.959  -5.763  1.00 39.28 LIG-0.34  N 
ATOM      4 H    THR F 312      32.773  51.954  -6.565  1.00 39.28 LIG 0.16  HD
ENDROOT
BRANCH 3 5
ATOM      5  CA  THR F 312      34.465  51.505  -5.671  1.00 41.67 LIG 0.20  C 
BRANCH 5 6
ATOM      6  C   THR F 312      35.208  52.252  -4.574  1.00 45.40 LIG 0.24  C 
ATOM      7  N   LYS F 313      35.851  51.502  -3.694  1.00 48.10 LIG-0.35  N 
ATOM      8 H    LYS F 313      35.802  50.644  -3.671  1.00 48.10 LIG 0.16  HD
ATOM      9 O    THR F 312      35.229  53.480  -4.542  1.00 48.99 LIG-0.27  OA
BRANCH 7 10
ATOM     10  CA  LYS F 313      36.712  52.079  -2.672  1.00 51.61 LIG 0.18  C 
BRANCH 10 11
ATOM     11  C   LYS F 313      38.110  51.455  -2.766  1.00 54.92 LIG 0.24  C 
ATOM     12 O    LYS F 313      38.245  50.237  -2.924  1.00 54.36 LIG-0.27  OA
ATOM     13  N   HIS F 314      39.132  52.312  -2.680  1.00 57.06 LIG-0.35  N 
ATOM     14 H    HIS F 314      39.022  53.156  -2.558  1.00 57.06 LIG 0.16  HD
BRANCH 13 15
ATOM     15  CA  HIS F 314      40.548  51.921  -2.782  1.00 57.78 LIG 0.17  C 
BRANCH 15 16
ATOM     16  CB  HIS F 314      41.343  52.930  -3.624  1.00 57.79 LIG 0.09  C 
BRANCH 16 17
ATOM     17  CG  HIS F 314      40.888  53.026  -5.048  1.00 61.61 LIG 0.06  A 
ATOM     18  CD2 HIS F 314      41.398  52.497  -6.187  1.00 62.97 LIG 0.14  A 
ATOM     19 NE2  HIS F 314      40.586  52.899  -7.222  1.00 63.36 LIG-0.25  NA
ATOM     20  CE1 HIS F 314      39.610  53.646  -6.738  1.00 61.50 LIG 0.23  A 
ATOM     21 ND1  HIS F 314      39.768  53.741  -5.428  1.00 63.00 LIG-0.24  NA
ENDBRANCH 16 17
ENDBRANCH 15 16
BRANCH 15 22
ATOM     22  C   HIS F 314      41.203  51.737  -1.409  1.00 59.91 LIG 0.22  C 
ATOM     23 O    HIS F 314      40.825  52.390  -0.429  1.00 59.00 LIG-0.29  OA
ENDBRANCH 15 22
ENDBRANCH 13 15
ENDBRANCH 10 11
BRANCH 10 24
ATOM     24  CB  LYS F 313      36.105  51.881  -1.279  1.00 49.70 LIG 0.04  C 
BRANCH 24 25
ATOM     25  CG  LYS F 313      34.851  52.713  -1.046  1.00 49.89 LIG 0.00  C 
BRANCH 25 26
ATOM     26  CD  LYS F 313      33.629  51.853  -0.768  1.00 49.58 LIG 0.03  C 
BRANCH 26 27
ATOM     27  CE  LYS F 313      33.957  50.374  -0.916  1.00 48.23 LIG 0.23  C 
BRANCH 27 28
ATOM     28  NZ  LYS F 313      33.566  49.862  -2.251  1.00 47.83 LIG-0.08  N 
ATOM     29 HZ2  LYS F 313      34.293  49.600  -2.693  1.00 47.83 LIG 0.27  HD
ATOM     30 HZ1  LYS F 313      33.158  50.507  -2.708  1.00 47.83 LIG 0.27  HD
ATOM     31 HZ3  LYS F 313      33.013  49.171  -2.154  1.00 47.83 LIG 0.27  HD
ENDBRANCH 27 28
ENDBRANCH 26 27
ENDBRANCH 25 26
ENDBRANCH 24 25
ENDBRANCH 10 24
ENDBRANCH 7 10
ENDBRANCH 5 6
BRANCH 5 32
ATOM     32  CB  THR F 312      35.227  51.777  -6.979  1.00 41.09 LIG 0.15  C 
ATOM     33  CG2 THR F 312      36.683  52.113  -6.708  1.00 40.88 LIG 0.04  C 
BRANCH 32 34
ATOM     34 OG1  THR F 312      35.154  50.614  -7.810  1.00 43.07 LIG-0.39  OA
ATOM     35 HG1  THR F 312      34.369  50.314  -7.806  1.00 43.07 LIG 0.21  HD
ENDBRANCH 32 34
ENDBRANCH 5 32
ENDBRANCH 3 5
BRANCH 1 36
ATOM     36  CA  TYR F 311      30.972  52.887  -5.037  1.00 39.31 LIG 0.18  C 
BRANCH 36 37
ATOM     37  N   TYR F 311      30.505  52.497  -6.367  1.00 40.62 LIG-0.35  N 
ATOM     38 H    TYR F 311      30.143  51.717  -6.405  1.00 40.62 LIG 0.16  HD
ATOM     39  C   GLU F 310      30.646  53.305  -7.413  1.00 41.86 LIG 0.24  C 
ATOM     40 O    GLU F 310      31.255  54.362  -7.343  1.00 41.90 LIG-0.27  OA
BRANCH 39 41
ATOM     41  CA  GLU F 310      30.043  52.852  -8.741  1.00 43.14 LIG 0.18  C 
BRANCH 41 42
ATOM     42  CB  GLU F 310      29.613  54.086  -9.540  1.00 44.06 LIG 0.04  C 
BRANCH 42 43
ATOM     43  CG  GLU F 310      29.184  53.776 -10.965  1.00 45.60 LIG 0.12  C 
BRANCH 43 44
ATOM     44  CD  GLU F 310      28.135  52.677 -11.054  1.00 46.85 LIG 0.17  C 
ATOM     45 OE2  GLU F 310      28.443  51.628 -11.661  1.00 47.09 LIG-0.65  OA
ATOM     46 OE1  GLU F 310      27.004  52.862 -10.542  1.00 45.53 LIG-0.65  OA
ENDBRANCH 43 44
ENDBRANCH 42 43
ENDBRANCH 41 42
BRANCH 41 47
ATOM     47  N   GLU F 310      28.895  51.959  -8.514  1.00 43.23 LIG-0.35  N 
ATOM     48  C   VAL F 309      27.908  52.234  -7.654  1.00 44.16 LIG 0.26  C 
ATOM     49 O    VAL F 309      27.884  53.241  -6.942  1.00 43.83 LIG-0.27  OA
ATOM     50 H    GLU F 310      28.918  51.241  -8.986  1.00 43.23 LIG 0.16  HD
BRANCH 48 51
ATOM     51  CA  VAL F 309      26.760  51.219  -7.581  1.00 44.86 LIG 0.40  C 
ATOM     52  N   VAL F 309      26.420  50.745  -8.955  1.00 44.58 LIG 0.61  N 
BRANCH 51 53
ATOM     53  CB  VAL F 309      27.119  50.019  -6.657  1.00 44.54 LIG 0.03  C 
ATOM     54  CG2 VAL F 309      26.406  48.757  -7.128  1.00 44.44 LIG 0.01  C 
ATOM     55  CG1 VAL F 309      26.796  50.297  -5.190  1.00 43.50 LIG 0.01  C 
ENDBRANCH 51 53
ENDBRANCH 48 51
ENDBRANCH 41 47
ENDBRANCH 39 41
ENDBRANCH 36 37
BRANCH 36 56
ATOM     56  CB  TYR F 311      29.986  52.385  -3.978  1.00 38.48 LIG 0.07  C 
BRANCH 56 57
ATOM     57  CG  TYR F 311      30.100  50.899  -3.718  1.00 36.48 LIG-0.06  A 
ATOM     58  CD1 TYR F 311      30.052  49.985  -4.767  1.00 35.51 LIG 0.01  A 
ATOM     59  CE1 TYR F 311      30.154  48.623  -4.537  1.00 35.35 LIG 0.04  A 
ATOM     60  CZ  TYR F 311      30.291  48.160  -3.248  1.00 34.90 LIG 0.07  A 
ATOM     61  CE2 TYR F 311      30.337  49.040  -2.185  1.00 36.46 LIG 0.04  A 
ATOM     62  CD2 TYR F 311      30.235  50.404  -2.420  1.00 36.25 LIG 0.01  A 
BRANCH 60 63
ATOM     63 OH   TYR F 311      30.383  46.815  -3.021  1.00 38.07 LIG-0.36  OA
ATOM     64 HH   TYR F 311      30.070  46.397  -3.680  1.00 38.07 LIG 0.22  HD
ENDBRANCH 60 63
ENDBRANCH 56 57
ENDBRANCH 36 56
ENDBRANCH 1 36
TORSDOF 27
ENDMDL
MODEL 41
USER: ADFR SOLUTION from run 48
USER: SCORE 21.530782 LL:  -8.139 LR: -14.375 RR:   0.000 FEB:  -6.321
USER: RMSD 10.788111
USER: SEED 47
USER: STATUS no improvement in best in 3 clusters for 5 generations
USER: GENES 29
USER: genes 0 Translation |==|  0.30390 0.59670 0.31253
USER: genes 1 Rotation |==|  0.93215 0.51784 0.68019 0.67453
USER: genes 2 Torsion [C]-N--CA-[C] |==|  0.73932
USER: genes 3 Torsion [N]-CA--C-[N] |==|  0.90177
USER: genes 4 Torsion [C]-N--CA-[C] |==|  0.71363
USER: genes 5 Torsion [N]-CA--C-[N] |==|  0.90677
USER: genes 6 Torsion [C]-N--CA-[CB] |==|  0.82218
USER: genes 7 Torsion [N]-CA--CB-[CG] |==|  0.75419
USER: genes 8 Torsion [CA]-CB--CG-[CD2] |==|  0.82731
USER: genes 9 Torsion [N]-CA--C-[O] |==|  0.03887
USER: genes 10 Torsion [N]-CA--CB-[CG] |==|  0.33064
USER: genes 11 Torsion [CA]-CB--CG-[CD] |==|  0.57377
USER: genes 12 Torsion [CB]-CG--CD-[CE] |==|  0.58037
USER: genes 13 Torsion [CG]-CD--CE-[NZ] |==|  0.54204
USER: genes 14 Torsion [CD]-CE--NZ-[HZ2] |==|  0.83131
USER: genes 15 Torsion [N]-CA--CB-[CG2] |==|  0.52462
USER: genes 16 Torsion [CA]-CB--OG1-[HG1] |==|  0.16643
USER: genes 17 Torsion [N]-C--CA-[N] |==|  0.96838
USER: genes 18 Torsion [C]-CA--N-[C] |==|  0.65051
USER: genes 19 Torsion [N]-C--CA-[N] |==|  0.41795
USER: genes 20 Torsion [C]-CA--CB-[CG] |==|  0.55707
USER: genes 21 Torsion [CA]-CB--CG-[CD] |==|  0.27048
USER: genes 22 Torsion [CB]-CG--CD-[OE2] |==|  0.83172
USER: genes 23 Torsion [C]-CA--N-[C] |==|  0.59560
USER: genes 24 Torsion [N]-C--CA-[N] |==|  0.19715
USER: genes 25 Torsion [C]-CA--CB-[CG2] |==|  0.59169
USER: genes 26 Torsion [C]-CA--CB-[CG] |==|  0.64353
USER: genes 27 Torsion [CA]-CB--CG-[CD1] |==|  0.28064
USER: genes 28 Torsion [CE1]-CZ--OH-[HH] |==|  0.75350
ROOT
ATOM      1  C   TYR F 311      30.566  53.998  -6.966  1.00 39.57 LIG 0.24  C 
ATOM      2 O    TYR F 311      30.396  55.179  -7.279  1.00 35.87 LIG-0.27  OA
ATOM      3  N   THR F 312      30.599  52.997  -7.843  1.00 39.28 LIG-0.34  N 
ATOM      4 H    THR F 312      30.758  52.182  -7.619  1.00 39.28 LIG 0.16  HD
ENDROOT
BRANCH 3 5
ATOM      5  CA  THR F 312      30.370  53.173  -9.271  1.00 41.67 LIG 0.20  C 
BRANCH 5 6
ATOM      6  C   THR F 312      28.910  52.928  -9.620  1.00 45.40 LIG 0.24  C 
ATOM      7  N   LYS F 313      28.298  51.983  -8.925  1.00 48.10 LIG-0.35  N 
ATOM      8 H    LYS F 313      28.697  51.469  -8.363  1.00 48.10 LIG 0.16  HD
ATOM      9 O    THR F 312      28.338  53.601 -10.475  1.00 48.99 LIG-0.27  OA
BRANCH 7 10
ATOM     10  CA  LYS F 313      26.871  51.731  -9.057  1.00 51.61 LIG 0.18  C 
BRANCH 10 11
ATOM     11  C   LYS F 313      26.131  52.327  -7.853  1.00 54.92 LIG 0.24  C 
ATOM     12 O    LYS F 313      24.990  52.784  -7.979  1.00 54.36 LIG-0.27  OA
ATOM     13  N   HIS F 314      26.797  52.299  -6.693  1.00 57.06 LIG-0.35  N 
ATOM     14 H    HIS F 314      27.596  51.989  -6.624  1.00 57.06 LIG 0.16  HD
BRANCH 13 15
ATOM     15  CA  HIS F 314      26.251  52.788  -5.417  1.00 57.78 LIG 0.17  C 
BRANCH 15 16
ATOM     16  CB  HIS F 314      25.986  54.300  -5.468  1.00 57.79 LIG 0.09  C 
BRANCH 16 17
ATOM     17  CG  HIS F 314      27.164  55.137  -5.071  1.00 61.61 LIG 0.06  A 
ATOM     18  CD2 HIS F 314      27.846  55.223  -3.903  1.00 62.97 LIG 0.14  A 
ATOM     19 NE2  HIS F 314      28.845  56.151  -4.082  1.00 63.36 LIG-0.25  NA
ATOM     20  CE1 HIS F 314      28.782  56.619  -5.316  1.00 61.50 LIG 0.23  A 
ATOM     21 ND1  HIS F 314      27.775  56.025  -5.935  1.00 63.00 LIG-0.24  NA
ENDBRANCH 16 17
ENDBRANCH 15 16
BRANCH 15 22
ATOM     22  C   HIS F 314      24.982  52.037  -4.999  1.00 59.91 LIG 0.22  C 
ATOM     23 O    HIS F 314      24.658  50.978  -5.548  1.00 59.00 LIG-0.29  OA
ENDBRANCH 15 22
ENDBRANCH 13 15
ENDBRANCH 10 11
BRANCH 10 24
ATOM     24  CB  LYS F 313      26.596  50.230  -9.194  1.00 49.70 LIG 0.04  C 
BRANCH 24 25
ATOM     25  CG  LYS F 313      25.727  49.674  -8.074  1.00 49.89 LIG 0.00  C 
BRANCH 25 26
ATOM     26  CD  LYS F 313      25.975  48.194  -7.829  1.00 49.58 LIG 0.03  C 
BRANCH 26 27
ATOM     27  CE  LYS F 313      24.723  47.514  -7.292  1.00 48.23 LIG 0.23  C 
BRANCH 27 28
ATOM     28  NZ  LYS F 313      25.034  46.185  -6.714  1.00 47.83 LIG-0.08  N 
ATOM     29 HZ2  LYS F 313      25.381  45.660  -7.344  1.00 47.83 LIG 0.27  HD
ATOM     30 HZ1  LYS F 313      24.288  45.816  -6.399  1.00 47.83 LIG 0.27  HD
ATOM     31 HZ3  LYS F 313      25.621  46.279  -6.051  1.00 47.83 LIG 0.27  HD
ENDBRANCH 27 28
ENDBRANCH 26 27
ENDBRANCH 25 26
ENDBRANCH 24 25
ENDBRANCH 10 24
ENDBRANCH 7 10
ENDBRANCH 5 6
BRANCH 5 32
ATOM     32  CB  THR F 312      31.191  52.165 -10.094  1.00 41.09 LIG 0.15  C 
ATOM     33  CG2 THR F 312      31.126  52.482 -11.577  1.00 40.88 LIG 0.04  C 
BRANCH 32 34
ATOM     34 OG1  THR F 312      32.554  52.210  -9.657  1.00 43.07 LIG-0.39  OA
ATOM     35 HG1  THR F 312      32.594  52.011  -8.841  1.00 43.07 LIG 0.21  HD
ENDBRANCH 32 34
ENDBRANCH 5 32
ENDBRANCH 3 5
BRANCH 1 36
ATOM     36  CA  TYR F 311      30.728  53.583  -5.501  1.00 39.31 LIG 0.18  C 
BRANCH 36 37
ATOM     37  N   TYR F 311      30.626  52.138  -5.302  1.00 40.62 LIG-0.35  N 
ATOM     38 H    TYR F 311      31.161  51.671  -5.788  1.00 40.62 LIG 0.16  HD
ATOM     39  C   GLU F 310      29.764  51.620  -4.432  1.00 41.86 LIG 0.24  C 
ATOM     40 O    GLU F 310      28.950  52.306  -3.832  1.00 41.90 LIG-0.27  OA
BRANCH 39 41
ATOM     41  CA  GLU F 310      29.797  50.107  -4.223  1.00 43.14 LIG 0.18  C 
BRANCH 41 42
ATOM     42  CB  GLU F 310      28.879  49.443  -5.252  1.00 44.06 LIG 0.04  C 
BRANCH 42 43
ATOM     43  CG  GLU F 310      28.434  48.042  -4.865  1.00 45.60 LIG 0.12  C 
BRANCH 43 44
ATOM     44  CD  GLU F 310      27.057  48.003  -4.218  1.00 46.85 LIG 0.17  C 
ATOM     45 OE2  GLU F 310      26.897  48.640  -3.153  1.00 47.09 LIG-0.65  OA
ATOM     46 OE1  GLU F 310      26.144  47.328  -4.753  1.00 45.53 LIG-0.65  OA
ENDBRANCH 43 44
ENDBRANCH 42 43
ENDBRANCH 41 42
BRANCH 41 47
ATOM     47  N   GLU F 310      29.375  49.761  -2.856  1.00 43.23 LIG-0.35  N 
ATOM     48  C   VAL F 309      29.884  48.734  -2.167  1.00 44.16 LIG 0.26  C 
ATOM     49 O    VAL F 309      30.725  47.956  -2.623  1.00 43.83 LIG-0.27  OA
ATOM     50 H    GLU F 310      28.768  50.282  -2.540  1.00 43.23 LIG 0.16  HD
BRANCH 48 51
ATOM     51  CA  VAL F 309      29.370  48.548  -0.734  1.00 44.86 LIG 0.40  C 
ATOM     52  N   VAL F 309      27.956  48.068  -0.765  1.00 44.58 LIG 0.61  N 
BRANCH 51 53
ATOM     53  CB  VAL F 309      30.268  47.566   0.072  1.00 44.54 LIG 0.03  C 
ATOM     54  CG2 VAL F 309      29.427  46.777   1.069  1.00 44.44 LIG 0.01  C 
ATOM     55  CG1 VAL F 309      31.414  48.279   0.788  1.00 43.50 LIG 0.01  C 
ENDBRANCH 51 53
ENDBRANCH 48 51
ENDBRANCH 41 47
ENDBRANCH 39 41
ENDBRANCH 36 37
BRANCH 36 56
ATOM     56  CB  TYR F 311      32.085  54.078  -4.993  1.00 38.48 LIG 0.07  C 
BRANCH 56 57
ATOM     57  CG  TYR F 311      32.906  52.989  -4.338  1.00 36.48 LIG-0.06  A 
ATOM     58  CD1 TYR F 311      33.943  52.366  -5.025  1.00 35.51 LIG 0.01  A 
ATOM     59  CE1 TYR F 311      34.698  51.366  -4.433  1.00 35.35 LIG 0.04  A 
ATOM     60  CZ  TYR F 311      34.411  50.970  -3.147  1.00 34.90 LIG 0.07  A 
ATOM     61  CE2 TYR F 311      33.385  51.565  -2.440  1.00 36.46 LIG 0.04  A 
ATOM     62  CD2 TYR F 311      32.632  52.566  -3.036  1.00 36.25 LIG 0.01  A 
BRANCH 60 63
ATOM     63 OH   TYR F 311      35.151  49.978  -2.566  1.00 38.07 LIG-0.36  OA
ATOM     64 HH   TYR F 311      34.806  49.232  -2.741  1.00 38.07 LIG 0.22  HD
ENDBRANCH 60 63
ENDBRANCH 56 57
ENDBRANCH 36 56
ENDBRANCH 1 36
TORSDOF 27
ENDMDL
MODEL 42
USER: ADFR SOLUTION from run 75
USER: SCORE 20.205833 LL:  -6.921 LR: -14.338 RR:   0.000 FEB:  -6.283
USER: RMSD 9.902588
USER: SEED 74
USER: STATUS no improvement in best in 2 clusters for 5 generations
USER: GENES 29
USER: genes 0 Translation |==|  0.30456 0.60283 0.30957
USER: genes 1 Rotation |==|  0.93159 0.53084 0.66694 0.68685
USER: genes 2 Torsion [C]-N--CA-[C] |==|  0.72545
USER: genes 3 Torsion [N]-CA--C-[N] |==|  0.91920
USER: genes 4 Torsion [C]-N--CA-[C] |==|  0.72032
USER: genes 5 Torsion [N]-CA--C-[N] |==|  0.92844
USER: genes 6 Torsion [C]-N--CA-[CB] |==|  0.33780
USER: genes 7 Torsion [N]-CA--CB-[CG] |==|  0.81164
USER: genes 8 Torsion [CA]-CB--CG-[CD2] |==|  0.55183
USER: genes 9 Torsion [N]-CA--C-[O] |==|  0.96399
USER: genes 10 Torsion [N]-CA--CB-[CG] |==|  0.56500
USER: genes 11 Torsion [CA]-CB--CG-[CD] |==|  0.68762
USER: genes 12 Torsion [CB]-CG--CD-[CE] |==|  0.70622
USER: genes 13 Torsion [CG]-CD--CE-[NZ] |==|  0.03664
USER: genes 14 Torsion [CD]-CE--NZ-[HZ2] |==|  0.18877
USER: genes 15 Torsion [N]-CA--CB-[CG2] |==|  0.53769
USER: genes 16 Torsion [CA]-CB--OG1-[HG1] |==|  0.13463
USER: genes 17 Torsion [N]-C--CA-[N] |==|  0.95885
USER: genes 18 Torsion [C]-CA--N-[C] |==|  0.62778
USER: genes 19 Torsion [N]-C--CA-[N] |==|  0.38163
USER: genes 20 Torsion [C]-CA--CB-[CG] |==|  0.49241
USER: genes 21 Torsion [CA]-CB--CG-[CD] |==|  0.91041
USER: genes 22 Torsion [CB]-CG--CD-[OE2] |==|  0.80431
USER: genes 23 Torsion [C]-CA--N-[C] |==|  0.68463
USER: genes 24 Torsion [N]-C--CA-[N] |==|  0.28112
USER: genes 25 Torsion [C]-CA--CB-[CG2] |==|  0.62769
USER: genes 26 Torsion [C]-CA--CB-[CG] |==|  0.64670
USER: genes 27 Torsion [CA]-CB--CG-[CD1] |==|  0.26032
USER: genes 28 Torsion [CE1]-CZ--OH-[HH] |==|  0.70740
ROOT
ATOM      1  C   TYR F 311      30.585  54.117  -7.023  1.00 39.57 LIG 0.24  C 
ATOM      2 O    TYR F 311      30.383  55.274  -7.400  1.00 35.87 LIG-0.27  OA
ATOM      3  N   THR F 312      30.575  53.063  -7.836  1.00 39.28 LIG-0.34  N 
ATOM      4 H    THR F 312      30.755  52.265  -7.570  1.00 39.28 LIG 0.16  HD
ENDROOT
BRANCH 3 5
ATOM      5  CA  THR F 312      30.257  53.145  -9.256  1.00 41.67 LIG 0.20  C 
BRANCH 5 6
ATOM      6  C   THR F 312      28.811  52.749  -9.511  1.00 45.40 LIG 0.24  C 
ATOM      7  N   LYS F 313      28.288  51.881  -8.660  1.00 48.10 LIG-0.35  N 
ATOM      8 H    LYS F 313      28.738  51.488  -8.042  1.00 48.10 LIG 0.16  HD
ATOM      9 O    THR F 312      28.170  53.242 -10.437  1.00 48.99 LIG-0.27  OA
BRANCH 7 10
ATOM     10  CA  LYS F 313      26.881  51.514  -8.702  1.00 51.61 LIG 0.18  C 
BRANCH 10 11
ATOM     11  C   LYS F 313      26.118  52.279  -7.613  1.00 54.92 LIG 0.24  C 
ATOM     12 O    LYS F 313      24.908  52.501  -7.731  1.00 54.36 LIG-0.27  OA
ATOM     13  N   HIS F 314      26.844  52.662  -6.558  1.00 57.06 LIG-0.35  N 
ATOM     14 H    HIS F 314      27.689  52.511  -6.497  1.00 57.06 LIG 0.16  HD
BRANCH 13 15
ATOM     15  CA  HIS F 314      26.296  53.376  -5.394  1.00 57.78 LIG 0.17  C 
BRANCH 15 16
ATOM     16  CB  HIS F 314      26.542  52.591  -4.095  1.00 57.79 LIG 0.09  C 
BRANCH 16 17
ATOM     17  CG  HIS F 314      25.771  51.310  -4.005  1.00 61.61 LIG 0.06  A 
ATOM     18  CD2 HIS F 314      25.454  50.531  -2.942  1.00 62.97 LIG 0.14  A 
ATOM     19 NE2  HIS F 314      24.729  49.465  -3.420  1.00 63.36 LIG-0.25  NA
ATOM     20  CE1 HIS F 314      24.602  49.584  -4.730  1.00 61.50 LIG 0.23  A 
ATOM     21 ND1  HIS F 314      25.222  50.688  -5.110  1.00 63.00 LIG-0.24  NA
ENDBRANCH 16 17
ENDBRANCH 15 16
BRANCH 15 22
ATOM     22  C   HIS F 314      26.848  54.801  -5.269  1.00 59.91 LIG 0.22  C 
ATOM     23 O    HIS F 314      27.825  55.166  -5.933  1.00 59.00 LIG-0.29  OA
ENDBRANCH 15 22
ENDBRANCH 13 15
ENDBRANCH 10 11
BRANCH 10 24
ATOM     24  CB  LYS F 313      26.712  49.999  -8.541  1.00 49.70 LIG 0.04  C 
BRANCH 24 25
ATOM     25  CG  LYS F 313      25.404  49.476  -9.119  1.00 49.89 LIG 0.00  C 
BRANCH 25 26
ATOM     26  CD  LYS F 313      24.459  48.965  -8.044  1.00 49.58 LIG 0.03  C 
BRANCH 26 27
ATOM     27  CE  LYS F 313      24.408  47.444  -8.040  1.00 48.23 LIG 0.23  C 
BRANCH 27 28
ATOM     28  NZ  LYS F 313      25.506  46.862  -8.849  1.00 47.83 LIG-0.08  N 
ATOM     29 HZ2  LYS F 313      26.285  47.022  -8.450  1.00 47.83 LIG 0.27  HD
ATOM     30 HZ1  LYS F 313      25.506  47.231  -9.659  1.00 47.83 LIG 0.27  HD
ATOM     31 HZ3  LYS F 313      25.386  45.983  -8.924  1.00 47.83 LIG 0.27  HD
ENDBRANCH 27 28
ENDBRANCH 26 27
ENDBRANCH 25 26
ENDBRANCH 24 25
ENDBRANCH 10 24
ENDBRANCH 7 10
ENDBRANCH 5 6
BRANCH 5 32
ATOM     32  CB  THR F 312      31.127  52.177 -10.076  1.00 41.09 LIG 0.15  C 
ATOM     33  CG2 THR F 312      31.045  52.487 -11.560  1.00 40.88 LIG 0.04  C 
BRANCH 32 34
ATOM     34 OG1  THR F 312      32.486  52.291  -9.641  1.00 43.07 LIG-0.39  OA
ATOM     35 HG1  THR F 312      32.516  52.252  -8.802  1.00 43.07 LIG 0.21  HD
ENDBRANCH 32 34
ENDBRANCH 5 32
ENDBRANCH 3 5
BRANCH 1 36
ATOM     36  CA  TYR F 311      30.840  53.799  -5.548  1.00 39.31 LIG 0.18  C 
BRANCH 36 37
ATOM     37  N   TYR F 311      30.687  52.379  -5.236  1.00 40.62 LIG-0.35  N 
ATOM     38 H    TYR F 311      31.072  51.847  -5.792  1.00 40.62 LIG 0.16  HD
ATOM     39  C   GLU F 310      30.001  51.975  -4.170  1.00 41.86 LIG 0.24  C 
ATOM     40 O    GLU F 310      29.384  52.754  -3.459  1.00 41.90 LIG-0.27  OA
BRANCH 39 41
ATOM     41  CA  GLU F 310      29.977  50.478  -3.873  1.00 43.14 LIG 0.18  C 
BRANCH 41 42
ATOM     42  CB  GLU F 310      28.648  49.894  -4.360  1.00 44.06 LIG 0.04  C 
BRANCH 42 43
ATOM     43  CG  GLU F 310      28.534  48.390  -4.176  1.00 45.60 LIG 0.12  C 
BRANCH 43 44
ATOM     44  CD  GLU F 310      29.865  47.663  -4.306  1.00 46.85 LIG 0.17  C 
ATOM     45 OE2  GLU F 310      30.381  47.596  -5.444  1.00 47.09 LIG-0.65  OA
ATOM     46 OE1  GLU F 310      30.386  47.145  -3.289  1.00 45.53 LIG-0.65  OA
ENDBRANCH 43 44
ENDBRANCH 42 43
ENDBRANCH 41 42
BRANCH 41 47
ATOM     47  N   GLU F 310      30.152  50.230  -2.433  1.00 43.23 LIG-0.35  N 
ATOM     48  C   VAL F 309      31.227  49.625  -1.915  1.00 44.16 LIG 0.26  C 
ATOM     49 O    VAL F 309      32.154  49.181  -2.596  1.00 43.83 LIG-0.27  OA
ATOM     50 H    GLU F 310      29.496  50.511  -1.953  1.00 43.23 LIG 0.16  HD
BRANCH 48 51
ATOM     51  CA  VAL F 309      31.271  49.496  -0.387  1.00 44.86 LIG 0.40  C 
ATOM     52  N   VAL F 309      30.882  48.111   0.013  1.00 44.58 LIG 0.61  N 
BRANCH 51 53
ATOM     53  CB  VAL F 309      32.676  49.859   0.175  1.00 44.54 LIG 0.03  C 
ATOM     54  CG2 VAL F 309      33.121  48.819   1.198  1.00 44.44 LIG 0.01  C 
ATOM     55  CG1 VAL F 309      32.715  51.258   0.786  1.00 43.50 LIG 0.01  C 
ENDBRANCH 51 53
ENDBRANCH 48 51
ENDBRANCH 41 47
ENDBRANCH 39 41
ENDBRANCH 36 37
BRANCH 36 56
ATOM     56  CB  TYR F 311      32.254  54.258  -5.180  1.00 38.48 LIG 0.07  C 
BRANCH 56 57
ATOM     57  CG  TYR F 311      33.081  53.168  -4.533  1.00 36.48 LIG-0.06  A 
ATOM     58  CD1 TYR F 311      33.921  52.363  -5.296  1.00 35.51 LIG 0.01  A 
ATOM     59  CE1 TYR F 311      34.680  51.362  -4.712  1.00 35.35 LIG 0.04  A 
ATOM     60  CZ  TYR F 311      34.594  51.148  -3.355  1.00 34.90 LIG 0.07  A 
ATOM     61  CE2 TYR F 311      33.765  51.927  -2.571  1.00 36.46 LIG 0.04  A 
ATOM     62  CD2 TYR F 311      33.008  52.928  -3.160  1.00 36.25 LIG 0.01  A 
BRANCH 60 63
ATOM     63 OH   TYR F 311      35.337  50.155  -2.781  1.00 38.07 LIG-0.36  OA
ATOM     64 HH   TYR F 311      34.838  49.506  -2.589  1.00 38.07 LIG 0.22  HD
ENDBRANCH 60 63
ENDBRANCH 56 57
ENDBRANCH 36 56
ENDBRANCH 1 36
TORSDOF 27
ENDMDL
MODEL 43
USER: ADFR SOLUTION from run 83
USER: SCORE 19.683749 LL:  -5.790 LR: -14.322 RR:   0.000 FEB:  -6.268
USER: RMSD 5.619198
USER: SEED 82
USER: STATUS searching
USER: GENES 29
USER: genes 0 Translation |==|  0.47738 0.48486 0.43517
USER: genes 1 Rotation |==|  0.67311 0.34133 0.37837 0.92434
USER: genes 2 Torsion [C]-N--CA-[C] |==|  0.68575
USER: genes 3 Torsion [N]-CA--C-[N] |==|  0.42437
USER: genes 4 Torsion [C]-N--CA-[C] |==|  0.78014
USER: genes 5 Torsion [N]-CA--C-[N] |==|  0.96170
USER: genes 6 Torsion [C]-N--CA-[CB] |==|  0.41508
USER: genes 7 Torsion [N]-CA--CB-[CG] |==|  0.83459
USER: genes 8 Torsion [CA]-CB--CG-[CD2] |==|  0.51730
USER: genes 9 Torsion [N]-CA--C-[O] |==|  0.19960
USER: genes 10 Torsion [N]-CA--CB-[CG] |==|  0.13998
USER: genes 11 Torsion [CA]-CB--CG-[CD] |==|  0.48098
USER: genes 12 Torsion [CB]-CG--CD-[CE] |==|  0.34469
USER: genes 13 Torsion [CG]-CD--CE-[NZ] |==|  0.64335
USER: genes 14 Torsion [CD]-CE--NZ-[HZ2] |==|  0.74994
USER: genes 15 Torsion [N]-CA--CB-[CG2] |==|  0.16532
USER: genes 16 Torsion [CA]-CB--OG1-[HG1] |==|  0.01860
USER: genes 17 Torsion [N]-C--CA-[N] |==|  0.47628
USER: genes 18 Torsion [C]-CA--N-[C] |==|  0.55235
USER: genes 19 Torsion [N]-C--CA-[N] |==|  0.12003
USER: genes 20 Torsion [C]-CA--CB-[CG] |==|  0.43886
USER: genes 21 Torsion [CA]-CB--CG-[CD] |==|  0.05030
USER: genes 22 Torsion [CB]-CG--CD-[OE2] |==|  0.68057
USER: genes 23 Torsion [C]-CA--N-[C] |==|  0.17060
USER: genes 24 Torsion [N]-C--CA-[N] |==|  0.89509
USER: genes 25 Torsion [C]-CA--CB-[CG2] |==|  0.31436
USER: genes 26 Torsion [C]-CA--CB-[CG] |==|  0.21928
USER: genes 27 Torsion [CA]-CB--CG-[CD1] |==|  0.64771
USER: genes 28 Torsion [CE1]-CZ--OH-[HH] |==|  0.50788
ROOT
ATOM      1  C   TYR F 311      35.380  51.817  -4.574  1.00 39.57 LIG 0.24  C 
ATOM      2 O    TYR F 311      35.666  51.379  -5.692  1.00 35.87 LIG-0.27  OA
ATOM      3  N   THR F 312      34.133  52.009  -4.152  1.00 39.28 LIG-0.34  N 
ATOM      4 H    THR F 312      33.943  52.277  -3.357  1.00 39.28 LIG 0.16  HD
ENDROOT
BRANCH 3 5
ATOM      5  CA  THR F 312      32.959  51.788  -4.987  1.00 41.67 LIG 0.20  C 
BRANCH 5 6
ATOM      6  C   THR F 312      32.247  53.101  -5.278  1.00 45.40 LIG 0.24  C 
ATOM      7  N   LYS F 313      31.557  53.148  -6.406  1.00 48.10 LIG-0.35  N 
ATOM      8 H    LYS F 313      31.560  52.522  -6.995  1.00 48.10 LIG 0.16  HD
ATOM      9 O    THR F 312      32.292  54.039  -4.485  1.00 48.99 LIG-0.27  OA
BRANCH 7 10
ATOM     10  CA  LYS F 313      30.720  54.288  -6.750  1.00 51.61 LIG 0.18  C 
BRANCH 10 11
ATOM     11  C   LYS F 313      29.391  54.197  -5.989  1.00 54.92 LIG 0.24  C 
ATOM     12 O    LYS F 313      28.630  55.168  -5.935  1.00 54.36 LIG-0.27  OA
ATOM     13  N   HIS F 314      29.131  53.015  -5.420  1.00 57.06 LIG-0.35  N 
ATOM     14 H    HIS F 314      29.677  52.352  -5.456  1.00 57.06 LIG 0.16  HD
BRANCH 13 15
ATOM     15  CA  HIS F 314      27.897  52.711  -4.676  1.00 57.78 LIG 0.17  C 
BRANCH 15 16
ATOM     16  CB  HIS F 314      27.526  51.225  -4.800  1.00 57.79 LIG 0.09  C 
BRANCH 16 17
ATOM     17  CG  HIS F 314      27.298  50.771  -6.209  1.00 61.61 LIG 0.06  A 
ATOM     18  CD2 HIS F 314      26.856  49.591  -6.707  1.00 62.97 LIG 0.14  A 
ATOM     19 NE2  HIS F 314      26.833  49.711  -8.077  1.00 63.36 LIG-0.25  NA
ATOM     20  CE1 HIS F 314      27.243  50.921  -8.411  1.00 61.50 LIG 0.23  A 
ATOM     21 ND1  HIS F 314      27.532  51.582  -7.303  1.00 63.00 LIG-0.24  NA
ENDBRANCH 16 17
ENDBRANCH 15 16
BRANCH 15 22
ATOM     22  C   HIS F 314      27.990  53.118  -3.201  1.00 59.91 LIG 0.22  C 
ATOM     23 O    HIS F 314      27.973  54.307  -2.866  1.00 59.00 LIG-0.29  OA
ENDBRANCH 15 22
ENDBRANCH 13 15
ENDBRANCH 10 11
BRANCH 10 24
ATOM     24  CB  LYS F 313      30.493  54.356  -8.264  1.00 49.70 LIG 0.04  C 
BRANCH 24 25
ATOM     25  CG  LYS F 313      30.023  53.037  -8.860  1.00 49.89 LIG 0.00  C 
BRANCH 25 26
ATOM     26  CD  LYS F 313      29.645  53.166 -10.327  1.00 49.58 LIG 0.03  C 
BRANCH 26 27
ATOM     27  CE  LYS F 313      30.432  52.183 -11.182  1.00 48.23 LIG 0.23  C 
BRANCH 27 28
ATOM     28  NZ  LYS F 313      31.091  52.862 -12.323  1.00 47.83 LIG-0.08  N 
ATOM     29 HZ2  LYS F 313      30.543  52.864 -13.024  1.00 47.83 LIG 0.27  HD
ATOM     30 HZ1  LYS F 313      31.840  52.430 -12.533  1.00 47.83 LIG 0.27  HD
ATOM     31 HZ3  LYS F 313      31.286  53.701 -12.096  1.00 47.83 LIG 0.27  HD
ENDBRANCH 27 28
ENDBRANCH 26 27
ENDBRANCH 25 26
ENDBRANCH 24 25
ENDBRANCH 10 24
ENDBRANCH 7 10
ENDBRANCH 5 6
BRANCH 5 32
ATOM     32  CB  THR F 312      31.936  50.884  -4.278  1.00 41.09 LIG 0.15  C 
ATOM     33  CG2 THR F 312      31.474  51.497  -2.968  1.00 40.88 LIG 0.04  C 
BRANCH 32 34
ATOM     34 OG1  THR F 312      30.808  50.695  -5.139  1.00 43.07 LIG-0.39  OA
ATOM     35 HG1  THR F 312      30.967  51.036  -5.890  1.00 43.07 LIG 0.21  HD
ENDBRANCH 32 34
ENDBRANCH 5 32
ENDBRANCH 3 5
BRANCH 1 36
ATOM     36  CA  TYR F 311      36.472  52.208  -3.575  1.00 39.31 LIG 0.18  C 
BRANCH 36 37
ATOM     37  N   TYR F 311      37.809  51.797  -4.000  1.00 40.62 LIG-0.35  N 
ATOM     38 H    TYR F 311      37.880  51.623  -4.840  1.00 40.62 LIG 0.16  HD
ATOM     39  C   GLU F 310      38.813  51.709  -3.133  1.00 41.86 LIG 0.24  C 
ATOM     40 O    GLU F 310      38.653  51.867  -1.932  1.00 41.90 LIG-0.27  OA
BRANCH 39 41
ATOM     41  CA  GLU F 310      40.195  51.365  -3.686  1.00 43.14 LIG 0.18  C 
BRANCH 41 42
ATOM     42  CB  GLU F 310      41.250  51.678  -2.621  1.00 44.06 LIG 0.04  C 
BRANCH 42 43
ATOM     43  CG  GLU F 310      42.554  50.921  -2.809  1.00 45.60 LIG 0.12  C 
BRANCH 43 44
ATOM     44  CD  GLU F 310      42.728  50.356  -4.211  1.00 46.85 LIG 0.17  C 
ATOM     45 OE2  GLU F 310      42.758  49.112  -4.336  1.00 47.09 LIG-0.65  OA
ATOM     46 OE1  GLU F 310      42.854  51.142  -5.181  1.00 45.53 LIG-0.65  OA
ENDBRANCH 43 44
ENDBRANCH 42 43
ENDBRANCH 41 42
BRANCH 41 47
ATOM     47  N   GLU F 310      40.466  52.122  -4.918  1.00 43.23 LIG-0.35  N 
ATOM     48  C   VAL F 309      40.515  53.458  -4.965  1.00 44.16 LIG 0.26  C 
ATOM     49 O    VAL F 309      40.299  54.183  -3.992  1.00 43.83 LIG-0.27  OA
ATOM     50 H    GLU F 310      40.590  51.624  -5.608  1.00 43.23 LIG 0.16  HD
BRANCH 48 51
ATOM     51  CA  VAL F 309      40.864  54.083  -6.322  1.00 44.86 LIG 0.40  C 
ATOM     52  N   VAL F 309      41.894  53.251  -7.010  1.00 44.58 LIG 0.61  N 
BRANCH 51 53
ATOM     53  CB  VAL F 309      39.600  54.247  -7.216  1.00 44.54 LIG 0.03  C 
ATOM     54  CG2 VAL F 309      39.289  55.724  -7.426  1.00 44.44 LIG 0.01  C 
ATOM     55  CG1 VAL F 309      38.384  53.522  -6.643  1.00 43.50 LIG 0.01  C 
ENDBRANCH 51 53
ENDBRANCH 48 51
ENDBRANCH 41 47
ENDBRANCH 39 41
ENDBRANCH 36 37
BRANCH 36 56
ATOM     56  CB  TYR F 311      36.439  53.726  -3.375  1.00 38.48 LIG 0.07  C 
BRANCH 56 57
ATOM     57  CG  TYR F 311      35.337  54.177  -2.441  1.00 36.48 LIG-0.06  A 
ATOM     58  CD1 TYR F 311      34.428  55.155  -2.830  1.00 35.51 LIG 0.01  A 
ATOM     59  CE1 TYR F 311      33.417  55.575  -1.980  1.00 35.35 LIG 0.04  A 
ATOM     60  CZ  TYR F 311      33.317  55.027  -0.722  1.00 34.90 LIG 0.07  A 
ATOM     61  CE2 TYR F 311      34.207  54.057  -0.303  1.00 36.46 LIG 0.04  A 
ATOM     62  CD2 TYR F 311      35.217  53.640  -1.158  1.00 36.25 LIG 0.01  A 
BRANCH 60 63
ATOM     63 OH   TYR F 311      32.325  55.447   0.119  1.00 38.07 LIG-0.36  OA
ATOM     64 HH   TYR F 311      32.404  55.062   0.861  1.00 38.07 LIG 0.22  HD
ENDBRANCH 60 63
ENDBRANCH 56 57
ENDBRANCH 36 56
ENDBRANCH 1 36
TORSDOF 27
ENDMDL
MODEL 44
USER: ADFR SOLUTION from run 6
USER: SCORE 18.137142 LL:  -5.217 LR: -14.311 RR:   0.000 FEB:  -6.256
USER: RMSD 9.388183
USER: SEED 169860
USER: STATUS 1 or 2 clusters left
USER: GENES 29
USER: genes 0 Translation |==|  0.38373 0.51522 0.42308
USER: genes 1 Rotation |==|  0.50685 0.59827 0.69421 0.95009
USER: genes 2 Torsion [C]-N--CA-[C] |==|  0.67487
USER: genes 3 Torsion [N]-CA--C-[N] |==|  0.44719
USER: genes 4 Torsion [C]-N--CA-[C] |==|  0.16140
USER: genes 5 Torsion [N]-CA--C-[N] |==|  0.09217
USER: genes 6 Torsion [C]-N--CA-[CB] |==|  0.75090
USER: genes 7 Torsion [N]-CA--CB-[CG] |==|  0.46638
USER: genes 8 Torsion [CA]-CB--CG-[CD2] |==|  0.15488
USER: genes 9 Torsion [N]-CA--C-[O] |==|  0.16286
USER: genes 10 Torsion [N]-CA--CB-[CG] |==|  0.53720
USER: genes 11 Torsion [CA]-CB--CG-[CD] |==|  0.25996
USER: genes 12 Torsion [CB]-CG--CD-[CE] |==|  0.29156
USER: genes 13 Torsion [CG]-CD--CE-[NZ] |==|  0.25383
USER: genes 14 Torsion [CD]-CE--NZ-[HZ2] |==|  0.80869
USER: genes 15 Torsion [N]-CA--CB-[CG2] |==|  0.30209
USER: genes 16 Torsion [CA]-CB--OG1-[HG1] |==|  0.87871
USER: genes 17 Torsion [N]-C--CA-[N] |==|  0.69365
USER: genes 18 Torsion [C]-CA--N-[C] |==|  0.16865
USER: genes 19 Torsion [N]-C--CA-[N] |==|  0.19302
USER: genes 20 Torsion [C]-CA--CB-[CG] |==|  0.65467
USER: genes 21 Torsion [CA]-CB--CG-[CD] |==|  0.79530
USER: genes 22 Torsion [CB]-CG--CD-[OE2] |==|  0.86295
USER: genes 23 Torsion [C]-CA--N-[C] |==|  0.63185
USER: genes 24 Torsion [N]-C--CA-[N] |==|  0.33127
USER: genes 25 Torsion [C]-CA--CB-[CG2] |==|  0.17328
USER: genes 26 Torsion [C]-CA--CB-[CG] |==|  0.49829
USER: genes 27 Torsion [CA]-CB--CG-[CD1] |==|  0.75538
USER: genes 28 Torsion [CE1]-CZ--OH-[HH] |==|  0.04888
ROOT
ATOM      1  C   TYR F 311      32.781  52.409  -4.810  1.00 39.57 LIG 0.24  C 
ATOM      2 O    TYR F 311      33.317  51.631  -5.604  1.00 35.87 LIG-0.27  OA
ATOM      3  N   THR F 312      32.517  52.104  -3.541  1.00 39.28 LIG-0.34  N 
ATOM      4 H    THR F 312      32.180  52.667  -2.985  1.00 39.28 LIG 0.16  HD
ENDROOT
BRANCH 3 5
ATOM      5  CA  THR F 312      32.769  50.792  -2.961  1.00 41.67 LIG 0.20  C 
BRANCH 5 6
ATOM      6  C   THR F 312      31.470  50.141  -2.508  1.00 45.40 LIG 0.24  C 
ATOM      7  N   LYS F 313      31.509  48.831  -2.333  1.00 48.10 LIG-0.35  N 
ATOM      8 H    LYS F 313      32.186  48.341  -2.534  1.00 48.10 LIG 0.16  HD
ATOM      9 O    THR F 312      30.465  50.813  -2.289  1.00 48.99 LIG-0.27  OA
BRANCH 7 10
ATOM     10  CA  LYS F 313      30.383  48.095  -1.777  1.00 51.61 LIG 0.18  C 
BRANCH 10 11
ATOM     11  C   LYS F 313      29.140  48.323  -2.646  1.00 54.92 LIG 0.24  C 
ATOM     12 O    LYS F 313      28.015  48.365  -2.136  1.00 54.36 LIG-0.27  OA
ATOM     13  N   HIS F 314      29.370  48.479  -3.954  1.00 57.06 LIG-0.35  N 
ATOM     14 H    HIS F 314      30.158  48.435  -4.295  1.00 57.06 LIG 0.16  HD
BRANCH 13 15
ATOM     15  CA  HIS F 314      28.320  48.743  -4.951  1.00 57.78 LIG 0.17  C 
BRANCH 15 16
ATOM     16  CB  HIS F 314      27.752  47.433  -5.519  1.00 57.79 LIG 0.09  C 
BRANCH 16 17
ATOM     17  CG  HIS F 314      26.497  47.611  -6.317  1.00 61.61 LIG 0.06  A 
ATOM     18  CD2 HIS F 314      26.225  48.386  -7.395  1.00 62.97 LIG 0.14  A 
ATOM     19 NE2  HIS F 314      24.911  48.167  -7.734  1.00 63.36 LIG-0.25  NA
ATOM     20  CE1 HIS F 314      24.392  47.287  -6.896  1.00 61.50 LIG 0.23  A 
ATOM     21 ND1  HIS F 314      25.327  46.935  -6.030  1.00 63.00 LIG-0.24  NA
ENDBRANCH 16 17
ENDBRANCH 15 16
BRANCH 15 22
ATOM     22  C   HIS F 314      27.191  49.617  -4.392  1.00 59.91 LIG 0.22  C 
ATOM     23 O    HIS F 314      27.421  50.745  -3.942  1.00 59.00 LIG-0.29  OA
ENDBRANCH 15 22
ENDBRANCH 13 15
ENDBRANCH 10 11
BRANCH 10 24
ATOM     24  CB  LYS F 313      30.131  48.510  -0.323  1.00 49.70 LIG 0.04  C 
BRANCH 24 25
ATOM     25  CG  LYS F 313      29.194  47.566   0.417  1.00 49.89 LIG 0.00  C 
BRANCH 25 26
ATOM     26  CD  LYS F 313      29.944  46.486   1.181  1.00 49.58 LIG 0.03  C 
BRANCH 26 27
ATOM     27  CE  LYS F 313      29.943  46.776   2.676  1.00 48.23 LIG 0.23  C 
BRANCH 27 28
ATOM     28  NZ  LYS F 313      28.790  46.136   3.352  1.00 47.83 LIG-0.08  N 
ATOM     29 HZ2  LYS F 313      28.037  46.537   3.098  1.00 47.83 LIG 0.27  HD
ATOM     30 HZ1  LYS F 313      28.883  46.211   4.234  1.00 47.83 LIG 0.27  HD
ATOM     31 HZ3  LYS F 313      28.756  45.274   3.130  1.00 47.83 LIG 0.27  HD
ENDBRANCH 27 28
ENDBRANCH 26 27
ENDBRANCH 25 26
ENDBRANCH 24 25
ENDBRANCH 10 24
ENDBRANCH 7 10
ENDBRANCH 5 6
BRANCH 5 32
ATOM     32  CB  THR F 312      33.663  50.899  -1.713  1.00 41.09 LIG 0.15  C 
ATOM     33  CG2 THR F 312      32.874  50.616  -0.446  1.00 40.88 LIG 0.04  C 
BRANCH 32 34
ATOM     34 OG1  THR F 312      34.734  49.956  -1.827  1.00 43.07 LIG-0.39  OA
ATOM     35 HG1  THR F 312      34.435  49.222  -2.105  1.00 43.07 LIG 0.21  HD
ENDBRANCH 32 34
ENDBRANCH 5 32
ENDBRANCH 3 5
BRANCH 1 36
ATOM     36  CA  TYR F 311      32.344  53.809  -5.247  1.00 39.31 LIG 0.18  C 
BRANCH 36 37
ATOM     37  N   TYR F 311      31.221  53.791  -6.183  1.00 40.62 LIG-0.35  N 
ATOM     38 H    TYR F 311      31.389  54.142  -6.950  1.00 40.62 LIG 0.16  HD
ATOM     39  C   GLU F 310      30.047  53.266  -5.843  1.00 41.86 LIG 0.24  C 
ATOM     40 O    GLU F 310      29.814  52.866  -4.713  1.00 41.90 LIG-0.27  OA
BRANCH 39 41
ATOM     41  CA  GLU F 310      28.965  53.206  -6.919  1.00 43.14 LIG 0.18  C 
BRANCH 41 42
ATOM     42  CB  GLU F 310      27.631  52.839  -6.262  1.00 44.06 LIG 0.04  C 
BRANCH 42 43
ATOM     43  CG  GLU F 310      26.968  51.610  -6.863  1.00 45.60 LIG 0.12  C 
BRANCH 43 44
ATOM     44  CD  GLU F 310      26.356  51.864  -8.234  1.00 46.85 LIG 0.17  C 
ATOM     45 OE2  GLU F 310      25.613  52.862  -8.362  1.00 47.09 LIG-0.65  OA
ATOM     46 OE1  GLU F 310      26.597  51.067  -9.173  1.00 45.53 LIG-0.65  OA
ENDBRANCH 43 44
ENDBRANCH 42 43
ENDBRANCH 41 42
BRANCH 41 47
ATOM     47  N   GLU F 310      29.315  52.225  -7.957  1.00 43.23 LIG-0.35  N 
ATOM     48  C   VAL F 309      29.239  52.481  -9.268  1.00 44.16 LIG 0.26  C 
ATOM     49 O    VAL F 309      28.831  53.548  -9.732  1.00 43.83 LIG-0.27  OA
ATOM     50 H    GLU F 310      29.575  51.468  -7.642  1.00 43.23 LIG 0.16  HD
BRANCH 48 51
ATOM     51  CA  VAL F 309      29.696  51.362 -10.213  1.00 44.86 LIG 0.40  C 
ATOM     52  N   VAL F 309      28.558  50.945 -11.085  1.00 44.58 LIG 0.61  N 
BRANCH 51 53
ATOM     53  CB  VAL F 309      30.917  51.803 -11.072  1.00 44.54 LIG 0.03  C 
ATOM     54  CG2 VAL F 309      32.110  52.113 -10.175  1.00 44.44 LIG 0.01  C 
ATOM     55  CG1 VAL F 309      30.597  53.000 -11.965  1.00 43.50 LIG 0.01  C 
ENDBRANCH 51 53
ENDBRANCH 48 51
ENDBRANCH 41 47
ENDBRANCH 39 41
ENDBRANCH 36 37
BRANCH 36 56
ATOM     56  CB  TYR F 311      31.965  54.620  -4.004  1.00 38.48 LIG 0.07  C 
BRANCH 56 57
ATOM     57  CG  TYR F 311      31.530  56.032  -4.327  1.00 36.48 LIG-0.06  A 
ATOM     58  CD1 TYR F 311      32.461  57.063  -4.417  1.00 35.51 LIG 0.01  A 
ATOM     59  CE1 TYR F 311      32.070  58.359  -4.711  1.00 35.35 LIG 0.04  A 
ATOM     60  CZ  TYR F 311      30.737  58.639  -4.904  1.00 34.90 LIG 0.07  A 
ATOM     61  CE2 TYR F 311      29.788  57.640  -4.817  1.00 36.46 LIG 0.04  A 
ATOM     62  CD2 TYR F 311      30.183  56.343  -4.523  1.00 36.25 LIG 0.01  A 
BRANCH 60 63
ATOM     63 OH   TYR F 311      30.352  59.920  -5.186  1.00 38.07 LIG-0.36  OA
ATOM     64 HH   TYR F 311      31.017  60.363  -5.444  1.00 38.07 LIG 0.22  HD
ENDBRANCH 60 63
ENDBRANCH 56 57
ENDBRANCH 36 56
ENDBRANCH 1 36
TORSDOF 27
ENDMDL
MODEL 45
USER: ADFR SOLUTION from run 57
USER: SCORE 18.196578 LL:  -5.744 LR: -14.310 RR:   0.000 FEB:  -6.256
USER: RMSD 8.800151
USER: SEED 56
USER: STATUS no improvement in best in 13 clusters for 5 generations
USER: GENES 29
USER: genes 0 Translation |==|  0.41414 0.51128 0.40545
USER: genes 1 Rotation |==|  0.54755 0.76689 0.80392 0.79007
USER: genes 2 Torsion [C]-N--CA-[C] |==|  0.62815
USER: genes 3 Torsion [N]-CA--C-[N] |==|  0.97988
USER: genes 4 Torsion [C]-N--CA-[C] |==|  0.55000
USER: genes 5 Torsion [N]-CA--C-[N] |==|  0.37695
USER: genes 6 Torsion [C]-N--CA-[CB] |==|  0.28048
USER: genes 7 Torsion [N]-CA--CB-[CG] |==|  0.68419
USER: genes 8 Torsion [CA]-CB--CG-[CD2] |==|  0.66472
USER: genes 9 Torsion [N]-CA--C-[O] |==|  0.11215
USER: genes 10 Torsion [N]-CA--CB-[CG] |==|  0.48045
USER: genes 11 Torsion [CA]-CB--CG-[CD] |==|  0.17040
USER: genes 12 Torsion [CB]-CG--CD-[CE] |==|  0.52203
USER: genes 13 Torsion [CG]-CD--CE-[NZ] |==|  0.36061
USER: genes 14 Torsion [CD]-CE--NZ-[HZ2] |==|  0.71294
USER: genes 15 Torsion [N]-CA--CB-[CG2] |==|  0.10349
USER: genes 16 Torsion [CA]-CB--OG1-[HG1] |==|  0.33569
USER: genes 17 Torsion [N]-C--CA-[N] |==|  0.53139
USER: genes 18 Torsion [C]-CA--N-[C] |==|  0.66095
USER: genes 19 Torsion [N]-C--CA-[N] |==|  0.79079
USER: genes 20 Torsion [C]-CA--CB-[CG] |==|  0.24538
USER: genes 21 Torsion [CA]-CB--CG-[CD] |==|  0.90564
USER: genes 22 Torsion [CB]-CG--CD-[OE2] |==|  0.74479
USER: genes 23 Torsion [C]-CA--N-[C] |==|  0.62709
USER: genes 24 Torsion [N]-C--CA-[N] |==|  0.98289
USER: genes 25 Torsion [C]-CA--CB-[CG2] |==|  0.19437
USER: genes 26 Torsion [C]-CA--CB-[CG] |==|  0.82339
USER: genes 27 Torsion [CA]-CB--CG-[CD1] |==|  0.28635
USER: genes 28 Torsion [CE1]-CZ--OH-[HH] |==|  0.68130
ROOT
ATOM      1  C   TYR F 311      33.626  52.332  -5.154  1.00 39.57 LIG 0.24  C 
ATOM      2 O    TYR F 311      33.777  51.779  -6.246  1.00 35.87 LIG-0.27  OA
ATOM      3  N   THR F 312      34.519  52.280  -4.168  1.00 39.28 LIG-0.34  N 
ATOM      4 H    THR F 312      34.422  52.702  -3.425  1.00 39.28 LIG 0.16  HD
ENDROOT
BRANCH 3 5
ATOM      5  CA  THR F 312      35.752  51.506  -4.242  1.00 41.67 LIG 0.20  C 
BRANCH 5 6
ATOM      6  C   THR F 312      35.967  50.708  -2.965  1.00 45.40 LIG 0.24  C 
ATOM      7  N   LYS F 313      35.121  50.953  -1.978  1.00 48.10 LIG-0.35  N 
ATOM      8 H    LYS F 313      34.529  51.576  -2.000  1.00 48.10 LIG 0.16  HD
ATOM      9 O    THR F 312      36.858  49.865  -2.885  1.00 48.99 LIG-0.27  OA
BRANCH 7 10
ATOM     10  CA  LYS F 313      35.123  50.172  -0.750  1.00 51.61 LIG 0.18  C 
BRANCH 10 11
ATOM     11  C   LYS F 313      33.793  50.372  -0.013  1.00 54.92 LIG 0.24  C 
ATOM     12 O    LYS F 313      33.297  51.499   0.094  1.00 54.36 LIG-0.27  OA
ATOM     13  N   HIS F 314      33.229  49.263   0.475  1.00 57.06 LIG-0.35  N 
ATOM     14 H    HIS F 314      33.594  48.487   0.403  1.00 57.06 LIG 0.16  HD
BRANCH 13 15
ATOM     15  CA  HIS F 314      31.939  49.235   1.183  1.00 57.78 LIG 0.17  C 
BRANCH 15 16
ATOM     16  CB  HIS F 314      30.809  48.754   0.259  1.00 57.79 LIG 0.09  C 
BRANCH 16 17
ATOM     17  CG  HIS F 314      29.784  49.804  -0.044  1.00 61.61 LIG 0.06  A 
ATOM     18  CD2 HIS F 314      28.448  49.839   0.178  1.00 62.97 LIG 0.14  A 
ATOM     19 NE2  HIS F 314      27.988  51.045  -0.296  1.00 63.36 LIG-0.25  NA
ATOM     20  CE1 HIS F 314      29.004  51.729  -0.791  1.00 61.50 LIG 0.23  A 
ATOM     21 ND1  HIS F 314      30.100  51.003  -0.653  1.00 63.00 LIG-0.24  NA
ENDBRANCH 16 17
ENDBRANCH 15 16
BRANCH 15 22
ATOM     22  C   HIS F 314      31.989  48.379   2.454  1.00 59.91 LIG 0.22  C 
ATOM     23 O    HIS F 314      32.973  48.407   3.202  1.00 59.00 LIG-0.29  OA
ENDBRANCH 15 22
ENDBRANCH 13 15
ENDBRANCH 10 11
BRANCH 10 24
ATOM     24  CB  LYS F 313      36.315  50.557   0.134  1.00 49.70 LIG 0.04  C 
BRANCH 24 25
ATOM     25  CG  LYS F 313      36.280  49.900   1.506  1.00 49.89 LIG 0.00  C 
BRANCH 25 26
ATOM     26  CD  LYS F 313      36.328  48.383   1.424  1.00 49.58 LIG 0.03  C 
BRANCH 26 27
ATOM     27  CE  LYS F 313      36.097  47.755   2.791  1.00 48.23 LIG 0.23  C 
BRANCH 27 28
ATOM     28  NZ  LYS F 313      35.053  46.704   2.736  1.00 47.83 LIG-0.08  N 
ATOM     29 HZ2  LYS F 313      34.294  47.021   3.075  1.00 47.83 LIG 0.27  HD
ATOM     30 HZ1  LYS F 313      35.317  45.998   3.209  1.00 47.83 LIG 0.27  HD
ATOM     31 HZ3  LYS F 313      34.921  46.460   1.890  1.00 47.83 LIG 0.27  HD
ENDBRANCH 27 28
ENDBRANCH 26 27
ENDBRANCH 25 26
ENDBRANCH 24 25
ENDBRANCH 10 24
ENDBRANCH 7 10
ENDBRANCH 5 6
BRANCH 5 32
ATOM     32  CB  THR F 312      36.976  52.426  -4.394  1.00 41.09 LIG 0.15  C 
ATOM     33  CG2 THR F 312      36.815  53.697  -3.578  1.00 40.88 LIG 0.04  C 
BRANCH 32 34
ATOM     34 OG1  THR F 312      38.143  51.723  -3.954  1.00 43.07 LIG-0.39  OA
ATOM     35 HG1  THR F 312      38.697  51.676  -4.584  1.00 43.07 LIG 0.21  HD
ENDBRANCH 32 34
ENDBRANCH 5 32
ENDBRANCH 3 5
BRANCH 1 36
ATOM     36  CA  TYR F 311      32.351  53.116  -4.834  1.00 39.31 LIG 0.18  C 
BRANCH 36 37
ATOM     37  N   TYR F 311      31.299  52.928  -5.832  1.00 40.62 LIG-0.35  N 
ATOM     38 H    TYR F 311      31.058  52.110  -5.948  1.00 40.62 LIG 0.16  HD
ATOM     39  C   GLU F 310      30.778  53.960  -6.489  1.00 41.86 LIG 0.24  C 
ATOM     40 O    GLU F 310      31.213  55.096  -6.371  1.00 41.90 LIG-0.27  OA
BRANCH 39 41
ATOM     41  CA  GLU F 310      29.618  53.676  -7.442  1.00 43.14 LIG 0.18  C 
BRANCH 41 42
ATOM     42  CB  GLU F 310      28.606  52.769  -6.738  1.00 44.06 LIG 0.04  C 
BRANCH 42 43
ATOM     43  CG  GLU F 310      27.554  53.525  -5.942  1.00 45.60 LIG 0.12  C 
BRANCH 43 44
ATOM     44  CD  GLU F 310      28.080  54.806  -5.310  1.00 46.85 LIG 0.17  C 
ATOM     45 OE2  GLU F 310      28.530  54.736  -4.145  1.00 47.09 LIG-0.65  OA
ATOM     46 OE1  GLU F 310      28.029  55.878  -5.959  1.00 45.53 LIG-0.65  OA
ENDBRANCH 43 44
ENDBRANCH 42 43
ENDBRANCH 41 42
BRANCH 41 47
ATOM     47  N   GLU F 310      30.104  53.044  -8.679  1.00 43.23 LIG-0.35  N 
ATOM     48  C   VAL F 309      29.712  53.422  -9.901  1.00 44.16 LIG 0.26  C 
ATOM     49 O    VAL F 309      28.879  54.307 -10.107  1.00 43.83 LIG-0.27  OA
ATOM     50 H    GLU F 310      30.665  52.407  -8.543  1.00 43.23 LIG 0.16  HD
BRANCH 48 51
ATOM     51  CA  VAL F 309      30.360  52.691 -11.084  1.00 44.86 LIG 0.40  C 
ATOM     52  N   VAL F 309      31.433  51.781 -10.587  1.00 44.58 LIG 0.61  N 
BRANCH 51 53
ATOM     53  CB  VAL F 309      29.305  51.900 -11.912  1.00 44.54 LIG 0.03  C 
ATOM     54  CG2 VAL F 309      28.394  52.862 -12.665  1.00 44.44 LIG 0.01  C 
ATOM     55  CG1 VAL F 309      28.479  50.951 -11.046  1.00 43.50 LIG 0.01  C 
ENDBRANCH 51 53
ENDBRANCH 48 51
ENDBRANCH 41 47
ENDBRANCH 39 41
ENDBRANCH 36 37
BRANCH 36 56
ATOM     56  CB  TYR F 311      31.837  52.685  -3.457  1.00 38.48 LIG 0.07  C 
BRANCH 56 57
ATOM     57  CG  TYR F 311      31.428  51.229  -3.406  1.00 36.48 LIG-0.06  A 
ATOM     58  CD1 TYR F 311      32.250  50.278  -2.809  1.00 35.51 LIG 0.01  A 
ATOM     59  CE1 TYR F 311      31.884  48.942  -2.761  1.00 35.35 LIG 0.04  A 
ATOM     60  CZ  TYR F 311      30.694  48.543  -3.324  1.00 34.90 LIG 0.07  A 
ATOM     61  CE2 TYR F 311      29.857  49.462  -3.928  1.00 36.46 LIG 0.04  A 
ATOM     62  CD2 TYR F 311      30.227  50.798  -3.974  1.00 36.25 LIG 0.01  A 
BRANCH 60 63
ATOM     63 OH   TYR F 311      30.337  47.224  -3.283  1.00 38.07 LIG-0.36  OA
ATOM     64 HH   TYR F 311      30.317  46.915  -4.063  1.00 38.07 LIG 0.22  HD
ENDBRANCH 60 63
ENDBRANCH 56 57
ENDBRANCH 36 56
ENDBRANCH 1 36
TORSDOF 27
ENDMDL
MODEL 46
USER: ADFR SOLUTION from run 1
USER: SCORE 18.830917 LL:  -5.751 LR: -14.273 RR:   0.000 FEB:  -6.219
USER: RMSD 8.775129
USER: SEED 151670
USER: STATUS no improvement in best in 11 clusters for 5 generations
USER: GENES 29
USER: genes 0 Translation |==|  0.41478 0.50350 0.42048
USER: genes 1 Rotation |==|  0.50788 0.90732 0.61777 0.76487
USER: genes 2 Torsion [C]-N--CA-[C] |==|  0.82422
USER: genes 3 Torsion [N]-CA--C-[N] |==|  0.93873
USER: genes 4 Torsion [C]-N--CA-[C] |==|  0.65815
USER: genes 5 Torsion [N]-CA--C-[N] |==|  0.19494
USER: genes 6 Torsion [C]-N--CA-[CB] |==|  0.19182
USER: genes 7 Torsion [N]-CA--CB-[CG] |==|  0.73606
USER: genes 8 Torsion [CA]-CB--CG-[CD2] |==|  0.44209
USER: genes 9 Torsion [N]-CA--C-[O] |==|  0.15706
USER: genes 10 Torsion [N]-CA--CB-[CG] |==|  0.61997
USER: genes 11 Torsion [CA]-CB--CG-[CD] |==|  0.86121
USER: genes 12 Torsion [CB]-CG--CD-[CE] |==|  0.80284
USER: genes 13 Torsion [CG]-CD--CE-[NZ] |==|  0.36651
USER: genes 14 Torsion [CD]-CE--NZ-[HZ2] |==|  0.63795
USER: genes 15 Torsion [N]-CA--CB-[CG2] |==|  0.41005
USER: genes 16 Torsion [CA]-CB--OG1-[HG1] |==|  0.78163
USER: genes 17 Torsion [N]-C--CA-[N] |==|  0.44549
USER: genes 18 Torsion [C]-CA--N-[C] |==|  0.56656
USER: genes 19 Torsion [N]-C--CA-[N] |==|  0.80845
USER: genes 20 Torsion [C]-CA--CB-[CG] |==|  0.17161
USER: genes 21 Torsion [CA]-CB--CG-[CD] |==|  0.15800
USER: genes 22 Torsion [CB]-CG--CD-[OE2] |==|  0.79721
USER: genes 23 Torsion [C]-CA--N-[C] |==|  0.67608
USER: genes 24 Torsion [N]-C--CA-[N] |==|  0.93094
USER: genes 25 Torsion [C]-CA--CB-[CG2] |==|  0.23524
USER: genes 26 Torsion [C]-CA--CB-[CG] |==|  0.43107
USER: genes 27 Torsion [CA]-CB--CG-[CD1] |==|  0.32415
USER: genes 28 Torsion [CE1]-CZ--OH-[HH] |==|  0.72873
ROOT
ATOM      1  C   TYR F 311      33.643  52.180  -4.861  1.00 39.57 LIG 0.24  C 
ATOM      2 O    TYR F 311      33.300  51.025  -5.123  1.00 35.87 LIG-0.27  OA
ATOM      3  N   THR F 312      34.857  52.510  -4.425  1.00 39.28 LIG-0.34  N 
ATOM      4 H    THR F 312      35.099  53.323  -4.283  1.00 39.28 LIG 0.16  HD
ENDROOT
BRANCH 3 5
ATOM      5  CA  THR F 312      35.902  51.534  -4.143  1.00 41.67 LIG 0.20  C 
BRANCH 5 6
ATOM      6  C   THR F 312      35.488  50.611  -3.007  1.00 45.40 LIG 0.24  C 
ATOM      7  N   LYS F 313      34.553  51.074  -2.194  1.00 48.10 LIG-0.35  N 
ATOM      8 H    LYS F 313      34.241  51.874  -2.232  1.00 48.10 LIG 0.16  HD
ATOM      9 O    THR F 312      35.979  49.490  -2.888  1.00 48.99 LIG-0.27  OA
BRANCH 7 10
ATOM     10  CA  LYS F 313      33.966  50.251  -1.147  1.00 51.61 LIG 0.18  C 
BRANCH 10 11
ATOM     11  C   LYS F 313      32.445  50.193  -1.333  1.00 54.92 LIG 0.24  C 
ATOM     12 O    LYS F 313      31.693  50.777  -0.545  1.00 54.36 LIG-0.27  OA
ATOM     13  N   HIS F 314      32.017  49.493  -2.389  1.00 57.06 LIG-0.35  N 
ATOM     14 H    HIS F 314      32.553  49.082  -2.922  1.00 57.06 LIG 0.16  HD
BRANCH 13 15
ATOM     15  CA  HIS F 314      30.601  49.345  -2.763  1.00 57.78 LIG 0.17  C 
BRANCH 15 16
ATOM     16  CB  HIS F 314      30.017  50.674  -3.265  1.00 57.79 LIG 0.09  C 
BRANCH 16 17
ATOM     17  CG  HIS F 314      29.310  51.465  -2.207  1.00 61.61 LIG 0.06  A 
ATOM     18  CD2 HIS F 314      29.002  52.783  -2.132  1.00 62.97 LIG 0.14  A 
ATOM     19 NE2  HIS F 314      28.347  52.981  -0.940  1.00 63.36 LIG-0.25  NA
ATOM     20  CE1 HIS F 314      28.251  51.827  -0.304  1.00 61.50 LIG 0.23  A 
ATOM     21 ND1  HIS F 314      28.826  50.895  -1.046  1.00 63.00 LIG-0.24  NA
ENDBRANCH 16 17
ENDBRANCH 15 16
BRANCH 15 22
ATOM     22  C   HIS F 314      30.385  48.240  -3.803  1.00 59.91 LIG 0.22  C 
ATOM     23 O    HIS F 314      30.759  47.081  -3.589  1.00 59.00 LIG-0.29  OA
ENDBRANCH 15 22
ENDBRANCH 13 15
ENDBRANCH 10 11
BRANCH 10 24
ATOM     24  CB  LYS F 313      34.339  50.790   0.238  1.00 49.70 LIG 0.04  C 
BRANCH 24 25
ATOM     25  CG  LYS F 313      34.733  49.697   1.221  1.00 49.89 LIG 0.00  C 
BRANCH 25 26
ATOM     26  CD  LYS F 313      33.719  48.566   1.268  1.00 49.58 LIG 0.03  C 
BRANCH 26 27
ATOM     27  CE  LYS F 313      32.431  49.016   1.944  1.00 48.23 LIG 0.23  C 
BRANCH 27 28
ATOM     28  NZ  LYS F 313      31.239  48.635   1.149  1.00 47.83 LIG-0.08  N 
ATOM     29 HZ2  LYS F 313      30.709  49.343   1.051  1.00 47.83 LIG 0.27  HD
ATOM     30 HZ1  LYS F 313      30.795  47.989   1.571  1.00 47.83 LIG 0.27  HD
ATOM     31 HZ3  LYS F 313      31.496  48.344   0.348  1.00 47.83 LIG 0.27  HD
ENDBRANCH 27 28
ENDBRANCH 26 27
ENDBRANCH 25 26
ENDBRANCH 24 25
ENDBRANCH 10 24
ENDBRANCH 7 10
ENDBRANCH 5 6
BRANCH 5 32
ATOM     32  CB  THR F 312      37.200  52.226  -3.692  1.00 41.09 LIG 0.15  C 
ATOM     33  CG2 THR F 312      37.963  51.370  -2.697  1.00 40.88 LIG 0.04  C 
BRANCH 32 34
ATOM     34 OG1  THR F 312      38.021  52.467  -4.841  1.00 43.07 LIG-0.39  OA
ATOM     35 HG1  THR F 312      38.410  51.756  -5.062  1.00 43.07 LIG 0.21  HD
ENDBRANCH 32 34
ENDBRANCH 5 32
ENDBRANCH 3 5
BRANCH 1 36
ATOM     36  CA  TYR F 311      32.661  53.347  -4.994  1.00 39.31 LIG 0.18  C 
BRANCH 36 37
ATOM     37  N   TYR F 311      31.535  53.048  -5.876  1.00 40.62 LIG-0.35  N 
ATOM     38 H    TYR F 311      31.359  52.210  -5.960  1.00 40.62 LIG 0.16  HD
ATOM     39  C   GLU F 310      30.858  54.017  -6.485  1.00 41.86 LIG 0.24  C 
ATOM     40 O    GLU F 310      31.198  55.189  -6.422  1.00 41.90 LIG-0.27  OA
BRANCH 39 41
ATOM     41  CA  GLU F 310      29.638  53.613  -7.311  1.00 43.14 LIG 0.18  C 
BRANCH 41 42
ATOM     42  CB  GLU F 310      28.709  52.760  -6.443  1.00 44.06 LIG 0.04  C 
BRANCH 42 43
ATOM     43  CG  GLU F 310      28.171  53.487  -5.222  1.00 45.60 LIG 0.12  C 
BRANCH 43 44
ATOM     44  CD  GLU F 310      27.424  54.768  -5.562  1.00 46.85 LIG 0.17  C 
ATOM     45 OE2  GLU F 310      28.100  55.753  -5.934  1.00 47.09 LIG-0.65  OA
ATOM     46 OE1  GLU F 310      26.175  54.803  -5.445  1.00 45.53 LIG-0.65  OA
ENDBRANCH 43 44
ENDBRANCH 42 43
ENDBRANCH 41 42
BRANCH 41 47
ATOM     47  N   GLU F 310      30.046  52.871  -8.514  1.00 43.23 LIG-0.35  N 
ATOM     48  C   VAL F 309      29.831  53.311  -9.759  1.00 44.16 LIG 0.26  C 
ATOM     49 O    VAL F 309      29.236  54.360 -10.019  1.00 43.83 LIG-0.27  OA
ATOM     50 H    GLU F 310      30.437  52.124  -8.342  1.00 43.23 LIG 0.16  HD
BRANCH 48 51
ATOM     51  CA  VAL F 309      30.370  52.436 -10.898  1.00 44.86 LIG 0.40  C 
ATOM     52  N   VAL F 309      31.512  51.612 -10.401  1.00 44.58 LIG 0.61  N 
BRANCH 51 53
ATOM     53  CB  VAL F 309      29.256  51.530 -11.498  1.00 44.54 LIG 0.03  C 
ATOM     54  CG2 VAL F 309      28.466  52.294 -12.554  1.00 44.44 LIG 0.01  C 
ATOM     55  CG1 VAL F 309      28.318  50.976 -10.428  1.00 43.50 LIG 0.01  C 
ENDBRANCH 51 53
ENDBRANCH 48 51
ENDBRANCH 41 47
ENDBRANCH 39 41
ENDBRANCH 36 37
BRANCH 36 56
ATOM     56  CB  TYR F 311      32.141  53.717  -3.601  1.00 38.48 LIG 0.07  C 
BRANCH 56 57
ATOM     57  CG  TYR F 311      31.670  55.151  -3.506  1.00 36.48 LIG-0.06  A 
ATOM     58  CD1 TYR F 311      30.339  55.449  -3.233  1.00 35.51 LIG 0.01  A 
ATOM     59  CE1 TYR F 311      29.899  56.760  -3.147  1.00 35.35 LIG 0.04  A 
ATOM     60  CZ  TYR F 311      30.789  57.789  -3.349  1.00 34.90 LIG 0.07  A 
ATOM     61  CE2 TYR F 311      32.117  57.528  -3.627  1.00 36.46 LIG 0.04  A 
ATOM     62  CD2 TYR F 311      32.553  56.214  -3.712  1.00 36.25 LIG 0.01  A 
BRANCH 60 63
ATOM     63 OH   TYR F 311      30.354  59.083  -3.272  1.00 38.07 LIG-0.36  OA
ATOM     64 HH   TYR F 311      30.198  59.373  -4.045  1.00 38.07 LIG 0.22  HD
ENDBRANCH 60 63
ENDBRANCH 56 57
ENDBRANCH 36 56
ENDBRANCH 1 36
TORSDOF 27
ENDMDL
MODEL 47
USER: ADFR SOLUTION from run 120
USER: SCORE 19.807667 LL:  -5.939 LR: -14.252 RR:   0.000 FEB:  -6.198
USER: RMSD 9.035212
USER: SEED 119
USER: STATUS no improvement in best in 16 clusters for 5 generations
USER: GENES 29
USER: genes 0 Translation |==|  0.32033 0.60530 0.31291
USER: genes 1 Rotation |==|  0.93780 0.66668 0.63387 0.61239
USER: genes 2 Torsion [C]-N--CA-[C] |==|  0.79474
USER: genes 3 Torsion [N]-CA--C-[N] |==|  0.92145
USER: genes 4 Torsion [C]-N--CA-[C] |==|  0.54557
USER: genes 5 Torsion [N]-CA--C-[N] |==|  0.46084
USER: genes 6 Torsion [C]-N--CA-[CB] |==|  0.80500
USER: genes 7 Torsion [N]-CA--CB-[CG] |==|  0.26574
USER: genes 8 Torsion [CA]-CB--CG-[CD2] |==|  0.70457
USER: genes 9 Torsion [N]-CA--C-[O] |==|  0.08453
USER: genes 10 Torsion [N]-CA--CB-[CG] |==|  0.55098
USER: genes 11 Torsion [CA]-CB--CG-[CD] |==|  0.45606
USER: genes 12 Torsion [CB]-CG--CD-[CE] |==|  0.33528
USER: genes 13 Torsion [CG]-CD--CE-[NZ] |==|  0.80639
USER: genes 14 Torsion [CD]-CE--NZ-[HZ2] |==|  0.54355
USER: genes 15 Torsion [N]-CA--CB-[CG2] |==|  0.59553
USER: genes 16 Torsion [CA]-CB--OG1-[HG1] |==|  0.15471
USER: genes 17 Torsion [N]-C--CA-[N] |==|  0.47052
USER: genes 18 Torsion [C]-CA--N-[C] |==|  0.55708
USER: genes 19 Torsion [N]-C--CA-[N] |==|  0.95058
USER: genes 20 Torsion [C]-CA--CB-[CG] |==|  0.85253
USER: genes 21 Torsion [CA]-CB--CG-[CD] |==|  0.82029
USER: genes 22 Torsion [CB]-CG--CD-[OE2] |==|  0.25023
USER: genes 23 Torsion [C]-CA--N-[C] |==|  0.82769
USER: genes 24 Torsion [N]-C--CA-[N] |==|  0.84126
USER: genes 25 Torsion [C]-CA--CB-[CG2] |==|  0.08034
USER: genes 26 Torsion [C]-CA--CB-[CG] |==|  0.38681
USER: genes 27 Torsion [CA]-CB--CG-[CD1] |==|  0.41783
USER: genes 28 Torsion [CE1]-CZ--OH-[HH] |==|  0.11419
ROOT
ATOM      1  C   TYR F 311      31.022  54.165  -6.958  1.00 39.57 LIG 0.24  C 
ATOM      2 O    TYR F 311      30.175  55.056  -7.062  1.00 35.87 LIG-0.27  OA
ATOM      3  N   THR F 312      31.237  53.237  -7.888  1.00 39.28 LIG-0.34  N 
ATOM      4 H    THR F 312      31.856  52.644  -7.823  1.00 39.28 LIG 0.16  HD
ENDROOT
BRANCH 3 5
ATOM      5  CA  THR F 312      30.449  53.125  -9.109  1.00 41.67 LIG 0.20  C 
BRANCH 5 6
ATOM      6  C   THR F 312      29.070  52.554  -8.813  1.00 45.40 LIG 0.24  C 
ATOM      7  N   LYS F 313      28.988  51.752  -7.765  1.00 48.10 LIG-0.35  N 
ATOM      8 H    LYS F 313      29.668  51.487  -7.311  1.00 48.10 LIG 0.16  HD
ATOM      9 O    THR F 312      28.096  52.858  -9.498  1.00 48.99 LIG-0.27  OA
BRANCH 7 10
ATOM     10  CA  LYS F 313      27.712  51.240  -7.285  1.00 51.61 LIG 0.18  C 
BRANCH 10 11
ATOM     11  C   LYS F 313      27.881  50.696  -5.861  1.00 54.92 LIG 0.24  C 
ATOM     12 O    LYS F 313      29.007  50.506  -5.390  1.00 54.36 LIG-0.27  OA
ATOM     13  N   HIS F 314      26.747  50.467  -5.192  1.00 57.06 LIG-0.35  N 
ATOM     14 H    HIS F 314      25.969  50.593  -5.538  1.00 57.06 LIG 0.16  HD
BRANCH 13 15
ATOM     15  CA  HIS F 314      26.691  49.979  -3.804  1.00 57.78 LIG 0.17  C 
BRANCH 15 16
ATOM     16  CB  HIS F 314      27.148  48.516  -3.710  1.00 57.79 LIG 0.09  C 
BRANCH 16 17
ATOM     17  CG  HIS F 314      28.592  48.352  -3.343  1.00 61.61 LIG 0.06  A 
ATOM     18  CD2 HIS F 314      29.666  47.985  -4.083  1.00 62.97 LIG 0.14  A 
ATOM     19 NE2  HIS F 314      30.759  47.998  -3.248  1.00 63.36 LIG-0.25  NA
ATOM     20  CE1 HIS F 314      30.372  48.362  -2.039  1.00 61.50 LIG 0.23  A 
ATOM     21 ND1  HIS F 314      29.069  48.581  -2.067  1.00 63.00 LIG-0.24  NA
ENDBRANCH 16 17
ENDBRANCH 15 16
BRANCH 15 22
ATOM     22  C   HIS F 314      27.505  50.856  -2.845  1.00 59.91 LIG 0.22  C 
ATOM     23 O    HIS F 314      27.647  52.066  -3.052  1.00 59.00 LIG-0.29  OA
ENDBRANCH 15 22
ENDBRANCH 13 15
ENDBRANCH 10 11
BRANCH 10 24
ATOM     24  CB  LYS F 313      27.170  50.164  -8.233  1.00 49.70 LIG 0.04  C 
BRANCH 24 25
ATOM     25  CG  LYS F 313      25.681  49.905  -8.058  1.00 49.89 LIG 0.00  C 
BRANCH 25 26
ATOM     26  CD  LYS F 313      25.083  49.142  -9.229  1.00 49.58 LIG 0.03  C 
BRANCH 26 27
ATOM     27  CE  LYS F 313      24.468  47.828  -8.767  1.00 48.23 LIG 0.23  C 
BRANCH 27 28
ATOM     28  NZ  LYS F 313      25.508  46.862  -8.340  1.00 47.83 LIG-0.08  N 
ATOM     29 HZ2  LYS F 313      25.155  46.047  -8.294  1.00 47.83 LIG 0.27  HD
ATOM     30 HZ1  LYS F 313      25.820  47.096  -7.540  1.00 47.83 LIG 0.27  HD
ATOM     31 HZ3  LYS F 313      26.175  46.864  -8.929  1.00 47.83 LIG 0.27  HD
ENDBRANCH 27 28
ENDBRANCH 26 27
ENDBRANCH 25 26
ENDBRANCH 24 25
ENDBRANCH 10 24
ENDBRANCH 7 10
ENDBRANCH 5 6
BRANCH 5 32
ATOM     32  CB  THR F 312      31.114  52.166 -10.112  1.00 41.09 LIG 0.15  C 
ATOM     33  CG2 THR F 312      30.884  52.621 -11.543  1.00 40.88 LIG 0.04  C 
BRANCH 32 34
ATOM     34 OG1  THR F 312      32.520  52.119  -9.848  1.00 43.07 LIG-0.39  OA
ATOM     35 HG1  THR F 312      32.648  51.901  -9.047  1.00 43.07 LIG 0.21  HD
ENDBRANCH 32 34
ENDBRANCH 5 32
ENDBRANCH 3 5
BRANCH 1 36
ATOM     36  CA  TYR F 311      31.891  54.043  -5.705  1.00 39.31 LIG 0.18  C 
BRANCH 36 37
ATOM     37  N   TYR F 311      31.800  55.210  -4.829  1.00 40.62 LIG-0.35  N 
ATOM     38 H    TYR F 311      31.096  55.691  -4.947  1.00 40.62 LIG 0.16  HD
ATOM     39  C   GLU F 310      32.746  55.478  -3.934  1.00 41.86 LIG 0.24  C 
ATOM     40 O    GLU F 310      33.779  54.829  -3.862  1.00 41.90 LIG-0.27  OA
BRANCH 39 41
ATOM     41  CA  GLU F 310      32.516  56.665  -3.000  1.00 43.14 LIG 0.18  C 
BRANCH 41 42
ATOM     42  CB  GLU F 310      32.115  56.140  -1.618  1.00 44.06 LIG 0.04  C 
BRANCH 42 43
ATOM     43  CG  GLU F 310      30.942  55.175  -1.645  1.00 45.60 LIG 0.12  C 
BRANCH 43 44
ATOM     44  CD  GLU F 310      29.643  55.815  -2.114  1.00 46.85 LIG 0.17  C 
ATOM     45 OE2  GLU F 310      29.392  55.789  -3.339  1.00 47.09 LIG-0.65  OA
ATOM     46 OE1  GLU F 310      28.885  56.358  -1.273  1.00 45.53 LIG-0.65  OA
ENDBRANCH 43 44
ENDBRANCH 42 43
ENDBRANCH 41 42
BRANCH 41 47
ATOM     47  N   GLU F 310      31.475  57.555  -3.535  1.00 43.23 LIG-0.35  N 
ATOM     48  C   VAL F 309      31.586  58.200  -4.702  1.00 44.16 LIG 0.26  C 
ATOM     49 O    VAL F 309      32.587  58.142  -5.421  1.00 43.83 LIG-0.27  OA
ATOM     50 H    GLU F 310      30.785  57.623  -3.027  1.00 43.23 LIG 0.16  HD
BRANCH 48 51
ATOM     51  CA  VAL F 309      30.382  59.046  -5.136  1.00 44.86 LIG 0.40  C 
ATOM     52  N   VAL F 309      29.162  58.188  -5.202  1.00 44.58 LIG 0.61  N 
BRANCH 51 53
ATOM     53  CB  VAL F 309      30.157  60.251  -4.177  1.00 44.54 LIG 0.03  C 
ATOM     54  CG2 VAL F 309      31.481  60.690  -3.560  1.00 44.44 LIG 0.01  C 
ATOM     55  CG1 VAL F 309      29.137  59.942  -3.084  1.00 43.50 LIG 0.01  C 
ENDBRANCH 51 53
ENDBRANCH 48 51
ENDBRANCH 41 47
ENDBRANCH 39 41
ENDBRANCH 36 37
BRANCH 36 56
ATOM     56  CB  TYR F 311      31.474  52.787  -4.933  1.00 38.48 LIG 0.07  C 
BRANCH 56 57
ATOM     57  CG  TYR F 311      32.649  52.018  -4.372  1.00 36.48 LIG-0.06  A 
ATOM     58  CD1 TYR F 311      32.522  51.270  -3.205  1.00 35.51 LIG 0.01  A 
ATOM     59  CE1 TYR F 311      33.594  50.565  -2.683  1.00 35.35 LIG 0.04  A 
ATOM     60  CZ  TYR F 311      34.813  50.615  -3.319  1.00 34.90 LIG 0.07  A 
ATOM     61  CE2 TYR F 311      34.974  51.351  -4.476  1.00 36.46 LIG 0.04  A 
ATOM     62  CD2 TYR F 311      33.898  52.055  -4.996  1.00 36.25 LIG 0.01  A 
BRANCH 60 63
ATOM     63 OH   TYR F 311      35.873  49.925  -2.799  1.00 38.07 LIG-0.36  OA
ATOM     64 HH   TYR F 311      35.614  49.172  -2.531  1.00 38.07 LIG 0.22  HD
ENDBRANCH 60 63
ENDBRANCH 56 57
ENDBRANCH 36 56
ENDBRANCH 1 36
TORSDOF 27
ENDMDL
MODEL 48
USER: ADFR SOLUTION from run 61
USER: SCORE 18.355280 LL:  -5.353 LR: -14.245 RR:   0.000 FEB:  -6.191
USER: RMSD 10.900582
USER: SEED 60
USER: STATUS searching
USER: GENES 29
USER: genes 0 Translation |==|  0.41873 0.51036 0.40056
USER: genes 1 Rotation |==|  0.51693 0.85191 0.75849 0.74302
USER: genes 2 Torsion [C]-N--CA-[C] |==|  0.67511
USER: genes 3 Torsion [N]-CA--C-[N] |==|  0.88401
USER: genes 4 Torsion [C]-N--CA-[C] |==|  0.18889
USER: genes 5 Torsion [N]-CA--C-[N] |==|  0.06530
USER: genes 6 Torsion [C]-N--CA-[CB] |==|  0.48809
USER: genes 7 Torsion [N]-CA--CB-[CG] |==|  0.67959
USER: genes 8 Torsion [CA]-CB--CG-[CD2] |==|  0.11644
USER: genes 9 Torsion [N]-CA--C-[O] |==|  0.88397
USER: genes 10 Torsion [N]-CA--CB-[CG] |==|  0.62877
USER: genes 11 Torsion [CA]-CB--CG-[CD] |==|  0.58528
USER: genes 12 Torsion [CB]-CG--CD-[CE] |==|  0.15466
USER: genes 13 Torsion [CG]-CD--CE-[NZ] |==|  0.13732
USER: genes 14 Torsion [CD]-CE--NZ-[HZ2] |==|  0.41829
USER: genes 15 Torsion [N]-CA--CB-[CG2] |==|  0.40940
USER: genes 16 Torsion [CA]-CB--OG1-[HG1] |==|  0.89157
USER: genes 17 Torsion [N]-C--CA-[N] |==|  0.46541
USER: genes 18 Torsion [C]-CA--N-[C] |==|  0.64999
USER: genes 19 Torsion [N]-C--CA-[N] |==|  0.80801
USER: genes 20 Torsion [C]-CA--CB-[CG] |==|  0.60519
USER: genes 21 Torsion [CA]-CB--CG-[CD] |==|  0.77425
USER: genes 22 Torsion [CB]-CG--CD-[OE2] |==|  0.74988
USER: genes 23 Torsion [C]-CA--N-[C] |==|  0.66626
USER: genes 24 Torsion [N]-C--CA-[N] |==|  0.95247
USER: genes 25 Torsion [C]-CA--CB-[CG2] |==|  0.16005
USER: genes 26 Torsion [C]-CA--CB-[CG] |==|  0.81561
USER: genes 27 Torsion [CA]-CB--CG-[CD1] |==|  0.32461
USER: genes 28 Torsion [CE1]-CZ--OH-[HH] |==|  0.65733
ROOT
ATOM      1  C   TYR F 311      33.753  52.314  -5.249  1.00 39.57 LIG 0.24  C 
ATOM      2 O    TYR F 311      33.745  51.414  -6.093  1.00 35.87 LIG-0.27  OA
ATOM      3  N   THR F 312      34.836  52.676  -4.564  1.00 39.28 LIG-0.34  N 
ATOM      4 H    THR F 312      34.840  53.331  -4.007  1.00 39.28 LIG 0.16  HD
ENDROOT
BRANCH 3 5
ATOM      5  CA  THR F 312      36.124  52.005  -4.684  1.00 41.67 LIG 0.20  C 
BRANCH 5 6
ATOM      6  C   THR F 312      36.528  51.370  -3.363  1.00 45.40 LIG 0.24  C 
ATOM      7  N   LYS F 313      36.302  52.093  -2.279  1.00 48.10 LIG-0.35  N 
ATOM      8 H    LYS F 313      36.021  52.905  -2.296  1.00 48.10 LIG 0.16  HD
ATOM      9 O    THR F 312      37.004  50.237  -3.321  1.00 48.99 LIG-0.27  OA
BRANCH 7 10
ATOM     10  CA  LYS F 313      36.515  51.562  -0.940  1.00 51.61 LIG 0.18  C 
BRANCH 10 11
ATOM     11  C   LYS F 313      38.015  51.340  -0.709  1.00 54.92 LIG 0.24  C 
ATOM     12 O    LYS F 313      38.407  50.518   0.127  1.00 54.36 LIG-0.27  OA
ATOM     13  N   HIS F 314      38.832  52.075  -1.469  1.00 57.06 LIG-0.35  N 
ATOM     14 H    HIS F 314      38.543  52.652  -2.038  1.00 57.06 LIG 0.16  HD
BRANCH 13 15
ATOM     15  CA  HIS F 314      40.301  51.987  -1.426  1.00 57.78 LIG 0.17  C 
BRANCH 15 16
ATOM     16  CB  HIS F 314      40.943  52.885  -2.496  1.00 57.79 LIG 0.09  C 
BRANCH 16 17
ATOM     17  CG  HIS F 314      41.696  52.132  -3.549  1.00 61.61 LIG 0.06  A 
ATOM     18  CD2 HIS F 314      41.402  50.987  -4.211  1.00 62.97 LIG 0.14  A 
ATOM     19 NE2  HIS F 314      42.442  50.738  -5.076  1.00 63.36 LIG-0.25  NA
ATOM     20  CE1 HIS F 314      43.343  51.697  -4.953  1.00 61.50 LIG 0.23  A 
ATOM     21 ND1  HIS F 314      42.919  52.551  -4.037  1.00 63.00 LIG-0.24  NA
ENDBRANCH 16 17
ENDBRANCH 15 16
BRANCH 15 22
ATOM     22  C   HIS F 314      40.866  52.320  -0.040  1.00 59.91 LIG 0.22  C 
ATOM     23 O    HIS F 314      40.414  53.260   0.623  1.00 59.00 LIG-0.29  OA
ENDBRANCH 15 22
ENDBRANCH 13 15
ENDBRANCH 10 11
BRANCH 10 24
ATOM     24  CB  LYS F 313      35.721  50.266  -0.740  1.00 49.70 LIG 0.04  C 
BRANCH 24 25
ATOM     25  CG  LYS F 313      34.961  50.225   0.578  1.00 49.89 LIG 0.00  C 
BRANCH 25 26
ATOM     26  CD  LYS F 313      34.819  48.813   1.122  1.00 49.58 LIG 0.03  C 
BRANCH 26 27
ATOM     27  CE  LYS F 313      36.179  48.147   1.271  1.00 48.23 LIG 0.23  C 
BRANCH 27 28
ATOM     28  NZ  LYS F 313      37.135  49.020   1.992  1.00 47.83 LIG-0.08  N 
ATOM     29 HZ2  LYS F 313      37.723  48.518   2.432  1.00 47.83 LIG 0.27  HD
ATOM     30 HZ1  LYS F 313      36.692  49.533   2.570  1.00 47.83 LIG 0.27  HD
ATOM     31 HZ3  LYS F 313      37.565  49.537   1.408  1.00 47.83 LIG 0.27  HD
ENDBRANCH 27 28
ENDBRANCH 26 27
ENDBRANCH 25 26
ENDBRANCH 24 25
ENDBRANCH 10 24
ENDBRANCH 7 10
ENDBRANCH 5 6
BRANCH 5 32
ATOM     32  CB  THR F 312      37.237  53.002  -5.049  1.00 41.09 LIG 0.15  C 
ATOM     33  CG2 THR F 312      38.564  52.594  -4.435  1.00 40.88 LIG 0.04  C 
BRANCH 32 34
ATOM     34 OG1  THR F 312      37.368  53.051  -6.474  1.00 43.07 LIG-0.39  OA
ATOM     35 HG1  THR F 312      37.278  52.278  -6.792  1.00 43.07 LIG 0.21  HD
ENDBRANCH 32 34
ENDBRANCH 5 32
ENDBRANCH 3 5
BRANCH 1 36
ATOM     36  CA  TYR F 311      32.476  53.081  -4.898  1.00 39.31 LIG 0.18  C 
BRANCH 36 37
ATOM     37  N   TYR F 311      31.395  52.861  -5.858  1.00 40.62 LIG-0.35  N 
ATOM     38 H    TYR F 311      31.201  52.035  -5.995  1.00 40.62 LIG 0.16  HD
ATOM     39  C   GLU F 310      30.783  53.880  -6.455  1.00 41.86 LIG 0.24  C 
ATOM     40 O    GLU F 310      31.151  55.037  -6.312  1.00 41.90 LIG-0.27  OA
BRANCH 39 41
ATOM     41  CA  GLU F 310      29.603  53.557  -7.369  1.00 43.14 LIG 0.18  C 
BRANCH 41 42
ATOM     42  CB  GLU F 310      28.603  52.687  -6.602  1.00 44.06 LIG 0.04  C 
BRANCH 42 43
ATOM     43  CG  GLU F 310      27.955  51.604  -7.449  1.00 45.60 LIG 0.12  C 
BRANCH 43 44
ATOM     44  CD  GLU F 310      26.792  52.111  -8.291  1.00 46.85 LIG 0.17  C 
ATOM     45 OE2  GLU F 310      25.649  52.074  -7.784  1.00 47.09 LIG-0.65  OA
ATOM     46 OE1  GLU F 310      27.010  52.527  -9.455  1.00 45.53 LIG-0.65  OA
ENDBRANCH 43 44
ENDBRANCH 42 43
ENDBRANCH 41 42
BRANCH 41 47
ATOM     47  N   GLU F 310      30.061  52.866  -8.585  1.00 43.23 LIG-0.35  N 
ATOM     48  C   VAL F 309      29.870  53.345  -9.819  1.00 44.16 LIG 0.26  C 
ATOM     49 O    VAL F 309      29.258  54.388 -10.059  1.00 43.83 LIG-0.27  OA
ATOM     50 H    GLU F 310      30.464  52.123  -8.428  1.00 43.23 LIG 0.16  HD
BRANCH 48 51
ATOM     51  CA  VAL F 309      30.460  52.522 -10.972  1.00 44.86 LIG 0.40  C 
ATOM     52  N   VAL F 309      31.479  51.570 -10.440  1.00 44.58 LIG 0.61  N 
BRANCH 51 53
ATOM     53  CB  VAL F 309      29.351  51.762 -11.757  1.00 44.54 LIG 0.03  C 
ATOM     54  CG2 VAL F 309      28.318  52.745 -12.296  1.00 44.44 LIG 0.01  C 
ATOM     55  CG1 VAL F 309      28.674  50.687 -10.911  1.00 43.50 LIG 0.01  C 
ENDBRANCH 51 53
ENDBRANCH 48 51
ENDBRANCH 41 47
ENDBRANCH 39 41
ENDBRANCH 36 37
BRANCH 36 56
ATOM     56  CB  TYR F 311      32.015  52.661  -3.499  1.00 38.48 LIG 0.07  C 
BRANCH 56 57
ATOM     57  CG  TYR F 311      31.569  51.217  -3.431  1.00 36.48 LIG-0.06  A 
ATOM     58  CD1 TYR F 311      32.245  50.298  -2.634  1.00 35.51 LIG 0.01  A 
ATOM     59  CE1 TYR F 311      31.845  48.974  -2.568  1.00 35.35 LIG 0.04  A 
ATOM     60  CZ  TYR F 311      30.768  48.552  -3.313  1.00 34.90 LIG 0.07  A 
ATOM     61  CE2 TYR F 311      30.078  49.437  -4.118  1.00 36.46 LIG 0.04  A 
ATOM     62  CD2 TYR F 311      30.482  50.763  -4.180  1.00 36.25 LIG 0.01  A 
BRANCH 60 63
ATOM     63 OH   TYR F 311      30.379  47.243  -3.253  1.00 38.07 LIG-0.36  OA
ATOM     64 HH   TYR F 311      30.382  46.913  -4.026  1.00 38.07 LIG 0.22  HD
ENDBRANCH 60 63
ENDBRANCH 56 57
ENDBRANCH 36 56
ENDBRANCH 1 36
TORSDOF 27
ENDMDL
MODEL 49
USER: ADFR SOLUTION from run 83
USER: SCORE 20.024911 LL:  -6.133 LR: -14.227 RR:   0.000 FEB:  -6.173
USER: RMSD 5.818882
USER: SEED 82
USER: STATUS searching
USER: GENES 29
USER: genes 0 Translation |==|  0.47492 0.49319 0.42834
USER: genes 1 Rotation |==|  0.69602 0.34845 0.37899 0.91709
USER: genes 2 Torsion [C]-N--CA-[C] |==|  0.72052
USER: genes 3 Torsion [N]-CA--C-[N] |==|  0.44740
USER: genes 4 Torsion [C]-N--CA-[C] |==|  0.78230
USER: genes 5 Torsion [N]-CA--C-[N] |==|  0.97860
USER: genes 6 Torsion [C]-N--CA-[CB] |==|  0.82324
USER: genes 7 Torsion [N]-CA--CB-[CG] |==|  0.90585
USER: genes 8 Torsion [CA]-CB--CG-[CD2] |==|  0.27157
USER: genes 9 Torsion [N]-CA--C-[O] |==|  0.81624
USER: genes 10 Torsion [N]-CA--CB-[CG] |==|  0.13939
USER: genes 11 Torsion [CA]-CB--CG-[CD] |==|  0.52275
USER: genes 12 Torsion [CB]-CG--CD-[CE] |==|  0.23814
USER: genes 13 Torsion [CG]-CD--CE-[NZ] |==|  0.61856
USER: genes 14 Torsion [CD]-CE--NZ-[HZ2] |==|  0.83335
USER: genes 15 Torsion [N]-CA--CB-[CG2] |==|  0.13153
USER: genes 16 Torsion [CA]-CB--OG1-[HG1] |==|  0.10148
USER: genes 17 Torsion [N]-C--CA-[N] |==|  0.46079
USER: genes 18 Torsion [C]-CA--N-[C] |==|  0.55118
USER: genes 19 Torsion [N]-C--CA-[N] |==|  0.11665
USER: genes 20 Torsion [C]-CA--CB-[CG] |==|  0.43213
USER: genes 21 Torsion [CA]-CB--CG-[CD] |==|  0.06907
USER: genes 22 Torsion [CB]-CG--CD-[OE2] |==|  0.66198
USER: genes 23 Torsion [C]-CA--N-[C] |==|  0.16636
USER: genes 24 Torsion [N]-C--CA-[N] |==|  0.90345
USER: genes 25 Torsion [C]-CA--CB-[CG2] |==|  0.31524
USER: genes 26 Torsion [C]-CA--CB-[CG] |==|  0.27420
USER: genes 27 Torsion [CA]-CB--CG-[CD1] |==|  0.02099
USER: genes 28 Torsion [CE1]-CZ--OH-[HH] |==|  0.30034
ROOT
ATOM      1  C   TYR F 311      35.312  51.979  -4.707  1.00 39.57 LIG 0.24  C 
ATOM      2 O    TYR F 311      35.620  51.659  -5.858  1.00 35.87 LIG-0.27  OA
ATOM      3  N   THR F 312      34.056  52.089  -4.281  1.00 39.28 LIG-0.34  N 
ATOM      4 H    THR F 312      33.852  52.275  -3.466  1.00 39.28 LIG 0.16  HD
ENDROOT
BRANCH 3 5
ATOM      5  CA  THR F 312      32.896  51.909  -5.144  1.00 41.67 LIG 0.20  C 
BRANCH 5 6
ATOM      6  C   THR F 312      32.321  53.252  -5.568  1.00 45.40 LIG 0.24  C 
ATOM      7  N   LYS F 313      31.537  53.237  -6.633  1.00 48.10 LIG-0.35  N 
ATOM      8 H    LYS F 313      31.407  52.542  -7.122  1.00 48.10 LIG 0.16  HD
ATOM      9 O    THR F 312      32.555  54.274  -4.927  1.00 48.99 LIG-0.27  OA
BRANCH 7 10
ATOM     10  CA  LYS F 313      30.813  54.421  -7.073  1.00 51.61 LIG 0.18  C 
BRANCH 10 11
ATOM     11  C   LYS F 313      29.573  54.621  -6.192  1.00 54.92 LIG 0.24  C 
ATOM     12 O    LYS F 313      28.882  55.639  -6.302  1.00 54.36 LIG-0.27  OA
ATOM     13  N   HIS F 314      29.306  53.631  -5.335  1.00 57.06 LIG-0.35  N 
ATOM     14 H    HIS F 314      29.805  52.933  -5.261  1.00 57.06 LIG 0.16  HD
BRANCH 13 15
ATOM     15  CA  HIS F 314      28.147  53.613  -4.428  1.00 57.78 LIG 0.17  C 
BRANCH 15 16
ATOM     16  CB  HIS F 314      28.218  54.763  -3.412  1.00 57.79 LIG 0.09  C 
BRANCH 16 17
ATOM     17  CG  HIS F 314      29.611  55.113  -2.987  1.00 61.61 LIG 0.06  A 
ATOM     18  CD2 HIS F 314      30.457  56.085  -3.408  1.00 62.97 LIG 0.14  A 
ATOM     19 NE2  HIS F 314      31.617  55.959  -2.680  1.00 63.36 LIG-0.25  NA
ATOM     20  CE1 HIS F 314      31.489  54.948  -1.839  1.00 61.50 LIG 0.23  A 
ATOM     21 ND1  HIS F 314      30.289  54.418  -2.003  1.00 63.00 LIG-0.24  NA
ENDBRANCH 16 17
ENDBRANCH 15 16
BRANCH 15 22
ATOM     22  C   HIS F 314      26.814  53.651  -5.185  1.00 59.91 LIG 0.22  C 
ATOM     23 O    HIS F 314      26.481  54.644  -5.841  1.00 59.00 LIG-0.29  OA
ENDBRANCH 15 22
ENDBRANCH 13 15
ENDBRANCH 10 11
BRANCH 10 24
ATOM     24  CB  LYS F 313      30.433  54.304  -8.553  1.00 49.70 LIG 0.04  C 
BRANCH 24 25
ATOM     25  CG  LYS F 313      29.748  52.988  -8.895  1.00 49.89 LIG 0.00  C 
BRANCH 25 26
ATOM     26  CD  LYS F 313      29.559  52.806 -10.392  1.00 49.58 LIG 0.03  C 
BRANCH 26 27
ATOM     27  CE  LYS F 313      30.801  52.197 -11.028  1.00 48.23 LIG 0.23  C 
BRANCH 27 28
ATOM     28  NZ  LYS F 313      31.135  52.862 -12.310  1.00 47.83 LIG-0.08  N 
ATOM     29 HZ2  LYS F 313      30.455  52.772 -12.878  1.00 47.83 LIG 0.27  HD
ATOM     30 HZ1  LYS F 313      31.863  52.487 -12.658  1.00 47.83 LIG 0.27  HD
ATOM     31 HZ3  LYS F 313      31.288  53.727 -12.166  1.00 47.83 LIG 0.27  HD
ENDBRANCH 27 28
ENDBRANCH 26 27
ENDBRANCH 25 26
ENDBRANCH 24 25
ENDBRANCH 10 24
ENDBRANCH 7 10
ENDBRANCH 5 6
BRANCH 5 32
ATOM     32  CB  THR F 312      31.768  51.163  -4.410  1.00 41.09 LIG 0.15  C 
ATOM     33  CG2 THR F 312      31.525  51.753  -3.032  1.00 40.88 LIG 0.04  C 
BRANCH 32 34
ATOM     34 OG1  THR F 312      30.568  51.255  -5.185  1.00 43.07 LIG-0.39  OA
ATOM     35 HG1  THR F 312      30.758  51.216  -6.003  1.00 43.07 LIG 0.21  HD
ENDBRANCH 32 34
ENDBRANCH 5 32
ENDBRANCH 3 5
BRANCH 1 36
ATOM     36  CA  TYR F 311      36.383  52.311  -3.666  1.00 39.31 LIG 0.18  C 
BRANCH 36 37
ATOM     37  N   TYR F 311      37.720  51.869  -4.060  1.00 40.62 LIG-0.35  N 
ATOM     38 H    TYR F 311      37.810  51.709  -4.900  1.00 40.62 LIG 0.16  HD
ATOM     39  C   GLU F 310      38.695  51.736  -3.166  1.00 41.86 LIG 0.24  C 
ATOM     40 O    GLU F 310      38.505  51.877  -1.967  1.00 41.90 LIG-0.27  OA
BRANCH 39 41
ATOM     41  CA  GLU F 310      40.082  51.362  -3.685  1.00 43.14 LIG 0.18  C 
BRANCH 41 42
ATOM     42  CB  GLU F 310      41.117  51.653  -2.595  1.00 44.06 LIG 0.04  C 
BRANCH 42 43
ATOM     43  CG  GLU F 310      42.386  50.827  -2.718  1.00 45.60 LIG 0.12  C 
BRANCH 43 44
ATOM     44  CD  GLU F 310      42.660  50.347  -4.136  1.00 46.85 LIG 0.17  C 
ATOM     45 OE2  GLU F 310      42.754  49.113  -4.323  1.00 47.09 LIG-0.65  OA
ATOM     46 OE1  GLU F 310      42.799  51.189  -5.055  1.00 45.53 LIG-0.65  OA
ENDBRANCH 43 44
ENDBRANCH 42 43
ENDBRANCH 41 42
BRANCH 41 47
ATOM     47  N   GLU F 310      40.398  52.112  -4.911  1.00 43.23 LIG-0.35  N 
ATOM     48  C   VAL F 309      40.448  53.448  -4.964  1.00 44.16 LIG 0.26  C 
ATOM     49 O    VAL F 309      40.196  54.179  -4.004  1.00 43.83 LIG-0.27  OA
ATOM     50 H    GLU F 310      40.549  51.610  -5.593  1.00 43.23 LIG 0.16  HD
BRANCH 48 51
ATOM     51  CA  VAL F 309      40.848  54.065  -6.310  1.00 44.86 LIG 0.40  C 
ATOM     52  N   VAL F 309      41.851  53.191  -6.987  1.00 44.58 LIG 0.61  N 
BRANCH 51 53
ATOM     53  CB  VAL F 309      39.608  54.292  -7.224  1.00 44.54 LIG 0.03  C 
ATOM     54  CG2 VAL F 309      39.372  55.783  -7.434  1.00 44.44 LIG 0.01  C 
ATOM     55  CG1 VAL F 309      38.349  53.626  -6.672  1.00 43.50 LIG 0.01  C 
ENDBRANCH 51 53
ENDBRANCH 48 51
ENDBRANCH 41 47
ENDBRANCH 39 41
ENDBRANCH 36 37
BRANCH 36 56
ATOM     56  CB  TYR F 311      36.390  53.824  -3.428  1.00 38.48 LIG 0.07  C 
BRANCH 56 57
ATOM     57  CG  TYR F 311      35.620  54.233  -2.191  1.00 36.48 LIG-0.06  A 
ATOM     58  CD1 TYR F 311      35.124  53.277  -1.310  1.00 35.51 LIG 0.01  A 
ATOM     59  CE1 TYR F 311      34.416  53.643  -0.177  1.00 35.35 LIG 0.04  A 
ATOM     60  CZ  TYR F 311      34.184  54.975   0.077  1.00 34.90 LIG 0.07  A 
ATOM     61  CE2 TYR F 311      34.658  55.949  -0.780  1.00 36.46 LIG 0.04  A 
ATOM     62  CD2 TYR F 311      35.367  55.578  -1.912  1.00 36.25 LIG 0.01  A 
BRANCH 60 63
ATOM     63 OH   TYR F 311      33.478  55.336   1.191  1.00 38.07 LIG-0.36  OA
ATOM     64 HH   TYR F 311      33.998  55.683   1.753  1.00 38.07 LIG 0.22  HD
ENDBRANCH 60 63
ENDBRANCH 56 57
ENDBRANCH 36 56
ENDBRANCH 1 36
TORSDOF 27
ENDMDL
MODEL 50
USER: ADFR SOLUTION from run 83
USER: SCORE 18.248654 LL:  -5.341 LR: -14.215 RR:   0.000 FEB:  -6.161
USER: RMSD 5.858899
USER: SEED 82
USER: STATUS searching
USER: GENES 29
USER: genes 0 Translation |==|  0.50945 0.51954 0.36428
USER: genes 1 Rotation |==|  0.62230 0.38910 0.40401 0.96209
USER: genes 2 Torsion [C]-N--CA-[C] |==|  0.63710
USER: genes 3 Torsion [N]-CA--C-[N] |==|  0.38925
USER: genes 4 Torsion [C]-N--CA-[C] |==|  0.77180
USER: genes 5 Torsion [N]-CA--C-[N] |==|  0.91111
USER: genes 6 Torsion [C]-N--CA-[CB] |==|  0.76385
USER: genes 7 Torsion [N]-CA--CB-[CG] |==|  0.73344
USER: genes 8 Torsion [CA]-CB--CG-[CD2] |==|  0.39897
USER: genes 9 Torsion [N]-CA--C-[O] |==|  0.12682
USER: genes 10 Torsion [N]-CA--CB-[CG] |==|  0.20998
USER: genes 11 Torsion [CA]-CB--CG-[CD] |==|  0.55627
USER: genes 12 Torsion [CB]-CG--CD-[CE] |==|  0.28340
USER: genes 13 Torsion [CG]-CD--CE-[NZ] |==|  0.56482
USER: genes 14 Torsion [CD]-CE--NZ-[HZ2] |==|  0.82463
USER: genes 15 Torsion [N]-CA--CB-[CG2] |==|  0.11185
USER: genes 16 Torsion [CA]-CB--OG1-[HG1] |==|  0.09708
USER: genes 17 Torsion [N]-C--CA-[N] |==|  0.69739
USER: genes 18 Torsion [C]-CA--N-[C] |==|  0.71858
USER: genes 19 Torsion [N]-C--CA-[N] |==|  0.16110
USER: genes 20 Torsion [C]-CA--CB-[CG] |==|  0.50025
USER: genes 21 Torsion [CA]-CB--CG-[CD] |==|  0.20556
USER: genes 22 Torsion [CB]-CG--CD-[OE2] |==|  0.68029
USER: genes 23 Torsion [C]-CA--N-[C] |==|  0.14337
USER: genes 24 Torsion [N]-C--CA-[N] |==|  0.85470
USER: genes 25 Torsion [C]-CA--CB-[CG2] |==|  0.09087
USER: genes 26 Torsion [C]-CA--CB-[CG] |==|  0.16975
USER: genes 27 Torsion [CA]-CB--CG-[CD1] |==|  0.54165
USER: genes 28 Torsion [CE1]-CZ--OH-[HH] |==|  0.41341
ROOT
ATOM      1  C   TYR F 311      36.270  52.493  -5.957  1.00 39.57 LIG 0.24  C 
ATOM      2 O    TYR F 311      36.378  51.849  -7.003  1.00 35.87 LIG-0.27  OA
ATOM      3  N   THR F 312      35.123  52.649  -5.299  1.00 39.28 LIG-0.34  N 
ATOM      4 H    THR F 312      35.065  53.066  -4.550  1.00 39.28 LIG 0.16  HD
ENDROOT
BRANCH 3 5
ATOM      5  CA  THR F 312      33.847  52.132  -5.777  1.00 41.67 LIG 0.20  C 
BRANCH 5 6
ATOM      6  C   THR F 312      32.775  53.210  -5.733  1.00 45.40 LIG 0.24  C 
ATOM      7  N   LYS F 313      31.938  53.237  -6.757  1.00 48.10 LIG-0.35  N 
ATOM      8 H    LYS F 313      32.020  52.743  -7.455  1.00 48.10 LIG 0.16  HD
ATOM      9 O    THR F 312      32.685  53.980  -4.779  1.00 48.99 LIG-0.27  OA
BRANCH 7 10
ATOM     10  CA  LYS F 313      30.785  54.125  -6.786  1.00 51.61 LIG 0.18  C 
BRANCH 10 11
ATOM     11  C   LYS F 313      29.632  53.495  -5.995  1.00 54.92 LIG 0.24  C 
ATOM     12 O    LYS F 313      28.819  54.207  -5.395  1.00 54.36 LIG-0.27  OA
ATOM     13  N   HIS F 314      29.576  52.160  -6.018  1.00 57.06 LIG-0.35  N 
ATOM     14 H    HIS F 314      30.157  51.678  -6.430  1.00 57.06 LIG 0.16  HD
BRANCH 13 15
ATOM     15  CA  HIS F 314      28.530  51.366  -5.353  1.00 57.78 LIG 0.17  C 
BRANCH 15 16
ATOM     16  CB  HIS F 314      28.876  51.116  -3.877  1.00 57.79 LIG 0.09  C 
BRANCH 16 17
ATOM     17  CG  HIS F 314      29.542  49.798  -3.624  1.00 61.61 LIG 0.06  A 
ATOM     18  CD2 HIS F 314      30.520  49.444  -2.755  1.00 62.97 LIG 0.14  A 
ATOM     19 NE2  HIS F 314      30.758  48.102  -2.936  1.00 63.36 LIG-0.25  NA
ATOM     20  CE1 HIS F 314      29.955  47.646  -3.880  1.00 61.50 LIG 0.23  A 
ATOM     21 ND1  HIS F 314      29.210  48.649  -4.314  1.00 63.00 LIG-0.24  NA
ENDBRANCH 16 17
ENDBRANCH 15 16
BRANCH 15 22
ATOM     22  C   HIS F 314      27.143  52.008  -5.476  1.00 59.91 LIG 0.22  C 
ATOM     23 O    HIS F 314      26.740  52.453  -6.557  1.00 59.00 LIG-0.29  OA
ENDBRANCH 15 22
ENDBRANCH 13 15
ENDBRANCH 10 11
BRANCH 10 24
ATOM     24  CB  LYS F 313      30.371  54.427  -8.231  1.00 49.70 LIG 0.04  C 
BRANCH 24 25
ATOM     25  CG  LYS F 313      29.641  53.272  -8.900  1.00 49.89 LIG 0.00  C 
BRANCH 25 26
ATOM     26  CD  LYS F 313      29.671  53.368 -10.417  1.00 49.58 LIG 0.03  C 
BRANCH 26 27
ATOM     27  CE  LYS F 313      30.707  52.419 -11.003  1.00 48.23 LIG 0.23  C 
BRANCH 27 28
ATOM     28  NZ  LYS F 313      31.151  52.862 -12.346  1.00 47.83 LIG-0.08  N 
ATOM     29 HZ2  LYS F 313      30.461  52.846 -12.907  1.00 47.83 LIG 0.27  HD
ATOM     30 HZ1  LYS F 313      31.788  52.316 -12.643  1.00 47.83 LIG 0.27  HD
ATOM     31 HZ3  LYS F 313      31.473  53.691 -12.294  1.00 47.83 LIG 0.27  HD
ENDBRANCH 27 28
ENDBRANCH 26 27
ENDBRANCH 25 26
ENDBRANCH 24 25
ENDBRANCH 10 24
ENDBRANCH 7 10
ENDBRANCH 5 6
BRANCH 5 32
ATOM     32  CB  THR F 312      33.346  50.981  -4.887  1.00 41.09 LIG 0.15  C 
ATOM     33  CG2 THR F 312      33.603  51.270  -3.418  1.00 40.88 LIG 0.04  C 
BRANCH 32 34
ATOM     34 OG1  THR F 312      31.941  50.808  -5.099  1.00 43.07 LIG-0.39  OA
ATOM     35 HG1  THR F 312      31.757  50.964  -5.904  1.00 43.07 LIG 0.21  HD
ENDBRANCH 32 34
ENDBRANCH 5 32
ENDBRANCH 3 5
BRANCH 1 36
ATOM     36  CA  TYR F 311      37.476  53.203  -5.336  1.00 39.31 LIG 0.18  C 
BRANCH 36 37
ATOM     37  N   TYR F 311      37.925  54.355  -6.117  1.00 40.62 LIG-0.35  N 
ATOM     38 H    TYR F 311      37.450  55.065  -6.013  1.00 40.62 LIG 0.16  HD
ATOM     39  C   GLU F 310      38.985  54.277  -6.916  1.00 41.86 LIG 0.24  C 
ATOM     40 O    GLU F 310      39.575  53.225  -7.116  1.00 41.90 LIG-0.27  OA
BRANCH 39 41
ATOM     41  CA  GLU F 310      39.435  55.556  -7.618  1.00 43.14 LIG 0.18  C 
BRANCH 41 42
ATOM     42  CB  GLU F 310      40.665  55.248  -8.476  1.00 44.06 LIG 0.04  C 
BRANCH 42 43
ATOM     43  CG  GLU F 310      41.208  56.453  -9.226  1.00 45.60 LIG 0.12  C 
BRANCH 43 44
ATOM     44  CD  GLU F 310      41.945  57.439  -8.331  1.00 46.85 LIG 0.17  C 
ATOM     45 OE2  GLU F 310      41.451  58.581  -8.195  1.00 47.09 LIG-0.65  OA
ATOM     46 OE1  GLU F 310      43.017  57.089  -7.780  1.00 45.53 LIG-0.65  OA
ENDBRANCH 43 44
ENDBRANCH 42 43
ENDBRANCH 41 42
BRANCH 41 47
ATOM     47  N   GLU F 310      39.742  56.608  -6.636  1.00 43.23 LIG-0.35  N 
ATOM     48  C   VAL F 309      40.563  56.426  -5.596  1.00 44.16 LIG 0.26  C 
ATOM     49 O    VAL F 309      41.109  55.351  -5.337  1.00 43.83 LIG-0.27  OA
ATOM     50 H    GLU F 310      39.343  57.354  -6.793  1.00 43.23 LIG 0.16  HD
BRANCH 48 51
ATOM     51  CA  VAL F 309      40.815  57.646  -4.700  1.00 44.86 LIG 0.40  C 
ATOM     52  N   VAL F 309      41.246  58.805  -5.538  1.00 44.58 LIG 0.61  N 
BRANCH 51 53
ATOM     53  CB  VAL F 309      39.554  58.010  -3.863  1.00 44.54 LIG 0.03  C 
ATOM     54  CG2 VAL F 309      38.772  56.750  -3.512  1.00 44.44 LIG 0.01  C 
ATOM     55  CG1 VAL F 309      38.652  59.015  -4.576  1.00 43.50 LIG 0.01  C 
ENDBRANCH 51 53
ENDBRANCH 48 51
ENDBRANCH 41 47
ENDBRANCH 39 41
ENDBRANCH 36 37
BRANCH 36 56
ATOM     56  CB  TYR F 311      37.109  53.654  -3.919  1.00 38.48 LIG 0.07  C 
BRANCH 56 57
ATOM     57  CG  TYR F 311      36.752  52.502  -3.005  1.00 36.48 LIG-0.06  A 
ATOM     58  CD1 TYR F 311      36.104  52.726  -1.794  1.00 35.51 LIG 0.01  A 
ATOM     59  CE1 TYR F 311      35.776  51.678  -0.951  1.00 35.35 LIG 0.04  A 
ATOM     60  CZ  TYR F 311      36.108  50.391  -1.306  1.00 34.90 LIG 0.07  A 
ATOM     61  CE2 TYR F 311      36.756  50.135  -2.499  1.00 36.46 LIG 0.04  A 
ATOM     62  CD2 TYR F 311      37.082  51.188  -3.340  1.00 36.25 LIG 0.01  A 
BRANCH 60 63
ATOM     63 OH   TYR F 311      35.791  49.357  -0.469  1.00 38.07 LIG-0.36  OA
ATOM     64 HH   TYR F 311      35.641  48.665  -0.922  1.00 38.07 LIG 0.22  HD
ENDBRANCH 60 63
ENDBRANCH 56 57
ENDBRANCH 36 56
ENDBRANCH 1 36
TORSDOF 27
ENDMDL
