MODEL 1
USER: ADFR SOLUTION from run 180
USER: SCORE 22.498182 LL:  -3.497 LR: -20.972 RR:   0.000 FEB: -13.813
USER: RMSD 3.537078
USER: SEED 179
USER: STATUS no improvement in best in 14 clusters for 5 generations
USER: GENES 26
USER: genes 0 Translation |==|  0.59199 0.67333 0.37074
USER: genes 1 Rotation |==|  0.52935 0.48318 0.49297 0.99881
USER: genes 2 Torsion [N]-CA--C-[N] |==|  0.02112
USER: genes 3 Torsion [C]-N--CA-[C] |==|  0.77775
USER: genes 4 Torsion [N]-CA--C-[N] |==|  0.59398
USER: genes 5 Torsion [C]-N--CA-[C] |==|  0.38574
USER: genes 6 Torsion [N]-CA--C-[N] |==|  0.11555
USER: genes 7 Torsion [C]-N--CA-[C] |==|  0.75431
USER: genes 8 Torsion [N]-CA--C-[N] |==|  0.84176
USER: genes 9 Torsion [C]-N--CA-[CB] |==|  0.32346
USER: genes 10 Torsion [N]-CA--CB-[CG] |==|  0.95476
USER: genes 11 Torsion [CA]-CB--CG-[CD] |==|  0.43175
USER: genes 12 Torsion [CB]-CG--CD-[OE1] |==|  0.19150
USER: genes 13 Torsion [N]-CA--C-[O] |==|  0.57863
USER: genes 14 Torsion [C]-CA--CB-[OG] |==|  0.51124
USER: genes 15 Torsion [CA]-CB--OG-[HG] |==|  0.21979
USER: genes 16 Torsion [C]-CA--N-[C] |==|  0.72344
USER: genes 17 Torsion [N]-C--CA-[N] |==|  0.17014
USER: genes 18 Torsion [C]-CA--N-[C] |==|  0.15250
USER: genes 19 Torsion [N]-C--CA-[N] |==|  0.05289
USER: genes 20 Torsion [C]-CA--CB-[CG] |==|  0.40431
USER: genes 21 Torsion [CA]-CB--CG-[CD] |==|  0.84475
USER: genes 22 Torsion [CB]-CG--CD-[OE1] |==|  0.45373
USER: genes 23 Torsion [C]-CA--CB-[CG] |==|  0.21692
USER: genes 24 Torsion [CA]-CB--CG-[CD1] |==|  0.47639
USER: genes 25 Torsion [CE1]-CZ--OH-[HH] |==|  0.53045
ROOT
ATOM      1  CA  SER B 215      -1.621  22.861  66.738  1.00 52.27 LIG 0.20  C 
ENDROOT
BRANCH 1 2
ATOM      2  C   SER B 215      -3.124  22.823  66.994  1.00 51.68 LIG 0.24  C 
ATOM      3  N   GLY B 216      -3.709  21.644  67.200  1.00 53.30 LIG-0.35  N 
ATOM      4 H    GLY B 216      -3.297  20.890  67.202  1.00 53.30 LIG 0.16  HD
ATOM      5 O    SER B 215      -3.759  23.884  66.996  1.00 50.19 LIG-0.27  OA
BRANCH 3 6
ATOM      6  CA  GLY B 216      -5.141  21.562  67.444  1.00 53.60 LIG 0.23  C 
BRANCH 6 7
ATOM      7  C   GLY B 216      -5.477  21.901  68.888  1.00 54.90 LIG 0.23  C 
ATOM      8 O    GLY B 216      -4.833  22.738  69.520  1.00 56.89 LIG-0.27  OA
ATOM      9  N   GLY B 217      -6.507  21.236  69.408  1.00 54.85 LIG-0.35  N 
ATOM     10 H    GLY B 217      -6.962  20.645  68.981  1.00 54.85 LIG 0.16  HD
BRANCH 9 11
ATOM     11  CA  GLY B 217      -6.949  21.466  70.770  1.00 55.68 LIG 0.23  C 
BRANCH 11 12
ATOM     12  C   GLY B 217      -8.456  21.497  70.914  1.00 61.00 LIG 0.23  C 
ATOM     13  N   GLY B 218      -9.145  20.586  70.230  1.00 59.47 LIG-0.35  N 
ATOM     14 H    GLY B 218      -8.790  20.033  69.675  1.00 59.47 LIG 0.16  HD
ATOM     15 O    GLY B 217      -8.997  22.341  71.634  1.00 65.89 LIG-0.27  OA
BRANCH 13 16
ATOM     16  CA  GLY B 218     -10.581  20.452  70.370  1.00 64.42 LIG 0.23  C 
BRANCH 16 17
ATOM     17  C   GLY B 218     -10.995  19.508  71.486  1.00 64.00 LIG 0.23  C 
ATOM     18 O    GLY B 218     -11.734  19.850  72.415  1.00 58.72 LIG-0.27  OA
ATOM     19  N   GLN B 219     -10.500  18.279  71.376  1.00 74.28 LIG-0.35  N 
ATOM     20 H    GLN B 219     -10.036  18.009  70.704  1.00 74.28 LIG 0.16  HD
BRANCH 19 21
ATOM     21  CA  GLN B 219     -10.710  17.267  72.404  1.00 75.25 LIG 0.16  C 
BRANCH 21 22
ATOM     22  CB  GLN B 219     -11.525  16.091  71.856  1.00 86.28 LIG 0.04  C 
BRANCH 22 23
ATOM     23  CG  GLN B 219     -12.249  16.390  70.554  1.00 94.41 LIG 0.10  C 
BRANCH 23 24
ATOM     24  CD  GLN B 219     -12.533  15.141  69.743  1.00 99.68 LIG 0.21  C 
ATOM     25 OE1  GLN B 219     -13.351  14.306  70.129  1.00 99.85 LIG-0.27  OA
ATOM     26  NE2 GLN B 219     -11.851  15.007  68.611  1.00103.54 LIG-0.37  N 
ATOM     27 22HE GLN B 219     -11.973  14.315  68.115  1.00103.54 LIG 0.16  HD
ATOM     28 21HE GLN B 219     -11.288  15.612  68.374  1.00103.54 LIG 0.16  HD
ENDBRANCH 23 24
ENDBRANCH 22 23
ENDBRANCH 21 22
BRANCH 21 29
ATOM     29  C   GLN B 219      -9.371  16.772  72.933  1.00 69.40 LIG 0.22  C 
ATOM     30 O    GLN B 219      -9.258  15.635  73.380  1.00 67.07 LIG-0.29  OA
ENDBRANCH 21 29
ENDBRANCH 19 21
ENDBRANCH 16 17
ENDBRANCH 13 16
ENDBRANCH 11 12
ENDBRANCH 9 11
ENDBRANCH 6 7
ENDBRANCH 3 6
ENDBRANCH 1 2
BRANCH 1 31
ATOM     31  CB  SER B 215      -1.352  23.723  65.497  1.00 50.74 LIG 0.20  C 
BRANCH 31 32
ATOM     32 OG   SER B 215       0.023  23.720  65.156  1.00 51.75 LIG-0.40  OA
ATOM     33 HG   SER B 215       0.209  23.009  64.749  1.00 51.75 LIG 0.21  HD
ENDBRANCH 31 32
ENDBRANCH 1 31
BRANCH 1 34
ATOM     34  N   SER B 215      -1.014  21.544  66.577  1.00 54.58 LIG-0.34  N 
ATOM     35 H    SER B 215      -1.114  21.201  65.795  1.00 54.58 LIG 0.16  HD
ATOM     36  C   TYR B 214      -0.365  20.943  67.578  1.00 60.44 LIG 0.24  C 
ATOM     37 O    TYR B 214      -0.388  21.359  68.739  1.00 63.52 LIG-0.27  OA
BRANCH 36 38
ATOM     38  CA  TYR B 214       0.419  19.688  67.196  1.00 69.60 LIG 0.18  C 
BRANCH 38 39
ATOM     39  N   TYR B 214       1.452  20.010  66.222  1.00 70.42 LIG-0.34  N 
ATOM     40 H    TYR B 214       1.410  19.538  65.504  1.00 70.42 LIG 0.16  HD
ATOM     41  C   GLU B 213       2.371  20.944  66.425  1.00 68.24 LIG 0.26  C 
ATOM     42 O    GLU B 213       2.480  21.551  67.489  1.00 68.90 LIG-0.27  OA
BRANCH 41 43
ATOM     43  CA  GLU B 213       3.319  21.228  65.257  1.00 66.05 LIG 0.40  C 
ATOM     44  N   GLU B 213       2.774  20.746  63.994  1.00 67.54 LIG 0.61  N 
BRANCH 43 45
ATOM     45  CB  GLU B 213       3.606  22.730  65.172  1.00 68.67 LIG 0.06  C 
BRANCH 45 46
ATOM     46  CG  GLU B 213       5.022  23.077  64.709  1.00 74.56 LIG 0.12  C 
BRANCH 46 47
ATOM     47  CD  GLU B 213       6.109  22.441  65.570  1.00 75.07 LIG 0.17  C 
ATOM     48 OE1  GLU B 213       7.281  22.381  65.128  1.00 71.08 LIG-0.65  OA
ATOM     49 OE2  GLU B 213       5.785  21.998  66.693  1.00 77.01 LIG-0.65  OA
ENDBRANCH 46 47
ENDBRANCH 45 46
ENDBRANCH 43 45
ENDBRANCH 41 43
ENDBRANCH 38 39
BRANCH 38 50
ATOM     50  CB  TYR B 214       1.042  19.040  68.436  1.00 76.14 LIG 0.07  C 
BRANCH 50 51
ATOM     51  CG  TYR B 214       0.067  18.233  69.273  1.00 81.97 LIG-0.06  A 
ATOM     52  CD1 TYR B 214       0.510  17.444  70.328  1.00 81.11 LIG 0.01  A 
ATOM     53  CE1 TYR B 214      -0.377  16.706  71.093  1.00 82.09 LIG 0.04  A 
ATOM     54  CZ  TYR B 214      -1.727  16.752  70.808  1.00 85.00 LIG 0.07  A 
ATOM     55  CE2 TYR B 214      -2.194  17.528  69.767  1.00 86.81 LIG 0.04  A 
ATOM     56  CD2 TYR B 214      -1.299  18.261  69.007  1.00 86.12 LIG 0.01  A 
BRANCH 54 57
ATOM     57 OH   TYR B 214      -2.613  16.020  71.566  1.00 86.93 LIG-0.36  OA
ATOM     58 HH   TYR B 214      -3.367  16.022  71.195  1.00 86.93 LIG 0.22  HD
ENDBRANCH 54 57
ENDBRANCH 50 51
ENDBRANCH 38 50
ENDBRANCH 36 38
ENDBRANCH 1 34
TORSDOF 24
ENDMDL
MODEL 2
USER: ADFR SOLUTION from run 180
USER: SCORE 21.852480 LL:  -3.708 LR: -20.011 RR:   0.000 FEB: -12.852
USER: RMSD 4.270963
USER: SEED 179
USER: STATUS no improvement in best in 14 clusters for 5 generations
USER: GENES 26
USER: genes 0 Translation |==|  0.59228 0.67169 0.37102
USER: genes 1 Rotation |==|  0.52414 0.48150 0.49138 0.99900
USER: genes 2 Torsion [N]-CA--C-[N] |==|  0.01871
USER: genes 3 Torsion [C]-N--CA-[C] |==|  0.77559
USER: genes 4 Torsion [N]-CA--C-[N] |==|  0.59583
USER: genes 5 Torsion [C]-N--CA-[C] |==|  0.38634
USER: genes 6 Torsion [N]-CA--C-[N] |==|  0.11591
USER: genes 7 Torsion [C]-N--CA-[C] |==|  0.75506
USER: genes 8 Torsion [N]-CA--C-[N] |==|  0.84209
USER: genes 9 Torsion [C]-N--CA-[CB] |==|  0.32276
USER: genes 10 Torsion [N]-CA--CB-[CG] |==|  0.95518
USER: genes 11 Torsion [CA]-CB--CG-[CD] |==|  0.43219
USER: genes 12 Torsion [CB]-CG--CD-[OE1] |==|  0.19188
USER: genes 13 Torsion [N]-CA--C-[O] |==|  0.57911
USER: genes 14 Torsion [C]-CA--CB-[OG] |==|  0.51062
USER: genes 15 Torsion [CA]-CB--OG-[HG] |==|  0.21650
USER: genes 16 Torsion [C]-CA--N-[C] |==|  0.74223
USER: genes 17 Torsion [N]-C--CA-[N] |==|  0.15473
USER: genes 18 Torsion [C]-CA--N-[C] |==|  0.12778
USER: genes 19 Torsion [N]-C--CA-[N] |==|  0.05568
USER: genes 20 Torsion [C]-CA--CB-[CG] |==|  0.39794
USER: genes 21 Torsion [CA]-CB--CG-[CD] |==|  0.87999
USER: genes 22 Torsion [CB]-CG--CD-[OE1] |==|  0.43713
USER: genes 23 Torsion [C]-CA--CB-[CG] |==|  0.69679
USER: genes 24 Torsion [CA]-CB--CG-[CD1] |==|  0.77900
USER: genes 25 Torsion [CE1]-CZ--OH-[HH] |==|  0.24947
ROOT
ATOM      1  CA  SER B 215      -1.612  22.835  66.743  1.00 52.27 LIG 0.20  C 
ENDROOT
BRANCH 1 2
ATOM      2  C   SER B 215      -3.116  22.813  66.990  1.00 51.68 LIG 0.24  C 
ATOM      3  N   GLY B 216      -3.714  21.642  67.199  1.00 53.30 LIG-0.35  N 
ATOM      4 H    GLY B 216      -3.309  20.883  67.208  1.00 53.30 LIG 0.16  HD
ATOM      5 O    SER B 215      -3.740  23.881  66.982  1.00 50.19 LIG-0.27  OA
BRANCH 3 6
ATOM      6  CA  GLY B 216      -5.148  21.575  67.436  1.00 53.60 LIG 0.23  C 
BRANCH 6 7
ATOM      7  C   GLY B 216      -5.487  21.908  68.881  1.00 54.90 LIG 0.23  C 
ATOM      8 O    GLY B 216      -4.843  22.741  69.518  1.00 56.89 LIG-0.27  OA
ATOM      9  N   GLY B 217      -6.519  21.241  69.395  1.00 54.85 LIG-0.35  N 
ATOM     10 H    GLY B 217      -6.973  20.652  68.964  1.00 54.85 LIG 0.16  HD
BRANCH 9 11
ATOM     11  CA  GLY B 217      -6.964  21.465  70.756  1.00 55.68 LIG 0.23  C 
BRANCH 11 12
ATOM     12  C   GLY B 217      -8.472  21.492  70.898  1.00 61.00 LIG 0.23  C 
ATOM     13  N   GLY B 218      -9.157  20.580  70.211  1.00 59.47 LIG-0.35  N 
ATOM     14 H    GLY B 218      -8.799  20.029  69.656  1.00 59.47 LIG 0.16  HD
ATOM     15 O    GLY B 217      -9.016  22.333  71.618  1.00 65.89 LIG-0.27  OA
BRANCH 13 16
ATOM     16  CA  GLY B 218     -10.592  20.442  70.349  1.00 64.42 LIG 0.23  C 
BRANCH 16 17
ATOM     17  C   GLY B 218     -11.006  19.500  71.466  1.00 64.00 LIG 0.23  C 
ATOM     18 O    GLY B 218     -11.750  19.842  72.391  1.00 58.72 LIG-0.27  OA
ATOM     19  N   GLN B 219     -10.506  18.273  71.362  1.00 74.28 LIG-0.35  N 
ATOM     20 H    GLN B 219     -10.038  18.003  70.693  1.00 74.28 LIG 0.16  HD
BRANCH 19 21
ATOM     21  CA  GLN B 219     -10.715  17.264  72.394  1.00 75.25 LIG 0.16  C 
BRANCH 21 22
ATOM     22  CB  GLN B 219     -11.527  16.085  71.849  1.00 86.28 LIG 0.04  C 
BRANCH 22 23
ATOM     23  CG  GLN B 219     -12.249  16.378  70.543  1.00 94.41 LIG 0.10  C 
BRANCH 23 24
ATOM     24  CD  GLN B 219     -12.533  15.125  69.739  1.00 99.68 LIG 0.21  C 
ATOM     25 OE1  GLN B 219     -13.355  14.294  70.127  1.00 99.85 LIG-0.27  OA
ATOM     26  NE2 GLN B 219     -11.848  14.981  68.611  1.00103.54 LIG-0.37  N 
ATOM     27 22HE GLN B 219     -11.970  14.287  68.119  1.00103.54 LIG 0.16  HD
ATOM     28 21HE GLN B 219     -11.281  15.583  68.373  1.00103.54 LIG 0.16  HD
ENDBRANCH 23 24
ENDBRANCH 22 23
ENDBRANCH 21 22
BRANCH 21 29
ATOM     29  C   GLN B 219      -9.375  16.772  72.925  1.00 69.40 LIG 0.22  C 
ATOM     30 O    GLN B 219      -9.260  15.636  73.373  1.00 67.07 LIG-0.29  OA
ENDBRANCH 21 29
ENDBRANCH 19 21
ENDBRANCH 16 17
ENDBRANCH 13 16
ENDBRANCH 11 12
ENDBRANCH 9 11
ENDBRANCH 6 7
ENDBRANCH 3 6
ENDBRANCH 1 2
BRANCH 1 31
ATOM     31  CB  SER B 215      -1.328  23.669  65.485  1.00 50.74 LIG 0.20  C 
BRANCH 31 32
ATOM     32 OG   SER B 215       0.050  23.653  65.156  1.00 51.75 LIG-0.40  OA
ATOM     33 HG   SER B 215       0.239  22.926  64.781  1.00 51.75 LIG 0.21  HD
ENDBRANCH 31 32
ENDBRANCH 1 31
BRANCH 1 34
ATOM     34  N   SER B 215      -1.014  21.510  66.613  1.00 54.58 LIG-0.34  N 
ATOM     35 H    SER B 215      -1.030  21.191  65.815  1.00 54.58 LIG 0.16  HD
ATOM     36  C   TYR B 214      -0.492  20.869  67.662  1.00 60.44 LIG 0.24  C 
ATOM     37 O    TYR B 214      -0.638  21.255  68.825  1.00 63.52 LIG-0.27  OA
BRANCH 36 38
ATOM     38  CA  TYR B 214       0.308  19.610  67.334  1.00 69.60 LIG 0.18  C 
BRANCH 38 39
ATOM     39  N   TYR B 214       1.372  19.914  66.388  1.00 70.42 LIG-0.34  N 
ATOM     40 H    TYR B 214       1.430  19.351  65.740  1.00 70.42 LIG 0.16  HD
ATOM     41  C   GLU B 213       2.175  20.961  66.515  1.00 68.24 LIG 0.26  C 
ATOM     42 O    GLU B 213       2.144  21.710  67.492  1.00 68.90 LIG-0.27  OA
BRANCH 41 43
ATOM     43  CA  GLU B 213       3.173  21.193  65.379  1.00 66.05 LIG 0.40  C 
ATOM     44  N   GLU B 213       2.761  20.514  64.157  1.00 67.54 LIG 0.61  N 
BRANCH 43 45
ATOM     45  CB  GLU B 213       3.331  22.695  65.123  1.00 68.67 LIG 0.06  C 
BRANCH 45 46
ATOM     46  CG  GLU B 213       4.752  23.127  64.755  1.00 74.56 LIG 0.12  C 
BRANCH 46 47
ATOM     47  CD  GLU B 213       5.822  22.464  65.617  1.00 75.07 LIG 0.17  C 
ATOM     48 OE1  GLU B 213       6.994  22.380  65.178  1.00 71.08 LIG-0.65  OA
ATOM     49 OE2  GLU B 213       5.487  22.025  66.738  1.00 77.01 LIG-0.65  OA
ENDBRANCH 46 47
ENDBRANCH 45 46
ENDBRANCH 43 45
ENDBRANCH 41 43
ENDBRANCH 38 39
BRANCH 38 50
ATOM     50  CB  TYR B 214       0.891  18.992  68.608  1.00 76.14 LIG 0.07  C 
BRANCH 50 51
ATOM     51  CG  TYR B 214       2.397  19.132  68.736  1.00 81.97 LIG-0.06  A 
ATOM     52  CD1 TYR B 214       3.257  18.284  68.048  1.00 81.11 LIG 0.01  A 
ATOM     53  CE1 TYR B 214       4.631  18.410  68.164  1.00 82.09 LIG 0.04  A 
ATOM     54  CZ  TYR B 214       5.161  19.393  68.975  1.00 85.00 LIG 0.07  A 
ATOM     55  CE2 TYR B 214       4.330  20.249  69.668  1.00 86.81 LIG 0.04  A 
ATOM     56  CD2 TYR B 214       2.958  20.114  69.547  1.00 86.12 LIG 0.01  A 
BRANCH 54 57
ATOM     57 OH   TYR B 214       6.527  19.521  69.093  1.00 86.93 LIG-0.36  OA
ATOM     58 HH   TYR B 214       6.811  20.047  68.503  1.00 86.93 LIG 0.22  HD
ENDBRANCH 54 57
ENDBRANCH 50 51
ENDBRANCH 38 50
ENDBRANCH 36 38
ENDBRANCH 1 34
TORSDOF 24
ENDMDL
MODEL 3
USER: ADFR SOLUTION from run 180
USER: SCORE 21.902345 LL:  -3.883 LR: -19.476 RR:   0.000 FEB: -12.317
USER: RMSD 2.694533
USER: SEED 179
USER: STATUS no improvement in best in 14 clusters for 5 generations
USER: GENES 26
USER: genes 0 Translation |==|  0.59307 0.67520 0.36120
USER: genes 1 Rotation |==|  0.52371 0.48749 0.49523 0.99926
USER: genes 2 Torsion [N]-CA--C-[N] |==|  0.02530
USER: genes 3 Torsion [C]-N--CA-[C] |==|  0.76934
USER: genes 4 Torsion [N]-CA--C-[N] |==|  0.57986
USER: genes 5 Torsion [C]-N--CA-[C] |==|  0.39881
USER: genes 6 Torsion [N]-CA--C-[N] |==|  0.11321
USER: genes 7 Torsion [C]-N--CA-[C] |==|  0.17215
USER: genes 8 Torsion [N]-CA--C-[N] |==|  0.64244
USER: genes 9 Torsion [C]-N--CA-[CB] |==|  0.28192
USER: genes 10 Torsion [N]-CA--CB-[CG] |==|  0.60770
USER: genes 11 Torsion [CA]-CB--CG-[CD] |==|  0.31467
USER: genes 12 Torsion [CB]-CG--CD-[OE1] |==|  0.34770
USER: genes 13 Torsion [N]-CA--C-[O] |==|  0.17895
USER: genes 14 Torsion [C]-CA--CB-[OG] |==|  0.48718
USER: genes 15 Torsion [CA]-CB--OG-[HG] |==|  0.21724
USER: genes 16 Torsion [C]-CA--N-[C] |==|  0.74404
USER: genes 17 Torsion [N]-C--CA-[N] |==|  0.15476
USER: genes 18 Torsion [C]-CA--N-[C] |==|  0.15278
USER: genes 19 Torsion [N]-C--CA-[N] |==|  0.05746
USER: genes 20 Torsion [C]-CA--CB-[CG] |==|  0.40678
USER: genes 21 Torsion [CA]-CB--CG-[CD] |==|  0.84457
USER: genes 22 Torsion [CB]-CG--CD-[OE1] |==|  0.45303
USER: genes 23 Torsion [C]-CA--CB-[CG] |==|  0.21673
USER: genes 24 Torsion [CA]-CB--CG-[CD1] |==|  0.47649
USER: genes 25 Torsion [CE1]-CZ--OH-[HH] |==|  0.53044
ROOT
ATOM      1  CA  SER B 215      -1.585  22.890  66.581  1.00 52.27 LIG 0.20  C 
ENDROOT
BRANCH 1 2
ATOM      2  C   SER B 215      -3.083  22.844  66.863  1.00 51.68 LIG 0.24  C 
ATOM      3  N   GLY B 216      -3.647  21.670  67.135  1.00 53.30 LIG-0.35  N 
ATOM      4 H    GLY B 216      -3.224  20.922  67.167  1.00 53.30 LIG 0.16  HD
ATOM      5 O    SER B 215      -3.732  23.896  66.824  1.00 50.19 LIG-0.27  OA
BRANCH 3 6
ATOM      6  CA  GLY B 216      -5.073  21.580  67.408  1.00 53.60 LIG 0.23  C 
BRANCH 6 7
ATOM      7  C   GLY B 216      -5.383  21.913  68.859  1.00 54.90 LIG 0.23  C 
ATOM      8 O    GLY B 216      -4.675  22.682  69.508  1.00 56.89 LIG-0.27  OA
ATOM      9  N   GLY B 217      -6.463  21.320  69.364  1.00 54.85 LIG-0.35  N 
ATOM     10 H    GLY B 217      -6.963  20.777  68.925  1.00 54.85 LIG 0.16  HD
BRANCH 9 11
ATOM     11  CA  GLY B 217      -6.887  21.555  70.731  1.00 55.68 LIG 0.23  C 
BRANCH 11 12
ATOM     12  C   GLY B 217      -8.392  21.590  70.895  1.00 61.00 LIG 0.23  C 
ATOM     13  N   GLY B 218      -9.093  20.690  70.208  1.00 59.47 LIG-0.35  N 
ATOM     14 H    GLY B 218      -8.748  20.143  69.642  1.00 59.47 LIG 0.16  HD
ATOM     15 O    GLY B 217      -8.920  22.427  71.632  1.00 65.89 LIG-0.27  OA
BRANCH 13 16
ATOM     16  CA  GLY B 218     -10.528  20.560  70.365  1.00 64.42 LIG 0.23  C 
BRANCH 16 17
ATOM     17  C   GLY B 218     -11.296  21.810  69.973  1.00 64.00 LIG 0.23  C 
ATOM     18 O    GLY B 218     -11.140  22.381  68.888  1.00 58.72 LIG-0.27  OA
ATOM     19  N   GLN B 219     -12.157  22.236  70.892  1.00 74.28 LIG-0.35  N 
ATOM     20 H    GLN B 219     -12.321  21.816  71.625  1.00 74.28 LIG 0.16  HD
BRANCH 19 21
ATOM     21  CA  GLN B 219     -12.909  23.475  70.731  1.00 75.25 LIG 0.16  C 
BRANCH 21 22
ATOM     22  CB  GLN B 219     -14.346  23.187  70.287  1.00 86.28 LIG 0.04  C 
BRANCH 22 23
ATOM     23  CG  GLN B 219     -14.891  24.173  69.267  1.00 94.41 LIG 0.10  C 
BRANCH 23 24
ATOM     24  CD  GLN B 219     -15.138  23.538  67.913  1.00 99.68 LIG 0.21  C 
ATOM     25 OE1  GLN B 219     -16.241  23.608  67.370  1.00 99.85 LIG-0.27  OA
ATOM     26  NE2 GLN B 219     -14.107  22.908  67.362  1.00103.54 LIG-0.37  N 
ATOM     27 22HE GLN B 219     -14.195  22.528  66.595  1.00103.54 LIG 0.16  HD
ATOM     28 21HE GLN B 219     -13.352  22.880  67.772  1.00103.54 LIG 0.16  HD
ENDBRANCH 23 24
ENDBRANCH 22 23
ENDBRANCH 21 22
BRANCH 21 29
ATOM     29  C   GLN B 219     -12.914  24.259  72.036  1.00 69.40 LIG 0.22  C 
ATOM     30 O    GLN B 219     -11.869  24.703  72.502  1.00 67.07 LIG-0.29  OA
ENDBRANCH 21 29
ENDBRANCH 19 21
ENDBRANCH 16 17
ENDBRANCH 13 16
ENDBRANCH 11 12
ENDBRANCH 9 11
ENDBRANCH 6 7
ENDBRANCH 3 6
ENDBRANCH 1 2
BRANCH 1 31
ATOM     31  CB  SER B 215      -1.344  23.727  65.316  1.00 50.74 LIG 0.20  C 
BRANCH 31 32
ATOM     32 OG   SER B 215       0.040  23.892  65.063  1.00 51.75 LIG-0.40  OA
ATOM     33 HG   SER B 215       0.348  23.192  64.718  1.00 51.75 LIG 0.21  HD
ENDBRANCH 31 32
ENDBRANCH 1 31
BRANCH 1 34
ATOM     34  N   SER B 215      -0.968  21.575  66.440  1.00 54.58 LIG-0.34  N 
ATOM     35 H    SER B 215      -0.990  21.258  65.641  1.00 54.58 LIG 0.16  HD
ATOM     36  C   TYR B 214      -0.423  20.940  67.480  1.00 60.44 LIG 0.24  C 
ATOM     37 O    TYR B 214      -0.560  21.320  68.646  1.00 63.52 LIG-0.27  OA
BRANCH 36 38
ATOM     38  CA  TYR B 214       0.392  19.693  67.138  1.00 69.60 LIG 0.18  C 
BRANCH 38 39
ATOM     39  N   TYR B 214       1.439  20.017  66.180  1.00 70.42 LIG-0.34  N 
ATOM     40 H    TYR B 214       1.420  19.531  65.469  1.00 70.42 LIG 0.16  HD
ATOM     41  C   GLU B 213       2.337  20.970  66.384  1.00 68.24 LIG 0.26  C 
ATOM     42 O    GLU B 213       2.414  21.598  67.439  1.00 68.90 LIG-0.27  OA
BRANCH 41 43
ATOM     43  CA  GLU B 213       3.304  21.250  65.231  1.00 66.05 LIG 0.40  C 
ATOM     44  N   GLU B 213       2.775  20.770  63.960  1.00 67.54 LIG 0.61  N 
BRANCH 43 45
ATOM     45  CB  GLU B 213       3.598  22.751  65.151  1.00 68.67 LIG 0.06  C 
BRANCH 45 46
ATOM     46  CG  GLU B 213       5.015  23.093  64.688  1.00 74.56 LIG 0.12  C 
BRANCH 46 47
ATOM     47  CD  GLU B 213       6.099  22.450  65.548  1.00 75.07 LIG 0.17  C 
ATOM     48 OE1  GLU B 213       7.270  22.381  65.104  1.00 71.08 LIG-0.65  OA
ATOM     49 OE2  GLU B 213       5.775  22.010  66.672  1.00 77.01 LIG-0.65  OA
ENDBRANCH 46 47
ENDBRANCH 45 46
ENDBRANCH 43 45
ENDBRANCH 41 43
ENDBRANCH 38 39
BRANCH 38 50
ATOM     50  CB  TYR B 214       1.001  19.081  68.403  1.00 76.14 LIG 0.07  C 
BRANCH 50 51
ATOM     51  CG  TYR B 214       0.023  18.273  69.236  1.00 81.97 LIG-0.06  A 
ATOM     52  CD1 TYR B 214       0.459  17.512  70.315  1.00 81.11 LIG 0.01  A 
ATOM     53  CE1 TYR B 214      -0.431  16.774  71.077  1.00 82.09 LIG 0.04  A 
ATOM     54  CZ  TYR B 214      -1.775  16.789  70.764  1.00 85.00 LIG 0.07  A 
ATOM     55  CE2 TYR B 214      -2.234  17.536  69.698  1.00 86.81 LIG 0.04  A 
ATOM     56  CD2 TYR B 214      -1.337  18.270  68.942  1.00 86.12 LIG 0.01  A 
BRANCH 54 57
ATOM     57 OH   TYR B 214      -2.663  16.056  71.518  1.00 86.93 LIG-0.36  OA
ATOM     58 HH   TYR B 214      -3.409  16.036  71.132  1.00 86.93 LIG 0.22  HD
ENDBRANCH 54 57
ENDBRANCH 50 51
ENDBRANCH 38 50
ENDBRANCH 36 38
ENDBRANCH 1 34
TORSDOF 24
ENDMDL
MODEL 4
USER: ADFR SOLUTION from run 197
USER: SCORE 21.923892 LL:  -3.887 LR: -19.477 RR:   0.000 FEB: -12.318
USER: RMSD 14.137395
USER: SEED 196
USER: STATUS searching
USER: GENES 26
USER: genes 0 Translation |==|  0.40369 0.64692 0.59274
USER: genes 1 Rotation |==|  0.37332 0.01896 0.51625 0.54779
USER: genes 2 Torsion [N]-CA--C-[N] |==|  0.31482
USER: genes 3 Torsion [C]-N--CA-[C] |==|  0.72339
USER: genes 4 Torsion [N]-CA--C-[N] |==|  0.54639
USER: genes 5 Torsion [C]-N--CA-[C] |==|  0.76028
USER: genes 6 Torsion [N]-CA--C-[N] |==|  0.67171
USER: genes 7 Torsion [C]-N--CA-[C] |==|  0.28228
USER: genes 8 Torsion [N]-CA--C-[N] |==|  0.18221
USER: genes 9 Torsion [C]-N--CA-[CB] |==|  0.51078
USER: genes 10 Torsion [N]-CA--CB-[CG] |==|  0.71785
USER: genes 11 Torsion [CA]-CB--CG-[CD] |==|  0.41046
USER: genes 12 Torsion [CB]-CG--CD-[OE1] |==|  0.47015
USER: genes 13 Torsion [N]-CA--C-[O] |==|  0.30835
USER: genes 14 Torsion [C]-CA--CB-[OG] |==|  0.73134
USER: genes 15 Torsion [CA]-CB--OG-[HG] |==|  0.15602
USER: genes 16 Torsion [C]-CA--N-[C] |==|  0.69241
USER: genes 17 Torsion [N]-C--CA-[N] |==|  0.97222
USER: genes 18 Torsion [C]-CA--N-[C] |==|  0.80375
USER: genes 19 Torsion [N]-C--CA-[N] |==|  0.73104
USER: genes 20 Torsion [C]-CA--CB-[CG] |==|  0.44101
USER: genes 21 Torsion [CA]-CB--CG-[CD] |==|  0.99644
USER: genes 22 Torsion [CB]-CG--CD-[OE1] |==|  0.27957
USER: genes 23 Torsion [C]-CA--CB-[CG] |==|  0.23120
USER: genes 24 Torsion [CA]-CB--CG-[CD1] |==|  0.22419
USER: genes 25 Torsion [CE1]-CZ--OH-[HH] |==|  0.33451
ROOT
ATOM      1  CA  SER B 215      -7.976  22.445  70.401  1.00 52.27 LIG 0.20  C 
ENDROOT
BRANCH 1 2
ATOM      2  C   SER B 215      -6.806  21.670  69.805  1.00 51.68 LIG 0.24  C 
ATOM      3  N   GLY B 216      -6.450  21.918  68.545  1.00 53.30 LIG-0.35  N 
ATOM      4 H    GLY B 216      -6.835  22.492  68.034  1.00 53.30 LIG 0.16  HD
ATOM      5 O    SER B 215      -6.226  20.831  70.503  1.00 50.19 LIG-0.27  OA
BRANCH 3 6
ATOM      6  CA  GLY B 216      -5.341  21.200  67.936  1.00 53.60 LIG 0.23  C 
BRANCH 6 7
ATOM      7  C   GLY B 216      -4.069  22.032  67.947  1.00 54.90 LIG 0.23  C 
ATOM      8 O    GLY B 216      -3.949  23.016  68.676  1.00 56.89 LIG-0.27  OA
ATOM      9  N   GLY B 217      -3.109  21.621  67.121  1.00 54.85 LIG-0.35  N 
ATOM     10 H    GLY B 217      -3.181  20.939  66.602  1.00 54.85 LIG 0.16  HD
BRANCH 9 11
ATOM     11  CA  GLY B 217      -1.836  22.310  67.034  1.00 55.68 LIG 0.23  C 
BRANCH 11 12
ATOM     12  C   GLY B 217      -1.846  23.470  66.061  1.00 61.00 LIG 0.23  C 
ATOM     13  N   GLY B 218      -1.016  23.391  65.023  1.00 59.47 LIG-0.35  N 
ATOM     14 H    GLY B 218      -0.444  22.759  64.913  1.00 59.47 LIG 0.16  HD
ATOM     15 O    GLY B 217      -2.594  24.433  66.246  1.00 65.89 LIG-0.27  OA
BRANCH 13 16
ATOM     16  CA  GLY B 218      -1.013  24.389  63.972  1.00 64.42 LIG 0.23  C 
BRANCH 16 17
ATOM     17  C   GLY B 218       0.123  25.390  64.091  1.00 64.00 LIG 0.23  C 
ATOM     18 O    GLY B 218      -0.060  26.589  64.325  1.00 58.72 LIG-0.27  OA
ATOM     19  N   GLN B 219       1.335  24.866  63.928  1.00 74.28 LIG-0.35  N 
ATOM     20 H    GLN B 219       1.482  24.025  63.826  1.00 74.28 LIG 0.16  HD
BRANCH 19 21
ATOM     21  CA  GLN B 219       2.536  25.691  63.910  1.00 75.25 LIG 0.16  C 
BRANCH 21 22
ATOM     22  CB  GLN B 219       3.777  24.842  63.612  1.00 86.28 LIG 0.04  C 
BRANCH 22 23
ATOM     23  CG  GLN B 219       4.610  24.507  64.838  1.00 94.41 LIG 0.10  C 
BRANCH 23 24
ATOM     24  CD  GLN B 219       5.289  23.156  64.732  1.00 99.68 LIG 0.21  C 
ATOM     25 OE1  GLN B 219       6.151  22.814  65.541  1.00 99.85 LIG-0.27  OA
ATOM     26  NE2 GLN B 219       4.902  22.381  63.726  1.00103.54 LIG-0.37  N 
ATOM     27 22HE GLN B 219       5.258  21.605  63.619  1.00103.54 LIG 0.16  HD
ATOM     28 21HE GLN B 219       4.297  22.655  63.180  1.00103.54 LIG 0.16  HD
ENDBRANCH 23 24
ENDBRANCH 22 23
ENDBRANCH 21 22
BRANCH 21 29
ATOM     29  C   GLN B 219       2.399  26.795  62.870  1.00 69.40 LIG 0.22  C 
ATOM     30 O    GLN B 219       2.292  27.968  63.215  1.00 67.07 LIG-0.29  OA
ENDBRANCH 21 29
ENDBRANCH 19 21
ENDBRANCH 16 17
ENDBRANCH 13 16
ENDBRANCH 11 12
ENDBRANCH 9 11
ENDBRANCH 6 7
ENDBRANCH 3 6
ENDBRANCH 1 2
BRANCH 1 31
ATOM     31  CB  SER B 215      -7.498  23.166  71.670  1.00 50.74 LIG 0.20  C 
BRANCH 31 32
ATOM     32 OG   SER B 215      -7.806  22.418  72.834  1.00 51.75 LIG-0.40  OA
ATOM     33 HG   SER B 215      -7.472  21.650  72.770  1.00 51.75 LIG 0.21  HD
ENDBRANCH 31 32
ENDBRANCH 1 31
BRANCH 1 34
ATOM     34  N   SER B 215      -9.142  21.619  70.701  1.00 54.58 LIG-0.34  N 
ATOM     35 H    SER B 215      -9.029  21.071  71.353  1.00 54.58 LIG 0.16  HD
ATOM     36  C   TYR B 214     -10.276  21.727  70.004  1.00 60.44 LIG 0.24  C 
ATOM     37 O    TYR B 214     -10.364  22.381  68.961  1.00 63.52 LIG-0.27  OA
BRANCH 36 38
ATOM     38  CA  TYR B 214     -11.478  20.979  70.580  1.00 69.60 LIG 0.18  C 
BRANCH 38 39
ATOM     39  N   TYR B 214     -11.059  20.104  71.666  1.00 70.42 LIG-0.34  N 
ATOM     40 H    TYR B 214     -11.316  20.369  72.443  1.00 70.42 LIG 0.16  HD
ATOM     41  C   GLU B 213     -10.348  19.002  71.473  1.00 68.24 LIG 0.26  C 
ATOM     42 O    GLU B 213      -9.908  18.677  70.370  1.00 68.90 LIG-0.27  OA
BRANCH 41 43
ATOM     43  CA  GLU B 213     -10.081  18.141  72.710  1.00 66.05 LIG 0.40  C 
ATOM     44  N   GLU B 213      -8.772  18.424  73.286  1.00 67.54 LIG 0.61  N 
BRANCH 43 45
ATOM     45  CB  GLU B 213     -11.180  18.369  73.751  1.00 68.67 LIG 0.06  C 
BRANCH 45 46
ATOM     46  CG  GLU B 213     -11.324  17.240  74.774  1.00 74.56 LIG 0.12  C 
BRANCH 46 47
ATOM     47  CD  GLU B 213     -10.356  16.085  74.535  1.00 75.07 LIG 0.17  C 
ATOM     48 OE1  GLU B 213      -9.316  16.006  75.231  1.00 71.08 LIG-0.65  OA
ATOM     49 OE2  GLU B 213     -10.639  15.256  73.644  1.00 77.01 LIG-0.65  OA
ENDBRANCH 46 47
ENDBRANCH 45 46
ENDBRANCH 43 45
ENDBRANCH 41 43
ENDBRANCH 38 39
BRANCH 38 50
ATOM     50  CB  TYR B 214     -12.543  21.963  71.072  1.00 76.14 LIG 0.07  C 
BRANCH 50 51
ATOM     51  CG  TYR B 214     -13.469  22.474  69.984  1.00 81.97 LIG-0.06  A 
ATOM     52  CD1 TYR B 214     -14.546  21.713  69.544  1.00 81.11 LIG 0.01  A 
ATOM     53  CE1 TYR B 214     -15.392  22.178  68.551  1.00 82.09 LIG 0.04  A 
ATOM     54  CZ  TYR B 214     -15.167  23.416  67.985  1.00 85.00 LIG 0.07  A 
ATOM     55  CE2 TYR B 214     -14.106  24.192  68.404  1.00 86.81 LIG 0.04  A 
ATOM     56  CD2 TYR B 214     -13.265  23.719  69.397  1.00 86.12 LIG 0.01  A 
BRANCH 54 57
ATOM     57 OH   TYR B 214     -16.006  23.881  66.997  1.00 86.93 LIG-0.36  OA
ATOM     58 HH   TYR B 214     -16.359  24.601  67.246  1.00 86.93 LIG 0.22  HD
ENDBRANCH 54 57
ENDBRANCH 50 51
ENDBRANCH 38 50
ENDBRANCH 36 38
ENDBRANCH 1 34
TORSDOF 24
ENDMDL
MODEL 5
USER: ADFR SOLUTION from run 137
USER: SCORE 20.559467 LL:  -4.106 LR: -19.005 RR:   0.000 FEB: -11.845
USER: RMSD 5.500187
USER: SEED 136
USER: STATUS searching
USER: GENES 26
USER: genes 0 Translation |==|  0.59738 0.68978 0.34597
USER: genes 1 Rotation |==|  0.44194 0.48095 0.52112 0.99580
USER: genes 2 Torsion [N]-CA--C-[N] |==|  0.96548
USER: genes 3 Torsion [C]-N--CA-[C] |==|  0.77938
USER: genes 4 Torsion [N]-CA--C-[N] |==|  0.59538
USER: genes 5 Torsion [C]-N--CA-[C] |==|  0.37736
USER: genes 6 Torsion [N]-CA--C-[N] |==|  0.16542
USER: genes 7 Torsion [C]-N--CA-[C] |==|  0.71278
USER: genes 8 Torsion [N]-CA--C-[N] |==|  0.77866
USER: genes 9 Torsion [C]-N--CA-[CB] |==|  0.39104
USER: genes 10 Torsion [N]-CA--CB-[CG] |==|  0.94534
USER: genes 11 Torsion [CA]-CB--CG-[CD] |==|  0.42243
USER: genes 12 Torsion [CB]-CG--CD-[OE1] |==|  0.20025
USER: genes 13 Torsion [N]-CA--C-[O] |==|  0.56248
USER: genes 14 Torsion [C]-CA--CB-[OG] |==|  0.46835
USER: genes 15 Torsion [CA]-CB--OG-[HG] |==|  0.27405
USER: genes 16 Torsion [C]-CA--N-[C] |==|  0.71919
USER: genes 17 Torsion [N]-C--CA-[N] |==|  0.75885
USER: genes 18 Torsion [C]-CA--N-[C] |==|  0.71667
USER: genes 19 Torsion [N]-C--CA-[N] |==|  0.51182
USER: genes 20 Torsion [C]-CA--CB-[CG] |==|  0.91776
USER: genes 21 Torsion [CA]-CB--CG-[CD] |==|  0.85902
USER: genes 22 Torsion [CB]-CG--CD-[OE1] |==|  0.39535
USER: genes 23 Torsion [C]-CA--CB-[CG] |==|  0.25390
USER: genes 24 Torsion [CA]-CB--CG-[CD1] |==|  0.66355
USER: genes 25 Torsion [CE1]-CZ--OH-[HH] |==|  0.97050
ROOT
ATOM      1  CA  SER B 215      -1.439  23.120  66.330  1.00 52.27 LIG 0.20  C 
ENDROOT
BRANCH 1 2
ATOM      2  C   SER B 215      -2.938  23.022  66.593  1.00 51.68 LIG 0.24  C 
ATOM      3  N   GLY B 216      -3.473  21.823  66.813  1.00 53.30 LIG-0.35  N 
ATOM      4 H    GLY B 216      -3.030  21.086  66.820  1.00 53.30 LIG 0.16  HD
ATOM      5 O    SER B 215      -3.616  24.057  66.587  1.00 50.19 LIG-0.27  OA
BRANCH 3 6
ATOM      6  CA  GLY B 216      -4.899  21.684  67.065  1.00 53.60 LIG 0.23  C 
BRANCH 6 7
ATOM      7  C   GLY B 216      -5.244  22.037  68.503  1.00 54.90 LIG 0.23  C 
ATOM      8 O    GLY B 216      -4.641  22.920  69.113  1.00 56.89 LIG-0.27  OA
ATOM      9  N   GLY B 217      -6.236  21.331  69.044  1.00 54.85 LIG-0.35  N 
ATOM     10 H    GLY B 217      -6.662  20.708  68.633  1.00 54.85 LIG 0.16  HD
BRANCH 9 11
ATOM     11  CA  GLY B 217      -6.682  21.568  70.403  1.00 55.68 LIG 0.23  C 
BRANCH 11 12
ATOM     12  C   GLY B 217      -8.190  21.597  70.543  1.00 61.00 LIG 0.23  C 
ATOM     13  N   GLY B 218      -8.848  20.497  70.184  1.00 59.47 LIG-0.35  N 
ATOM     14 H    GLY B 218      -8.475  19.810  69.826  1.00 59.47 LIG 0.16  HD
ATOM     15 O    GLY B 217      -8.758  22.606  70.968  1.00 65.89 LIG-0.27  OA
BRANCH 13 16
ATOM     16  CA  GLY B 218     -10.280  20.370  70.371  1.00 64.42 LIG 0.23  C 
BRANCH 16 17
ATOM     17  C   GLY B 218     -10.661  19.494  71.552  1.00 64.00 LIG 0.23  C 
ATOM     18 O    GLY B 218     -11.007  19.954  72.644  1.00 58.72 LIG-0.27  OA
ATOM     19  N   GLN B 219     -10.597  18.188  71.308  1.00 74.28 LIG-0.35  N 
ATOM     20 H    GLN B 219     -10.417  17.854  70.536  1.00 74.28 LIG 0.16  HD
BRANCH 19 21
ATOM     21  CA  GLN B 219     -10.831  17.196  72.350  1.00 75.25 LIG 0.16  C 
BRANCH 21 22
ATOM     22  CB  GLN B 219     -11.626  16.007  71.803  1.00 86.28 LIG 0.04  C 
BRANCH 22 23
ATOM     23  CG  GLN B 219     -12.382  16.302  70.519  1.00 94.41 LIG 0.10  C 
BRANCH 23 24
ATOM     24  CD  GLN B 219     -12.580  15.069  69.660  1.00 99.68 LIG 0.21  C 
ATOM     25 OE1  GLN B 219     -13.373  14.186  69.988  1.00 99.85 LIG-0.27  OA
ATOM     26  NE2 GLN B 219     -11.851  15.000  68.551  1.00103.54 LIG-0.37  N 
ATOM     27 22HE GLN B 219     -11.923  14.320  68.030  1.00103.54 LIG 0.16  HD
ATOM     28 21HE GLN B 219     -11.307  15.637  68.355  1.00103.54 LIG 0.16  HD
ENDBRANCH 23 24
ENDBRANCH 22 23
ENDBRANCH 21 22
BRANCH 21 29
ATOM     29  C   GLN B 219      -9.505  16.716  72.926  1.00 69.40 LIG 0.22  C 
ATOM     30 O    GLN B 219      -9.427  15.631  73.493  1.00 67.07 LIG-0.29  OA
ENDBRANCH 21 29
ENDBRANCH 19 21
ENDBRANCH 16 17
ENDBRANCH 13 16
ENDBRANCH 11 12
ENDBRANCH 9 11
ENDBRANCH 6 7
ENDBRANCH 3 6
ENDBRANCH 1 2
BRANCH 1 31
ATOM     31  CB  SER B 215      -1.219  23.523  64.864  1.00 50.74 LIG 0.20  C 
BRANCH 31 32
ATOM     32 OG   SER B 215       0.131  23.881  64.626  1.00 51.75 LIG-0.40  OA
ATOM     33 HG   SER B 215       0.538  23.230  64.286  1.00 51.75 LIG 0.21  HD
ENDBRANCH 31 32
ENDBRANCH 1 31
BRANCH 1 34
ATOM     34  N   SER B 215      -0.704  21.896  66.631  1.00 54.58 LIG-0.34  N 
ATOM     35 H    SER B 215      -0.765  21.288  66.026  1.00 54.58 LIG 0.16  HD
ATOM     36  C   TYR B 214      -0.004  21.758  67.760  1.00 60.44 LIG 0.24  C 
ATOM     37 O    TYR B 214      -0.074  22.558  68.696  1.00 63.52 LIG-0.27  OA
BRANCH 36 38
ATOM     38  CA  TYR B 214       0.902  20.530  67.828  1.00 69.60 LIG 0.18  C 
BRANCH 38 39
ATOM     39  N   TYR B 214       0.163  19.378  68.324  1.00 70.42 LIG-0.34  N 
ATOM     40 H    TYR B 214      -0.345  19.012  67.734  1.00 70.42 LIG 0.16  HD
ATOM     41  C   GLU B 213       0.263  18.937  69.570  1.00 68.24 LIG 0.26  C 
ATOM     42 O    GLU B 213       0.921  19.519  70.432  1.00 68.90 LIG-0.27  OA
BRANCH 41 43
ATOM     43  CA  GLU B 213      -0.503  17.653  69.900  1.00 66.05 LIG 0.40  C 
ATOM     44  N   GLU B 213      -0.402  17.318  71.315  1.00 67.54 LIG 0.61  N 
BRANCH 43 45
ATOM     45  CB  GLU B 213      -1.972  17.804  69.494  1.00 68.67 LIG 0.06  C 
BRANCH 45 46
ATOM     46  CG  GLU B 213      -2.500  19.239  69.558  1.00 74.56 LIG 0.12  C 
BRANCH 46 47
ATOM     47  CD  GLU B 213      -2.213  19.926  70.890  1.00 75.07 LIG 0.17  C 
ATOM     48 OE1  GLU B 213      -1.912  21.143  70.897  1.00 71.08 LIG-0.65  OA
ATOM     49 OE2  GLU B 213      -2.288  19.242  71.933  1.00 77.01 LIG-0.65  OA
ENDBRANCH 46 47
ENDBRANCH 45 46
ENDBRANCH 43 45
ENDBRANCH 41 43
ENDBRANCH 38 39
BRANCH 38 50
ATOM     50  CB  TYR B 214       1.502  20.223  66.452  1.00 76.14 LIG 0.07  C 
BRANCH 50 51
ATOM     51  CG  TYR B 214       2.843  20.885  66.196  1.00 81.97 LIG-0.06  A 
ATOM     52  CD1 TYR B 214       3.020  21.755  65.126  1.00 81.11 LIG 0.01  A 
ATOM     53  CE1 TYR B 214       4.243  22.359  64.890  1.00 82.09 LIG 0.04  A 
ATOM     54  CZ  TYR B 214       5.308  22.097  65.728  1.00 85.00 LIG 0.07  A 
ATOM     55  CE2 TYR B 214       5.160  21.239  66.797  1.00 86.81 LIG 0.04  A 
ATOM     56  CD2 TYR B 214       3.933  20.638  67.024  1.00 86.12 LIG 0.01  A 
BRANCH 54 57
ATOM     57 OH   TYR B 214       6.526  22.696  65.495  1.00 86.93 LIG-0.36  OA
ATOM     58 HH   TYR B 214       6.516  23.070  64.743  1.00 86.93 LIG 0.22  HD
ENDBRANCH 54 57
ENDBRANCH 50 51
ENDBRANCH 38 50
ENDBRANCH 36 38
ENDBRANCH 1 34
TORSDOF 24
ENDMDL
