MODEL 1
USER: ADFR SOLUTION from run 140
USER: SCORE 20.469240 LL:  -4.177 LR: -17.071 RR:   0.000 FEB: -11.105
USER: RMSD 9.776613
USER: SEED 139
USER: STATUS no improvement in best in 4 clusters for 5 generations
USER: GENES 22
USER: genes 0 Translation |==|  0.41080 0.47081 0.57159
USER: genes 1 Rotation |==|  0.27376 0.23534 0.85254 0.56698
USER: genes 2 Torsion [N]-CA--C-[N] |==|  0.22073
USER: genes 3 Torsion [C]-N--CA-[CB] |==|  0.15519
USER: genes 4 Torsion [N]-CA--CB-[CG] |==|  0.65855
USER: genes 5 Torsion [CA]-CB--CG-[CD] |==|  0.32159
USER: genes 6 Torsion [CB]-CG--CD-[OE1] |==|  0.72186
USER: genes 7 Torsion [N]-CA--C-[N] |==|  0.13333
USER: genes 8 Torsion [C]-N--CA-[C] |==|  0.76767
USER: genes 9 Torsion [N]-CA--C-[O] |==|  0.42187
USER: genes 10 Torsion [N]-CA--CB-[CG] |==|  0.74447
USER: genes 11 Torsion [CA]-CB--CG-[CD1] |==|  0.06931
USER: genes 12 Torsion [C]-CA--CB-[CG] |==|  0.52265
USER: genes 13 Torsion [CA]-CB--CG-[CD1] |==|  0.72674
USER: genes 14 Torsion [CE1]-CZ--OH-[HH] |==|  0.19163
USER: genes 15 Torsion [C]-CA--N-[C] |==|  0.75780
USER: genes 16 Torsion [N]-C--CA-[N] |==|  0.19317
USER: genes 17 Torsion [C]-CA--N-[C] |==|  0.63553
USER: genes 18 Torsion [N]-C--CA-[N] |==|  0.15645
USER: genes 19 Torsion [C]-CA--CB-[CG] |==|  0.24486
USER: genes 20 Torsion [CA]-CB--CG-[CD2] |==|  0.93013
USER: genes 21 Torsion [C]-CA--CB-[CG2] |==|  0.56258
ROOT
ATOM      1  CA  TYR P   8      80.542  -2.824  62.029  1.00 57.99 LIG 0.18  C 
ENDROOT
BRANCH 1 2
ATOM      2  C   TYR P   8      80.915  -3.889  61.008  1.00 56.68 LIG 0.24  C 
ATOM      3  N   GLN P   9      81.904  -3.588  60.172  1.00 57.67 LIG-0.35  N 
ATOM      4 H    GLN P   9      82.290  -2.820  60.144  1.00 57.67 LIG 0.16  HD
ATOM      5 O    TYR P   8      80.312  -4.967  60.985  1.00 54.26 LIG-0.27  OA
BRANCH 3 6
ATOM      6  CA  GLN P   9      82.425  -4.555  59.215  1.00 54.86 LIG 0.18  C 
BRANCH 6 7
ATOM      7  CB  GLN P   9      81.313  -5.097  58.321  1.00 52.41 LIG 0.04  C 
BRANCH 7 8
ATOM      8  CG  GLN P   9      81.173  -6.608  58.363  1.00 53.63 LIG 0.10  C 
BRANCH 8 9
ATOM      9  CD  GLN P   9      79.843  -7.045  58.936  1.00 56.56 LIG 0.21  C 
ATOM     10 OE1  GLN P   9      79.755  -7.417  60.106  1.00 59.67 LIG-0.27  OA
ATOM     11  NE2 GLN P   9      78.799  -7.004  58.115  1.00 58.55 LIG-0.37  N 
ATOM     12 22HE GLN P   9      78.022  -7.244  58.395  1.00 58.55 LIG 0.16  HD
ATOM     13 21HE GLN P   9      78.900  -6.739  57.304  1.00 58.55 LIG 0.16  HD
ENDBRANCH 8 9
ENDBRANCH 7 8
ENDBRANCH 6 7
BRANCH 6 14
ATOM     14  C   GLN P   9      83.508  -3.885  58.379  1.00 54.72 LIG 0.24  C 
ATOM     15 O    GLN P   9      83.495  -3.982  57.146  1.00 59.60 LIG-0.27  OA
ATOM     16  N   PHE P  10      84.432  -3.200  59.043  1.00 49.02 LIG-0.34  N 
ATOM     17 H    PHE P  10      84.429  -3.081  59.895  1.00 49.02 LIG 0.16  HD
BRANCH 16 18
ATOM     18  CA  PHE P  10      85.552  -2.583  58.347  1.00 50.33 LIG 0.19  C 
BRANCH 18 19
ATOM     19  C   PHE P  10      86.682  -3.579  58.110  1.00 49.91 LIG 0.20  C 
ATOM     20 O    PHE P  10      87.441  -3.443  57.149  1.00 45.93 LIG-0.65  OA
ATOM     21 OXT  PHE P  10      86.849  -4.538  58.866  1.00 46.36 LIG-0.65  OA
ENDBRANCH 18 19
BRANCH 18 22
ATOM     22  CB  PHE P  10      86.067  -1.364  59.118  1.00 51.88 LIG 0.07  C 
BRANCH 22 23
ATOM     23  CG  PHE P  10      85.437  -0.059  58.707  1.00 51.17 LIG-0.06  A 
ATOM     24  CD1 PHE P  10      84.179  -0.034  58.129  1.00 49.53 LIG 0.01  A 
ATOM     25  CE1 PHE P  10      83.606   1.159  57.738  1.00 54.45 LIG 0.00  A 
ATOM     26  CZ  PHE P  10      84.295   2.344  57.907  1.00 54.40 LIG 0.00  A 
ATOM     27  CE2 PHE P  10      85.550   2.333  58.475  1.00 52.97 LIG 0.00  A 
ATOM     28  CD2 PHE P  10      86.121   1.136  58.865  1.00 50.02 LIG 0.01  A 
ENDBRANCH 22 23
ENDBRANCH 18 22
ENDBRANCH 16 18
ENDBRANCH 6 14
ENDBRANCH 3 6
ENDBRANCH 1 2
BRANCH 1 29
ATOM     29  CB  TYR P   8      79.814  -3.463  63.210  1.00 54.61 LIG 0.07  C 
BRANCH 29 30
ATOM     30  CG  TYR P   8      79.226  -2.481  64.193  1.00 66.64 LIG-0.06  A 
ATOM     31  CD1 TYR P   8      79.896  -2.160  65.367  1.00 68.29 LIG 0.01  A 
ATOM     32  CE1 TYR P   8      79.360  -1.267  66.272  1.00 71.89 LIG 0.04  A 
ATOM     33  CZ  TYR P   8      78.137  -0.686  66.010  1.00 71.50 LIG 0.07  A 
ATOM     34  CE2 TYR P   8      77.451  -0.991  64.855  1.00 69.11 LIG 0.04  A 
ATOM     35  CD2 TYR P   8      77.994  -1.886  63.957  1.00 65.21 LIG 0.01  A 
BRANCH 33 36
ATOM     36 OH   TYR P   8      77.600   0.205  66.910  1.00 83.55 LIG-0.36  OA
ATOM     37 HH   TYR P   8      78.056   0.910  66.913  1.00 83.55 LIG 0.22  HD
ENDBRANCH 33 36
ENDBRANCH 29 30
ENDBRANCH 1 29
BRANCH 1 38
ATOM     38  N   TYR P   8      79.709  -1.823  61.377  1.00 59.31 LIG-0.35  N 
ATOM     39  C   VAL P   7      80.212  -0.773  60.733  1.00 65.10 LIG 0.24  C 
ATOM     40 O    VAL P   7      81.424  -0.522  60.696  1.00 66.40 LIG-0.27  OA
ATOM     41 H    TYR P   8      78.865  -1.974  61.447  1.00 59.31 LIG 0.16  HD
BRANCH 39 42
ATOM     42  CA  VAL P   7      79.209   0.132  60.031  1.00 68.90 LIG 0.18  C 
BRANCH 42 43
ATOM     43  N   VAL P   7      78.428   0.840  61.037  1.00 69.26 LIG-0.34  N 
ATOM     44  C   LEU P   6      77.100   0.907  61.005  1.00 74.59 LIG 0.26  C 
ATOM     45 O    LEU P   6      76.425   0.341  60.141  1.00 73.78 LIG-0.27  OA
ATOM     46 H    VAL P   7      78.904   1.208  61.651  1.00 69.26 LIG 0.16  HD
BRANCH 44 47
ATOM     47  CA  LEU P   6      76.451   1.719  62.129  1.00 78.06 LIG 0.40  C 
ATOM     48  N   LEU P   6      76.981   3.077  62.152  1.00 74.40 LIG 0.61  N 
BRANCH 47 49
ATOM     49  CB  LEU P   6      74.924   1.744  61.988  1.00 78.52 LIG 0.06  C 
BRANCH 49 50
ATOM     50  CG  LEU P   6      74.055   0.649  62.615  1.00 77.43 LIG-0.02  C 
ATOM     51  CD2 LEU P   6      74.818  -0.658  62.798  1.00 73.93 LIG 0.01  C 
ATOM     52  CD1 LEU P   6      72.831   0.458  61.745  1.00 75.78 LIG 0.01  C 
ENDBRANCH 49 50
ENDBRANCH 47 49
ENDBRANCH 44 47
ENDBRANCH 42 43
BRANCH 42 53
ATOM     53  CB  VAL P   7      79.918   1.118  59.087  1.00 67.45 LIG 0.01  C 
ATOM     54  CG2 VAL P   7      79.038   2.328  58.833  1.00 67.18 LIG 0.01  C 
ATOM     55  CG1 VAL P   7      80.271   0.438  57.779  1.00 63.58 LIG 0.01  C 
ENDBRANCH 42 53
ENDBRANCH 39 42
ENDBRANCH 1 38
TORSDOF 20
ENDMDL
MODEL 2
USER: ADFR SOLUTION from run 28
USER: SCORE 19.101199 LL:  -4.427 LR: -16.890 RR:   0.000 FEB: -10.924
USER: RMSD 5.311774
USER: SEED 27
USER: STATUS no improvement in best in 14 clusters for 5 generations
USER: GENES 22
USER: genes 0 Translation |==|  0.42349 0.43738 0.53842
USER: genes 1 Rotation |==|  0.35103 0.64254 0.44187 0.95179
USER: genes 2 Torsion [N]-CA--C-[N] |==|  0.27306
USER: genes 3 Torsion [C]-N--CA-[CB] |==|  0.37466
USER: genes 4 Torsion [N]-CA--CB-[CG] |==|  0.13624
USER: genes 5 Torsion [CA]-CB--CG-[CD] |==|  0.29636
USER: genes 6 Torsion [CB]-CG--CD-[OE1] |==|  0.91274
USER: genes 7 Torsion [N]-CA--C-[N] |==|  0.33463
USER: genes 8 Torsion [C]-N--CA-[C] |==|  0.54922
USER: genes 9 Torsion [N]-CA--C-[O] |==|  0.59671
USER: genes 10 Torsion [N]-CA--CB-[CG] |==|  0.62878
USER: genes 11 Torsion [CA]-CB--CG-[CD1] |==|  0.42843
USER: genes 12 Torsion [C]-CA--CB-[CG] |==|  0.12621
USER: genes 13 Torsion [CA]-CB--CG-[CD1] |==|  0.60749
USER: genes 14 Torsion [CE1]-CZ--OH-[HH] |==|  0.37972
USER: genes 15 Torsion [C]-CA--N-[C] |==|  0.60572
USER: genes 16 Torsion [N]-C--CA-[N] |==|  0.42913
USER: genes 17 Torsion [C]-CA--N-[C] |==|  0.76058
USER: genes 18 Torsion [N]-C--CA-[N] |==|  0.51709
USER: genes 19 Torsion [C]-CA--CB-[CG] |==|  0.22407
USER: genes 20 Torsion [CA]-CB--CG-[CD2] |==|  0.70369
USER: genes 21 Torsion [C]-CA--CB-[CG2] |==|  0.22886
ROOT
ATOM      1  CA  TYR P   8      80.827  -3.576  61.432  1.00 57.99 LIG 0.18  C 
ENDROOT
BRANCH 1 2
ATOM      2  C   TYR P   8      80.752  -2.124  60.981  1.00 56.68 LIG 0.24  C 
ATOM      3  N   GLN P   9      79.937  -1.861  59.965  1.00 57.67 LIG-0.35  N 
ATOM      4 H    GLN P   9      79.510  -2.464  59.525  1.00 57.67 LIG 0.16  HD
ATOM      5 O    TYR P   8      81.424  -1.260  61.552  1.00 54.26 LIG-0.27  OA
BRANCH 3 6
ATOM      6  CA  GLN P   9      79.697  -0.501  59.502  1.00 54.86 LIG 0.18  C 
BRANCH 6 7
ATOM      7  CB  GLN P   9      79.758  -0.420  57.979  1.00 52.41 LIG 0.04  C 
BRANCH 7 8
ATOM      8  CG  GLN P   9      78.930  -1.479  57.274  1.00 53.63 LIG 0.10  C 
BRANCH 8 9
ATOM      9  CD  GLN P   9      77.675  -0.907  56.653  1.00 56.56 LIG 0.21  C 
ATOM     10 OE1  GLN P   9      77.105   0.056  57.164  1.00 59.67 LIG-0.27  OA
ATOM     11  NE2 GLN P   9      77.237  -1.496  55.545  1.00 58.55 LIG-0.37  N 
ATOM     12 22HE GLN P   9      76.527  -1.206  55.156  1.00 58.55 LIG 0.16  HD
ATOM     13 21HE GLN P   9      77.663  -2.167  55.218  1.00 58.55 LIG 0.16  HD
ENDBRANCH 8 9
ENDBRANCH 7 8
ENDBRANCH 6 7
BRANCH 6 14
ATOM     14  C   GLN P   9      78.336  -0.041  60.010  1.00 54.72 LIG 0.24  C 
ATOM     15 O    GLN P   9      77.313  -0.666  59.709  1.00 59.60 LIG-0.27  OA
ATOM     16  N   PHE P  10      78.326   1.038  60.785  1.00 49.02 LIG-0.34  N 
ATOM     17 H    PHE P  10      79.032   1.455  61.045  1.00 49.02 LIG 0.16  HD
BRANCH 16 18
ATOM     18  CA  PHE P  10      77.073   1.604  61.264  1.00 50.33 LIG 0.19  C 
BRANCH 18 19
ATOM     19  C   PHE P  10      77.256   3.036  61.752  1.00 49.91 LIG 0.20  C 
ATOM     20 O    PHE P  10      76.602   3.458  62.708  1.00 45.93 LIG-0.65  OA
ATOM     21 OXT  PHE P  10      78.049   3.798  61.195  1.00 46.36 LIG-0.65  OA
ENDBRANCH 18 19
BRANCH 18 22
ATOM     22  CB  PHE P  10      76.472   0.735  62.372  1.00 51.88 LIG 0.07  C 
BRANCH 22 23
ATOM     23  CG  PHE P  10      75.000   0.456  62.213  1.00 51.17 LIG-0.06  A 
ATOM     24  CD1 PHE P  10      74.433  -0.679  62.768  1.00 49.53 LIG 0.01  A 
ATOM     25  CE1 PHE P  10      73.087  -0.944  62.612  1.00 54.45 LIG 0.00  A 
ATOM     26  CZ  PHE P  10      72.295  -0.081  61.880  1.00 54.40 LIG 0.00  A 
ATOM     27  CE2 PHE P  10      72.847   1.048  61.317  1.00 52.97 LIG 0.00  A 
ATOM     28  CD2 PHE P  10      74.195   1.310  61.476  1.00 50.02 LIG 0.01  A 
ENDBRANCH 22 23
ENDBRANCH 18 22
ENDBRANCH 16 18
ENDBRANCH 6 14
ENDBRANCH 3 6
ENDBRANCH 1 2
BRANCH 1 29
ATOM     29  CB  TYR P   8      80.880  -3.649  62.957  1.00 54.61 LIG 0.07  C 
BRANCH 29 30
ATOM     30  CG  TYR P   8      79.886  -2.758  63.664  1.00 66.64 LIG-0.06  A 
ATOM     31  CD1 TYR P   8      80.235  -2.087  64.829  1.00 68.29 LIG 0.01  A 
ATOM     32  CE1 TYR P   8      79.330  -1.277  65.482  1.00 71.89 LIG 0.04  A 
ATOM     33  CZ  TYR P   8      78.056  -1.134  64.974  1.00 71.50 LIG 0.07  A 
ATOM     34  CE2 TYR P   8      77.684  -1.793  63.822  1.00 69.11 LIG 0.04  A 
ATOM     35  CD2 TYR P   8      78.596  -2.602  63.177  1.00 65.21 LIG 0.01  A 
BRANCH 33 36
ATOM     36 OH   TYR P   8      77.150  -0.327  65.623  1.00 83.55 LIG-0.36  OA
ATOM     37 HH   TYR P   8      76.735   0.137  65.059  1.00 83.55 LIG 0.22  HD
ENDBRANCH 33 36
ENDBRANCH 29 30
ENDBRANCH 1 29
BRANCH 1 38
ATOM     38  N   TYR P   8      82.005  -4.190  60.834  1.00 59.31 LIG-0.35  N 
ATOM     39  C   VAL P   7      82.019  -5.444  60.390  1.00 65.10 LIG 0.24  C 
ATOM     40 O    VAL P   7      81.056  -6.213  60.510  1.00 66.40 LIG-0.27  OA
ATOM     41 H    TYR P   8      82.688  -3.668  60.796  1.00 59.31 LIG 0.16  HD
BRANCH 39 42
ATOM     42  CA  VAL P   7      83.302  -5.906  59.713  1.00 68.90 LIG 0.18  C 
BRANCH 42 43
ATOM     43  N   VAL P   7      83.405  -7.354  59.837  1.00 69.26 LIG-0.34  N 
ATOM     44  C   LEU P   6      83.943  -7.951  60.896  1.00 74.59 LIG 0.26  C 
ATOM     45 O    LEU P   6      84.360  -7.325  61.874  1.00 73.78 LIG-0.27  OA
ATOM     46 H    VAL P   7      83.087  -7.783  59.163  1.00 69.26 LIG 0.16  HD
BRANCH 44 47
ATOM     47  CA  LEU P   6      83.994  -9.480  60.839  1.00 78.06 LIG 0.40  C 
ATOM     48  N   LEU P   6      84.466 -10.025  62.106  1.00 74.40 LIG 0.61  N 
BRANCH 47 49
ATOM     49  CB  LEU P   6      82.624 -10.070  60.480  1.00 78.52 LIG 0.06  C 
BRANCH 49 50
ATOM     50  CG  LEU P   6      82.142 -10.120  59.027  1.00 77.43 LIG-0.02  C 
ATOM     51  CD2 LEU P   6      81.052  -9.093  58.745  1.00 73.93 LIG 0.01  C 
ATOM     52  CD1 LEU P   6      81.665 -11.527  58.733  1.00 75.78 LIG 0.01  C 
ENDBRANCH 49 50
ENDBRANCH 47 49
ENDBRANCH 44 47
ENDBRANCH 42 43
BRANCH 42 53
ATOM     53  CB  VAL P   7      83.337  -5.472  58.237  1.00 67.45 LIG 0.01  C 
ATOM     54  CG2 VAL P   7      83.810  -4.034  58.123  1.00 67.18 LIG 0.01  C 
ATOM     55  CG1 VAL P   7      81.968  -5.630  57.606  1.00 63.58 LIG 0.01  C 
ENDBRANCH 42 53
ENDBRANCH 39 42
ENDBRANCH 1 38
TORSDOF 20
ENDMDL
MODEL 3
USER: ADFR SOLUTION from run 96
USER: SCORE 18.295855 LL:  -3.708 LR: -16.879 RR:   0.000 FEB: -10.913
USER: RMSD 5.671511
USER: SEED 95
USER: STATUS no improvement in best in 17 clusters for 5 generations
USER: GENES 22
USER: genes 0 Translation |==|  0.42227 0.45699 0.51808
USER: genes 1 Rotation |==|  0.33618 0.66587 0.39383 0.92939
USER: genes 2 Torsion [N]-CA--C-[N] |==|  0.18286
USER: genes 3 Torsion [C]-N--CA-[CB] |==|  0.42432
USER: genes 4 Torsion [N]-CA--CB-[CG] |==|  0.01491
USER: genes 5 Torsion [CA]-CB--CG-[CD] |==|  0.29528
USER: genes 6 Torsion [CB]-CG--CD-[OE1] |==|  0.79805
USER: genes 7 Torsion [N]-CA--C-[N] |==|  0.22609
USER: genes 8 Torsion [C]-N--CA-[C] |==|  0.14427
USER: genes 9 Torsion [N]-CA--C-[O] |==|  0.74047
USER: genes 10 Torsion [N]-CA--CB-[CG] |==|  0.86336
USER: genes 11 Torsion [CA]-CB--CG-[CD1] |==|  0.71767
USER: genes 12 Torsion [C]-CA--CB-[CG] |==|  0.20398
USER: genes 13 Torsion [CA]-CB--CG-[CD1] |==|  0.00569
USER: genes 14 Torsion [CE1]-CZ--OH-[HH] |==|  0.78651
USER: genes 15 Torsion [C]-CA--N-[C] |==|  0.60667
USER: genes 16 Torsion [N]-C--CA-[N] |==|  0.37567
USER: genes 17 Torsion [C]-CA--N-[C] |==|  0.76237
USER: genes 18 Torsion [N]-C--CA-[N] |==|  0.86624
USER: genes 19 Torsion [C]-CA--CB-[CG] |==|  0.24992
USER: genes 20 Torsion [CA]-CB--CG-[CD2] |==|  0.17861
USER: genes 21 Torsion [C]-CA--CB-[CG2] |==|  0.18969
ROOT
ATOM      1  CA  TYR P   8      80.800  -3.135  61.065  1.00 57.99 LIG 0.18  C 
ENDROOT
BRANCH 1 2
ATOM      2  C   TYR P   8      80.969  -1.760  60.435  1.00 56.68 LIG 0.24  C 
ATOM      3  N   GLN P   9      80.708  -1.667  59.135  1.00 57.67 LIG-0.35  N 
ATOM      4 H    GLN P   9      80.511  -2.341  58.638  1.00 57.67 LIG 0.16  HD
ATOM      5 O    TYR P   8      81.331  -0.800  61.124  1.00 54.26 LIG-0.27  OA
BRANCH 3 6
ATOM      6  CA  GLN P   9      80.734  -0.392  58.433  1.00 54.86 LIG 0.18  C 
BRANCH 6 7
ATOM      7  CB  GLN P   9      81.069  -0.585  56.956  1.00 52.41 LIG 0.04  C 
BRANCH 7 8
ATOM      8  CG  GLN P   9      81.167  -2.040  56.534  1.00 53.63 LIG 0.10  C 
BRANCH 8 9
ATOM      9  CD  GLN P   9      79.977  -2.481  55.711  1.00 56.56 LIG 0.21  C 
ATOM     10 OE1  GLN P   9      78.878  -2.652  56.238  1.00 59.67 LIG-0.27  OA
ATOM     11  NE2 GLN P   9      80.188  -2.667  54.412  1.00 58.55 LIG-0.37  N 
ATOM     12 22HE GLN P   9      79.541  -2.918  53.903  1.00 58.55 LIG 0.16  HD
ATOM     13 21HE GLN P   9      80.970  -2.537  54.081  1.00 58.55 LIG 0.16  HD
ENDBRANCH 8 9
ENDBRANCH 7 8
ENDBRANCH 6 7
BRANCH 6 14
ATOM     14  C   GLN P   9      79.379   0.287  58.592  1.00 54.72 LIG 0.24  C 
ATOM     15 O    GLN P   9      78.529   0.202  57.699  1.00 59.60 LIG-0.27  OA
ATOM     16  N   PHE P  10      79.175   0.943  59.729  1.00 49.02 LIG-0.34  N 
ATOM     17 H    PHE P  10      79.735   0.971  60.381  1.00 49.02 LIG 0.16  HD
BRANCH 16 18
ATOM     18  CA  PHE P  10      77.943   1.688  59.952  1.00 50.33 LIG 0.19  C 
BRANCH 18 19
ATOM     19  C   PHE P  10      76.713   0.828  59.689  1.00 49.91 LIG 0.20  C 
ATOM     20 O    PHE P  10      76.174   0.833  58.581  1.00 45.93 LIG-0.65  OA
ATOM     21 OXT  PHE P  10      76.231   0.123  60.578  1.00 46.36 LIG-0.65  OA
ENDBRANCH 18 19
BRANCH 18 22
ATOM     22  CB  PHE P  10      77.907   2.951  59.088  1.00 51.88 LIG 0.07  C 
BRANCH 22 23
ATOM     23  CG  PHE P  10      79.157   3.788  59.160  1.00 51.17 LIG-0.06  A 
ATOM     24  CD1 PHE P  10      79.194   4.936  59.934  1.00 49.53 LIG 0.01  A 
ATOM     25  CE1 PHE P  10      80.334   5.713  59.990  1.00 54.45 LIG 0.00  A 
ATOM     26  CZ  PHE P  10      81.448   5.358  59.256  1.00 54.40 LIG 0.00  A 
ATOM     27  CE2 PHE P  10      81.423   4.222  58.477  1.00 52.97 LIG 0.00  A 
ATOM     28  CD2 PHE P  10      80.280   3.446  58.423  1.00 50.02 LIG 0.01  A 
ENDBRANCH 22 23
ENDBRANCH 18 22
ENDBRANCH 16 18
ENDBRANCH 6 14
ENDBRANCH 3 6
ENDBRANCH 1 2
BRANCH 1 29
ATOM     29  CB  TYR P   8      80.946  -3.036  62.583  1.00 54.61 LIG 0.07  C 
BRANCH 29 30
ATOM     30  CG  TYR P   8      79.773  -2.400  63.288  1.00 66.64 LIG-0.06  A 
ATOM     31  CD1 TYR P   8      78.651  -1.992  62.578  1.00 68.29 LIG 0.01  A 
ATOM     32  CE1 TYR P   8      77.578  -1.406  63.215  1.00 71.89 LIG 0.04  A 
ATOM     33  CZ  TYR P   8      77.620  -1.215  64.581  1.00 71.50 LIG 0.07  A 
ATOM     34  CE2 TYR P   8      78.724  -1.607  65.308  1.00 69.11 LIG 0.04  A 
ATOM     35  CD2 TYR P   8      79.792  -2.192  64.661  1.00 65.21 LIG 0.01  A 
BRANCH 33 36
ATOM     36 OH   TYR P   8      76.553  -0.630  65.221  1.00 83.55 LIG-0.36  OA
ATOM     37 HH   TYR P   8      76.567   0.200  65.086  1.00 83.55 LIG 0.22  HD
ENDBRANCH 33 36
ENDBRANCH 29 30
ENDBRANCH 1 29
BRANCH 1 38
ATOM     38  N   TYR P   8      81.794  -4.035  60.498  1.00 59.31 LIG-0.35  N 
ATOM     39  C   VAL P   7      81.536  -5.308  60.212  1.00 65.10 LIG 0.24  C 
ATOM     40 O    VAL P   7      80.453  -5.851  60.471  1.00 66.40 LIG-0.27  OA
ATOM     41 H    TYR P   8      82.560  -3.667  60.365  1.00 59.31 LIG 0.16  HD
BRANCH 39 42
ATOM     42  CA  VAL P   7      82.657  -6.090  59.542  1.00 68.90 LIG 0.18  C 
BRANCH 42 43
ATOM     43  N   VAL P   7      82.773  -7.393  60.185  1.00 69.26 LIG-0.34  N 
ATOM     44  C   LEU P   6      83.495  -7.594  61.284  1.00 74.59 LIG 0.26  C 
ATOM     45 O    LEU P   6      84.090  -6.684  61.866  1.00 73.78 LIG-0.27  OA
ATOM     46 H    VAL P   7      82.332  -8.016  59.789  1.00 69.26 LIG 0.16  HD
BRANCH 44 47
ATOM     47  CA  LEU P   6      83.524  -9.035  61.801  1.00 78.06 LIG 0.40  C 
ATOM     48  N   LEU P   6      82.176  -9.586  61.860  1.00 74.40 LIG 0.61  N 
BRANCH 47 49
ATOM     49  CB  LEU P   6      84.426  -9.921  60.932  1.00 78.52 LIG 0.06  C 
BRANCH 49 50
ATOM     50  CG  LEU P   6      85.917 -10.081  61.248  1.00 77.43 LIG-0.02  C 
ATOM     51  CD2 LEU P   6      86.152 -10.764  62.590  1.00 73.93 LIG 0.01  C 
ATOM     52  CD1 LEU P   6      86.560  -8.711  61.206  1.00 75.78 LIG 0.01  C 
ENDBRANCH 49 50
ENDBRANCH 47 49
ENDBRANCH 44 47
ENDBRANCH 42 43
BRANCH 42 53
ATOM     53  CB  VAL P   7      82.404  -6.239  58.033  1.00 67.45 LIG 0.01  C 
ATOM     54  CG2 VAL P   7      82.523  -4.891  57.344  1.00 67.18 LIG 0.01  C 
ATOM     55  CG1 VAL P   7      81.036  -6.841  57.781  1.00 63.58 LIG 0.01  C 
ENDBRANCH 42 53
ENDBRANCH 39 42
ENDBRANCH 1 38
TORSDOF 20
ENDMDL
MODEL 4
USER: ADFR SOLUTION from run 44
USER: SCORE 18.800019 LL:  -4.348 LR: -16.689 RR:   0.000 FEB: -10.723
USER: RMSD 5.301641
USER: SEED 43
USER: STATUS no improvement in best in 12 clusters for 5 generations
USER: GENES 22
USER: genes 0 Translation |==|  0.42018 0.45254 0.53137
USER: genes 1 Rotation |==|  0.30670 0.69227 0.41792 0.91101
USER: genes 2 Torsion [N]-CA--C-[N] |==|  0.24021
USER: genes 3 Torsion [C]-N--CA-[CB] |==|  0.38599
USER: genes 4 Torsion [N]-CA--CB-[CG] |==|  0.91782
USER: genes 5 Torsion [CA]-CB--CG-[CD] |==|  0.24619
USER: genes 6 Torsion [CB]-CG--CD-[OE1] |==|  0.65306
USER: genes 7 Torsion [N]-CA--C-[N] |==|  0.25398
USER: genes 8 Torsion [C]-N--CA-[C] |==|  0.63152
USER: genes 9 Torsion [N]-CA--C-[O] |==|  0.08379
USER: genes 10 Torsion [N]-CA--CB-[CG] |==|  0.64730
USER: genes 11 Torsion [CA]-CB--CG-[CD1] |==|  0.40879
USER: genes 12 Torsion [C]-CA--CB-[CG] |==|  0.20511
USER: genes 13 Torsion [CA]-CB--CG-[CD1] |==|  0.52231
USER: genes 14 Torsion [CE1]-CZ--OH-[HH] |==|  0.05045
USER: genes 15 Torsion [C]-CA--N-[C] |==|  0.62447
USER: genes 16 Torsion [N]-C--CA-[N] |==|  0.36763
USER: genes 17 Torsion [C]-CA--N-[C] |==|  0.78073
USER: genes 18 Torsion [N]-C--CA-[N] |==|  0.94528
USER: genes 19 Torsion [C]-CA--CB-[CG] |==|  0.14783
USER: genes 20 Torsion [CA]-CB--CG-[CD2] |==|  0.72830
USER: genes 21 Torsion [C]-CA--CB-[CG2] |==|  0.81363
ROOT
ATOM      1  CA  TYR P   8      80.753  -3.235  61.305  1.00 57.99 LIG 0.18  C 
ENDROOT
BRANCH 1 2
ATOM      2  C   TYR P   8      80.707  -1.904  60.567  1.00 56.68 LIG 0.24  C 
ATOM      3  N   GLN P   9      79.868  -1.825  59.539  1.00 57.67 LIG-0.35  N 
ATOM      4 H    GLN P   9      79.408  -2.489  59.245  1.00 57.67 LIG 0.16  HD
ATOM      5 O    TYR P   8      81.424  -0.966  60.931  1.00 54.26 LIG-0.27  OA
BRANCH 3 6
ATOM      6  CA  GLN P   9      79.655  -0.580  58.813  1.00 54.86 LIG 0.18  C 
BRANCH 6 7
ATOM      7  CB  GLN P   9      79.569  -0.830  57.309  1.00 52.41 LIG 0.04  C 
BRANCH 7 8
ATOM      8  CG  GLN P   9      80.376  -2.027  56.839  1.00 53.63 LIG 0.10  C 
BRANCH 8 9
ATOM      9  CD  GLN P   9      79.581  -3.312  56.893  1.00 56.56 LIG 0.21  C 
ATOM     10 OE1  GLN P   9      80.004  -4.286  57.517  1.00 59.67 LIG-0.27  OA
ATOM     11  NE2 GLN P   9      78.424  -3.324  56.240  1.00 58.55 LIG-0.37  N 
ATOM     12 22HE GLN P   9      77.937  -4.033  56.242  1.00 58.55 LIG 0.16  HD
ATOM     13 21HE GLN P   9      78.163  -2.625  55.815  1.00 58.55 LIG 0.16  HD
ENDBRANCH 8 9
ENDBRANCH 7 8
ENDBRANCH 6 7
BRANCH 6 14
ATOM     14  C   GLN P   9      78.377   0.074  59.323  1.00 54.72 LIG 0.24  C 
ATOM     15 O    GLN P   9      77.285  -0.212  58.820  1.00 59.60 LIG-0.27  OA
ATOM     16  N   PHE P  10      78.511   0.938  60.323  1.00 49.02 LIG-0.34  N 
ATOM     17 H    PHE P  10      79.256   1.113  60.717  1.00 49.02 LIG 0.16  HD
BRANCH 16 18
ATOM     18  CA  PHE P  10      77.364   1.675  60.836  1.00 50.33 LIG 0.19  C 
BRANCH 18 19
ATOM     19  C   PHE P  10      77.674   3.159  60.988  1.00 49.91 LIG 0.20  C 
ATOM     20 O    PHE P  10      78.486   3.707  60.239  1.00 45.93 LIG-0.65  OA
ATOM     21 OXT  PHE P  10      77.131   3.833  61.865  1.00 46.36 LIG-0.65  OA
ENDBRANCH 18 19
BRANCH 18 22
ATOM     22  CB  PHE P  10      76.893   1.087  62.169  1.00 51.88 LIG 0.07  C 
BRANCH 22 23
ATOM     23  CG  PHE P  10      75.429   0.738  62.210  1.00 51.17 LIG-0.06  A 
ATOM     24  CD1 PHE P  10      74.981  -0.336  62.960  1.00 49.53 LIG 0.01  A 
ATOM     25  CE1 PHE P  10      73.640  -0.667  62.989  1.00 54.45 LIG 0.00  A 
ATOM     26  CZ  PHE P  10      72.733   0.066  62.250  1.00 54.40 LIG 0.00  A 
ATOM     27  CE2 PHE P  10      73.166   1.134  61.495  1.00 52.97 LIG 0.00  A 
ATOM     28  CD2 PHE P  10      74.508   1.462  61.469  1.00 50.02 LIG 0.01  A 
ENDBRANCH 22 23
ENDBRANCH 18 22
ENDBRANCH 16 18
ENDBRANCH 6 14
ENDBRANCH 3 6
ENDBRANCH 1 2
BRANCH 1 29
ATOM     29  CB  TYR P   8      81.144  -3.011  62.764  1.00 54.61 LIG 0.07  C 
BRANCH 29 30
ATOM     30  CG  TYR P   8      80.058  -2.409  63.622  1.00 66.64 LIG-0.06  A 
ATOM     31  CD1 TYR P   8      80.323  -1.998  64.922  1.00 68.29 LIG 0.01  A 
ATOM     32  CE1 TYR P   8      79.333  -1.452  65.712  1.00 71.89 LIG 0.04  A 
ATOM     33  CZ  TYR P   8      78.056  -1.317  65.207  1.00 71.50 LIG 0.07  A 
ATOM     34  CE2 TYR P   8      77.767  -1.722  63.921  1.00 69.11 LIG 0.04  A 
ATOM     35  CD2 TYR P   8      78.764  -2.267  63.139  1.00 65.21 LIG 0.01  A 
BRANCH 33 36
ATOM     36 OH   TYR P   8      77.066  -0.774  65.992  1.00 83.55 LIG-0.36  OA
ATOM     37 HH   TYR P   8      77.414  -0.354  66.631  1.00 83.55 LIG 0.22  HD
ENDBRANCH 33 36
ENDBRANCH 29 30
ENDBRANCH 1 29
BRANCH 1 38
ATOM     38  N   TYR P   8      81.704  -4.109  60.633  1.00 59.31 LIG-0.35  N 
ATOM     39  C   VAL P   7      81.448  -5.388  60.369  1.00 65.10 LIG 0.24  C 
ATOM     40 O    VAL P   7      80.411  -5.957  60.735  1.00 66.40 LIG-0.27  OA
ATOM     41 H    TYR P   8      82.443  -3.723  60.423  1.00 59.31 LIG 0.16  HD
BRANCH 39 42
ATOM     42  CA  VAL P   7      82.512  -6.141  59.583  1.00 68.90 LIG 0.18  C 
BRANCH 42 43
ATOM     43  N   VAL P   7      82.775  -7.413  60.243  1.00 69.26 LIG-0.34  N 
ATOM     44  C   LEU P   6      83.542  -7.520  61.324  1.00 74.59 LIG 0.26  C 
ATOM     45 O    LEU P   6      84.058  -6.544  61.874  1.00 73.78 LIG-0.27  OA
ATOM     46 H    VAL P   7      82.388  -8.084  59.869  1.00 69.26 LIG 0.16  HD
BRANCH 44 47
ATOM     47  CA  LEU P   6      83.729  -8.941  61.864  1.00 78.06 LIG 0.40  C 
ATOM     48  N   LEU P   6      82.675  -9.820  61.371  1.00 74.40 LIG 0.61  N 
BRANCH 47 49
ATOM     49  CB  LEU P   6      85.108  -9.501  61.492  1.00 78.52 LIG 0.06  C 
BRANCH 49 50
ATOM     50  CG  LEU P   6      86.389  -8.726  61.821  1.00 77.43 LIG-0.02  C 
ATOM     51  CD2 LEU P   6      86.905  -7.930  60.628  1.00 73.93 LIG 0.01  C 
ATOM     52  CD1 LEU P   6      87.425  -9.712  62.317  1.00 75.78 LIG 0.01  C 
ENDBRANCH 49 50
ENDBRANCH 47 49
ENDBRANCH 44 47
ENDBRANCH 42 43
BRANCH 42 53
ATOM     53  CB  VAL P   7      82.075  -6.354  58.123  1.00 67.45 LIG 0.01  C 
ATOM     54  CG2 VAL P   7      80.891  -7.302  58.062  1.00 67.18 LIG 0.01  C 
ATOM     55  CG1 VAL P   7      83.227  -6.894  57.299  1.00 63.58 LIG 0.01  C 
ENDBRANCH 42 53
ENDBRANCH 39 42
ENDBRANCH 1 38
TORSDOF 20
ENDMDL
MODEL 5
USER: ADFR SOLUTION from run 137
USER: SCORE 20.096231 LL:  -4.512 LR: -16.635 RR:   0.000 FEB: -10.669
USER: RMSD 5.067772
USER: SEED 136
USER: STATUS no improvement in best in 3 clusters for 5 generations
USER: GENES 22
USER: genes 0 Translation |==|  0.43549 0.57974 0.41518
USER: genes 1 Rotation |==|  0.80717 0.11417 0.52599 0.57812
USER: genes 2 Torsion [N]-CA--C-[N] |==|  0.41544
USER: genes 3 Torsion [C]-N--CA-[CB] |==|  0.80524
USER: genes 4 Torsion [N]-CA--CB-[CG] |==|  0.69592
USER: genes 5 Torsion [CA]-CB--CG-[CD] |==|  0.76810
USER: genes 6 Torsion [CB]-CG--CD-[OE1] |==|  0.81308
USER: genes 7 Torsion [N]-CA--C-[N] |==|  0.22925
USER: genes 8 Torsion [C]-N--CA-[C] |==|  0.55441
USER: genes 9 Torsion [N]-CA--C-[O] |==|  0.99297
USER: genes 10 Torsion [N]-CA--CB-[CG] |==|  0.23574
USER: genes 11 Torsion [CA]-CB--CG-[CD1] |==|  0.82167
USER: genes 12 Torsion [C]-CA--CB-[CG] |==|  0.34174
USER: genes 13 Torsion [CA]-CB--CG-[CD1] |==|  0.21883
USER: genes 14 Torsion [CE1]-CZ--OH-[HH] |==|  0.47415
USER: genes 15 Torsion [C]-CA--N-[C] |==|  0.70407
USER: genes 16 Torsion [N]-C--CA-[N] |==|  0.26111
USER: genes 17 Torsion [C]-CA--N-[C] |==|  0.62993
USER: genes 18 Torsion [N]-C--CA-[N] |==|  0.40097
USER: genes 19 Torsion [C]-CA--CB-[CG] |==|  0.17342
USER: genes 20 Torsion [CA]-CB--CG-[CD2] |==|  0.74998
USER: genes 21 Torsion [C]-CA--CB-[CG2] |==|  0.16294
ROOT
ATOM      1  CA  TYR P   8      81.097  -0.373  59.213  1.00 57.99 LIG 0.18  C 
ENDROOT
BRANCH 1 2
ATOM      2  C   TYR P   8      79.744   0.259  58.921  1.00 56.68 LIG 0.24  C 
ATOM      3  N   GLN P   9      79.644   1.568  59.126  1.00 57.67 LIG-0.35  N 
ATOM      4 H    GLN P   9      80.274   2.049  59.463  1.00 57.67 LIG 0.16  HD
ATOM      5 O    TYR P   8      78.807  -0.437  58.515  1.00 54.26 LIG-0.27  OA
BRANCH 3 6
ATOM      6  CA  GLN P   9      78.437   2.311  58.792  1.00 54.86 LIG 0.18  C 
BRANCH 6 7
ATOM      7  CB  GLN P   9      78.256   2.412  57.279  1.00 52.41 LIG 0.04  C 
BRANCH 7 8
ATOM      8  CG  GLN P   9      78.482   3.808  56.725  1.00 53.63 LIG 0.10  C 
BRANCH 8 9
ATOM      9  CD  GLN P   9      77.250   4.678  56.843  1.00 56.56 LIG 0.21  C 
ATOM     10 OE1  GLN P   9      76.240   4.428  56.186  1.00 59.67 LIG-0.27  OA
ATOM     11  NE2 GLN P   9      77.325   5.706  57.682  1.00 58.55 LIG-0.37  N 
ATOM     12 22HE GLN P   9      76.650   6.229  57.783  1.00 58.55 LIG 0.16  HD
ATOM     13 21HE GLN P   9      78.049   5.848  58.124  1.00 58.55 LIG 0.16  HD
ENDBRANCH 8 9
ENDBRANCH 7 8
ENDBRANCH 6 7
BRANCH 6 14
ATOM     14  C   GLN P   9      77.240   1.620  59.431  1.00 54.72 LIG 0.24  C 
ATOM     15 O    GLN P   9      76.549   0.833  58.774  1.00 59.60 LIG-0.27  OA
ATOM     16  N   PHE P  10      77.004   1.901  60.707  1.00 49.02 LIG-0.34  N 
ATOM     17 H    PHE P  10      77.502   2.407  61.193  1.00 49.02 LIG 0.16  HD
BRANCH 16 18
ATOM     18  CA  PHE P  10      75.843   1.352  61.393  1.00 50.33 LIG 0.19  C 
BRANCH 18 19
ATOM     19  C   PHE P  10      75.502   2.151  62.645  1.00 49.91 LIG 0.20  C 
ATOM     20 O    PHE P  10      76.208   3.101  62.990  1.00 45.93 LIG-0.65  OA
ATOM     21 OXT  PHE P  10      74.527   1.857  63.339  1.00 46.36 LIG-0.65  OA
ENDBRANCH 18 19
BRANCH 18 22
ATOM     22  CB  PHE P  10      76.065  -0.122  61.744  1.00 51.88 LIG 0.07  C 
BRANCH 22 23
ATOM     23  CG  PHE P  10      76.804  -0.348  63.036  1.00 51.17 LIG-0.06  A 
ATOM     24  CD1 PHE P  10      78.115   0.074  63.183  1.00 49.53 LIG 0.01  A 
ATOM     25  CE1 PHE P  10      78.799  -0.145  64.362  1.00 54.45 LIG 0.00  A 
ATOM     26  CZ  PHE P  10      78.182  -0.806  65.405  1.00 54.40 LIG 0.00  A 
ATOM     27  CE2 PHE P  10      76.880  -1.237  65.271  1.00 52.97 LIG 0.00  A 
ATOM     28  CD2 PHE P  10      76.199  -1.016  64.089  1.00 50.02 LIG 0.01  A 
ENDBRANCH 22 23
ENDBRANCH 18 22
ENDBRANCH 16 18
ENDBRANCH 6 14
ENDBRANCH 3 6
ENDBRANCH 1 2
BRANCH 1 29
ATOM     29  CB  TYR P   8      81.983  -0.312  57.969  1.00 54.61 LIG 0.07  C 
BRANCH 29 30
ATOM     30  CG  TYR P   8      83.302   0.395  58.170  1.00 66.64 LIG-0.06  A 
ATOM     31  CD1 TYR P   8      84.366  -0.247  58.790  1.00 68.29 LIG 0.01  A 
ATOM     32  CE1 TYR P   8      85.571   0.395  58.981  1.00 71.89 LIG 0.04  A 
ATOM     33  CZ  TYR P   8      85.723   1.697  58.554  1.00 71.50 LIG 0.07  A 
ATOM     34  CE2 TYR P   8      84.681   2.357  57.939  1.00 69.11 LIG 0.04  A 
ATOM     35  CD2 TYR P   8      83.478   1.707  57.754  1.00 65.21 LIG 0.01  A 
BRANCH 33 36
ATOM     36 OH   TYR P   8      86.923   2.341  58.743  1.00 83.55 LIG-0.36  OA
ATOM     37 HH   TYR P   8      86.918   3.071  58.327  1.00 83.55 LIG 0.22  HD
ENDBRANCH 33 36
ENDBRANCH 29 30
ENDBRANCH 1 29
BRANCH 1 38
ATOM     38  N   TYR P   8      80.888  -1.748  59.644  1.00 59.31 LIG-0.35  N 
ATOM     39  C   VAL P   7      81.033  -2.139  60.907  1.00 65.10 LIG 0.24  C 
ATOM     40 O    VAL P   7      81.425  -1.383  61.806  1.00 66.40 LIG-0.27  OA
ATOM     41 H    TYR P   8      80.664  -2.281  59.007  1.00 59.31 LIG 0.16  HD
BRANCH 39 42
ATOM     42  CA  VAL P   7      80.692  -3.592  61.207  1.00 68.90 LIG 0.18  C 
BRANCH 42 43
ATOM     43  N   VAL P   7      81.910  -4.388  61.132  1.00 69.26 LIG-0.34  N 
ATOM     44  C   LEU P   6      81.980  -5.542  60.476  1.00 74.59 LIG 0.26  C 
ATOM     45 O    LEU P   6      81.028  -6.009  59.846  1.00 73.78 LIG-0.27  OA
ATOM     46 H    VAL P   7      82.577  -4.041  61.550  1.00 69.26 LIG 0.16  HD
BRANCH 44 47
ATOM     47  CA  LEU P   6      83.335  -6.254  60.530  1.00 78.06 LIG 0.40  C 
ATOM     48  N   LEU P   6      83.152  -7.699  60.579  1.00 74.40 LIG 0.61  N 
BRANCH 47 49
ATOM     49  CB  LEU P   6      84.217  -5.866  59.336  1.00 78.52 LIG 0.06  C 
BRANCH 49 50
ATOM     50  CG  LEU P   6      84.670  -4.418  59.128  1.00 77.43 LIG-0.02  C 
ATOM     51  CD2 LEU P   6      83.687  -3.622  58.277  1.00 73.93 LIG 0.01  C 
ATOM     52  CD1 LEU P   6      86.050  -4.438  58.504  1.00 75.78 LIG 0.01  C 
ENDBRANCH 49 50
ENDBRANCH 47 49
ENDBRANCH 44 47
ENDBRANCH 42 43
BRANCH 42 53
ATOM     53  CB  VAL P   7      80.024  -3.732  62.585  1.00 67.45 LIG 0.01  C 
ATOM     54  CG2 VAL P   7      78.757  -2.898  62.642  1.00 67.18 LIG 0.01  C 
ATOM     55  CG1 VAL P   7      80.981  -3.314  63.683  1.00 63.58 LIG 0.01  C 
ENDBRANCH 42 53
ENDBRANCH 39 42
ENDBRANCH 1 38
TORSDOF 20
ENDMDL
MODEL 6
USER: ADFR SOLUTION from run 178
USER: SCORE 19.323523 LL:  -5.082 LR: -16.573 RR:   0.000 FEB: -10.607
USER: RMSD 4.222316
USER: SEED 177
USER: STATUS no improvement in best in 15 clusters for 5 generations
USER: GENES 22
USER: genes 0 Translation |==|  0.44488 0.50624 0.42601
USER: genes 1 Rotation |==|  0.50620 0.54282 0.53746 0.99671
USER: genes 2 Torsion [N]-CA--C-[N] |==|  0.33610
USER: genes 3 Torsion [C]-N--CA-[CB] |==|  0.42222
USER: genes 4 Torsion [N]-CA--CB-[CG] |==|  0.52761
USER: genes 5 Torsion [CA]-CB--CG-[CD] |==|  0.17068
USER: genes 6 Torsion [CB]-CG--CD-[OE1] |==|  0.01481
USER: genes 7 Torsion [N]-CA--C-[N] |==|  0.31088
USER: genes 8 Torsion [C]-N--CA-[C] |==|  0.72845
USER: genes 9 Torsion [N]-CA--C-[O] |==|  0.95497
USER: genes 10 Torsion [N]-CA--CB-[CG] |==|  0.84711
USER: genes 11 Torsion [CA]-CB--CG-[CD1] |==|  0.70543
USER: genes 12 Torsion [C]-CA--CB-[CG] |==|  0.35312
USER: genes 13 Torsion [CA]-CB--CG-[CD1] |==|  0.04930
USER: genes 14 Torsion [CE1]-CZ--OH-[HH] |==|  0.83319
USER: genes 15 Torsion [C]-CA--N-[C] |==|  0.70333
USER: genes 16 Torsion [N]-C--CA-[N] |==|  0.76428
USER: genes 17 Torsion [C]-CA--N-[C] |==|  0.66006
USER: genes 18 Torsion [N]-C--CA-[N] |==|  0.59526
USER: genes 19 Torsion [C]-CA--CB-[CG] |==|  0.74710
USER: genes 20 Torsion [CA]-CB--CG-[CD2] |==|  0.61447
USER: genes 21 Torsion [C]-CA--CB-[CG2] |==|  0.62393
ROOT
ATOM      1  CA  TYR P   8      81.309  -2.027  59.408  1.00 57.99 LIG 0.18  C 
ENDROOT
BRANCH 1 2
ATOM      2  C   TYR P   8      80.758  -0.685  59.870  1.00 56.68 LIG 0.24  C 
ATOM      3  N   GLN P   9      79.793  -0.153  59.126  1.00 57.67 LIG-0.35  N 
ATOM      4 H    GLN P   9      79.517  -0.493  58.386  1.00 57.67 LIG 0.16  HD
ATOM      5 O    TYR P   8      81.204  -0.146  60.888  1.00 54.26 LIG-0.27  OA
BRANCH 3 6
ATOM      6  CA  GLN P   9      79.112   1.075  59.511  1.00 54.86 LIG 0.18  C 
BRANCH 6 7
ATOM      7  CB  GLN P   9      78.602   1.828  58.285  1.00 52.41 LIG 0.04  C 
BRANCH 7 8
ATOM      8  CG  GLN P   9      78.094   3.226  58.590  1.00 53.63 LIG 0.10  C 
BRANCH 8 9
ATOM      9  CD  GLN P   9      79.175   4.117  59.160  1.00 56.56 LIG 0.21  C 
ATOM     10 OE1  GLN P   9      80.337   3.721  59.240  1.00 59.67 LIG-0.27  OA
ATOM     11  NE2 GLN P   9      78.799   5.327  59.561  1.00 58.55 LIG-0.37  N 
ATOM     12 22HE GLN P   9      79.379   5.870  59.892  1.00 58.55 LIG 0.16  HD
ATOM     13 21HE GLN P   9      77.977   5.568  59.489  1.00 58.55 LIG 0.16  HD
ENDBRANCH 8 9
ENDBRANCH 7 8
ENDBRANCH 6 7
BRANCH 6 14
ATOM     14  C   GLN P   9      77.960   0.727  60.446  1.00 54.72 LIG 0.24  C 
ATOM     15 O    GLN P   9      76.983   0.097  60.025  1.00 59.60 LIG-0.27  OA
ATOM     16  N   PHE P  10      78.079   1.123  61.708  1.00 49.02 LIG-0.34  N 
ATOM     17 H    PHE P  10      78.773   1.518  62.029  1.00 49.02 LIG 0.16  HD
BRANCH 16 18
ATOM     18  CA  PHE P  10      77.004   0.906  62.666  1.00 50.33 LIG 0.19  C 
BRANCH 18 19
ATOM     19  C   PHE P  10      76.143   2.152  62.833  1.00 49.91 LIG 0.20  C 
ATOM     20 O    PHE P  10      76.550   3.249  62.442  1.00 45.93 LIG-0.65  OA
ATOM     21 OXT  PHE P  10      75.034   2.090  63.367  1.00 46.36 LIG-0.65  OA
ENDBRANCH 18 19
BRANCH 18 22
ATOM     22  CB  PHE P  10      77.564   0.458  64.019  1.00 51.88 LIG 0.07  C 
BRANCH 22 23
ATOM     23  CG  PHE P  10      78.447  -0.760  63.952  1.00 51.17 LIG-0.06  A 
ATOM     24  CD1 PHE P  10      77.991  -1.987  64.403  1.00 49.53 LIG 0.01  A 
ATOM     25  CE1 PHE P  10      78.804  -3.102  64.356  1.00 54.45 LIG 0.00  A 
ATOM     26  CZ  PHE P  10      80.093  -2.997  63.873  1.00 54.40 LIG 0.00  A 
ATOM     27  CE2 PHE P  10      80.562  -1.780  63.427  1.00 52.97 LIG 0.00  A 
ATOM     28  CD2 PHE P  10      79.745  -0.667  63.475  1.00 50.02 LIG 0.01  A 
ENDBRANCH 22 23
ENDBRANCH 18 22
ENDBRANCH 16 18
ENDBRANCH 6 14
ENDBRANCH 3 6
ENDBRANCH 1 2
BRANCH 1 29
ATOM     29  CB  TYR P   8      81.031  -3.097  60.462  1.00 54.61 LIG 0.07  C 
BRANCH 29 30
ATOM     30  CG  TYR P   8      80.335  -4.330  59.938  1.00 66.64 LIG-0.06  A 
ATOM     31  CD1 TYR P   8      80.317  -4.613  58.578  1.00 68.29 LIG 0.01  A 
ATOM     32  CE1 TYR P   8      79.678  -5.735  58.093  1.00 71.89 LIG 0.04  A 
ATOM     33  CZ  TYR P   8      79.042  -6.588  58.970  1.00 71.50 LIG 0.07  A 
ATOM     34  CE2 TYR P   8      79.042  -6.327  60.324  1.00 69.11 LIG 0.04  A 
ATOM     35  CD2 TYR P   8      79.682  -5.202  60.799  1.00 65.21 LIG 0.01  A 
BRANCH 33 36
ATOM     36 OH   TYR P   8      78.403  -7.708  58.490  1.00 83.55 LIG-0.36  OA
ATOM     37 HH   TYR P   8      77.799  -7.477  57.955  1.00 83.55 LIG 0.22  HD
ENDBRANCH 33 36
ENDBRANCH 29 30
ENDBRANCH 1 29
BRANCH 1 38
ATOM     38  N   TYR P   8      82.738  -1.886  59.164  1.00 59.31 LIG-0.35  N 
ATOM     39  C   VAL P   7      83.263  -1.860  57.943  1.00 65.10 LIG 0.24  C 
ATOM     40 O    VAL P   7      82.590  -2.023  56.916  1.00 66.40 LIG-0.27  OA
ATOM     41 H    TYR P   8      83.208  -1.822  59.882  1.00 59.31 LIG 0.16  HD
BRANCH 39 42
ATOM     42  CA  VAL P   7      84.764  -1.619  57.858  1.00 68.90 LIG 0.18  C 
BRANCH 42 43
ATOM     43  N   VAL P   7      85.013  -0.184  57.889  1.00 69.26 LIG-0.34  N 
ATOM     44  C   LEU P   6      85.667   0.456  56.925  1.00 74.59 LIG 0.26  C 
ATOM     45 O    LEU P   6      86.079  -0.111  55.909  1.00 73.78 LIG-0.27  OA
ATOM     46 H    VAL P   7      84.699   0.208  58.587  1.00 69.26 LIG 0.16  HD
BRANCH 44 47
ATOM     47  CA  LEU P   6      85.862   1.959  57.142  1.00 78.06 LIG 0.40  C 
ATOM     48  N   LEU P   6      85.808   2.671  55.871  1.00 74.40 LIG 0.61  N 
BRANCH 47 49
ATOM     49  CB  LEU P   6      84.818   2.522  58.115  1.00 78.52 LIG 0.06  C 
BRANCH 49 50
ATOM     50  CG  LEU P   6      83.486   3.082  57.605  1.00 77.43 LIG-0.02  C 
ATOM     51  CD2 LEU P   6      83.080   4.357  58.335  1.00 73.93 LIG 0.01  C 
ATOM     52  CD1 LEU P   6      82.432   2.005  57.748  1.00 75.78 LIG 0.01  C 
ENDBRANCH 49 50
ENDBRANCH 47 49
ENDBRANCH 44 47
ENDBRANCH 42 43
BRANCH 42 53
ATOM     53  CB  VAL P   7      85.505  -2.335  59.001  1.00 67.45 LIG 0.01  C 
ATOM     54  CG2 VAL P   7      86.542  -1.412  59.614  1.00 67.18 LIG 0.01  C 
ATOM     55  CG1 VAL P   7      86.160  -3.604  58.494  1.00 63.58 LIG 0.01  C 
ENDBRANCH 42 53
ENDBRANCH 39 42
ENDBRANCH 1 38
TORSDOF 20
ENDMDL
MODEL 7
USER: ADFR SOLUTION from run 96
USER: SCORE 18.629097 LL:  -4.628 LR: -16.370 RR:   0.000 FEB: -10.404
USER: RMSD 5.904863
USER: SEED 95
USER: STATUS no improvement in best in 17 clusters for 5 generations
USER: GENES 22
USER: genes 0 Translation |==|  0.40883 0.47003 0.52037
USER: genes 1 Rotation |==|  0.32736 0.56389 0.37395 0.94747
USER: genes 2 Torsion [N]-CA--C-[N] |==|  0.25662
USER: genes 3 Torsion [C]-N--CA-[CB] |==|  0.41602
USER: genes 4 Torsion [N]-CA--CB-[CG] |==|  0.07945
USER: genes 5 Torsion [CA]-CB--CG-[CD] |==|  0.33493
USER: genes 6 Torsion [CB]-CG--CD-[OE1] |==|  0.81154
USER: genes 7 Torsion [N]-CA--C-[N] |==|  0.18604
USER: genes 8 Torsion [C]-N--CA-[C] |==|  0.18378
USER: genes 9 Torsion [N]-CA--C-[O] |==|  0.85294
USER: genes 10 Torsion [N]-CA--CB-[CG] |==|  0.84590
USER: genes 11 Torsion [CA]-CB--CG-[CD1] |==|  0.21860
USER: genes 12 Torsion [C]-CA--CB-[CG] |==|  0.13740
USER: genes 13 Torsion [CA]-CB--CG-[CD1] |==|  0.69356
USER: genes 14 Torsion [CE1]-CZ--OH-[HH] |==|  0.29789
USER: genes 15 Torsion [C]-CA--N-[C] |==|  0.62403
USER: genes 16 Torsion [N]-C--CA-[N] |==|  0.48608
USER: genes 17 Torsion [C]-CA--N-[C] |==|  0.60561
USER: genes 18 Torsion [N]-C--CA-[N] |==|  0.61928
USER: genes 19 Torsion [C]-CA--CB-[CG] |==|  0.22847
USER: genes 20 Torsion [CA]-CB--CG-[CD2] |==|  0.63832
USER: genes 21 Torsion [C]-CA--CB-[CG2] |==|  0.90688
ROOT
ATOM      1  CA  TYR P   8      80.498  -2.841  61.107  1.00 57.99 LIG 0.18  C 
ENDROOT
BRANCH 1 2
ATOM      2  C   TYR P   8      80.807  -1.525  60.408  1.00 56.68 LIG 0.24  C 
ATOM      3  N   GLN P   9      80.535  -1.466  59.109  1.00 57.67 LIG-0.35  N 
ATOM      4 H    GLN P   9      80.257  -2.136  58.647  1.00 57.67 LIG 0.16  HD
ATOM      5 O    TYR P   8      81.284  -0.580  61.045  1.00 54.26 LIG-0.27  OA
BRANCH 3 6
ATOM      6  CA  GLN P   9      80.690  -0.236  58.344  1.00 54.86 LIG 0.18  C 
BRANCH 6 7
ATOM      7  CB  GLN P   9      81.048  -0.534  56.890  1.00 52.41 LIG 0.04  C 
BRANCH 7 8
ATOM      8  CG  GLN P   9      80.518  -1.865  56.388  1.00 53.63 LIG 0.10  C 
BRANCH 8 9
ATOM      9  CD  GLN P   9      79.597  -1.704  55.201  1.00 56.56 LIG 0.21  C 
ATOM     10 OE1  GLN P   9      78.498  -1.165  55.327  1.00 59.67 LIG-0.27  OA
ATOM     11  NE2 GLN P   9      80.037  -2.171  54.037  1.00 58.55 LIG-0.37  N 
ATOM     12 22HE GLN P   9      79.548  -2.103  53.333  1.00 58.55 LIG 0.16  HD
ATOM     13 21HE GLN P   9      80.811  -2.542  53.988  1.00 58.55 LIG 0.16  HD
ENDBRANCH 8 9
ENDBRANCH 7 8
ENDBRANCH 6 7
BRANCH 6 14
ATOM     14  C   GLN P   9      79.394   0.561  58.425  1.00 54.72 LIG 0.24  C 
ATOM     15 O    GLN P   9      78.693   0.718  57.419  1.00 59.60 LIG-0.27  OA
ATOM     16  N   PHE P  10      79.071   1.049  59.617  1.00 49.02 LIG-0.34  N 
ATOM     17 H    PHE P  10      79.520   0.908  60.337  1.00 49.02 LIG 0.16  HD
BRANCH 16 18
ATOM     18  CA  PHE P  10      77.891   1.886  59.790  1.00 50.33 LIG 0.19  C 
BRANCH 18 19
ATOM     19  C   PHE P  10      76.608   1.104  59.536  1.00 49.91 LIG 0.20  C 
ATOM     20 O    PHE P  10      76.460   0.473  58.487  1.00 45.93 LIG-0.65  OA
ATOM     21 OXT  PHE P  10      75.696   1.098  60.364  1.00 46.36 LIG-0.65  OA
ENDBRANCH 18 19
BRANCH 18 22
ATOM     22  CB  PHE P  10      77.959   3.115  58.879  1.00 51.88 LIG 0.07  C 
BRANCH 22 23
ATOM     23  CG  PHE P  10      79.201   3.948  59.052  1.00 51.17 LIG-0.06  A 
ATOM     24  CD1 PHE P  10      80.400   3.554  58.479  1.00 49.53 LIG 0.01  A 
ATOM     25  CE1 PHE P  10      81.544   4.309  58.648  1.00 54.45 LIG 0.00  A 
ATOM     26  CZ  PHE P  10      81.505   5.460  59.409  1.00 54.40 LIG 0.00  A 
ATOM     27  CE2 PHE P  10      80.321   5.860  59.990  1.00 52.97 LIG 0.00  A 
ATOM     28  CD2 PHE P  10      79.178   5.102  59.818  1.00 50.02 LIG 0.01  A 
ENDBRANCH 22 23
ENDBRANCH 18 22
ENDBRANCH 16 18
ENDBRANCH 6 14
ENDBRANCH 3 6
ENDBRANCH 1 2
BRANCH 1 29
ATOM     29  CB  TYR P   8      80.034  -2.578  62.539  1.00 54.61 LIG 0.07  C 
BRANCH 29 30
ATOM     30  CG  TYR P   8      78.950  -1.535  62.667  1.00 66.64 LIG-0.06  A 
ATOM     31  CD1 TYR P   8      79.215  -0.299  63.243  1.00 68.29 LIG 0.01  A 
ATOM     32  CE1 TYR P   8      78.228   0.655  63.368  1.00 71.89 LIG 0.04  A 
ATOM     33  CZ  TYR P   8      76.954   0.378  62.918  1.00 71.50 LIG 0.07  A 
ATOM     34  CE2 TYR P   8      76.664  -0.842  62.347  1.00 69.11 LIG 0.04  A 
ATOM     35  CD2 TYR P   8      77.658  -1.791  62.227  1.00 65.21 LIG 0.01  A 
BRANCH 33 36
ATOM     36 OH   TYR P   8      75.966   1.327  63.042  1.00 83.55 LIG-0.36  OA
ATOM     37 HH   TYR P   8      75.792   1.650  62.286  1.00 83.55 LIG 0.22  HD
ENDBRANCH 33 36
ENDBRANCH 29 30
ENDBRANCH 1 29
BRANCH 1 38
ATOM     38  N   TYR P   8      81.692  -3.674  61.085  1.00 59.31 LIG-0.35  N 
ATOM     39  C   VAL P   7      81.664  -4.969  60.779  1.00 65.10 LIG 0.24  C 
ATOM     40 O    VAL P   7      80.615  -5.587  60.557  1.00 66.40 LIG-0.27  OA
ATOM     41 H    TYR P   8      82.414  -3.252  61.288  1.00 59.31 LIG 0.16  HD
BRANCH 39 42
ATOM     42  CA  VAL P   7      83.011  -5.676  60.716  1.00 68.90 LIG 0.18  C 
BRANCH 42 43
ATOM     43  N   VAL P   7      82.787  -7.097  60.489  1.00 69.26 LIG-0.34  N 
ATOM     44  C   LEU P   6      83.521  -8.045  61.065  1.00 74.59 LIG 0.26  C 
ATOM     45 O    LEU P   6      84.424  -7.793  61.867  1.00 73.78 LIG-0.27  OA
ATOM     46 H    VAL P   7      82.138  -7.265  59.951  1.00 69.26 LIG 0.16  HD
BRANCH 44 47
ATOM     47  CA  LEU P   6      83.160  -9.484  60.685  1.00 78.06 LIG 0.40  C 
ATOM     48  N   LEU P   6      83.163 -10.341  61.865  1.00 74.40 LIG 0.61  N 
BRANCH 47 49
ATOM     49  CB  LEU P   6      81.799  -9.550  59.980  1.00 78.52 LIG 0.06  C 
BRANCH 49 50
ATOM     50  CG  LEU P   6      81.671  -9.253  58.483  1.00 77.43 LIG-0.02  C 
ATOM     51  CD2 LEU P   6      80.561  -8.251  58.186  1.00 73.93 LIG 0.01  C 
ATOM     52  CD1 LEU P   6      81.442 -10.561  57.757  1.00 75.78 LIG 0.01  C 
ENDBRANCH 49 50
ENDBRANCH 47 49
ENDBRANCH 44 47
ENDBRANCH 42 43
BRANCH 42 53
ATOM     53  CB  VAL P   7      83.902  -5.074  59.616  1.00 67.45 LIG 0.01  C 
ATOM     54  CG2 VAL P   7      83.053  -4.610  58.446  1.00 67.18 LIG 0.01  C 
ATOM     55  CG1 VAL P   7      84.931  -6.087  59.154  1.00 63.58 LIG 0.01  C 
ENDBRANCH 42 53
ENDBRANCH 39 42
ENDBRANCH 1 38
TORSDOF 20
ENDMDL
MODEL 8
USER: ADFR SOLUTION from run 147
USER: SCORE 19.049604 LL:  -3.918 LR: -16.307 RR:   0.000 FEB: -10.341
USER: RMSD 7.570402
USER: SEED 146
USER: STATUS no improvement in best in 6 clusters for 5 generations
USER: GENES 22
USER: genes 0 Translation |==|  0.37855 0.78258 0.28718
USER: genes 1 Rotation |==|  0.97488 0.55594 0.54204 0.63995
USER: genes 2 Torsion [N]-CA--C-[N] |==|  0.36838
USER: genes 3 Torsion [C]-N--CA-[CB] |==|  0.18866
USER: genes 4 Torsion [N]-CA--CB-[CG] |==|  0.69231
USER: genes 5 Torsion [CA]-CB--CG-[CD] |==|  0.52339
USER: genes 6 Torsion [CB]-CG--CD-[OE1] |==|  0.04994
USER: genes 7 Torsion [N]-CA--C-[N] |==|  0.75000
USER: genes 8 Torsion [C]-N--CA-[C] |==|  0.59393
USER: genes 9 Torsion [N]-CA--C-[O] |==|  0.53011
USER: genes 10 Torsion [N]-CA--CB-[CG] |==|  0.17152
USER: genes 11 Torsion [CA]-CB--CG-[CD1] |==|  0.27055
USER: genes 12 Torsion [C]-CA--CB-[CG] |==|  0.27228
USER: genes 13 Torsion [CA]-CB--CG-[CD1] |==|  0.51158
USER: genes 14 Torsion [CE1]-CZ--OH-[HH] |==|  0.24702
USER: genes 15 Torsion [C]-CA--N-[C] |==|  0.78048
USER: genes 16 Torsion [N]-C--CA-[N] |==|  0.89831
USER: genes 17 Torsion [C]-CA--N-[C] |==|  0.85153
USER: genes 18 Torsion [N]-C--CA-[N] |==|  0.04332
USER: genes 19 Torsion [C]-CA--CB-[CG] |==|  0.80824
USER: genes 20 Torsion [CA]-CB--CG-[CD2] |==|  0.60445
USER: genes 21 Torsion [C]-CA--CB-[CG2] |==|  0.32117
ROOT
ATOM      1  CA  TYR P   8      79.816   4.191  56.909  1.00 57.99 LIG 0.18  C 
ENDROOT
BRANCH 1 2
ATOM      2  C   TYR P   8      79.733   2.742  57.368  1.00 56.68 LIG 0.24  C 
ATOM      3  N   GLN P   9      78.765   2.449  58.231  1.00 57.67 LIG-0.35  N 
ATOM      4 H    GLN P   9      78.238   3.034  58.576  1.00 57.67 LIG 0.16  HD
ATOM      5 O    TYR P   8      80.536   1.907  56.941  1.00 54.26 LIG-0.27  OA
BRANCH 3 6
ATOM      6  CA  GLN P   9      78.513   1.083  58.671  1.00 54.86 LIG 0.18  C 
BRANCH 6 7
ATOM      7  CB  GLN P   9      79.662   0.562  59.530  1.00 52.41 LIG 0.04  C 
BRANCH 7 8
ATOM      8  CG  GLN P   9      80.481  -0.530  58.863  1.00 53.63 LIG 0.10  C 
BRANCH 8 9
ATOM      9  CD  GLN P   9      81.475  -1.161  59.812  1.00 56.56 LIG 0.21  C 
ATOM     10 OE1  GLN P   9      81.349  -1.034  61.029  1.00 59.67 LIG-0.27  OA
ATOM     11  NE2 GLN P   9      82.472  -1.845  59.260  1.00 58.55 LIG-0.37  N 
ATOM     12 22HE GLN P   9      83.063  -2.222  59.759  1.00 58.55 LIG 0.16  HD
ATOM     13 21HE GLN P   9      82.526  -1.912  58.405  1.00 58.55 LIG 0.16  HD
ENDBRANCH 8 9
ENDBRANCH 7 8
ENDBRANCH 6 7
BRANCH 6 14
ATOM     14  C   GLN P   9      77.203   1.050  59.448  1.00 54.72 LIG 0.24  C 
ATOM     15 O    GLN P   9      76.136   0.832  58.865  1.00 59.60 LIG-0.27  OA
ATOM     16  N   PHE P  10      77.286   1.253  60.759  1.00 49.02 LIG-0.34  N 
ATOM     17 H    PHE P  10      78.024   1.357  61.188  1.00 49.02 LIG 0.16  HD
BRANCH 16 18
ATOM     18  CA  PHE P  10      76.088   1.315  61.584  1.00 50.33 LIG 0.19  C 
BRANCH 18 19
ATOM     19  C   PHE P  10      76.253   2.296  62.738  1.00 49.91 LIG 0.20  C 
ATOM     20 O    PHE P  10      75.424   2.333  63.649  1.00 45.93 LIG-0.65  OA
ATOM     21 OXT  PHE P  10      77.208   3.075  62.776  1.00 46.36 LIG-0.65  OA
ENDBRANCH 18 19
BRANCH 18 22
ATOM     22  CB  PHE P  10      75.720  -0.074  62.113  1.00 51.88 LIG 0.07  C 
BRANCH 22 23
ATOM     23  CG  PHE P  10      76.767  -0.700  62.996  1.00 51.17 LIG-0.06  A 
ATOM     24  CD1 PHE P  10      76.664  -0.623  64.375  1.00 49.53 LIG 0.01  A 
ATOM     25  CE1 PHE P  10      77.630  -1.183  65.187  1.00 54.45 LIG 0.00  A 
ATOM     26  CZ  PHE P  10      78.722  -1.814  64.626  1.00 54.40 LIG 0.00  A 
ATOM     27  CE2 PHE P  10      78.841  -1.892  63.255  1.00 52.97 LIG 0.00  A 
ATOM     28  CD2 PHE P  10      77.871  -1.330  62.446  1.00 50.02 LIG 0.01  A 
ENDBRANCH 22 23
ENDBRANCH 18 22
ENDBRANCH 16 18
ENDBRANCH 6 14
ENDBRANCH 3 6
ENDBRANCH 1 2
BRANCH 1 29
ATOM     29  CB  TYR P   8      79.291   4.318  55.480  1.00 54.61 LIG 0.07  C 
BRANCH 29 30
ATOM     30  CG  TYR P   8      77.859   4.783  55.375  1.00 66.64 LIG-0.06  A 
ATOM     31  CD1 TYR P   8      77.225   4.861  54.141  1.00 68.29 LIG 0.01  A 
ATOM     32  CE1 TYR P   8      75.918   5.290  54.038  1.00 71.89 LIG 0.04  A 
ATOM     33  CZ  TYR P   8      75.230   5.653  55.177  1.00 71.50 LIG 0.07  A 
ATOM     34  CE2 TYR P   8      75.839   5.589  56.412  1.00 69.11 LIG 0.04  A 
ATOM     35  CD2 TYR P   8      77.146   5.159  56.505  1.00 65.21 LIG 0.01  A 
BRANCH 33 36
ATOM     36 OH   TYR P   8      73.927   6.082  55.079  1.00 83.55 LIG-0.36  OA
ATOM     37 HH   TYR P   8      73.410   5.422  55.130  1.00 83.55 LIG 0.22  HD
ENDBRANCH 33 36
ENDBRANCH 29 30
ENDBRANCH 1 29
BRANCH 1 38
ATOM     38  N   TYR P   8      81.201   4.632  57.003  1.00 59.31 LIG-0.35  N 
ATOM     39  C   VAL P   7      81.767   4.995  58.151  1.00 65.10 LIG 0.24  C 
ATOM     40 O    VAL P   7      81.146   5.055  59.220  1.00 66.40 LIG-0.27  OA
ATOM     41 H    TYR P   8      81.616   4.636  56.250  1.00 59.31 LIG 0.16  HD
BRANCH 39 42
ATOM     42  CA  VAL P   7      83.248   5.345  58.091  1.00 68.90 LIG 0.18  C 
BRANCH 42 43
ATOM     43  N   VAL P   7      83.904   4.459  57.140  1.00 69.26 LIG-0.34  N 
ATOM     44  C   LEU P   6      83.814   3.134  57.206  1.00 74.59 LIG 0.26  C 
ATOM     45 O    LEU P   6      83.134   2.554  58.057  1.00 73.78 LIG-0.27  OA
ATOM     46 H    VAL P   7      84.353   4.872  56.533  1.00 69.26 LIG 0.16  HD
BRANCH 44 47
ATOM     47  CA  LEU P   6      84.596   2.363  56.139  1.00 78.06 LIG 0.40  C 
ATOM     48  N   LEU P   6      85.570   3.231  55.490  1.00 74.40 LIG 0.61  N 
BRANCH 47 49
ATOM     49  CB  LEU P   6      85.290   1.132  56.737  1.00 78.52 LIG 0.06  C 
BRANCH 49 50
ATOM     50  CG  LEU P   6      86.467   1.284  57.706  1.00 77.43 LIG-0.02  C 
ATOM     51  CD2 LEU P   6      87.533   0.216  57.490  1.00 73.93 LIG 0.01  C 
ATOM     52  CD1 LEU P   6      85.926   1.247  59.119  1.00 75.78 LIG 0.01  C 
ENDBRANCH 49 50
ENDBRANCH 47 49
ENDBRANCH 44 47
ENDBRANCH 42 43
BRANCH 42 53
ATOM     53  CB  VAL P   7      83.452   6.820  57.706  1.00 67.45 LIG 0.01  C 
ATOM     54  CG2 VAL P   7      84.105   7.577  58.849  1.00 67.18 LIG 0.01  C 
ATOM     55  CG1 VAL P   7      82.129   7.460  57.336  1.00 63.58 LIG 0.01  C 
ENDBRANCH 42 53
ENDBRANCH 39 42
ENDBRANCH 1 38
TORSDOF 20
ENDMDL
MODEL 9
USER: ADFR SOLUTION from run 137
USER: SCORE 20.671337 LL:  -5.172 LR: -16.245 RR:   0.000 FEB: -10.279
USER: RMSD 4.905628
USER: SEED 136
USER: STATUS no improvement in best in 3 clusters for 5 generations
USER: GENES 22
USER: genes 0 Translation |==|  0.43942 0.59465 0.42918
USER: genes 1 Rotation |==|  0.80490 0.12365 0.56292 0.60696
USER: genes 2 Torsion [N]-CA--C-[N] |==|  0.38848
USER: genes 3 Torsion [C]-N--CA-[CB] |==|  0.80000
USER: genes 4 Torsion [N]-CA--CB-[CG] |==|  0.70152
USER: genes 5 Torsion [CA]-CB--CG-[CD] |==|  0.77747
USER: genes 6 Torsion [CB]-CG--CD-[OE1] |==|  0.80903
USER: genes 7 Torsion [N]-CA--C-[N] |==|  0.21572
USER: genes 8 Torsion [C]-N--CA-[C] |==|  0.56744
USER: genes 9 Torsion [N]-CA--C-[O] |==|  0.47513
USER: genes 10 Torsion [N]-CA--CB-[CG] |==|  0.22419
USER: genes 11 Torsion [CA]-CB--CG-[CD1] |==|  0.78059
USER: genes 12 Torsion [C]-CA--CB-[CG] |==|  0.54539
USER: genes 13 Torsion [CA]-CB--CG-[CD1] |==|  0.73482
USER: genes 14 Torsion [CE1]-CZ--OH-[HH] |==|  0.38189
USER: genes 15 Torsion [C]-CA--N-[C] |==|  0.74005
USER: genes 16 Torsion [N]-C--CA-[N] |==|  0.07466
USER: genes 17 Torsion [C]-CA--N-[C] |==|  0.65661
USER: genes 18 Torsion [N]-C--CA-[N] |==|  0.32405
USER: genes 19 Torsion [C]-CA--CB-[CG] |==|  0.21084
USER: genes 20 Torsion [CA]-CB--CG-[CD2] |==|  0.69189
USER: genes 21 Torsion [C]-CA--CB-[CG2] |==|  0.67831
ROOT
ATOM      1  CA  TYR P   8      81.186  -0.037  59.465  1.00 57.99 LIG 0.18  C 
ENDROOT
BRANCH 1 2
ATOM      2  C   TYR P   8      79.812   0.484  59.070  1.00 56.68 LIG 0.24  C 
ATOM      3  N   GLN P   9      79.607   1.789  59.218  1.00 57.67 LIG-0.35  N 
ATOM      4 H    GLN P   9      80.179   2.325  59.572  1.00 57.67 LIG 0.16  HD
ATOM      5 O    TYR P   8      78.954  -0.292  58.635  1.00 54.26 LIG-0.27  OA
BRANCH 3 6
ATOM      6  CA  GLN P   9      78.374   2.430  58.783  1.00 54.86 LIG 0.18  C 
BRANCH 6 7
ATOM      7  CB  GLN P   9      78.302   2.507  57.260  1.00 52.41 LIG 0.04  C 
BRANCH 7 8
ATOM      8  CG  GLN P   9      78.505   3.906  56.706  1.00 53.63 LIG 0.10  C 
BRANCH 8 9
ATOM      9  CD  GLN P   9      77.251   4.746  56.796  1.00 56.56 LIG 0.21  C 
ATOM     10 OE1  GLN P   9      76.269   4.485  56.100  1.00 59.67 LIG-0.27  OA
ATOM     11  NE2 GLN P   9      77.273   5.760  57.654  1.00 58.55 LIG-0.37  N 
ATOM     12 22HE GLN P   9      76.583   6.267  57.740  1.00 58.55 LIG 0.16  HD
ATOM     13 21HE GLN P   9      77.978   5.911  58.123  1.00 58.55 LIG 0.16  HD
ENDBRANCH 8 9
ENDBRANCH 7 8
ENDBRANCH 6 7
BRANCH 6 14
ATOM     14  C   GLN P   9      77.190   1.648  59.338  1.00 54.72 LIG 0.24  C 
ATOM     15 O    GLN P   9      76.560   0.869  58.613  1.00 59.60 LIG-0.27  OA
ATOM     16  N   PHE P  10      76.898   1.843  60.619  1.00 49.02 LIG-0.34  N 
ATOM     17 H    PHE P  10      77.355   2.342  61.150  1.00 49.02 LIG 0.16  HD
BRANCH 16 18
ATOM     18  CA  PHE P  10      75.742   1.201  61.230  1.00 50.33 LIG 0.19  C 
BRANCH 18 19
ATOM     19  C   PHE P  10      75.251   1.975  62.447  1.00 49.91 LIG 0.20  C 
ATOM     20 O    PHE P  10      74.187   1.672  62.991  1.00 45.93 LIG-0.65  OA
ATOM     21 OXT  PHE P  10      75.899   2.919  62.902  1.00 46.36 LIG-0.65  OA
ENDBRANCH 18 19
BRANCH 18 22
ATOM     22  CB  PHE P  10      76.062  -0.247  61.610  1.00 51.88 LIG 0.07  C 
BRANCH 22 23
ATOM     23  CG  PHE P  10      76.814  -0.397  62.906  1.00 51.17 LIG-0.06  A 
ATOM     24  CD1 PHE P  10      78.179  -0.169  62.960  1.00 49.53 LIG 0.01  A 
ATOM     25  CE1 PHE P  10      78.873  -0.320  64.144  1.00 54.45 LIG 0.00  A 
ATOM     26  CZ  PHE P  10      78.209  -0.719  65.288  1.00 54.40 LIG 0.00  A 
ATOM     27  CE2 PHE P  10      76.853  -0.955  65.246  1.00 52.97 LIG 0.00  A 
ATOM     28  CD2 PHE P  10      76.161  -0.803  64.059  1.00 50.02 LIG 0.01  A 
ENDBRANCH 22 23
ENDBRANCH 18 22
ENDBRANCH 16 18
ENDBRANCH 6 14
ENDBRANCH 3 6
ENDBRANCH 1 2
BRANCH 1 29
ATOM     29  CB  TYR P   8      82.068  -0.182  58.226  1.00 54.61 LIG 0.07  C 
BRANCH 29 30
ATOM     30  CG  TYR P   8      83.295  -1.038  58.423  1.00 66.64 LIG-0.06  A 
ATOM     31  CD1 TYR P   8      84.521  -0.464  58.736  1.00 68.29 LIG 0.01  A 
ATOM     32  CE1 TYR P   8      85.647  -1.241  58.912  1.00 71.89 LIG 0.04  A 
ATOM     33  CZ  TYR P   8      85.557  -2.610  58.771  1.00 71.50 LIG 0.07  A 
ATOM     34  CE2 TYR P   8      84.353  -3.203  58.457  1.00 69.11 LIG 0.04  A 
ATOM     35  CD2 TYR P   8      83.233  -2.418  58.282  1.00 65.21 LIG 0.01  A 
BRANCH 33 36
ATOM     36 OH   TYR P   8      86.678  -3.388  58.945  1.00 83.55 LIG-0.36  OA
ATOM     37 HH   TYR P   8      86.478  -4.071  59.391  1.00 83.55 LIG 0.22  HD
ENDBRANCH 33 36
ENDBRANCH 29 30
ENDBRANCH 1 29
BRANCH 1 38
ATOM     38  N   TYR P   8      81.023  -1.314  60.148  1.00 59.31 LIG-0.35  N 
ATOM     39  C   VAL P   7      80.932  -1.419  61.470  1.00 65.10 LIG 0.24  C 
ATOM     40 O    VAL P   7      81.049  -0.451  62.233  1.00 66.40 LIG-0.27  OA
ATOM     41 H    TYR P   8      80.992  -1.990  59.617  1.00 59.31 LIG 0.16  HD
BRANCH 39 42
ATOM     42  CA  VAL P   7      80.677  -2.816  62.020  1.00 68.90 LIG 0.18  C 
BRANCH 42 43
ATOM     43  N   VAL P   7      81.204  -3.796  61.080  1.00 69.26 LIG-0.34  N 
ATOM     44  C   LEU P   6      80.459  -4.761  60.549  1.00 74.59 LIG 0.26  C 
ATOM     45 O    LEU P   6      79.253  -4.876  60.782  1.00 73.78 LIG-0.27  OA
ATOM     46 H    VAL P   7      82.039  -3.692  60.901  1.00 69.26 LIG 0.16  HD
BRANCH 44 47
ATOM     47  CA  LEU P   6      81.190  -5.718  59.603  1.00 78.06 LIG 0.40  C 
ATOM     48  N   LEU P   6      81.183  -7.073  60.140  1.00 74.40 LIG 0.61  N 
BRANCH 47 49
ATOM     49  CB  LEU P   6      80.572  -5.695  58.200  1.00 78.52 LIG 0.06  C 
BRANCH 49 50
ATOM     50  CG  LEU P   6      80.833  -4.529  57.240  1.00 77.43 LIG-0.02  C 
ATOM     51  CD2 LEU P   6      79.587  -3.684  57.006  1.00 73.93 LIG 0.01  C 
ATOM     52  CD1 LEU P   6      81.369  -5.094  55.942  1.00 75.78 LIG 0.01  C 
ENDBRANCH 49 50
ENDBRANCH 47 49
ENDBRANCH 44 47
ENDBRANCH 42 43
BRANCH 42 53
ATOM     53  CB  VAL P   7      81.310  -2.988  63.411  1.00 67.45 LIG 0.01  C 
ATOM     54  CG2 VAL P   7      82.401  -4.042  63.366  1.00 67.18 LIG 0.01  C 
ATOM     55  CG1 VAL P   7      80.253  -3.365  64.431  1.00 63.58 LIG 0.01  C 
ENDBRANCH 42 53
ENDBRANCH 39 42
ENDBRANCH 1 38
TORSDOF 20
ENDMDL
MODEL 10
USER: ADFR SOLUTION from run 9
USER: SCORE 19.516142 LL:  -4.245 LR: -16.249 RR:   0.000 FEB: -10.283
USER: RMSD 5.248017
USER: SEED 170800
USER: STATUS no improvement in best in 9 clusters for 5 generations
USER: GENES 22
USER: genes 0 Translation |==|  0.41502 0.45217 0.40373
USER: genes 1 Rotation |==|  0.30647 0.76968 0.45240 0.87088
USER: genes 2 Torsion [N]-CA--C-[N] |==|  0.39100
USER: genes 3 Torsion [C]-N--CA-[CB] |==|  0.17778
USER: genes 4 Torsion [N]-CA--CB-[CG] |==|  0.08993
USER: genes 5 Torsion [CA]-CB--CG-[CD] |==|  0.32874
USER: genes 6 Torsion [CB]-CG--CD-[OE1] |==|  0.55209
USER: genes 7 Torsion [N]-CA--C-[N] |==|  0.22240
USER: genes 8 Torsion [C]-N--CA-[C] |==|  0.60715
USER: genes 9 Torsion [N]-CA--C-[O] |==|  0.53695
USER: genes 10 Torsion [N]-CA--CB-[CG] |==|  0.19751
USER: genes 11 Torsion [CA]-CB--CG-[CD1] |==|  0.92409
USER: genes 12 Torsion [C]-CA--CB-[CG] |==|  0.29230
USER: genes 13 Torsion [CA]-CB--CG-[CD1] |==|  0.45021
USER: genes 14 Torsion [CE1]-CZ--OH-[HH] |==|  0.71366
USER: genes 15 Torsion [C]-CA--N-[C] |==|  0.71099
USER: genes 16 Torsion [N]-C--CA-[N] |==|  0.41186
USER: genes 17 Torsion [C]-CA--N-[C] |==|  0.78979
USER: genes 18 Torsion [N]-C--CA-[N] |==|  0.54488
USER: genes 19 Torsion [C]-CA--CB-[CG] |==|  0.41674
USER: genes 20 Torsion [CA]-CB--CG-[CD2] |==|  0.62949
USER: genes 21 Torsion [C]-CA--CB-[CG2] |==|  0.51899
ROOT
ATOM      1  CA  TYR P   8      80.637  -3.243  59.007  1.00 57.99 LIG 0.18  C 
ENDROOT
BRANCH 1 2
ATOM      2  C   TYR P   8      80.379  -1.879  58.383  1.00 56.68 LIG 0.24  C 
ATOM      3  N   GLN P   9      79.243  -1.278  58.720  1.00 57.67 LIG-0.35  N 
ATOM      4 H    GLN P   9      78.638  -1.641  59.213  1.00 57.67 LIG 0.16  HD
ATOM      5 O    TYR P   8      81.204  -1.383  57.609  1.00 54.26 LIG-0.27  OA
BRANCH 3 6
ATOM      6  CA  GLN P   9      78.922   0.070  58.274  1.00 54.86 LIG 0.18  C 
BRANCH 6 7
ATOM      7  CB  GLN P   9      78.781   0.127  56.755  1.00 52.41 LIG 0.04  C 
BRANCH 7 8
ATOM      8  CG  GLN P   9      78.234  -1.150  56.141  1.00 53.63 LIG 0.10  C 
BRANCH 8 9
ATOM      9  CD  GLN P   9      76.920  -0.926  55.428  1.00 56.56 LIG 0.21  C 
ATOM     10 OE1  GLN P   9      76.173  -1.872  55.176  1.00 59.67 LIG-0.27  OA
ATOM     11  NE2 GLN P   9      76.628   0.327  55.097  1.00 58.55 LIG-0.37  N 
ATOM     12 22HE GLN P   9      75.891   0.504  54.689  1.00 58.55 LIG 0.16  HD
ATOM     13 21HE GLN P   9      77.175   0.961  55.290  1.00 58.55 LIG 0.16  HD
ENDBRANCH 8 9
ENDBRANCH 7 8
ENDBRANCH 6 7
BRANCH 6 14
ATOM     14  C   GLN P   9      77.633   0.520  58.950  1.00 54.72 LIG 0.24  C 
ATOM     15 O    GLN P   9      76.556   0.458  58.346  1.00 59.60 LIG-0.27  OA
ATOM     16  N   PHE P  10      77.739   0.956  60.200  1.00 49.02 LIG-0.34  N 
ATOM     17 H    PHE P  10      78.471   0.960  60.652  1.00 49.02 LIG 0.16  HD
BRANCH 16 18
ATOM     18  CA  PHE P  10      76.581   1.478  60.913  1.00 50.33 LIG 0.19  C 
BRANCH 18 19
ATOM     19  C   PHE P  10      76.950   2.677  61.778  1.00 49.91 LIG 0.20  C 
ATOM     20 O    PHE P  10      76.165   3.094  62.632  1.00 45.93 LIG-0.65  OA
ATOM     21 OXT  PHE P  10      78.029   3.255  61.634  1.00 46.36 LIG-0.65  OA
ENDBRANCH 18 19
BRANCH 18 22
ATOM     22  CB  PHE P  10      75.929   0.384  61.763  1.00 51.88 LIG 0.07  C 
BRANCH 22 23
ATOM     23  CG  PHE P  10      76.733  -0.026  62.969  1.00 51.17 LIG-0.06  A 
ATOM     24  CD1 PHE P  10      78.112   0.099  62.974  1.00 49.53 LIG 0.01  A 
ATOM     25  CE1 PHE P  10      78.852  -0.289  64.072  1.00 54.45 LIG 0.00  A 
ATOM     26  CZ  PHE P  10      78.219  -0.826  65.177  1.00 54.40 LIG 0.00  A 
ATOM     27  CE2 PHE P  10      76.848  -0.962  65.183  1.00 52.97 LIG 0.00  A 
ATOM     28  CD2 PHE P  10      76.111  -0.571  64.081  1.00 50.02 LIG 0.01  A 
ENDBRANCH 22 23
ENDBRANCH 18 22
ENDBRANCH 16 18
ENDBRANCH 6 14
ENDBRANCH 3 6
ENDBRANCH 1 2
BRANCH 1 29
ATOM     29  CB  TYR P   8      81.540  -3.097  60.231  1.00 54.61 LIG 0.07  C 
BRANCH 29 30
ATOM     30  CG  TYR P   8      80.831  -3.242  61.556  1.00 66.64 LIG-0.06  A 
ATOM     31  CD1 TYR P   8      81.545  -3.502  62.720  1.00 68.29 LIG 0.01  A 
ATOM     32  CE1 TYR P   8      80.903  -3.642  63.932  1.00 71.89 LIG 0.04  A 
ATOM     33  CZ  TYR P   8      79.529  -3.527  63.992  1.00 71.50 LIG 0.07  A 
ATOM     34  CE2 TYR P   8      78.799  -3.274  62.851  1.00 69.11 LIG 0.04  A 
ATOM     35  CD2 TYR P   8      79.450  -3.137  61.642  1.00 65.21 LIG 0.01  A 
BRANCH 33 36
ATOM     36 OH   TYR P   8      78.886  -3.667  65.199  1.00 83.55 LIG-0.36  OA
ATOM     37 HH   TYR P   8      78.528  -4.426  65.240  1.00 83.55 LIG 0.22  HD
ENDBRANCH 33 36
ENDBRANCH 29 30
ENDBRANCH 1 29
BRANCH 1 38
ATOM     38  N   TYR P   8      81.244  -4.108  58.005  1.00 59.31 LIG-0.35  N 
ATOM     39  C   VAL P   7      80.572  -5.068  57.377  1.00 65.10 LIG 0.24  C 
ATOM     40 O    VAL P   7      79.396  -5.351  57.641  1.00 66.40 LIG-0.27  OA
ATOM     41 H    TYR P   8      82.075  -3.941  57.859  1.00 59.31 LIG 0.16  HD
BRANCH 39 42
ATOM     42  CA  VAL P   7      81.329  -5.825  56.295  1.00 68.90 LIG 0.18  C 
BRANCH 42 43
ATOM     43  N   VAL P   7      80.839  -7.196  56.247  1.00 69.26 LIG-0.34  N 
ATOM     44  C   LEU P   6      81.164  -8.112  57.155  1.00 74.59 LIG 0.26  C 
ATOM     45 O    LEU P   6      81.876  -7.859  58.130  1.00 73.78 LIG-0.27  OA
ATOM     46 H    VAL P   7      80.321  -7.357  55.580  1.00 69.26 LIG 0.16  HD
BRANCH 44 47
ATOM     47  CA  LEU P   6      80.578  -9.508  56.927  1.00 78.06 LIG 0.40  C 
ATOM     48  N   LEU P   6      80.673 -10.308  58.142  1.00 74.40 LIG 0.61  N 
BRANCH 47 49
ATOM     49  CB  LEU P   6      79.122  -9.430  56.451  1.00 78.52 LIG 0.06  C 
BRANCH 49 50
ATOM     50  CG  LEU P   6      78.531 -10.510  55.539  1.00 77.43 LIG-0.02  C 
ATOM     51  CD2 LEU P   6      77.757  -9.916  54.368  1.00 73.93 LIG 0.01  C 
ATOM     52  CD1 LEU P   6      77.653 -11.413  56.380  1.00 75.78 LIG 0.01  C 
ENDBRANCH 49 50
ENDBRANCH 47 49
ENDBRANCH 44 47
ENDBRANCH 42 43
BRANCH 42 53
ATOM     53  CB  VAL P   7      81.179  -5.136  54.928  1.00 67.45 LIG 0.01  C 
ATOM     54  CG2 VAL P   7      81.798  -5.992  53.837  1.00 67.18 LIG 0.01  C 
ATOM     55  CG1 VAL P   7      81.824  -3.764  54.952  1.00 63.58 LIG 0.01  C 
ENDBRANCH 42 53
ENDBRANCH 39 42
ENDBRANCH 1 38
TORSDOF 20
ENDMDL
MODEL 11
USER: ADFR SOLUTION from run 89
USER: SCORE 19.198473 LL:  -3.760 LR: -16.203 RR:   0.000 FEB: -10.237
USER: RMSD 5.378131
USER: SEED 88
USER: STATUS no improvement in best in 10 clusters for 5 generations
USER: GENES 22
USER: genes 0 Translation |==|  0.42923 0.43027 0.58669
USER: genes 1 Rotation |==|  0.29998 0.66092 0.45548 0.92675
USER: genes 2 Torsion [N]-CA--C-[N] |==|  0.00084
USER: genes 3 Torsion [C]-N--CA-[CB] |==|  0.55256
USER: genes 4 Torsion [N]-CA--CB-[CG] |==|  0.67323
USER: genes 5 Torsion [CA]-CB--CG-[CD] |==|  0.25043
USER: genes 6 Torsion [CB]-CG--CD-[OE1] |==|  0.51280
USER: genes 7 Torsion [N]-CA--C-[N] |==|  0.27222
USER: genes 8 Torsion [C]-N--CA-[C] |==|  0.82091
USER: genes 9 Torsion [N]-CA--C-[O] |==|  0.87559
USER: genes 10 Torsion [N]-CA--CB-[CG] |==|  0.60654
USER: genes 11 Torsion [CA]-CB--CG-[CD1] |==|  0.69428
USER: genes 12 Torsion [C]-CA--CB-[CG] |==|  0.14726
USER: genes 13 Torsion [CA]-CB--CG-[CD1] |==|  0.60569
USER: genes 14 Torsion [CE1]-CZ--OH-[HH] |==|  0.34874
USER: genes 15 Torsion [C]-CA--N-[C] |==|  0.71321
USER: genes 16 Torsion [N]-C--CA-[N] |==|  0.38580
USER: genes 17 Torsion [C]-CA--N-[C] |==|  0.70066
USER: genes 18 Torsion [N]-C--CA-[N] |==|  0.58777
USER: genes 19 Torsion [C]-CA--CB-[CG] |==|  0.23518
USER: genes 20 Torsion [CA]-CB--CG-[CD2] |==|  0.99854
USER: genes 21 Torsion [C]-CA--CB-[CG2] |==|  0.34753
ROOT
ATOM      1  CA  TYR P   8      80.957  -3.736  62.300  1.00 57.99 LIG 0.18  C 
ENDROOT
BRANCH 1 2
ATOM      2  C   TYR P   8      80.700  -2.406  61.606  1.00 56.68 LIG 0.24  C 
ATOM      3  N   GLN P   9      81.512  -2.096  60.600  1.00 57.67 LIG-0.35  N 
ATOM      4 H    GLN P   9      82.191  -2.571  60.370  1.00 57.67 LIG 0.16  HD
ATOM      5 O    TYR P   8      79.776  -1.677  61.981  1.00 54.26 LIG-0.27  OA
BRANCH 3 6
ATOM      6  CA  GLN P   9      81.313  -0.903  59.789  1.00 54.86 LIG 0.18  C 
BRANCH 6 7
ATOM      7  CB  GLN P   9      82.056  -1.013  58.460  1.00 52.41 LIG 0.04  C 
BRANCH 7 8
ATOM      8  CG  GLN P   9      83.133   0.041  58.270  1.00 53.63 LIG 0.10  C 
BRANCH 8 9
ATOM      9  CD  GLN P   9      84.478  -0.414  58.790  1.00 56.56 LIG 0.21  C 
ATOM     10 OE1  GLN P   9      85.442   0.351  58.791  1.00 59.67 LIG-0.27  OA
ATOM     11  NE2 GLN P   9      84.553  -1.663  59.235  1.00 58.55 LIG-0.37  N 
ATOM     12 22HE GLN P   9      85.297  -1.968  59.540  1.00 58.55 LIG 0.16  HD
ATOM     13 21HE GLN P   9      83.857  -2.168  59.218  1.00 58.55 LIG 0.16  HD
ENDBRANCH 8 9
ENDBRANCH 7 8
ENDBRANCH 6 7
BRANCH 6 14
ATOM     14  C   GLN P   9      79.820  -0.709  59.555  1.00 54.72 LIG 0.24  C 
ATOM     15 O    GLN P   9      79.238  -1.347  58.670  1.00 59.60 LIG-0.27  OA
ATOM     16  N   PHE P  10      79.202   0.155  60.352  1.00 49.02 LIG-0.34  N 
ATOM     17 H    PHE P  10      79.579   0.569  61.004  1.00 49.02 LIG 0.16  HD
BRANCH 16 18
ATOM     18  CA  PHE P  10      77.792   0.469  60.166  1.00 50.33 LIG 0.19  C 
BRANCH 18 19
ATOM     19  C   PHE P  10      77.543   1.160  58.831  1.00 49.91 LIG 0.20  C 
ATOM     20 O    PHE P  10      78.284   2.070  58.452  1.00 45.93 LIG-0.65  OA
ATOM     21 OXT  PHE P  10      76.596   0.831  58.115  1.00 46.36 LIG-0.65  OA
ENDBRANCH 18 19
BRANCH 18 22
ATOM     22  CB  PHE P  10      77.271   1.330  61.320  1.00 51.88 LIG 0.07  C 
BRANCH 22 23
ATOM     23  CG  PHE P  10      75.871   0.994  61.762  1.00 51.17 LIG-0.06  A 
ATOM     24  CD1 PHE P  10      74.825   1.868  61.517  1.00 49.53 LIG 0.01  A 
ATOM     25  CE1 PHE P  10      73.543   1.568  61.935  1.00 54.45 LIG 0.00  A 
ATOM     26  CZ  PHE P  10      73.296   0.395  62.620  1.00 54.40 LIG 0.00  A 
ATOM     27  CE2 PHE P  10      74.329  -0.480  62.876  1.00 52.97 LIG 0.00  A 
ATOM     28  CD2 PHE P  10      75.611  -0.177  62.456  1.00 50.02 LIG 0.01  A 
ENDBRANCH 22 23
ENDBRANCH 18 22
ENDBRANCH 16 18
ENDBRANCH 6 14
ENDBRANCH 3 6
ENDBRANCH 1 2
BRANCH 1 29
ATOM     29  CB  TYR P   8      81.208  -3.508  63.790  1.00 54.61 LIG 0.07  C 
BRANCH 29 30
ATOM     30  CG  TYR P   8      80.140  -2.706  64.493  1.00 66.64 LIG-0.06  A 
ATOM     31  CD1 TYR P   8      80.474  -1.783  65.476  1.00 68.29 LIG 0.01  A 
ATOM     32  CE1 TYR P   8      79.503  -1.051  66.125  1.00 71.89 LIG 0.04  A 
ATOM     33  CZ  TYR P   8      78.176  -1.242  65.799  1.00 71.50 LIG 0.07  A 
ATOM     34  CE2 TYR P   8      77.819  -2.155  64.831  1.00 69.11 LIG 0.04  A 
ATOM     35  CD2 TYR P   8      78.798  -2.883  64.187  1.00 65.21 LIG 0.01  A 
BRANCH 33 36
ATOM     36 OH   TYR P   8      77.204  -0.514  66.445  1.00 83.55 LIG-0.36  OA
ATOM     37 HH   TYR P   8      76.726  -0.119  65.878  1.00 83.55 LIG 0.22  HD
ENDBRANCH 33 36
ENDBRANCH 29 30
ENDBRANCH 1 29
BRANCH 1 38
ATOM     38  N   TYR P   8      82.097  -4.382  61.666  1.00 59.31 LIG-0.35  N 
ATOM     39  C   VAL P   7      81.972  -5.395  60.813  1.00 65.10 LIG 0.24  C 
ATOM     40 O    VAL P   7      80.882  -5.917  60.542  1.00 66.40 LIG-0.27  OA
ATOM     41 H    TYR P   8      82.857  -4.048  61.894  1.00 59.31 LIG 0.16  HD
BRANCH 39 42
ATOM     42  CA  VAL P   7      83.256  -5.900  60.171  1.00 68.90 LIG 0.18  C 
BRANCH 42 43
ATOM     43  N   VAL P   7      83.221  -7.356  60.127  1.00 69.26 LIG-0.34  N 
ATOM     44  C   LEU P   6      83.972  -8.120  60.914  1.00 74.59 LIG 0.26  C 
ATOM     45 O    LEU P   6      84.728  -7.655  61.770  1.00 73.78 LIG-0.27  OA
ATOM     46 H    VAL P   7      82.671  -7.672  59.547  1.00 69.26 LIG 0.16  HD
BRANCH 44 47
ATOM     47  CA  LEU P   6      83.824  -9.630  60.707  1.00 78.06 LIG 0.40  C 
ATOM     48  N   LEU P   6      84.032 -10.342  61.962  1.00 74.40 LIG 0.61  N 
BRANCH 47 49
ATOM     49  CB  LEU P   6      82.452  -9.979  60.116  1.00 78.52 LIG 0.06  C 
BRANCH 49 50
ATOM     50  CG  LEU P   6      82.206  -9.924  58.604  1.00 77.43 LIG-0.02  C 
ATOM     51  CD2 LEU P   6      83.446  -9.484  57.834  1.00 73.93 LIG 0.01  C 
ATOM     52  CD1 LEU P   6      81.039  -8.995  58.347  1.00 75.78 LIG 0.01  C 
ENDBRANCH 49 50
ENDBRANCH 47 49
ENDBRANCH 44 47
ENDBRANCH 42 43
BRANCH 42 53
ATOM     53  CB  VAL P   7      83.443  -5.308  58.764  1.00 67.45 LIG 0.01  C 
ATOM     54  CG2 VAL P   7      84.791  -4.618  58.658  1.00 67.18 LIG 0.01  C 
ATOM     55  CG1 VAL P   7      82.325  -4.335  58.446  1.00 63.58 LIG 0.01  C 
ENDBRANCH 42 53
ENDBRANCH 39 42
ENDBRANCH 1 38
TORSDOF 20
ENDMDL
MODEL 12
USER: ADFR SOLUTION from run 51
USER: SCORE 18.719201 LL:  -3.925 LR: -16.187 RR:   0.000 FEB: -10.221
USER: RMSD 10.450540
USER: SEED 50
USER: STATUS no improvement in best in 16 clusters for 5 generations
USER: GENES 22
USER: genes 0 Translation |==|  0.41215 0.45930 0.58913
USER: genes 1 Rotation |==|  0.28290 0.26316 0.87521 0.57739
USER: genes 2 Torsion [N]-CA--C-[N] |==|  0.34953
USER: genes 3 Torsion [C]-N--CA-[CB] |==|  0.18704
USER: genes 4 Torsion [N]-CA--CB-[CG] |==|  0.62689
USER: genes 5 Torsion [CA]-CB--CG-[CD] |==|  0.20202
USER: genes 6 Torsion [CB]-CG--CD-[OE1] |==|  0.78900
USER: genes 7 Torsion [N]-CA--C-[N] |==|  0.70556
USER: genes 8 Torsion [C]-N--CA-[C] |==|  0.58377
USER: genes 9 Torsion [N]-CA--C-[O] |==|  0.67844
USER: genes 10 Torsion [N]-CA--CB-[CG] |==|  0.76412
USER: genes 11 Torsion [CA]-CB--CG-[CD1] |==|  0.79575
USER: genes 12 Torsion [C]-CA--CB-[CG] |==|  0.55745
USER: genes 13 Torsion [CA]-CB--CG-[CD1] |==|  0.70635
USER: genes 14 Torsion [CE1]-CZ--OH-[HH] |==|  0.92384
USER: genes 15 Torsion [C]-CA--N-[C] |==|  0.73017
USER: genes 16 Torsion [N]-C--CA-[N] |==|  0.21245
USER: genes 17 Torsion [C]-CA--N-[C] |==|  0.63142
USER: genes 18 Torsion [N]-C--CA-[N] |==|  0.13058
USER: genes 19 Torsion [C]-CA--CB-[CG] |==|  0.22117
USER: genes 20 Torsion [CA]-CB--CG-[CD2] |==|  0.96809
USER: genes 21 Torsion [C]-CA--CB-[CG2] |==|  0.58763
ROOT
ATOM      1  CA  TYR P   8      80.572  -3.083  62.344  1.00 57.99 LIG 0.18  C 
ENDROOT
BRANCH 1 2
ATOM      2  C   TYR P   8      80.790  -4.263  61.409  1.00 56.68 LIG 0.24  C 
ATOM      3  N   GLN P   9      82.052  -4.598  61.160  1.00 57.67 LIG-0.35  N 
ATOM      4 H    GLN P   9      82.730  -4.154  61.448  1.00 57.67 LIG 0.16  HD
ATOM      5 O    TYR P   8      79.822  -4.859  60.923  1.00 54.26 LIG-0.27  OA
BRANCH 3 6
ATOM      6  CA  GLN P   9      82.396  -5.767  60.363  1.00 54.86 LIG 0.18  C 
BRANCH 6 7
ATOM      7  CB  GLN P   9      81.973  -5.584  58.907  1.00 52.41 LIG 0.04  C 
BRANCH 7 8
ATOM      8  CG  GLN P   9      81.268  -6.792  58.317  1.00 53.63 LIG 0.10  C 
BRANCH 8 9
ATOM      9  CD  GLN P   9      79.866  -6.959  58.858  1.00 56.56 LIG 0.21  C 
ATOM     10 OE1  GLN P   9      79.679  -7.404  59.990  1.00 59.67 LIG-0.27  OA
ATOM     11  NE2 GLN P   9      78.870  -6.603  58.053  1.00 58.55 LIG-0.37  N 
ATOM     12 22HE GLN P   9      78.055  -6.681  58.317  1.00 58.55 LIG 0.16  HD
ATOM     13 21HE GLN P   9      79.041  -6.296  57.269  1.00 58.55 LIG 0.16  HD
ENDBRANCH 8 9
ENDBRANCH 7 8
ENDBRANCH 6 7
BRANCH 6 14
ATOM     14  C   GLN P   9      83.898  -6.005  60.460  1.00 54.72 LIG 0.24  C 
ATOM     15 O    GLN P   9      84.390  -6.480  61.490  1.00 59.60 LIG-0.27  OA
ATOM     16  N   PHE P  10      84.619  -5.689  59.391  1.00 49.02 LIG-0.34  N 
ATOM     17 H    PHE P  10      84.288  -5.404  58.649  1.00 49.02 LIG 0.16  HD
BRANCH 16 18
ATOM     18  CA  PHE P  10      86.071  -5.807  59.404  1.00 50.33 LIG 0.19  C 
BRANCH 18 19
ATOM     19  C   PHE P  10      86.724  -4.782  58.485  1.00 49.91 LIG 0.20  C 
ATOM     20 O    PHE P  10      87.365  -5.149  57.498  1.00 45.93 LIG-0.65  OA
ATOM     21 OXT  PHE P  10      86.634  -3.575  58.717  1.00 46.36 LIG-0.65  OA
ENDBRANCH 18 19
BRANCH 18 22
ATOM     22  CB  PHE P  10      86.504  -7.224  59.019  1.00 51.88 LIG 0.07  C 
BRANCH 22 23
ATOM     23  CG  PHE P  10      86.520  -8.201  60.164  1.00 51.17 LIG-0.06  A 
ATOM     24  CD1 PHE P  10      87.513  -8.141  61.128  1.00 49.53 LIG 0.01  A 
ATOM     25  CE1 PHE P  10      87.539  -9.045  62.172  1.00 54.45 LIG 0.00  A 
ATOM     26  CZ  PHE P  10      86.578 -10.033  62.253  1.00 54.40 LIG 0.00  A 
ATOM     27  CE2 PHE P  10      85.588 -10.109  61.297  1.00 52.97 LIG 0.00  A 
ATOM     28  CD2 PHE P  10      85.565  -9.202  60.255  1.00 50.02 LIG 0.01  A 
ENDBRANCH 22 23
ENDBRANCH 18 22
ENDBRANCH 16 18
ENDBRANCH 6 14
ENDBRANCH 3 6
ENDBRANCH 1 2
BRANCH 1 29
ATOM     29  CB  TYR P   8      79.947  -3.561  63.654  1.00 54.61 LIG 0.07  C 
BRANCH 29 30
ATOM     30  CG  TYR P   8      79.244  -2.485  64.446  1.00 66.64 LIG-0.06  A 
ATOM     31  CD1 TYR P   8      79.815  -1.961  65.598  1.00 68.29 LIG 0.01  A 
ATOM     32  CE1 TYR P   8      79.175  -0.982  66.329  1.00 71.89 LIG 0.04  A 
ATOM     33  CZ  TYR P   8      77.945  -0.518  65.912  1.00 71.50 LIG 0.07  A 
ATOM     34  CE2 TYR P   8      77.356  -1.025  64.774  1.00 69.11 LIG 0.04  A 
ATOM     35  CD2 TYR P   8      78.003  -2.005  64.051  1.00 65.21 LIG 0.01  A 
BRANCH 33 36
ATOM     36 OH   TYR P   8      77.304   0.458  66.638  1.00 83.55 LIG-0.36  OA
ATOM     37 HH   TYR P   8      77.543   0.412  67.442  1.00 83.55 LIG 0.22  HD
ENDBRANCH 33 36
ENDBRANCH 29 30
ENDBRANCH 1 29
BRANCH 1 38
ATOM     38  N   TYR P   8      79.719  -2.109  61.678  1.00 59.31 LIG-0.35  N 
ATOM     39  C   VAL P   7      80.198  -1.045  61.039  1.00 65.10 LIG 0.24  C 
ATOM     40 O    VAL P   7      81.403  -0.758  61.018  1.00 66.40 LIG-0.27  OA
ATOM     41 H    TYR P   8      78.879  -2.285  61.737  1.00 59.31 LIG 0.16  HD
BRANCH 39 42
ATOM     42  CA  VAL P   7      79.178  -0.173  60.321  1.00 68.90 LIG 0.18  C 
BRANCH 42 43
ATOM     43  N   VAL P   7      78.474   0.637  61.307  1.00 69.26 LIG-0.34  N 
ATOM     44  C   LEU P   6      77.150   0.762  61.325  1.00 74.59 LIG 0.26  C 
ATOM     45 O    LEU P   6      76.414   0.169  60.533  1.00 73.78 LIG-0.27  OA
ATOM     46 H    VAL P   7      78.993   1.024  61.873  1.00 69.26 LIG 0.16  HD
BRANCH 44 47
ATOM     47  CA  LEU P   6      76.587   1.678  62.415  1.00 78.06 LIG 0.40  C 
ATOM     48  N   LEU P   6      77.327   2.933  62.462  1.00 74.40 LIG 0.61  N 
BRANCH 47 49
ATOM     49  CB  LEU P   6      75.092   1.947  62.200  1.00 78.52 LIG 0.06  C 
BRANCH 49 50
ATOM     50  CG  LEU P   6      74.037   0.916  62.615  1.00 77.43 LIG-0.02  C 
ATOM     51  CD2 LEU P   6      74.655  -0.432  62.968  1.00 73.93 LIG 0.01  C 
ATOM     52  CD1 LEU P   6      73.033   0.786  61.490  1.00 75.78 LIG 0.01  C 
ENDBRANCH 49 50
ENDBRANCH 47 49
ENDBRANCH 44 47
ENDBRANCH 42 43
BRANCH 42 53
ATOM     53  CB  VAL P   7      79.855   0.711  59.260  1.00 67.45 LIG 0.01  C 
ATOM     54  CG2 VAL P   7      79.107   2.025  59.116  1.00 67.18 LIG 0.01  C 
ATOM     55  CG1 VAL P   7      79.915  -0.011  57.929  1.00 63.58 LIG 0.01  C 
ENDBRANCH 42 53
ENDBRANCH 39 42
ENDBRANCH 1 38
TORSDOF 20
ENDMDL
MODEL 13
USER: ADFR SOLUTION from run 53
USER: SCORE 20.296309 LL:  -5.193 LR: -16.184 RR:   0.000 FEB: -10.218
USER: RMSD 8.189555
USER: SEED 52
USER: STATUS no improvement in best in 2 clusters for 5 generations
USER: GENES 22
USER: genes 0 Translation |==|  0.28622 0.71720 0.55512
USER: genes 1 Rotation |==|  0.14735 0.33638 0.79666 0.60421
USER: genes 2 Torsion [N]-CA--C-[N] |==|  0.35000
USER: genes 3 Torsion [C]-N--CA-[CB] |==|  0.24419
USER: genes 4 Torsion [N]-CA--CB-[CG] |==|  0.09399
USER: genes 5 Torsion [CA]-CB--CG-[CD] |==|  0.34266
USER: genes 6 Torsion [CB]-CG--CD-[OE1] |==|  0.34256
USER: genes 7 Torsion [N]-CA--C-[N] |==|  0.89945
USER: genes 8 Torsion [C]-N--CA-[C] |==|  0.20018
USER: genes 9 Torsion [N]-CA--C-[O] |==|  0.96311
USER: genes 10 Torsion [N]-CA--CB-[CG] |==|  0.79072
USER: genes 11 Torsion [CA]-CB--CG-[CD1] |==|  0.27492
USER: genes 12 Torsion [C]-CA--CB-[CG] |==|  0.99596
USER: genes 13 Torsion [CA]-CB--CG-[CD1] |==|  0.21414
USER: genes 14 Torsion [CE1]-CZ--OH-[HH] |==|  0.10368
USER: genes 15 Torsion [C]-CA--N-[C] |==|  0.86354
USER: genes 16 Torsion [N]-C--CA-[N] |==|  0.40962
USER: genes 17 Torsion [C]-CA--N-[C] |==|  0.81407
USER: genes 18 Torsion [N]-C--CA-[N] |==|  0.52835
USER: genes 19 Torsion [C]-CA--CB-[CG] |==|  0.86535
USER: genes 20 Torsion [CA]-CB--CG-[CD2] |==|  0.63770
USER: genes 21 Torsion [C]-CA--CB-[CG2] |==|  0.85447
ROOT
ATOM      1  CA  TYR P   8      77.739   2.720  61.732  1.00 57.99 LIG 0.18  C 
ENDROOT
BRANCH 1 2
ATOM      2  C   TYR P   8      77.676   1.400  60.977  1.00 56.68 LIG 0.24  C 
ATOM      3  N   GLN P   9      78.571   0.479  61.318  1.00 57.67 LIG-0.35  N 
ATOM      4 H    GLN P   9      79.203   0.613  61.886  1.00 57.67 LIG 0.16  HD
ATOM      5 O    TYR P   8      76.823   1.225  60.100  1.00 54.26 LIG-0.27  OA
BRANCH 3 6
ATOM      6  CA  GLN P   9      78.556  -0.860  60.744  1.00 54.86 LIG 0.18  C 
BRANCH 6 7
ATOM      7  CB  GLN P   9      79.361  -0.911  59.448  1.00 52.41 LIG 0.04  C 
BRANCH 7 8
ATOM      8  CG  GLN P   9      80.569   0.010  59.439  1.00 53.63 LIG 0.10  C 
BRANCH 8 9
ATOM      9  CD  GLN P   9      81.856  -0.735  59.167  1.00 56.56 LIG 0.21  C 
ATOM     10 OE1  GLN P   9      82.580  -0.414  58.224  1.00 59.67 LIG-0.27  OA
ATOM     11  NE2 GLN P   9      82.150  -1.735  59.990  1.00 58.55 LIG-0.37  N 
ATOM     12 22HE GLN P   9      82.872  -2.189  59.875  1.00 58.55 LIG 0.16  HD
ATOM     13 21HE GLN P   9      81.620  -1.930  60.637  1.00 58.55 LIG 0.16  HD
ENDBRANCH 8 9
ENDBRANCH 7 8
ENDBRANCH 6 7
BRANCH 6 14
ATOM     14  C   GLN P   9      79.119  -1.840  61.766  1.00 54.72 LIG 0.24  C 
ATOM     15 O    GLN P   9      78.661  -2.985  61.853  1.00 59.60 LIG-0.27  OA
ATOM     16  N   PHE P  10      80.115  -1.398  62.526  1.00 49.02 LIG-0.34  N 
ATOM     17 H    PHE P  10      80.479  -0.623  62.446  1.00 49.02 LIG 0.16  HD
BRANCH 16 18
ATOM     18  CA  PHE P  10      80.676  -2.228  63.583  1.00 50.33 LIG 0.19  C 
BRANCH 18 19
ATOM     19  C   PHE P  10      81.503  -3.374  63.015  1.00 49.91 LIG 0.20  C 
ATOM     20 O    PHE P  10      81.436  -3.659  61.817  1.00 45.93 LIG-0.65  OA
ATOM     21 OXT  PHE P  10      82.243  -4.042  63.740  1.00 46.36 LIG-0.65  OA
ENDBRANCH 18 19
BRANCH 18 22
ATOM     22  CB  PHE P  10      79.571  -2.766  64.496  1.00 51.88 LIG 0.07  C 
BRANCH 22 23
ATOM     23  CG  PHE P  10      79.005  -1.749  65.451  1.00 51.17 LIG-0.06  A 
ATOM     24  CD1 PHE P  10      77.815  -1.100  65.166  1.00 49.53 LIG 0.01  A 
ATOM     25  CE1 PHE P  10      77.301  -0.156  66.033  1.00 54.45 LIG 0.00  A 
ATOM     26  CZ  PHE P  10      77.983   0.161  67.191  1.00 54.40 LIG 0.00  A 
ATOM     27  CE2 PHE P  10      79.171  -0.473  67.484  1.00 52.97 LIG 0.00  A 
ATOM     28  CD2 PHE P  10      79.682  -1.417  66.613  1.00 50.02 LIG 0.01  A 
ENDBRANCH 22 23
ENDBRANCH 18 22
ENDBRANCH 16 18
ENDBRANCH 6 14
ENDBRANCH 3 6
ENDBRANCH 1 2
BRANCH 1 29
ATOM     29  CB  TYR P   8      76.503   2.877  62.617  1.00 54.61 LIG 0.07  C 
BRANCH 29 30
ATOM     30  CG  TYR P   8      75.513   1.742  62.521  1.00 66.64 LIG-0.06  A 
ATOM     31  CD1 TYR P   8      75.751   0.532  63.161  1.00 68.29 LIG 0.01  A 
ATOM     32  CE1 TYR P   8      74.852  -0.510  63.072  1.00 71.89 LIG 0.04  A 
ATOM     33  CZ  TYR P   8      73.699  -0.353  62.331  1.00 71.50 LIG 0.07  A 
ATOM     34  CE2 TYR P   8      73.442   0.836  61.683  1.00 69.11 LIG 0.04  A 
ATOM     35  CD2 TYR P   8      74.348   1.873  61.777  1.00 65.21 LIG 0.01  A 
BRANCH 33 36
ATOM     36 OH   TYR P   8      72.801  -1.390  62.240  1.00 83.55 LIG-0.36  OA
ATOM     37 HH   TYR P   8      72.761  -1.791  62.976  1.00 83.55 LIG 0.22  HD
ENDBRANCH 33 36
ENDBRANCH 29 30
ENDBRANCH 1 29
BRANCH 1 38
ATOM     38  N   TYR P   8      77.837   3.806  60.767  1.00 59.31 LIG-0.35  N 
ATOM     39  C   VAL P   7      78.713   3.806  59.766  1.00 65.10 LIG 0.24  C 
ATOM     40 O    VAL P   7      79.562   2.919  59.613  1.00 66.40 LIG-0.27  OA
ATOM     41 H    TYR P   8      77.278   4.445  60.906  1.00 59.31 LIG 0.16  HD
BRANCH 39 42
ATOM     42  CA  VAL P   7      78.626   4.975  58.795  1.00 68.90 LIG 0.18  C 
BRANCH 42 43
ATOM     43  N   VAL P   7      79.964   5.279  58.302  1.00 69.26 LIG-0.34  N 
ATOM     44  C   LEU P   6      80.927   5.762  59.081  1.00 74.59 LIG 0.26  C 
ATOM     45 O    LEU P   6      80.774   5.953  60.290  1.00 73.78 LIG-0.27  OA
ATOM     46 H    VAL P   7      80.071   5.116  57.465  1.00 69.26 LIG 0.16  HD
BRANCH 44 47
ATOM     47  CA  LEU P   6      82.260   6.049  58.384  1.00 78.06 LIG 0.40  C 
ATOM     48  N   LEU P   6      83.299   6.340  59.365  1.00 74.40 LIG 0.61  N 
BRANCH 47 49
ATOM     49  CB  LEU P   6      82.684   4.878  57.489  1.00 78.52 LIG 0.06  C 
BRANCH 49 50
ATOM     50  CG  LEU P   6      82.665   3.437  58.011  1.00 77.43 LIG-0.02  C 
ATOM     51  CD2 LEU P   6      83.973   2.706  57.735  1.00 73.93 LIG 0.01  C 
ATOM     52  CD1 LEU P   6      81.489   2.721  57.383  1.00 75.78 LIG 0.01  C 
ENDBRANCH 49 50
ENDBRANCH 47 49
ENDBRANCH 44 47
ENDBRANCH 42 43
BRANCH 42 53
ATOM     53  CB  VAL P   7      77.667   4.661  57.634  1.00 67.45 LIG 0.01  C 
ATOM     54  CG2 VAL P   7      78.041   3.341  56.985  1.00 67.18 LIG 0.01  C 
ATOM     55  CG1 VAL P   7      77.692   5.779  56.609  1.00 63.58 LIG 0.01  C 
ENDBRANCH 42 53
ENDBRANCH 39 42
ENDBRANCH 1 38
TORSDOF 20
ENDMDL
MODEL 14
USER: ADFR SOLUTION from run 13
USER: SCORE 19.832685 LL:  -4.182 LR: -16.148 RR:   0.000 FEB: -10.182
USER: RMSD 6.431553
USER: SEED 346654
USER: STATUS no improvement in best in 11 clusters for 5 generations
USER: GENES 22
USER: genes 0 Translation |==|  0.47875 0.50328 0.43727
USER: genes 1 Rotation |==|  0.74684 0.12108 0.30173 0.57862
USER: genes 2 Torsion [N]-CA--C-[N] |==|  0.01870
USER: genes 3 Torsion [C]-N--CA-[CB] |==|  0.87718
USER: genes 4 Torsion [N]-CA--CB-[CG] |==|  0.72186
USER: genes 5 Torsion [CA]-CB--CG-[CD] |==|  0.09983
USER: genes 6 Torsion [CB]-CG--CD-[OE1] |==|  0.19317
USER: genes 7 Torsion [N]-CA--C-[N] |==|  0.86176
USER: genes 8 Torsion [C]-N--CA-[C] |==|  0.88615
USER: genes 9 Torsion [N]-CA--C-[O] |==|  0.75437
USER: genes 10 Torsion [N]-CA--CB-[CG] |==|  0.74874
USER: genes 11 Torsion [CA]-CB--CG-[CD1] |==|  0.35769
USER: genes 12 Torsion [C]-CA--CB-[CG] |==|  0.24021
USER: genes 13 Torsion [CA]-CB--CG-[CD1] |==|  0.60532
USER: genes 14 Torsion [CE1]-CZ--OH-[HH] |==|  0.03871
USER: genes 15 Torsion [C]-CA--N-[C] |==|  0.74417
USER: genes 16 Torsion [N]-C--CA-[N] |==|  0.47123
USER: genes 17 Torsion [C]-CA--N-[C] |==|  0.62175
USER: genes 18 Torsion [N]-C--CA-[N] |==|  0.52092
USER: genes 19 Torsion [C]-CA--CB-[CG] |==|  0.83365
USER: genes 20 Torsion [CA]-CB--CG-[CD2] |==|  0.61339
USER: genes 21 Torsion [C]-CA--CB-[CG2] |==|  0.84628
ROOT
ATOM      1  CA  TYR P   8      82.071  -2.093  59.611  1.00 57.99 LIG 0.18  C 
ENDROOT
BRANCH 1 2
ATOM      2  C   TYR P   8      81.157  -1.298  60.532  1.00 56.68 LIG 0.24  C 
ATOM      3  N   GLN P   9      80.088  -1.934  61.000  1.00 57.67 LIG-0.35  N 
ATOM      4 H    GLN P   9      79.864  -2.731  60.765  1.00 57.67 LIG 0.16  HD
ATOM      5 O    TYR P   8      81.424  -0.125  60.812  1.00 54.26 LIG-0.27  OA
BRANCH 3 6
ATOM      6  CA  GLN P   9      79.188  -1.321  61.968  1.00 54.86 LIG 0.18  C 
BRANCH 6 7
ATOM      7  CB  GLN P   9      79.970  -0.618  63.075  1.00 52.41 LIG 0.04  C 
BRANCH 7 8
ATOM      8  CG  GLN P   9      80.076  -1.424  64.358  1.00 53.63 LIG 0.10  C 
BRANCH 8 9
ATOM      9  CD  GLN P   9      80.211  -2.906  64.095  1.00 56.56 LIG 0.21  C 
ATOM     10 OE1  GLN P   9      81.240  -3.365  63.599  1.00 59.67 LIG-0.27  OA
ATOM     11  NE2 GLN P   9      79.172  -3.667  64.425  1.00 58.55 LIG-0.37  N 
ATOM     12 22HE GLN P   9      79.202  -4.517  64.294  1.00 58.55 LIG 0.16  HD
ATOM     13 21HE GLN P   9      78.470  -3.310  64.769  1.00 58.55 LIG 0.16  HD
ENDBRANCH 8 9
ENDBRANCH 7 8
ENDBRANCH 6 7
BRANCH 6 14
ATOM     14  C   GLN P   9      78.281  -0.336  61.242  1.00 54.72 LIG 0.24  C 
ATOM     15 O    GLN P   9      77.058  -0.365  61.421  1.00 59.60 LIG-0.27  OA
ATOM     16  N   PHE P  10      78.876   0.537  60.438  1.00 49.02 LIG-0.34  N 
ATOM     17 H    PHE P  10      79.728   0.604  60.339  1.00 49.02 LIG 0.16  HD
BRANCH 16 18
ATOM     18  CA  PHE P  10      78.096   1.474  59.641  1.00 50.33 LIG 0.19  C 
BRANCH 18 19
ATOM     19  C   PHE P  10      76.861   0.810  59.045  1.00 49.91 LIG 0.20  C 
ATOM     20 O    PHE P  10      76.924   0.245  57.950  1.00 45.93 LIG-0.65  OA
ATOM     21 OXT  PHE P  10      75.781   0.833  59.637  1.00 46.36 LIG-0.65  OA
ENDBRANCH 18 19
BRANCH 18 22
ATOM     22  CB  PHE P  10      78.956   2.095  58.537  1.00 51.88 LIG 0.07  C 
BRANCH 22 23
ATOM     23  CG  PHE P  10      79.651   3.370  58.934  1.00 51.17 LIG-0.06  A 
ATOM     24  CD1 PHE P  10      81.013   3.523  58.735  1.00 49.53 LIG 0.01  A 
ATOM     25  CE1 PHE P  10      81.655   4.685  59.112  1.00 54.45 LIG 0.00  A 
ATOM     26  CZ  PHE P  10      80.943   5.705  59.711  1.00 54.40 LIG 0.00  A 
ATOM     27  CE2 PHE P  10      79.588   5.564  59.922  1.00 52.97 LIG 0.00  A 
ATOM     28  CD2 PHE P  10      78.949   4.399  59.543  1.00 50.02 LIG 0.01  A 
ENDBRANCH 22 23
ENDBRANCH 18 22
ENDBRANCH 16 18
ENDBRANCH 6 14
ENDBRANCH 3 6
ENDBRANCH 1 2
BRANCH 1 29
ATOM     29  CB  TYR P   8      82.331  -1.307  58.327  1.00 54.61 LIG 0.07  C 
BRANCH 29 30
ATOM     30  CG  TYR P   8      83.484  -0.336  58.407  1.00 66.64 LIG-0.06  A 
ATOM     31  CD1 TYR P   8      83.417   0.902  57.779  1.00 68.29 LIG 0.01  A 
ATOM     32  CE1 TYR P   8      84.468   1.792  57.844  1.00 71.89 LIG 0.04  A 
ATOM     33  CZ  TYR P   8      85.609   1.446  58.539  1.00 71.50 LIG 0.07  A 
ATOM     34  CE2 TYR P   8      85.702   0.222  59.166  1.00 69.11 LIG 0.04  A 
ATOM     35  CD2 TYR P   8      84.645  -0.661  59.094  1.00 65.21 LIG 0.01  A 
BRANCH 33 36
ATOM     36 OH   TYR P   8      86.660   2.330  58.605  1.00 83.55 LIG-0.36  OA
ATOM     37 HH   TYR P   8      86.404   3.090  58.353  1.00 83.55 LIG 0.22  HD
ENDBRANCH 33 36
ENDBRANCH 29 30
ENDBRANCH 1 29
BRANCH 1 38
ATOM     38  N   TYR P   8      81.445  -3.376  59.325  1.00 59.31 LIG-0.35  N 
ATOM     39  C   VAL P   7      81.674  -4.469  60.048  1.00 65.10 LIG 0.24  C 
ATOM     40 O    VAL P   7      82.491  -4.503  60.979  1.00 66.40 LIG-0.27  OA
ATOM     41 H    TYR P   8      80.915  -3.361  58.647  1.00 59.31 LIG 0.16  HD
BRANCH 39 42
ATOM     42  CA  VAL P   7      80.874  -5.708  59.671  1.00 68.90 LIG 0.18  C 
BRANCH 42 43
ATOM     43  N   VAL P   7      81.418  -6.856  60.385  1.00 69.26 LIG-0.34  N 
ATOM     44  C   LEU P   6      81.622  -8.035  59.806  1.00 74.59 LIG 0.26  C 
ATOM     45 O    LEU P   6      81.403  -8.237  58.609  1.00 73.78 LIG-0.27  OA
ATOM     46 H    VAL P   7      81.594  -6.699  61.212  1.00 69.26 LIG 0.16  HD
BRANCH 44 47
ATOM     47  CA  LEU P   6      82.172  -9.134  60.719  1.00 78.06 LIG 0.40  C 
ATOM     48  N   LEU P   6      82.520 -10.319  59.943  1.00 74.40 LIG 0.61  N 
BRANCH 47 49
ATOM     49  CB  LEU P   6      83.387  -8.641  61.516  1.00 78.52 LIG 0.06  C 
BRANCH 49 50
ATOM     50  CG  LEU P   6      84.649  -8.145  60.804  1.00 77.43 LIG-0.02  C 
ATOM     51  CD2 LEU P   6      85.924  -8.622  61.490  1.00 73.93 LIG 0.01  C 
ATOM     52  CD1 LEU P   6      84.592  -6.634  60.733  1.00 75.78 LIG 0.01  C 
ENDBRANCH 49 50
ENDBRANCH 47 49
ENDBRANCH 44 47
ENDBRANCH 42 43
BRANCH 42 53
ATOM     53  CB  VAL P   7      79.380  -5.519  59.985  1.00 67.45 LIG 0.01  C 
ATOM     54  CG2 VAL P   7      79.192  -5.145  61.444  1.00 67.18 LIG 0.01  C 
ATOM     55  CG1 VAL P   7      78.606  -6.780  59.658  1.00 63.58 LIG 0.01  C 
ENDBRANCH 42 53
ENDBRANCH 39 42
ENDBRANCH 1 38
TORSDOF 20
ENDMDL
MODEL 15
USER: ADFR SOLUTION from run 176
USER: SCORE 20.833526 LL:  -4.987 LR: -16.124 RR:   0.000 FEB: -10.158
USER: RMSD 5.042917
USER: SEED 175
USER: STATUS no improvement in best in 2 clusters for 5 generations
USER: GENES 22
USER: genes 0 Translation |==|  0.42302 0.49564 0.50157
USER: genes 1 Rotation |==|  0.25996 0.66452 0.38393 0.88967
USER: genes 2 Torsion [N]-CA--C-[N] |==|  0.46015
USER: genes 3 Torsion [C]-N--CA-[CB] |==|  0.17764
USER: genes 4 Torsion [N]-CA--CB-[CG] |==|  0.07444
USER: genes 5 Torsion [CA]-CB--CG-[CD] |==|  0.26583
USER: genes 6 Torsion [CB]-CG--CD-[OE1] |==|  0.88916
USER: genes 7 Torsion [N]-CA--C-[N] |==|  0.10867
USER: genes 8 Torsion [C]-N--CA-[C] |==|  0.52088
USER: genes 9 Torsion [N]-CA--C-[O] |==|  0.03891
USER: genes 10 Torsion [N]-CA--CB-[CG] |==|  0.25044
USER: genes 11 Torsion [CA]-CB--CG-[CD1] |==|  0.85340
USER: genes 12 Torsion [C]-CA--CB-[CG] |==|  0.30154
USER: genes 13 Torsion [CA]-CB--CG-[CD1] |==|  0.72219
USER: genes 14 Torsion [CE1]-CZ--OH-[HH] |==|  0.39071
USER: genes 15 Torsion [C]-CA--N-[C] |==|  0.64956
USER: genes 16 Torsion [N]-C--CA-[N] |==|  0.00051
USER: genes 17 Torsion [C]-CA--N-[C] |==|  0.72142
USER: genes 18 Torsion [N]-C--CA-[N] |==|  0.44311
USER: genes 19 Torsion [C]-CA--CB-[CG] |==|  0.73058
USER: genes 20 Torsion [CA]-CB--CG-[CD2] |==|  0.49755
USER: genes 21 Torsion [C]-CA--CB-[CG2] |==|  0.61225
ROOT
ATOM      1  CA  TYR P   8      80.817  -2.265  60.768  1.00 57.99 LIG 0.18  C 
ENDROOT
BRANCH 1 2
ATOM      2  C   TYR P   8      80.857  -1.167  59.716  1.00 56.68 LIG 0.24  C 
ATOM      3  N   GLN P   9      79.838  -0.314  59.710  1.00 57.67 LIG-0.35  N 
ATOM      4 H    GLN P   9      79.149  -0.388  60.219  1.00 57.67 LIG 0.16  HD
ATOM      5 O    TYR P   8      81.802  -1.098  58.923  1.00 54.26 LIG-0.27  OA
BRANCH 3 6
ATOM      6  CA  GLN P   9      79.803   0.840  58.821  1.00 54.86 LIG 0.18  C 
BRANCH 6 7
ATOM      7  CB  GLN P   9      79.761   0.405  57.358  1.00 52.41 LIG 0.04  C 
BRANCH 7 8
ATOM      8  CG  GLN P   9      79.137  -0.962  57.142  1.00 53.63 LIG 0.10  C 
BRANCH 8 9
ATOM      9  CD  GLN P   9      77.671  -0.872  56.783  1.00 56.56 LIG 0.21  C 
ATOM     10 OE1  GLN P   9      76.937  -0.055  57.338  1.00 59.67 LIG-0.27  OA
ATOM     11  NE2 GLN P   9      77.234  -1.713  55.850  1.00 58.55 LIG-0.37  N 
ATOM     12 22HE GLN P   9      76.407  -1.700  55.613  1.00 58.55 LIG 0.16  HD
ATOM     13 21HE GLN P   9      77.777  -2.270  55.485  1.00 58.55 LIG 0.16  HD
ENDBRANCH 8 9
ENDBRANCH 7 8
ENDBRANCH 6 7
BRANCH 6 14
ATOM     14  C   GLN P   9      78.586   1.690  59.164  1.00 54.72 LIG 0.24  C 
ATOM     15 O    GLN P   9      77.916   2.213  58.267  1.00 59.60 LIG-0.27  OA
ATOM     16  N   PHE P  10      78.294   1.815  60.454  1.00 49.02 LIG-0.34  N 
ATOM     17 H    PHE P  10      78.719   1.418  61.088  1.00 49.02 LIG 0.16  HD
BRANCH 16 18
ATOM     18  CA  PHE P  10      77.196   2.664  60.895  1.00 50.33 LIG 0.19  C 
BRANCH 18 19
ATOM     19  C   PHE P  10      77.166   2.797  62.413  1.00 49.91 LIG 0.20  C 
ATOM     20 O    PHE P  10      78.136   2.447  63.089  1.00 45.93 LIG-0.65  OA
ATOM     21 OXT  PHE P  10      76.174   3.245  62.990  1.00 46.36 LIG-0.65  OA
ENDBRANCH 18 19
BRANCH 18 22
ATOM     22  CB  PHE P  10      75.857   2.132  60.378  1.00 51.88 LIG 0.07  C 
BRANCH 22 23
ATOM     23  CG  PHE P  10      75.178   1.157  61.303  1.00 51.17 LIG-0.06  A 
ATOM     24  CD1 PHE P  10      75.855   0.046  61.777  1.00 49.53 LIG 0.01  A 
ATOM     25  CE1 PHE P  10      75.230  -0.857  62.614  1.00 54.45 LIG 0.00  A 
ATOM     26  CZ  PHE P  10      73.910  -0.667  62.973  1.00 54.40 LIG 0.00  A 
ATOM     27  CE2 PHE P  10      73.222   0.431  62.503  1.00 52.97 LIG 0.00  A 
ATOM     28  CD2 PHE P  10      73.852   1.333  61.666  1.00 50.02 LIG 0.01  A 
ENDBRANCH 22 23
ENDBRANCH 18 22
ENDBRANCH 16 18
ENDBRANCH 6 14
ENDBRANCH 3 6
ENDBRANCH 1 2
BRANCH 1 29
ATOM     29  CB  TYR P   8      81.098  -1.676  62.150  1.00 54.61 LIG 0.07  C 
BRANCH 29 30
ATOM     30  CG  TYR P   8      79.899  -1.621  63.066  1.00 66.64 LIG-0.06  A 
ATOM     31  CD1 TYR P   8      79.192  -0.439  63.242  1.00 68.29 LIG 0.01  A 
ATOM     32  CE1 TYR P   8      78.099  -0.381  64.082  1.00 71.89 LIG 0.04  A 
ATOM     33  CZ  TYR P   8      77.704  -1.514  64.763  1.00 71.50 LIG 0.07  A 
ATOM     34  CE2 TYR P   8      78.393  -2.698  64.608  1.00 69.11 LIG 0.04  A 
ATOM     35  CD2 TYR P   8      79.484  -2.746  63.766  1.00 65.21 LIG 0.01  A 
BRANCH 33 36
ATOM     36 OH   TYR P   8      76.616  -1.460  65.601  1.00 83.55 LIG-0.36  OA
ATOM     37 HH   TYR P   8      76.168  -2.167  65.525  1.00 83.55 LIG 0.22  HD
ENDBRANCH 33 36
ENDBRANCH 29 30
ENDBRANCH 1 29
BRANCH 1 38
ATOM     38  N   TYR P   8      81.799  -3.283  60.420  1.00 59.31 LIG-0.35  N 
ATOM     39  C   VAL P   7      81.492  -4.571  60.301  1.00 65.10 LIG 0.24  C 
ATOM     40 O    VAL P   7      80.365  -5.022  60.545  1.00 66.40 LIG-0.27  OA
ATOM     41 H    TYR P   8      82.592  -2.973  60.299  1.00 59.31 LIG 0.16  HD
BRANCH 39 42
ATOM     42  CA  VAL P   7      82.615  -5.493  59.846  1.00 68.90 LIG 0.18  C 
BRANCH 42 43
ATOM     43  N   VAL P   7      83.821  -4.701  59.642  1.00 69.26 LIG-0.34  N 
ATOM     44  C   LEU P   6      84.230  -4.306  58.440  1.00 74.59 LIG 0.26  C 
ATOM     45 O    LEU P   6      83.598  -4.545  57.409  1.00 73.78 LIG-0.27  OA
ATOM     46 H    VAL P   7      84.241  -4.515  60.369  1.00 69.26 LIG 0.16  HD
BRANCH 44 47
ATOM     47  CA  LEU P   6      85.536  -3.507  58.416  1.00 78.06 LIG 0.40  C 
ATOM     48  N   LEU P   6      86.135  -3.543  57.087  1.00 74.40 LIG 0.61  N 
BRANCH 47 49
ATOM     49  CB  LEU P   6      85.311  -2.056  58.861  1.00 78.52 LIG 0.06  C 
BRANCH 49 50
ATOM     50  CG  LEU P   6      85.117  -0.936  57.834  1.00 77.43 LIG-0.02  C 
ATOM     51  CD2 LEU P   6      84.888   0.419  58.493  1.00 73.93 LIG 0.01  C 
ATOM     52  CD1 LEU P   6      83.962  -1.314  56.932  1.00 75.78 LIG 0.01  C 
ENDBRANCH 49 50
ENDBRANCH 47 49
ENDBRANCH 44 47
ENDBRANCH 42 43
BRANCH 42 53
ATOM     53  CB  VAL P   7      82.857  -6.618  60.866  1.00 67.45 LIG 0.01  C 
ATOM     54  CG2 VAL P   7      84.345  -6.869  61.029  1.00 67.18 LIG 0.01  C 
ATOM     55  CG1 VAL P   7      82.152  -7.888  60.433  1.00 63.58 LIG 0.01  C 
ENDBRANCH 42 53
ENDBRANCH 39 42
ENDBRANCH 1 38
TORSDOF 20
ENDMDL
MODEL 16
USER: ADFR SOLUTION from run 87
USER: SCORE 19.604430 LL:  -5.174 LR: -16.116 RR:   0.000 FEB: -10.150
USER: RMSD 9.589052
USER: SEED 86
USER: STATUS no improvement in best in 4 clusters for 5 generations
USER: GENES 22
USER: genes 0 Translation |==|  0.43276 0.46367 0.56564
USER: genes 1 Rotation |==|  0.29603 0.23428 0.86891 0.54115
USER: genes 2 Torsion [N]-CA--C-[N] |==|  0.50930
USER: genes 3 Torsion [C]-N--CA-[CB] |==|  0.81555
USER: genes 4 Torsion [N]-CA--CB-[CG] |==|  0.23336
USER: genes 5 Torsion [CA]-CB--CG-[CD] |==|  0.65210
USER: genes 6 Torsion [CB]-CG--CD-[OE1] |==|  0.06723
USER: genes 7 Torsion [N]-CA--C-[N] |==|  0.09458
USER: genes 8 Torsion [C]-N--CA-[C] |==|  0.63594
USER: genes 9 Torsion [N]-CA--C-[O] |==|  0.31385
USER: genes 10 Torsion [N]-CA--CB-[CG] |==|  0.82621
USER: genes 11 Torsion [CA]-CB--CG-[CD1] |==|  0.35811
USER: genes 12 Torsion [C]-CA--CB-[CG] |==|  0.53502
USER: genes 13 Torsion [CA]-CB--CG-[CD1] |==|  0.22244
USER: genes 14 Torsion [CE1]-CZ--OH-[HH] |==|  0.46491
USER: genes 15 Torsion [C]-CA--N-[C] |==|  0.75861
USER: genes 16 Torsion [N]-C--CA-[N] |==|  0.23365
USER: genes 17 Torsion [C]-CA--N-[C] |==|  0.61112
USER: genes 18 Torsion [N]-C--CA-[N] |==|  0.15873
USER: genes 19 Torsion [C]-CA--CB-[CG] |==|  0.23530
USER: genes 20 Torsion [CA]-CB--CG-[CD2] |==|  0.93956
USER: genes 21 Torsion [C]-CA--CB-[CG2] |==|  0.75308
ROOT
ATOM      1  CA  TYR P   8      81.036  -2.984  61.921  1.00 57.99 LIG 0.18  C 
ENDROOT
BRANCH 1 2
ATOM      2  C   TYR P   8      81.513  -4.060  60.956  1.00 56.68 LIG 0.24  C 
ATOM      3  N   GLN P   9      82.363  -4.958  61.442  1.00 57.67 LIG-0.35  N 
ATOM      4 H    GLN P   9      82.692  -4.924  62.237  1.00 57.67 LIG 0.16  HD
ATOM      5 O    TYR P   8      81.110  -4.071  59.788  1.00 54.26 LIG-0.27  OA
BRANCH 3 6
ATOM      6  CA  GLN P   9      82.818  -6.096  60.654  1.00 54.86 LIG 0.18  C 
BRANCH 6 7
ATOM      7  CB  GLN P   9      81.668  -7.057  60.364  1.00 52.41 LIG 0.04  C 
BRANCH 7 8
ATOM      8  CG  GLN P   9      80.830  -6.666  59.159  1.00 53.63 LIG 0.10  C 
BRANCH 8 9
ATOM      9  CD  GLN P   9      79.361  -6.550  59.495  1.00 56.56 LIG 0.21  C 
ATOM     10 OE1  GLN P   9      78.996  -6.321  60.648  1.00 59.67 LIG-0.27  OA
ATOM     11  NE2 GLN P   9      78.506  -6.708  58.490  1.00 58.55 LIG-0.37  N 
ATOM     12 22HE GLN P   9      77.659  -6.651  58.632  1.00 58.55 LIG 0.16  HD
ATOM     13 21HE GLN P   9      78.798  -6.867  57.698  1.00 58.55 LIG 0.16  HD
ENDBRANCH 8 9
ENDBRANCH 7 8
ENDBRANCH 6 7
BRANCH 6 14
ATOM     14  C   GLN P   9      83.430  -5.583  59.357  1.00 54.72 LIG 0.24  C 
ATOM     15 O    GLN P   9      83.306  -6.229  58.310  1.00 59.60 LIG-0.27  OA
ATOM     16  N   PHE P  10      84.075  -4.424  59.423  1.00 49.02 LIG-0.34  N 
ATOM     17 H    PHE P  10      84.128  -3.938  60.130  1.00 49.02 LIG 0.16  HD
BRANCH 16 18
ATOM     18  CA  PHE P  10      84.759  -3.880  58.258  1.00 50.33 LIG 0.19  C 
BRANCH 18 19
ATOM     19  C   PHE P  10      86.180  -3.445  58.596  1.00 49.91 LIG 0.20  C 
ATOM     20 O    PHE P  10      87.146  -4.042  58.115  1.00 45.93 LIG-0.65  OA
ATOM     21 OXT  PHE P  10      86.389  -2.500  59.359  1.00 46.36 LIG-0.65  OA
ENDBRANCH 18 19
BRANCH 18 22
ATOM     22  CB  PHE P  10      83.970  -2.712  57.660  1.00 51.88 LIG 0.07  C 
BRANCH 22 23
ATOM     23  CG  PHE P  10      82.604  -3.084  57.147  1.00 51.17 LIG-0.06  A 
ATOM     24  CD1 PHE P  10      81.485  -2.366  57.535  1.00 49.53 LIG 0.01  A 
ATOM     25  CE1 PHE P  10      80.230  -2.714  57.078  1.00 54.45 LIG 0.00  A 
ATOM     26  CZ  PHE P  10      80.077  -3.800  56.238  1.00 54.40 LIG 0.00  A 
ATOM     27  CE2 PHE P  10      81.181  -4.527  55.849  1.00 52.97 LIG 0.00  A 
ATOM     28  CD2 PHE P  10      82.436  -4.175  56.309  1.00 50.02 LIG 0.01  A 
ENDBRANCH 22 23
ENDBRANCH 18 22
ENDBRANCH 16 18
ENDBRANCH 6 14
ENDBRANCH 3 6
ENDBRANCH 1 2
BRANCH 1 29
ATOM     29  CB  TYR P   8      80.438  -3.630  63.171  1.00 54.61 LIG 0.07  C 
BRANCH 29 30
ATOM     30  CG  TYR P   8      79.667  -2.684  64.059  1.00 66.64 LIG-0.06  A 
ATOM     31  CD1 TYR P   8      78.360  -2.326  63.753  1.00 68.29 LIG 0.01  A 
ATOM     32  CE1 TYR P   8      77.652  -1.458  64.559  1.00 71.89 LIG 0.04  A 
ATOM     33  CZ  TYR P   8      78.252  -0.933  65.684  1.00 71.50 LIG 0.07  A 
ATOM     34  CE2 TYR P   8      79.549  -1.270  66.007  1.00 69.11 LIG 0.04  A 
ATOM     35  CD2 TYR P   8      80.249  -2.138  65.195  1.00 65.21 LIG 0.01  A 
BRANCH 33 36
ATOM     36 OH   TYR P   8      77.550  -0.067  66.489  1.00 83.55 LIG-0.36  OA
ATOM     37 HH   TYR P   8      77.961   0.037  67.214  1.00 83.55 LIG 0.22  HD
ENDBRANCH 33 36
ENDBRANCH 29 30
ENDBRANCH 1 29
BRANCH 1 38
ATOM     38  N   TYR P   8      80.058  -2.147  61.242  1.00 59.31 LIG-0.35  N 
ATOM     39  C   VAL P   7      80.397  -1.090  60.508  1.00 65.10 LIG 0.24  C 
ATOM     40 O    VAL P   7      81.565  -0.692  60.400  1.00 66.40 LIG-0.27  OA
ATOM     41 H    TYR P   8      79.244  -2.398  61.359  1.00 59.31 LIG 0.16  HD
BRANCH 39 42
ATOM     42  CA  VAL P   7      79.261  -0.373  59.793  1.00 68.90 LIG 0.18  C 
BRANCH 42 43
ATOM     43  N   VAL P   7      78.644   0.571  60.716  1.00 69.26 LIG-0.34  N 
ATOM     44  C   LEU P   6      77.330   0.765  60.778  1.00 74.59 LIG 0.26  C 
ATOM     45 O    LEU P   6      76.529   0.132  60.086  1.00 73.78 LIG-0.27  OA
ATOM     46 H    VAL P   7      79.207   0.987  61.214  1.00 69.26 LIG 0.16  HD
BRANCH 44 47
ATOM     47  CA  LEU P   6      76.864   1.818  61.788  1.00 78.06 LIG 0.40  C 
ATOM     48  N   LEU P   6      77.493   3.104  61.515  1.00 74.40 LIG 0.61  N 
BRANCH 47 49
ATOM     49  CB  LEU P   6      75.337   1.958  61.782  1.00 78.52 LIG 0.06  C 
BRANCH 49 50
ATOM     50  CG  LEU P   6      74.455   1.022  62.615  1.00 77.43 LIG-0.02  C 
ATOM     51  CD2 LEU P   6      75.163  -0.283  62.959  1.00 73.93 LIG 0.01  C 
ATOM     52  CD1 LEU P   6      73.174   0.770  61.848  1.00 75.78 LIG 0.01  C 
ENDBRANCH 49 50
ENDBRANCH 47 49
ENDBRANCH 44 47
ENDBRANCH 42 43
BRANCH 42 53
ATOM     53  CB  VAL P   7      79.766   0.341  58.527  1.00 67.45 LIG 0.01  C 
ATOM     54  CG2 VAL P   7      80.224   1.749  58.865  1.00 67.18 LIG 0.01  C 
ATOM     55  CG1 VAL P   7      78.680   0.378  57.470  1.00 63.58 LIG 0.01  C 
ENDBRANCH 42 53
ENDBRANCH 39 42
ENDBRANCH 1 38
TORSDOF 20
ENDMDL
MODEL 17
USER: ADFR SOLUTION from run 28
USER: SCORE 18.350076 LL:  -3.401 LR: -16.055 RR:   0.000 FEB: -10.089
USER: RMSD 5.655323
USER: SEED 27
USER: STATUS no improvement in best in 14 clusters for 5 generations
USER: GENES 22
USER: genes 0 Translation |==|  0.41589 0.44979 0.56112
USER: genes 1 Rotation |==|  0.33713 0.68822 0.41901 0.92601
USER: genes 2 Torsion [N]-CA--C-[N] |==|  0.99218
USER: genes 3 Torsion [C]-N--CA-[CB] |==|  0.52778
USER: genes 4 Torsion [N]-CA--CB-[CG] |==|  0.51803
USER: genes 5 Torsion [CA]-CB--CG-[CD] |==|  0.28891
USER: genes 6 Torsion [CB]-CG--CD-[OE1] |==|  0.01566
USER: genes 7 Torsion [N]-CA--C-[N] |==|  0.26593
USER: genes 8 Torsion [C]-N--CA-[C] |==|  0.13962
USER: genes 9 Torsion [N]-CA--C-[O] |==|  0.68644
USER: genes 10 Torsion [N]-CA--CB-[CG] |==|  0.85085
USER: genes 11 Torsion [CA]-CB--CG-[CD1] |==|  0.73612
USER: genes 12 Torsion [C]-CA--CB-[CG] |==|  0.17544
USER: genes 13 Torsion [CA]-CB--CG-[CD1] |==|  0.09283
USER: genes 14 Torsion [CE1]-CZ--OH-[HH] |==|  0.15999
USER: genes 15 Torsion [C]-CA--N-[C] |==|  0.65469
USER: genes 16 Torsion [N]-C--CA-[N] |==|  0.33017
USER: genes 17 Torsion [C]-CA--N-[C] |==|  0.75621
USER: genes 18 Torsion [N]-C--CA-[N] |==|  0.95551
USER: genes 19 Torsion [C]-CA--CB-[CG] |==|  0.17989
USER: genes 20 Torsion [CA]-CB--CG-[CD2] |==|  0.70932
USER: genes 21 Torsion [C]-CA--CB-[CG2] |==|  0.13203
ROOT
ATOM      1  CA  TYR P   8      80.657  -3.297  61.840  1.00 57.99 LIG 0.18  C 
ENDROOT
BRANCH 1 2
ATOM      2  C   TYR P   8      80.684  -1.886  61.270  1.00 56.68 LIG 0.24  C 
ATOM      3  N   GLN P   9      81.575  -1.650  60.313  1.00 57.67 LIG-0.35  N 
ATOM      4 H    GLN P   9      82.159  -2.225  60.051  1.00 57.67 LIG 0.16  HD
ATOM      5 O    TYR P   8      79.904  -1.028  61.696  1.00 54.26 LIG-0.27  OA
BRANCH 3 6
ATOM      6  CA  GLN P   9      81.637  -0.373  59.615  1.00 54.86 LIG 0.18  C 
BRANCH 6 7
ATOM      7  CB  GLN P   9      82.573  -0.451  58.411  1.00 52.41 LIG 0.04  C 
BRANCH 7 8
ATOM      8  CG  GLN P   9      82.807   0.885  57.728  1.00 53.63 LIG 0.10  C 
BRANCH 8 9
ATOM      9  CD  GLN P   9      84.163   1.468  58.058  1.00 56.56 LIG 0.21  C 
ATOM     10 OE1  GLN P   9      84.979   0.826  58.719  1.00 59.67 LIG-0.27  OA
ATOM     11  NE2 GLN P   9      84.413   2.690  57.600  1.00 58.55 LIG-0.37  N 
ATOM     12 22HE GLN P   9      85.170   3.064  57.762  1.00 58.55 LIG 0.16  HD
ATOM     13 21HE GLN P   9      83.817   3.108  57.142  1.00 58.55 LIG 0.16  HD
ENDBRANCH 8 9
ENDBRANCH 7 8
ENDBRANCH 6 7
BRANCH 6 14
ATOM     14  C   GLN P   9      80.232   0.018  59.178  1.00 54.72 LIG 0.24  C 
ATOM     15 O    GLN P   9      79.756  -0.430  58.128  1.00 59.60 LIG-0.27  OA
ATOM     16  N   PHE P  10      79.567   0.838  59.984  1.00 49.02 LIG-0.34  N 
ATOM     17 H    PHE P  10      79.862   1.120  60.741  1.00 49.02 LIG 0.16  HD
BRANCH 16 18
ATOM     18  CA  PHE P  10      78.245   1.333  59.625  1.00 50.33 LIG 0.19  C 
BRANCH 18 19
ATOM     19  C   PHE P  10      77.317   0.198  59.208  1.00 49.91 LIG 0.20  C 
ATOM     20 O    PHE P  10      76.924   0.110  58.043  1.00 45.93 LIG-0.65  OA
ATOM     21 OXT  PHE P  10      76.935  -0.641  60.026  1.00 46.36 LIG-0.65  OA
ENDBRANCH 18 19
BRANCH 18 22
ATOM     22  CB  PHE P  10      78.340   2.382  58.513  1.00 51.88 LIG 0.07  C 
BRANCH 22 23
ATOM     23  CG  PHE P  10      79.279   3.520  58.814  1.00 51.17 LIG-0.06  A 
ATOM     24  CD1 PHE P  10      78.803   4.702  59.357  1.00 49.53 LIG 0.01  A 
ATOM     25  CE1 PHE P  10      79.659   5.753  59.620  1.00 54.45 LIG 0.00  A 
ATOM     26  CZ  PHE P  10      81.004   5.638  59.325  1.00 54.40 LIG 0.00  A 
ATOM     27  CE2 PHE P  10      81.489   4.471  58.777  1.00 52.97 LIG 0.00  A 
ATOM     28  CD2 PHE P  10      80.629   3.421  58.516  1.00 50.02 LIG 0.01  A 
ENDBRANCH 22 23
ENDBRANCH 18 22
ENDBRANCH 16 18
ENDBRANCH 6 14
ENDBRANCH 3 6
ENDBRANCH 1 2
BRANCH 1 29
ATOM     29  CB  TYR P   8      80.971  -3.264  63.335  1.00 54.61 LIG 0.07  C 
BRANCH 29 30
ATOM     30  CG  TYR P   8      79.965  -2.510  64.172  1.00 66.64 LIG-0.06  A 
ATOM     31  CD1 TYR P   8      78.618  -2.505  63.833  1.00 68.29 LIG 0.01  A 
ATOM     32  CE1 TYR P   8      77.696  -1.814  64.591  1.00 71.89 LIG 0.04  A 
ATOM     33  CZ  TYR P   8      78.117  -1.113  65.702  1.00 71.50 LIG 0.07  A 
ATOM     34  CE2 TYR P   8      79.449  -1.099  66.057  1.00 69.11 LIG 0.04  A 
ATOM     35  CD2 TYR P   8      80.364  -1.792  65.292  1.00 65.21 LIG 0.01  A 
BRANCH 33 36
ATOM     36 OH   TYR P   8      77.201  -0.422  66.460  1.00 83.55 LIG-0.36  OA
ATOM     37 HH   TYR P   8      76.608  -0.951  66.733  1.00 83.55 LIG 0.22  HD
ENDBRANCH 33 36
ENDBRANCH 29 30
ENDBRANCH 1 29
BRANCH 1 38
ATOM     38  N   TYR P   8      81.623  -4.112  61.117  1.00 59.31 LIG-0.35  N 
ATOM     39  C   VAL P   7      81.296  -5.246  60.504  1.00 65.10 LIG 0.24  C 
ATOM     40 O    VAL P   7      80.161  -5.738  60.558  1.00 66.40 LIG-0.27  OA
ATOM     41 H    TYR P   8      82.421  -3.792  61.123  1.00 59.31 LIG 0.16  HD
BRANCH 39 42
ATOM     42  CA  VAL P   7      82.405  -5.933  59.719  1.00 68.90 LIG 0.18  C 
BRANCH 42 43
ATOM     43  N   VAL P   7      82.639  -7.253  60.290  1.00 69.26 LIG-0.34  N 
ATOM     44  C   LEU P   6      83.482  -7.466  61.295  1.00 74.59 LIG 0.26  C 
ATOM     45 O    LEU P   6      84.103  -6.554  61.849  1.00 73.78 LIG-0.27  OA
ATOM     46 H    VAL P   7      82.181  -7.878  59.917  1.00 69.26 LIG 0.16  HD
BRANCH 44 47
ATOM     47  CA  LEU P   6      83.622  -8.923  61.745  1.00 78.06 LIG 0.40  C 
ATOM     48  N   LEU P   6      82.522  -9.727  61.226  1.00 74.40 LIG 0.61  N 
BRANCH 47 49
ATOM     49  CB  LEU P   6      84.969  -9.514  61.308  1.00 78.52 LIG 0.06  C 
BRANCH 49 50
ATOM     50  CG  LEU P   6      86.288  -8.969  61.865  1.00 77.43 LIG-0.02  C 
ATOM     51  CD2 LEU P   6      87.027  -8.102  60.852  1.00 73.93 LIG 0.01  C 
ATOM     52  CD1 LEU P   6      87.135 -10.141  62.311  1.00 75.78 LIG 0.01  C 
ENDBRANCH 49 50
ENDBRANCH 47 49
ENDBRANCH 44 47
ENDBRANCH 42 43
BRANCH 42 53
ATOM     53  CB  VAL P   7      82.048  -6.031  58.226  1.00 67.45 LIG 0.01  C 
ATOM     54  CG2 VAL P   7      81.545  -4.692  57.717  1.00 67.18 LIG 0.01  C 
ATOM     55  CG1 VAL P   7      81.005  -7.108  58.000  1.00 63.58 LIG 0.01  C 
ENDBRANCH 42 53
ENDBRANCH 39 42
ENDBRANCH 1 38
TORSDOF 20
ENDMDL
MODEL 18
USER: ADFR SOLUTION from run 159
USER: SCORE 18.935451 LL:  -4.361 LR: -15.959 RR:   0.000 FEB:  -9.993
USER: RMSD 4.767740
USER: SEED 158
USER: STATUS no improvement in best in 7 clusters for 5 generations
USER: GENES 22
USER: genes 0 Translation |==|  0.34554 0.56637 0.39349
USER: genes 1 Rotation |==|  0.33767 0.77434 0.64595 0.85649
USER: genes 2 Torsion [N]-CA--C-[N] |==|  0.67625
USER: genes 3 Torsion [C]-N--CA-[CB] |==|  0.89380
USER: genes 4 Torsion [N]-CA--CB-[CG] |==|  0.76382
USER: genes 5 Torsion [CA]-CB--CG-[CD] |==|  0.98379
USER: genes 6 Torsion [CB]-CG--CD-[OE1] |==|  0.26230
USER: genes 7 Torsion [N]-CA--C-[N] |==|  0.90556
USER: genes 8 Torsion [C]-N--CA-[C] |==|  0.22057
USER: genes 9 Torsion [N]-CA--C-[O] |==|  0.34651
USER: genes 10 Torsion [N]-CA--CB-[CG] |==|  0.75981
USER: genes 11 Torsion [CA]-CB--CG-[CD1] |==|  0.99857
USER: genes 12 Torsion [C]-CA--CB-[CG] |==|  0.28482
USER: genes 13 Torsion [CA]-CB--CG-[CD1] |==|  0.07373
USER: genes 14 Torsion [CE1]-CZ--OH-[HH] |==|  0.90102
USER: genes 15 Torsion [C]-CA--N-[C] |==|  0.68869
USER: genes 16 Torsion [N]-C--CA-[N] |==|  0.34735
USER: genes 17 Torsion [C]-CA--N-[C] |==|  0.82610
USER: genes 18 Torsion [N]-C--CA-[N] |==|  0.41969
USER: genes 19 Torsion [C]-CA--CB-[CG] |==|  0.88517
USER: genes 20 Torsion [CA]-CB--CG-[CD2] |==|  0.61766
USER: genes 21 Torsion [C]-CA--CB-[CG2] |==|  0.42614
ROOT
ATOM      1  CA  TYR P   8      79.074  -0.674  58.823  1.00 57.99 LIG 0.18  C 
ENDROOT
BRANCH 1 2
ATOM      2  C   TYR P   8      78.084   0.452  59.084  1.00 56.68 LIG 0.24  C 
ATOM      3  N   GLN P   9      78.468   1.392  59.942  1.00 57.67 LIG-0.35  N 
ATOM      4 H    GLN P   9      79.204   1.362  60.386  1.00 57.67 LIG 0.16  HD
ATOM      5 O    TYR P   8      76.989   0.463  58.513  1.00 54.26 LIG-0.27  OA
BRANCH 3 6
ATOM      6  CA  GLN P   9      77.659   2.575  60.204  1.00 54.86 LIG 0.18  C 
BRANCH 6 7
ATOM      7  CB  GLN P   9      76.996   3.080  58.925  1.00 52.41 LIG 0.04  C 
BRANCH 7 8
ATOM      8  CG  GLN P   9      77.877   4.001  58.099  1.00 53.63 LIG 0.10  C 
BRANCH 8 9
ATOM      9  CD  GLN P   9      79.177   4.329  58.797  1.00 56.56 LIG 0.21  C 
ATOM     10 OE1  GLN P   9      80.194   3.672  58.574  1.00 59.67 LIG-0.27  OA
ATOM     11  NE2 GLN P   9      79.154   5.349  59.650  1.00 58.55 LIG-0.37  N 
ATOM     12 22HE GLN P   9      79.869   5.573  60.072  1.00 58.55 LIG 0.16  HD
ATOM     13 21HE GLN P   9      78.424   5.784  59.780  1.00 58.55 LIG 0.16  HD
ENDBRANCH 8 9
ENDBRANCH 7 8
ENDBRANCH 6 7
BRANCH 6 14
ATOM     14  C   GLN P   9      76.610   2.230  61.253  1.00 54.72 LIG 0.24  C 
ATOM     15 O    GLN P   9      76.238   3.083  62.068  1.00 59.60 LIG-0.27  OA
ATOM     16  N   PHE P  10      76.127   0.993  61.226  1.00 49.02 LIG-0.34  N 
ATOM     17 H    PHE P  10      76.337   0.403  60.636  1.00 49.02 LIG 0.16  HD
BRANCH 16 18
ATOM     18  CA  PHE P  10      75.174   0.539  62.229  1.00 50.33 LIG 0.19  C 
BRANCH 18 19
ATOM     19  C   PHE P  10      73.763   1.027  61.924  1.00 49.91 LIG 0.20  C 
ATOM     20 O    PHE P  10      72.833   0.224  61.827  1.00 45.93 LIG-0.65  OA
ATOM     21 OXT  PHE P  10      73.530   2.226  61.758  1.00 46.36 LIG-0.65  OA
ENDBRANCH 18 19
BRANCH 18 22
ATOM     22  CB  PHE P  10      75.604   0.986  63.629  1.00 51.88 LIG 0.07  C 
BRANCH 22 23
ATOM     23  CG  PHE P  10      76.560   0.046  64.315  1.00 51.17 LIG-0.06  A 
ATOM     24  CD1 PHE P  10      76.974  -1.118  63.690  1.00 49.53 LIG 0.01  A 
ATOM     25  CE1 PHE P  10      77.839  -1.989  64.323  1.00 54.45 LIG 0.00  A 
ATOM     26  CZ  PHE P  10      78.287  -1.712  65.599  1.00 54.40 LIG 0.00  A 
ATOM     27  CE2 PHE P  10      77.877  -0.560  66.235  1.00 52.97 LIG 0.00  A 
ATOM     28  CD2 PHE P  10      77.012   0.310  65.598  1.00 50.02 LIG 0.01  A 
ENDBRANCH 22 23
ENDBRANCH 18 22
ENDBRANCH 16 18
ENDBRANCH 6 14
ENDBRANCH 3 6
ENDBRANCH 1 2
BRANCH 1 29
ATOM     29  CB  TYR P   8      80.285  -0.530  59.743  1.00 54.61 LIG 0.07  C 
BRANCH 29 30
ATOM     30  CG  TYR P   8      80.292  -1.468  60.925  1.00 66.64 LIG-0.06  A 
ATOM     31  CD1 TYR P   8      79.629  -2.688  60.870  1.00 68.29 LIG 0.01  A 
ATOM     32  CE1 TYR P   8      79.627  -3.547  61.949  1.00 71.89 LIG 0.04  A 
ATOM     33  CZ  TYR P   8      80.290  -3.188  63.105  1.00 71.50 LIG 0.07  A 
ATOM     34  CE2 TYR P   8      80.951  -1.982  63.186  1.00 69.11 LIG 0.04  A 
ATOM     35  CD2 TYR P   8      80.946  -1.129  62.102  1.00 65.21 LIG 0.01  A 
BRANCH 33 36
ATOM     36 OH   TYR P   8      80.289  -4.042  64.183  1.00 83.55 LIG-0.36  OA
ATOM     37 HH   TYR P   8      79.549  -4.436  64.228  1.00 83.55 LIG 0.22  HD
ENDBRANCH 33 36
ENDBRANCH 29 30
ENDBRANCH 1 29
BRANCH 1 38
ATOM     38  N   TYR P   8      79.469  -0.633  57.422  1.00 59.31 LIG-0.35  N 
ATOM     39  C   VAL P   7      79.131  -1.577  56.548  1.00 65.10 LIG 0.24  C 
ATOM     40 O    VAL P   7      78.515  -2.603  56.868  1.00 66.40 LIG-0.27  OA
ATOM     41 H    TYR P   8      79.939   0.057  57.213  1.00 59.31 LIG 0.16  HD
BRANCH 39 42
ATOM     42  CA  VAL P   7      79.549  -1.341  55.104  1.00 68.90 LIG 0.18  C 
BRANCH 42 43
ATOM     43  N   VAL P   7      80.324  -2.486  54.643  1.00 69.26 LIG-0.34  N 
ATOM     44  C   LEU P   6      81.485  -2.838  55.188  1.00 74.59 LIG 0.26  C 
ATOM     45 O    LEU P   6      81.976  -2.244  56.151  1.00 73.78 LIG-0.27  OA
ATOM     46 H    VAL P   7      79.961  -2.911  53.990  1.00 69.26 LIG 0.16  HD
BRANCH 44 47
ATOM     47  CA  LEU P   6      82.172  -4.050  54.554  1.00 78.06 LIG 0.40  C 
ATOM     48  N   LEU P   6      83.619  -3.955  54.702  1.00 74.40 LIG 0.61  N 
BRANCH 47 49
ATOM     49  CB  LEU P   6      81.658  -5.362  55.162  1.00 78.52 LIG 0.06  C 
BRANCH 49 50
ATOM     50  CG  LEU P   6      81.412  -5.491  56.668  1.00 77.43 LIG-0.02  C 
ATOM     51  CD2 LEU P   6      81.908  -6.822  57.222  1.00 73.93 LIG 0.01  C 
ATOM     52  CD1 LEU P   6      79.932  -5.304  56.924  1.00 75.78 LIG 0.01  C 
ENDBRANCH 49 50
ENDBRANCH 47 49
ENDBRANCH 44 47
ENDBRANCH 42 43
BRANCH 42 53
ATOM     53  CB  VAL P   7      78.324  -1.104  54.204  1.00 67.45 LIG 0.01  C 
ATOM     54  CG2 VAL P   7      78.709  -0.261  53.002  1.00 67.18 LIG 0.01  C 
ATOM     55  CG1 VAL P   7      77.213  -0.432  54.987  1.00 63.58 LIG 0.01  C 
ENDBRANCH 42 53
ENDBRANCH 39 42
ENDBRANCH 1 38
TORSDOF 20
ENDMDL
MODEL 19
USER: ADFR SOLUTION from run 19
USER: SCORE 19.327014 LL:  -4.768 LR: -15.945 RR:   0.000 FEB:  -9.979
USER: RMSD 6.118151
USER: SEED 18
USER: STATUS no improvement in best in 7 clusters for 5 generations
USER: GENES 22
USER: genes 0 Translation |==|  0.39541 0.45528 0.54812
USER: genes 1 Rotation |==|  0.37774 0.65569 0.53924 0.95746
USER: genes 2 Torsion [N]-CA--C-[N] |==|  0.41221
USER: genes 3 Torsion [C]-N--CA-[CB] |==|  0.87212
USER: genes 4 Torsion [N]-CA--CB-[CG] |==|  0.59514
USER: genes 5 Torsion [CA]-CB--CG-[CD] |==|  0.79701
USER: genes 6 Torsion [CB]-CG--CD-[OE1] |==|  0.40118
USER: genes 7 Torsion [N]-CA--C-[N] |==|  0.76672
USER: genes 8 Torsion [C]-N--CA-[C] |==|  0.85322
USER: genes 9 Torsion [N]-CA--C-[O] |==|  0.72840
USER: genes 10 Torsion [N]-CA--CB-[CG] |==|  0.77453
USER: genes 11 Torsion [CA]-CB--CG-[CD1] |==|  0.96339
USER: genes 12 Torsion [C]-CA--CB-[CG] |==|  0.06261
USER: genes 13 Torsion [CA]-CB--CG-[CD1] |==|  0.69037
USER: genes 14 Torsion [CE1]-CZ--OH-[HH] |==|  0.79366
USER: genes 15 Torsion [C]-CA--N-[C] |==|  0.60000
USER: genes 16 Torsion [N]-C--CA-[N] |==|  0.94028
USER: genes 17 Torsion [C]-CA--N-[C] |==|  0.69027
USER: genes 18 Torsion [N]-C--CA-[N] |==|  0.69985
USER: genes 19 Torsion [C]-CA--CB-[CG] |==|  0.27342
USER: genes 20 Torsion [CA]-CB--CG-[CD2] |==|  0.66856
USER: genes 21 Torsion [C]-CA--CB-[CG2] |==|  0.50119
ROOT
ATOM      1  CA  TYR P   8      80.196  -3.173  61.606  1.00 57.99 LIG 0.18  C 
ENDROOT
BRANCH 1 2
ATOM      2  C   TYR P   8      79.630  -1.763  61.525  1.00 56.68 LIG 0.24  C 
ATOM      3  N   GLN P   9      78.313  -1.644  61.655  1.00 57.67 LIG-0.35  N 
ATOM      4 H    GLN P   9      77.776  -2.313  61.721  1.00 57.67 LIG 0.16  HD
ATOM      5 O    TYR P   8      80.383  -0.799  61.349  1.00 54.26 LIG-0.27  OA
BRANCH 3 6
ATOM      6  CA  GLN P   9      77.656  -0.344  61.697  1.00 54.86 LIG 0.18  C 
BRANCH 6 7
ATOM      7  CB  GLN P   9      78.388   0.610  62.637  1.00 52.41 LIG 0.04  C 
BRANCH 7 8
ATOM      8  CG  GLN P   9      77.471   1.571  63.373  1.00 53.63 LIG 0.10  C 
BRANCH 8 9
ATOM      9  CD  GLN P   9      76.929   2.654  62.467  1.00 56.56 LIG 0.21  C 
ATOM     10 OE1  GLN P   9      75.785   3.083  62.615  1.00 59.67 LIG-0.27  OA
ATOM     11  NE2 GLN P   9      77.747   3.102  61.520  1.00 58.55 LIG-0.37  N 
ATOM     12 22HE GLN P   9      77.483   3.718  60.980  1.00 58.55 LIG 0.16  HD
ATOM     13 21HE GLN P   9      78.539   2.778  61.447  1.00 58.55 LIG 0.16  HD
ENDBRANCH 8 9
ENDBRANCH 7 8
ENDBRANCH 6 7
BRANCH 6 14
ATOM     14  C   GLN P   9      77.603   0.226  60.286  1.00 54.72 LIG 0.24  C 
ATOM     15 O    GLN P   9      76.586   0.093  59.596  1.00 59.60 LIG-0.27  OA
ATOM     16  N   PHE P  10      78.686   0.870  59.865  1.00 49.02 LIG-0.34  N 
ATOM     17 H    PHE P  10      79.382   1.016  60.348  1.00 49.02 LIG 0.16  HD
BRANCH 16 18
ATOM     18  CA  PHE P  10      78.768   1.390  58.507  1.00 50.33 LIG 0.19  C 
BRANCH 18 19
ATOM     19  C   PHE P  10      78.460   0.312  57.475  1.00 49.91 LIG 0.20  C 
ATOM     20 O    PHE P  10      79.376  -0.290  56.910  1.00 45.93 LIG-0.65  OA
ATOM     21 OXT  PHE P  10      77.297   0.031  57.180  1.00 46.36 LIG-0.65  OA
ENDBRANCH 18 19
BRANCH 18 22
ATOM     22  CB  PHE P  10      80.145   2.006  58.243  1.00 51.88 LIG 0.07  C 
BRANCH 22 23
ATOM     23  CG  PHE P  10      80.308   3.409  58.766  1.00 51.17 LIG-0.06  A 
ATOM     24  CD1 PHE P  10      79.206   4.142  59.175  1.00 49.53 LIG 0.01  A 
ATOM     25  CE1 PHE P  10      79.351   5.433  59.641  1.00 54.45 LIG 0.00  A 
ATOM     26  CZ  PHE P  10      80.602   6.014  59.686  1.00 54.40 LIG 0.00  A 
ATOM     27  CE2 PHE P  10      81.706   5.299  59.276  1.00 52.97 LIG 0.00  A 
ATOM     28  CD2 PHE P  10      81.557   4.006  58.810  1.00 50.02 LIG 0.01  A 
ENDBRANCH 22 23
ENDBRANCH 18 22
ENDBRANCH 16 18
ENDBRANCH 6 14
ENDBRANCH 3 6
ENDBRANCH 1 2
BRANCH 1 29
ATOM     29  CB  TYR P   8      80.534  -3.519  63.055  1.00 54.61 LIG 0.07  C 
BRANCH 29 30
ATOM     30  CG  TYR P   8      79.789  -2.707  64.087  1.00 66.64 LIG-0.06  A 
ATOM     31  CD1 TYR P   8      80.455  -1.783  64.883  1.00 68.29 LIG 0.01  A 
ATOM     32  CE1 TYR P   8      79.780  -1.042  65.830  1.00 71.89 LIG 0.04  A 
ATOM     33  CZ  TYR P   8      78.423  -1.223  65.995  1.00 71.50 LIG 0.07  A 
ATOM     34  CE2 TYR P   8      77.740  -2.136  65.220  1.00 69.11 LIG 0.04  A 
ATOM     35  CD2 TYR P   8      78.424  -2.873  64.276  1.00 65.21 LIG 0.01  A 
BRANCH 33 36
ATOM     36 OH   TYR P   8      77.747  -0.486  66.939  1.00 83.55 LIG-0.36  OA
ATOM     37 HH   TYR P   8      77.927  -0.779  67.705  1.00 83.55 LIG 0.22  HD
ENDBRANCH 33 36
ENDBRANCH 29 30
ENDBRANCH 1 29
BRANCH 1 38
ATOM     38  N   TYR P   8      81.376  -3.253  60.756  1.00 59.31 LIG-0.35  N 
ATOM     39  C   VAL P   7      81.690  -4.341  60.058  1.00 65.10 LIG 0.24  C 
ATOM     40 O    VAL P   7      81.047  -5.396  60.127  1.00 66.40 LIG-0.27  OA
ATOM     41 H    TYR P   8      81.848  -2.534  60.749  1.00 59.31 LIG 0.16  HD
BRANCH 39 42
ATOM     42  CA  VAL P   7      82.908  -4.231  59.151  1.00 68.90 LIG 0.18  C 
BRANCH 42 43
ATOM     43  N   VAL P   7      83.158  -2.824  58.866  1.00 69.26 LIG-0.34  N 
ATOM     44  C   LEU P   6      82.988  -2.291  57.660  1.00 74.59 LIG 0.26  C 
ATOM     45 O    LEU P   6      82.567  -2.939  56.698  1.00 73.78 LIG-0.27  OA
ATOM     46 H    VAL P   7      83.425  -2.374  59.548  1.00 69.26 LIG 0.16  HD
BRANCH 44 47
ATOM     47  CA  LEU P   6      83.329  -0.803  57.540  1.00 78.06 LIG 0.40  C 
ATOM     48  N   LEU P   6      82.114  -0.009  57.397  1.00 74.40 LIG 0.61  N 
BRANCH 47 49
ATOM     49  CB  LEU P   6      84.145  -0.319  58.745  1.00 78.52 LIG 0.06  C 
BRANCH 49 50
ATOM     50  CG  LEU P   6      85.670  -0.195  58.668  1.00 77.43 LIG-0.02  C 
ATOM     51  CD2 LEU P   6      86.375  -1.089  59.681  1.00 73.93 LIG 0.01  C 
ATOM     52  CD1 LEU P   6      86.038   1.260  58.865  1.00 75.78 LIG 0.01  C 
ENDBRANCH 49 50
ENDBRANCH 47 49
ENDBRANCH 44 47
ENDBRANCH 42 43
BRANCH 42 53
ATOM     53  CB  VAL P   7      84.139  -4.893  59.794  1.00 67.45 LIG 0.01  C 
ATOM     54  CG2 VAL P   7      85.344  -4.763  58.879  1.00 67.18 LIG 0.01  C 
ATOM     55  CG1 VAL P   7      83.860  -6.352  60.096  1.00 63.58 LIG 0.01  C 
ENDBRANCH 42 53
ENDBRANCH 39 42
ENDBRANCH 1 38
TORSDOF 20
ENDMDL
MODEL 20
USER: ADFR SOLUTION from run 141
USER: SCORE 19.280588 LL:  -4.600 LR: -15.881 RR:   0.000 FEB:  -9.915
USER: RMSD 4.600023
USER: SEED 140
USER: STATUS no improvement in best in 7 clusters for 5 generations
USER: GENES 22
USER: genes 0 Translation |==|  0.44095 0.53175 0.45043
USER: genes 1 Rotation |==|  0.17509 0.87457 0.55216 0.53755
USER: genes 2 Torsion [N]-CA--C-[N] |==|  0.59958
USER: genes 3 Torsion [C]-N--CA-[CB] |==|  0.78296
USER: genes 4 Torsion [N]-CA--CB-[CG] |==|  0.00836
USER: genes 5 Torsion [CA]-CB--CG-[CD] |==|  0.39600
USER: genes 6 Torsion [CB]-CG--CD-[OE1] |==|  0.10486
USER: genes 7 Torsion [N]-CA--C-[N] |==|  0.16312
USER: genes 8 Torsion [C]-N--CA-[C] |==|  0.75684
USER: genes 9 Torsion [N]-CA--C-[O] |==|  0.93243
USER: genes 10 Torsion [N]-CA--CB-[CG] |==|  0.81339
USER: genes 11 Torsion [CA]-CB--CG-[CD1] |==|  0.24741
USER: genes 12 Torsion [C]-CA--CB-[CG] |==|  0.53759
USER: genes 13 Torsion [CA]-CB--CG-[CD1] |==|  0.17227
USER: genes 14 Torsion [CE1]-CZ--OH-[HH] |==|  0.06629
USER: genes 15 Torsion [C]-CA--N-[C] |==|  0.66743
USER: genes 16 Torsion [N]-C--CA-[N] |==|  0.45405
USER: genes 17 Torsion [C]-CA--N-[C] |==|  0.56937
USER: genes 18 Torsion [N]-C--CA-[N] |==|  0.35366
USER: genes 19 Torsion [C]-CA--CB-[CG] |==|  0.19263
USER: genes 20 Torsion [CA]-CB--CG-[CD2] |==|  0.79815
USER: genes 21 Torsion [C]-CA--CB-[CG2] |==|  0.76493
ROOT
ATOM      1  CA  TYR P   8      81.220  -1.453  59.848  1.00 57.99 LIG 0.18  C 
ENDROOT
BRANCH 1 2
ATOM      2  C   TYR P   8      79.863  -0.780  59.701  1.00 56.68 LIG 0.24  C 
ATOM      3  N   GLN P   9      79.868   0.478  59.272  1.00 57.67 LIG-0.35  N 
ATOM      4 H    GLN P   9      80.585   0.934  59.136  1.00 57.67 LIG 0.16  HD
ATOM      5 O    TYR P   8      78.829  -1.399  59.973  1.00 54.26 LIG-0.27  OA
BRANCH 3 6
ATOM      6  CA  GLN P   9      78.636   1.202  58.994  1.00 54.86 LIG 0.18  C 
BRANCH 6 7
ATOM      7  CB  GLN P   9      78.049   0.790  57.646  1.00 52.41 LIG 0.04  C 
BRANCH 7 8
ATOM      8  CG  GLN P   9      78.828  -0.312  56.949  1.00 53.63 LIG 0.10  C 
BRANCH 8 9
ATOM      9  CD  GLN P   9      77.923  -1.284  56.227  1.00 56.56 LIG 0.21  C 
ATOM     10 OE1  GLN P   9      76.914  -0.889  55.643  1.00 59.67 LIG-0.27  OA
ATOM     11  NE2 GLN P   9      78.277  -2.565  56.261  1.00 58.55 LIG-0.37  N 
ATOM     12 22HE GLN P   9      77.793  -3.156  55.865  1.00 58.55 LIG 0.16  HD
ATOM     13 21HE GLN P   9      78.989  -2.803  56.680  1.00 58.55 LIG 0.16  HD
ENDBRANCH 8 9
ENDBRANCH 7 8
ENDBRANCH 6 7
BRANCH 6 14
ATOM     14  C   GLN P   9      77.642   0.934  60.117  1.00 54.72 LIG 0.24  C 
ATOM     15 O    GLN P   9      76.546   0.416  59.871  1.00 59.60 LIG-0.27  OA
ATOM     16  N   PHE P  10      78.026   1.271  61.342  1.00 49.02 LIG-0.34  N 
ATOM     17 H    PHE P  10      78.802   1.586  61.538  1.00 49.02 LIG 0.16  HD
BRANCH 16 18
ATOM     18  CA  PHE P  10      77.125   1.125  62.477  1.00 50.33 LIG 0.19  C 
BRANCH 18 19
ATOM     19  C   PHE P  10      76.255   2.363  62.664  1.00 49.91 LIG 0.20  C 
ATOM     20 O    PHE P  10      76.630   3.458  62.240  1.00 45.93 LIG-0.65  OA
ATOM     21 OXT  PHE P  10      75.173   2.294  63.249  1.00 46.36 LIG-0.65  OA
ENDBRANCH 18 19
BRANCH 18 22
ATOM     22  CB  PHE P  10      77.908   0.823  63.758  1.00 51.88 LIG 0.07  C 
BRANCH 22 23
ATOM     23  CG  PHE P  10      78.586  -0.522  63.767  1.00 51.17 LIG-0.06  A 
ATOM     24  CD1 PHE P  10      79.871  -0.667  63.273  1.00 49.53 LIG 0.01  A 
ATOM     25  CE1 PHE P  10      80.490  -1.901  63.268  1.00 54.45 LIG 0.00  A 
ATOM     26  CZ  PHE P  10      79.820  -3.012  63.742  1.00 54.40 LIG 0.00  A 
ATOM     27  CE2 PHE P  10      78.538  -2.883  64.230  1.00 52.97 LIG 0.00  A 
ATOM     28  CD2 PHE P  10      77.922  -1.645  64.235  1.00 50.02 LIG 0.01  A 
ENDBRANCH 22 23
ENDBRANCH 18 22
ENDBRANCH 16 18
ENDBRANCH 6 14
ENDBRANCH 3 6
ENDBRANCH 1 2
BRANCH 1 29
ATOM     29  CB  TYR P   8      82.253  -0.744  58.972  1.00 54.61 LIG 0.07  C 
BRANCH 29 30
ATOM     30  CG  TYR P   8      83.545  -1.503  58.784  1.00 66.64 LIG-0.06  A 
ATOM     31  CD1 TYR P   8      83.556  -2.745  58.163  1.00 68.29 LIG 0.01  A 
ATOM     32  CE1 TYR P   8      84.732  -3.445  57.993  1.00 71.89 LIG 0.04  A 
ATOM     33  CZ  TYR P   8      85.917  -2.906  58.451  1.00 71.50 LIG 0.07  A 
ATOM     34  CE2 TYR P   8      85.930  -1.677  59.074  1.00 69.11 LIG 0.04  A 
ATOM     35  CD2 TYR P   8      84.749  -0.985  59.240  1.00 65.21 LIG 0.01  A 
BRANCH 33 36
ATOM     36 OH   TYR P   8      87.091  -3.601  58.284  1.00 83.55 LIG-0.36  OA
ATOM     37 HH   TYR P   8      87.012  -4.135  57.639  1.00 83.55 LIG 0.22  HD
ENDBRANCH 33 36
ENDBRANCH 29 30
ENDBRANCH 1 29
BRANCH 1 38
ATOM     38  N   TYR P   8      81.090  -2.855  59.478  1.00 59.31 LIG-0.35  N 
ATOM     39  C   VAL P   7      81.354  -3.851  60.320  1.00 65.10 LIG 0.24  C 
ATOM     40 O    VAL P   7      81.798  -3.670  61.461  1.00 66.40 LIG-0.27  OA
ATOM     41 H    TYR P   8      80.827  -2.978  58.668  1.00 59.31 LIG 0.16  HD
BRANCH 39 42
ATOM     42  CA  VAL P   7      81.083  -5.258  59.805  1.00 68.90 LIG 0.18  C 
BRANCH 42 43
ATOM     43  N   VAL P   7      81.774  -6.214  60.661  1.00 69.26 LIG-0.34  N 
ATOM     44  C   LEU P   6      82.142  -7.421  60.243  1.00 74.59 LIG 0.26  C 
ATOM     45 O    LEU P   6      81.962  -7.810  59.086  1.00 73.78 LIG-0.27  OA
ATOM     46 H    VAL P   7      81.921  -5.925  61.457  1.00 69.26 LIG 0.16  HD
BRANCH 44 47
ATOM     47  CA  LEU P   6      82.832  -8.302  61.289  1.00 78.06 LIG 0.40  C 
ATOM     48  N   LEU P   6      82.174  -9.600  61.381  1.00 74.40 LIG 0.61  N 
BRANCH 47 49
ATOM     49  CB  LEU P   6      84.323  -8.479  60.974  1.00 78.52 LIG 0.06  C 
BRANCH 49 50
ATOM     50  CG  LEU P   6      85.302  -7.308  61.103  1.00 77.43 LIG-0.02  C 
ATOM     51  CD2 LEU P   6      85.123  -6.281  59.990  1.00 73.93 LIG 0.01  C 
ATOM     52  CD1 LEU P   6      86.709  -7.865  61.120  1.00 75.78 LIG 0.01  C 
ENDBRANCH 49 50
ENDBRANCH 47 49
ENDBRANCH 44 47
ENDBRANCH 42 43
BRANCH 42 53
ATOM     53  CB  VAL P   7      79.573  -5.549  59.757  1.00 67.45 LIG 0.01  C 
ATOM     54  CG2 VAL P   7      79.085  -6.022  61.115  1.00 67.18 LIG 0.01  C 
ATOM     55  CG1 VAL P   7      79.267  -6.587  58.696  1.00 63.58 LIG 0.01  C 
ENDBRANCH 42 53
ENDBRANCH 39 42
ENDBRANCH 1 38
TORSDOF 20
ENDMDL
MODEL 21
USER: ADFR SOLUTION from run 40
USER: SCORE 20.298210 LL:  -5.208 LR: -15.820 RR:   0.000 FEB:  -9.854
USER: RMSD 5.320423
USER: SEED 39
USER: STATUS no improvement in best in 5 clusters for 5 generations
USER: GENES 22
USER: genes 0 Translation |==|  0.41842 0.48517 0.50995
USER: genes 1 Rotation |==|  0.27625 0.69376 0.36240 0.87876
USER: genes 2 Torsion [N]-CA--C-[N] |==|  0.44580
USER: genes 3 Torsion [C]-N--CA-[CB] |==|  0.16636
USER: genes 4 Torsion [N]-CA--CB-[CG] |==|  0.12667
USER: genes 5 Torsion [CA]-CB--CG-[CD] |==|  0.22414
USER: genes 6 Torsion [CB]-CG--CD-[OE1] |==|  0.77094
USER: genes 7 Torsion [N]-CA--C-[N] |==|  0.09716
USER: genes 8 Torsion [C]-N--CA-[C] |==|  0.53881
USER: genes 9 Torsion [N]-CA--C-[O] |==|  0.05417
USER: genes 10 Torsion [N]-CA--CB-[CG] |==|  0.24617
USER: genes 11 Torsion [CA]-CB--CG-[CD1] |==|  0.36066
USER: genes 12 Torsion [C]-CA--CB-[CG] |==|  0.29966
USER: genes 13 Torsion [CA]-CB--CG-[CD1] |==|  0.75293
USER: genes 14 Torsion [CE1]-CZ--OH-[HH] |==|  0.02304
USER: genes 15 Torsion [C]-CA--N-[C] |==|  0.64741
USER: genes 16 Torsion [N]-C--CA-[N] |==|  0.79702
USER: genes 17 Torsion [C]-CA--N-[C] |==|  0.67142
USER: genes 18 Torsion [N]-C--CA-[N] |==|  0.43689
USER: genes 19 Torsion [C]-CA--CB-[CG] |==|  0.14179
USER: genes 20 Torsion [CA]-CB--CG-[CD2] |==|  0.71893
USER: genes 21 Torsion [C]-CA--CB-[CG2] |==|  0.73107
ROOT
ATOM      1  CA  TYR P   8      80.713  -2.501  60.919  1.00 57.99 LIG 0.18  C 
ENDROOT
BRANCH 1 2
ATOM      2  C   TYR P   8      80.874  -1.388  59.893  1.00 56.68 LIG 0.24  C 
ATOM      3  N   GLN P   9      79.939  -0.444  59.892  1.00 57.67 LIG-0.35  N 
ATOM      4 H    GLN P   9      79.237  -0.464  60.389  1.00 57.67 LIG 0.16  HD
ATOM      5 O    TYR P   8      81.836  -1.391  59.118  1.00 54.26 LIG-0.27  OA
BRANCH 3 6
ATOM      6  CA  GLN P   9      80.028   0.727  59.030  1.00 54.86 LIG 0.18  C 
BRANCH 6 7
ATOM      7  CB  GLN P   9      80.072   0.324  57.558  1.00 52.41 LIG 0.04  C 
BRANCH 7 8
ATOM      8  CG  GLN P   9      79.046  -0.730  57.179  1.00 53.63 LIG 0.10  C 
BRANCH 8 9
ATOM      9  CD  GLN P   9      77.674  -0.139  56.951  1.00 56.56 LIG 0.21  C 
ATOM     10 OE1  GLN P   9      76.924   0.092  57.899  1.00 59.67 LIG-0.27  OA
ATOM     11  NE2 GLN P   9      77.335   0.110  55.690  1.00 58.55 LIG-0.37  N 
ATOM     12 22HE GLN P   9      76.564   0.446  55.510  1.00 58.55 LIG 0.16  HD
ATOM     13 21HE GLN P   9      77.887  -0.065  55.054  1.00 58.55 LIG 0.16  HD
ENDBRANCH 8 9
ENDBRANCH 7 8
ENDBRANCH 6 7
BRANCH 6 14
ATOM     14  C   GLN P   9      78.833   1.632  59.304  1.00 54.72 LIG 0.24  C 
ATOM     15 O    GLN P   9      78.305   2.266  58.383  1.00 59.60 LIG-0.27  OA
ATOM     16  N   PHE P  10      78.400   1.680  60.559  1.00 49.02 LIG-0.34  N 
ATOM     17 H    PHE P  10      78.723   1.209  61.202  1.00 49.02 LIG 0.16  HD
BRANCH 16 18
ATOM     18  CA  PHE P  10      77.312   2.569  60.943  1.00 50.33 LIG 0.19  C 
BRANCH 18 19
ATOM     19  C   PHE P  10      77.214   2.713  62.457  1.00 49.91 LIG 0.20  C 
ATOM     20 O    PHE P  10      78.176   2.429  63.173  1.00 45.93 LIG-0.65  OA
ATOM     21 OXT  PHE P  10      76.174   3.104  62.990  1.00 46.36 LIG-0.65  OA
ENDBRANCH 18 19
BRANCH 18 22
ATOM     22  CB  PHE P  10      75.981   2.078  60.365  1.00 51.88 LIG 0.07  C 
BRANCH 22 23
ATOM     23  CG  PHE P  10      75.244   1.105  61.246  1.00 51.17 LIG-0.06  A 
ATOM     24  CD1 PHE P  10      73.906   1.299  61.547  1.00 49.53 LIG 0.01  A 
ATOM     25  CE1 PHE P  10      73.231   0.416  62.366  1.00 54.45 LIG 0.00  A 
ATOM     26  CZ  PHE P  10      73.895  -0.667  62.908  1.00 54.40 LIG 0.00  A 
ATOM     27  CE2 PHE P  10      75.227  -0.869  62.622  1.00 52.97 LIG 0.00  A 
ATOM     28  CD2 PHE P  10      75.899   0.017  61.801  1.00 50.02 LIG 0.01  A 
ENDBRANCH 22 23
ENDBRANCH 18 22
ENDBRANCH 16 18
ENDBRANCH 6 14
ENDBRANCH 3 6
ENDBRANCH 1 2
BRANCH 1 29
ATOM     29  CB  TYR P   8      81.146  -2.007  62.299  1.00 54.61 LIG 0.07  C 
BRANCH 29 30
ATOM     30  CG  TYR P   8      80.013  -1.783  63.271  1.00 66.64 LIG-0.06  A 
ATOM     31  CD1 TYR P   8      79.367  -0.555  63.341  1.00 68.29 LIG 0.01  A 
ATOM     32  CE1 TYR P   8      78.335  -0.343  64.230  1.00 71.89 LIG 0.04  A 
ATOM     33  CZ  TYR P   8      77.940  -1.364  65.069  1.00 71.50 LIG 0.07  A 
ATOM     34  CE2 TYR P   8      78.568  -2.590  65.022  1.00 69.11 LIG 0.04  A 
ATOM     35  CD2 TYR P   8      79.600  -2.792  64.130  1.00 65.21 LIG 0.01  A 
BRANCH 33 36
ATOM     36 OH   TYR P   8      76.912  -1.156  65.958  1.00 83.55 LIG-0.36  OA
ATOM     37 HH   TYR P   8      76.552  -0.414  65.801  1.00 83.55 LIG 0.22  HD
ENDBRANCH 33 36
ENDBRANCH 29 30
ENDBRANCH 1 29
BRANCH 1 38
ATOM     38  N   TYR P   8      81.508  -3.645  60.496  1.00 59.31 LIG-0.35  N 
ATOM     39  C   VAL P   7      81.004  -4.870  60.376  1.00 65.10 LIG 0.24  C 
ATOM     40 O    VAL P   7      79.837  -5.152  60.680  1.00 66.40 LIG-0.27  OA
ATOM     41 H    TYR P   8      82.331  -3.455  60.332  1.00 59.31 LIG 0.16  HD
BRANCH 39 42
ATOM     42  CA  VAL P   7      81.946  -5.938  59.838  1.00 68.90 LIG 0.18  C 
BRANCH 42 43
ATOM     43  N   VAL P   7      82.146  -5.716  58.412  1.00 69.26 LIG-0.34  N 
ATOM     44  C   LEU P   6      81.797  -6.606  57.488  1.00 74.59 LIG 0.26  C 
ATOM     45 O    LEU P   6      81.240  -7.671  57.764  1.00 73.78 LIG-0.27  OA
ATOM     46 H    VAL P   7      82.509  -4.960  58.226  1.00 69.26 LIG 0.16  HD
BRANCH 44 47
ATOM     47  CA  LEU P   6      82.111  -6.214  56.041  1.00 78.06 LIG 0.40  C 
ATOM     48  N   LEU P   6      82.199  -7.400  55.197  1.00 74.40 LIG 0.61  N 
BRANCH 47 49
ATOM     49  CB  LEU P   6      81.062  -5.241  55.487  1.00 78.52 LIG 0.06  C 
BRANCH 49 50
ATOM     50  CG  LEU P   6      80.677  -3.974  56.257  1.00 77.43 LIG-0.02  C 
ATOM     51  CD2 LEU P   6      79.358  -4.131  57.005  1.00 73.93 LIG 0.01  C 
ATOM     52  CD1 LEU P   6      80.622  -2.821  55.277  1.00 75.78 LIG 0.01  C 
ENDBRANCH 49 50
ENDBRANCH 47 49
ENDBRANCH 44 47
ENDBRANCH 42 43
BRANCH 42 53
ATOM     53  CB  VAL P   7      83.286  -5.925  60.594  1.00 67.45 LIG 0.01  C 
ATOM     54  CG2 VAL P   7      84.317  -5.122  59.821  1.00 67.18 LIG 0.01  C 
ATOM     55  CG1 VAL P   7      83.781  -7.340  60.820  1.00 63.58 LIG 0.01  C 
ENDBRANCH 42 53
ENDBRANCH 39 42
ENDBRANCH 1 38
TORSDOF 20
ENDMDL
MODEL 22
USER: ADFR SOLUTION from run 69
USER: SCORE 19.565062 LL:  -4.585 LR: -15.796 RR:   0.000 FEB:  -9.830
USER: RMSD 4.215238
USER: SEED 68
USER: STATUS no improvement in best in 16 clusters for 5 generations
USER: GENES 22
USER: genes 0 Translation |==|  0.46124 0.58757 0.42912
USER: genes 1 Rotation |==|  0.80187 0.10804 0.53563 0.56303
USER: genes 2 Torsion [N]-CA--C-[N] |==|  0.45335
USER: genes 3 Torsion [C]-N--CA-[CB] |==|  0.78176
USER: genes 4 Torsion [N]-CA--CB-[CG] |==|  0.52079
USER: genes 5 Torsion [CA]-CB--CG-[CD] |==|  0.18302
USER: genes 6 Torsion [CB]-CG--CD-[OE1] |==|  0.21657
USER: genes 7 Torsion [N]-CA--C-[N] |==|  0.18858
USER: genes 8 Torsion [C]-N--CA-[C] |==|  0.56790
USER: genes 9 Torsion [N]-CA--C-[O] |==|  0.45797
USER: genes 10 Torsion [N]-CA--CB-[CG] |==|  0.28143
USER: genes 11 Torsion [CA]-CB--CG-[CD1] |==|  0.81372
USER: genes 12 Torsion [C]-CA--CB-[CG] |==|  0.54457
USER: genes 13 Torsion [CA]-CB--CG-[CD1] |==|  0.22980
USER: genes 14 Torsion [CE1]-CZ--OH-[HH] |==|  0.37975
USER: genes 15 Torsion [C]-CA--N-[C] |==|  0.79323
USER: genes 16 Torsion [N]-C--CA-[N] |==|  0.09847
USER: genes 17 Torsion [C]-CA--N-[C] |==|  0.60684
USER: genes 18 Torsion [N]-C--CA-[N] |==|  0.74422
USER: genes 19 Torsion [C]-CA--CB-[CG] |==|  0.38011
USER: genes 20 Torsion [CA]-CB--CG-[CD2] |==|  0.13682
USER: genes 21 Torsion [C]-CA--CB-[CG2] |==|  0.21770
ROOT
ATOM      1  CA  TYR P   8      81.677  -0.197  59.464  1.00 57.99 LIG 0.18  C 
ENDROOT
BRANCH 1 2
ATOM      2  C   TYR P   8      80.364   0.467  59.075  1.00 56.68 LIG 0.24  C 
ATOM      3  N   GLN P   9      80.366   1.794  59.012  1.00 57.67 LIG-0.35  N 
ATOM      4 H    GLN P   9      81.039   2.282  59.233  1.00 57.67 LIG 0.16  HD
ATOM      5 O    TYR P   8      79.366  -0.221  58.836  1.00 54.26 LIG-0.27  OA
BRANCH 3 6
ATOM      6  CA  GLN P   9      79.205   2.546  58.556  1.00 54.86 LIG 0.18  C 
BRANCH 6 7
ATOM      7  CB  GLN P   9      79.101   2.525  57.033  1.00 52.41 LIG 0.04  C 
BRANCH 7 8
ATOM      8  CG  GLN P   9      78.020   3.436  56.479  1.00 53.63 LIG 0.10  C 
BRANCH 8 9
ATOM      9  CD  GLN P   9      78.317   4.897  56.730  1.00 56.56 LIG 0.21  C 
ATOM     10 OE1  GLN P   9      79.133   5.501  56.035  1.00 59.67 LIG-0.27  OA
ATOM     11  NE2 GLN P   9      77.655   5.477  57.727  1.00 58.55 LIG-0.37  N 
ATOM     12 22HE GLN P   9      77.791   6.306  57.909  1.00 58.55 LIG 0.16  HD
ATOM     13 21HE GLN P   9      77.092   5.022  58.191  1.00 58.55 LIG 0.16  HD
ENDBRANCH 8 9
ENDBRANCH 7 8
ENDBRANCH 6 7
BRANCH 6 14
ATOM     14  C   GLN P   9      77.953   1.951  59.188  1.00 54.72 LIG 0.24  C 
ATOM     15 O    GLN P   9      77.124   1.356  58.491  1.00 59.60 LIG-0.27  OA
ATOM     16  N   PHE P  10      77.823   2.100  60.502  1.00 49.02 LIG-0.34  N 
ATOM     17 H    PHE P  10      78.413   2.468  61.009  1.00 49.02 LIG 0.16  HD
BRANCH 16 18
ATOM     18  CA  PHE P  10      76.630   1.634  61.195  1.00 50.33 LIG 0.19  C 
BRANCH 18 19
ATOM     19  C   PHE P  10      76.406   2.394  62.497  1.00 49.91 LIG 0.20  C 
ATOM     20 O    PHE P  10      75.317   2.337  63.072  1.00 45.93 LIG-0.65  OA
ATOM     21 OXT  PHE P  10      77.301   3.083  62.990  1.00 46.36 LIG-0.65  OA
ENDBRANCH 18 19
BRANCH 18 22
ATOM     22  CB  PHE P  10      76.710   0.128  61.461  1.00 51.88 LIG 0.07  C 
BRANCH 22 23
ATOM     23  CG  PHE P  10      77.094  -0.233  62.871  1.00 51.17 LIG-0.06  A 
ATOM     24  CD1 PHE P  10      78.361   0.053  63.353  1.00 49.53 LIG 0.01  A 
ATOM     25  CE1 PHE P  10      78.720  -0.290  64.641  1.00 54.45 LIG 0.00  A 
ATOM     26  CZ  PHE P  10      77.819  -0.942  65.458  1.00 54.40 LIG 0.00  A 
ATOM     27  CE2 PHE P  10      76.558  -1.240  64.990  1.00 52.97 LIG 0.00  A 
ATOM     28  CD2 PHE P  10      76.201  -0.894  63.700  1.00 50.02 LIG 0.01  A 
ENDBRANCH 22 23
ENDBRANCH 18 22
ENDBRANCH 16 18
ENDBRANCH 6 14
ENDBRANCH 3 6
ENDBRANCH 1 2
BRANCH 1 29
ATOM     29  CB  TYR P   8      82.654  -0.150  58.291  1.00 54.61 LIG 0.07  C 
BRANCH 29 30
ATOM     30  CG  TYR P   8      83.829  -1.091  58.412  1.00 66.64 LIG-0.06  A 
ATOM     31  CD1 TYR P   8      83.710  -2.428  58.053  1.00 68.29 LIG 0.01  A 
ATOM     32  CE1 TYR P   8      84.777  -3.293  58.166  1.00 71.89 LIG 0.04  A 
ATOM     33  CZ  TYR P   8      85.982  -2.827  58.650  1.00 71.50 LIG 0.07  A 
ATOM     34  CE2 TYR P   8      86.124  -1.506  59.017  1.00 69.11 LIG 0.04  A 
ATOM     35  CD2 TYR P   8      85.050  -0.648  58.901  1.00 65.21 LIG 0.01  A 
BRANCH 33 36
ATOM     36 OH   TYR P   8      87.049  -3.687  58.765  1.00 83.55 LIG-0.36  OA
ATOM     37 HH   TYR P   8      87.746  -3.308  58.488  1.00 83.55 LIG 0.22  HD
ENDBRANCH 33 36
ENDBRANCH 29 30
ENDBRANCH 1 29
BRANCH 1 38
ATOM     38  N   TYR P   8      81.406  -1.569  59.870  1.00 59.31 LIG-0.35  N 
ATOM     39  C   VAL P   7      80.844  -1.880  61.034  1.00 65.10 LIG 0.24  C 
ATOM     40 O    VAL P   7      80.570  -1.036  61.898  1.00 66.40 LIG-0.27  OA
ATOM     41 H    TYR P   8      81.642  -2.156  59.288  1.00 59.31 LIG 0.16  HD
BRANCH 39 42
ATOM     42  CA  VAL P   7      80.548  -3.355  61.268  1.00 68.90 LIG 0.18  C 
BRANCH 42 43
ATOM     43  N   VAL P   7      81.603  -4.150  60.653  1.00 69.26 LIG-0.34  N 
ATOM     44  C   LEU P   6      81.368  -5.298  60.024  1.00 74.59 LIG 0.26  C 
ATOM     45 O    LEU P   6      80.233  -5.758  59.878  1.00 73.78 LIG-0.27  OA
ATOM     46 H    VAL P   7      82.388  -3.809  60.735  1.00 69.26 LIG 0.16  HD
BRANCH 44 47
ATOM     47  CA  LEU P   6      82.603  -6.011  59.466  1.00 78.06 LIG 0.40  C 
ATOM     48  N   LEU P   6      82.845  -5.612  58.085  1.00 74.40 LIG 0.61  N 
BRANCH 47 49
ATOM     49  CB  LEU P   6      83.843  -5.736  60.327  1.00 78.52 LIG 0.06  C 
BRANCH 49 50
ATOM     50  CG  LEU P   6      84.819  -6.860  60.688  1.00 77.43 LIG-0.02  C 
ATOM     51  CD2 LEU P   6      85.237  -7.674  59.469  1.00 73.93 LIG 0.01  C 
ATOM     52  CD1 LEU P   6      84.168  -7.734  61.739  1.00 75.78 LIG 0.01  C 
ENDBRANCH 49 50
ENDBRANCH 47 49
ENDBRANCH 44 47
ENDBRANCH 42 43
BRANCH 42 53
ATOM     53  CB  VAL P   7      80.426  -3.665  62.770  1.00 67.45 LIG 0.01  C 
ATOM     54  CG2 VAL P   7      79.066  -3.230  63.287  1.00 67.18 LIG 0.01  C 
ATOM     55  CG1 VAL P   7      81.531  -2.976  63.545  1.00 63.58 LIG 0.01  C 
ENDBRANCH 42 53
ENDBRANCH 39 42
ENDBRANCH 1 38
TORSDOF 20
ENDMDL
MODEL 23
USER: ADFR SOLUTION from run 13
USER: SCORE 19.605976 LL:  -4.484 LR: -15.738 RR:   0.000 FEB:  -9.772
USER: RMSD 6.079663
USER: SEED 346654
USER: STATUS no improvement in best in 11 clusters for 5 generations
USER: GENES 22
USER: genes 0 Translation |==|  0.46667 0.50079 0.41548
USER: genes 1 Rotation |==|  0.73212 0.13481 0.28250 0.62430
USER: genes 2 Torsion [N]-CA--C-[N] |==|  0.99116
USER: genes 3 Torsion [C]-N--CA-[CB] |==|  0.88479
USER: genes 4 Torsion [N]-CA--CB-[CG] |==|  0.69508
USER: genes 5 Torsion [CA]-CB--CG-[CD] |==|  0.09741
USER: genes 6 Torsion [CB]-CG--CD-[OE1] |==|  0.19396
USER: genes 7 Torsion [N]-CA--C-[N] |==|  0.87145
USER: genes 8 Torsion [C]-N--CA-[C] |==|  0.87676
USER: genes 9 Torsion [N]-CA--C-[O] |==|  0.74547
USER: genes 10 Torsion [N]-CA--CB-[CG] |==|  0.74666
USER: genes 11 Torsion [CA]-CB--CG-[CD1] |==|  0.33937
USER: genes 12 Torsion [C]-CA--CB-[CG] |==|  0.78459
USER: genes 13 Torsion [CA]-CB--CG-[CD1] |==|  0.62346
USER: genes 14 Torsion [CE1]-CZ--OH-[HH] |==|  0.16230
USER: genes 15 Torsion [C]-CA--N-[C] |==|  0.76078
USER: genes 16 Torsion [N]-C--CA-[N] |==|  0.47891
USER: genes 17 Torsion [C]-CA--N-[C] |==|  0.62130
USER: genes 18 Torsion [N]-C--CA-[N] |==|  0.52841
USER: genes 19 Torsion [C]-CA--CB-[CG] |==|  0.82639
USER: genes 20 Torsion [CA]-CB--CG-[CD2] |==|  0.63443
USER: genes 21 Torsion [C]-CA--CB-[CG2] |==|  0.84406
ROOT
ATOM      1  CA  TYR P   8      81.799  -2.149  59.219  1.00 57.99 LIG 0.18  C 
ENDROOT
BRANCH 1 2
ATOM      2  C   TYR P   8      81.061  -1.370  60.298  1.00 56.68 LIG 0.24  C 
ATOM      3  N   GLN P   9      80.008  -1.969  60.846  1.00 57.67 LIG-0.35  N 
ATOM      4 H    GLN P   9      79.700  -2.728  60.584  1.00 57.67 LIG 0.16  HD
ATOM      5 O    TYR P   8      81.447  -0.243  60.625  1.00 54.26 LIG-0.27  OA
BRANCH 3 6
ATOM      6  CA  GLN P   9      79.276  -1.376  61.956  1.00 54.86 LIG 0.18  C 
BRANCH 6 7
ATOM      7  CB  GLN P   9      80.230  -0.756  62.975  1.00 52.41 LIG 0.04  C 
BRANCH 7 8
ATOM      8  CG  GLN P   9      80.301  -1.513  64.289  1.00 53.63 LIG 0.10  C 
BRANCH 8 9
ATOM      9  CD  GLN P   9      80.170  -3.007  64.099  1.00 56.56 LIG 0.21  C 
ATOM     10 OE1  GLN P   9      81.070  -3.653  63.563  1.00 59.67 LIG-0.27  OA
ATOM     11  NE2 GLN P   9      79.046  -3.566  64.536  1.00 58.55 LIG-0.37  N 
ATOM     12 22HE GLN P   9      78.925  -4.414  64.449  1.00 58.55 LIG 0.16  HD
ATOM     13 21HE GLN P   9      78.440  -3.082  64.904  1.00 58.55 LIG 0.16  HD
ENDBRANCH 8 9
ENDBRANCH 7 8
ENDBRANCH 6 7
BRANCH 6 14
ATOM     14  C   GLN P   9      78.318  -0.325  61.410  1.00 54.72 LIG 0.24  C 
ATOM     15 O    GLN P   9      77.147  -0.281  61.805  1.00 59.60 LIG-0.27  OA
ATOM     16  N   PHE P  10      78.814   0.523  60.517  1.00 49.02 LIG-0.34  N 
ATOM     17 H    PHE P  10      79.637   0.539  60.267  1.00 49.02 LIG 0.16  HD
BRANCH 16 18
ATOM     18  CA  PHE P  10      77.965   1.519  59.877  1.00 50.33 LIG 0.19  C 
BRANCH 18 19
ATOM     19  C   PHE P  10      76.636   0.920  59.433  1.00 49.91 LIG 0.20  C 
ATOM     20 O    PHE P  10      76.508   0.458  58.297  1.00 45.93 LIG-0.65  OA
ATOM     21 OXT  PHE P  10      75.667   0.896  60.194  1.00 46.36 LIG-0.65  OA
ENDBRANCH 18 19
BRANCH 18 22
ATOM     22  CB  PHE P  10      78.684   2.164  58.689  1.00 51.88 LIG 0.07  C 
BRANCH 22 23
ATOM     23  CG  PHE P  10      79.460   3.408  59.034  1.00 51.17 LIG-0.06  A 
ATOM     24  CD1 PHE P  10      80.819   3.485  58.778  1.00 49.53 LIG 0.01  A 
ATOM     25  CE1 PHE P  10      81.535   4.619  59.107  1.00 54.45 LIG 0.00  A 
ATOM     26  CZ  PHE P  10      80.900   5.685  59.712  1.00 54.40 LIG 0.00  A 
ATOM     27  CE2 PHE P  10      79.550   5.619  59.978  1.00 52.97 LIG 0.00  A 
ATOM     28  CD2 PHE P  10      78.836   4.482  59.647  1.00 50.02 LIG 0.01  A 
ENDBRANCH 22 23
ENDBRANCH 18 22
ENDBRANCH 16 18
ENDBRANCH 6 14
ENDBRANCH 3 6
ENDBRANCH 1 2
BRANCH 1 29
ATOM     29  CB  TYR P   8      81.753  -1.384  57.897  1.00 54.61 LIG 0.07  C 
BRANCH 29 30
ATOM     30  CG  TYR P   8      80.440  -1.483  57.158  1.00 66.64 LIG-0.06  A 
ATOM     31  CD1 TYR P   8      80.410  -1.712  55.788  1.00 68.29 LIG 0.01  A 
ATOM     32  CE1 TYR P   8      79.214  -1.798  55.107  1.00 71.89 LIG 0.04  A 
ATOM     33  CZ  TYR P   8      78.027  -1.648  55.795  1.00 71.50 LIG 0.07  A 
ATOM     34  CE2 TYR P   8      78.031  -1.415  57.153  1.00 69.11 LIG 0.04  A 
ATOM     35  CD2 TYR P   8      79.233  -1.330  57.826  1.00 65.21 LIG 0.01  A 
BRANCH 33 36
ATOM     36 OH   TYR P   8      76.833  -1.732  55.119  1.00 83.55 LIG-0.36  OA
ATOM     37 HH   TYR P   8      76.777  -2.481  54.741  1.00 83.55 LIG 0.22  HD
ENDBRANCH 33 36
ENDBRANCH 29 30
ENDBRANCH 1 29
BRANCH 1 38
ATOM     38  N   TYR P   8      81.185  -3.463  59.088  1.00 59.31 LIG-0.35  N 
ATOM     39  C   VAL P   7      81.531  -4.500  59.846  1.00 65.10 LIG 0.24  C 
ATOM     40 O    VAL P   7      82.449  -4.453  60.676  1.00 66.40 LIG-0.27  OA
ATOM     41 H    TYR P   8      80.581  -3.506  58.477  1.00 59.31 LIG 0.16  HD
BRANCH 39 42
ATOM     42  CA  VAL P   7      80.732  -5.780  59.643  1.00 68.90 LIG 0.18  C 
BRANCH 42 43
ATOM     43  N   VAL P   7      81.353  -6.851  60.412  1.00 69.26 LIG-0.34  N 
ATOM     44  C   LEU P   6      81.536  -8.075  59.927  1.00 74.59 LIG 0.26  C 
ATOM     45 O    LEU P   6      81.230  -8.388  58.774  1.00 73.78 LIG-0.27  OA
ATOM     46 H    VAL P   7      81.589  -6.617  61.205  1.00 69.26 LIG 0.16  HD
BRANCH 44 47
ATOM     47  CA  LEU P   6      82.178  -9.079  60.889  1.00 78.06 LIG 0.40  C 
ATOM     48  N   LEU P   6      82.548 -10.300  60.184  1.00 74.40 LIG 0.61  N 
BRANCH 47 49
ATOM     49  CB  LEU P   6      83.401  -8.475  61.591  1.00 78.52 LIG 0.06  C 
BRANCH 49 50
ATOM     50  CG  LEU P   6      84.631  -8.031  60.791  1.00 77.43 LIG-0.02  C 
ATOM     51  CD2 LEU P   6      85.929  -8.561  61.388  1.00 73.93 LIG 0.01  C 
ATOM     52  CD1 LEU P   6      84.631  -6.519  60.721  1.00 75.78 LIG 0.01  C 
ENDBRANCH 49 50
ENDBRANCH 47 49
ENDBRANCH 44 47
ENDBRANCH 42 43
BRANCH 42 53
ATOM     53  CB  VAL P   7      79.261  -5.587  60.052  1.00 67.45 LIG 0.01  C 
ATOM     54  CG2 VAL P   7      79.174  -5.105  61.489  1.00 67.18 LIG 0.01  C 
ATOM     55  CG1 VAL P   7      78.489  -6.879  59.880  1.00 63.58 LIG 0.01  C 
ENDBRANCH 42 53
ENDBRANCH 39 42
ENDBRANCH 1 38
TORSDOF 20
ENDMDL
MODEL 24
USER: ADFR SOLUTION from run 121
USER: SCORE 19.328755 LL:  -4.801 LR: -15.732 RR:   0.000 FEB:  -9.766
USER: RMSD 5.153859
USER: SEED 120
USER: STATUS no improvement in best in 9 clusters for 5 generations
USER: GENES 22
USER: genes 0 Translation |==|  0.44296 0.55276 0.42576
USER: genes 1 Rotation |==|  0.42762 0.53526 0.61719 0.97936
USER: genes 2 Torsion [N]-CA--C-[N] |==|  0.19067
USER: genes 3 Torsion [C]-N--CA-[CB] |==|  0.54293
USER: genes 4 Torsion [N]-CA--CB-[CG] |==|  0.63187
USER: genes 5 Torsion [CA]-CB--CG-[CD] |==|  0.84082
USER: genes 6 Torsion [CB]-CG--CD-[OE1] |==|  0.92085
USER: genes 7 Torsion [N]-CA--C-[N] |==|  0.26822
USER: genes 8 Torsion [C]-N--CA-[C] |==|  0.53436
USER: genes 9 Torsion [N]-CA--C-[O] |==|  0.46528
USER: genes 10 Torsion [N]-CA--CB-[CG] |==|  0.25532
USER: genes 11 Torsion [CA]-CB--CG-[CD1] |==|  0.77694
USER: genes 12 Torsion [C]-CA--CB-[CG] |==|  0.29998
USER: genes 13 Torsion [CA]-CB--CG-[CD1] |==|  0.11550
USER: genes 14 Torsion [CE1]-CZ--OH-[HH] |==|  0.17988
USER: genes 15 Torsion [C]-CA--N-[C] |==|  0.65278
USER: genes 16 Torsion [N]-C--CA-[N] |==|  0.88333
USER: genes 17 Torsion [C]-CA--N-[C] |==|  0.83117
USER: genes 18 Torsion [N]-C--CA-[N] |==|  0.32788
USER: genes 19 Torsion [C]-CA--CB-[CG] |==|  0.39176
USER: genes 20 Torsion [CA]-CB--CG-[CD2] |==|  0.48520
USER: genes 21 Torsion [C]-CA--CB-[CG2] |==|  0.44012
ROOT
ATOM      1  CA  TYR P   8      81.266  -0.980  59.404  1.00 57.99 LIG 0.18  C 
ENDROOT
BRANCH 1 2
ATOM      2  C   TYR P   8      80.257   0.158  59.465  1.00 56.68 LIG 0.24  C 
ATOM      3  N   GLN P   9      79.999   0.784  58.322  1.00 57.67 LIG-0.35  N 
ATOM      4 H    GLN P   9      80.409   0.620  57.583  1.00 57.67 LIG 0.16  HD
ATOM      5 O    TYR P   8      79.722   0.458  60.538  1.00 54.26 LIG-0.27  OA
BRANCH 3 6
ATOM      6  CA  GLN P   9      78.982   1.822  58.223  1.00 54.86 LIG 0.18  C 
BRANCH 6 7
ATOM      7  CB  GLN P   9      78.623   2.103  56.766  1.00 52.41 LIG 0.04  C 
BRANCH 7 8
ATOM      8  CG  GLN P   9      78.594   3.580  56.415  1.00 53.63 LIG 0.10  C 
BRANCH 8 9
ATOM      9  CD  GLN P   9      77.630   4.357  57.283  1.00 56.56 LIG 0.21  C 
ATOM     10 OE1  GLN P   9      76.637   3.811  57.763  1.00 59.67 LIG-0.27  OA
ATOM     11  NE2 GLN P   9      77.917   5.638  57.491  1.00 58.55 LIG-0.37  N 
ATOM     12 22HE GLN P   9      77.398   6.121  57.978  1.00 58.55 LIG 0.16  HD
ATOM     13 21HE GLN P   9      78.620   5.984  57.139  1.00 58.55 LIG 0.16  HD
ENDBRANCH 8 9
ENDBRANCH 7 8
ENDBRANCH 6 7
BRANCH 6 14
ATOM     14  C   GLN P   9      77.751   1.381  59.005  1.00 54.72 LIG 0.24  C 
ATOM     15 O    GLN P   9      76.921   0.625  58.488  1.00 59.60 LIG-0.27  OA
ATOM     16  N   PHE P  10      77.641   1.840  60.246  1.00 49.02 LIG-0.34  N 
ATOM     17 H    PHE P  10      78.232   2.326  60.638  1.00 49.02 LIG 0.16  HD
BRANCH 16 18
ATOM     18  CA  PHE P  10      76.467   1.539  61.055  1.00 50.33 LIG 0.19  C 
BRANCH 18 19
ATOM     19  C   PHE P  10      76.415   2.403  62.309  1.00 49.91 LIG 0.20  C 
ATOM     20 O    PHE P  10      75.388   2.453  62.989  1.00 45.93 LIG-0.65  OA
ATOM     21 OXT  PHE P  10      77.389   3.073  62.658  1.00 46.36 LIG-0.65  OA
ENDBRANCH 18 19
BRANCH 18 22
ATOM     22  CB  PHE P  10      76.429   0.054  61.426  1.00 51.88 LIG 0.07  C 
BRANCH 22 23
ATOM     23  CG  PHE P  10      77.090  -0.274  62.738  1.00 51.17 LIG-0.06  A 
ATOM     24  CD1 PHE P  10      78.467  -0.400  62.822  1.00 49.53 LIG 0.01  A 
ATOM     25  CE1 PHE P  10      79.075  -0.715  64.021  1.00 54.45 LIG 0.00  A 
ATOM     26  CZ  PHE P  10      78.308  -0.927  65.150  1.00 54.40 LIG 0.00  A 
ATOM     27  CE2 PHE P  10      76.936  -0.812  65.079  1.00 52.97 LIG 0.00  A 
ATOM     28  CD2 PHE P  10      76.332  -0.495  63.877  1.00 50.02 LIG 0.01  A 
ENDBRANCH 22 23
ENDBRANCH 18 22
ENDBRANCH 16 18
ENDBRANCH 6 14
ENDBRANCH 3 6
ENDBRANCH 1 2
BRANCH 1 29
ATOM     29  CB  TYR P   8      81.256  -1.760  60.718  1.00 54.61 LIG 0.07  C 
BRANCH 29 30
ATOM     30  CG  TYR P   8      80.630  -3.130  60.631  1.00 66.64 LIG-0.06  A 
ATOM     31  CD1 TYR P   8      80.877  -3.958  59.543  1.00 68.29 LIG 0.01  A 
ATOM     32  CE1 TYR P   8      80.303  -5.210  59.456  1.00 71.89 LIG 0.04  A 
ATOM     33  CZ  TYR P   8      79.466  -5.646  60.462  1.00 71.50 LIG 0.07  A 
ATOM     34  CE2 TYR P   8      79.202  -4.841  61.549  1.00 69.11 LIG 0.04  A 
ATOM     35  CD2 TYR P   8      79.780  -3.591  61.627  1.00 65.21 LIG 0.01  A 
BRANCH 33 36
ATOM     36 OH   TYR P   8      78.892  -6.892  60.378  1.00 83.55 LIG-0.36  OA
ATOM     37 HH   TYR P   8      79.492  -7.480  60.411  1.00 83.55 LIG 0.22  HD
ENDBRANCH 33 36
ENDBRANCH 29 30
ENDBRANCH 1 29
BRANCH 1 38
ATOM     38  N   TYR P   8      82.583  -0.423  59.132  1.00 59.31 LIG-0.35  N 
ATOM     39  C   VAL P   7      83.339  -0.820  58.111  1.00 65.10 LIG 0.24  C 
ATOM     40 O    VAL P   7      83.015  -1.743  57.352  1.00 66.40 LIG-0.27  OA
ATOM     41 H    TYR P   8      82.826   0.184  59.691  1.00 59.31 LIG 0.16  HD
BRANCH 39 42
ATOM     42  CA  VAL P   7      84.652  -0.075  57.915  1.00 68.90 LIG 0.18  C 
BRANCH 42 43
ATOM     43  N   VAL P   7      84.421   1.349  58.115  1.00 69.26 LIG-0.34  N 
ATOM     44  C   LEU P   6      83.581   2.057  57.365  1.00 74.59 LIG 0.26  C 
ATOM     45 O    LEU P   6      82.903   1.552  56.468  1.00 73.78 LIG-0.27  OA
ATOM     46 H    VAL P   7      84.877   1.688  58.761  1.00 69.26 LIG 0.16  HD
BRANCH 44 47
ATOM     47  CA  LEU P   6      83.489   3.548  57.702  1.00 78.06 LIG 0.40  C 
ATOM     48  N   LEU P   6      83.917   4.356  56.567  1.00 74.40 LIG 0.61  N 
BRANCH 47 49
ATOM     49  CB  LEU P   6      82.068   3.936  58.129  1.00 78.52 LIG 0.06  C 
BRANCH 49 50
ATOM     50  CG  LEU P   6      81.831   4.936  59.265  1.00 77.43 LIG-0.02  C 
ATOM     51  CD2 LEU P   6      80.355   5.275  59.437  1.00 73.93 LIG 0.01  C 
ATOM     52  CD1 LEU P   6      82.653   6.176  58.984  1.00 75.78 LIG 0.01  C 
ENDBRANCH 49 50
ENDBRANCH 47 49
ENDBRANCH 44 47
ENDBRANCH 42 43
BRANCH 42 53
ATOM     53  CB  VAL P   7      85.735  -0.600  58.873  1.00 67.45 LIG 0.01  C 
ATOM     54  CG2 VAL P   7      87.116  -0.263  58.341  1.00 67.18 LIG 0.01  C 
ATOM     55  CG1 VAL P   7      85.593  -2.097  59.064  1.00 63.58 LIG 0.01  C 
ENDBRANCH 42 53
ENDBRANCH 39 42
ENDBRANCH 1 38
TORSDOF 20
ENDMDL
MODEL 25
USER: ADFR SOLUTION from run 111
USER: SCORE 19.432591 LL:  -4.509 LR: -15.732 RR:   0.000 FEB:  -9.766
USER: RMSD 5.547009
USER: SEED 110
USER: STATUS no improvement in best in 10 clusters for 5 generations
USER: GENES 22
USER: genes 0 Translation |==|  0.45344 0.40816 0.54252
USER: genes 1 Rotation |==|  0.20956 0.65119 0.47186 0.87682
USER: genes 2 Torsion [N]-CA--C-[N] |==|  0.81482
USER: genes 3 Torsion [C]-N--CA-[CB] |==|  0.77148
USER: genes 4 Torsion [N]-CA--CB-[CG] |==|  0.12826
USER: genes 5 Torsion [CA]-CB--CG-[CD] |==|  0.33553
USER: genes 6 Torsion [CB]-CG--CD-[OE1] |==|  0.67880
USER: genes 7 Torsion [N]-CA--C-[N] |==|  0.19505
USER: genes 8 Torsion [C]-N--CA-[C] |==|  0.82848
USER: genes 9 Torsion [N]-CA--C-[O] |==|  0.36004
USER: genes 10 Torsion [N]-CA--CB-[CG] |==|  0.56009
USER: genes 11 Torsion [CA]-CB--CG-[CD1] |==|  0.69136
USER: genes 12 Torsion [C]-CA--CB-[CG] |==|  0.16610
USER: genes 13 Torsion [CA]-CB--CG-[CD1] |==|  0.68085
USER: genes 14 Torsion [CE1]-CZ--OH-[HH] |==|  0.83512
USER: genes 15 Torsion [C]-CA--N-[C] |==|  0.72447
USER: genes 16 Torsion [N]-C--CA-[N] |==|  0.42678
USER: genes 17 Torsion [C]-CA--N-[C] |==|  0.77404
USER: genes 18 Torsion [N]-C--CA-[N] |==|  0.47127
USER: genes 19 Torsion [C]-CA--CB-[CG] |==|  0.24249
USER: genes 20 Torsion [CA]-CB--CG-[CD2] |==|  0.73122
USER: genes 21 Torsion [C]-CA--CB-[CG2] |==|  0.21848
ROOT
ATOM      1  CA  TYR P   8      81.501  -4.233  61.505  1.00 57.99 LIG 0.18  C 
ENDROOT
BRANCH 1 2
ATOM      2  C   TYR P   8      80.967  -3.310  60.420  1.00 56.68 LIG 0.24  C 
ATOM      3  N   GLN P   9      81.722  -2.261  60.109  1.00 57.67 LIG-0.35  N 
ATOM      4 H    GLN P   9      82.447  -2.055  60.523  1.00 57.67 LIG 0.16  HD
ATOM      5 O    TYR P   8      79.885  -3.552  59.874  1.00 54.26 LIG-0.27  OA
BRANCH 3 6
ATOM      6  CA  GLN P   9      81.376  -1.357  59.021  1.00 54.86 LIG 0.18  C 
BRANCH 6 7
ATOM      7  CB  GLN P   9      81.828  -1.919  57.675  1.00 52.41 LIG 0.04  C 
BRANCH 7 8
ATOM      8  CG  GLN P   9      81.483  -3.384  57.474  1.00 53.63 LIG 0.10  C 
BRANCH 8 9
ATOM      9  CD  GLN P   9      80.603  -3.605  56.264  1.00 56.56 LIG 0.21  C 
ATOM     10 OE1  GLN P   9      79.458  -4.038  56.391  1.00 59.67 LIG-0.27  OA
ATOM     11  NE2 GLN P   9      81.132  -3.309  55.082  1.00 58.55 LIG-0.37  N 
ATOM     12 22HE GLN P   9      80.670  -3.418  54.364  1.00 58.55 LIG 0.16  HD
ATOM     13 21HE GLN P   9      81.936  -3.008  55.033  1.00 58.55 LIG 0.16  HD
ENDBRANCH 8 9
ENDBRANCH 7 8
ENDBRANCH 6 7
BRANCH 6 14
ATOM     14  C   GLN P   9      79.869  -1.131  59.029  1.00 54.72 LIG 0.24  C 
ATOM     15 O    GLN P   9      79.160  -1.614  58.140  1.00 59.60 LIG-0.27  OA
ATOM     16  N   PHE P  10      79.383  -0.411  60.034  1.00 49.02 LIG-0.34  N 
ATOM     17 H    PHE P  10      79.854  -0.110  60.687  1.00 49.02 LIG 0.16  HD
BRANCH 16 18
ATOM     18  CA  PHE P  10      77.968  -0.074  60.098  1.00 50.33 LIG 0.19  C 
BRANCH 18 19
ATOM     19  C   PHE P  10      77.540   0.772  58.905  1.00 49.91 LIG 0.20  C 
ATOM     20 O    PHE P  10      76.550   0.458  58.241  1.00 45.93 LIG-0.65  OA
ATOM     21 OXT  PHE P  10      78.177   1.775  58.578  1.00 46.36 LIG-0.65  OA
ENDBRANCH 18 19
BRANCH 18 22
ATOM     22  CB  PHE P  10      77.639   0.645  61.409  1.00 51.88 LIG 0.07  C 
BRANCH 22 23
ATOM     23  CG  PHE P  10      76.188   0.580  61.806  1.00 51.17 LIG-0.06  A 
ATOM     24  CD1 PHE P  10      75.398   1.717  61.781  1.00 49.53 LIG 0.01  A 
ATOM     25  CE1 PHE P  10      74.071   1.663  62.157  1.00 54.45 LIG 0.00  A 
ATOM     26  CZ  PHE P  10      73.522   0.469  62.582  1.00 54.40 LIG 0.00  A 
ATOM     27  CE2 PHE P  10      74.298  -0.668  62.619  1.00 52.97 LIG 0.00  A 
ATOM     28  CD2 PHE P  10      75.626  -0.610  62.240  1.00 50.02 LIG 0.01  A 
ENDBRANCH 22 23
ENDBRANCH 18 22
ENDBRANCH 16 18
ENDBRANCH 6 14
ENDBRANCH 3 6
ENDBRANCH 1 2
BRANCH 1 29
ATOM     29  CB  TYR P   8      81.790  -3.435  62.776  1.00 54.61 LIG 0.07  C 
BRANCH 29 30
ATOM     30  CG  TYR P   8      80.592  -2.728  63.360  1.00 66.64 LIG-0.06  A 
ATOM     31  CD1 TYR P   8      80.537  -1.340  63.407  1.00 68.29 LIG 0.01  A 
ATOM     32  CE1 TYR P   8      79.447  -0.688  63.944  1.00 71.89 LIG 0.04  A 
ATOM     33  CZ  TYR P   8      78.395  -1.424  64.449  1.00 71.50 LIG 0.07  A 
ATOM     34  CE2 TYR P   8      78.428  -2.802  64.419  1.00 69.11 LIG 0.04  A 
ATOM     35  CD2 TYR P   8      79.523  -3.445  63.880  1.00 65.21 LIG 0.01  A 
BRANCH 33 36
ATOM     36 OH   TYR P   8      77.307  -0.778  64.987  1.00 83.55 LIG-0.36  OA
ATOM     37 HH   TYR P   8      77.556  -0.296  65.628  1.00 83.55 LIG 0.22  HD
ENDBRANCH 33 36
ENDBRANCH 29 30
ENDBRANCH 1 29
BRANCH 1 38
ATOM     38  N   TYR P   8      82.704  -4.890  61.011  1.00 59.31 LIG-0.35  N 
ATOM     39  C   VAL P   7      82.702  -6.127  60.522  1.00 65.10 LIG 0.24  C 
ATOM     40 O    VAL P   7      81.695  -6.846  60.511  1.00 66.40 LIG-0.27  OA
ATOM     41 H    TYR P   8      83.412  -4.404  61.065  1.00 59.31 LIG 0.16  HD
BRANCH 39 42
ATOM     42  CA  VAL P   7      84.026  -6.634  59.966  1.00 68.90 LIG 0.18  C 
BRANCH 42 43
ATOM     43  N   VAL P   7      84.051  -8.087  60.062  1.00 69.26 LIG-0.34  N 
ATOM     44  C   LEU P   6      84.362  -8.731  61.183  1.00 74.59 LIG 0.26  C 
ATOM     45 O    LEU P   6      84.613  -8.146  62.240  1.00 73.78 LIG-0.27  OA
ATOM     46 H    VAL P   7      83.847  -8.488  59.329  1.00 69.26 LIG 0.16  HD
BRANCH 44 47
ATOM     47  CA  LEU P   6      84.366 -10.260  61.089  1.00 78.06 LIG 0.40  C 
ATOM     48  N   LEU P   6      84.950 -10.845  62.290  1.00 74.40 LIG 0.61  N 
BRANCH 47 49
ATOM     49  CB  LEU P   6      82.952 -10.808  60.860  1.00 78.52 LIG 0.06  C 
BRANCH 49 50
ATOM     50  CG  LEU P   6      82.380 -10.952  59.446  1.00 77.43 LIG-0.02  C 
ATOM     51  CD2 LEU P   6      81.507  -9.767  59.053  1.00 73.93 LIG 0.01  C 
ATOM     52  CD1 LEU P   6      81.609 -12.253  59.377  1.00 75.78 LIG 0.01  C 
ENDBRANCH 49 50
ENDBRANCH 47 49
ENDBRANCH 44 47
ENDBRANCH 42 43
BRANCH 42 53
ATOM     53  CB  VAL P   7      84.230  -6.172  58.513  1.00 67.45 LIG 0.01  C 
ATOM     54  CG2 VAL P   7      84.688  -4.725  58.481  1.00 67.18 LIG 0.01  C 
ATOM     55  CG1 VAL P   7      82.949  -6.338  57.719  1.00 63.58 LIG 0.01  C 
ENDBRANCH 42 53
ENDBRANCH 39 42
ENDBRANCH 1 38
TORSDOF 20
ENDMDL
MODEL 26
USER: ADFR SOLUTION from run 89
USER: SCORE 18.823880 LL:  -4.252 LR: -15.734 RR:   0.000 FEB:  -9.768
USER: RMSD 6.378100
USER: SEED 88
USER: STATUS no improvement in best in 10 clusters for 5 generations
USER: GENES 22
USER: genes 0 Translation |==|  0.38365 0.44895 0.60508
USER: genes 1 Rotation |==|  0.34166 0.66183 0.48675 0.94560
USER: genes 2 Torsion [N]-CA--C-[N] |==|  0.36401
USER: genes 3 Torsion [C]-N--CA-[CB] |==|  0.86517
USER: genes 4 Torsion [N]-CA--CB-[CG] |==|  0.65533
USER: genes 5 Torsion [CA]-CB--CG-[CD] |==|  0.76770
USER: genes 6 Torsion [CB]-CG--CD-[OE1] |==|  0.41980
USER: genes 7 Torsion [N]-CA--C-[N] |==|  0.47557
USER: genes 8 Torsion [C]-N--CA-[C] |==|  0.17916
USER: genes 9 Torsion [N]-CA--C-[O] |==|  0.58111
USER: genes 10 Torsion [N]-CA--CB-[CG] |==|  0.73990
USER: genes 11 Torsion [CA]-CB--CG-[CD1] |==|  0.51452
USER: genes 12 Torsion [C]-CA--CB-[CG] |==|  0.08485
USER: genes 13 Torsion [CA]-CB--CG-[CD1] |==|  0.63719
USER: genes 14 Torsion [CE1]-CZ--OH-[HH] |==|  0.35806
USER: genes 15 Torsion [C]-CA--N-[C] |==|  0.65316
USER: genes 16 Torsion [N]-C--CA-[N] |==|  0.41100
USER: genes 17 Torsion [C]-CA--N-[C] |==|  0.72393
USER: genes 18 Torsion [N]-C--CA-[N] |==|  0.57266
USER: genes 19 Torsion [C]-CA--CB-[CG] |==|  0.25040
USER: genes 20 Torsion [CA]-CB--CG-[CD2] |==|  0.00320
USER: genes 21 Torsion [C]-CA--CB-[CG2] |==|  0.17510
ROOT
ATOM      1  CA  TYR P   8      79.931  -3.316  62.631  1.00 57.99 LIG 0.18  C 
ENDROOT
BRANCH 1 2
ATOM      2  C   TYR P   8      79.585  -1.887  62.237  1.00 56.68 LIG 0.24  C 
ATOM      3  N   GLN P   9      78.313  -1.646  61.939  1.00 57.67 LIG-0.35  N 
ATOM      4 H    GLN P   9      77.706  -2.255  61.903  1.00 57.67 LIG 0.16  HD
ATOM      5 O    TYR P   8      80.465  -1.020  62.206  1.00 54.26 LIG-0.27  OA
BRANCH 3 6
ATOM      6  CA  GLN P   9      77.832  -0.303  61.644  1.00 54.86 LIG 0.18  C 
BRANCH 6 7
ATOM      7  CB  GLN P   9      78.306   0.695  62.697  1.00 52.41 LIG 0.04  C 
BRANCH 7 8
ATOM      8  CG  GLN P   9      77.181   1.465  63.364  1.00 53.63 LIG 0.10  C 
BRANCH 8 9
ATOM      9  CD  GLN P   9      76.748   2.665  62.553  1.00 56.56 LIG 0.21  C 
ATOM     10 OE1  GLN P   9      75.591   3.081  62.615  1.00 59.67 LIG-0.27  OA
ATOM     11  NE2 GLN P   9      77.674   3.230  61.785  1.00 58.55 LIG-0.37  N 
ATOM     12 22HE GLN P   9      77.475   3.915  61.304  1.00 58.55 LIG 0.16  HD
ATOM     13 21HE GLN P   9      78.472   2.911  61.768  1.00 58.55 LIG 0.16  HD
ENDBRANCH 8 9
ENDBRANCH 7 8
ENDBRANCH 6 7
BRANCH 6 14
ATOM     14  C   GLN P   9      78.322   0.103  60.260  1.00 54.72 LIG 0.24  C 
ATOM     15 O    GLN P   9      79.134  -0.605  59.652  1.00 59.60 LIG-0.27  OA
ATOM     16  N   PHE P  10      77.824   1.228  59.760  1.00 49.02 LIG-0.34  N 
ATOM     17 H    PHE P  10      77.222   1.706  60.146  1.00 49.02 LIG 0.16  HD
BRANCH 16 18
ATOM     18  CA  PHE P  10      78.280   1.744  58.477  1.00 50.33 LIG 0.19  C 
BRANCH 18 19
ATOM     19  C   PHE P  10      77.924   0.801  57.334  1.00 49.91 LIG 0.20  C 
ATOM     20 O    PHE P  10      78.629   0.750  56.324  1.00 45.93 LIG-0.65  OA
ATOM     21 OXT  PHE P  10      76.924   0.083  57.394  1.00 46.36 LIG-0.65  OA
ENDBRANCH 18 19
BRANCH 18 22
ATOM     22  CB  PHE P  10      79.788   2.008  58.503  1.00 51.88 LIG 0.07  C 
BRANCH 22 23
ATOM     23  CG  PHE P  10      80.165   3.420  58.863  1.00 51.17 LIG-0.06  A 
ATOM     24  CD1 PHE P  10      81.488   3.830  58.821  1.00 49.53 LIG 0.01  A 
ATOM     25  CE1 PHE P  10      81.838   5.121  59.165  1.00 54.45 LIG 0.00  A 
ATOM     26  CZ  PHE P  10      80.867   6.014  59.574  1.00 54.40 LIG 0.00  A 
ATOM     27  CE2 PHE P  10      79.548   5.617  59.628  1.00 52.97 LIG 0.00  A 
ATOM     28  CD2 PHE P  10      79.202   4.324  59.282  1.00 50.02 LIG 0.01  A 
ENDBRANCH 22 23
ENDBRANCH 18 22
ENDBRANCH 16 18
ENDBRANCH 6 14
ENDBRANCH 3 6
ENDBRANCH 1 2
BRANCH 1 29
ATOM     29  CB  TYR P   8      80.199  -3.393  64.134  1.00 54.61 LIG 0.07  C 
BRANCH 29 30
ATOM     30  CG  TYR P   8      79.425  -2.398  64.963  1.00 66.64 LIG-0.06  A 
ATOM     31  CD1 TYR P   8      80.066  -1.608  65.909  1.00 68.29 LIG 0.01  A 
ATOM     32  CE1 TYR P   8      79.363  -0.701  66.674  1.00 71.89 LIG 0.04  A 
ATOM     33  CZ  TYR P   8      77.999  -0.579  66.502  1.00 71.50 LIG 0.07  A 
ATOM     34  CE2 TYR P   8      77.340  -1.355  65.573  1.00 69.11 LIG 0.04  A 
ATOM     35  CD2 TYR P   8      78.052  -2.259  64.813  1.00 65.21 LIG 0.01  A 
BRANCH 33 36
ATOM     36 OH   TYR P   8      77.295   0.324  67.263  1.00 83.55 LIG-0.36  OA
ATOM     37 HH   TYR P   8      76.824   0.806  66.761  1.00 83.55 LIG 0.22  HD
ENDBRANCH 33 36
ENDBRANCH 29 30
ENDBRANCH 1 29
BRANCH 1 38
ATOM     38  N   TYR P   8      81.093  -3.744  61.866  1.00 59.31 LIG-0.35  N 
ATOM     39  C   VAL P   7      81.099  -4.842  61.114  1.00 65.10 LIG 0.24  C 
ATOM     40 O    VAL P   7      80.142  -5.626  61.059  1.00 66.40 LIG-0.27  OA
ATOM     41 H    TYR P   8      81.773  -3.223  61.945  1.00 59.31 LIG 0.16  HD
BRANCH 39 42
ATOM     42  CA  VAL P   7      82.364  -5.101  60.309  1.00 68.90 LIG 0.18  C 
BRANCH 42 43
ATOM     43  N   VAL P   7      82.559  -6.540  60.187  1.00 69.26 LIG-0.34  N 
ATOM     44  C   LEU P   6      83.399  -7.222  60.959  1.00 74.59 LIG 0.26  C 
ATOM     45 O    LEU P   6      84.049  -6.695  61.865  1.00 73.78 LIG-0.27  OA
ATOM     46 H    VAL P   7      82.081  -6.904  59.572  1.00 69.26 LIG 0.16  HD
BRANCH 44 47
ATOM     47  CA  LEU P   6      83.495  -8.723  60.668  1.00 78.06 LIG 0.40  C 
ATOM     48  N   LEU P   6      83.904  -9.451  61.863  1.00 74.40 LIG 0.61  N 
BRANCH 47 49
ATOM     49  CB  LEU P   6      82.166  -9.274  60.135  1.00 78.52 LIG 0.06  C 
BRANCH 49 50
ATOM     50  CG  LEU P   6      81.867  -9.297  58.633  1.00 77.43 LIG-0.02  C 
ATOM     51  CD2 LEU P   6      83.026  -8.754  57.805  1.00 73.93 LIG 0.01  C 
ATOM     52  CD1 LEU P   6      80.598  -8.509  58.389  1.00 75.78 LIG 0.01  C 
ENDBRANCH 49 50
ENDBRANCH 47 49
ENDBRANCH 44 47
ENDBRANCH 42 43
BRANCH 42 53
ATOM     53  CB  VAL P   7      82.286  -4.435  58.925  1.00 67.45 LIG 0.01  C 
ATOM     54  CG2 VAL P   7      82.192  -2.927  59.072  1.00 67.18 LIG 0.01  C 
ATOM     55  CG1 VAL P   7      81.097  -4.964  58.147  1.00 63.58 LIG 0.01  C 
ENDBRANCH 42 53
ENDBRANCH 39 42
ENDBRANCH 1 38
TORSDOF 20
ENDMDL
MODEL 27
USER: ADFR SOLUTION from run 7
USER: SCORE 19.052766 LL:  -5.154 LR: -15.717 RR:   0.000 FEB:  -9.751
USER: RMSD 9.739653
USER: SEED 593608
USER: STATUS no improvement in best in 13 clusters for 5 generations
USER: GENES 22
USER: genes 0 Translation |==|  0.42033 0.45155 0.54010
USER: genes 1 Rotation |==|  0.25073 0.24249 0.84865 0.50003
USER: genes 2 Torsion [N]-CA--C-[N] |==|  0.41566
USER: genes 3 Torsion [C]-N--CA-[CB] |==|  0.85957
USER: genes 4 Torsion [N]-CA--CB-[CG] |==|  0.53843
USER: genes 5 Torsion [CA]-CB--CG-[CD] |==|  0.17396
USER: genes 6 Torsion [CB]-CG--CD-[OE1] |==|  0.86209
USER: genes 7 Torsion [N]-CA--C-[N] |==|  0.11805
USER: genes 8 Torsion [C]-N--CA-[C] |==|  0.63592
USER: genes 9 Torsion [N]-CA--C-[O] |==|  0.88755
USER: genes 10 Torsion [N]-CA--CB-[CG] |==|  0.81149
USER: genes 11 Torsion [CA]-CB--CG-[CD1] |==|  0.27778
USER: genes 12 Torsion [C]-CA--CB-[CG] |==|  0.47291
USER: genes 13 Torsion [CA]-CB--CG-[CD1] |==|  0.73792
USER: genes 14 Torsion [CE1]-CZ--OH-[HH] |==|  0.81554
USER: genes 15 Torsion [C]-CA--N-[C] |==|  0.71653
USER: genes 16 Torsion [N]-C--CA-[N] |==|  0.32552
USER: genes 17 Torsion [C]-CA--N-[C] |==|  0.59444
USER: genes 18 Torsion [N]-C--CA-[N] |==|  0.32416
USER: genes 19 Torsion [C]-CA--CB-[CG] |==|  0.28951
USER: genes 20 Torsion [CA]-CB--CG-[CD2] |==|  0.92730
USER: genes 21 Torsion [C]-CA--CB-[CG2] |==|  0.75408
ROOT
ATOM      1  CA  TYR P   8      80.756  -3.257  61.462  1.00 57.99 LIG 0.18  C 
ENDROOT
BRANCH 1 2
ATOM      2  C   TYR P   8      81.455  -4.384  60.716  1.00 56.68 LIG 0.24  C 
ATOM      3  N   GLN P   9      82.620  -4.791  61.212  1.00 57.67 LIG-0.35  N 
ATOM      4 H    GLN P   9      83.012  -4.417  61.880  1.00 57.67 LIG 0.16  HD
ATOM      5 O    TYR P   8      80.940  -4.876  59.706  1.00 54.26 LIG-0.27  OA
BRANCH 3 6
ATOM      6  CA  GLN P   9      83.342  -5.926  60.653  1.00 54.86 LIG 0.18  C 
BRANCH 6 7
ATOM      7  CB  GLN P   9      82.430  -7.143  60.517  1.00 52.41 LIG 0.04  C 
BRANCH 7 8
ATOM      8  CG  GLN P   9      83.174  -8.442  60.260  1.00 53.63 LIG 0.10  C 
BRANCH 8 9
ATOM      9  CD  GLN P   9      84.094  -8.811  61.402  1.00 56.56 LIG 0.21  C 
ATOM     10 OE1  GLN P   9      84.882  -7.987  61.865  1.00 59.67 LIG-0.27  OA
ATOM     11  NE2 GLN P   9      83.999 -10.053  61.865  1.00 58.55 LIG-0.37  N 
ATOM     12 22HE GLN P   9      84.502 -10.310  62.514  1.00 58.55 LIG 0.16  HD
ATOM     13 21HE GLN P   9      83.436 -10.600  61.516  1.00 58.55 LIG 0.16  HD
ENDBRANCH 8 9
ENDBRANCH 7 8
ENDBRANCH 6 7
BRANCH 6 14
ATOM     14  C   GLN P   9      83.913  -5.528  59.298  1.00 54.72 LIG 0.24  C 
ATOM     15 O    GLN P   9      83.844  -6.304  58.338  1.00 59.60 LIG-0.27  OA
ATOM     16  N   PHE P  10      84.462  -4.321  59.217  1.00 49.02 LIG-0.34  N 
ATOM     17 H    PHE P  10      84.474  -3.750  59.859  1.00 49.02 LIG 0.16  HD
BRANCH 16 18
ATOM     18  CA  PHE P  10      85.102  -3.870  57.989  1.00 50.33 LIG 0.19  C 
BRANCH 18 19
ATOM     19  C   PHE P  10      86.482  -3.284  58.259  1.00 49.91 LIG 0.20  C 
ATOM     20 O    PHE P  10      86.672  -2.565  59.243  1.00 45.93 LIG-0.65  OA
ATOM     21 OXT  PHE P  10      87.426  -3.508  57.499  1.00 46.36 LIG-0.65  OA
ENDBRANCH 18 19
BRANCH 18 22
ATOM     22  CB  PHE P  10      84.222  -2.852  57.259  1.00 51.88 LIG 0.07  C 
BRANCH 22 23
ATOM     23  CG  PHE P  10      82.947  -3.423  56.697  1.00 51.17 LIG-0.06  A 
ATOM     24  CD1 PHE P  10      81.746  -3.261  57.367  1.00 49.53 LIG 0.01  A 
ATOM     25  CE1 PHE P  10      80.578  -3.796  56.860  1.00 54.45 LIG 0.00  A 
ATOM     26  CZ  PHE P  10      80.602  -4.517  55.683  1.00 54.40 LIG 0.00  A 
ATOM     27  CE2 PHE P  10      81.792  -4.692  55.010  1.00 52.97 LIG 0.00  A 
ATOM     28  CD2 PHE P  10      82.959  -4.154  55.520  1.00 50.02 LIG 0.01  A 
ENDBRANCH 22 23
ENDBRANCH 18 22
ENDBRANCH 16 18
ENDBRANCH 6 14
ENDBRANCH 3 6
ENDBRANCH 1 2
BRANCH 1 29
ATOM     29  CB  TYR P   8      79.864  -3.832  62.561  1.00 54.61 LIG 0.07  C 
BRANCH 29 30
ATOM     30  CG  TYR P   8      79.300  -2.806  63.514  1.00 66.64 LIG-0.06  A 
ATOM     31  CD1 TYR P   8      79.942  -2.519  64.712  1.00 68.29 LIG 0.01  A 
ATOM     32  CE1 TYR P   8      79.430  -1.587  65.590  1.00 71.89 LIG 0.04  A 
ATOM     33  CZ  TYR P   8      78.257  -0.931  65.276  1.00 71.50 LIG 0.07  A 
ATOM     34  CE2 TYR P   8      77.599  -1.201  64.096  1.00 69.11 LIG 0.04  A 
ATOM     35  CD2 TYR P   8      78.119  -2.136  63.225  1.00 65.21 LIG 0.01  A 
BRANCH 33 36
ATOM     36 OH   TYR P   8      77.742  -0.001  66.149  1.00 83.55 LIG-0.36  OA
ATOM     37 HH   TYR P   8      77.500  -0.385  66.856  1.00 83.55 LIG 0.22  HD
ENDBRANCH 33 36
ENDBRANCH 29 30
ENDBRANCH 1 29
BRANCH 1 38
ATOM     38  N   TYR P   8      79.981  -2.476  60.508  1.00 59.31 LIG-0.35  N 
ATOM     39  C   VAL P   7      80.389  -1.300  60.037  1.00 65.10 LIG 0.24  C 
ATOM     40 O    VAL P   7      81.424  -0.742  60.423  1.00 66.40 LIG-0.27  OA
ATOM     41 H    TYR P   8      79.238  -2.844  60.279  1.00 59.31 LIG 0.16  HD
BRANCH 39 42
ATOM     42  CA  VAL P   7      79.503  -0.653  58.981  1.00 68.90 LIG 0.18  C 
BRANCH 42 43
ATOM     43  N   VAL P   7      78.993   0.608  59.502  1.00 69.26 LIG-0.34  N 
ATOM     44  C   LEU P   6      77.785   1.077  59.202  1.00 74.59 LIG 0.26  C 
ATOM     45 O    LEU P   6      76.989   0.460  58.491  1.00 73.78 LIG-0.27  OA
ATOM     46 H    VAL P   7      79.543   1.018  60.020  1.00 69.26 LIG 0.16  HD
BRANCH 44 47
ATOM     47  CA  LEU P   6      77.430   2.433  59.818  1.00 78.06 LIG 0.40  C 
ATOM     48  N   LEU P   6      77.224   3.431  58.776  1.00 74.40 LIG 0.61  N 
BRANCH 47 49
ATOM     49  CB  LEU P   6      76.188   2.331  60.713  1.00 78.52 LIG 0.06  C 
BRANCH 49 50
ATOM     50  CG  LEU P   6      76.313   2.333  62.240  1.00 77.43 LIG-0.02  C 
ATOM     51  CD2 LEU P   6      77.667   1.813  62.709  1.00 73.93 LIG 0.01  C 
ATOM     52  CD1 LEU P   6      75.178   1.510  62.810  1.00 75.78 LIG 0.01  C 
ENDBRANCH 49 50
ENDBRANCH 47 49
ENDBRANCH 44 47
ENDBRANCH 42 43
BRANCH 42 53
ATOM     53  CB  VAL P   7      80.275  -0.438  57.668  1.00 67.45 LIG 0.01  C 
ATOM     54  CG2 VAL P   7      80.974   0.910  57.684  1.00 67.18 LIG 0.01  C 
ATOM     55  CG1 VAL P   7      79.337  -0.532  56.481  1.00 63.58 LIG 0.01  C 
ENDBRANCH 42 53
ENDBRANCH 39 42
ENDBRANCH 1 38
TORSDOF 20
ENDMDL
MODEL 28
USER: ADFR SOLUTION from run 166
USER: SCORE 19.843710 LL:  -4.961 LR: -15.720 RR:   0.000 FEB:  -9.754
USER: RMSD 5.174155
USER: SEED 165
USER: STATUS searching
USER: GENES 22
USER: genes 0 Translation |==|  0.44110 0.57844 0.42008
USER: genes 1 Rotation |==|  0.80295 0.12423 0.56804 0.61132
USER: genes 2 Torsion [N]-CA--C-[N] |==|  0.45918
USER: genes 3 Torsion [C]-N--CA-[CB] |==|  0.78849
USER: genes 4 Torsion [N]-CA--CB-[CG] |==|  0.18220
USER: genes 5 Torsion [CA]-CB--CG-[CD] |==|  0.39975
USER: genes 6 Torsion [CB]-CG--CD-[OE1] |==|  0.51659
USER: genes 7 Torsion [N]-CA--C-[N] |==|  0.18157
USER: genes 8 Torsion [C]-N--CA-[C] |==|  0.51784
USER: genes 9 Torsion [N]-CA--C-[O] |==|  0.96146
USER: genes 10 Torsion [N]-CA--CB-[CG] |==|  0.27669
USER: genes 11 Torsion [CA]-CB--CG-[CD1] |==|  0.31171
USER: genes 12 Torsion [C]-CA--CB-[CG] |==|  0.91988
USER: genes 13 Torsion [CA]-CB--CG-[CD1] |==|  0.82422
USER: genes 14 Torsion [CE1]-CZ--OH-[HH] |==|  0.82469
USER: genes 15 Torsion [C]-CA--N-[C] |==|  0.74281
USER: genes 16 Torsion [N]-C--CA-[N] |==|  0.11111
USER: genes 17 Torsion [C]-CA--N-[C] |==|  0.63394
USER: genes 18 Torsion [N]-C--CA-[N] |==|  0.34205
USER: genes 19 Torsion [C]-CA--CB-[CG] |==|  0.98375
USER: genes 20 Torsion [CA]-CB--CG-[CD2] |==|  0.77594
USER: genes 21 Torsion [C]-CA--CB-[CG2] |==|  0.68559
ROOT
ATOM      1  CA  TYR P   8      81.224  -0.402  59.301  1.00 57.99 LIG 0.18  C 
ENDROOT
BRANCH 1 2
ATOM      2  C   TYR P   8      79.851   0.111  58.891  1.00 56.68 LIG 0.24  C 
ATOM      3  N   GLN P   9      79.785   1.379  58.498  1.00 57.67 LIG-0.35  N 
ATOM      4 H    GLN P   9      80.451   1.922  58.521  1.00 57.67 LIG 0.16  HD
ATOM      5 O    TYR P   8      78.869  -0.638  58.932  1.00 54.26 LIG-0.27  OA
BRANCH 3 6
ATOM      6  CA  GLN P   9      78.553   1.964  57.986  1.00 54.86 LIG 0.18  C 
BRANCH 6 7
ATOM      7  CB  GLN P   9      78.282   1.507  56.554  1.00 52.41 LIG 0.04  C 
BRANCH 7 8
ATOM      8  CG  GLN P   9      78.001   0.020  56.427  1.00 53.63 LIG 0.10  C 
BRANCH 8 9
ATOM      9  CD  GLN P   9      76.964  -0.279  55.369  1.00 56.56 LIG 0.21  C 
ATOM     10 OE1  GLN P   9      76.538  -1.423  55.212  1.00 59.67 LIG-0.27  OA
ATOM     11  NE2 GLN P   9      76.549   0.749  54.635  1.00 58.55 LIG-0.37  N 
ATOM     12 22HE GLN P   9      75.960   0.628  54.020  1.00 58.55 LIG 0.16  HD
ATOM     13 21HE GLN P   9      76.869   1.534  54.774  1.00 58.55 LIG 0.16  HD
ENDBRANCH 8 9
ENDBRANCH 7 8
ENDBRANCH 6 7
BRANCH 6 14
ATOM     14  C   GLN P   9      77.402   1.570  58.902  1.00 54.72 LIG 0.24  C 
ATOM     15 O    GLN P   9      76.499   0.833  58.490  1.00 59.60 LIG-0.27  OA
ATOM     16  N   PHE P  10      77.440   2.046  60.142  1.00 49.02 LIG-0.34  N 
ATOM     17 H    PHE P  10      78.085   2.519  60.460  1.00 49.02 LIG 0.16  HD
BRANCH 16 18
ATOM     18  CA  PHE P  10      76.353   1.791  61.077  1.00 50.33 LIG 0.19  C 
BRANCH 18 19
ATOM     19  C   PHE P  10      76.541   2.563  62.377  1.00 49.91 LIG 0.20  C 
ATOM     20 O    PHE P  10      77.627   3.083  62.643  1.00 45.93 LIG-0.65  OA
ATOM     21 OXT  PHE P  10      75.619   2.671  63.188  1.00 46.36 LIG-0.65  OA
ENDBRANCH 18 19
BRANCH 18 22
ATOM     22  CB  PHE P  10      76.220   0.292  61.358  1.00 51.88 LIG 0.07  C 
BRANCH 22 23
ATOM     23  CG  PHE P  10      76.853  -0.156  62.649  1.00 51.17 LIG-0.06  A 
ATOM     24  CD1 PHE P  10      76.071  -0.605  63.700  1.00 49.53 LIG 0.01  A 
ATOM     25  CE1 PHE P  10      76.648  -1.002  64.890  1.00 54.45 LIG 0.00  A 
ATOM     26  CZ  PHE P  10      78.019  -0.938  65.047  1.00 54.40 LIG 0.00  A 
ATOM     27  CE2 PHE P  10      78.808  -0.487  64.012  1.00 52.97 LIG 0.00  A 
ATOM     28  CD2 PHE P  10      78.226  -0.091  62.822  1.00 50.02 LIG 0.01  A 
ENDBRANCH 22 23
ENDBRANCH 18 22
ENDBRANCH 16 18
ENDBRANCH 6 14
ENDBRANCH 3 6
ENDBRANCH 1 2
BRANCH 1 29
ATOM     29  CB  TYR P   8      82.105  -0.583  58.066  1.00 54.61 LIG 0.07  C 
BRANCH 29 30
ATOM     30  CG  TYR P   8      81.352  -0.901  56.797  1.00 66.64 LIG-0.06  A 
ATOM     31  CD1 TYR P   8      80.617  -2.075  56.681  1.00 68.29 LIG 0.01  A 
ATOM     32  CE1 TYR P   8      79.932  -2.374  55.522  1.00 71.89 LIG 0.04  A 
ATOM     33  CZ  TYR P   8      79.980  -1.497  54.459  1.00 71.50 LIG 0.07  A 
ATOM     34  CE2 TYR P   8      80.706  -0.329  54.548  1.00 69.11 LIG 0.04  A 
ATOM     35  CD2 TYR P   8      81.388  -0.039  55.711  1.00 65.21 LIG 0.01  A 
BRANCH 33 36
ATOM     36 OH   TYR P   8      79.298  -1.792  53.301  1.00 83.55 LIG-0.36  OA
ATOM     37 HH   TYR P   8      79.613  -2.493  52.961  1.00 83.55 LIG 0.22  HD
ENDBRANCH 33 36
ENDBRANCH 29 30
ENDBRANCH 1 29
BRANCH 1 38
ATOM     38  N   TYR P   8      81.059  -1.658  60.019  1.00 59.31 LIG-0.35  N 
ATOM     39  C   VAL P   7      80.948  -1.725  61.343  1.00 65.10 LIG 0.24  C 
ATOM     40 O    VAL P   7      81.048  -0.733  62.078  1.00 66.40 LIG-0.27  OA
ATOM     41 H    TYR P   8      81.039  -2.350  59.508  1.00 59.31 LIG 0.16  HD
BRANCH 39 42
ATOM     42  CA  VAL P   7      80.693  -3.106  61.930  1.00 68.90 LIG 0.18  C 
BRANCH 42 43
ATOM     43  N   VAL P   7      81.497  -4.082  61.207  1.00 69.26 LIG-0.34  N 
ATOM     44  C   LEU P   6      81.000  -5.222  60.739  1.00 74.59 LIG 0.26  C 
ATOM     45 O    LEU P   6      79.809  -5.524  60.846  1.00 73.78 LIG-0.27  OA
ATOM     46 H    VAL P   7      82.320  -3.851  61.112  1.00 69.26 LIG 0.16  HD
BRANCH 44 47
ATOM     47  CA  LEU P   6      82.001  -6.139  60.030  1.00 78.06 LIG 0.40  C 
ATOM     48  N   LEU P   6      82.028  -7.453  60.662  1.00 74.40 LIG 0.61  N 
BRANCH 47 49
ATOM     49  CB  LEU P   6      81.675  -6.271  58.537  1.00 78.52 LIG 0.06  C 
BRANCH 49 50
ATOM     50  CG  LEU P   6      80.406  -5.649  57.947  1.00 77.43 LIG-0.02  C 
ATOM     51  CD2 LEU P   6      79.174  -6.513  58.188  1.00 73.93 LIG 0.01  C 
ATOM     52  CD1 LEU P   6      80.635  -5.412  56.470  1.00 75.78 LIG 0.01  C 
ENDBRANCH 49 50
ENDBRANCH 47 49
ENDBRANCH 44 47
ENDBRANCH 42 43
BRANCH 42 53
ATOM     53  CB  VAL P   7      81.009  -3.135  63.436  1.00 67.45 LIG 0.01  C 
ATOM     54  CG2 VAL P   7      82.207  -4.028  63.704  1.00 67.18 LIG 0.01  C 
ATOM     55  CG1 VAL P   7      79.805  -3.616  64.220  1.00 63.58 LIG 0.01  C 
ENDBRANCH 42 53
ENDBRANCH 39 42
ENDBRANCH 1 38
TORSDOF 20
ENDMDL
MODEL 29
USER: ADFR SOLUTION from run 26
USER: SCORE 19.561462 LL:  -4.607 LR: -15.707 RR:   0.000 FEB:  -9.741
USER: RMSD 9.393015
USER: SEED 25
USER: STATUS no improvement in best in 6 clusters for 5 generations
USER: GENES 22
USER: genes 0 Translation |==|  0.42046 0.46107 0.56296
USER: genes 1 Rotation |==|  0.28072 0.23773 0.86333 0.53348
USER: genes 2 Torsion [N]-CA--C-[N] |==|  0.20047
USER: genes 3 Torsion [C]-N--CA-[CB] |==|  0.18195
USER: genes 4 Torsion [N]-CA--CB-[CG] |==|  0.71260
USER: genes 5 Torsion [CA]-CB--CG-[CD] |==|  0.34697
USER: genes 6 Torsion [CB]-CG--CD-[OE1] |==|  0.68584
USER: genes 7 Torsion [N]-CA--C-[N] |==|  0.07222
USER: genes 8 Torsion [C]-N--CA-[C] |==|  0.82801
USER: genes 9 Torsion [N]-CA--C-[O] |==|  0.92623
USER: genes 10 Torsion [N]-CA--CB-[CG] |==|  0.75432
USER: genes 11 Torsion [CA]-CB--CG-[CD1] |==|  0.59253
USER: genes 12 Torsion [C]-CA--CB-[CG] |==|  0.51975
USER: genes 13 Torsion [CA]-CB--CG-[CD1] |==|  0.21497
USER: genes 14 Torsion [CE1]-CZ--OH-[HH] |==|  0.26763
USER: genes 15 Torsion [C]-CA--N-[C] |==|  0.74840
USER: genes 16 Torsion [N]-C--CA-[N] |==|  0.28395
USER: genes 17 Torsion [C]-CA--N-[C] |==|  0.62282
USER: genes 18 Torsion [N]-C--CA-[N] |==|  0.80372
USER: genes 19 Torsion [C]-CA--CB-[CG] |==|  0.04379
USER: genes 20 Torsion [CA]-CB--CG-[CD2] |==|  0.55566
USER: genes 21 Torsion [C]-CA--CB-[CG2] |==|  0.46695
ROOT
ATOM      1  CA  TYR P   8      80.759  -3.043  61.873  1.00 57.99 LIG 0.18  C 
ENDROOT
BRANCH 1 2
ATOM      2  C   TYR P   8      81.282  -4.142  60.960  1.00 56.68 LIG 0.24  C 
ATOM      3  N   GLN P   9      82.153  -3.773  60.026  1.00 57.67 LIG-0.35  N 
ATOM      4 H    GLN P   9      82.381  -2.956  59.881  1.00 57.67 LIG 0.16  HD
ATOM      5 O    TYR P   8      80.899  -5.308  61.107  1.00 54.26 LIG-0.27  OA
BRANCH 3 6
ATOM      6  CA  GLN P   9      82.804  -4.740  59.154  1.00 54.86 LIG 0.18  C 
BRANCH 6 7
ATOM      7  CB  GLN P   9      81.792  -5.425  58.239  1.00 52.41 LIG 0.04  C 
BRANCH 7 8
ATOM      8  CG  GLN P   9      81.435  -6.838  58.667  1.00 53.63 LIG 0.10  C 
BRANCH 8 9
ATOM      9  CD  GLN P   9      79.945  -7.024  58.846  1.00 56.56 LIG 0.21  C 
ATOM     10 OE1  GLN P   9      79.468  -7.235  59.961  1.00 59.67 LIG-0.27  OA
ATOM     11  NE2 GLN P   9      79.199  -6.947  57.749  1.00 58.55 LIG-0.37  N 
ATOM     12 22HE GLN P   9      78.346  -7.046  57.801  1.00 58.55 LIG 0.16  HD
ATOM     13 21HE GLN P   9      79.569  -6.798  56.988  1.00 58.55 LIG 0.16  HD
ENDBRANCH 8 9
ENDBRANCH 7 8
ENDBRANCH 6 7
BRANCH 6 14
ATOM     14  C   GLN P   9      83.871  -4.025  58.334  1.00 54.72 LIG 0.24  C 
ATOM     15 O    GLN P   9      84.208  -4.464  57.229  1.00 59.60 LIG-0.27  OA
ATOM     16  N   PHE P  10      84.388  -2.923  58.866  1.00 49.02 LIG-0.34  N 
ATOM     17 H    PHE P  10      84.130  -2.576  59.610  1.00 49.02 LIG 0.16  HD
BRANCH 16 18
ATOM     18  CA  PHE P  10      85.465  -2.204  58.200  1.00 50.33 LIG 0.19  C 
BRANCH 18 19
ATOM     19  C   PHE P  10      86.713  -3.066  58.063  1.00 49.91 LIG 0.20  C 
ATOM     20 O    PHE P  10      86.931  -3.980  58.862  1.00 45.93 LIG-0.65  OA
ATOM     21 OXT  PHE P  10      87.530  -2.862  57.162  1.00 46.36 LIG-0.65  OA
ENDBRANCH 18 19
BRANCH 18 22
ATOM     22  CB  PHE P  10      85.791  -0.905  58.942  1.00 51.88 LIG 0.07  C 
BRANCH 22 23
ATOM     23  CG  PHE P  10      84.976   0.283  58.501  1.00 51.17 LIG-0.06  A 
ATOM     24  CD1 PHE P  10      85.524   1.555  58.506  1.00 49.53 LIG 0.01  A 
ATOM     25  CE1 PHE P  10      84.774   2.647  58.116  1.00 54.45 LIG 0.00  A 
ATOM     26  CZ  PHE P  10      83.458   2.480  57.733  1.00 54.40 LIG 0.00  A 
ATOM     27  CE2 PHE P  10      82.899   1.221  57.730  1.00 52.97 LIG 0.00  A 
ATOM     28  CD2 PHE P  10      83.652   0.130  58.120  1.00 50.02 LIG 0.01  A 
ENDBRANCH 22 23
ENDBRANCH 18 22
ENDBRANCH 16 18
ENDBRANCH 6 14
ENDBRANCH 3 6
ENDBRANCH 1 2
BRANCH 1 29
ATOM     29  CB  TYR P   8      80.065  -3.658  63.087  1.00 54.61 LIG 0.07  C 
BRANCH 29 30
ATOM     30  CG  TYR P   8      79.359  -2.664  63.978  1.00 66.64 LIG-0.06  A 
ATOM     31  CD1 TYR P   8      78.127  -2.134  63.617  1.00 68.29 LIG 0.01  A 
ATOM     32  CE1 TYR P   8      77.479  -1.222  64.424  1.00 71.89 LIG 0.04  A 
ATOM     33  CZ  TYR P   8      78.066  -0.824  65.607  1.00 71.50 LIG 0.07  A 
ATOM     34  CE2 TYR P   8      79.290  -1.333  65.986  1.00 69.11 LIG 0.04  A 
ATOM     35  CD2 TYR P   8      79.930  -2.244  65.171  1.00 65.21 LIG 0.01  A 
BRANCH 33 36
ATOM     36 OH   TYR P   8      77.424   0.085  66.414  1.00 83.55 LIG-0.36  OA
ATOM     37 HH   TYR P   8      76.999  -0.323  67.013  1.00 83.55 LIG 0.22  HD
ENDBRANCH 33 36
ENDBRANCH 29 30
ENDBRANCH 1 29
BRANCH 1 38
ATOM     38  N   TYR P   8      79.846  -2.200  61.115  1.00 59.31 LIG-0.35  N 
ATOM     39  C   VAL P   7      80.245  -1.121  60.448  1.00 65.10 LIG 0.24  C 
ATOM     40 O    VAL P   7      81.410  -0.704  60.474  1.00 66.40 LIG-0.27  OA
ATOM     41 H    TYR P   8      79.028  -2.465  61.139  1.00 59.31 LIG 0.16  HD
BRANCH 39 42
ATOM     42  CA  VAL P   7      79.180  -0.399  59.634  1.00 68.90 LIG 0.18  C 
BRANCH 42 43
ATOM     43  N   VAL P   7      78.753   0.789  60.362  1.00 69.26 LIG-0.34  N 
ATOM     44  C   LEU P   6      77.477   1.138  60.489  1.00 74.59 LIG 0.26  C 
ATOM     45 O    LEU P   6      76.552   0.461  60.033  1.00 73.78 LIG-0.27  OA
ATOM     46 H    VAL P   7      79.402   1.240  60.701  1.00 69.26 LIG 0.16  HD
BRANCH 44 47
ATOM     47  CA  LEU P   6      77.219   2.434  61.264  1.00 78.06 LIG 0.40  C 
ATOM     48  N   LEU P   6      77.504   2.248  62.682  1.00 74.40 LIG 0.61  N 
BRANCH 47 49
ATOM     49  CB  LEU P   6      78.049   3.595  60.700  1.00 78.52 LIG 0.06  C 
BRANCH 49 50
ATOM     50  CG  LEU P   6      78.705   3.498  59.319  1.00 77.43 LIG-0.02  C 
ATOM     51  CD2 LEU P   6      79.845   4.496  59.151  1.00 73.93 LIG 0.01  C 
ATOM     52  CD1 LEU P   6      77.633   3.702  58.270  1.00 75.78 LIG 0.01  C 
ENDBRANCH 49 50
ENDBRANCH 47 49
ENDBRANCH 44 47
ENDBRANCH 42 43
BRANCH 42 53
ATOM     53  CB  VAL P   7      79.705  -0.031  58.235  1.00 67.45 LIG 0.01  C 
ATOM     54  CG2 VAL P   7      78.560   0.416  57.345  1.00 67.18 LIG 0.01  C 
ATOM     55  CG1 VAL P   7      80.428  -1.210  57.614  1.00 63.58 LIG 0.01  C 
ENDBRANCH 42 53
ENDBRANCH 39 42
ENDBRANCH 1 38
TORSDOF 20
ENDMDL
MODEL 30
USER: ADFR SOLUTION from run 148
USER: SCORE 19.870609 LL:  -5.737 LR: -15.690 RR:   0.000 FEB:  -9.724
USER: RMSD 9.280160
USER: SEED 147
USER: STATUS no improvement in best in 3 clusters for 5 generations
USER: GENES 22
USER: genes 0 Translation |==|  0.39558 0.55840 0.66100
USER: genes 1 Rotation |==|  0.30786 0.19154 0.83923 0.55340
USER: genes 2 Torsion [N]-CA--C-[N] |==|  0.06581
USER: genes 3 Torsion [C]-N--CA-[CB] |==|  0.15708
USER: genes 4 Torsion [N]-CA--CB-[CG] |==|  0.60222
USER: genes 5 Torsion [CA]-CB--CG-[CD] |==|  0.32848
USER: genes 6 Torsion [CB]-CG--CD-[OE1] |==|  0.23407
USER: genes 7 Torsion [N]-CA--C-[N] |==|  0.80809
USER: genes 8 Torsion [C]-N--CA-[C] |==|  0.53966
USER: genes 9 Torsion [N]-CA--C-[O] |==|  0.15035
USER: genes 10 Torsion [N]-CA--CB-[CG] |==|  0.06085
USER: genes 11 Torsion [CA]-CB--CG-[CD1] |==|  0.63726
USER: genes 12 Torsion [C]-CA--CB-[CG] |==|  0.50445
USER: genes 13 Torsion [CA]-CB--CG-[CD1] |==|  0.69996
USER: genes 14 Torsion [CE1]-CZ--OH-[HH] |==|  0.19005
USER: genes 15 Torsion [C]-CA--N-[C] |==|  0.18316
USER: genes 16 Torsion [N]-C--CA-[N] |==|  0.20501
USER: genes 17 Torsion [C]-CA--N-[C] |==|  0.65556
USER: genes 18 Torsion [N]-C--CA-[N] |==|  0.21035
USER: genes 19 Torsion [C]-CA--CB-[CG] |==|  0.35775
USER: genes 20 Torsion [CA]-CB--CG-[CD2] |==|  0.94009
USER: genes 21 Torsion [C]-CA--CB-[CG2] |==|  0.49563
ROOT
ATOM      1  CA  TYR P   8      80.200  -0.853  63.638  1.00 57.99 LIG 0.18  C 
ENDROOT
BRANCH 1 2
ATOM      2  C   TYR P   8      80.725  -1.675  62.470  1.00 56.68 LIG 0.24  C 
ATOM      3  N   GLN P   9      80.586  -1.143  61.260  1.00 57.67 LIG-0.35  N 
ATOM      4 H    GLN P   9      80.173  -0.404  61.107  1.00 57.67 LIG 0.16  HD
ATOM      5 O    TYR P   8      81.248  -2.776  62.670  1.00 54.26 LIG-0.27  OA
BRANCH 3 6
ATOM      6  CA  GLN P   9      81.135  -1.779  60.070  1.00 54.86 LIG 0.18  C 
BRANCH 6 7
ATOM      7  CB  GLN P   9      80.607  -3.203  59.916  1.00 52.41 LIG 0.04  C 
BRANCH 7 8
ATOM      8  CG  GLN P   9      81.632  -4.182  59.372  1.00 53.63 LIG 0.10  C 
BRANCH 8 9
ATOM      9  CD  GLN P   9      81.934  -5.298  60.347  1.00 56.56 LIG 0.21  C 
ATOM     10 OE1  GLN P   9      81.216  -6.296  60.401  1.00 59.67 LIG-0.27  OA
ATOM     11  NE2 GLN P   9      82.999  -5.136  61.125  1.00 58.55 LIG-0.37  N 
ATOM     12 22HE GLN P   9      83.210  -5.743  61.697  1.00 58.55 LIG 0.16  HD
ATOM     13 21HE GLN P   9      83.476  -4.424  61.059  1.00 58.55 LIG 0.16  HD
ENDBRANCH 8 9
ENDBRANCH 7 8
ENDBRANCH 6 7
BRANCH 6 14
ATOM     14  C   GLN P   9      80.775  -0.938  58.852  1.00 54.72 LIG 0.24  C 
ATOM     15 O    GLN P   9      81.654  -0.330  58.231  1.00 59.60 LIG-0.27  OA
ATOM     16  N   PHE P  10      79.493  -0.914  58.505  1.00 49.02 LIG-0.34  N 
ATOM     17 H    PHE P  10      78.877  -1.370  58.894  1.00 49.02 LIG 0.16  HD
BRANCH 16 18
ATOM     18  CA  PHE P  10      79.032  -0.084  57.401  1.00 50.33 LIG 0.19  C 
BRANCH 18 19
ATOM     19  C   PHE P  10      77.514   0.059  57.404  1.00 49.91 LIG 0.20  C 
ATOM     20 O    PHE P  10      76.928   0.458  58.412  1.00 45.93 LIG-0.65  OA
ATOM     21 OXT  PHE P  10      76.849  -0.231  56.408  1.00 46.36 LIG-0.65  OA
ENDBRANCH 18 19
BRANCH 18 22
ATOM     22  CB  PHE P  10      79.513  -0.645  56.060  1.00 51.88 LIG 0.07  C 
BRANCH 22 23
ATOM     23  CG  PHE P  10      79.867  -2.109  56.091  1.00 51.17 LIG-0.06  A 
ATOM     24  CD1 PHE P  10      81.070  -2.555  55.572  1.00 49.53 LIG 0.01  A 
ATOM     25  CE1 PHE P  10      81.391  -3.898  55.586  1.00 54.45 LIG 0.00  A 
ATOM     26  CZ  PHE P  10      80.499  -4.815  56.107  1.00 54.40 LIG 0.00  A 
ATOM     27  CE2 PHE P  10      79.295  -4.385  56.621  1.00 52.97 LIG 0.00  A 
ATOM     28  CD2 PHE P  10      78.978  -3.040  56.605  1.00 50.02 LIG 0.01  A 
ENDBRANCH 22 23
ENDBRANCH 18 22
ENDBRANCH 16 18
ENDBRANCH 6 14
ENDBRANCH 3 6
ENDBRANCH 1 2
BRANCH 1 29
ATOM     29  CB  TYR P   8      79.638  -1.777  64.718  1.00 54.61 LIG 0.07  C 
BRANCH 29 30
ATOM     30  CG  TYR P   8      79.053  -1.064  65.913  1.00 66.64 LIG-0.06  A 
ATOM     31  CD1 TYR P   8      79.707  -1.074  67.139  1.00 68.29 LIG 0.01  A 
ATOM     32  CE1 TYR P   8      79.174  -0.430  68.235  1.00 71.89 LIG 0.04  A 
ATOM     33  CZ  TYR P   8      77.969   0.232  68.117  1.00 71.50 LIG 0.07  A 
ATOM     34  CE2 TYR P   8      77.299   0.252  66.912  1.00 69.11 LIG 0.04  A 
ATOM     35  CD2 TYR P   8      77.839  -0.396  65.821  1.00 65.21 LIG 0.01  A 
BRANCH 33 36
ATOM     36 OH   TYR P   8      77.435   0.875  69.208  1.00 83.55 LIG-0.36  OA
ATOM     37 HH   TYR P   8      77.911   1.539  69.403  1.00 83.55 LIG 0.22  HD
ENDBRANCH 33 36
ENDBRANCH 29 30
ENDBRANCH 1 29
BRANCH 1 38
ATOM     38  N   TYR P   8      79.179   0.061  63.145  1.00 59.31 LIG-0.35  N 
ATOM     39  C   VAL P   7      78.015  -0.353  62.653  1.00 65.10 LIG 0.24  C 
ATOM     40 O    VAL P   7      77.731  -1.550  62.509  1.00 66.40 LIG-0.27  OA
ATOM     41 H    TYR P   8      79.400   0.891  63.201  1.00 59.31 LIG 0.16  HD
BRANCH 39 42
ATOM     42  CA  VAL P   7      77.023   0.734  62.261  1.00 68.90 LIG 0.18  C 
BRANCH 42 43
ATOM     43  N   VAL P   7      77.475   1.362  61.027  1.00 69.26 LIG-0.34  N 
ATOM     44  C   LEU P   6      77.686   2.670  60.918  1.00 74.59 LIG 0.26  C 
ATOM     45 O    LEU P   6      77.553   3.448  61.867  1.00 73.78 LIG-0.27  OA
ATOM     46 H    VAL P   7      77.593   0.810  60.379  1.00 69.26 LIG 0.16  HD
BRANCH 44 47
ATOM     47  CA  LEU P   6      78.131   3.157  59.536  1.00 78.06 LIG 0.40  C 
ATOM     48  N   LEU P   6      77.003   3.178  58.613  1.00 74.40 LIG 0.61  N 
BRANCH 47 49
ATOM     49  CB  LEU P   6      78.783   4.543  59.616  1.00 78.52 LIG 0.06  C 
BRANCH 49 50
ATOM     50  CG  LEU P   6      80.153   4.809  58.984  1.00 77.43 LIG-0.02  C 
ATOM     51  CD2 LEU P   6      80.955   3.528  58.785  1.00 73.93 LIG 0.01  C 
ATOM     52  CD1 LEU P   6      80.896   5.796  59.860  1.00 75.78 LIG 0.01  C 
ENDBRANCH 49 50
ENDBRANCH 47 49
ENDBRANCH 44 47
ENDBRANCH 42 43
BRANCH 42 53
ATOM     53  CB  VAL P   7      75.605   0.158  62.102  1.00 67.45 LIG 0.01  C 
ATOM     54  CG2 VAL P   7      74.626   1.263  61.749  1.00 67.18 LIG 0.01  C 
ATOM     55  CG1 VAL P   7      75.173  -0.545  63.373  1.00 63.58 LIG 0.01  C 
ENDBRANCH 42 53
ENDBRANCH 39 42
ENDBRANCH 1 38
TORSDOF 20
ENDMDL
MODEL 31
USER: ADFR SOLUTION from run 25
USER: SCORE 18.453166 LL:  -4.313 LR: -15.669 RR:   0.000 FEB:  -9.703
USER: RMSD 9.699368
USER: SEED 24
USER: STATUS no improvement in best in 10 clusters for 5 generations
USER: GENES 22
USER: genes 0 Translation |==|  0.44007 0.44871 0.50619
USER: genes 1 Rotation |==|  0.73745 0.79901 0.17769 0.51804
USER: genes 2 Torsion [N]-CA--C-[N] |==|  0.46386
USER: genes 3 Torsion [C]-N--CA-[CB] |==|  0.84735
USER: genes 4 Torsion [N]-CA--CB-[CG] |==|  0.67262
USER: genes 5 Torsion [CA]-CB--CG-[CD] |==|  0.16285
USER: genes 6 Torsion [CB]-CG--CD-[OE1] |==|  0.79059
USER: genes 7 Torsion [N]-CA--C-[N] |==|  0.10070
USER: genes 8 Torsion [C]-N--CA-[C] |==|  0.86635
USER: genes 9 Torsion [N]-CA--C-[O] |==|  0.93874
USER: genes 10 Torsion [N]-CA--CB-[CG] |==|  0.72896
USER: genes 11 Torsion [CA]-CB--CG-[CD1] |==|  0.10899
USER: genes 12 Torsion [C]-CA--CB-[CG] |==|  0.48059
USER: genes 13 Torsion [CA]-CB--CG-[CD1] |==|  0.16203
USER: genes 14 Torsion [CE1]-CZ--OH-[HH] |==|  0.37610
USER: genes 15 Torsion [C]-CA--N-[C] |==|  0.67060
USER: genes 16 Torsion [N]-C--CA-[N] |==|  0.40135
USER: genes 17 Torsion [C]-CA--N-[C] |==|  0.60556
USER: genes 18 Torsion [N]-C--CA-[N] |==|  0.31646
USER: genes 19 Torsion [C]-CA--CB-[CG] |==|  0.28090
USER: genes 20 Torsion [CA]-CB--CG-[CD2] |==|  0.93934
USER: genes 21 Torsion [C]-CA--CB-[CG2] |==|  0.63634
ROOT
ATOM      1  CA  TYR P   8      81.201  -3.321  60.851  1.00 57.99 LIG 0.18  C 
ENDROOT
BRANCH 1 2
ATOM      2  C   TYR P   8      82.105  -4.215  60.015  1.00 56.68 LIG 0.24  C 
ATOM      3  N   GLN P   9      83.120  -4.792  60.651  1.00 57.67 LIG-0.35  N 
ATOM      4 H    GLN P   9      83.317  -4.641  61.474  1.00 57.67 LIG 0.16  HD
ATOM      5 O    TYR P   8      81.880  -4.376  58.811  1.00 54.26 LIG-0.27  OA
BRANCH 3 6
ATOM      6  CA  GLN P   9      83.999  -5.748  59.991  1.00 54.86 LIG 0.18  C 
BRANCH 6 7
ATOM      7  CB  GLN P   9      83.201  -6.896  59.378  1.00 52.41 LIG 0.04  C 
BRANCH 7 8
ATOM      8  CG  GLN P   9      83.532  -8.256  59.966  1.00 53.63 LIG 0.10  C 
BRANCH 8 9
ATOM      9  CD  GLN P   9      83.294  -8.309  61.458  1.00 56.56 LIG 0.21  C 
ATOM     10 OE1  GLN P   9      84.079  -7.771  62.239  1.00 59.67 LIG-0.27  OA
ATOM     11  NE2 GLN P   9      82.209  -8.960  61.865  1.00 58.55 LIG-0.37  N 
ATOM     12 22HE GLN P   9      82.032  -9.018  62.705  1.00 58.55 LIG 0.16  HD
ATOM     13 21HE GLN P   9      81.685  -9.324  61.289  1.00 58.55 LIG 0.16  HD
ENDBRANCH 8 9
ENDBRANCH 7 8
ENDBRANCH 6 7
BRANCH 6 14
ATOM     14  C   GLN P   9      84.802  -5.020  58.920  1.00 54.72 LIG 0.24  C 
ATOM     15 O    GLN P   9      85.064  -5.578  57.848  1.00 59.60 LIG-0.27  OA
ATOM     16  N   PHE P  10      85.179  -3.778  59.202  1.00 49.02 LIG-0.34  N 
ATOM     17 H    PHE P  10      84.964  -3.358  59.921  1.00 49.02 LIG 0.16  HD
BRANCH 16 18
ATOM     18  CA  PHE P  10      86.013  -3.020  58.279  1.00 50.33 LIG 0.19  C 
BRANCH 18 19
ATOM     19  C   PHE P  10      87.210  -3.836  57.807  1.00 49.91 LIG 0.20  C 
ATOM     20 O    PHE P  10      87.614  -4.793  58.471  1.00 45.93 LIG-0.65  OA
ATOM     21 OXT  PHE P  10      87.799  -3.550  56.763  1.00 46.36 LIG-0.65  OA
ENDBRANCH 18 19
BRANCH 18 22
ATOM     22  CB  PHE P  10      86.478  -1.709  58.919  1.00 51.88 LIG 0.07  C 
BRANCH 22 23
ATOM     23  CG  PHE P  10      85.651  -0.508  58.544  1.00 51.17 LIG-0.06  A 
ATOM     24  CD1 PHE P  10      84.274  -0.607  58.431  1.00 49.53 LIG 0.01  A 
ATOM     25  CE1 PHE P  10      83.514   0.489  58.074  1.00 54.45 LIG 0.00  A 
ATOM     26  CZ  PHE P  10      84.128   1.697  57.807  1.00 54.40 LIG 0.00  A 
ATOM     27  CE2 PHE P  10      85.498   1.808  57.909  1.00 52.97 LIG 0.00  A 
ATOM     28  CD2 PHE P  10      86.254   0.708  58.268  1.00 50.02 LIG 0.01  A 
ENDBRANCH 22 23
ENDBRANCH 18 22
ENDBRANCH 16 18
ENDBRANCH 6 14
ENDBRANCH 3 6
ENDBRANCH 1 2
BRANCH 1 29
ATOM     29  CB  TYR P   8      80.362  -4.171  61.805  1.00 54.61 LIG 0.07  C 
BRANCH 29 30
ATOM     30  CG  TYR P   8      79.547  -3.381  62.800  1.00 66.64 LIG-0.06  A 
ATOM     31  CD1 TYR P   8      78.612  -2.447  62.373  1.00 68.29 LIG 0.01  A 
ATOM     32  CE1 TYR P   8      77.868  -1.719  63.278  1.00 71.89 LIG 0.04  A 
ATOM     33  CZ  TYR P   8      78.059  -1.916  64.629  1.00 71.50 LIG 0.07  A 
ATOM     34  CE2 TYR P   8      78.984  -2.833  65.079  1.00 69.11 LIG 0.04  A 
ATOM     35  CD2 TYR P   8      79.724  -3.556  64.166  1.00 65.21 LIG 0.01  A 
BRANCH 33 36
ATOM     36 OH   TYR P   8      77.320  -1.191  65.535  1.00 83.55 LIG-0.36  OA
ATOM     37 HH   TYR P   8      77.041  -1.701  66.141  1.00 83.55 LIG 0.22  HD
ENDBRANCH 33 36
ENDBRANCH 29 30
ENDBRANCH 1 29
BRANCH 1 38
ATOM     38  N   TYR P   8      80.355  -2.543  59.957  1.00 59.31 LIG-0.35  N 
ATOM     39  C   VAL P   7      80.383  -1.214  59.910  1.00 65.10 LIG 0.24  C 
ATOM     40 O    VAL P   7      81.077  -0.527  60.671  1.00 66.40 LIG-0.27  OA
ATOM     41 H    TYR P   8      79.838  -3.023  59.464  1.00 59.31 LIG 0.16  HD
BRANCH 39 42
ATOM     42  CA  VAL P   7      79.500  -0.558  58.858  1.00 68.90 LIG 0.18  C 
BRANCH 42 43
ATOM     43  N   VAL P   7      78.971   0.688  59.397  1.00 69.26 LIG-0.34  N 
ATOM     44  C   LEU P   6      77.733   1.111  59.157  1.00 74.59 LIG 0.26  C 
ATOM     45 O    LEU P   6      76.924   0.460  58.492  1.00 73.78 LIG-0.27  OA
ATOM     46 H    VAL P   7      79.532   1.122  59.883  1.00 69.26 LIG 0.16  HD
BRANCH 44 47
ATOM     47  CA  LEU P   6      77.362   2.458  59.783  1.00 78.06 LIG 0.40  C 
ATOM     48  N   LEU P   6      77.130   3.458  58.747  1.00 74.40 LIG 0.61  N 
BRANCH 47 49
ATOM     49  CB  LEU P   6      76.130   2.332  60.688  1.00 78.52 LIG 0.06  C 
BRANCH 49 50
ATOM     50  CG  LEU P   6      76.274   2.259  62.212  1.00 77.43 LIG-0.02  C 
ATOM     51  CD2 LEU P   6      77.662   1.797  62.639  1.00 73.93 LIG 0.01  C 
ATOM     52  CD1 LEU P   6      75.197   1.339  62.747  1.00 75.78 LIG 0.01  C 
ENDBRANCH 49 50
ENDBRANCH 47 49
ENDBRANCH 44 47
ENDBRANCH 42 43
BRANCH 42 53
ATOM     53  CB  VAL P   7      80.279  -0.310  57.555  1.00 67.45 LIG 0.01  C 
ATOM     54  CG2 VAL P   7      80.076   1.118  57.084  1.00 67.18 LIG 0.01  C 
ATOM     55  CG1 VAL P   7      79.843  -1.287  56.482  1.00 63.58 LIG 0.01  C 
ENDBRANCH 42 53
ENDBRANCH 39 42
ENDBRANCH 1 38
TORSDOF 20
ENDMDL
MODEL 32
USER: ADFR SOLUTION from run 163
USER: SCORE 18.241843 LL:  -4.103 LR: -15.650 RR:   0.000 FEB:  -9.684
USER: RMSD 5.848977
USER: SEED 162
USER: STATUS no improvement in best in 7 clusters for 5 generations
USER: GENES 22
USER: genes 0 Translation |==|  0.42958 0.44229 0.57248
USER: genes 1 Rotation |==|  0.30279 0.66689 0.41738 0.92004
USER: genes 2 Torsion [N]-CA--C-[N] |==|  0.16675
USER: genes 3 Torsion [C]-N--CA-[CB] |==|  0.48605
USER: genes 4 Torsion [N]-CA--CB-[CG] |==|  0.92452
USER: genes 5 Torsion [CA]-CB--CG-[CD] |==|  0.38403
USER: genes 6 Torsion [CB]-CG--CD-[OE1] |==|  0.43514
USER: genes 7 Torsion [N]-CA--C-[N] |==|  0.46317
USER: genes 8 Torsion [C]-N--CA-[C] |==|  0.85311
USER: genes 9 Torsion [N]-CA--C-[O] |==|  0.87008
USER: genes 10 Torsion [N]-CA--CB-[CG] |==|  0.85054
USER: genes 11 Torsion [CA]-CB--CG-[CD1] |==|  0.70047
USER: genes 12 Torsion [C]-CA--CB-[CG] |==|  0.18366
USER: genes 13 Torsion [CA]-CB--CG-[CD1] |==|  0.05555
USER: genes 14 Torsion [CE1]-CZ--OH-[HH] |==|  0.95440
USER: genes 15 Torsion [C]-CA--N-[C] |==|  0.73682
USER: genes 16 Torsion [N]-C--CA-[N] |==|  0.84335
USER: genes 17 Torsion [C]-CA--N-[C] |==|  0.67152
USER: genes 18 Torsion [N]-C--CA-[N] |==|  0.60778
USER: genes 19 Torsion [C]-CA--CB-[CG] |==|  0.64410
USER: genes 20 Torsion [CA]-CB--CG-[CD2] |==|  0.62306
USER: genes 21 Torsion [C]-CA--CB-[CG2] |==|  0.58173
ROOT
ATOM      1  CA  TYR P   8      80.965  -3.466  62.045  1.00 57.99 LIG 0.18  C 
ENDROOT
BRANCH 1 2
ATOM      2  C   TYR P   8      80.925  -2.149  61.282  1.00 56.68 LIG 0.24  C 
ATOM      3  N   GLN P   9      80.682  -2.228  59.977  1.00 57.67 LIG-0.35  N 
ATOM      4 H    GLN P   9      80.607  -2.969  59.548  1.00 57.67 LIG 0.16  HD
ATOM      5 O    TYR P   8      81.112  -1.081  61.873  1.00 54.26 LIG-0.27  OA
BRANCH 3 6
ATOM      6  CA  GLN P   9      80.518  -1.039  59.151  1.00 54.86 LIG 0.18  C 
BRANCH 6 7
ATOM      7  CB  GLN P   9      80.372  -1.411  57.677  1.00 52.41 LIG 0.04  C 
BRANCH 7 8
ATOM      8  CG  GLN P   9      81.046  -2.720  57.305  1.00 53.63 LIG 0.10  C 
BRANCH 8 9
ATOM      9  CD  GLN P   9      80.200  -3.554  56.370  1.00 56.56 LIG 0.21  C 
ATOM     10 OE1  GLN P   9      80.717  -4.400  55.640  1.00 59.67 LIG-0.27  OA
ATOM     11  NE2 GLN P   9      78.891  -3.322  56.384  1.00 58.55 LIG-0.37  N 
ATOM     12 22HE GLN P   9      78.369  -3.772  55.869  1.00 58.55 LIG 0.16  HD
ATOM     13 21HE GLN P   9      78.566  -2.723  56.908  1.00 58.55 LIG 0.16  HD
ENDBRANCH 8 9
ENDBRANCH 7 8
ENDBRANCH 6 7
BRANCH 6 14
ATOM     14  C   GLN P   9      79.297  -0.268  59.634  1.00 54.72 LIG 0.24  C 
ATOM     15 O    GLN P   9      78.499  -0.789  60.422  1.00 59.60 LIG-0.27  OA
ATOM     16  N   PHE P  10      79.158   0.971  59.176  1.00 49.02 LIG-0.34  N 
ATOM     17 H    PHE P  10      79.727   1.367  58.667  1.00 49.02 LIG 0.16  HD
BRANCH 16 18
ATOM     18  CA  PHE P  10      77.988   1.770  59.516  1.00 50.33 LIG 0.19  C 
BRANCH 18 19
ATOM     19  C   PHE P  10      76.694   1.030  59.200  1.00 49.91 LIG 0.20  C 
ATOM     20 O    PHE P  10      76.549   0.463  58.115  1.00 45.93 LIG-0.65  OA
ATOM     21 OXT  PHE P  10      75.769   0.994  60.014  1.00 46.36 LIG-0.65  OA
ENDBRANCH 18 19
BRANCH 18 22
ATOM     22  CB  PHE P  10      78.023   3.120  58.795  1.00 51.88 LIG 0.07  C 
BRANCH 22 23
ATOM     23  CG  PHE P  10      79.290   3.905  59.008  1.00 51.17 LIG-0.06  A 
ATOM     24  CD1 PHE P  10      79.293   5.037  59.805  1.00 49.53 LIG 0.01  A 
ATOM     25  CE1 PHE P  10      80.450   5.767  59.990  1.00 54.45 LIG 0.00  A 
ATOM     26  CZ  PHE P  10      81.618   5.380  59.364  1.00 54.40 LIG 0.00  A 
ATOM     27  CE2 PHE P  10      81.628   4.259  58.563  1.00 52.97 LIG 0.00  A 
ATOM     28  CD2 PHE P  10      80.468   3.531  58.380  1.00 50.02 LIG 0.01  A 
ENDBRANCH 22 23
ENDBRANCH 18 22
ENDBRANCH 16 18
ENDBRANCH 6 14
ENDBRANCH 3 6
ENDBRANCH 1 2
BRANCH 1 29
ATOM     29  CB  TYR P   8      81.203  -3.202  63.531  1.00 54.61 LIG 0.07  C 
BRANCH 29 30
ATOM     30  CG  TYR P   8      80.078  -2.476  64.229  1.00 66.64 LIG-0.06  A 
ATOM     31  CD1 TYR P   8      78.799  -2.457  63.688  1.00 68.29 LIG 0.01  A 
ATOM     32  CE1 TYR P   8      77.769  -1.792  64.319  1.00 71.89 LIG 0.04  A 
ATOM     33  CZ  TYR P   8      78.013  -1.129  65.504  1.00 71.50 LIG 0.07  A 
ATOM     34  CE2 TYR P   8      79.275  -1.129  66.058  1.00 69.11 LIG 0.04  A 
ATOM     35  CD2 TYR P   8      80.298  -1.797  65.420  1.00 65.21 LIG 0.01  A 
BRANCH 33 36
ATOM     36 OH   TYR P   8      76.988  -0.463  66.135  1.00 83.55 LIG-0.36  OA
ATOM     37 HH   TYR P   8      76.353  -0.353  65.597  1.00 83.55 LIG 0.22  HD
ENDBRANCH 33 36
ENDBRANCH 29 30
ENDBRANCH 1 29
BRANCH 1 38
ATOM     38  N   TYR P   8      82.017  -4.301  61.482  1.00 59.31 LIG-0.35  N 
ATOM     39  C   VAL P   7      81.788  -5.219  60.548  1.00 65.10 LIG 0.24  C 
ATOM     40 O    VAL P   7      80.654  -5.488  60.130  1.00 66.40 LIG-0.27  OA
ATOM     41 H    TYR P   8      82.797  -4.145  61.811  1.00 59.31 LIG 0.16  HD
BRANCH 39 42
ATOM     42  CA  VAL P   7      83.010  -5.946  60.003  1.00 68.90 LIG 0.18  C 
BRANCH 42 43
ATOM     43  N   VAL P   7      83.951  -4.962  59.483  1.00 69.26 LIG-0.34  N 
ATOM     44  C   LEU P   6      84.320  -4.922  58.206  1.00 74.59 LIG 0.26  C 
ATOM     45 O    LEU P   6      83.864  -5.689  57.356  1.00 73.78 LIG-0.27  OA
ATOM     46 H    VAL P   7      84.243  -4.413  60.077  1.00 69.26 LIG 0.16  HD
BRANCH 44 47
ATOM     47  CA  LEU P   6      85.341  -3.838  57.847  1.00 78.06 LIG 0.40  C 
ATOM     48  N   LEU P   6      85.033  -3.255  56.547  1.00 74.40 LIG 0.61  N 
BRANCH 47 49
ATOM     49  CB  LEU P   6      85.396  -2.746  58.923  1.00 78.52 LIG 0.06  C 
BRANCH 49 50
ATOM     50  CG  LEU P   6      85.257  -1.265  58.553  1.00 77.43 LIG-0.02  C 
ATOM     51  CD2 LEU P   6      86.279  -0.393  59.272  1.00 73.93 LIG 0.01  C 
ATOM     52  CD1 LEU P   6      83.842  -0.829  58.864  1.00 75.78 LIG 0.01  C 
ENDBRANCH 49 50
ENDBRANCH 47 49
ENDBRANCH 44 47
ENDBRANCH 42 43
BRANCH 42 53
ATOM     53  CB  VAL P   7      83.665  -6.818  61.088  1.00 67.45 LIG 0.01  C 
ATOM     54  CG2 VAL P   7      85.156  -6.941  60.834  1.00 67.18 LIG 0.01  C 
ATOM     55  CG1 VAL P   7      83.020  -8.190  61.125  1.00 63.58 LIG 0.01  C 
ENDBRANCH 42 53
ENDBRANCH 39 42
ENDBRANCH 1 38
TORSDOF 20
ENDMDL
MODEL 33
USER: ADFR SOLUTION from run 65
USER: SCORE 18.884313 LL:  -5.034 LR: -15.623 RR:   0.000 FEB:  -9.657
USER: RMSD 7.153477
USER: SEED 64
USER: STATUS no improvement in best in 13 clusters for 5 generations
USER: GENES 22
USER: genes 0 Translation |==|  0.33474 0.51247 0.61461
USER: genes 1 Rotation |==|  0.28287 0.76803 0.49806 0.86195
USER: genes 2 Torsion [N]-CA--C-[N] |==|  0.20485
USER: genes 3 Torsion [C]-N--CA-[CB] |==|  0.89438
USER: genes 4 Torsion [N]-CA--CB-[CG] |==|  0.78332
USER: genes 5 Torsion [CA]-CB--CG-[CD] |==|  0.92361
USER: genes 6 Torsion [CB]-CG--CD-[OE1] |==|  0.22930
USER: genes 7 Torsion [N]-CA--C-[N] |==|  0.81111
USER: genes 8 Torsion [C]-N--CA-[C] |==|  0.69012
USER: genes 9 Torsion [N]-CA--C-[O] |==|  0.34471
USER: genes 10 Torsion [N]-CA--CB-[CG] |==|  0.73001
USER: genes 11 Torsion [CA]-CB--CG-[CD1] |==|  0.53746
USER: genes 12 Torsion [C]-CA--CB-[CG] |==|  0.19631
USER: genes 13 Torsion [CA]-CB--CG-[CD1] |==|  0.92764
USER: genes 14 Torsion [CE1]-CZ--OH-[HH] |==|  0.59241
USER: genes 15 Torsion [C]-CA--N-[C] |==|  0.18009
USER: genes 16 Torsion [N]-C--CA-[N] |==|  0.47926
USER: genes 17 Torsion [C]-CA--N-[C] |==|  0.68323
USER: genes 18 Torsion [N]-C--CA-[N] |==|  0.57354
USER: genes 19 Torsion [C]-CA--CB-[CG] |==|  0.39923
USER: genes 20 Torsion [CA]-CB--CG-[CD2] |==|  0.72569
USER: genes 21 Torsion [C]-CA--CB-[CG2] |==|  0.59253
ROOT
ATOM      1  CA  TYR P   8      78.831  -1.887  62.803  1.00 57.99 LIG 0.18  C 
ENDROOT
BRANCH 1 2
ATOM      2  C   TYR P   8      78.269  -0.591  62.237  1.00 56.68 LIG 0.24  C 
ATOM      3  N   GLN P   9      77.185  -0.697  61.475  1.00 57.67 LIG-0.35  N 
ATOM      4 H    GLN P   9      76.833  -1.448  61.246  1.00 57.67 LIG 0.16  HD
ATOM      5 O    TYR P   8      78.814   0.488  62.492  1.00 54.26 LIG-0.27  OA
BRANCH 3 6
ATOM      6  CA  GLN P   9      76.490   0.472  60.954  1.00 54.86 LIG 0.18  C 
BRANCH 6 7
ATOM      7  CB  GLN P   9      76.467   1.600  61.983  1.00 52.41 LIG 0.04  C 
BRANCH 7 8
ATOM      8  CG  GLN P   9      75.432   1.412  63.078  1.00 53.63 LIG 0.10  C 
BRANCH 8 9
ATOM      9  CD  GLN P   9      74.252   0.587  62.615  1.00 56.56 LIG 0.21  C 
ATOM     10 OE1  GLN P   9      74.308  -0.642  62.611  1.00 59.67 LIG-0.27  OA
ATOM     11  NE2 GLN P   9      73.174   1.258  62.222  1.00 58.55 LIG-0.37  N 
ATOM     12 22HE GLN P   9      72.478   0.832  61.950  1.00 58.55 LIG 0.16  HD
ATOM     13 21HE GLN P   9      73.173   2.117  62.239  1.00 58.55 LIG 0.16  HD
ENDBRANCH 8 9
ENDBRANCH 7 8
ENDBRANCH 6 7
BRANCH 6 14
ATOM     14  C   GLN P   9      77.180   0.926  59.675  1.00 54.72 LIG 0.24  C 
ATOM     15 O    GLN P   9      76.602   0.833  58.586  1.00 59.60 LIG-0.27  OA
ATOM     16  N   PHE P  10      78.404   1.425  59.805  1.00 49.02 LIG-0.34  N 
ATOM     17 H    PHE P  10      78.802   1.543  60.559  1.00 49.02 LIG 0.16  HD
BRANCH 16 18
ATOM     18  CA  PHE P  10      79.181   1.821  58.639  1.00 50.33 LIG 0.19  C 
BRANCH 18 19
ATOM     19  C   PHE P  10      80.376   0.901  58.424  1.00 49.91 LIG 0.20  C 
ATOM     20 O    PHE P  10      80.529   0.316  57.350  1.00 45.93 LIG-0.65  OA
ATOM     21 OXT  PHE P  10      81.203   0.717  59.320  1.00 46.36 LIG-0.65  OA
ENDBRANCH 18 19
BRANCH 18 22
ATOM     22  CB  PHE P  10      79.640   3.276  58.759  1.00 51.88 LIG 0.07  C 
BRANCH 22 23
ATOM     23  CG  PHE P  10      78.765   4.265  58.036  1.00 51.17 LIG-0.06  A 
ATOM     24  CD1 PHE P  10      79.197   5.564  57.821  1.00 49.53 LIG 0.01  A 
ATOM     25  CE1 PHE P  10      78.390   6.477  57.171  1.00 54.45 LIG 0.00  A 
ATOM     26  CZ  PHE P  10      77.131   6.104  56.743  1.00 54.40 LIG 0.00  A 
ATOM     27  CE2 PHE P  10      76.687   4.818  56.957  1.00 52.97 LIG 0.00  A 
ATOM     28  CD2 PHE P  10      77.497   3.906  57.607  1.00 50.02 LIG 0.01  A 
ENDBRANCH 22 23
ENDBRANCH 18 22
ENDBRANCH 16 18
ENDBRANCH 6 14
ENDBRANCH 3 6
ENDBRANCH 1 2
BRANCH 1 29
ATOM     29  CB  TYR P   8      79.803  -1.582  63.942  1.00 54.61 LIG 0.07  C 
BRANCH 29 30
ATOM     30  CG  TYR P   8      79.153  -1.065  65.202  1.00 66.64 LIG-0.06  A 
ATOM     31  CD1 TYR P   8      77.936  -0.396  65.153  1.00 68.29 LIG 0.01  A 
ATOM     32  CE1 TYR P   8      77.340   0.083  66.301  1.00 71.89 LIG 0.04  A 
ATOM     33  CZ  TYR P   8      77.964  -0.098  67.518  1.00 71.50 LIG 0.07  A 
ATOM     34  CE2 TYR P   8      79.174  -0.754  67.592  1.00 69.11 LIG 0.04  A 
ATOM     35  CD2 TYR P   8      79.763  -1.229  66.439  1.00 65.21 LIG 0.01  A 
BRANCH 33 36
ATOM     36 OH   TYR P   8      77.373   0.379  68.664  1.00 83.55 LIG-0.36  OA
ATOM     37 HH   TYR P   8      77.968   0.623  69.205  1.00 83.55 LIG 0.22  HD
ENDBRANCH 33 36
ENDBRANCH 29 30
ENDBRANCH 1 29
BRANCH 1 38
ATOM     38  N   TYR P   8      79.489  -2.619  61.730  1.00 59.31 LIG-0.35  N 
ATOM     39  C   VAL P   7      80.572  -2.166  61.106  1.00 65.10 LIG 0.24  C 
ATOM     40 O    VAL P   7      81.068  -1.055  61.335  1.00 66.40 LIG-0.27  OA
ATOM     41 H    TYR P   8      79.113  -3.369  61.540  1.00 59.31 LIG 0.16  HD
BRANCH 39 42
ATOM     42  CA  VAL P   7      81.189  -3.093  60.067  1.00 68.90 LIG 0.18  C 
BRANCH 42 43
ATOM     43  N   VAL P   7      82.245  -2.377  59.364  1.00 69.26 LIG-0.34  N 
ATOM     44  C   LEU P   6      82.172  -2.069  58.072  1.00 74.59 LIG 0.26  C 
ATOM     45 O    LEU P   6      81.185  -2.333  57.379  1.00 73.78 LIG-0.27  OA
ATOM     46 H    VAL P   7      82.916  -2.172  59.860  1.00 69.26 LIG 0.16  HD
BRANCH 44 47
ATOM     47  CA  LEU P   6      83.389  -1.341  57.495  1.00 78.06 LIG 0.40  C 
ATOM     48  N   LEU P   6      83.003  -0.527  56.348  1.00 74.40 LIG 0.61  N 
BRANCH 47 49
ATOM     49  CB  LEU P   6      84.075  -0.474  58.559  1.00 78.52 LIG 0.06  C 
BRANCH 49 50
ATOM     50  CG  LEU P   6      85.599  -0.320  58.588  1.00 77.43 LIG-0.02  C 
ATOM     51  CD2 LEU P   6      86.252  -1.242  59.613  1.00 73.93 LIG 0.01  C 
ATOM     52  CD1 LEU P   6      85.924   1.132  58.865  1.00 75.78 LIG 0.01  C 
ENDBRANCH 49 50
ENDBRANCH 47 49
ENDBRANCH 44 47
ENDBRANCH 42 43
BRANCH 42 53
ATOM     53  CB  VAL P   7      81.732  -4.375  60.722  1.00 67.45 LIG 0.01  C 
ATOM     54  CG2 VAL P   7      82.965  -4.861  59.983  1.00 67.18 LIG 0.01  C 
ATOM     55  CG1 VAL P   7      80.666  -5.454  60.737  1.00 63.58 LIG 0.01  C 
ENDBRANCH 42 53
ENDBRANCH 39 42
ENDBRANCH 1 38
TORSDOF 20
ENDMDL
MODEL 34
USER: ADFR SOLUTION from run 49
USER: SCORE 19.035904 LL:  -4.047 LR: -15.625 RR:   0.000 FEB:  -9.659
USER: RMSD 6.515869
USER: SEED 48
USER: STATUS no improvement in best in 8 clusters for 5 generations
USER: GENES 22
USER: genes 0 Translation |==|  0.46862 0.50713 0.41634
USER: genes 1 Rotation |==|  0.72175 0.12051 0.26874 0.55773
USER: genes 2 Torsion [N]-CA--C-[N] |==|  0.03925
USER: genes 3 Torsion [C]-N--CA-[CB] |==|  0.88236
USER: genes 4 Torsion [N]-CA--CB-[CG] |==|  0.73632
USER: genes 5 Torsion [CA]-CB--CG-[CD] |==|  0.05407
USER: genes 6 Torsion [CB]-CG--CD-[OE1] |==|  0.21626
USER: genes 7 Torsion [N]-CA--C-[N] |==|  0.87782
USER: genes 8 Torsion [C]-N--CA-[C] |==|  0.86531
USER: genes 9 Torsion [N]-CA--C-[O] |==|  0.24660
USER: genes 10 Torsion [N]-CA--CB-[CG] |==|  0.75984
USER: genes 11 Torsion [CA]-CB--CG-[CD1] |==|  0.84150
USER: genes 12 Torsion [C]-CA--CB-[CG] |==|  0.22301
USER: genes 13 Torsion [CA]-CB--CG-[CD1] |==|  0.60284
USER: genes 14 Torsion [CE1]-CZ--OH-[HH] |==|  0.04913
USER: genes 15 Torsion [C]-CA--N-[C] |==|  0.74254
USER: genes 16 Torsion [N]-C--CA-[N] |==|  0.28334
USER: genes 17 Torsion [C]-CA--N-[C] |==|  0.73857
USER: genes 18 Torsion [N]-C--CA-[N] |==|  0.18941
USER: genes 19 Torsion [C]-CA--CB-[CG] |==|  0.24630
USER: genes 20 Torsion [CA]-CB--CG-[CD2] |==|  0.12850
USER: genes 21 Torsion [C]-CA--CB-[CG2] |==|  0.46501
ROOT
ATOM      1  CA  TYR P   8      81.843  -2.007  59.234  1.00 57.99 LIG 0.18  C 
ENDROOT
BRANCH 1 2
ATOM      2  C   TYR P   8      81.074  -1.224  60.289  1.00 56.68 LIG 0.24  C 
ATOM      3  N   GLN P   9      80.030  -1.837  60.838  1.00 57.67 LIG-0.35  N 
ATOM      4 H    GLN P   9      79.743  -2.609  60.589  1.00 57.67 LIG 0.16  HD
ATOM      5 O    TYR P   8      81.428  -0.081  60.597  1.00 54.26 LIG-0.27  OA
BRANCH 3 6
ATOM      6  CA  GLN P   9      79.271  -1.240  61.929  1.00 54.86 LIG 0.18  C 
BRANCH 6 7
ATOM      7  CB  GLN P   9      80.200  -0.595  62.955  1.00 52.41 LIG 0.04  C 
BRANCH 7 8
ATOM      8  CG  GLN P   9      80.539  -1.497  64.128  1.00 53.63 LIG 0.10  C 
BRANCH 8 9
ATOM      9  CD  GLN P   9      80.291  -2.956  63.820  1.00 56.56 LIG 0.21  C 
ATOM     10 OE1  GLN P   9      81.088  -3.599  63.138  1.00 59.67 LIG-0.27  OA
ATOM     11  NE2 GLN P   9      79.182  -3.490  64.322  1.00 58.55 LIG-0.37  N 
ATOM     12 22HE GLN P   9      78.997  -4.317  64.173  1.00 58.55 LIG 0.16  HD
ATOM     13 21HE GLN P   9      78.649  -3.009  64.794  1.00 58.55 LIG 0.16  HD
ENDBRANCH 8 9
ENDBRANCH 7 8
ENDBRANCH 6 7
BRANCH 6 14
ATOM     14  C   GLN P   9      78.309  -0.210  61.352  1.00 54.72 LIG 0.24  C 
ATOM     15 O    GLN P   9      77.142  -0.149  61.758  1.00 59.60 LIG-0.27  OA
ATOM     16  N   PHE P  10      78.796   0.603  60.422  1.00 49.02 LIG-0.34  N 
ATOM     17 H    PHE P  10      79.617   0.608  60.164  1.00 49.02 LIG 0.16  HD
BRANCH 16 18
ATOM     18  CA  PHE P  10      77.942   1.575  59.754  1.00 50.33 LIG 0.19  C 
BRANCH 18 19
ATOM     19  C   PHE P  10      76.650   0.938  59.258  1.00 49.91 LIG 0.20  C 
ATOM     20 O    PHE P  10      75.660   0.883  59.990  1.00 45.93 LIG-0.65  OA
ATOM     21 OXT  PHE P  10      76.575   0.458  58.125  1.00 46.36 LIG-0.65  OA
ENDBRANCH 18 19
BRANCH 18 22
ATOM     22  CB  PHE P  10      78.686   2.247  58.597  1.00 51.88 LIG 0.07  C 
BRANCH 22 23
ATOM     23  CG  PHE P  10      79.501   3.449  58.997  1.00 51.17 LIG-0.06  A 
ATOM     24  CD1 PHE P  10      78.905   4.524  59.635  1.00 49.53 LIG 0.01  A 
ATOM     25  CE1 PHE P  10      79.646   5.633  59.990  1.00 54.45 LIG 0.00  A 
ATOM     26  CZ  PHE P  10      80.994   5.687  59.694  1.00 54.40 LIG 0.00  A 
ATOM     27  CE2 PHE P  10      81.598   4.627  59.053  1.00 52.97 LIG 0.00  A 
ATOM     28  CD2 PHE P  10      80.853   3.518  58.700  1.00 50.02 LIG 0.01  A 
ENDBRANCH 22 23
ENDBRANCH 18 22
ENDBRANCH 16 18
ENDBRANCH 6 14
ENDBRANCH 3 6
ENDBRANCH 1 2
BRANCH 1 29
ATOM     29  CB  TYR P   8      82.163  -1.104  58.044  1.00 54.61 LIG 0.07  C 
BRANCH 29 30
ATOM     30  CG  TYR P   8      83.354  -0.198  58.243  1.00 66.64 LIG-0.06  A 
ATOM     31  CD1 TYR P   8      83.360   1.093  57.732  1.00 68.29 LIG 0.01  A 
ATOM     32  CE1 TYR P   8      84.447   1.924  57.907  1.00 71.89 LIG 0.04  A 
ATOM     33  CZ  TYR P   8      85.550   1.464  58.596  1.00 71.50 LIG 0.07  A 
ATOM     34  CE2 TYR P   8      85.571   0.185  59.109  1.00 69.11 LIG 0.04  A 
ATOM     35  CD2 TYR P   8      84.479  -0.638  58.928  1.00 65.21 LIG 0.01  A 
BRANCH 33 36
ATOM     36 OH   TYR P   8      86.637   2.288  58.771  1.00 83.55 LIG-0.36  OA
ATOM     37 HH   TYR P   8      86.408   3.085  58.634  1.00 83.55 LIG 0.22  HD
ENDBRANCH 33 36
ENDBRANCH 29 30
ENDBRANCH 1 29
BRANCH 1 38
ATOM     38  N   TYR P   8      81.043  -3.153  58.826  1.00 59.31 LIG-0.35  N 
ATOM     39  C   VAL P   7      81.156  -4.351  59.392  1.00 65.10 LIG 0.24  C 
ATOM     40 O    VAL P   7      81.999  -4.609  60.261  1.00 66.40 LIG-0.27  OA
ATOM     41 H    TYR P   8      80.492  -2.982  58.187  1.00 59.31 LIG 0.16  HD
BRANCH 39 42
ATOM     42  CA  VAL P   7      80.185  -5.420  58.909  1.00 68.90 LIG 0.18  C 
BRANCH 42 43
ATOM     43  N   VAL P   7      80.881  -6.307  57.986  1.00 69.26 LIG-0.34  N 
ATOM     44  C   LEU P   6      80.862  -6.135  56.667  1.00 74.59 LIG 0.26  C 
ATOM     45 O    LEU P   6      80.286  -5.187  56.127  1.00 73.78 LIG-0.27  OA
ATOM     46 H    VAL P   7      81.303  -6.948  58.372  1.00 69.26 LIG 0.16  HD
BRANCH 44 47
ATOM     47  CA  LEU P   6      81.625  -7.182  55.852  1.00 78.06 LIG 0.40  C 
ATOM     48  N   LEU P   6      80.960  -8.477  55.931  1.00 74.40 LIG 0.61  N 
BRANCH 47 49
ATOM     49  CB  LEU P   6      81.777  -6.748  54.389  1.00 78.52 LIG 0.06  C 
BRANCH 49 50
ATOM     50  CG  LEU P   6      82.973  -5.903  53.937  1.00 77.43 LIG-0.02  C 
ATOM     51  CD2 LEU P   6      84.294  -6.434  54.481  1.00 73.93 LIG 0.01  C 
ATOM     52  CD1 LEU P   6      82.733  -4.472  54.368  1.00 75.78 LIG 0.01  C 
ENDBRANCH 49 50
ENDBRANCH 47 49
ENDBRANCH 44 47
ENDBRANCH 42 43
BRANCH 42 53
ATOM     53  CB  VAL P   7      79.594  -6.206  60.091  1.00 67.45 LIG 0.01  C 
ATOM     54  CG2 VAL P   7      78.414  -7.042  59.629  1.00 67.18 LIG 0.01  C 
ATOM     55  CG1 VAL P   7      79.170  -5.260  61.198  1.00 63.58 LIG 0.01  C 
ENDBRANCH 42 53
ENDBRANCH 39 42
ENDBRANCH 1 38
TORSDOF 20
ENDMDL
MODEL 35
USER: ADFR SOLUTION from run 154
USER: SCORE 19.674465 LL:  -5.244 LR: -15.611 RR:   0.000 FEB:  -9.645
USER: RMSD 7.910182
USER: SEED 153
USER: STATUS no improvement in best in 1 clusters for 5 generations
USER: GENES 22
USER: genes 0 Translation |==|  0.29915 0.71914 0.31105
USER: genes 1 Rotation |==|  0.94266 0.56112 0.61525 0.69245
USER: genes 2 Torsion [N]-CA--C-[N] |==|  0.95553
USER: genes 3 Torsion [C]-N--CA-[CB] |==|  0.51209
USER: genes 4 Torsion [N]-CA--CB-[CG] |==|  0.66981
USER: genes 5 Torsion [CA]-CB--CG-[CD] |==|  0.73459
USER: genes 6 Torsion [CB]-CG--CD-[OE1] |==|  0.13231
USER: genes 7 Torsion [N]-CA--C-[N] |==|  0.77579
USER: genes 8 Torsion [C]-N--CA-[C] |==|  0.70796
USER: genes 9 Torsion [N]-CA--C-[O] |==|  0.40288
USER: genes 10 Torsion [N]-CA--CB-[CG] |==|  0.87529
USER: genes 11 Torsion [CA]-CB--CG-[CD1] |==|  0.24365
USER: genes 12 Torsion [C]-CA--CB-[CG] |==|  0.35048
USER: genes 13 Torsion [CA]-CB--CG-[CD1] |==|  0.06923
USER: genes 14 Torsion [CE1]-CZ--OH-[HH] |==|  0.57869
USER: genes 15 Torsion [C]-CA--N-[C] |==|  0.81371
USER: genes 16 Torsion [N]-C--CA-[N] |==|  0.97560
USER: genes 17 Torsion [C]-CA--N-[C] |==|  0.79444
USER: genes 18 Torsion [N]-C--CA-[N] |==|  0.29777
USER: genes 19 Torsion [C]-CA--CB-[CG] |==|  0.04340
USER: genes 20 Torsion [CA]-CB--CG-[CD2] |==|  0.71506
USER: genes 21 Torsion [C]-CA--CB-[CG2] |==|  0.86099
ROOT
ATOM      1  CA  TYR P   8      78.030   2.764  57.339  1.00 57.99 LIG 0.18  C 
ENDROOT
BRANCH 1 2
ATOM      2  C   TYR P   8      77.902   1.427  58.055  1.00 56.68 LIG 0.24  C 
ATOM      3  N   GLN P   9      79.013   0.935  58.594  1.00 57.67 LIG-0.35  N 
ATOM      4 H    GLN P   9      79.788   1.298  58.507  1.00 57.67 LIG 0.16  HD
ATOM      5 O    TYR P   8      76.809   0.855  58.115  1.00 54.26 LIG-0.27  OA
BRANCH 3 6
ATOM      6  CA  GLN P   9      79.009  -0.284  59.391  1.00 54.86 LIG 0.18  C 
BRANCH 6 7
ATOM      7  CB  GLN P   9      80.391  -0.564  59.975  1.00 52.41 LIG 0.04  C 
BRANCH 7 8
ATOM      8  CG  GLN P   9      80.997  -1.878  59.515  1.00 53.63 LIG 0.10  C 
BRANCH 8 9
ATOM      9  CD  GLN P   9      80.748  -2.999  60.498  1.00 56.56 LIG 0.21  C 
ATOM     10 OE1  GLN P   9      79.623  -3.192  60.959  1.00 59.67 LIG-0.27  OA
ATOM     11  NE2 GLN P   9      81.797  -3.747  60.827  1.00 58.55 LIG-0.37  N 
ATOM     12 22HE GLN P   9      81.704  -4.397  61.383  1.00 58.55 LIG 0.16  HD
ATOM     13 21HE GLN P   9      82.567  -3.582  60.484  1.00 58.55 LIG 0.16  HD
ENDBRANCH 8 9
ENDBRANCH 7 8
ENDBRANCH 6 7
BRANCH 6 14
ATOM     14  C   GLN P   9      77.975  -0.143  60.501  1.00 54.72 LIG 0.24  C 
ATOM     15 O    GLN P   9      76.859  -0.663  60.387  1.00 59.60 LIG-0.27  OA
ATOM     16  N   PHE P  10      78.348   0.545  61.575  1.00 49.02 LIG-0.34  N 
ATOM     17 H    PHE P  10      79.135   0.871  61.693  1.00 49.02 LIG 0.16  HD
BRANCH 16 18
ATOM     18  CA  PHE P  10      77.413   0.802  62.661  1.00 50.33 LIG 0.19  C 
BRANCH 18 19
ATOM     19  C   PHE P  10      76.928   2.247  62.653  1.00 49.91 LIG 0.20  C 
ATOM     20 O    PHE P  10      75.774   2.519  62.989  1.00 45.93 LIG-0.65  OA
ATOM     21 OXT  PHE P  10      77.674   3.164  62.302  1.00 46.36 LIG-0.65  OA
ENDBRANCH 18 19
BRANCH 18 22
ATOM     22  CB  PHE P  10      78.044   0.458  64.014  1.00 51.88 LIG 0.07  C 
BRANCH 22 23
ATOM     23  CG  PHE P  10      78.783  -0.854  64.037  1.00 51.17 LIG-0.06  A 
ATOM     24  CD1 PHE P  10      80.119  -0.917  63.678  1.00 49.53 LIG 0.01  A 
ATOM     25  CE1 PHE P  10      80.796  -2.121  63.685  1.00 54.45 LIG 0.00  A 
ATOM     26  CZ  PHE P  10      80.135  -3.282  64.036  1.00 54.40 LIG 0.00  A 
ATOM     27  CE2 PHE P  10      78.804  -3.234  64.389  1.00 52.97 LIG 0.00  A 
ATOM     28  CD2 PHE P  10      78.131  -2.027  64.381  1.00 50.02 LIG 0.01  A 
ENDBRANCH 22 23
ENDBRANCH 18 22
ENDBRANCH 16 18
ENDBRANCH 6 14
ENDBRANCH 3 6
ENDBRANCH 1 2
BRANCH 1 29
ATOM     29  CB  TYR P   8      77.969   2.555  55.826  1.00 54.61 LIG 0.07  C 
BRANCH 29 30
ATOM     30  CG  TYR P   8      76.927   3.387  55.119  1.00 66.64 LIG-0.06  A 
ATOM     31  CD1 TYR P   8      76.478   4.583  55.666  1.00 68.29 LIG 0.01  A 
ATOM     32  CE1 TYR P   8      75.522   5.344  55.027  1.00 71.89 LIG 0.04  A 
ATOM     33  CZ  TYR P   8      74.999   4.911  53.826  1.00 71.50 LIG 0.07  A 
ATOM     34  CE2 TYR P   8      75.424   3.726  53.265  1.00 69.11 LIG 0.04  A 
ATOM     35  CD2 TYR P   8      76.380   2.971  53.912  1.00 65.21 LIG 0.01  A 
BRANCH 33 36
ATOM     36 OH   TYR P   8      74.045   5.667  53.186  1.00 83.55 LIG-0.36  OA
ATOM     37 HH   TYR P   8      73.552   5.166  52.727  1.00 83.55 LIG 0.22  HD
ENDBRANCH 33 36
ENDBRANCH 29 30
ENDBRANCH 1 29
BRANCH 1 38
ATOM     38  N   TYR P   8      79.285   3.388  57.734  1.00 59.31 LIG-0.35  N 
ATOM     39  C   VAL P   7      79.518   3.822  58.970  1.00 65.10 LIG 0.24  C 
ATOM     40 O    VAL P   7      78.664   3.796  59.866  1.00 66.40 LIG-0.27  OA
ATOM     41 H    TYR P   8      79.859   3.449  57.096  1.00 59.31 LIG 0.16  HD
BRANCH 39 42
ATOM     42  CA  VAL P   7      80.912   4.370  59.240  1.00 68.90 LIG 0.18  C 
BRANCH 42 43
ATOM     43  N   VAL P   7      81.759   4.094  58.087  1.00 69.26 LIG-0.34  N 
ATOM     44  C   LEU P   6      82.227   2.881  57.810  1.00 74.59 LIG 0.26  C 
ATOM     45 O    LEU P   6      81.947   1.887  58.485  1.00 73.78 LIG-0.27  OA
ATOM     46 H    VAL P   7      81.927   4.786  57.606  1.00 69.26 LIG 0.16  HD
BRANCH 44 47
ATOM     47  CA  LEU P   6      83.127   2.785  56.574  1.00 78.06 LIG 0.40  C 
ATOM     48  N   LEU P   6      84.517   2.590  56.966  1.00 74.40 LIG 0.61  N 
BRANCH 47 49
ATOM     49  CB  LEU P   6      82.672   1.657  55.639  1.00 78.52 LIG 0.06  C 
BRANCH 49 50
ATOM     50  CG  LEU P   6      81.283   1.025  55.782  1.00 77.43 LIG-0.02  C 
ATOM     51  CD2 LEU P   6      81.335  -0.332  56.475  1.00 73.93 LIG 0.01  C 
ATOM     52  CD1 LEU P   6      80.666   0.918  54.404  1.00 75.78 LIG 0.01  C 
ENDBRANCH 49 50
ENDBRANCH 47 49
ENDBRANCH 44 47
ENDBRANCH 42 43
BRANCH 42 53
ATOM     53  CB  VAL P   7      80.866   5.877  59.544  1.00 67.45 LIG 0.01  C 
ATOM     54  CG2 VAL P   7      80.062   6.604  58.481  1.00 67.18 LIG 0.01  C 
ATOM     55  CG1 VAL P   7      82.269   6.445  59.626  1.00 63.58 LIG 0.01  C 
ENDBRANCH 42 53
ENDBRANCH 39 42
ENDBRANCH 1 38
TORSDOF 20
ENDMDL
MODEL 36
USER: ADFR SOLUTION from run 162
USER: SCORE 17.306938 LL:  -4.042 LR: -15.555 RR:   0.000 FEB:  -9.589
USER: RMSD 5.840858
USER: SEED 161
USER: STATUS no improvement in best in 8 clusters for 5 generations
USER: GENES 22
USER: genes 0 Translation |==|  0.40942 0.44897 0.51858
USER: genes 1 Rotation |==|  0.34892 0.72141 0.36929 0.90133
USER: genes 2 Torsion [N]-CA--C-[N] |==|  0.17048
USER: genes 3 Torsion [C]-N--CA-[CB] |==|  0.39540
USER: genes 4 Torsion [N]-CA--CB-[CG] |==|  0.12968
USER: genes 5 Torsion [CA]-CB--CG-[CD] |==|  0.49878
USER: genes 6 Torsion [CB]-CG--CD-[OE1] |==|  0.11334
USER: genes 7 Torsion [N]-CA--C-[N] |==|  0.22671
USER: genes 8 Torsion [C]-N--CA-[C] |==|  0.15423
USER: genes 9 Torsion [N]-CA--C-[O] |==|  0.76067
USER: genes 10 Torsion [N]-CA--CB-[CG] |==|  0.84471
USER: genes 11 Torsion [CA]-CB--CG-[CD1] |==|  0.22202
USER: genes 12 Torsion [C]-CA--CB-[CG] |==|  0.22584
USER: genes 13 Torsion [CA]-CB--CG-[CD1] |==|  0.02650
USER: genes 14 Torsion [CE1]-CZ--OH-[HH] |==|  0.98772
USER: genes 15 Torsion [C]-CA--N-[C] |==|  0.58377
USER: genes 16 Torsion [N]-C--CA-[N] |==|  0.91152
USER: genes 17 Torsion [C]-CA--N-[C] |==|  0.81240
USER: genes 18 Torsion [N]-C--CA-[N] |==|  0.83628
USER: genes 19 Torsion [C]-CA--CB-[CG] |==|  0.29473
USER: genes 20 Torsion [CA]-CB--CG-[CD2] |==|  0.81712
USER: genes 21 Torsion [C]-CA--CB-[CG2] |==|  0.21458
ROOT
ATOM      1  CA  TYR P   8      80.511  -3.315  61.074  1.00 57.99 LIG 0.18  C 
ENDROOT
BRANCH 1 2
ATOM      2  C   TYR P   8      80.832  -1.976  60.428  1.00 56.68 LIG 0.24  C 
ATOM      3  N   GLN P   9      80.443  -1.817  59.167  1.00 57.67 LIG-0.35  N 
ATOM      4 H    GLN P   9      80.081  -2.440  58.696  1.00 57.67 LIG 0.16  HD
ATOM      5 O    TYR P   8      81.424  -1.101  61.069  1.00 54.26 LIG-0.27  OA
BRANCH 3 6
ATOM      6  CA  GLN P   9      80.599  -0.550  58.466  1.00 54.86 LIG 0.18  C 
BRANCH 6 7
ATOM      7  CB  GLN P   9      80.980  -0.775  57.004  1.00 52.41 LIG 0.04  C 
BRANCH 7 8
ATOM      8  CG  GLN P   9      80.137  -1.827  56.305  1.00 53.63 LIG 0.10  C 
BRANCH 8 9
ATOM      9  CD  GLN P   9      80.537  -2.014  54.859  1.00 56.56 LIG 0.21  C 
ATOM     10 OE1  GLN P   9      81.723  -2.020  54.531  1.00 59.67 LIG-0.27  OA
ATOM     11  NE2 GLN P   9      79.549  -2.167  53.983  1.00 58.55 LIG-0.37  N 
ATOM     12 22HE GLN P   9      79.727  -2.276  53.149  1.00 58.55 LIG 0.16  HD
ATOM     13 21HE GLN P   9      78.732  -2.157  54.250  1.00 58.55 LIG 0.16  HD
ENDBRANCH 8 9
ENDBRANCH 7 8
ENDBRANCH 6 7
BRANCH 6 14
ATOM     14  C   GLN P   9      79.296   0.233  58.567  1.00 54.72 LIG 0.24  C 
ATOM     15 O    GLN P   9      78.479   0.209  57.639  1.00 59.60 LIG-0.27  OA
ATOM     16  N   PHE P  10      79.097   0.912  59.691  1.00 49.02 LIG-0.34  N 
ATOM     17 H    PHE P  10      79.631   0.900  60.365  1.00 49.02 LIG 0.16  HD
BRANCH 16 18
ATOM     18  CA  PHE P  10      77.919   1.752  59.860  1.00 50.33 LIG 0.19  C 
BRANCH 18 19
ATOM     19  C   PHE P  10      76.634   0.965  59.636  1.00 49.91 LIG 0.20  C 
ATOM     20 O    PHE P  10      76.174   0.833  58.500  1.00 45.93 LIG-0.65  OA
ATOM     21 OXT  PHE P  10      76.028   0.459  60.582  1.00 46.36 LIG-0.65  OA
ENDBRANCH 18 19
BRANCH 18 22
ATOM     22  CB  PHE P  10      77.976   2.963  58.925  1.00 51.88 LIG 0.07  C 
BRANCH 22 23
ATOM     23  CG  PHE P  10      79.215   3.805  59.075  1.00 51.17 LIG-0.06  A 
ATOM     24  CD1 PHE P  10      80.406   3.419  58.482  1.00 49.53 LIG 0.01  A 
ATOM     25  CE1 PHE P  10      81.547   4.182  58.630  1.00 54.45 LIG 0.00  A 
ATOM     26  CZ  PHE P  10      81.514   5.335  59.390  1.00 54.40 LIG 0.00  A 
ATOM     27  CE2 PHE P  10      80.337   5.727  59.990  1.00 52.97 LIG 0.00  A 
ATOM     28  CD2 PHE P  10      79.197   4.960  59.839  1.00 50.02 LIG 0.01  A 
ENDBRANCH 22 23
ENDBRANCH 18 22
ENDBRANCH 16 18
ENDBRANCH 6 14
ENDBRANCH 3 6
ENDBRANCH 1 2
BRANCH 1 29
ATOM     29  CB  TYR P   8      80.946  -3.307  62.539  1.00 54.61 LIG 0.07  C 
BRANCH 29 30
ATOM     30  CG  TYR P   8      79.972  -2.642  63.481  1.00 66.64 LIG-0.06  A 
ATOM     31  CD1 TYR P   8      78.705  -2.271  63.050  1.00 68.29 LIG 0.01  A 
ATOM     32  CE1 TYR P   8      77.813  -1.658  63.905  1.00 71.89 LIG 0.04  A 
ATOM     33  CZ  TYR P   8      78.185  -1.405  65.208  1.00 71.50 LIG 0.07  A 
ATOM     34  CE2 TYR P   8      79.438  -1.760  65.659  1.00 69.11 LIG 0.04  A 
ATOM     35  CD2 TYR P   8      80.324  -2.371  64.796  1.00 65.21 LIG 0.01  A 
BRANCH 33 36
ATOM     36 OH   TYR P   8      77.298  -0.793  66.063  1.00 83.55 LIG-0.36  OA
ATOM     37 HH   TYR P   8      76.604  -0.581  65.642  1.00 83.55 LIG 0.22  HD
ENDBRANCH 33 36
ENDBRANCH 29 30
ENDBRANCH 1 29
BRANCH 1 38
ATOM     38  N   TYR P   8      81.187  -4.368  60.330  1.00 59.31 LIG-0.35  N 
ATOM     39  C   VAL P   7      80.706  -5.604  60.228  1.00 65.10 LIG 0.24  C 
ATOM     40 O    VAL P   7      79.683  -5.980  60.815  1.00 66.40 LIG-0.27  OA
ATOM     41 H    TYR P   8      81.924  -4.116  59.963  1.00 59.31 LIG 0.16  HD
BRANCH 39 42
ATOM     42  CA  VAL P   7      81.490  -6.562  59.341  1.00 68.90 LIG 0.18  C 
BRANCH 42 43
ATOM     43  N   VAL P   7      82.101  -5.806  58.256  1.00 69.26 LIG-0.34  N 
ATOM     44  C   LEU P   6      81.393  -5.223  57.293  1.00 74.59 LIG 0.26  C 
ATOM     45 O    LEU P   6      80.160  -5.244  57.267  1.00 73.78 LIG-0.27  OA
ATOM     46 H    VAL P   7      82.960  -5.772  58.297  1.00 69.26 LIG 0.16  HD
BRANCH 44 47
ATOM     47  CA  LEU P   6      82.208  -4.496  56.220  1.00 78.06 LIG 0.40  C 
ATOM     48  N   LEU P   6      83.030  -3.452  56.819  1.00 74.40 LIG 0.61  N 
BRANCH 47 49
ATOM     49  CB  LEU P   6      83.083  -5.476  55.427  1.00 78.52 LIG 0.06  C 
BRANCH 49 50
ATOM     50  CG  LEU P   6      82.723  -5.872  53.991  1.00 77.43 LIG-0.02  C 
ATOM     51  CD2 LEU P   6      81.424  -6.667  53.921  1.00 73.93 LIG 0.01  C 
ATOM     52  CD1 LEU P   6      83.881  -6.655  53.410  1.00 75.78 LIG 0.01  C 
ENDBRANCH 49 50
ENDBRANCH 47 49
ENDBRANCH 44 47
ENDBRANCH 42 43
BRANCH 42 53
ATOM     53  CB  VAL P   7      82.551  -7.325  60.151  1.00 67.45 LIG 0.01  C 
ATOM     54  CG2 VAL P   7      81.901  -8.436  60.955  1.00 67.18 LIG 0.01  C 
ATOM     55  CG1 VAL P   7      83.300  -6.378  61.068  1.00 63.58 LIG 0.01  C 
ENDBRANCH 42 53
ENDBRANCH 39 42
ENDBRANCH 1 38
TORSDOF 20
ENDMDL
MODEL 37
USER: ADFR SOLUTION from run 143
USER: SCORE 18.908070 LL:  -4.536 LR: -15.557 RR:   0.000 FEB:  -9.591
USER: RMSD 4.678582
USER: SEED 142
USER: STATUS no improvement in best in 9 clusters for 5 generations
USER: GENES 22
USER: genes 0 Translation |==|  0.43557 0.53879 0.43263
USER: genes 1 Rotation |==|  0.19889 0.88529 0.57132 0.57614
USER: genes 2 Torsion [N]-CA--C-[N] |==|  0.53210
USER: genes 3 Torsion [C]-N--CA-[CB] |==|  0.82143
USER: genes 4 Torsion [N]-CA--CB-[CG] |==|  0.53328
USER: genes 5 Torsion [CA]-CB--CG-[CD] |==|  0.13052
USER: genes 6 Torsion [CB]-CG--CD-[OE1] |==|  0.88475
USER: genes 7 Torsion [N]-CA--C-[N] |==|  0.19034
USER: genes 8 Torsion [C]-N--CA-[C] |==|  0.76434
USER: genes 9 Torsion [N]-CA--C-[O] |==|  0.45131
USER: genes 10 Torsion [N]-CA--CB-[CG] |==|  0.84867
USER: genes 11 Torsion [CA]-CB--CG-[CD1] |==|  0.67165
USER: genes 12 Torsion [C]-CA--CB-[CG] |==|  0.51560
USER: genes 13 Torsion [CA]-CB--CG-[CD1] |==|  0.65352
USER: genes 14 Torsion [CE1]-CZ--OH-[HH] |==|  0.68784
USER: genes 15 Torsion [C]-CA--N-[C] |==|  0.76366
USER: genes 16 Torsion [N]-C--CA-[N] |==|  0.01523
USER: genes 17 Torsion [C]-CA--N-[C] |==|  0.75556
USER: genes 18 Torsion [N]-C--CA-[N] |==|  0.70302
USER: genes 19 Torsion [C]-CA--CB-[CG] |==|  0.21197
USER: genes 20 Torsion [CA]-CB--CG-[CD2] |==|  0.67451
USER: genes 21 Torsion [C]-CA--CB-[CG2] |==|  0.23975
ROOT
ATOM      1  CA  TYR P   8      81.099  -1.294  59.527  1.00 57.99 LIG 0.18  C 
ENDROOT
BRANCH 1 2
ATOM      2  C   TYR P   8      79.831  -0.458  59.433  1.00 56.68 LIG 0.24  C 
ATOM      3  N   GLN P   9      79.952   0.836  59.714  1.00 57.67 LIG-0.35  N 
ATOM      4 H    GLN P   9      80.680   1.198  59.996  1.00 57.67 LIG 0.16  HD
ATOM      5 O    TYR P   8      78.762  -0.984  59.107  1.00 54.26 LIG-0.27  OA
BRANCH 3 6
ATOM      6  CA  GLN P   9      78.840   1.764  59.564  1.00 54.86 LIG 0.18  C 
BRANCH 6 7
ATOM      7  CB  GLN P   9      78.415   1.881  58.103  1.00 52.41 LIG 0.04  C 
BRANCH 7 8
ATOM      8  CG  GLN P   9      77.464   3.033  57.830  1.00 53.63 LIG 0.10  C 
BRANCH 8 9
ATOM      9  CD  GLN P   9      77.928   4.323  58.468  1.00 56.56 LIG 0.21  C 
ATOM     10 OE1  GLN P   9      78.399   4.328  59.605  1.00 59.67 LIG-0.27  OA
ATOM     11  NE2 GLN P   9      77.799   5.428  57.740  1.00 58.55 LIG-0.37  N 
ATOM     12 22HE GLN P   9      78.049   6.186  58.060  1.00 58.55 LIG 0.16  HD
ATOM     13 21HE GLN P   9      77.465   5.385  56.949  1.00 58.55 LIG 0.16  HD
ENDBRANCH 8 9
ENDBRANCH 7 8
ENDBRANCH 6 7
BRANCH 6 14
ATOM     14  C   GLN P   9      77.678   1.284  60.425  1.00 54.72 LIG 0.24  C 
ATOM     15 O    GLN P   9      76.649   0.847  59.898  1.00 59.60 LIG-0.27  OA
ATOM     16  N   PHE P  10      77.846   1.352  61.741  1.00 49.02 LIG-0.34  N 
ATOM     17 H    PHE P  10      78.573   1.607  62.124  1.00 49.02 LIG 0.16  HD
BRANCH 16 18
ATOM     18  CA  PHE P  10      76.772   0.988  62.653  1.00 50.33 LIG 0.19  C 
BRANCH 18 19
ATOM     19  C   PHE P  10      75.822   2.155  62.895  1.00 49.91 LIG 0.20  C 
ATOM     20 O    PHE P  10      74.699   1.958  63.365  1.00 45.93 LIG-0.65  OA
ATOM     21 OXT  PHE P  10      76.153   3.309  62.616  1.00 46.36 LIG-0.65  OA
ENDBRANCH 18 19
BRANCH 18 22
ATOM     22  CB  PHE P  10      77.337   0.475  63.981  1.00 51.88 LIG 0.07  C 
BRANCH 22 23
ATOM     23  CG  PHE P  10      78.315  -0.662  63.841  1.00 51.17 LIG-0.06  A 
ATOM     24  CD1 PHE P  10      78.046  -1.898  64.405  1.00 49.53 LIG 0.01  A 
ATOM     25  CE1 PHE P  10      78.948  -2.937  64.291  1.00 54.45 LIG 0.00  A 
ATOM     26  CZ  PHE P  10      80.141  -2.745  63.623  1.00 54.40 LIG 0.00  A 
ATOM     27  CE2 PHE P  10      80.425  -1.519  63.063  1.00 52.97 LIG 0.00  A 
ATOM     28  CD2 PHE P  10      79.519  -0.481  63.179  1.00 50.02 LIG 0.01  A 
ENDBRANCH 22 23
ENDBRANCH 18 22
ENDBRANCH 16 18
ENDBRANCH 6 14
ENDBRANCH 3 6
ENDBRANCH 1 2
BRANCH 1 29
ATOM     29  CB  TYR P   8      82.252  -0.579  58.824  1.00 54.61 LIG 0.07  C 
BRANCH 29 30
ATOM     30  CG  TYR P   8      83.530  -1.378  58.739  1.00 66.64 LIG-0.06  A 
ATOM     31  CD1 TYR P   8      84.724  -0.865  59.230  1.00 68.29 LIG 0.01  A 
ATOM     32  CE1 TYR P   8      85.896  -1.588  59.151  1.00 71.89 LIG 0.04  A 
ATOM     33  CZ  TYR P   8      85.885  -2.839  58.569  1.00 71.50 LIG 0.07  A 
ATOM     34  CE2 TYR P   8      84.714  -3.368  58.071  1.00 69.11 LIG 0.04  A 
ATOM     35  CD2 TYR P   8      83.547  -2.637  58.154  1.00 65.21 LIG 0.01  A 
BRANCH 33 36
ATOM     36 OH   TYR P   8      87.051  -3.562  58.487  1.00 83.55 LIG-0.36  OA
ATOM     37 HH   TYR P   8      87.282  -3.632  57.683  1.00 83.55 LIG 0.22  HD
ENDBRANCH 33 36
ENDBRANCH 29 30
ENDBRANCH 1 29
BRANCH 1 38
ATOM     38  N   TYR P   8      80.845  -2.598  58.930  1.00 59.31 LIG-0.35  N 
ATOM     39  C   VAL P   7      80.299  -3.607  59.603  1.00 65.10 LIG 0.24  C 
ATOM     40 O    VAL P   7      80.027  -3.544  60.809  1.00 66.40 LIG-0.27  OA
ATOM     41 H    TYR P   8      81.081  -2.653  58.104  1.00 59.31 LIG 0.16  HD
BRANCH 39 42
ATOM     42  CA  VAL P   7      80.020  -4.875  58.808  1.00 68.90 LIG 0.18  C 
BRANCH 42 43
ATOM     43  N   VAL P   7      80.558  -4.717  57.463  1.00 69.26 LIG-0.34  N 
ATOM     44  C   LEU P   6      79.863  -4.175  56.467  1.00 74.59 LIG 0.26  C 
ATOM     45 O    LEU P   6      78.723  -3.729  56.615  1.00 73.78 LIG-0.27  OA
ATOM     46 H    VAL P   7      81.363  -5.004  57.375  1.00 69.26 LIG 0.16  HD
BRANCH 44 47
ATOM     47  CA  LEU P   6      80.580  -4.118  55.115  1.00 78.06 LIG 0.40  C 
ATOM     48  N   LEU P   6      80.981  -2.751  54.805  1.00 74.40 LIG 0.61  N 
BRANCH 47 49
ATOM     49  CB  LEU P   6      81.798  -5.051  55.090  1.00 78.52 LIG 0.06  C 
BRANCH 49 50
ATOM     50  CG  LEU P   6      81.629  -6.566  54.940  1.00 77.43 LIG-0.02  C 
ATOM     51  CD2 LEU P   6      82.141  -7.327  56.157  1.00 73.93 LIG 0.01  C 
ATOM     52  CD1 LEU P   6      82.342  -6.999  53.677  1.00 75.78 LIG 0.01  C 
ENDBRANCH 49 50
ENDBRANCH 47 49
ENDBRANCH 44 47
ENDBRANCH 42 43
BRANCH 42 53
ATOM     53  CB  VAL P   7      80.621  -6.108  59.503  1.00 67.45 LIG 0.01  C 
ATOM     54  CG2 VAL P   7      79.648  -6.661  60.528  1.00 67.18 LIG 0.01  C 
ATOM     55  CG1 VAL P   7      81.939  -5.754  60.163  1.00 63.58 LIG 0.01  C 
ENDBRANCH 42 53
ENDBRANCH 39 42
ENDBRANCH 1 38
TORSDOF 20
ENDMDL
MODEL 38
USER: ADFR SOLUTION from run 96
USER: SCORE 18.119808 LL:  -4.732 LR: -15.531 RR:   0.000 FEB:  -9.565
USER: RMSD 5.555564
USER: SEED 95
USER: STATUS no improvement in best in 17 clusters for 5 generations
USER: GENES 22
USER: genes 0 Translation |==|  0.41420 0.46513 0.54037
USER: genes 1 Rotation |==|  0.38317 0.70111 0.39116 0.92902
USER: genes 2 Torsion [N]-CA--C-[N] |==|  0.12192
USER: genes 3 Torsion [C]-N--CA-[CB] |==|  0.39739
USER: genes 4 Torsion [N]-CA--CB-[CG] |==|  0.52442
USER: genes 5 Torsion [CA]-CB--CG-[CD] |==|  0.31523
USER: genes 6 Torsion [CB]-CG--CD-[OE1] |==|  0.02193
USER: genes 7 Torsion [N]-CA--C-[N] |==|  0.23537
USER: genes 8 Torsion [C]-N--CA-[C] |==|  0.19165
USER: genes 9 Torsion [N]-CA--C-[O] |==|  0.77220
USER: genes 10 Torsion [N]-CA--CB-[CG] |==|  0.86411
USER: genes 11 Torsion [CA]-CB--CG-[CD1] |==|  0.80823
USER: genes 12 Torsion [C]-CA--CB-[CG] |==|  0.18721
USER: genes 13 Torsion [CA]-CB--CG-[CD1] |==|  0.57012
USER: genes 14 Torsion [CE1]-CZ--OH-[HH] |==|  0.38370
USER: genes 15 Torsion [C]-CA--N-[C] |==|  0.63495
USER: genes 16 Torsion [N]-C--CA-[N] |==|  0.92146
USER: genes 17 Torsion [C]-CA--N-[C] |==|  0.80110
USER: genes 18 Torsion [N]-C--CA-[N] |==|  0.48113
USER: genes 19 Torsion [C]-CA--CB-[CG] |==|  0.36402
USER: genes 20 Torsion [CA]-CB--CG-[CD2] |==|  0.46806
USER: genes 21 Torsion [C]-CA--CB-[CG2] |==|  0.16420
ROOT
ATOM      1  CA  TYR P   8      80.619  -2.951  61.467  1.00 57.99 LIG 0.18  C 
ENDROOT
BRANCH 1 2
ATOM      2  C   TYR P   8      80.916  -1.509  61.084  1.00 56.68 LIG 0.24  C 
ATOM      3  N   GLN P   9      81.017  -1.249  59.784  1.00 57.67 LIG-0.35  N 
ATOM      4 H    GLN P   9      80.982  -1.852  59.172  1.00 57.67 LIG 0.16  HD
ATOM      5 O    TYR P   8      81.049  -0.647  61.959  1.00 54.26 LIG-0.27  OA
BRANCH 3 6
ATOM      6  CA  GLN P   9      81.198   0.105  59.281  1.00 54.86 LIG 0.18  C 
BRANCH 6 7
ATOM      7  CB  GLN P   9      82.130   0.121  58.071  1.00 52.41 LIG 0.04  C 
BRANCH 7 8
ATOM      8  CG  GLN P   9      82.532   1.516  57.624  1.00 53.63 LIG 0.10  C 
BRANCH 8 9
ATOM      9  CD  GLN P   9      84.006   1.780  57.827  1.00 56.56 LIG 0.21  C 
ATOM     10 OE1  GLN P   9      84.766   0.874  58.169  1.00 59.67 LIG-0.27  OA
ATOM     11  NE2 GLN P   9      84.423   3.025  57.618  1.00 58.55 LIG-0.37  N 
ATOM     12 22HE GLN P   9      85.253   3.224  57.721  1.00 58.55 LIG 0.16  HD
ATOM     13 21HE GLN P   9      83.862   3.631  57.380  1.00 58.55 LIG 0.16  HD
ENDBRANCH 8 9
ENDBRANCH 7 8
ENDBRANCH 6 7
BRANCH 6 14
ATOM     14  C   GLN P   9      79.836   0.683  58.918  1.00 54.72 LIG 0.24  C 
ATOM     15 O    GLN P   9      79.417   0.613  57.757  1.00 59.60 LIG-0.27  OA
ATOM     16  N   PHE P  10      79.144   1.238  59.906  1.00 49.02 LIG-0.34  N 
ATOM     17 H    PHE P  10      79.398   1.252  60.728  1.00 49.02 LIG 0.16  HD
BRANCH 16 18
ATOM     18  CA  PHE P  10      77.864   1.885  59.654  1.00 50.33 LIG 0.19  C 
BRANCH 18 19
ATOM     19  C   PHE P  10      76.791   0.872  59.274  1.00 49.91 LIG 0.20  C 
ATOM     20 O    PHE P  10      76.706   0.458  58.116  1.00 45.93 LIG-0.65  OA
ATOM     21 OXT  PHE P  10      75.986   0.458  60.110  1.00 46.36 LIG-0.65  OA
ENDBRANCH 18 19
BRANCH 18 22
ATOM     22  CB  PHE P  10      78.000   2.954  58.566  1.00 51.88 LIG 0.07  C 
BRANCH 22 23
ATOM     23  CG  PHE P  10      79.148   3.906  58.771  1.00 51.17 LIG-0.06  A 
ATOM     24  CD1 PHE P  10      79.127   4.824  59.808  1.00 49.53 LIG 0.01  A 
ATOM     25  CE1 PHE P  10      80.172   5.708  59.990  1.00 54.45 LIG 0.00  A 
ATOM     26  CZ  PHE P  10      81.246   5.694  59.122  1.00 54.40 LIG 0.00  A 
ATOM     27  CE2 PHE P  10      81.277   4.791  58.083  1.00 52.97 LIG 0.00  A 
ATOM     28  CD2 PHE P  10      80.229   3.907  57.904  1.00 50.02 LIG 0.01  A 
ENDBRANCH 22 23
ENDBRANCH 18 22
ENDBRANCH 16 18
ENDBRANCH 6 14
ENDBRANCH 3 6
ENDBRANCH 1 2
BRANCH 1 29
ATOM     29  CB  TYR P   8      80.877  -3.161  62.958  1.00 54.61 LIG 0.07  C 
BRANCH 29 30
ATOM     30  CG  TYR P   8      79.924  -2.427  63.870  1.00 66.64 LIG-0.06  A 
ATOM     31  CD1 TYR P   8      80.299  -2.082  65.163  1.00 68.29 LIG 0.01  A 
ATOM     32  CE1 TYR P   8      79.431  -1.417  66.003  1.00 71.89 LIG 0.04  A 
ATOM     33  CZ  TYR P   8      78.167  -1.092  65.556  1.00 71.50 LIG 0.07  A 
ATOM     34  CE2 TYR P   8      77.770  -1.427  64.279  1.00 69.11 LIG 0.04  A 
ATOM     35  CD2 TYR P   8      78.645  -2.093  63.447  1.00 65.21 LIG 0.01  A 
BRANCH 33 36
ATOM     36 OH   TYR P   8      77.299  -0.429  66.391  1.00 83.55 LIG-0.36  OA
ATOM     37 HH   TYR P   8      76.894   0.167  65.958  1.00 83.55 LIG 0.22  HD
ENDBRANCH 33 36
ENDBRANCH 29 30
ENDBRANCH 1 29
BRANCH 1 38
ATOM     38  N   TYR P   8      81.453  -3.831  60.659  1.00 59.31 LIG-0.35  N 
ATOM     39  C   VAL P   7      80.971  -4.887  60.010  1.00 65.10 LIG 0.24  C 
ATOM     40 O    VAL P   7      79.791  -5.250  60.094  1.00 66.40 LIG-0.27  OA
ATOM     41 H    TYR P   8      82.282  -3.604  60.642  1.00 59.31 LIG 0.16  HD
BRANCH 39 42
ATOM     42  CA  VAL P   7      81.959  -5.652  59.140  1.00 68.90 LIG 0.18  C 
BRANCH 42 43
ATOM     43  N   VAL P   7      82.993  -4.733  58.681  1.00 69.26 LIG-0.34  N 
ATOM     44  C   LEU P   6      82.769  -3.790  57.772  1.00 74.59 LIG 0.26  C 
ATOM     45 O    LEU P   6      81.657  -3.594  57.275  1.00 73.78 LIG-0.27  OA
ATOM     46 H    VAL P   7      83.758  -4.858  59.053  1.00 69.26 LIG 0.16  HD
BRANCH 44 47
ATOM     47  CA  LEU P   6      83.982  -2.936  57.390  1.00 78.06 LIG 0.40  C 
ATOM     48  N   LEU P   6      83.656  -2.051  56.278  1.00 74.40 LIG 0.61  N 
BRANCH 47 49
ATOM     49  CB  LEU P   6      84.491  -2.125  58.588  1.00 78.52 LIG 0.06  C 
BRANCH 49 50
ATOM     50  CG  LEU P   6      85.978  -2.115  58.960  1.00 77.43 LIG-0.02  C 
ATOM     51  CD2 LEU P   6      86.308  -1.041  59.990  1.00 73.93 LIG 0.01  C 
ATOM     52  CD1 LEU P   6      86.783  -1.929  57.691  1.00 75.78 LIG 0.01  C 
ENDBRANCH 49 50
ENDBRANCH 47 49
ENDBRANCH 44 47
ENDBRANCH 42 43
BRANCH 42 53
ATOM     53  CB  VAL P   7      82.572  -6.836  59.907  1.00 67.45 LIG 0.01  C 
ATOM     54  CG2 VAL P   7      81.481  -7.786  60.365  1.00 67.18 LIG 0.01  C 
ATOM     55  CG1 VAL P   7      83.374  -6.340  61.094  1.00 63.58 LIG 0.01  C 
ENDBRANCH 42 53
ENDBRANCH 39 42
ENDBRANCH 1 38
TORSDOF 20
ENDMDL
MODEL 39
USER: ADFR SOLUTION from run 178
USER: SCORE 18.513829 LL:  -4.846 LR: -15.506 RR:   0.000 FEB:  -9.540
USER: RMSD 2.204244
USER: SEED 177
USER: STATUS no improvement in best in 15 clusters for 5 generations
USER: GENES 22
USER: genes 0 Translation |==|  0.43425 0.50228 0.42851
USER: genes 1 Rotation |==|  0.51452 0.51386 0.51548 0.99936
USER: genes 2 Torsion [N]-CA--C-[N] |==|  0.35222
USER: genes 3 Torsion [C]-N--CA-[CB] |==|  0.42546
USER: genes 4 Torsion [N]-CA--CB-[CG] |==|  0.52599
USER: genes 5 Torsion [CA]-CB--CG-[CD] |==|  0.16141
USER: genes 6 Torsion [CB]-CG--CD-[OE1] |==|  0.05259
USER: genes 7 Torsion [N]-CA--C-[N] |==|  0.30640
USER: genes 8 Torsion [C]-N--CA-[C] |==|  0.74034
USER: genes 9 Torsion [N]-CA--C-[O] |==|  0.95959
USER: genes 10 Torsion [N]-CA--CB-[CG] |==|  0.83859
USER: genes 11 Torsion [CA]-CB--CG-[CD1] |==|  0.69544
USER: genes 12 Torsion [C]-CA--CB-[CG] |==|  0.39128
USER: genes 13 Torsion [CA]-CB--CG-[CD1] |==|  0.98933
USER: genes 14 Torsion [CE1]-CZ--OH-[HH] |==|  0.88744
USER: genes 15 Torsion [C]-CA--N-[C] |==|  0.71560
USER: genes 16 Torsion [N]-C--CA-[N] |==|  0.36862
USER: genes 17 Torsion [C]-CA--N-[C] |==|  0.63716
USER: genes 18 Torsion [N]-C--CA-[N] |==|  0.46780
USER: genes 19 Torsion [C]-CA--CB-[CG] |==|  0.07643
USER: genes 20 Torsion [CA]-CB--CG-[CD2] |==|  0.72394
USER: genes 21 Torsion [C]-CA--CB-[CG2] |==|  0.37795
ROOT
ATOM      1  CA  TYR P   8      81.070  -2.116  59.453  1.00 57.99 LIG 0.18  C 
ENDROOT
BRANCH 1 2
ATOM      2  C   TYR P   8      80.593  -0.742  59.903  1.00 56.68 LIG 0.24  C 
ATOM      3  N   GLN P   9      79.680  -0.152  59.139  1.00 57.67 LIG-0.35  N 
ATOM      4 H    GLN P   9      79.400  -0.475  58.392  1.00 57.67 LIG 0.16  HD
ATOM      5 O    TYR P   8      81.049  -0.231  60.931  1.00 54.26 LIG-0.27  OA
BRANCH 3 6
ATOM      6  CA  GLN P   9      79.068   1.117  59.509  1.00 54.86 LIG 0.18  C 
BRANCH 6 7
ATOM      7  CB  GLN P   9      78.607   1.886  58.274  1.00 52.41 LIG 0.04  C 
BRANCH 7 8
ATOM      8  CG  GLN P   9      78.165   3.309  58.566  1.00 53.63 LIG 0.10  C 
BRANCH 8 9
ATOM      9  CD  GLN P   9      79.258   4.127  59.216  1.00 56.56 LIG 0.21  C 
ATOM     10 OE1  GLN P   9      80.435   3.772  59.144  1.00 59.67 LIG-0.27  OA
ATOM     11  NE2 GLN P   9      78.878   5.228  59.855  1.00 58.55 LIG-0.37  N 
ATOM     12 22HE GLN P   9      79.464   5.725  60.241  1.00 58.55 LIG 0.16  HD
ATOM     13 21HE GLN P   9      78.046   5.443  59.884  1.00 58.55 LIG 0.16  HD
ENDBRANCH 8 9
ENDBRANCH 7 8
ENDBRANCH 6 7
BRANCH 6 14
ATOM     14  C   GLN P   9      77.894   0.844  60.441  1.00 54.72 LIG 0.24  C 
ATOM     15 O    GLN P   9      76.872   0.293  60.014  1.00 59.60 LIG-0.27  OA
ATOM     16  N   PHE P  10      78.043   1.214  61.708  1.00 49.02 LIG-0.34  N 
ATOM     17 H    PHE P  10      78.764   1.552  62.033  1.00 49.02 LIG 0.16  HD
BRANCH 16 18
ATOM     18  CA  PHE P  10      76.955   1.065  62.665  1.00 50.33 LIG 0.19  C 
BRANCH 18 19
ATOM     19  C   PHE P  10      76.125   2.339  62.770  1.00 49.91 LIG 0.20  C 
ATOM     20 O    PHE P  10      76.550   3.400  62.309  1.00 45.93 LIG-0.65  OA
ATOM     21 OXT  PHE P  10      75.024   2.333  63.324  1.00 46.36 LIG-0.65  OA
ENDBRANCH 18 19
BRANCH 18 22
ATOM     22  CB  PHE P  10      77.493   0.663  64.041  1.00 51.88 LIG 0.07  C 
BRANCH 22 23
ATOM     23  CG  PHE P  10      78.285  -0.618  64.046  1.00 51.17 LIG-0.06  A 
ATOM     24  CD1 PHE P  10      77.775  -1.760  64.641  1.00 49.53 LIG 0.01  A 
ATOM     25  CE1 PHE P  10      78.506  -2.932  64.660  1.00 54.45 LIG 0.00  A 
ATOM     26  CZ  PHE P  10      79.767  -2.969  64.098  1.00 54.40 LIG 0.00  A 
ATOM     27  CE2 PHE P  10      80.289  -1.838  63.509  1.00 52.97 LIG 0.00  A 
ATOM     28  CD2 PHE P  10      79.554  -0.667  63.492  1.00 50.02 LIG 0.01  A 
ENDBRANCH 22 23
ENDBRANCH 18 22
ENDBRANCH 16 18
ENDBRANCH 6 14
ENDBRANCH 3 6
ENDBRANCH 1 2
BRANCH 1 29
ATOM     29  CB  TYR P   8      80.578  -3.185  60.427  1.00 54.61 LIG 0.07  C 
BRANCH 29 30
ATOM     30  CG  TYR P   8      80.134  -4.473  59.776  1.00 66.64 LIG-0.06  A 
ATOM     31  CD1 TYR P   8      80.111  -4.600  58.393  1.00 68.29 LIG 0.01  A 
ATOM     32  CE1 TYR P   8      79.701  -5.772  57.792  1.00 71.89 LIG 0.04  A 
ATOM     33  CZ  TYR P   8      79.302  -6.835  58.576  1.00 71.50 LIG 0.07  A 
ATOM     34  CE2 TYR P   8      79.312  -6.731  59.951  1.00 69.11 LIG 0.04  A 
ATOM     35  CD2 TYR P   8      79.723  -5.555  60.542  1.00 65.21 LIG 0.01  A 
BRANCH 33 36
ATOM     36 OH   TYR P   8      78.893  -8.004  57.981  1.00 83.55 LIG-0.36  OA
ATOM     37 HH   TYR P   8      78.423  -7.826  57.307  1.00 83.55 LIG 0.22  HD
ENDBRANCH 33 36
ENDBRANCH 29 30
ENDBRANCH 1 29
BRANCH 1 38
ATOM     38  N   TYR P   8      82.524  -2.103  59.374  1.00 59.31 LIG-0.35  N 
ATOM     39  C   VAL P   7      83.184  -2.006  58.224  1.00 65.10 LIG 0.24  C 
ATOM     40 O    VAL P   7      82.619  -1.988  57.122  1.00 66.40 LIG-0.27  OA
ATOM     41 H    TYR P   8      82.914  -2.165  60.139  1.00 59.31 LIG 0.16  HD
BRANCH 39 42
ATOM     42  CA  VAL P   7      84.701  -1.918  58.322  1.00 68.90 LIG 0.18  C 
BRANCH 42 43
ATOM     43  N   VAL P   7      85.289  -2.851  57.370  1.00 69.26 LIG-0.34  N 
ATOM     44  C   LEU P   6      86.242  -3.717  57.702  1.00 74.59 LIG 0.26  C 
ATOM     45 O    LEU P   6      86.674  -3.823  58.853  1.00 73.78 LIG-0.27  OA
ATOM     46 H    VAL P   7      84.963  -2.790  56.577  1.00 69.26 LIG 0.16  HD
BRANCH 44 47
ATOM     47  CA  LEU P   6      86.762  -4.598  56.563  1.00 78.06 LIG 0.40  C 
ATOM     48  N   LEU P   6      87.972  -5.302  56.970  1.00 74.40 LIG 0.61  N 
BRANCH 47 49
ATOM     49  CB  LEU P   6      85.694  -5.598  56.100  1.00 78.52 LIG 0.06  C 
BRANCH 49 50
ATOM     50  CG  LEU P   6      84.202  -5.284  56.249  1.00 77.43 LIG-0.02  C 
ATOM     51  CD2 LEU P   6      83.590  -5.956  57.472  1.00 73.93 LIG 0.01  C 
ATOM     52  CD1 LEU P   6      83.498  -5.706  54.977  1.00 75.78 LIG 0.01  C 
ENDBRANCH 49 50
ENDBRANCH 47 49
ENDBRANCH 44 47
ENDBRANCH 42 43
BRANCH 42 53
ATOM     53  CB  VAL P   7      85.191  -0.483  58.065  1.00 67.45 LIG 0.01  C 
ATOM     54  CG2 VAL P   7      86.254  -0.101  59.080  1.00 67.18 LIG 0.01  C 
ATOM     55  CG1 VAL P   7      84.031   0.491  58.123  1.00 63.58 LIG 0.01  C 
ENDBRANCH 42 53
ENDBRANCH 39 42
ENDBRANCH 1 38
TORSDOF 20
ENDMDL
MODEL 40
USER: ADFR SOLUTION from run 171
USER: SCORE 18.177605 LL:  -4.886 LR: -15.486 RR:   0.000 FEB:  -9.520
USER: RMSD 4.393313
USER: SEED 170
USER: STATUS no improvement in best in 16 clusters for 5 generations
USER: GENES 22
USER: genes 0 Translation |==|  0.42790 0.49672 0.43567
USER: genes 1 Rotation |==|  0.45141 0.56085 0.54645 0.99171
USER: genes 2 Torsion [N]-CA--C-[N] |==|  0.31093
USER: genes 3 Torsion [C]-N--CA-[CB] |==|  0.46112
USER: genes 4 Torsion [N]-CA--CB-[CG] |==|  0.93742
USER: genes 5 Torsion [CA]-CB--CG-[CD] |==|  0.26329
USER: genes 6 Torsion [CB]-CG--CD-[OE1] |==|  0.89789
USER: genes 7 Torsion [N]-CA--C-[N] |==|  0.25831
USER: genes 8 Torsion [C]-N--CA-[C] |==|  0.75878
USER: genes 9 Torsion [N]-CA--C-[O] |==|  0.91914
USER: genes 10 Torsion [N]-CA--CB-[CG] |==|  0.82221
USER: genes 11 Torsion [CA]-CB--CG-[CD1] |==|  0.76556
USER: genes 12 Torsion [C]-CA--CB-[CG] |==|  0.44028
USER: genes 13 Torsion [CA]-CB--CG-[CD1] |==|  0.72224
USER: genes 14 Torsion [CE1]-CZ--OH-[HH] |==|  0.69999
USER: genes 15 Torsion [C]-CA--N-[C] |==|  0.76410
USER: genes 16 Torsion [N]-C--CA-[N] |==|  0.74076
USER: genes 17 Torsion [C]-CA--N-[C] |==|  0.66086
USER: genes 18 Torsion [N]-C--CA-[N] |==|  0.39384
USER: genes 19 Torsion [C]-CA--CB-[CG] |==|  0.27153
USER: genes 20 Torsion [CA]-CB--CG-[CD2] |==|  0.15564
USER: genes 21 Torsion [C]-CA--CB-[CG2] |==|  0.63091
ROOT
ATOM      1  CA  TYR P   8      80.927  -2.241  59.582  1.00 57.99 LIG 0.18  C 
ENDROOT
BRANCH 1 2
ATOM      2  C   TYR P   8      80.316  -0.860  59.775  1.00 56.68 LIG 0.24  C 
ATOM      3  N   GLN P   9      79.412  -0.481  58.878  1.00 57.67 LIG-0.35  N 
ATOM      4 H    GLN P   9      79.206  -0.942  58.182  1.00 57.67 LIG 0.16  HD
ATOM      5 O    TYR P   8      80.664  -0.154  60.728  1.00 54.26 LIG-0.27  OA
BRANCH 3 6
ATOM      6  CA  GLN P   9      78.680   0.772  59.004  1.00 54.86 LIG 0.18  C 
BRANCH 6 7
ATOM      7  CB  GLN P   9      77.974   1.129  57.698  1.00 52.41 LIG 0.04  C 
BRANCH 7 8
ATOM      8  CG  GLN P   9      78.585   0.473  56.471  1.00 53.63 LIG 0.10  C 
BRANCH 8 9
ATOM      9  CD  GLN P   9      77.885  -0.815  56.102  1.00 56.56 LIG 0.21  C 
ATOM     10 OE1  GLN P   9      77.463  -1.573  56.974  1.00 59.67 LIG-0.27  OA
ATOM     11  NE2 GLN P   9      77.755  -1.071  54.804  1.00 58.55 LIG-0.37  N 
ATOM     12 22HE GLN P   9      77.365  -1.792  54.545  1.00 58.55 LIG 0.16  HD
ATOM     13 21HE GLN P   9      78.063  -0.517  54.224  1.00 58.55 LIG 0.16  HD
ENDBRANCH 8 9
ENDBRANCH 7 8
ENDBRANCH 6 7
BRANCH 6 14
ATOM     14  C   GLN P   9      77.673   0.643  60.140  1.00 54.72 LIG 0.24  C 
ATOM     15 O    GLN P   9      76.551   0.169  59.930  1.00 59.60 LIG-0.27  OA
ATOM     16  N   PHE P  10      78.076   1.049  61.339  1.00 49.02 LIG-0.34  N 
ATOM     17 H    PHE P  10      78.868   1.335  61.513  1.00 49.02 LIG 0.16  HD
BRANCH 16 18
ATOM     18  CA  PHE P  10      77.169   1.038  62.478  1.00 50.33 LIG 0.19  C 
BRANCH 18 19
ATOM     19  C   PHE P  10      76.356   2.325  62.559  1.00 49.91 LIG 0.20  C 
ATOM     20 O    PHE P  10      76.818   3.382  62.126  1.00 45.93 LIG-0.65  OA
ATOM     21 OXT  PHE P  10      75.233   2.334  63.067  1.00 46.36 LIG-0.65  OA
ENDBRANCH 18 19
BRANCH 18 22
ATOM     22  CB  PHE P  10      77.937   0.807  63.782  1.00 51.88 LIG 0.07  C 
BRANCH 22 23
ATOM     23  CG  PHE P  10      78.616  -0.534  63.873  1.00 51.17 LIG-0.06  A 
ATOM     24  CD1 PHE P  10      77.919  -1.651  64.302  1.00 49.53 LIG 0.01  A 
ATOM     25  CE1 PHE P  10      78.543  -2.878  64.400  1.00 54.45 LIG 0.00  A 
ATOM     26  CZ  PHE P  10      79.882  -2.999  64.084  1.00 54.40 LIG 0.00  A 
ATOM     27  CE2 PHE P  10      80.590  -1.895  63.662  1.00 52.97 LIG 0.00  A 
ATOM     28  CD2 PHE P  10      79.961  -0.668  63.565  1.00 50.02 LIG 0.01  A 
ENDBRANCH 22 23
ENDBRANCH 18 22
ENDBRANCH 16 18
ENDBRANCH 6 14
ENDBRANCH 3 6
ENDBRANCH 1 2
BRANCH 1 29
ATOM     29  CB  TYR P   8      80.769  -3.066  60.858  1.00 54.61 LIG 0.07  C 
BRANCH 29 30
ATOM     30  CG  TYR P   8      80.855  -4.560  60.656  1.00 66.64 LIG-0.06  A 
ATOM     31  CD1 TYR P   8      79.705  -5.337  60.592  1.00 68.29 LIG 0.01  A 
ATOM     32  CE1 TYR P   8      79.777  -6.702  60.413  1.00 71.89 LIG 0.04  A 
ATOM     33  CZ  TYR P   8      81.011  -7.309  60.301  1.00 71.50 LIG 0.07  A 
ATOM     34  CE2 TYR P   8      82.167  -6.560  60.366  1.00 69.11 LIG 0.04  A 
ATOM     35  CD2 TYR P   8      82.084  -5.195  60.546  1.00 65.21 LIG 0.01  A 
BRANCH 33 36
ATOM     36 OH   TYR P   8      81.087  -8.670  60.123  1.00 83.55 LIG-0.36  OA
ATOM     37 HH   TYR P   8      81.368  -9.030  60.829  1.00 83.55 LIG 0.22  HD
ENDBRANCH 33 36
ENDBRANCH 29 30
ENDBRANCH 1 29
BRANCH 1 38
ATOM     38  N   TYR P   8      82.330  -2.086  59.225  1.00 59.31 LIG-0.35  N 
ATOM     39  C   VAL P   7      82.739  -1.882  57.976  1.00 65.10 LIG 0.24  C 
ATOM     40 O    VAL P   7      81.969  -1.878  57.006  1.00 66.40 LIG-0.27  OA
ATOM     41 H    TYR P   8      82.867  -2.138  59.895  1.00 59.31 LIG 0.16  HD
BRANCH 39 42
ATOM     42  CA  VAL P   7      84.232  -1.653  57.784  1.00 68.90 LIG 0.18  C 
BRANCH 42 43
ATOM     43  N   VAL P   7      84.496  -0.221  57.805  1.00 69.26 LIG-0.34  N 
ATOM     44  C   LEU P   6      85.078   0.421  56.796  1.00 74.59 LIG 0.26  C 
ATOM     45 O    LEU P   6      85.404  -0.142  55.748  1.00 73.78 LIG-0.27  OA
ATOM     46 H    VAL P   7      84.240   0.169  58.527  1.00 69.26 LIG 0.16  HD
BRANCH 44 47
ATOM     47  CA  LEU P   6      85.302   1.921  57.007  1.00 78.06 LIG 0.40  C 
ATOM     48  N   LEU P   6      86.581   2.333  56.441  1.00 74.40 LIG 0.61  N 
BRANCH 47 49
ATOM     49  CB  LEU P   6      84.159   2.746  56.402  1.00 78.52 LIG 0.06  C 
BRANCH 49 50
ATOM     50  CG  LEU P   6      83.006   3.256  57.272  1.00 77.43 LIG-0.02  C 
ATOM     51  CD2 LEU P   6      83.498   4.096  58.446  1.00 73.93 LIG 0.01  C 
ATOM     52  CD1 LEU P   6      82.204   2.063  57.745  1.00 75.78 LIG 0.01  C 
ENDBRANCH 49 50
ENDBRANCH 47 49
ENDBRANCH 44 47
ENDBRANCH 42 43
BRANCH 42 53
ATOM     53  CB  VAL P   7      85.048  -2.382  58.865  1.00 67.45 LIG 0.01  C 
ATOM     54  CG2 VAL P   7      86.095  -1.452  59.450  1.00 67.18 LIG 0.01  C 
ATOM     55  CG1 VAL P   7      85.704  -3.621  58.289  1.00 63.58 LIG 0.01  C 
ENDBRANCH 42 53
ENDBRANCH 39 42
ENDBRANCH 1 38
TORSDOF 20
ENDMDL
MODEL 41
USER: ADFR SOLUTION from run 40
USER: SCORE 18.871208 LL:  -5.532 LR: -15.493 RR:   0.000 FEB:  -9.527
USER: RMSD 6.126055
USER: SEED 39
USER: STATUS no improvement in best in 5 clusters for 5 generations
USER: GENES 22
USER: genes 0 Translation |==|  0.44963 0.50254 0.44126
USER: genes 1 Rotation |==|  0.60545 0.57952 0.62713 0.96518
USER: genes 2 Torsion [N]-CA--C-[N] |==|  0.52021
USER: genes 3 Torsion [C]-N--CA-[CB] |==|  0.89451
USER: genes 4 Torsion [N]-CA--CB-[CG] |==|  0.73698
USER: genes 5 Torsion [CA]-CB--CG-[CD] |==|  0.05464
USER: genes 6 Torsion [CB]-CG--CD-[OE1] |==|  0.23454
USER: genes 7 Torsion [N]-CA--C-[N] |==|  0.74445
USER: genes 8 Torsion [C]-N--CA-[C] |==|  0.19732
USER: genes 9 Torsion [N]-CA--C-[O] |==|  0.76422
USER: genes 10 Torsion [N]-CA--CB-[CG] |==|  0.88239
USER: genes 11 Torsion [CA]-CB--CG-[CD1] |==|  0.86319
USER: genes 12 Torsion [C]-CA--CB-[CG] |==|  0.25506
USER: genes 13 Torsion [CA]-CB--CG-[CD1] |==|  0.66216
USER: genes 14 Torsion [CE1]-CZ--OH-[HH] |==|  0.48439
USER: genes 15 Torsion [C]-CA--N-[C] |==|  0.62100
USER: genes 16 Torsion [N]-C--CA-[N] |==|  0.78889
USER: genes 17 Torsion [C]-CA--N-[C] |==|  0.64651
USER: genes 18 Torsion [N]-C--CA-[N] |==|  0.52681
USER: genes 19 Torsion [C]-CA--CB-[CG] |==|  0.49883
USER: genes 20 Torsion [CA]-CB--CG-[CD2] |==|  0.89160
USER: genes 21 Torsion [C]-CA--CB-[CG2] |==|  0.50805
ROOT
ATOM      1  CA  TYR P   8      81.416  -2.110  59.683  1.00 57.99 LIG 0.18  C 
ENDROOT
BRANCH 1 2
ATOM      2  C   TYR P   8      80.638  -1.326  60.730  1.00 56.68 LIG 0.24  C 
ATOM      3  N   GLN P   9      79.562  -1.920  61.237  1.00 57.67 LIG-0.35  N 
ATOM      4 H    GLN P   9      79.261  -2.678  60.964  1.00 57.67 LIG 0.16  HD
ATOM      5 O    TYR P   8      81.015  -0.200  61.072  1.00 54.26 LIG-0.27  OA
BRANCH 3 6
ATOM      6  CA  GLN P   9      78.788  -1.322  62.316  1.00 54.86 LIG 0.18  C 
BRANCH 6 7
ATOM      7  CB  GLN P   9      79.700  -0.630  63.327  1.00 52.41 LIG 0.04  C 
BRANCH 7 8
ATOM      8  CG  GLN P   9      80.071  -1.500  64.515  1.00 53.63 LIG 0.10  C 
BRANCH 8 9
ATOM      9  CD  GLN P   9      79.872  -2.972  64.233  1.00 56.56 LIG 0.21  C 
ATOM     10 OE1  GLN P   9      80.746  -3.626  63.663  1.00 59.67 LIG-0.27  OA
ATOM     11  NE2 GLN P   9      78.720  -3.504  64.628  1.00 58.55 LIG-0.37  N 
ATOM     12 22HE GLN P   9      78.561  -4.338  64.489  1.00 58.55 LIG 0.16  HD
ATOM     13 21HE GLN P   9      78.134  -3.014  65.023  1.00 58.55 LIG 0.16  HD
ENDBRANCH 8 9
ENDBRANCH 7 8
ENDBRANCH 6 7
BRANCH 6 14
ATOM     14  C   GLN P   9      77.796  -0.331  61.722  1.00 54.72 LIG 0.24  C 
ATOM     15 O    GLN P   9      76.673  -0.709  61.366  1.00 59.60 LIG-0.27  OA
ATOM     16  N   PHE P  10      78.201   0.930  61.626  1.00 49.02 LIG-0.34  N 
ATOM     17 H    PHE P  10      78.959   1.219  61.913  1.00 49.02 LIG 0.16  HD
BRANCH 16 18
ATOM     18  CA  PHE P  10      77.359   1.943  61.006  1.00 50.33 LIG 0.19  C 
BRANCH 18 19
ATOM     19  C   PHE P  10      76.157   2.283  61.878  1.00 49.91 LIG 0.20  C 
ATOM     20 O    PHE P  10      75.132   1.599  61.823  1.00 45.93 LIG-0.65  OA
ATOM     21 OXT  PHE P  10      76.183   3.248  62.644  1.00 46.36 LIG-0.65  OA
ENDBRANCH 18 19
BRANCH 18 22
ATOM     22  CB  PHE P  10      76.900   1.491  59.616  1.00 51.88 LIG 0.07  C 
BRANCH 22 23
ATOM     23  CG  PHE P  10      77.975   0.833  58.791  1.00 51.17 LIG-0.06  A 
ATOM     24  CD1 PHE P  10      79.218   1.427  58.649  1.00 49.53 LIG 0.01  A 
ATOM     25  CE1 PHE P  10      80.200   0.833  57.882  1.00 54.45 LIG 0.00  A 
ATOM     26  CZ  PHE P  10      79.942  -0.358  57.232  1.00 54.40 LIG 0.00  A 
ATOM     27  CE2 PHE P  10      78.708  -0.956  57.359  1.00 52.97 LIG 0.00  A 
ATOM     28  CD2 PHE P  10      77.727  -0.358  58.129  1.00 50.02 LIG 0.01  A 
ENDBRANCH 22 23
ENDBRANCH 18 22
ENDBRANCH 16 18
ENDBRANCH 6 14
ENDBRANCH 3 6
ENDBRANCH 1 2
BRANCH 1 29
ATOM     29  CB  TYR P   8      81.717  -3.516  60.198  1.00 54.61 LIG 0.07  C 
BRANCH 29 30
ATOM     30  CG  TYR P   8      80.683  -4.554  59.834  1.00 66.64 LIG-0.06  A 
ATOM     31  CD1 TYR P   8      80.020  -5.275  60.820  1.00 68.29 LIG 0.01  A 
ATOM     32  CE1 TYR P   8      79.079  -6.228  60.494  1.00 71.89 LIG 0.04  A 
ATOM     33  CZ  TYR P   8      78.792  -6.475  59.168  1.00 71.50 LIG 0.07  A 
ATOM     34  CE2 TYR P   8      79.439  -5.777  58.171  1.00 69.11 LIG 0.04  A 
ATOM     35  CD2 TYR P   8      80.380  -4.826  58.507  1.00 65.21 LIG 0.01  A 
BRANCH 33 36
ATOM     36 OH   TYR P   8      77.854  -7.426  58.839  1.00 83.55 LIG-0.36  OA
ATOM     37 HH   TYR P   8      77.726  -7.417  58.008  1.00 83.55 LIG 0.22  HD
ENDBRANCH 33 36
ENDBRANCH 29 30
ENDBRANCH 1 29
BRANCH 1 38
ATOM     38  N   TYR P   8      82.642  -1.388  59.374  1.00 59.31 LIG-0.35  N 
ATOM     39  C   VAL P   7      83.090  -1.223  58.132  1.00 65.10 LIG 0.24  C 
ATOM     40 O    VAL P   7      82.540  -1.728  57.145  1.00 66.40 LIG-0.27  OA
ATOM     41 H    TYR P   8      83.048  -1.080  60.067  1.00 59.31 LIG 0.16  HD
BRANCH 39 42
ATOM     42  CA  VAL P   7      84.340  -0.369  57.974  1.00 68.90 LIG 0.18  C 
BRANCH 42 43
ATOM     43  N   VAL P   7      83.976   1.033  58.126  1.00 69.26 LIG-0.34  N 
ATOM     44  C   LEU P   6      84.291   1.962  57.228  1.00 74.59 LIG 0.26  C 
ATOM     45 O    LEU P   6      84.883   1.700  56.178  1.00 73.78 LIG-0.27  OA
ATOM     46 H    VAL P   7      83.539   1.203  58.847  1.00 69.26 LIG 0.16  HD
BRANCH 44 47
ATOM     47  CA  LEU P   6      83.852   3.389  57.570  1.00 78.06 LIG 0.40  C 
ATOM     48  N   LEU P   6      84.044   4.272  56.426  1.00 74.40 LIG 0.61  N 
BRANCH 47 49
ATOM     49  CB  LEU P   6      82.389   3.425  58.033  1.00 78.52 LIG 0.06  C 
BRANCH 49 50
ATOM     50  CG  LEU P   6      81.723   4.744  58.440  1.00 77.43 LIG-0.02  C 
ATOM     51  CD2 LEU P   6      82.667   5.650  59.221  1.00 73.93 LIG 0.01  C 
ATOM     52  CD1 LEU P   6      80.480   4.420  59.240  1.00 75.78 LIG 0.01  C 
ENDBRANCH 49 50
ENDBRANCH 47 49
ENDBRANCH 44 47
ENDBRANCH 42 43
BRANCH 42 53
ATOM     53  CB  VAL P   7      85.420  -0.774  58.993  1.00 67.45 LIG 0.01  C 
ATOM     54  CG2 VAL P   7      86.629   0.135  58.866  1.00 67.18 LIG 0.01  C 
ATOM     55  CG1 VAL P   7      85.823  -2.221  58.791  1.00 63.58 LIG 0.01  C 
ENDBRANCH 42 53
ENDBRANCH 39 42
ENDBRANCH 1 38
TORSDOF 20
ENDMDL
MODEL 42
USER: ADFR SOLUTION from run 72
USER: SCORE 18.344387 LL:  -4.417 LR: -15.482 RR:   0.000 FEB:  -9.516
USER: RMSD 9.961049
USER: SEED 71
USER: STATUS no improvement in best in 9 clusters for 5 generations
USER: GENES 22
USER: genes 0 Translation |==|  0.39213 0.49635 0.57613
USER: genes 1 Rotation |==|  0.22078 0.34214 0.88193 0.53539
USER: genes 2 Torsion [N]-CA--C-[N] |==|  0.24930
USER: genes 3 Torsion [C]-N--CA-[CB] |==|  0.21666
USER: genes 4 Torsion [N]-CA--CB-[CG] |==|  0.65026
USER: genes 5 Torsion [CA]-CB--CG-[CD] |==|  0.29139
USER: genes 6 Torsion [CB]-CG--CD-[OE1] |==|  0.74545
USER: genes 7 Torsion [N]-CA--C-[N] |==|  0.80016
USER: genes 8 Torsion [C]-N--CA-[C] |==|  0.56867
USER: genes 9 Torsion [N]-CA--C-[O] |==|  0.47038
USER: genes 10 Torsion [N]-CA--CB-[CG] |==|  0.72435
USER: genes 11 Torsion [CA]-CB--CG-[CD1] |==|  0.26793
USER: genes 12 Torsion [C]-CA--CB-[CG] |==|  0.60106
USER: genes 13 Torsion [CA]-CB--CG-[CD1] |==|  0.86073
USER: genes 14 Torsion [CE1]-CZ--OH-[HH] |==|  0.53425
USER: genes 15 Torsion [C]-CA--N-[C] |==|  0.72940
USER: genes 16 Torsion [N]-C--CA-[N] |==|  0.21288
USER: genes 17 Torsion [C]-CA--N-[C] |==|  0.63085
USER: genes 18 Torsion [N]-C--CA-[N] |==|  0.69281
USER: genes 19 Torsion [C]-CA--CB-[CG] |==|  0.19251
USER: genes 20 Torsion [CA]-CB--CG-[CD2] |==|  0.44309
USER: genes 21 Torsion [C]-CA--CB-[CG2] |==|  0.76421
ROOT
ATOM      1  CA  TYR P   8      80.122  -2.249  62.110  1.00 57.99 LIG 0.18  C 
ENDROOT
BRANCH 1 2
ATOM      2  C   TYR P   8      80.312  -3.703  61.705  1.00 56.68 LIG 0.24  C 
ATOM      3  N   GLN P   9      81.484  -4.019  61.163  1.00 57.67 LIG-0.35  N 
ATOM      4 H    GLN P   9      82.098  -3.445  60.982  1.00 57.67 LIG 0.16  HD
ATOM      5 O    TYR P   8      79.406  -4.523  61.885  1.00 54.26 LIG-0.27  OA
BRANCH 3 6
ATOM      6  CA  GLN P   9      81.831  -5.393  60.824  1.00 54.86 LIG 0.18  C 
BRANCH 6 7
ATOM      7  CB  GLN P   9      81.158  -5.824  59.523  1.00 52.41 LIG 0.04  C 
BRANCH 7 8
ATOM      8  CG  GLN P   9      80.345  -7.101  59.647  1.00 53.63 LIG 0.10  C 
BRANCH 8 9
ATOM      9  CD  GLN P   9      78.857  -6.833  59.670  1.00 56.56 LIG 0.21  C 
ATOM     10 OE1  GLN P   9      78.265  -6.669  60.737  1.00 59.67 LIG-0.27  OA
ATOM     11  NE2 GLN P   9      78.242  -6.787  58.493  1.00 58.55 LIG-0.37  N 
ATOM     12 22HE GLN P   9      77.395  -6.638  58.455  1.00 58.55 LIG 0.16  HD
ATOM     13 21HE GLN P   9      78.689  -6.907  57.769  1.00 58.55 LIG 0.16  HD
ENDBRANCH 8 9
ENDBRANCH 7 8
ENDBRANCH 6 7
BRANCH 6 14
ATOM     14  C   GLN P   9      83.346  -5.503  60.707  1.00 54.72 LIG 0.24  C 
ATOM     15 O    GLN P   9      83.997  -6.108  61.566  1.00 59.60 LIG-0.27  OA
ATOM     16  N   PHE P  10      83.902  -4.934  59.643  1.00 49.02 LIG-0.34  N 
ATOM     17 H    PHE P  10      83.461  -4.552  59.011  1.00 49.02 LIG 0.16  HD
BRANCH 16 18
ATOM     18  CA  PHE P  10      85.348  -4.917  59.472  1.00 50.33 LIG 0.19  C 
BRANCH 18 19
ATOM     19  C   PHE P  10      85.794  -3.760  58.586  1.00 49.91 LIG 0.20  C 
ATOM     20 O    PHE P  10      86.989  -3.473  58.491  1.00 45.93 LIG-0.65  OA
ATOM     21 OXT  PHE P  10      84.972  -3.088  57.961  1.00 46.36 LIG-0.65  OA
ENDBRANCH 18 19
BRANCH 18 22
ATOM     22  CB  PHE P  10      85.843  -6.249  58.902  1.00 51.88 LIG 0.07  C 
BRANCH 22 23
ATOM     23  CG  PHE P  10      86.405  -7.194  59.932  1.00 51.17 LIG-0.06  A 
ATOM     24  CD1 PHE P  10      85.616  -8.195  60.476  1.00 49.53 LIG 0.01  A 
ATOM     25  CE1 PHE P  10      86.124  -9.053  61.430  1.00 54.45 LIG 0.00  A 
ATOM     26  CZ  PHE P  10      87.427  -8.909  61.865  1.00 54.40 LIG 0.00  A 
ATOM     27  CE2 PHE P  10      88.221  -7.914  61.337  1.00 52.97 LIG 0.00  A 
ATOM     28  CD2 PHE P  10      87.708  -7.056  60.382  1.00 50.02 LIG 0.01  A 
ENDBRANCH 22 23
ENDBRANCH 18 22
ENDBRANCH 16 18
ENDBRANCH 6 14
ENDBRANCH 3 6
ENDBRANCH 1 2
BRANCH 1 29
ATOM     29  CB  TYR P   8      79.206  -2.161  63.330  1.00 54.61 LIG 0.07  C 
BRANCH 29 30
ATOM     30  CG  TYR P   8      78.275  -0.973  63.334  1.00 66.64 LIG-0.06  A 
ATOM     31  CD1 TYR P   8      78.758   0.310  63.105  1.00 68.29 LIG 0.01  A 
ATOM     32  CE1 TYR P   8      77.914   1.400  63.112  1.00 71.89 LIG 0.04  A 
ATOM     33  CZ  TYR P   8      76.568   1.217  63.356  1.00 71.50 LIG 0.07  A 
ATOM     34  CE2 TYR P   8      76.066  -0.045  63.590  1.00 69.11 LIG 0.04  A 
ATOM     35  CD2 TYR P   8      76.918  -1.129  63.582  1.00 65.21 LIG 0.01  A 
BRANCH 33 36
ATOM     36 OH   TYR P   8      75.724   2.302  63.365  1.00 83.55 LIG-0.36  OA
ATOM     37 HH   TYR P   8      74.981   2.076  63.687  1.00 83.55 LIG 0.22  HD
ENDBRANCH 33 36
ENDBRANCH 29 30
ENDBRANCH 1 29
BRANCH 1 38
ATOM     38  N   TYR P   8      79.566  -1.517  60.980  1.00 59.31 LIG-0.35  N 
ATOM     39  C   VAL P   7      80.314  -0.801  60.145  1.00 65.10 LIG 0.24  C 
ATOM     40 O    VAL P   7      81.532  -0.640  60.300  1.00 66.40 LIG-0.27  OA
ATOM     41 H    TYR P   8      78.712  -1.592  60.904  1.00 59.31 LIG 0.16  HD
BRANCH 39 42
ATOM     42  CA  VAL P   7      79.590  -0.169  58.965  1.00 68.90 LIG 0.18  C 
BRANCH 42 43
ATOM     43  N   VAL P   7      78.857   1.000  59.432  1.00 69.26 LIG-0.34  N 
ATOM     44  C   LEU P   6      77.589   1.234  59.107  1.00 74.59 LIG 0.26  C 
ATOM     45 O    LEU P   6      76.924   0.459  58.415  1.00 73.78 LIG-0.27  OA
ATOM     46 H    VAL P   7      79.319   1.521  59.937  1.00 69.26 LIG 0.16  HD
BRANCH 44 47
ATOM     47  CA  LEU P   6      76.990   2.528  59.666  1.00 78.06 LIG 0.40  C 
ATOM     48  N   LEU P   6      75.988   2.231  60.683  1.00 74.40 LIG 0.61  N 
BRANCH 47 49
ATOM     49  CB  LEU P   6      78.079   3.443  60.241  1.00 78.52 LIG 0.06  C 
BRANCH 49 50
ATOM     50  CG  LEU P   6      79.093   4.136  59.325  1.00 77.43 LIG-0.02  C 
ATOM     51  CD2 LEU P   6      79.740   5.345  59.990  1.00 73.93 LIG 0.01  C 
ATOM     52  CD1 LEU P   6      78.386   4.523  58.043  1.00 75.78 LIG 0.01  C 
ENDBRANCH 49 50
ENDBRANCH 47 49
ENDBRANCH 44 47
ENDBRANCH 42 43
BRANCH 42 53
ATOM     53  CB  VAL P   7      80.577   0.208  57.847  1.00 67.45 LIG 0.01  C 
ATOM     54  CG2 VAL P   7      81.181   1.574  58.117  1.00 67.18 LIG 0.01  C 
ATOM     55  CG1 VAL P   7      79.883   0.194  56.500  1.00 63.58 LIG 0.01  C 
ENDBRANCH 42 53
ENDBRANCH 39 42
ENDBRANCH 1 38
TORSDOF 20
ENDMDL
MODEL 43
USER: ADFR SOLUTION from run 20
USER: SCORE 19.289309 LL:  -5.080 LR: -15.468 RR:   0.000 FEB:  -9.502
USER: RMSD 9.274210
USER: SEED 19
USER: STATUS no improvement in best in 1 clusters for 5 generations
USER: GENES 22
USER: genes 0 Translation |==|  0.43961 0.58471 0.39814
USER: genes 1 Rotation |==|  0.62423 0.70932 0.90561 0.66197
USER: genes 2 Torsion [N]-CA--C-[N] |==|  0.37341
USER: genes 3 Torsion [C]-N--CA-[CB] |==|  0.20556
USER: genes 4 Torsion [N]-CA--CB-[CG] |==|  0.73824
USER: genes 5 Torsion [CA]-CB--CG-[CD] |==|  0.61814
USER: genes 6 Torsion [CB]-CG--CD-[OE1] |==|  0.43914
USER: genes 7 Torsion [N]-CA--C-[N] |==|  0.20542
USER: genes 8 Torsion [C]-N--CA-[C] |==|  0.60918
USER: genes 9 Torsion [N]-CA--C-[O] |==|  0.77762
USER: genes 10 Torsion [N]-CA--CB-[CG] |==|  0.88243
USER: genes 11 Torsion [CA]-CB--CG-[CD1] |==|  0.29459
USER: genes 12 Torsion [C]-CA--CB-[CG] |==|  0.13764
USER: genes 13 Torsion [CA]-CB--CG-[CD1] |==|  0.62995
USER: genes 14 Torsion [CE1]-CZ--OH-[HH] |==|  0.32949
USER: genes 15 Torsion [C]-CA--N-[C] |==|  0.64571
USER: genes 16 Torsion [N]-C--CA-[N] |==|  0.87623
USER: genes 17 Torsion [C]-CA--N-[C] |==|  0.74691
USER: genes 18 Torsion [N]-C--CA-[N] |==|  0.05634
USER: genes 19 Torsion [C]-CA--CB-[CG] |==|  0.30338
USER: genes 20 Torsion [CA]-CB--CG-[CD2] |==|  0.96724
USER: genes 21 Torsion [C]-CA--CB-[CG2] |==|  0.78600
ROOT
ATOM      1  CA  TYR P   8      81.190  -0.261  58.907  1.00 57.99 LIG 0.18  C 
ENDROOT
BRANCH 1 2
ATOM      2  C   TYR P   8      81.245  -1.011  60.230  1.00 56.68 LIG 0.24  C 
ATOM      3  N   GLN P   9      81.194  -2.337  60.162  1.00 57.67 LIG-0.35  N 
ATOM      4 H    GLN P   9      81.076  -2.775  59.430  1.00 57.67 LIG 0.16  HD
ATOM      5 O    TYR P   8      81.332  -0.390  61.294  1.00 54.26 LIG-0.27  OA
BRANCH 3 6
ATOM      6  CA  GLN P   9      81.338  -3.176  61.344  1.00 54.86 LIG 0.18  C 
BRANCH 6 7
ATOM      7  CB  GLN P   9      80.079  -3.130  62.206  1.00 52.41 LIG 0.04  C 
BRANCH 7 8
ATOM      8  CG  GLN P   9      80.136  -2.099  63.320  1.00 53.63 LIG 0.10  C 
BRANCH 8 9
ATOM      9  CD  GLN P   9      79.584  -2.633  64.623  1.00 56.56 LIG 0.21  C 
ATOM     10 OE1  GLN P   9      79.901  -2.120  65.696  1.00 59.67 LIG-0.27  OA
ATOM     11  NE2 GLN P   9      78.754  -3.667  64.539  1.00 58.55 LIG-0.37  N 
ATOM     12 22HE GLN P   9      78.415  -4.006  65.254  1.00 58.55 LIG 0.16  HD
ATOM     13 21HE GLN P   9      78.556  -3.998  63.771  1.00 58.55 LIG 0.16  HD
ENDBRANCH 8 9
ENDBRANCH 7 8
ENDBRANCH 6 7
BRANCH 6 14
ATOM     14  C   GLN P   9      81.635  -4.603  60.902  1.00 54.72 LIG 0.24  C 
ATOM     15 O    GLN P   9      80.760  -5.474  60.971  1.00 59.60 LIG-0.27  OA
ATOM     16  N   PHE P  10      82.857  -4.840  60.440  1.00 49.02 LIG-0.34  N 
ATOM     17 H    PHE P  10      83.463  -4.237  60.338  1.00 49.02 LIG 0.16  HD
BRANCH 16 18
ATOM     18  CA  PHE P  10      83.268  -6.184  60.060  1.00 50.33 LIG 0.19  C 
BRANCH 18 19
ATOM     19  C   PHE P  10      84.706  -6.469  60.477  1.00 49.91 LIG 0.20  C 
ATOM     20 O    PHE P  10      85.646  -6.053  59.797  1.00 45.93 LIG-0.65  OA
ATOM     21 OXT  PHE P  10      84.953  -7.126  61.490  1.00 46.36 LIG-0.65  OA
ENDBRANCH 18 19
BRANCH 18 22
ATOM     22  CB  PHE P  10      83.095  -6.400  58.554  1.00 51.88 LIG 0.07  C 
BRANCH 22 23
ATOM     23  CG  PHE P  10      81.815  -5.844  57.990  1.00 51.17 LIG-0.06  A 
ATOM     24  CD1 PHE P  10      81.824  -4.691  57.223  1.00 49.53 LIG 0.01  A 
ATOM     25  CE1 PHE P  10      80.650  -4.170  56.717  1.00 54.45 LIG 0.00  A 
ATOM     26  CZ  PHE P  10      79.446  -4.790  56.989  1.00 54.40 LIG 0.00  A 
ATOM     27  CE2 PHE P  10      79.421  -5.934  57.756  1.00 52.97 LIG 0.00  A 
ATOM     28  CD2 PHE P  10      80.599  -6.452  58.261  1.00 50.02 LIG 0.01  A 
ENDBRANCH 22 23
ENDBRANCH 18 22
ENDBRANCH 16 18
ENDBRANCH 6 14
ENDBRANCH 3 6
ENDBRANCH 1 2
BRANCH 1 29
ATOM     29  CB  TYR P   8      82.584   0.241  58.532  1.00 54.61 LIG 0.07  C 
BRANCH 29 30
ATOM     30  CG  TYR P   8      83.671  -0.804  58.609  1.00 66.64 LIG-0.06  A 
ATOM     31  CD1 TYR P   8      84.880  -0.528  59.236  1.00 68.29 LIG 0.01  A 
ATOM     32  CE1 TYR P   8      85.878  -1.476  59.306  1.00 71.89 LIG 0.04  A 
ATOM     33  CZ  TYR P   8      85.678  -2.718  58.739  1.00 71.50 LIG 0.07  A 
ATOM     34  CE2 TYR P   8      84.489  -3.014  58.107  1.00 69.11 LIG 0.04  A 
ATOM     35  CD2 TYR P   8      83.496  -2.059  58.043  1.00 65.21 LIG 0.01  A 
BRANCH 33 36
ATOM     36 OH   TYR P   8      86.671  -3.666  58.805  1.00 83.55 LIG-0.36  OA
ATOM     37 HH   TYR P   8      86.392  -4.335  59.230  1.00 83.55 LIG 0.22  HD
ENDBRANCH 33 36
ENDBRANCH 29 30
ENDBRANCH 1 29
BRANCH 1 38
ATOM     38  N   TYR P   8      80.249   0.843  59.033  1.00 59.31 LIG-0.35  N 
ATOM     39  C   VAL P   7      79.249   1.041  58.179  1.00 65.10 LIG 0.24  C 
ATOM     40 O    VAL P   7      79.079   0.347  57.168  1.00 66.40 LIG-0.27  OA
ATOM     41 H    TYR P   8      80.400   1.352  59.710  1.00 59.31 LIG 0.16  HD
BRANCH 39 42
ATOM     42  CA  VAL P   7      78.303   2.189  58.502  1.00 68.90 LIG 0.18  C 
BRANCH 42 43
ATOM     43  N   VAL P   7      77.975   2.144  59.921  1.00 69.26 LIG-0.34  N 
ATOM     44  C   LEU P   6      76.925   1.481  60.398  1.00 74.59 LIG 0.26  C 
ATOM     45 O    LEU P   6      76.171   0.820  59.680  1.00 73.78 LIG-0.27  OA
ATOM     46 H    VAL P   7      78.521   2.584  60.418  1.00 69.26 LIG 0.16  HD
BRANCH 44 47
ATOM     47  CA  LEU P   6      76.720   1.570  61.913  1.00 78.06 LIG 0.40  C 
ATOM     48  N   LEU P   6      77.420   2.727  62.458  1.00 74.40 LIG 0.61  N 
BRANCH 47 49
ATOM     49  CB  LEU P   6      75.229   1.630  62.271  1.00 78.52 LIG 0.06  C 
BRANCH 49 50
ATOM     50  CG  LEU P   6      74.531   0.443  62.943  1.00 77.43 LIG-0.02  C 
ATOM     51  CD2 LEU P   6      75.388  -0.817  62.925  1.00 73.93 LIG 0.01  C 
ATOM     52  CD1 LEU P   6      73.204   0.219  62.249  1.00 75.78 LIG 0.01  C 
ENDBRANCH 49 50
ENDBRANCH 47 49
ENDBRANCH 44 47
ENDBRANCH 42 43
BRANCH 42 53
ATOM     53  CB  VAL P   7      78.924   3.544  58.121  1.00 67.45 LIG 0.01  C 
ATOM     54  CG2 VAL P   7      79.955   3.959  59.154  1.00 67.18 LIG 0.01  C 
ATOM     55  CG1 VAL P   7      77.847   4.603  57.993  1.00 63.58 LIG 0.01  C 
ENDBRANCH 42 53
ENDBRANCH 39 42
ENDBRANCH 1 38
TORSDOF 20
ENDMDL
MODEL 44
USER: ADFR SOLUTION from run 44
USER: SCORE 17.889406 LL:  -4.633 LR: -15.470 RR:   0.000 FEB:  -9.504
USER: RMSD 5.596931
USER: SEED 43
USER: STATUS no improvement in best in 12 clusters for 5 generations
USER: GENES 22
USER: genes 0 Translation |==|  0.42063 0.44770 0.52362
USER: genes 1 Rotation |==|  0.32100 0.67973 0.43076 0.92528
USER: genes 2 Torsion [N]-CA--C-[N] |==|  0.25734
USER: genes 3 Torsion [C]-N--CA-[CB] |==|  0.38234
USER: genes 4 Torsion [N]-CA--CB-[CG] |==|  0.91928
USER: genes 5 Torsion [CA]-CB--CG-[CD] |==|  0.27341
USER: genes 6 Torsion [CB]-CG--CD-[OE1] |==|  0.57347
USER: genes 7 Torsion [N]-CA--C-[N] |==|  0.24347
USER: genes 8 Torsion [C]-N--CA-[C] |==|  0.60736
USER: genes 9 Torsion [N]-CA--C-[O] |==|  0.18320
USER: genes 10 Torsion [N]-CA--CB-[CG] |==|  0.64061
USER: genes 11 Torsion [CA]-CB--CG-[CD1] |==|  0.42291
USER: genes 12 Torsion [C]-CA--CB-[CG] |==|  0.17354
USER: genes 13 Torsion [CA]-CB--CG-[CD1] |==|  0.77472
USER: genes 14 Torsion [CE1]-CZ--OH-[HH] |==|  0.09873
USER: genes 15 Torsion [C]-CA--N-[C] |==|  0.73522
USER: genes 16 Torsion [N]-C--CA-[N] |==|  0.48889
USER: genes 17 Torsion [C]-CA--N-[C] |==|  0.80523
USER: genes 18 Torsion [N]-C--CA-[N] |==|  0.28999
USER: genes 19 Torsion [C]-CA--CB-[CG] |==|  0.51019
USER: genes 20 Torsion [CA]-CB--CG-[CD2] |==|  0.60971
USER: genes 21 Torsion [C]-CA--CB-[CG2] |==|  0.27620
ROOT
ATOM      1  CA  TYR P   8      80.763  -3.344  61.165  1.00 57.99 LIG 0.18  C 
ENDROOT
BRANCH 1 2
ATOM      2  C   TYR P   8      80.687  -1.961  60.534  1.00 56.68 LIG 0.24  C 
ATOM      3  N   GLN P   9      79.804  -1.805  59.553  1.00 57.67 LIG-0.35  N 
ATOM      4 H    GLN P   9      79.332  -2.446  59.228  1.00 57.67 LIG 0.16  HD
ATOM      5 O    TYR P   8      81.420  -1.052  60.937  1.00 54.26 LIG-0.27  OA
BRANCH 3 6
ATOM      6  CA  GLN P   9      79.561  -0.510  58.933  1.00 54.86 LIG 0.18  C 
BRANCH 6 7
ATOM      7  CB  GLN P   9      79.442  -0.640  57.417  1.00 52.41 LIG 0.04  C 
BRANCH 7 8
ATOM      8  CG  GLN P   9      80.240  -1.793  56.835  1.00 53.63 LIG 0.10  C 
BRANCH 8 9
ATOM      9  CD  GLN P   9      79.384  -3.014  56.585  1.00 56.56 LIG 0.21  C 
ATOM     10 OE1  GLN P   9      79.880  -4.140  56.588  1.00 59.67 LIG-0.27  OA
ATOM     11  NE2 GLN P   9      78.091  -2.800  56.365  1.00 58.55 LIG-0.37  N 
ATOM     12 22HE GLN P   9      77.564  -3.463  56.217  1.00 58.55 LIG 0.16  HD
ATOM     13 21HE GLN P   9      77.781  -1.998  56.371  1.00 58.55 LIG 0.16  HD
ENDBRANCH 8 9
ENDBRANCH 7 8
ENDBRANCH 6 7
BRANCH 6 14
ATOM     14  C   GLN P   9      78.289   0.087  59.523  1.00 54.72 LIG 0.24  C 
ATOM     15 O    GLN P   9      77.195  -0.115  58.983  1.00 59.60 LIG-0.27  OA
ATOM     16  N   PHE P  10      78.429   0.807  60.630  1.00 49.02 LIG-0.34  N 
ATOM     17 H    PHE P  10      79.174   0.917  61.046  1.00 49.02 LIG 0.16  HD
BRANCH 16 18
ATOM     18  CA  PHE P  10      77.289   1.482  61.234  1.00 50.33 LIG 0.19  C 
BRANCH 18 19
ATOM     19  C   PHE P  10      77.674   2.852  61.779  1.00 49.91 LIG 0.20  C 
ATOM     20 O    PHE P  10      78.023   3.752  61.013  1.00 45.93 LIG-0.65  OA
ATOM     21 OXT  PHE P  10      77.654   3.081  62.990  1.00 46.36 LIG-0.65  OA
ENDBRANCH 18 19
BRANCH 18 22
ATOM     22  CB  PHE P  10      76.671   0.621  62.340  1.00 51.88 LIG 0.07  C 
BRANCH 22 23
ATOM     23  CG  PHE P  10      75.181   0.439  62.224  1.00 51.17 LIG-0.06  A 
ATOM     24  CD1 PHE P  10      74.567  -0.694  62.733  1.00 49.53 LIG 0.01  A 
ATOM     25  CE1 PHE P  10      73.203  -0.870  62.615  1.00 54.45 LIG 0.00  A 
ATOM     26  CZ  PHE P  10      72.437   0.080  61.969  1.00 54.40 LIG 0.00  A 
ATOM     27  CE2 PHE P  10      73.035   1.208  61.452  1.00 52.97 LIG 0.00  A 
ATOM     28  CD2 PHE P  10      74.402   1.382  61.572  1.00 50.02 LIG 0.01  A 
ENDBRANCH 22 23
ENDBRANCH 18 22
ENDBRANCH 16 18
ENDBRANCH 6 14
ENDBRANCH 3 6
ENDBRANCH 1 2
BRANCH 1 29
ATOM     29  CB  TYR P   8      81.068  -3.222  62.657  1.00 54.61 LIG 0.07  C 
BRANCH 29 30
ATOM     30  CG  TYR P   8      80.014  -2.496  63.458  1.00 66.64 LIG-0.06  A 
ATOM     31  CD1 TYR P   8      79.971  -1.108  63.485  1.00 68.29 LIG 0.01  A 
ATOM     32  CE1 TYR P   8      79.014  -0.439  64.219  1.00 71.89 LIG 0.04  A 
ATOM     33  CZ  TYR P   8      78.086  -1.159  64.942  1.00 71.50 LIG 0.07  A 
ATOM     34  CE2 TYR P   8      78.110  -2.537  64.935  1.00 69.11 LIG 0.04  A 
ATOM     35  CD2 TYR P   8      79.072  -3.197  64.199  1.00 65.21 LIG 0.01  A 
BRANCH 33 36
ATOM     36 OH   TYR P   8      77.130  -0.496  65.676  1.00 83.55 LIG-0.36  OA
ATOM     37 HH   TYR P   8      76.898   0.201  65.268  1.00 83.55 LIG 0.22  HD
ENDBRANCH 33 36
ENDBRANCH 29 30
ENDBRANCH 1 29
BRANCH 1 38
ATOM     38  N   TYR P   8      81.790  -4.115  60.479  1.00 59.31 LIG-0.35  N 
ATOM     39  C   VAL P   7      81.520  -4.949  59.479  1.00 65.10 LIG 0.24  C 
ATOM     40 O    VAL P   7      80.367  -5.192  59.097  1.00 66.40 LIG-0.27  OA
ATOM     41 H    TYR P   8      82.585  -3.980  60.780  1.00 59.31 LIG 0.16  HD
BRANCH 39 42
ATOM     42  CA  VAL P   7      82.716  -5.613  58.811  1.00 68.90 LIG 0.18  C 
BRANCH 42 43
ATOM     43  N   VAL P   7      82.235  -6.557  57.812  1.00 69.26 LIG-0.34  N 
ATOM     44  C   LEU P   6      81.622  -7.694  58.129  1.00 74.59 LIG 0.26  C 
ATOM     45 O    LEU P   6      81.378  -8.017  59.294  1.00 73.78 LIG-0.27  OA
ATOM     46 H    VAL P   7      82.383  -6.311  57.001  1.00 69.26 LIG 0.16  HD
BRANCH 44 47
ATOM     47  CA  LEU P   6      81.212  -8.576  56.947  1.00 78.06 LIG 0.40  C 
ATOM     48  N   LEU P   6      82.113  -9.715  56.821  1.00 74.40 LIG 0.61  N 
BRANCH 47 49
ATOM     49  CB  LEU P   6      79.761  -9.056  57.086  1.00 78.52 LIG 0.06  C 
BRANCH 49 50
ATOM     50  CG  LEU P   6      79.148 -10.022  56.068  1.00 77.43 LIG-0.02  C 
ATOM     51  CD2 LEU P   6      77.700  -9.675  55.742  1.00 73.93 LIG 0.01  C 
ATOM     52  CD1 LEU P   6      79.269 -11.429  56.615  1.00 75.78 LIG 0.01  C 
ENDBRANCH 49 50
ENDBRANCH 47 49
ENDBRANCH 44 47
ENDBRANCH 42 43
BRANCH 42 53
ATOM     53  CB  VAL P   7      83.649  -4.565  58.179  1.00 67.45 LIG 0.01  C 
ATOM     54  CG2 VAL P   7      84.829  -4.292  59.094  1.00 67.18 LIG 0.01  C 
ATOM     55  CG1 VAL P   7      82.891  -3.283  57.896  1.00 63.58 LIG 0.01  C 
ENDBRANCH 42 53
ENDBRANCH 39 42
ENDBRANCH 1 38
TORSDOF 20
ENDMDL
MODEL 45
USER: ADFR SOLUTION from run 150
USER: SCORE 18.347135 LL:  -4.257 LR: -15.470 RR:   0.000 FEB:  -9.504
USER: RMSD 6.038295
USER: SEED 149
USER: STATUS searching
USER: GENES 22
USER: genes 0 Translation |==|  0.43870 0.57646 0.42962
USER: genes 1 Rotation |==|  0.81544 0.14171 0.58075 0.62493
USER: genes 2 Torsion [N]-CA--C-[N] |==|  0.33480
USER: genes 3 Torsion [C]-N--CA-[CB] |==|  0.24242
USER: genes 4 Torsion [N]-CA--CB-[CG] |==|  0.33263
USER: genes 5 Torsion [CA]-CB--CG-[CD] |==|  0.73222
USER: genes 6 Torsion [CB]-CG--CD-[OE1] |==|  0.57836
USER: genes 7 Torsion [N]-CA--C-[N] |==|  0.34387
USER: genes 8 Torsion [C]-N--CA-[C] |==|  0.61710
USER: genes 9 Torsion [N]-CA--C-[O] |==|  0.08484
USER: genes 10 Torsion [N]-CA--CB-[CG] |==|  0.79269
USER: genes 11 Torsion [CA]-CB--CG-[CD1] |==|  0.37954
USER: genes 12 Torsion [C]-CA--CB-[CG] |==|  0.55411
USER: genes 13 Torsion [CA]-CB--CG-[CD1] |==|  0.27676
USER: genes 14 Torsion [CE1]-CZ--OH-[HH] |==|  0.38725
USER: genes 15 Torsion [C]-CA--N-[C] |==|  0.84444
USER: genes 16 Torsion [N]-C--CA-[N] |==|  0.01499
USER: genes 17 Torsion [C]-CA--N-[C] |==|  0.67778
USER: genes 18 Torsion [N]-C--CA-[N] |==|  0.71456
USER: genes 19 Torsion [C]-CA--CB-[CG] |==|  0.37090
USER: genes 20 Torsion [CA]-CB--CG-[CD2] |==|  0.28644
USER: genes 21 Torsion [C]-CA--CB-[CG2] |==|  0.29299
ROOT
ATOM      1  CA  TYR P   8      81.170  -0.447  59.473  1.00 57.99 LIG 0.18  C 
ENDROOT
BRANCH 1 2
ATOM      2  C   TYR P   8      79.747  -0.079  59.078  1.00 56.68 LIG 0.24  C 
ATOM      3  N   GLN P   9      79.311   1.113  59.472  1.00 57.67 LIG-0.35  N 
ATOM      4 H    GLN P   9      79.763   1.645  59.975  1.00 57.67 LIG 0.16  HD
ATOM      5 O    TYR P   8      79.059  -0.870  58.423  1.00 54.26 LIG-0.27  OA
BRANCH 3 6
ATOM      6  CA  GLN P   9      78.007   1.627  59.076  1.00 54.86 LIG 0.18  C 
BRANCH 6 7
ATOM      7  CB  GLN P   9      76.919   1.169  60.044  1.00 52.41 LIG 0.04  C 
BRANCH 7 8
ATOM      8  CG  GLN P   9      76.194   2.310  60.735  1.00 53.63 LIG 0.10  C 
BRANCH 8 9
ATOM      9  CD  GLN P   9      76.763   2.605  62.105  1.00 56.56 LIG 0.21  C 
ATOM     10 OE1  GLN P   9      76.054   3.083  62.990  1.00 59.67 LIG-0.27  OA
ATOM     11  NE2 GLN P   9      78.048   2.321  62.289  1.00 58.55 LIG-0.37  N 
ATOM     12 22HE GLN P   9      78.417   2.472  63.052  1.00 58.55 LIG 0.16  HD
ATOM     13 21HE GLN P   9      78.511   1.988  61.646  1.00 58.55 LIG 0.16  HD
ENDBRANCH 8 9
ENDBRANCH 7 8
ENDBRANCH 6 7
BRANCH 6 14
ATOM     14  C   GLN P   9      78.073   3.148  59.022  1.00 54.72 LIG 0.24  C 
ATOM     15 O    GLN P   9      78.438   3.793  60.011  1.00 59.60 LIG-0.27  OA
ATOM     16  N   PHE P  10      77.734   3.716  57.870  1.00 49.02 LIG-0.34  N 
ATOM     17 H    PHE P  10      77.526   3.282  57.157  1.00 49.02 LIG 0.16  HD
BRANCH 16 18
ATOM     18  CA  PHE P  10      77.692   5.165  57.733  1.00 50.33 LIG 0.19  C 
BRANCH 18 19
ATOM     19  C   PHE P  10      76.469   5.618  56.945  1.00 49.91 LIG 0.20  C 
ATOM     20 O    PHE P  10      75.423   4.965  56.987  1.00 45.93 LIG-0.65  OA
ATOM     21 OXT  PHE P  10      76.505   6.633  56.246  1.00 46.36 LIG-0.65  OA
ENDBRANCH 18 19
BRANCH 18 22
ATOM     22  CB  PHE P  10      78.974   5.687  57.077  1.00 51.88 LIG 0.07  C 
BRANCH 22 23
ATOM     23  CG  PHE P  10      80.177   5.687  57.982  1.00 51.17 LIG-0.06  A 
ATOM     24  CD1 PHE P  10      81.408   5.253  57.519  1.00 49.53 LIG 0.01  A 
ATOM     25  CE1 PHE P  10      82.510   5.238  58.350  1.00 54.45 LIG 0.00  A 
ATOM     26  CZ  PHE P  10      82.389   5.644  59.665  1.00 54.40 LIG 0.00  A 
ATOM     27  CE2 PHE P  10      81.169   6.073  60.141  1.00 52.97 LIG 0.00  A 
ATOM     28  CD2 PHE P  10      80.068   6.086  59.305  1.00 50.02 LIG 0.01  A 
ENDBRANCH 22 23
ENDBRANCH 18 22
ENDBRANCH 16 18
ENDBRANCH 6 14
ENDBRANCH 3 6
ENDBRANCH 1 2
BRANCH 1 29
ATOM     29  CB  TYR P   8      82.027  -0.641  58.223  1.00 54.61 LIG 0.07  C 
BRANCH 29 30
ATOM     30  CG  TYR P   8      83.290  -1.437  58.444  1.00 66.64 LIG-0.06  A 
ATOM     31  CD1 TYR P   8      83.350  -2.785  58.110  1.00 68.29 LIG 0.01  A 
ATOM     32  CE1 TYR P   8      84.500  -3.518  58.315  1.00 71.89 LIG 0.04  A 
ATOM     33  CZ  TYR P   8      85.608  -2.907  58.864  1.00 71.50 LIG 0.07  A 
ATOM     34  CE2 TYR P   8      85.572  -1.573  59.207  1.00 69.11 LIG 0.04  A 
ATOM     35  CD2 TYR P   8      84.417  -0.848  59.000  1.00 65.21 LIG 0.01  A 
BRANCH 33 36
ATOM     36 OH   TYR P   8      86.756  -3.636  59.070  1.00 83.55 LIG-0.36  OA
ATOM     37 HH   TYR P   8      87.424  -3.170  58.864  1.00 83.55 LIG 0.22  HD
ENDBRANCH 33 36
ENDBRANCH 29 30
ENDBRANCH 1 29
BRANCH 1 38
ATOM     38  N   TYR P   8      81.133  -1.658  60.280  1.00 59.31 LIG-0.35  N 
ATOM     39  C   VAL P   7      80.412  -1.763  61.393  1.00 65.10 LIG 0.24  C 
ATOM     40 O    VAL P   7      79.770  -0.819  61.872  1.00 66.40 LIG-0.27  OA
ATOM     41 H    TYR P   8      81.619  -2.297  59.971  1.00 59.31 LIG 0.16  HD
BRANCH 39 42
ATOM     42  CA  VAL P   7      80.414  -3.126  62.072  1.00 68.90 LIG 0.18  C 
BRANCH 42 43
ATOM     43  N   VAL P   7      81.348  -3.999  61.374  1.00 69.26 LIG-0.34  N 
ATOM     44  C   LEU P   6      80.965  -5.098  60.731  1.00 74.59 LIG 0.26  C 
ATOM     45 O    LEU P   6      79.783  -5.442  60.642  1.00 73.78 LIG-0.27  OA
ATOM     46 H    VAL P   7      82.165  -3.738  61.416  1.00 69.26 LIG 0.16  HD
BRANCH 44 47
ATOM     47  CA  LEU P   6      82.089  -5.910  60.080  1.00 78.06 LIG 0.40  C 
ATOM     48  N   LEU P   6      82.122  -5.676  58.641  1.00 74.40 LIG 0.61  N 
BRANCH 47 49
ATOM     49  CB  LEU P   6      83.450  -5.579  60.707  1.00 78.52 LIG 0.06  C 
BRANCH 49 50
ATOM     50  CG  LEU P   6      84.422  -6.691  61.115  1.00 77.43 LIG-0.02  C 
ATOM     51  CD2 LEU P   6      85.564  -6.852  60.119  1.00 73.93 LIG 0.01  C 
ATOM     52  CD1 LEU P   6      83.636  -7.976  61.267  1.00 75.78 LIG 0.01  C 
ENDBRANCH 49 50
ENDBRANCH 47 49
ENDBRANCH 44 47
ENDBRANCH 42 43
BRANCH 42 53
ATOM     53  CB  VAL P   7      80.779  -3.003  63.561  1.00 67.45 LIG 0.01  C 
ATOM     54  CG2 VAL P   7      79.542  -3.183  64.422  1.00 67.18 LIG 0.01  C 
ATOM     55  CG1 VAL P   7      81.425  -1.660  63.839  1.00 63.58 LIG 0.01  C 
ENDBRANCH 42 53
ENDBRANCH 39 42
ENDBRANCH 1 38
TORSDOF 20
ENDMDL
MODEL 46
USER: ADFR SOLUTION from run 184
USER: SCORE 17.416533 LL:  -4.017 LR: -15.409 RR:   0.000 FEB:  -9.443
USER: RMSD 7.779142
USER: SEED 183
USER: STATUS no improvement in best in 8 clusters for 5 generations
USER: GENES 22
USER: genes 0 Translation |==|  0.28328 0.65659 0.55899
USER: genes 1 Rotation |==|  0.34619 0.70042 0.44133 0.92747
USER: genes 2 Torsion [N]-CA--C-[N] |==|  0.99008
USER: genes 3 Torsion [C]-N--CA-[CB] |==|  0.32188
USER: genes 4 Torsion [N]-CA--CB-[CG] |==|  0.21052
USER: genes 5 Torsion [CA]-CB--CG-[CD] |==|  0.51985
USER: genes 6 Torsion [CB]-CG--CD-[OE1] |==|  0.53773
USER: genes 7 Torsion [N]-CA--C-[N] |==|  0.39656
USER: genes 8 Torsion [C]-N--CA-[C] |==|  0.70990
USER: genes 9 Torsion [N]-CA--C-[O] |==|  0.38241
USER: genes 10 Torsion [N]-CA--CB-[CG] |==|  0.47248
USER: genes 11 Torsion [CA]-CB--CG-[CD1] |==|  0.69478
USER: genes 12 Torsion [C]-CA--CB-[CG] |==|  0.52199
USER: genes 13 Torsion [CA]-CB--CG-[CD1] |==|  0.73441
USER: genes 14 Torsion [CE1]-CZ--OH-[HH] |==|  0.31782
USER: genes 15 Torsion [C]-CA--N-[C] |==|  0.73029
USER: genes 16 Torsion [N]-C--CA-[N] |==|  0.24208
USER: genes 17 Torsion [C]-CA--N-[C] |==|  0.73889
USER: genes 18 Torsion [N]-C--CA-[N] |==|  0.78958
USER: genes 19 Torsion [C]-CA--CB-[CG] |==|  0.70546
USER: genes 20 Torsion [CA]-CB--CG-[CD2] |==|  0.75902
USER: genes 21 Torsion [C]-CA--CB-[CG2] |==|  0.59877
ROOT
ATOM      1  CA  TYR P   8      77.673   1.356  61.802  1.00 57.99 LIG 0.18  C 
ENDROOT
BRANCH 1 2
ATOM      2  C   TYR P   8      77.600   2.804  61.340  1.00 56.68 LIG 0.24  C 
ATOM      3  N   GLN P   9      78.427   3.157  60.361  1.00 57.67 LIG-0.35  N 
ATOM      4 H    GLN P   9      79.025   2.635  60.029  1.00 57.67 LIG 0.16  HD
ATOM      5 O    TYR P   8      76.801   3.586  61.866  1.00 54.26 LIG-0.27  OA
BRANCH 3 6
ATOM      6  CA  GLN P   9      78.389   4.483  59.760  1.00 54.86 LIG 0.18  C 
BRANCH 6 7
ATOM      7  CB  GLN P   9      79.688   5.242  60.020  1.00 52.41 LIG 0.04  C 
BRANCH 7 8
ATOM      8  CG  GLN P   9      80.852   4.779  59.162  1.00 53.63 LIG 0.10  C 
BRANCH 8 9
ATOM      9  CD  GLN P   9      82.156   5.429  59.566  1.00 56.56 LIG 0.21  C 
ATOM     10 OE1  GLN P   9      83.143   5.365  58.834  1.00 59.67 LIG-0.27  OA
ATOM     11  NE2 GLN P   9      82.170   6.060  60.736  1.00 58.55 LIG-0.37  N 
ATOM     12 22HE GLN P   9      82.889   6.445  61.009  1.00 58.55 LIG 0.16  HD
ATOM     13 21HE GLN P   9      81.460   6.084  61.220  1.00 58.55 LIG 0.16  HD
ENDBRANCH 8 9
ENDBRANCH 7 8
ENDBRANCH 6 7
BRANCH 6 14
ATOM     14  C   GLN P   9      78.143   4.338  58.263  1.00 54.72 LIG 0.24  C 
ATOM     15 O    GLN P   9      78.646   3.399  57.635  1.00 59.60 LIG-0.27  OA
ATOM     16  N   PHE P  10      77.364   5.254  57.699  1.00 49.02 LIG-0.34  N 
ATOM     17 H    PHE P  10      76.966   5.884  58.128  1.00 49.02 LIG 0.16  HD
BRANCH 16 18
ATOM     18  CA  PHE P  10      77.123   5.250  56.263  1.00 50.33 LIG 0.19  C 
BRANCH 18 19
ATOM     19  C   PHE P  10      77.914   6.347  55.560  1.00 49.91 LIG 0.20  C 
ATOM     20 O    PHE P  10      78.484   6.118  54.491  1.00 45.93 LIG-0.65  OA
ATOM     21 OXT  PHE P  10      78.006   7.475  56.050  1.00 46.36 LIG-0.65  OA
ENDBRANCH 18 19
BRANCH 18 22
ATOM     22  CB  PHE P  10      75.628   5.392  55.961  1.00 51.88 LIG 0.07  C 
BRANCH 22 23
ATOM     23  CG  PHE P  10      75.308   5.633  54.510  1.00 51.17 LIG-0.06  A 
ATOM     24  CD1 PHE P  10      74.833   6.864  54.088  1.00 49.53 LIG 0.01  A 
ATOM     25  CE1 PHE P  10      74.525   7.083  52.760  1.00 54.45 LIG 0.00  A 
ATOM     26  CZ  PHE P  10      74.672   6.065  51.840  1.00 54.40 LIG 0.00  A 
ATOM     27  CE2 PHE P  10      75.137   4.833  52.247  1.00 52.97 LIG 0.00  A 
ATOM     28  CD2 PHE P  10      75.445   4.618  53.577  1.00 50.02 LIG 0.01  A 
ENDBRANCH 22 23
ENDBRANCH 18 22
ENDBRANCH 16 18
ENDBRANCH 6 14
ENDBRANCH 3 6
ENDBRANCH 1 2
BRANCH 1 29
ATOM     29  CB  TYR P   8      78.080   1.296  63.273  1.00 54.61 LIG 0.07  C 
BRANCH 29 30
ATOM     30  CG  TYR P   8      78.368  -0.092  63.790  1.00 66.64 LIG-0.06  A 
ATOM     31  CD1 TYR P   8      77.387  -0.823  64.450  1.00 68.29 LIG 0.01  A 
ATOM     32  CE1 TYR P   8      77.645  -2.090  64.930  1.00 71.89 LIG 0.04  A 
ATOM     33  CZ  TYR P   8      78.898  -2.641  64.757  1.00 71.50 LIG 0.07  A 
ATOM     34  CE2 TYR P   8      79.889  -1.934  64.109  1.00 69.11 LIG 0.04  A 
ATOM     35  CD2 TYR P   8      79.621  -0.667  63.634  1.00 65.21 LIG 0.01  A 
BRANCH 33 36
ATOM     36 OH   TYR P   8      79.159  -3.904  65.234  1.00 83.55 LIG-0.36  OA
ATOM     37 HH   TYR P   8      79.309  -4.421  64.589  1.00 83.55 LIG 0.22  HD
ENDBRANCH 33 36
ENDBRANCH 29 30
ENDBRANCH 1 29
BRANCH 1 38
ATOM     38  N   TYR P   8      78.626   0.645  60.962  1.00 59.31 LIG-0.35  N 
ATOM     39  C   VAL P   7      78.259  -0.089  59.915  1.00 65.10 LIG 0.24  C 
ATOM     40 O    VAL P   7      77.075  -0.284  59.610  1.00 66.40 LIG-0.27  OA
ATOM     41 H    TYR P   8      79.445   0.744  61.206  1.00 59.31 LIG 0.16  HD
BRANCH 39 42
ATOM     42  CA  VAL P   7      79.385  -0.696  59.089  1.00 68.90 LIG 0.18  C 
BRANCH 42 43
ATOM     43  N   VAL P   7      79.757  -1.979  59.670  1.00 69.26 LIG-0.34  N 
ATOM     44  C   LEU P   6      80.746  -2.113  60.549  1.00 74.59 LIG 0.26  C 
ATOM     45 O    LEU P   6      81.398  -1.155  60.971  1.00 73.78 LIG-0.27  OA
ATOM     46 H    VAL P   7      79.280  -2.637  59.392  1.00 69.26 LIG 0.16  HD
BRANCH 44 47
ATOM     47  CA  LEU P   6      81.014  -3.542  61.030  1.00 78.06 LIG 0.40  C 
ATOM     48  N   LEU P   6      79.996  -3.961  61.986  1.00 74.40 LIG 0.61  N 
BRANCH 47 49
ATOM     49  CB  LEU P   6      81.076  -4.524  59.852  1.00 78.52 LIG 0.06  C 
BRANCH 49 50
ATOM     50  CG  LEU P   6      79.929  -5.501  59.578  1.00 77.43 LIG-0.02  C 
ATOM     51  CD2 LEU P   6      80.073  -6.797  60.367  1.00 73.93 LIG 0.01  C 
ATOM     52  CD1 LEU P   6      79.877  -5.765  58.088  1.00 75.78 LIG 0.01  C 
ENDBRANCH 49 50
ENDBRANCH 47 49
ENDBRANCH 44 47
ENDBRANCH 42 43
BRANCH 42 53
ATOM     53  CB  VAL P   7      78.969  -0.855  57.617  1.00 67.45 LIG 0.01  C 
ATOM     54  CG2 VAL P   7      79.577  -2.117  57.032  1.00 67.18 LIG 0.01  C 
ATOM     55  CG1 VAL P   7      79.392   0.358  56.812  1.00 63.58 LIG 0.01  C 
ENDBRANCH 42 53
ENDBRANCH 39 42
ENDBRANCH 1 38
TORSDOF 20
ENDMDL
MODEL 47
USER: ADFR SOLUTION from run 48
USER: SCORE 18.110114 LL:  -4.270 LR: -15.388 RR:   0.000 FEB:  -9.422
USER: RMSD 5.538974
USER: SEED 47
USER: STATUS no improvement in best in 9 clusters for 5 generations
USER: GENES 22
USER: genes 0 Translation |==|  0.42883 0.43779 0.52766
USER: genes 1 Rotation |==|  0.34485 0.66688 0.44246 0.94132
USER: genes 2 Torsion [N]-CA--C-[N] |==|  0.36050
USER: genes 3 Torsion [C]-N--CA-[CB] |==|  0.27139
USER: genes 4 Torsion [N]-CA--CB-[CG] |==|  0.07353
USER: genes 5 Torsion [CA]-CB--CG-[CD] |==|  0.32927
USER: genes 6 Torsion [CB]-CG--CD-[OE1] |==|  0.96438
USER: genes 7 Torsion [N]-CA--C-[N] |==|  0.28568
USER: genes 8 Torsion [C]-N--CA-[C] |==|  0.11070
USER: genes 9 Torsion [N]-CA--C-[O] |==|  0.68486
USER: genes 10 Torsion [N]-CA--CB-[CG] |==|  0.01676
USER: genes 11 Torsion [CA]-CB--CG-[CD1] |==|  0.75100
USER: genes 12 Torsion [C]-CA--CB-[CG] |==|  0.14809
USER: genes 13 Torsion [CA]-CB--CG-[CD1] |==|  0.61308
USER: genes 14 Torsion [CE1]-CZ--OH-[HH] |==|  0.91039
USER: genes 15 Torsion [C]-CA--N-[C] |==|  0.59490
USER: genes 16 Torsion [N]-C--CA-[N] |==|  0.43352
USER: genes 17 Torsion [C]-CA--N-[C] |==|  0.79462
USER: genes 18 Torsion [N]-C--CA-[N] |==|  0.64584
USER: genes 19 Torsion [C]-CA--CB-[CG] |==|  0.76366
USER: genes 20 Torsion [CA]-CB--CG-[CD2] |==|  0.66208
USER: genes 21 Torsion [C]-CA--CB-[CG2] |==|  0.21783
ROOT
ATOM      1  CA  TYR P   8      80.948  -3.567  61.238  1.00 57.99 LIG 0.18  C 
ENDROOT
BRANCH 1 2
ATOM      2  C   TYR P   8      80.860  -2.124  60.763  1.00 56.68 LIG 0.24  C 
ATOM      3  N   GLN P   9      79.660  -1.697  60.382  1.00 57.67 LIG-0.35  N 
ATOM      4 H    GLN P   9      78.965  -2.201  60.337  1.00 57.67 LIG 0.16  HD
ATOM      5 O    TYR P   8      81.870  -1.412  60.746  1.00 54.26 LIG-0.27  OA
BRANCH 3 6
ATOM      6  CA  GLN P   9      79.420  -0.311  60.002  1.00 54.86 LIG 0.18  C 
BRANCH 6 7
ATOM      7  CB  GLN P   9      79.460  -0.143  58.485  1.00 52.41 LIG 0.04  C 
BRANCH 7 8
ATOM      8  CG  GLN P   9      79.100  -1.404  57.718  1.00 53.63 LIG 0.10  C 
BRANCH 8 9
ATOM      9  CD  GLN P   9      77.871  -1.221  56.858  1.00 56.56 LIG 0.21  C 
ATOM     10 OE1  GLN P   9      77.144  -0.237  57.001  1.00 59.67 LIG-0.27  OA
ATOM     11  NE2 GLN P   9      77.628  -2.167  55.956  1.00 58.55 LIG-0.37  N 
ATOM     12 22HE GLN P   9      76.940  -2.106  55.444  1.00 58.55 LIG 0.16  HD
ATOM     13 21HE GLN P   9      78.159  -2.839  55.886  1.00 58.55 LIG 0.16  HD
ENDBRANCH 8 9
ENDBRANCH 7 8
ENDBRANCH 6 7
BRANCH 6 14
ATOM     14  C   GLN P   9      78.069   0.124  60.555  1.00 54.72 LIG 0.24  C 
ATOM     15 O    GLN P   9      77.022  -0.243  60.009  1.00 59.60 LIG-0.27  OA
ATOM     16  N   PHE P  10      78.091   0.890  61.640  1.00 49.02 LIG-0.34  N 
ATOM     17 H    PHE P  10      78.807   1.113  62.062  1.00 49.02 LIG 0.16  HD
BRANCH 16 18
ATOM     18  CA  PHE P  10      76.859   1.422  62.207  1.00 50.33 LIG 0.19  C 
BRANCH 18 19
ATOM     19  C   PHE P  10      75.735   0.394  62.166  1.00 49.91 LIG 0.20  C 
ATOM     20 O    PHE P  10      74.748   0.578  61.450  1.00 45.93 LIG-0.65  OA
ATOM     21 OXT  PHE P  10      75.786  -0.629  62.852  1.00 46.36 LIG-0.65  OA
ENDBRANCH 18 19
BRANCH 18 22
ATOM     22  CB  PHE P  10      76.438   2.705  61.485  1.00 51.88 LIG 0.07  C 
BRANCH 22 23
ATOM     23  CG  PHE P  10      77.282   3.048  60.287  1.00 51.17 LIG-0.06  A 
ATOM     24  CD1 PHE P  10      78.414   3.835  60.423  1.00 49.53 LIG 0.01  A 
ATOM     25  CE1 PHE P  10      79.182   4.163  59.323  1.00 54.45 LIG 0.00  A 
ATOM     26  CZ  PHE P  10      78.814   3.720  58.068  1.00 54.40 LIG 0.00  A 
ATOM     27  CE2 PHE P  10      77.687   2.942  57.917  1.00 52.97 LIG 0.00  A 
ATOM     28  CD2 PHE P  10      76.921   2.615  59.020  1.00 50.02 LIG 0.01  A 
ENDBRANCH 22 23
ENDBRANCH 18 22
ENDBRANCH 16 18
ENDBRANCH 6 14
ENDBRANCH 3 6
ENDBRANCH 1 2
BRANCH 1 29
ATOM     29  CB  TYR P   8      81.156  -3.608  62.751  1.00 54.61 LIG 0.07  C 
BRANCH 29 30
ATOM     30  CG  TYR P   8      80.143  -2.822  63.547  1.00 66.64 LIG-0.06  A 
ATOM     31  CD1 TYR P   8      80.532  -2.064  64.644  1.00 68.29 LIG 0.01  A 
ATOM     32  CE1 TYR P   8      79.610  -1.348  65.379  1.00 71.89 LIG 0.04  A 
ATOM     33  CZ  TYR P   8      78.278  -1.389  65.023  1.00 71.50 LIG 0.07  A 
ATOM     34  CE2 TYR P   8      77.866  -2.138  63.942  1.00 69.11 LIG 0.04  A 
ATOM     35  CD2 TYR P   8      78.796  -2.851  63.214  1.00 65.21 LIG 0.01  A 
BRANCH 33 36
ATOM     36 OH   TYR P   8      77.355  -0.678  65.754  1.00 83.55 LIG-0.36  OA
ATOM     37 HH   TYR P   8      77.599  -0.646  66.557  1.00 83.55 LIG 0.22  HD
ENDBRANCH 33 36
ENDBRANCH 29 30
ENDBRANCH 1 29
BRANCH 1 38
ATOM     38  N   TYR P   8      82.042  -4.224  60.537  1.00 59.31 LIG-0.35  N 
ATOM     39  C   VAL P   7      82.010  -5.508  60.190  1.00 65.10 LIG 0.24  C 
ATOM     40 O    VAL P   7      81.080  -6.266  60.496  1.00 66.40 LIG-0.27  OA
ATOM     41 H    TYR P   8      82.708  -3.706  60.370  1.00 59.31 LIG 0.16  HD
BRANCH 39 42
ATOM     42  CA  VAL P   7      83.198  -6.019  59.386  1.00 68.90 LIG 0.18  C 
BRANCH 42 43
ATOM     43  N   VAL P   7      83.309  -7.459  59.574  1.00 69.26 LIG-0.34  N 
ATOM     44  C   LEU P   6      83.760  -8.008  60.698  1.00 74.59 LIG 0.26  C 
ATOM     45 O    LEU P   6      84.080  -7.339  61.684  1.00 73.78 LIG-0.27  OA
ATOM     46 H    VAL P   7      83.057  -7.919  58.892  1.00 69.26 LIG 0.16  HD
BRANCH 44 47
ATOM     47  CA  LEU P   6      83.836  -9.537  60.704  1.00 78.06 LIG 0.40  C 
ATOM     48  N   LEU P   6      83.142 -10.080  61.865  1.00 74.40 LIG 0.61  N 
BRANCH 47 49
ATOM     49  CB  LEU P   6      83.259 -10.129  59.411  1.00 78.52 LIG 0.06  C 
BRANCH 49 50
ATOM     50  CG  LEU P   6      81.757 -10.387  59.263  1.00 77.43 LIG-0.02  C 
ATOM     51  CD2 LEU P   6      81.449 -11.849  58.964  1.00 73.93 LIG 0.01  C 
ATOM     52  CD1 LEU P   6      81.224  -9.477  58.176  1.00 75.78 LIG 0.01  C 
ENDBRANCH 49 50
ENDBRANCH 47 49
ENDBRANCH 44 47
ENDBRANCH 42 43
BRANCH 42 53
ATOM     53  CB  VAL P   7      83.051  -5.665  57.896  1.00 67.45 LIG 0.01  C 
ATOM     54  CG2 VAL P   7      83.420  -4.211  57.663  1.00 67.18 LIG 0.01  C 
ATOM     55  CG1 VAL P   7      81.636  -5.933  57.424  1.00 63.58 LIG 0.01  C 
ENDBRANCH 42 53
ENDBRANCH 39 42
ENDBRANCH 1 38
TORSDOF 20
ENDMDL
MODEL 48
USER: ADFR SOLUTION from run 76
USER: SCORE 18.440104 LL:  -5.286 LR: -15.382 RR:   0.000 FEB:  -9.416
USER: RMSD 9.354645
USER: SEED 75
USER: STATUS no improvement in best in 9 clusters for 5 generations
USER: GENES 22
USER: genes 0 Translation |==|  0.37670 0.60445 0.42570
USER: genes 1 Rotation |==|  0.24871 0.36653 0.09061 0.53795
USER: genes 2 Torsion [N]-CA--C-[N] |==|  0.39203
USER: genes 3 Torsion [C]-N--CA-[CB] |==|  0.40119
USER: genes 4 Torsion [N]-CA--CB-[CG] |==|  0.03494
USER: genes 5 Torsion [CA]-CB--CG-[CD] |==|  0.31288
USER: genes 6 Torsion [CB]-CG--CD-[OE1] |==|  0.19095
USER: genes 7 Torsion [N]-CA--C-[N] |==|  0.24346
USER: genes 8 Torsion [C]-N--CA-[C] |==|  0.70134
USER: genes 9 Torsion [N]-CA--C-[O] |==|  0.67743
USER: genes 10 Torsion [N]-CA--CB-[CG] |==|  0.82638
USER: genes 11 Torsion [CA]-CB--CG-[CD1] |==|  0.97679
USER: genes 12 Torsion [C]-CA--CB-[CG] |==|  0.48974
USER: genes 13 Torsion [CA]-CB--CG-[CD1] |==|  0.87686
USER: genes 14 Torsion [CE1]-CZ--OH-[HH] |==|  0.42148
USER: genes 15 Torsion [C]-CA--N-[C] |==|  0.65838
USER: genes 16 Torsion [N]-C--CA-[N] |==|  0.91709
USER: genes 17 Torsion [C]-CA--N-[C] |==|  0.65673
USER: genes 18 Torsion [N]-C--CA-[N] |==|  0.37947
USER: genes 19 Torsion [C]-CA--CB-[CG] |==|  0.13736
USER: genes 20 Torsion [CA]-CB--CG-[CD2] |==|  0.74542
USER: genes 21 Torsion [C]-CA--CB-[CG2] |==|  0.30359
ROOT
ATOM      1  CA  TYR P   8      79.775   0.183  59.403  1.00 57.99 LIG 0.18  C 
ENDROOT
BRANCH 1 2
ATOM      2  C   TYR P   8      80.802  -0.904  59.682  1.00 56.68 LIG 0.24  C 
ATOM      3  N   GLN P   9      80.979  -1.812  58.727  1.00 57.67 LIG-0.35  N 
ATOM      4 H    GLN P   9      80.510  -1.846  58.007  1.00 57.67 LIG 0.16  HD
ATOM      5 O    TYR P   8      81.424  -0.914  60.749  1.00 54.26 LIG-0.27  OA
BRANCH 3 6
ATOM      6  CA  GLN P   9      82.000  -2.846  58.826  1.00 54.86 LIG 0.18  C 
BRANCH 6 7
ATOM      7  CB  GLN P   9      81.517  -4.156  58.210  1.00 52.41 LIG 0.04  C 
BRANCH 7 8
ATOM      8  CG  GLN P   9      80.250  -4.016  57.385  1.00 53.63 LIG 0.10  C 
BRANCH 8 9
ATOM      9  CD  GLN P   9      80.494  -4.258  55.913  1.00 56.56 LIG 0.21  C 
ATOM     10 OE1  GLN P   9      80.779  -5.382  55.499  1.00 59.67 LIG-0.27  OA
ATOM     11  NE2 GLN P   9      80.385  -3.204  55.110  1.00 58.55 LIG-0.37  N 
ATOM     12 22HE GLN P   9      80.516  -3.292  54.264  1.00 58.55 LIG 0.16  HD
ATOM     13 21HE GLN P   9      80.185  -2.435  55.436  1.00 58.55 LIG 0.16  HD
ENDBRANCH 8 9
ENDBRANCH 7 8
ENDBRANCH 6 7
BRANCH 6 14
ATOM     14  C   GLN P   9      83.264  -2.357  58.128  1.00 54.72 LIG 0.24  C 
ATOM     15 O    GLN P   9      83.455  -2.610  56.933  1.00 59.60 LIG-0.27  OA
ATOM     16  N   PHE P  10      84.114  -1.652  58.865  1.00 49.02 LIG-0.34  N 
ATOM     17 H    PHE P  10      83.974  -1.425  59.683  1.00 49.02 LIG 0.16  HD
BRANCH 16 18
ATOM     18  CA  PHE P  10      85.385  -1.200  58.317  1.00 50.33 LIG 0.19  C 
BRANCH 18 19
ATOM     19  C   PHE P  10      86.555  -1.985  58.896  1.00 49.91 LIG 0.20  C 
ATOM     20 O    PHE P  10      87.410  -1.417  59.580  1.00 45.93 LIG-0.65  OA
ATOM     21 OXT  PHE P  10      86.675  -3.193  58.685  1.00 46.36 LIG-0.65  OA
ENDBRANCH 18 19
BRANCH 18 22
ATOM     22  CB  PHE P  10      85.577   0.300  58.554  1.00 51.88 LIG 0.07  C 
BRANCH 22 23
ATOM     23  CG  PHE P  10      84.551   1.172  57.881  1.00 51.17 LIG-0.06  A 
ATOM     24  CD1 PHE P  10      83.644   0.630  56.984  1.00 49.53 LIG 0.01  A 
ATOM     25  CE1 PHE P  10      82.711   1.429  56.354  1.00 54.45 LIG 0.00  A 
ATOM     26  CZ  PHE P  10      82.686   2.788  56.602  1.00 54.40 LIG 0.00  A 
ATOM     27  CE2 PHE P  10      83.587   3.341  57.486  1.00 52.97 LIG 0.00  A 
ATOM     28  CD2 PHE P  10      84.519   2.537  58.115  1.00 50.02 LIG 0.01  A 
ENDBRANCH 22 23
ENDBRANCH 18 22
ENDBRANCH 16 18
ENDBRANCH 6 14
ENDBRANCH 3 6
ENDBRANCH 1 2
BRANCH 1 29
ATOM     29  CB  TYR P   8      80.470   1.438  58.876  1.00 54.61 LIG 0.07  C 
BRANCH 29 30
ATOM     30  CG  TYR P   8      79.537   2.556  58.481  1.00 66.64 LIG-0.06  A 
ATOM     31  CD1 TYR P   8      78.390   2.298  57.741  1.00 68.29 LIG 0.01  A 
ATOM     32  CE1 TYR P   8      77.536   3.316  57.373  1.00 71.89 LIG 0.04  A 
ATOM     33  CZ  TYR P   8      77.826   4.613  57.740  1.00 71.50 LIG 0.07  A 
ATOM     34  CE2 TYR P   8      78.960   4.896  58.471  1.00 69.11 LIG 0.04  A 
ATOM     35  CD2 TYR P   8      79.809   3.871  58.834  1.00 65.21 LIG 0.01  A 
BRANCH 33 36
ATOM     36 OH   TYR P   8      76.977   5.631  57.374  1.00 83.55 LIG-0.36  OA
ATOM     37 HH   TYR P   8      77.026   6.253  57.937  1.00 83.55 LIG 0.22  HD
ENDBRANCH 33 36
ENDBRANCH 29 30
ENDBRANCH 1 29
BRANCH 1 38
ATOM     38  N   TYR P   8      79.044   0.462  60.631  1.00 59.31 LIG-0.35  N 
ATOM     39  C   VAL P   7      77.720   0.365  60.721  1.00 65.10 LIG 0.24  C 
ATOM     40 O    VAL P   7      76.996   0.099  59.753  1.00 66.40 LIG-0.27  OA
ATOM     41 H    TYR P   8      79.546   0.695  61.289  1.00 59.31 LIG 0.16  HD
BRANCH 39 42
ATOM     42  CA  VAL P   7      77.119   0.606  62.099  1.00 68.90 LIG 0.18  C 
BRANCH 42 43
ATOM     43  N   VAL P   7      78.085   0.202  63.112  1.00 69.26 LIG-0.34  N 
ATOM     44  C   LEU P   6      77.811  -0.696  64.053  1.00 74.59 LIG 0.26  C 
ATOM     45 O    LEU P   6      76.730  -1.287  64.117  1.00 73.78 LIG-0.27  OA
ATOM     46 H    VAL P   7      78.846   0.598  63.044  1.00 69.26 LIG 0.16  HD
BRANCH 44 47
ATOM     47  CA  LEU P   6      78.939  -0.974  65.051  1.00 78.06 LIG 0.40  C 
ATOM     48  N   LEU P   6      78.415  -1.042  66.410  1.00 74.40 LIG 0.61  N 
BRANCH 47 49
ATOM     49  CB  LEU P   6      79.688  -2.266  64.702  1.00 78.52 LIG 0.06  C 
BRANCH 49 50
ATOM     50  CG  LEU P   6      80.193  -2.526  63.279  1.00 77.43 LIG-0.02  C 
ATOM     51  CD2 LEU P   6      79.174  -3.281  62.433  1.00 73.93 LIG 0.01  C 
ATOM     52  CD1 LEU P   6      81.502  -3.279  63.370  1.00 75.78 LIG 0.01  C 
ENDBRANCH 49 50
ENDBRANCH 47 49
ENDBRANCH 44 47
ENDBRANCH 42 43
BRANCH 42 53
ATOM     53  CB  VAL P   7      76.713   2.079  62.277  1.00 67.45 LIG 0.01  C 
ATOM     54  CG2 VAL P   7      75.201   2.210  62.289  1.00 67.18 LIG 0.01  C 
ATOM     55  CG1 VAL P   7      77.309   2.930  61.173  1.00 63.58 LIG 0.01  C 
ENDBRANCH 42 53
ENDBRANCH 39 42
ENDBRANCH 1 38
TORSDOF 20
ENDMDL
MODEL 49
USER: ADFR SOLUTION from run 141
USER: SCORE 18.944745 LL:  -4.932 LR: -15.344 RR:   0.000 FEB:  -9.378
USER: RMSD 4.764970
USER: SEED 140
USER: STATUS no improvement in best in 7 clusters for 5 generations
USER: GENES 22
USER: genes 0 Translation |==|  0.44179 0.53590 0.44823
USER: genes 1 Rotation |==|  0.17302 0.86665 0.56649 0.56505
USER: genes 2 Torsion [N]-CA--C-[N] |==|  0.62056
USER: genes 3 Torsion [C]-N--CA-[CB] |==|  0.78042
USER: genes 4 Torsion [N]-CA--CB-[CG] |==|  0.04395
USER: genes 5 Torsion [CA]-CB--CG-[CD] |==|  0.41048
USER: genes 6 Torsion [CB]-CG--CD-[OE1] |==|  0.08818
USER: genes 7 Torsion [N]-CA--C-[N] |==|  0.16243
USER: genes 8 Torsion [C]-N--CA-[C] |==|  0.76190
USER: genes 9 Torsion [N]-CA--C-[O] |==|  0.92818
USER: genes 10 Torsion [N]-CA--CB-[CG] |==|  0.81266
USER: genes 11 Torsion [CA]-CB--CG-[CD1] |==|  0.23292
USER: genes 12 Torsion [C]-CA--CB-[CG] |==|  0.54408
USER: genes 13 Torsion [CA]-CB--CG-[CD1] |==|  0.15116
USER: genes 14 Torsion [CE1]-CZ--OH-[HH] |==|  0.03759
USER: genes 15 Torsion [C]-CA--N-[C] |==|  0.70209
USER: genes 16 Torsion [N]-C--CA-[N] |==|  0.04984
USER: genes 17 Torsion [C]-CA--N-[C] |==|  0.75545
USER: genes 18 Torsion [N]-C--CA-[N] |==|  0.67080
USER: genes 19 Torsion [C]-CA--CB-[CG] |==|  0.34378
USER: genes 20 Torsion [CA]-CB--CG-[CD2] |==|  0.98702
USER: genes 21 Torsion [C]-CA--CB-[CG2] |==|  0.80456
ROOT
ATOM      1  CA  TYR P   8      81.239  -1.359  59.808  1.00 57.99 LIG 0.18  C 
ENDROOT
BRANCH 1 2
ATOM      2  C   TYR P   8      79.876  -0.697  59.674  1.00 56.68 LIG 0.24  C 
ATOM      3  N   GLN P   9      79.867   0.561  59.244  1.00 57.67 LIG-0.35  N 
ATOM      4 H    GLN P   9      80.579   1.022  59.101  1.00 57.67 LIG 0.16  HD
ATOM      5 O    TYR P   8      78.849  -1.324  59.955  1.00 54.26 LIG-0.27  OA
BRANCH 3 6
ATOM      6  CA  GLN P   9      78.627   1.276  58.977  1.00 54.86 LIG 0.18  C 
BRANCH 6 7
ATOM      7  CB  GLN P   9      78.043   0.875  57.624  1.00 52.41 LIG 0.04  C 
BRANCH 7 8
ATOM      8  CG  GLN P   9      78.634  -0.402  57.054  1.00 53.63 LIG 0.10  C 
BRANCH 8 9
ATOM      9  CD  GLN P   9      77.632  -1.183  56.235  1.00 56.56 LIG 0.21  C 
ATOM     10 OE1  GLN P   9      76.749  -0.603  55.603  1.00 59.67 LIG-0.27  OA
ATOM     11  NE2 GLN P   9      77.760  -2.506  56.240  1.00 58.55 LIG-0.37  N 
ATOM     12 22HE GLN P   9      77.212  -2.993  55.789  1.00 58.55 LIG 0.16  HD
ATOM     13 21HE GLN P   9      78.389  -2.875  56.694  1.00 58.55 LIG 0.16  HD
ENDBRANCH 8 9
ENDBRANCH 7 8
ENDBRANCH 6 7
BRANCH 6 14
ATOM     14  C   GLN P   9      77.638   0.982  60.097  1.00 54.72 LIG 0.24  C 
ATOM     15 O    GLN P   9      76.545   0.461  59.846  1.00 59.60 LIG-0.27  OA
ATOM     16  N   PHE P  10      78.022   1.303  61.327  1.00 49.02 LIG-0.34  N 
ATOM     17 H    PHE P  10      78.797   1.620  61.526  1.00 49.02 LIG 0.16  HD
BRANCH 16 18
ATOM     18  CA  PHE P  10      77.125   1.133  62.462  1.00 50.33 LIG 0.19  C 
BRANCH 18 19
ATOM     19  C   PHE P  10      76.216   2.343  62.643  1.00 49.91 LIG 0.20  C 
ATOM     20 O    PHE P  10      76.568   3.453  62.240  1.00 45.93 LIG-0.65  OA
ATOM     21 OXT  PHE P  10      75.123   2.236  63.203  1.00 46.36 LIG-0.65  OA
ENDBRANCH 18 19
BRANCH 18 22
ATOM     22  CB  PHE P  10      77.915   0.860  63.744  1.00 51.88 LIG 0.07  C 
BRANCH 22 23
ATOM     23  CG  PHE P  10      78.631  -0.464  63.762  1.00 51.17 LIG-0.06  A 
ATOM     24  CD1 PHE P  10      79.877  -0.601  63.173  1.00 49.53 LIG 0.01  A 
ATOM     25  CE1 PHE P  10      80.529  -1.818  63.176  1.00 54.45 LIG 0.00  A 
ATOM     26  CZ  PHE P  10      79.931  -2.920  63.755  1.00 54.40 LIG 0.00  A 
ATOM     27  CE2 PHE P  10      78.689  -2.800  64.339  1.00 52.97 LIG 0.00  A 
ATOM     28  CD2 PHE P  10      78.040  -1.580  64.335  1.00 50.02 LIG 0.01  A 
ENDBRANCH 22 23
ENDBRANCH 18 22
ENDBRANCH 16 18
ENDBRANCH 6 14
ENDBRANCH 3 6
ENDBRANCH 1 2
BRANCH 1 29
ATOM     29  CB  TYR P   8      82.296  -0.536  59.073  1.00 54.61 LIG 0.07  C 
BRANCH 29 30
ATOM     30  CG  TYR P   8      83.592  -1.264  58.813  1.00 66.64 LIG-0.06  A 
ATOM     31  CD1 TYR P   8      83.602  -2.487  58.153  1.00 68.29 LIG 0.01  A 
ATOM     32  CE1 TYR P   8      84.783  -3.159  57.917  1.00 71.89 LIG 0.04  A 
ATOM     33  CZ  TYR P   8      85.974  -2.613  58.347  1.00 71.50 LIG 0.07  A 
ATOM     34  CE2 TYR P   8      85.990  -1.404  59.008  1.00 69.11 LIG 0.04  A 
ATOM     35  CD2 TYR P   8      84.804  -0.739  59.240  1.00 65.21 LIG 0.01  A 
BRANCH 33 36
ATOM     36 OH   TYR P   8      87.153  -3.281  58.115  1.00 83.55 LIG-0.36  OA
ATOM     37 HH   TYR P   8      87.023  -3.893  57.555  1.00 83.55 LIG 0.22  HD
ENDBRANCH 33 36
ENDBRANCH 29 30
ENDBRANCH 1 29
BRANCH 1 38
ATOM     38  N   TYR P   8      81.158  -2.711  59.272  1.00 59.31 LIG-0.35  N 
ATOM     39  C   VAL P   7      81.164  -3.795  60.043  1.00 65.10 LIG 0.24  C 
ATOM     40 O    VAL P   7      81.311  -3.748  61.271  1.00 66.40 LIG-0.27  OA
ATOM     41 H    TYR P   8      81.105  -2.742  58.414  1.00 59.31 LIG 0.16  HD
BRANCH 39 42
ATOM     42  CA  VAL P   7      80.983  -5.129  59.332  1.00 68.90 LIG 0.18  C 
BRANCH 42 43
ATOM     43  N   VAL P   7      81.264  -4.949  57.913  1.00 69.26 LIG-0.34  N 
ATOM     44  C   LEU P   6      80.337  -4.581  57.035  1.00 74.59 LIG 0.26  C 
ATOM     45 O    LEU P   6      79.175  -4.324  57.360  1.00 73.78 LIG-0.27  OA
ATOM     46 H    VAL P   7      82.083  -5.103  57.699  1.00 69.26 LIG 0.16  HD
BRANCH 44 47
ATOM     47  CA  LEU P   6      80.808  -4.471  55.582  1.00 78.06 LIG 0.40  C 
ATOM     48  N   LEU P   6      80.652  -3.106  55.094  1.00 74.40 LIG 0.61  N 
BRANCH 47 49
ATOM     49  CB  LEU P   6      82.265  -4.929  55.432  1.00 78.52 LIG 0.06  C 
BRANCH 49 50
ATOM     50  CG  LEU P   6      82.645  -6.044  54.452  1.00 77.43 LIG-0.02  C 
ATOM     51  CD2 LEU P   6      81.424  -6.667  53.785  1.00 73.93 LIG 0.01  C 
ATOM     52  CD1 LEU P   6      83.453  -7.080  55.203  1.00 75.78 LIG 0.01  C 
ENDBRANCH 49 50
ENDBRANCH 47 49
ENDBRANCH 44 47
ENDBRANCH 42 43
BRANCH 42 53
ATOM     53  CB  VAL P   7      81.891  -6.210  59.943  1.00 67.45 LIG 0.01  C 
ATOM     54  CG2 VAL P   7      83.344  -5.931  59.602  1.00 67.18 LIG 0.01  C 
ATOM     55  CG1 VAL P   7      81.486  -7.584  59.447  1.00 63.58 LIG 0.01  C 
ENDBRANCH 42 53
ENDBRANCH 39 42
ENDBRANCH 1 38
TORSDOF 20
ENDMDL
MODEL 50
USER: ADFR SOLUTION from run 79
USER: SCORE 18.569207 LL:  -4.114 LR: -15.332 RR:   0.000 FEB:  -9.366
USER: RMSD 5.135681
USER: SEED 78
USER: STATUS no improvement in best in 8 clusters for 5 generations
USER: GENES 22
USER: genes 0 Translation |==|  0.40622 0.46963 0.49610
USER: genes 1 Rotation |==|  0.45786 0.57632 0.56372 0.98820
USER: genes 2 Torsion [N]-CA--C-[N] |==|  0.46446
USER: genes 3 Torsion [C]-N--CA-[CB] |==|  0.88254
USER: genes 4 Torsion [N]-CA--CB-[CG] |==|  0.56991
USER: genes 5 Torsion [CA]-CB--CG-[CD] |==|  0.81335
USER: genes 6 Torsion [CB]-CG--CD-[OE1] |==|  0.38528
USER: genes 7 Torsion [N]-CA--C-[N] |==|  0.83647
USER: genes 8 Torsion [C]-N--CA-[C] |==|  0.81512
USER: genes 9 Torsion [N]-CA--C-[O] |==|  0.61888
USER: genes 10 Torsion [N]-CA--CB-[CG] |==|  0.76842
USER: genes 11 Torsion [CA]-CB--CG-[CD1] |==|  0.46350
USER: genes 12 Torsion [C]-CA--CB-[CG] |==|  0.96475
USER: genes 13 Torsion [CA]-CB--CG-[CD1] |==|  0.79071
USER: genes 14 Torsion [CE1]-CZ--OH-[HH] |==|  0.86032
USER: genes 15 Torsion [C]-CA--N-[C] |==|  0.61902
USER: genes 16 Torsion [N]-C--CA-[N] |==|  0.41524
USER: genes 17 Torsion [C]-CA--N-[C] |==|  0.58482
USER: genes 18 Torsion [N]-C--CA-[N] |==|  0.30553
USER: genes 19 Torsion [C]-CA--CB-[CG] |==|  0.24919
USER: genes 20 Torsion [CA]-CB--CG-[CD2] |==|  0.90139
USER: genes 21 Torsion [C]-CA--CB-[CG2] |==|  0.36156
ROOT
ATOM      1  CA  TYR P   8      80.439  -2.850  60.670  1.00 57.99 LIG 0.18  C 
ENDROOT
BRANCH 1 2
ATOM      2  C   TYR P   8      79.764  -1.515  60.946  1.00 56.68 LIG 0.24  C 
ATOM      3  N   GLN P   9      78.445  -1.540  61.111  1.00 57.67 LIG-0.35  N 
ATOM      4 H    GLN P   9      77.964  -2.247  61.014  1.00 57.67 LIG 0.16  HD
ATOM      5 O    TYR P   8      80.435  -0.479  61.007  1.00 54.26 LIG-0.27  OA
BRANCH 3 6
ATOM      6  CA  GLN P   9      77.691  -0.349  61.480  1.00 54.86 LIG 0.18  C 
BRANCH 6 7
ATOM      7  CB  GLN P   9      78.420   0.451  62.557  1.00 52.41 LIG 0.04  C 
BRANCH 7 8
ATOM      8  CG  GLN P   9      77.503   1.312  63.407  1.00 53.63 LIG 0.10  C 
BRANCH 8 9
ATOM      9  CD  GLN P   9      76.880   2.440  62.616  1.00 56.56 LIG 0.21  C 
ATOM     10 OE1  GLN P   9      75.697   2.741  62.776  1.00 59.67 LIG-0.27  OA
ATOM     11  NE2 GLN P   9      77.672   3.073  61.757  1.00 58.55 LIG-0.37  N 
ATOM     12 22HE GLN P   9      77.363   3.722  61.284  1.00 58.55 LIG 0.16  HD
ATOM     13 21HE GLN P   9      78.493   2.834  61.673  1.00 58.55 LIG 0.16  HD
ENDBRANCH 8 9
ENDBRANCH 7 8
ENDBRANCH 6 7
BRANCH 6 14
ATOM     14  C   GLN P   9      77.474   0.501  60.234  1.00 54.72 LIG 0.24  C 
ATOM     15 O    GLN P   9      76.329   0.787  59.865  1.00 59.60 LIG-0.27  OA
ATOM     16  N   PHE P  10      78.565   0.912  59.598  1.00 49.02 LIG-0.34  N 
ATOM     17 H    PHE P  10      79.369   0.764  59.868  1.00 49.02 LIG 0.16  HD
BRANCH 16 18
ATOM     18  CA  PHE P  10      78.469   1.667  58.357  1.00 50.33 LIG 0.19  C 
BRANCH 18 19
ATOM     19  C   PHE P  10      77.894   0.820  57.229  1.00 49.91 LIG 0.20  C 
ATOM     20 O    PHE P  10      78.386   0.867  56.099  1.00 45.93 LIG-0.65  OA
ATOM     21 OXT  PHE P  10      76.924   0.083  57.421  1.00 46.36 LIG-0.65  OA
ENDBRANCH 18 19
BRANCH 18 22
ATOM     22  CB  PHE P  10      79.836   2.232  57.958  1.00 51.88 LIG 0.07  C 
BRANCH 22 23
ATOM     23  CG  PHE P  10      80.193   3.529  58.635  1.00 51.17 LIG-0.06  A 
ATOM     24  CD1 PHE P  10      81.488   4.016  58.586  1.00 49.53 LIG 0.01  A 
ATOM     25  CE1 PHE P  10      81.821   5.198  59.218  1.00 54.45 LIG 0.00  A 
ATOM     26  CZ  PHE P  10      80.862   5.898  59.923  1.00 54.40 LIG 0.00  A 
ATOM     27  CE2 PHE P  10      79.571   5.421  59.985  1.00 52.97 LIG 0.00  A 
ATOM     28  CD2 PHE P  10      79.241   4.238  59.351  1.00 50.02 LIG 0.01  A 
ENDBRANCH 22 23
ENDBRANCH 18 22
ENDBRANCH 16 18
ENDBRANCH 6 14
ENDBRANCH 3 6
ENDBRANCH 1 2
BRANCH 1 29
ATOM     29  CB  TYR P   8      80.423  -3.715  61.930  1.00 54.61 LIG 0.07  C 
BRANCH 29 30
ATOM     30  CG  TYR P   8      80.044  -2.979  63.192  1.00 66.64 LIG-0.06  A 
ATOM     31  CD1 TYR P   8      80.945  -2.126  63.816  1.00 68.29 LIG 0.01  A 
ATOM     32  CE1 TYR P   8      80.607  -1.455  64.973  1.00 71.89 LIG 0.04  A 
ATOM     33  CZ  TYR P   8      79.356  -1.638  65.524  1.00 71.50 LIG 0.07  A 
ATOM     34  CE2 TYR P   8      78.446  -2.483  64.926  1.00 69.11 LIG 0.04  A 
ATOM     35  CD2 TYR P   8      78.794  -3.150  63.770  1.00 65.21 LIG 0.01  A 
BRANCH 33 36
ATOM     36 OH   TYR P   8      79.015  -0.972  66.678  1.00 83.55 LIG-0.36  OA
ATOM     37 HH   TYR P   8      79.616  -1.084  67.253  1.00 83.55 LIG 0.22  HD
ENDBRANCH 33 36
ENDBRANCH 29 30
ENDBRANCH 1 29
BRANCH 1 38
ATOM     38  N   TYR P   8      81.801  -2.601  60.219  1.00 59.31 LIG-0.35  N 
ATOM     39  C   VAL P   7      82.358  -3.258  59.205  1.00 65.10 LIG 0.24  C 
ATOM     40 O    VAL P   7      81.790  -4.183  58.608  1.00 66.40 LIG-0.27  OA
ATOM     41 H    TYR P   8      82.210  -1.992  60.668  1.00 59.31 LIG 0.16  HD
BRANCH 39 42
ATOM     42  CA  VAL P   7      83.759  -2.818  58.804  1.00 68.90 LIG 0.18  C 
BRANCH 42 43
ATOM     43  N   VAL P   7      84.481  -3.967  58.274  1.00 69.26 LIG-0.34  N 
ATOM     44  C   LEU P   6      85.799  -4.104  58.384  1.00 74.59 LIG 0.26  C 
ATOM     45 O    LEU P   6      86.507  -3.288  58.979  1.00 73.78 LIG-0.27  OA
ATOM     46 H    VAL P   7      83.977  -4.545  57.886  1.00 69.26 LIG 0.16  HD
BRANCH 44 47
ATOM     47  CA  LEU P   6      86.389  -5.363  57.742  1.00 78.06 LIG 0.40  C 
ATOM     48  N   LEU P   6      87.172  -5.016  56.562  1.00 74.40 LIG 0.61  N 
BRANCH 47 49
ATOM     49  CB  LEU P   6      87.248  -6.149  58.741  1.00 78.52 LIG 0.06  C 
BRANCH 49 50
ATOM     50  CG  LEU P   6      86.631  -7.234  59.629  1.00 77.43 LIG-0.02  C 
ATOM     51  CD2 LEU P   6      85.214  -6.884  60.068  1.00 73.93 LIG 0.01  C 
ATOM     52  CD1 LEU P   6      87.541  -7.446  60.820  1.00 75.78 LIG 0.01  C 
ENDBRANCH 49 50
ENDBRANCH 47 49
ENDBRANCH 44 47
ENDBRANCH 42 43
BRANCH 42 53
ATOM     53  CB  VAL P   7      83.706  -1.675  57.775  1.00 67.45 LIG 0.01  C 
ATOM     54  CG2 VAL P   7      84.609  -0.535  58.210  1.00 67.18 LIG 0.01  C 
ATOM     55  CG1 VAL P   7      82.283  -1.184  57.600  1.00 63.58 LIG 0.01  C 
ENDBRANCH 42 53
ENDBRANCH 39 42
ENDBRANCH 1 38
TORSDOF 20
ENDMDL
MODEL 51
USER: ADFR SOLUTION from run 104
USER: SCORE 18.551892 LL:  -5.082 LR: -15.317 RR:   0.000 FEB:  -9.351
USER: RMSD 8.061350
USER: SEED 103
USER: STATUS no improvement in best in 9 clusters for 5 generations
USER: GENES 22
USER: genes 0 Translation |==|  0.40102 0.46361 0.57448
USER: genes 1 Rotation |==|  0.39345 0.08834 0.66121 0.70782
USER: genes 2 Torsion [N]-CA--C-[N] |==|  0.33889
USER: genes 3 Torsion [C]-N--CA-[CB] |==|  0.83042
USER: genes 4 Torsion [N]-CA--CB-[CG] |==|  0.47140
USER: genes 5 Torsion [CA]-CB--CG-[CD] |==|  0.61449
USER: genes 6 Torsion [CB]-CG--CD-[OE1] |==|  0.09423
USER: genes 7 Torsion [N]-CA--C-[N] |==|  0.75763
USER: genes 8 Torsion [C]-N--CA-[C] |==|  0.46350
USER: genes 9 Torsion [N]-CA--C-[O] |==|  0.28307
USER: genes 10 Torsion [N]-CA--CB-[CG] |==|  0.65877
USER: genes 11 Torsion [CA]-CB--CG-[CD1] |==|  0.90713
USER: genes 12 Torsion [C]-CA--CB-[CG] |==|  0.10326
USER: genes 13 Torsion [CA]-CB--CG-[CD1] |==|  0.14167
USER: genes 14 Torsion [CE1]-CZ--OH-[HH] |==|  0.00507
USER: genes 15 Torsion [C]-CA--N-[C] |==|  0.84971
USER: genes 16 Torsion [N]-C--CA-[N] |==|  0.75638
USER: genes 17 Torsion [C]-CA--N-[C] |==|  0.69316
USER: genes 18 Torsion [N]-C--CA-[N] |==|  0.82316
USER: genes 19 Torsion [C]-CA--CB-[CG] |==|  0.73805
USER: genes 20 Torsion [CA]-CB--CG-[CD2] |==|  0.58585
USER: genes 21 Torsion [C]-CA--CB-[CG2] |==|  0.48089
ROOT
ATOM      1  CA  TYR P   8      80.322  -2.986  62.081  1.00 57.99 LIG 0.18  C 
ENDROOT
BRANCH 1 2
ATOM      2  C   TYR P   8      80.390  -2.364  60.693  1.00 56.68 LIG 0.24  C 
ATOM      3  N   GLN P   9      81.601  -2.068  60.234  1.00 57.67 LIG-0.35  N 
ATOM      4 H    GLN P   9      82.322  -2.155  60.696  1.00 57.67 LIG 0.16  HD
ATOM      5 O    TYR P   8      79.354  -2.158  60.052  1.00 54.26 LIG-0.27  OA
BRANCH 3 6
ATOM      6  CA  GLN P   9      81.813  -1.563  58.885  1.00 54.86 LIG 0.18  C 
BRANCH 6 7
ATOM      7  CB  GLN P   9      81.340  -2.572  57.841  1.00 52.41 LIG 0.04  C 
BRANCH 7 8
ATOM      8  CG  GLN P   9      81.300  -2.018  56.427  1.00 53.63 LIG 0.10  C 
BRANCH 8 9
ATOM      9  CD  GLN P   9      80.070  -2.467  55.671  1.00 56.56 LIG 0.21  C 
ATOM     10 OE1  GLN P   9      78.999  -2.631  56.254  1.00 59.67 LIG-0.27  OA
ATOM     11  NE2 GLN P   9      80.214  -2.669  54.365  1.00 58.55 LIG-0.37  N 
ATOM     12 22HE GLN P   9      79.543  -2.925  53.892  1.00 58.55 LIG 0.16  HD
ATOM     13 21HE GLN P   9      80.979  -2.544  53.993  1.00 58.55 LIG 0.16  HD
ENDBRANCH 8 9
ENDBRANCH 7 8
ENDBRANCH 6 7
BRANCH 6 14
ATOM     14  C   GLN P   9      81.069  -0.242  58.731  1.00 54.72 LIG 0.24  C 
ATOM     15 O    GLN P   9      81.649   0.829  58.941  1.00 59.60 LIG-0.27  OA
ATOM     16  N   PHE P  10      79.797  -0.318  58.355  1.00 49.02 LIG-0.34  N 
ATOM     17 H    PHE P  10      79.393  -1.051  58.157  1.00 49.02 LIG 0.16  HD
BRANCH 16 18
ATOM     18  CA  PHE P  10      78.975   0.879  58.250  1.00 50.33 LIG 0.19  C 
BRANCH 18 19
ATOM     19  C   PHE P  10      77.674   0.601  57.505  1.00 49.91 LIG 0.20  C 
ATOM     20 O    PHE P  10      76.619   0.458  58.126  1.00 45.93 LIG-0.65  OA
ATOM     21 OXT  PHE P  10      77.656   0.505  56.277  1.00 46.36 LIG-0.65  OA
ENDBRANCH 18 19
BRANCH 18 22
ATOM     22  CB  PHE P  10      79.749   2.012  57.570  1.00 51.88 LIG 0.07  C 
BRANCH 22 23
ATOM     23  CG  PHE P  10      79.854   3.271  58.389  1.00 51.17 LIG-0.06  A 
ATOM     24  CD1 PHE P  10      78.826   3.650  59.236  1.00 49.53 LIG 0.01  A 
ATOM     25  CE1 PHE P  10      78.914   4.811  59.977  1.00 54.45 LIG 0.00  A 
ATOM     26  CZ  PHE P  10      80.029   5.618  59.867  1.00 54.40 LIG 0.00  A 
ATOM     27  CE2 PHE P  10      81.056   5.257  59.023  1.00 52.97 LIG 0.00  A 
ATOM     28  CD2 PHE P  10      80.965   4.093  58.283  1.00 50.02 LIG 0.01  A 
ENDBRANCH 22 23
ENDBRANCH 18 22
ENDBRANCH 16 18
ENDBRANCH 6 14
ENDBRANCH 3 6
ENDBRANCH 1 2
BRANCH 1 29
ATOM     29  CB  TYR P   8      79.760  -4.404  61.992  1.00 54.61 LIG 0.07  C 
BRANCH 29 30
ATOM     30  CG  TYR P   8      80.202  -5.180  60.775  1.00 66.64 LIG-0.06  A 
ATOM     31  CD1 TYR P   8      81.547  -5.276  60.441  1.00 68.29 LIG 0.01  A 
ATOM     32  CE1 TYR P   8      81.957  -5.979  59.328  1.00 71.89 LIG 0.04  A 
ATOM     33  CZ  TYR P   8      81.016  -6.594  58.528  1.00 71.50 LIG 0.07  A 
ATOM     34  CE2 TYR P   8      79.675  -6.509  58.835  1.00 69.11 LIG 0.04  A 
ATOM     35  CD2 TYR P   8      79.275  -5.803  59.950  1.00 65.21 LIG 0.01  A 
BRANCH 33 36
ATOM     36 OH   TYR P   8      81.420  -7.295  57.416  1.00 83.55 LIG-0.36  OA
ATOM     37 HH   TYR P   8      82.258  -7.284  57.367  1.00 83.55 LIG 0.22  HD
ENDBRANCH 33 36
ENDBRANCH 29 30
ENDBRANCH 1 29
BRANCH 1 38
ATOM     38  N   TYR P   8      79.493  -2.143  62.931  1.00 59.31 LIG-0.35  N 
ATOM     39  C   VAL P   7      79.717  -0.843  63.099  1.00 65.10 LIG 0.24  C 
ATOM     40 O    VAL P   7      80.689  -0.257  62.604  1.00 66.40 LIG-0.27  OA
ATOM     41 H    TYR P   8      78.846  -2.564  63.313  1.00 59.31 LIG 0.16  HD
BRANCH 39 42
ATOM     42  CA  VAL P   7      78.706  -0.088  63.950  1.00 68.90 LIG 0.18  C 
BRANCH 42 43
ATOM     43  N   VAL P   7      77.620   0.373  63.095  1.00 69.26 LIG-0.34  N 
ATOM     44  C   LEU P   6      77.425   1.656  62.804  1.00 74.59 LIG 0.26  C 
ATOM     45 O    LEU P   6      78.174   2.551  63.205  1.00 73.78 LIG-0.27  OA
ATOM     46 H    VAL P   7      77.120  -0.260  62.797  1.00 69.26 LIG 0.16  HD
BRANCH 44 47
ATOM     47  CA  LEU P   6      76.216   1.956  61.914  1.00 78.06 LIG 0.40  C 
ATOM     48  N   LEU P   6      76.383   1.347  60.600  1.00 74.40 LIG 0.61  N 
BRANCH 47 49
ATOM     49  CB  LEU P   6      74.912   1.475  62.564  1.00 78.52 LIG 0.06  C 
BRANCH 49 50
ATOM     50  CG  LEU P   6      74.330   0.096  62.238  1.00 77.43 LIG-0.02  C 
ATOM     51  CD2 LEU P   6      72.808   0.078  62.323  1.00 73.93 LIG 0.01  C 
ATOM     52  CD1 LEU P   6      74.947  -0.914  63.181  1.00 75.78 LIG 0.01  C 
ENDBRANCH 49 50
ENDBRANCH 47 49
ENDBRANCH 44 47
ENDBRANCH 42 43
BRANCH 42 53
ATOM     53  CB  VAL P   7      78.174  -0.971  65.092  1.00 67.45 LIG 0.01  C 
ATOM     54  CG2 VAL P   7      77.300  -0.153  66.026  1.00 67.18 LIG 0.01  C 
ATOM     55  CG1 VAL P   7      79.323  -1.597  65.857  1.00 63.58 LIG 0.01  C 
ENDBRANCH 42 53
ENDBRANCH 39 42
ENDBRANCH 1 38
TORSDOF 20
ENDMDL
MODEL 52
USER: ADFR SOLUTION from run 13
USER: SCORE 18.344978 LL:  -3.913 LR: -15.297 RR:   0.000 FEB:  -9.331
USER: RMSD 6.241045
USER: SEED 346654
USER: STATUS no improvement in best in 11 clusters for 5 generations
USER: GENES 22
USER: genes 0 Translation |==|  0.46571 0.50730 0.46278
USER: genes 1 Rotation |==|  0.26840 0.88229 0.72309 0.52102
USER: genes 2 Torsion [N]-CA--C-[N] |==|  0.07055
USER: genes 3 Torsion [C]-N--CA-[CB] |==|  0.87778
USER: genes 4 Torsion [N]-CA--CB-[CG] |==|  0.75886
USER: genes 5 Torsion [CA]-CB--CG-[CD] |==|  0.12618
USER: genes 6 Torsion [CB]-CG--CD-[OE1] |==|  0.19337
USER: genes 7 Torsion [N]-CA--C-[N] |==|  0.88775
USER: genes 8 Torsion [C]-N--CA-[C] |==|  0.88234
USER: genes 9 Torsion [N]-CA--C-[O] |==|  0.74148
USER: genes 10 Torsion [N]-CA--CB-[CG] |==|  0.73853
USER: genes 11 Torsion [CA]-CB--CG-[CD1] |==|  0.36722
USER: genes 12 Torsion [C]-CA--CB-[CG] |==|  0.43353
USER: genes 13 Torsion [CA]-CB--CG-[CD1] |==|  0.19430
USER: genes 14 Torsion [CE1]-CZ--OH-[HH] |==|  0.09808
USER: genes 15 Torsion [C]-CA--N-[C] |==|  0.71648
USER: genes 16 Torsion [N]-C--CA-[N] |==|  0.15186
USER: genes 17 Torsion [C]-CA--N-[C] |==|  0.77016
USER: genes 18 Torsion [N]-C--CA-[N] |==|  0.55327
USER: genes 19 Torsion [C]-CA--CB-[CG] |==|  0.30960
USER: genes 20 Torsion [CA]-CB--CG-[CD2] |==|  0.84366
USER: genes 21 Torsion [C]-CA--CB-[CG2] |==|  0.53887
ROOT
ATOM      1  CA  TYR P   8      81.777  -2.003  60.070  1.00 57.99 LIG 0.18  C 
ENDROOT
BRANCH 1 2
ATOM      2  C   TYR P   8      80.829  -1.232  60.977  1.00 56.68 LIG 0.24  C 
ATOM      3  N   GLN P   9      79.713  -1.858  61.336  1.00 57.67 LIG-0.35  N 
ATOM      4 H    GLN P   9      79.481  -2.632  61.039  1.00 57.67 LIG 0.16  HD
ATOM      5 O    TYR P   8      81.112  -0.087  61.345  1.00 54.26 LIG-0.27  OA
BRANCH 3 6
ATOM      6  CA  GLN P   9      78.770  -1.273  62.279  1.00 54.86 LIG 0.18  C 
BRANCH 6 7
ATOM      7  CB  GLN P   9      79.497  -0.658  63.472  1.00 52.41 LIG 0.04  C 
BRANCH 7 8
ATOM      8  CG  GLN P   9      79.779  -1.643  64.594  1.00 53.63 LIG 0.10  C 
BRANCH 8 9
ATOM      9  CD  GLN P   9      80.330  -2.954  64.081  1.00 56.56 LIG 0.21  C 
ATOM     10 OE1  GLN P   9      81.463  -3.015  63.603  1.00 59.67 LIG-0.27  OA
ATOM     11  NE2 GLN P   9      79.532  -4.013  64.175  1.00 58.55 LIG-0.37  N 
ATOM     12 22HE GLN P   9      79.801  -4.780  63.896  1.00 58.55 LIG 0.16  HD
ATOM     13 21HE GLN P   9      78.747  -3.930  64.515  1.00 58.55 LIG 0.16  HD
ENDBRANCH 8 9
ENDBRANCH 7 8
ENDBRANCH 6 7
BRANCH 6 14
ATOM     14  C   GLN P   9      77.939  -0.220  61.557  1.00 54.72 LIG 0.24  C 
ATOM     15 O    GLN P   9      76.729  -0.110  61.790  1.00 59.60 LIG-0.27  OA
ATOM     16  N   PHE P  10      78.584   0.557  60.694  1.00 49.02 LIG-0.34  N 
ATOM     17 H    PHE P  10      79.433   0.528  60.556  1.00 49.02 LIG 0.16  HD
BRANCH 16 18
ATOM     18  CA  PHE P  10      77.872   1.545  59.897  1.00 50.33 LIG 0.19  C 
BRANCH 18 19
ATOM     19  C   PHE P  10      76.562   0.987  59.353  1.00 49.91 LIG 0.20  C 
ATOM     20 O    PHE P  10      76.522   0.471  58.234  1.00 45.93 LIG-0.65  OA
ATOM     21 OXT  PHE P  10      75.524   1.051  60.013  1.00 46.36 LIG-0.65  OA
ENDBRANCH 18 19
BRANCH 18 22
ATOM     22  CB  PHE P  10      78.751   2.057  58.753  1.00 51.88 LIG 0.07  C 
BRANCH 22 23
ATOM     23  CG  PHE P  10      79.509   3.320  59.070  1.00 51.17 LIG-0.06  A 
ATOM     24  CD1 PHE P  10      80.861   3.420  58.790  1.00 49.53 LIG 0.01  A 
ATOM     25  CE1 PHE P  10      81.561   4.571  59.092  1.00 54.45 LIG 0.00  A 
ATOM     26  CZ  PHE P  10      80.917   5.632  59.698  1.00 54.40 LIG 0.00  A 
ATOM     27  CE2 PHE P  10      79.573   5.543  59.988  1.00 52.97 LIG 0.00  A 
ATOM     28  CD2 PHE P  10      78.876   4.389  59.683  1.00 50.02 LIG 0.01  A 
ENDBRANCH 22 23
ENDBRANCH 18 22
ENDBRANCH 16 18
ENDBRANCH 6 14
ENDBRANCH 3 6
ENDBRANCH 1 2
BRANCH 1 29
ATOM     29  CB  TYR P   8      82.503  -1.039  59.132  1.00 54.61 LIG 0.07  C 
BRANCH 29 30
ATOM     30  CG  TYR P   8      83.823  -1.548  58.606  1.00 66.64 LIG-0.06  A 
ATOM     31  CD1 TYR P   8      83.871  -2.592  57.692  1.00 68.29 LIG 0.01  A 
ATOM     32  CE1 TYR P   8      85.074  -3.065  57.212  1.00 71.89 LIG 0.04  A 
ATOM     33  CZ  TYR P   8      86.251  -2.495  57.649  1.00 71.50 LIG 0.07  A 
ATOM     34  CE2 TYR P   8      86.231  -1.460  58.560  1.00 69.11 LIG 0.04  A 
ATOM     35  CD2 TYR P   8      85.023  -0.995  59.035  1.00 65.21 LIG 0.01  A 
BRANCH 33 36
ATOM     36 OH   TYR P   8      87.454  -2.964  57.174  1.00 83.55 LIG-0.36  OA
ATOM     37 HH   TYR P   8      87.367  -3.190  56.369  1.00 83.55 LIG 0.22  HD
ENDBRANCH 33 36
ENDBRANCH 29 30
ENDBRANCH 1 29
BRANCH 1 38
ATOM     38  N   TYR P   8      81.011  -2.989  59.322  1.00 59.31 LIG-0.35  N 
ATOM     39  C   VAL P   7      80.992  -4.281  59.639  1.00 65.10 LIG 0.24  C 
ATOM     40 O    VAL P   7      81.678  -4.762  60.550  1.00 66.40 LIG-0.27  OA
ATOM     41 H    TYR P   8      80.574  -2.659  58.658  1.00 59.31 LIG 0.16  HD
BRANCH 39 42
ATOM     42  CA  VAL P   7      80.071  -5.165  58.809  1.00 68.90 LIG 0.18  C 
BRANCH 42 43
ATOM     43  N   VAL P   7      80.397  -4.995  57.400  1.00 69.26 LIG-0.34  N 
ATOM     44  C   LEU P   6      79.928  -3.990  56.666  1.00 74.59 LIG 0.26  C 
ATOM     45 O    LEU P   6      79.211  -3.102  57.133  1.00 73.78 LIG-0.27  OA
ATOM     46 H    VAL P   7      80.920  -5.602  57.089  1.00 69.26 LIG 0.16  HD
BRANCH 44 47
ATOM     47  CA  LEU P   6      80.354  -3.989  55.195  1.00 78.06 LIG 0.40  C 
ATOM     48  N   LEU P   6      80.181  -2.664  54.612  1.00 74.40 LIG 0.61  N 
BRANCH 47 49
ATOM     49  CB  LEU P   6      81.806  -4.458  55.035  1.00 78.52 LIG 0.06  C 
BRANCH 49 50
ATOM     50  CG  LEU P   6      82.135  -5.796  54.365  1.00 77.43 LIG-0.02  C 
ATOM     51  CD2 LEU P   6      81.437  -6.968  55.044  1.00 73.93 LIG 0.01  C 
ATOM     52  CD1 LEU P   6      83.638  -5.971  54.368  1.00 75.78 LIG 0.01  C 
ENDBRANCH 49 50
ENDBRANCH 47 49
ENDBRANCH 44 47
ENDBRANCH 42 43
BRANCH 42 53
ATOM     53  CB  VAL P   7      80.191  -6.639  59.231  1.00 67.45 LIG 0.01  C 
ATOM     54  CG2 VAL P   7      79.546  -7.538  58.191  1.00 67.18 LIG 0.01  C 
ATOM     55  CG1 VAL P   7      79.550  -6.857  60.587  1.00 63.58 LIG 0.01  C 
ENDBRANCH 42 53
ENDBRANCH 39 42
ENDBRANCH 1 38
TORSDOF 20
ENDMDL
MODEL 53
USER: ADFR SOLUTION from run 141
USER: SCORE 19.100123 LL:  -4.687 LR: -15.293 RR:   0.000 FEB:  -9.327
USER: RMSD 5.897480
USER: SEED 140
USER: STATUS no improvement in best in 7 clusters for 5 generations
USER: GENES 22
USER: genes 0 Translation |==|  0.54220 0.49874 0.36503
USER: genes 1 Rotation |==|  0.82004 0.22221 0.38558 0.73941
USER: genes 2 Torsion [N]-CA--C-[N] |==|  0.88400
USER: genes 3 Torsion [C]-N--CA-[CB] |==|  0.76431
USER: genes 4 Torsion [N]-CA--CB-[CG] |==|  0.60238
USER: genes 5 Torsion [CA]-CB--CG-[CD] |==|  0.65141
USER: genes 6 Torsion [CB]-CG--CD-[OE1] |==|  0.99979
USER: genes 7 Torsion [N]-CA--C-[N] |==|  0.23406
USER: genes 8 Torsion [C]-N--CA-[C] |==|  0.61266
USER: genes 9 Torsion [N]-CA--C-[O] |==|  0.25070
USER: genes 10 Torsion [N]-CA--CB-[CG] |==|  0.62117
USER: genes 11 Torsion [CA]-CB--CG-[CD1] |==|  0.87527
USER: genes 12 Torsion [C]-CA--CB-[CG] |==|  0.93146
USER: genes 13 Torsion [CA]-CB--CG-[CD1] |==|  0.28165
USER: genes 14 Torsion [CE1]-CZ--OH-[HH] |==|  0.26157
USER: genes 15 Torsion [C]-CA--N-[C] |==|  0.66290
USER: genes 16 Torsion [N]-C--CA-[N] |==|  0.98166
USER: genes 17 Torsion [C]-CA--N-[C] |==|  0.66111
USER: genes 18 Torsion [N]-C--CA-[N] |==|  0.44166
USER: genes 19 Torsion [C]-CA--CB-[CG] |==|  0.44277
USER: genes 20 Torsion [CA]-CB--CG-[CD2] |==|  0.75213
USER: genes 21 Torsion [C]-CA--CB-[CG2] |==|  0.65407
ROOT
ATOM      1  CA  TYR P   8      83.498  -2.195  58.311  1.00 57.99 LIG 0.18  C 
ENDROOT
BRANCH 1 2
ATOM      2  C   TYR P   8      82.399  -1.827  59.297  1.00 56.68 LIG 0.24  C 
ATOM      3  N   GLN P   9      81.492  -2.765  59.551  1.00 57.67 LIG-0.35  N 
ATOM      4 H    GLN P   9      81.466  -3.526  59.150  1.00 57.67 LIG 0.16  HD
ATOM      5 O    TYR P   8      82.380  -0.707  59.818  1.00 54.26 LIG-0.27  OA
BRANCH 3 6
ATOM      6  CA  GLN P   9      80.448  -2.578  60.548  1.00 54.86 LIG 0.18  C 
BRANCH 6 7
ATOM      7  CB  GLN P   9      80.949  -2.943  61.943  1.00 52.41 LIG 0.04  C 
BRANCH 7 8
ATOM      8  CG  GLN P   9      79.905  -3.620  62.813  1.00 53.63 LIG 0.10  C 
BRANCH 8 9
ATOM      9  CD  GLN P   9      79.712  -2.911  64.135  1.00 56.56 LIG 0.21  C 
ATOM     10 OE1  GLN P   9      80.365  -1.904  64.408  1.00 59.67 LIG-0.27  OA
ATOM     11  NE2 GLN P   9      78.814  -3.432  64.965  1.00 58.55 LIG-0.37  N 
ATOM     12 22HE GLN P   9      78.670  -3.064  65.729  1.00 58.55 LIG 0.16  HD
ATOM     13 21HE GLN P   9      78.378  -4.137  64.738  1.00 58.55 LIG 0.16  HD
ENDBRANCH 8 9
ENDBRANCH 7 8
ENDBRANCH 6 7
BRANCH 6 14
ATOM     14  C   GLN P   9      79.982  -1.128  60.508  1.00 54.72 LIG 0.24  C 
ATOM     15 O    GLN P   9      80.465  -0.294  61.283  1.00 59.60 LIG-0.27  OA
ATOM     16  N   PHE P  10      79.060  -0.826  59.601  1.00 49.02 LIG-0.34  N 
ATOM     17 H    PHE P  10      78.749  -1.381  59.022  1.00 49.02 LIG 0.16  HD
BRANCH 16 18
ATOM     18  CA  PHE P  10      78.493   0.513  59.526  1.00 50.33 LIG 0.19  C 
BRANCH 18 19
ATOM     19  C   PHE P  10      76.992   0.472  59.265  1.00 49.91 LIG 0.20  C 
ATOM     20 O    PHE P  10      76.196   0.442  60.206  1.00 45.93 LIG-0.65  OA
ATOM     21 OXT  PHE P  10      76.549   0.458  58.115  1.00 46.36 LIG-0.65  OA
ENDBRANCH 18 19
BRANCH 18 22
ATOM     22  CB  PHE P  10      79.200   1.344  58.452  1.00 51.88 LIG 0.07  C 
BRANCH 22 23
ATOM     23  CG  PHE P  10      79.524   2.753  58.870  1.00 51.17 LIG-0.06  A 
ATOM     24  CD1 PHE P  10      78.584   3.527  59.530  1.00 49.53 LIG 0.01  A 
ATOM     25  CE1 PHE P  10      78.874   4.825  59.902  1.00 54.45 LIG 0.00  A 
ATOM     26  CZ  PHE P  10      80.105   5.371  59.600  1.00 54.40 LIG 0.00  A 
ATOM     27  CE2 PHE P  10      81.048   4.615  58.938  1.00 52.97 LIG 0.00  A 
ATOM     28  CD2 PHE P  10      80.754   3.316  58.567  1.00 50.02 LIG 0.01  A 
ENDBRANCH 22 23
ENDBRANCH 18 22
ENDBRANCH 16 18
ENDBRANCH 6 14
ENDBRANCH 3 6
ENDBRANCH 1 2
BRANCH 1 29
ATOM     29  CB  TYR P   8      82.983  -2.062  56.878  1.00 54.61 LIG 0.07  C 
BRANCH 29 30
ATOM     30  CG  TYR P   8      81.486  -2.192  56.734  1.00 66.64 LIG-0.06  A 
ATOM     31  CD1 TYR P   8      80.684  -1.067  56.583  1.00 68.29 LIG 0.01  A 
ATOM     32  CE1 TYR P   8      79.316  -1.180  56.456  1.00 71.89 LIG 0.04  A 
ATOM     33  CZ  TYR P   8      78.731  -2.428  56.485  1.00 71.50 LIG 0.07  A 
ATOM     34  CE2 TYR P   8      79.504  -3.559  56.639  1.00 69.11 LIG 0.04  A 
ATOM     35  CD2 TYR P   8      80.871  -3.437  56.766  1.00 65.21 LIG 0.01  A 
BRANCH 33 36
ATOM     36 OH   TYR P   8      77.366  -2.545  56.359  1.00 83.55 LIG-0.36  OA
ATOM     37 HH   TYR P   8      77.169  -2.680  55.554  1.00 83.55 LIG 0.22  HD
ENDBRANCH 33 36
ENDBRANCH 29 30
ENDBRANCH 1 29
BRANCH 1 38
ATOM     38  N   TYR P   8      83.939  -3.556  58.587  1.00 59.31 LIG-0.35  N 
ATOM     39  C   VAL P   7      85.197  -3.859  58.895  1.00 65.10 LIG 0.24  C 
ATOM     40 O    VAL P   7      86.109  -3.023  58.903  1.00 66.40 LIG-0.27  OA
ATOM     41 H    TYR P   8      83.311  -4.142  58.533  1.00 59.31 LIG 0.16  HD
BRANCH 39 42
ATOM     42  CA  VAL P   7      85.474  -5.315  59.241  1.00 68.90 LIG 0.18  C 
BRANCH 42 43
ATOM     43  N   VAL P   7      84.208  -6.035  59.302  1.00 69.26 LIG-0.34  N 
ATOM     44  C   LEU P   6      83.798  -6.684  60.387  1.00 74.59 LIG 0.26  C 
ATOM     45 O    LEU P   6      84.440  -6.694  61.441  1.00 73.78 LIG-0.27  OA
ATOM     46 H    VAL P   7      83.754  -5.999  58.573  1.00 69.26 LIG 0.16  HD
BRANCH 44 47
ATOM     47  CA  LEU P   6      82.455  -7.408  60.257  1.00 78.06 LIG 0.40  C 
ATOM     48  N   LEU P   6      82.337  -8.454  61.266  1.00 74.40 LIG 0.61  N 
BRANCH 47 49
ATOM     49  CB  LEU P   6      81.280  -6.427  60.365  1.00 78.52 LIG 0.06  C 
BRANCH 49 50
ATOM     50  CG  LEU P   6      79.896  -6.790  59.817  1.00 77.43 LIG-0.02  C 
ATOM     51  CD2 LEU P   6      79.730  -6.389  58.356  1.00 73.93 LIG 0.01  C 
ATOM     52  CD1 LEU P   6      78.852  -6.132  60.693  1.00 75.78 LIG 0.01  C 
ENDBRANCH 49 50
ENDBRANCH 47 49
ENDBRANCH 44 47
ENDBRANCH 42 43
BRANCH 42 53
ATOM     53  CB  VAL P   7      86.426  -5.957  58.218  1.00 67.45 LIG 0.01  C 
ATOM     54  CG2 VAL P   7      85.797  -7.203  57.623  1.00 67.18 LIG 0.01  C 
ATOM     55  CG1 VAL P   7      87.754  -6.294  58.868  1.00 63.58 LIG 0.01  C 
ENDBRANCH 42 53
ENDBRANCH 39 42
ENDBRANCH 1 38
TORSDOF 20
ENDMDL
MODEL 54
USER: ADFR SOLUTION from run 63
USER: SCORE 18.873347 LL:  -4.418 LR: -15.274 RR:   0.000 FEB:  -9.308
USER: RMSD 9.790681
USER: SEED 62
USER: STATUS no improvement in best in 5 clusters for 5 generations
USER: GENES 22
USER: genes 0 Translation |==|  0.40353 0.47107 0.58528
USER: genes 1 Rotation |==|  0.26224 0.24232 0.85027 0.56619
USER: genes 2 Torsion [N]-CA--C-[N] |==|  0.22348
USER: genes 3 Torsion [C]-N--CA-[CB] |==|  0.86660
USER: genes 4 Torsion [N]-CA--CB-[CG] |==|  0.58248
USER: genes 5 Torsion [CA]-CB--CG-[CD] |==|  0.33293
USER: genes 6 Torsion [CB]-CG--CD-[OE1] |==|  0.10446
USER: genes 7 Torsion [N]-CA--C-[N] |==|  0.35846
USER: genes 8 Torsion [C]-N--CA-[C] |==|  0.67692
USER: genes 9 Torsion [N]-CA--C-[O] |==|  0.09667
USER: genes 10 Torsion [N]-CA--CB-[CG] |==|  0.73094
USER: genes 11 Torsion [CA]-CB--CG-[CD1] |==|  0.53956
USER: genes 12 Torsion [C]-CA--CB-[CG] |==|  0.52166
USER: genes 13 Torsion [CA]-CB--CG-[CD1] |==|  0.23904
USER: genes 14 Torsion [CE1]-CZ--OH-[HH] |==|  0.24096
USER: genes 15 Torsion [C]-CA--N-[C] |==|  0.77222
USER: genes 16 Torsion [N]-C--CA-[N] |==|  0.17464
USER: genes 17 Torsion [C]-CA--N-[C] |==|  0.63709
USER: genes 18 Torsion [N]-C--CA-[N] |==|  0.16001
USER: genes 19 Torsion [C]-CA--CB-[CG] |==|  0.24324
USER: genes 20 Torsion [CA]-CB--CG-[CD2] |==|  0.93001
USER: genes 21 Torsion [C]-CA--CB-[CG2] |==|  0.53778
ROOT
ATOM      1  CA  TYR P   8      80.378  -2.818  62.275  1.00 57.99 LIG 0.18  C 
ENDROOT
BRANCH 1 2
ATOM      2  C   TYR P   8      80.747  -3.919  61.292  1.00 56.68 LIG 0.24  C 
ATOM      3  N   GLN P   9      81.787  -3.681  60.498  1.00 57.67 LIG-0.35  N 
ATOM      4 H    GLN P   9      82.210  -2.933  60.475  1.00 57.67 LIG 0.16  HD
ATOM      5 O    TYR P   8      80.095  -4.968  61.258  1.00 54.26 LIG-0.27  OA
BRANCH 3 6
ATOM      6  CA  GLN P   9      82.305  -4.690  59.584  1.00 54.86 LIG 0.18  C 
BRANCH 6 7
ATOM      7  CB  GLN P   9      82.489  -6.030  60.291  1.00 52.41 LIG 0.04  C 
BRANCH 7 8
ATOM      8  CG  GLN P   9      83.610  -6.878  59.717  1.00 53.63 LIG 0.10  C 
BRANCH 8 9
ATOM      9  CD  GLN P   9      84.682  -7.180  60.739  1.00 56.56 LIG 0.21  C 
ATOM     10 OE1  GLN P   9      84.386  -7.404  61.913  1.00 59.67 LIG-0.27  OA
ATOM     11  NE2 GLN P   9      85.937  -7.189  60.301  1.00 58.55 LIG-0.37  N 
ATOM     12 22HE GLN P   9      86.582  -7.355  60.846  1.00 58.55 LIG 0.16  HD
ATOM     13 21HE GLN P   9      86.105  -7.028  59.474  1.00 58.55 LIG 0.16  HD
ENDBRANCH 8 9
ENDBRANCH 7 8
ENDBRANCH 6 7
BRANCH 6 14
ATOM     14  C   GLN P   9      81.344  -4.830  58.409  1.00 54.72 LIG 0.24  C 
ATOM     15 O    GLN P   9      80.135  -4.992  58.607  1.00 59.60 LIG-0.27  OA
ATOM     16  N   PHE P  10      81.877  -4.755  57.195  1.00 49.02 LIG-0.34  N 
ATOM     17 H    PHE P  10      82.707  -4.593  57.038  1.00 49.02 LIG 0.16  HD
BRANCH 16 18
ATOM     18  CA  PHE P  10      81.060  -4.949  56.005  1.00 50.33 LIG 0.19  C 
BRANCH 18 19
ATOM     19  C   PHE P  10      81.500  -6.178  55.218  1.00 49.91 LIG 0.20  C 
ATOM     20 O    PHE P  10      81.921  -7.177  55.805  1.00 45.93 LIG-0.65  OA
ATOM     21 OXT  PHE P  10      81.453  -6.192  53.987  1.00 46.36 LIG-0.65  OA
ENDBRANCH 18 19
BRANCH 18 22
ATOM     22  CB  PHE P  10      81.092  -3.704  55.115  1.00 51.88 LIG 0.07  C 
BRANCH 22 23
ATOM     23  CG  PHE P  10      79.924  -2.773  55.308  1.00 51.17 LIG-0.06  A 
ATOM     24  CD1 PHE P  10      79.659  -1.773  54.387  1.00 49.53 LIG 0.01  A 
ATOM     25  CE1 PHE P  10      78.598  -0.909  54.569  1.00 54.45 LIG 0.00  A 
ATOM     26  CZ  PHE P  10      77.797  -1.026  55.687  1.00 54.40 LIG 0.00  A 
ATOM     27  CE2 PHE P  10      78.053  -2.012  56.615  1.00 52.97 LIG 0.00  A 
ATOM     28  CD2 PHE P  10      79.116  -2.875  56.429  1.00 50.02 LIG 0.01  A 
ENDBRANCH 22 23
ENDBRANCH 18 22
ENDBRANCH 16 18
ENDBRANCH 6 14
ENDBRANCH 3 6
ENDBRANCH 1 2
BRANCH 1 29
ATOM     29  CB  TYR P   8      79.588  -3.404  63.444  1.00 54.61 LIG 0.07  C 
BRANCH 29 30
ATOM     30  CG  TYR P   8      79.009  -2.378  64.389  1.00 66.64 LIG-0.06  A 
ATOM     31  CD1 TYR P   8      77.774  -1.795  64.136  1.00 68.29 LIG 0.01  A 
ATOM     32  CE1 TYR P   8      77.243  -0.854  64.993  1.00 71.89 LIG 0.04  A 
ATOM     33  CZ  TYR P   8      77.950  -0.481  66.117  1.00 71.50 LIG 0.07  A 
ATOM     34  CE2 TYR P   8      79.180  -1.042  66.387  1.00 69.11 LIG 0.04  A 
ATOM     35  CD2 TYR P   8      79.703  -1.982  65.524  1.00 65.21 LIG 0.01  A 
BRANCH 33 36
ATOM     36 OH   TYR P   8      77.424   0.458  66.973  1.00 83.55 LIG-0.36  OA
ATOM     37 HH   TYR P   8      76.928   0.078  67.534  1.00 83.55 LIG 0.22  HD
ENDBRANCH 33 36
ENDBRANCH 29 30
ENDBRANCH 1 29
BRANCH 1 38
ATOM     38  N   TYR P   8      79.605  -1.803  61.573  1.00 59.31 LIG-0.35  N 
ATOM     39  C   VAL P   7      80.167  -0.845  60.841  1.00 65.10 LIG 0.24  C 
ATOM     40 O    VAL P   7      81.393  -0.694  60.755  1.00 66.40 LIG-0.27  OA
ATOM     41 H    TYR P   8      78.755  -1.882  61.675  1.00 59.31 LIG 0.16  HD
BRANCH 39 42
ATOM     42  CA  VAL P   7      79.216   0.084  60.101  1.00 68.90 LIG 0.18  C 
BRANCH 42 43
ATOM     43  N   VAL P   7      78.410   0.808  61.075  1.00 69.26 LIG-0.34  N 
ATOM     44  C   LEU P   6      77.085   0.897  60.993  1.00 74.59 LIG 0.26  C 
ATOM     45 O    LEU P   6      76.434   0.339  60.106  1.00 73.78 LIG-0.27  OA
ATOM     46 H    VAL P   7      78.869   1.170  61.705  1.00 69.26 LIG 0.16  HD
BRANCH 44 47
ATOM     47  CA  LEU P   6      76.408   1.723  62.090  1.00 78.06 LIG 0.40  C 
ATOM     48  N   LEU P   6      76.938   3.082  62.109  1.00 74.40 LIG 0.61  N 
BRANCH 47 49
ATOM     49  CB  LEU P   6      74.885   1.746  61.910  1.00 78.52 LIG 0.06  C 
BRANCH 49 50
ATOM     50  CG  LEU P   6      74.002   0.652  62.518  1.00 77.43 LIG-0.02  C 
ATOM     51  CD2 LEU P   6      74.760  -0.654  62.722  1.00 73.93 LIG 0.01  C 
ATOM     52  CD1 LEU P   6      72.800   0.458  61.618  1.00 75.78 LIG 0.01  C 
ENDBRANCH 49 50
ENDBRANCH 47 49
ENDBRANCH 44 47
ENDBRANCH 42 43
BRANCH 42 53
ATOM     53  CB  VAL P   7      79.986   1.055  59.189  1.00 67.45 LIG 0.01  C 
ATOM     54  CG2 VAL P   7      79.074   2.175  58.724  1.00 67.18 LIG 0.01  C 
ATOM     55  CG1 VAL P   7      80.566   0.317  57.999  1.00 63.58 LIG 0.01  C 
ENDBRANCH 42 53
ENDBRANCH 39 42
ENDBRANCH 1 38
TORSDOF 20
ENDMDL
MODEL 55
USER: ADFR SOLUTION from run 142
USER: SCORE 18.369738 LL:  -4.366 LR: -15.272 RR:   0.000 FEB:  -9.306
USER: RMSD 5.654887
USER: SEED 141
USER: STATUS no improvement in best in 7 clusters for 5 generations
USER: GENES 22
USER: genes 0 Translation |==|  0.40895 0.48622 0.51000
USER: genes 1 Rotation |==|  0.24791 0.63373 0.42568 0.90378
USER: genes 2 Torsion [N]-CA--C-[N] |==|  0.78889
USER: genes 3 Torsion [C]-N--CA-[CB] |==|  0.79165
USER: genes 4 Torsion [N]-CA--CB-[CG] |==|  0.70813
USER: genes 5 Torsion [CA]-CB--CG-[CD] |==|  0.83902
USER: genes 6 Torsion [CB]-CG--CD-[OE1] |==|  0.99712
USER: genes 7 Torsion [N]-CA--C-[N] |==|  0.16430
USER: genes 8 Torsion [C]-N--CA-[C] |==|  0.19414
USER: genes 9 Torsion [N]-CA--C-[O] |==|  0.79436
USER: genes 10 Torsion [N]-CA--CB-[CG] |==|  0.87434
USER: genes 11 Torsion [CA]-CB--CG-[CD1] |==|  0.39085
USER: genes 12 Torsion [C]-CA--CB-[CG] |==|  0.19470
USER: genes 13 Torsion [CA]-CB--CG-[CD1] |==|  0.29887
USER: genes 14 Torsion [CE1]-CZ--OH-[HH] |==|  0.22622
USER: genes 15 Torsion [C]-CA--N-[C] |==|  0.65484
USER: genes 16 Torsion [N]-C--CA-[N] |==|  0.48153
USER: genes 17 Torsion [C]-CA--N-[C] |==|  0.66685
USER: genes 18 Torsion [N]-C--CA-[N] |==|  0.60079
USER: genes 19 Torsion [C]-CA--CB-[CG] |==|  0.25265
USER: genes 20 Torsion [CA]-CB--CG-[CD2] |==|  0.96306
USER: genes 21 Torsion [C]-CA--CB-[CG2] |==|  0.29962
ROOT
ATOM      1  CA  TYR P   8      80.500  -2.477  60.920  1.00 57.99 LIG 0.18  C 
ENDROOT
BRANCH 1 2
ATOM      2  C   TYR P   8      80.323  -1.377  59.883  1.00 56.68 LIG 0.24  C 
ATOM      3  N   GLN P   9      81.136  -0.330  59.985  1.00 57.67 LIG-0.35  N 
ATOM      4 H    GLN P   9      81.700  -0.223  60.626  1.00 57.67 LIG 0.16  HD
ATOM      5 O    TYR P   8      79.461  -1.483  59.005  1.00 54.26 LIG-0.27  OA
BRANCH 3 6
ATOM      6  CA  GLN P   9      81.139   0.742  58.999  1.00 54.86 LIG 0.18  C 
BRANCH 6 7
ATOM      7  CB  GLN P   9      81.830   0.302  57.711  1.00 52.41 LIG 0.04  C 
BRANCH 7 8
ATOM      8  CG  GLN P   9      83.219   0.889  57.529  1.00 53.63 LIG 0.10  C 
BRANCH 8 9
ATOM      9  CD  GLN P   9      83.209   2.401  57.537  1.00 56.56 LIG 0.21  C 
ATOM     10 OE1  GLN P   9      82.153   3.021  57.661  1.00 59.67 LIG-0.27  OA
ATOM     11  NE2 GLN P   9      84.385   3.005  57.405  1.00 58.55 LIG-0.37  N 
ATOM     12 22HE GLN P   9      84.430   3.864  57.403  1.00 58.55 LIG 0.16  HD
ATOM     13 21HE GLN P   9      85.101   2.538  57.320  1.00 58.55 LIG 0.16  HD
ENDBRANCH 8 9
ENDBRANCH 7 8
ENDBRANCH 6 7
BRANCH 6 14
ATOM     14  C   GLN P   9      79.700   1.159  58.721  1.00 54.72 LIG 0.24  C 
ATOM     15 O    GLN P   9      79.235   1.075  57.579  1.00 59.60 LIG-0.27  OA
ATOM     16  N   PHE P  10      78.997   1.594  59.761  1.00 49.02 LIG-0.34  N 
ATOM     17 H    PHE P  10      79.288   1.612  60.570  1.00 49.02 LIG 0.16  HD
BRANCH 16 18
ATOM     18  CA  PHE P  10      77.637   2.086  59.592  1.00 50.33 LIG 0.19  C 
BRANCH 18 19
ATOM     19  C   PHE P  10      76.672   0.958  59.245  1.00 49.91 LIG 0.20  C 
ATOM     20 O    PHE P  10      76.677   0.458  58.119  1.00 45.93 LIG-0.65  OA
ATOM     21 OXT  PHE P  10      75.867   0.535  60.077  1.00 46.36 LIG-0.65  OA
ENDBRANCH 18 19
BRANCH 18 22
ATOM     22  CB  PHE P  10      77.584   3.182  58.525  1.00 51.88 LIG 0.07  C 
BRANCH 22 23
ATOM     23  CG  PHE P  10      78.674   4.214  58.641  1.00 51.17 LIG-0.06  A 
ATOM     24  CD1 PHE P  10      79.290   4.721  57.508  1.00 49.53 LIG 0.01  A 
ATOM     25  CE1 PHE P  10      80.299   5.657  57.612  1.00 54.45 LIG 0.00  A 
ATOM     26  CZ  PHE P  10      80.718   6.085  58.856  1.00 54.40 LIG 0.00  A 
ATOM     27  CE2 PHE P  10      80.119   5.584  59.992  1.00 52.97 LIG 0.00  A 
ATOM     28  CD2 PHE P  10      79.108   4.648  59.883  1.00 50.02 LIG 0.01  A 
ENDBRANCH 22 23
ENDBRANCH 18 22
ENDBRANCH 16 18
ENDBRANCH 6 14
ENDBRANCH 3 6
ENDBRANCH 1 2
BRANCH 1 29
ATOM     29  CB  TYR P   8      80.617  -1.867  62.316  1.00 54.61 LIG 0.07  C 
BRANCH 29 30
ATOM     30  CG  TYR P   8      79.340  -1.262  62.847  1.00 66.64 LIG-0.06  A 
ATOM     31  CD1 TYR P   8      78.626  -1.885  63.863  1.00 68.29 LIG 0.01  A 
ATOM     32  CE1 TYR P   8      77.456  -1.341  64.349  1.00 71.89 LIG 0.04  A 
ATOM     33  CZ  TYR P   8      76.982  -0.161  63.815  1.00 71.50 LIG 0.07  A 
ATOM     34  CE2 TYR P   8      77.670   0.475  62.803  1.00 69.11 LIG 0.04  A 
ATOM     35  CD2 TYR P   8      78.839  -0.078  62.323  1.00 65.21 LIG 0.01  A 
BRANCH 33 36
ATOM     36 OH   TYR P   8      75.815   0.385  64.296  1.00 83.55 LIG-0.36  OA
ATOM     37 HH   TYR P   8      75.976   0.812  65.002  1.00 83.55 LIG 0.22  HD
ENDBRANCH 33 36
ENDBRANCH 29 30
ENDBRANCH 1 29
BRANCH 1 38
ATOM     38  N   TYR P   8      81.687  -3.251  60.583  1.00 59.31 LIG-0.35  N 
ATOM     39  C   VAL P   7      81.662  -4.569  60.403  1.00 65.10 LIG 0.24  C 
ATOM     40 O    VAL P   7      80.646  -5.254  60.577  1.00 66.40 LIG-0.27  OA
ATOM     41 H    TYR P   8      82.402  -2.778  60.511  1.00 59.31 LIG 0.16  HD
BRANCH 39 42
ATOM     42  CA  VAL P   7      82.971  -5.215  59.969  1.00 68.90 LIG 0.18  C 
BRANCH 42 43
ATOM     43  N   VAL P   7      82.807  -6.663  59.974  1.00 69.26 LIG-0.34  N 
ATOM     44  C   LEU P   6      83.544  -7.470  60.731  1.00 74.59 LIG 0.26  C 
ATOM     45 O    LEU P   6      84.399  -7.051  61.516  1.00 73.78 LIG-0.27  OA
ATOM     46 H    VAL P   7      82.190  -6.944  59.445  1.00 69.26 LIG 0.16  HD
BRANCH 44 47
ATOM     47  CA  LEU P   6      83.252  -8.966  60.583  1.00 78.06 LIG 0.40  C 
ATOM     48  N   LEU P   6      83.381  -9.642  61.868  1.00 74.40 LIG 0.61  N 
BRANCH 47 49
ATOM     49  CB  LEU P   6      81.856  -9.205  59.992  1.00 78.52 LIG 0.06  C 
BRANCH 49 50
ATOM     50  CG  LEU P   6      81.651  -9.330  58.479  1.00 77.43 LIG-0.02  C 
ATOM     51  CD2 LEU P   6      82.873  -8.874  57.691  1.00 73.93 LIG 0.01  C 
ATOM     52  CD1 LEU P   6      80.421  -8.533  58.100  1.00 75.78 LIG 0.01  C 
ENDBRANCH 49 50
ENDBRANCH 47 49
ENDBRANCH 44 47
ENDBRANCH 42 43
BRANCH 42 53
ATOM     53  CB  VAL P   7      83.403  -4.712  58.581  1.00 67.45 LIG 0.01  C 
ATOM     54  CG2 VAL P   7      84.597  -3.784  58.706  1.00 67.18 LIG 0.01  C 
ATOM     55  CG1 VAL P   7      82.253  -4.004  57.892  1.00 63.58 LIG 0.01  C 
ENDBRANCH 42 53
ENDBRANCH 39 42
ENDBRANCH 1 38
TORSDOF 20
ENDMDL
MODEL 56
USER: ADFR SOLUTION from run 79
USER: SCORE 18.971656 LL:  -4.501 LR: -15.249 RR:   0.000 FEB:  -9.283
USER: RMSD 5.589884
USER: SEED 78
USER: STATUS no improvement in best in 8 clusters for 5 generations
USER: GENES 22
USER: genes 0 Translation |==|  0.41920 0.46793 0.49390
USER: genes 1 Rotation |==|  0.43227 0.63779 0.58679 0.96786
USER: genes 2 Torsion [N]-CA--C-[N] |==|  0.42221
USER: genes 3 Torsion [C]-N--CA-[CB] |==|  0.88201
USER: genes 4 Torsion [N]-CA--CB-[CG] |==|  0.56123
USER: genes 5 Torsion [CA]-CB--CG-[CD] |==|  0.78491
USER: genes 6 Torsion [CB]-CG--CD-[OE1] |==|  0.43052
USER: genes 7 Torsion [N]-CA--C-[N] |==|  0.82899
USER: genes 8 Torsion [C]-N--CA-[C] |==|  0.82193
USER: genes 9 Torsion [N]-CA--C-[O] |==|  0.64950
USER: genes 10 Torsion [N]-CA--CB-[CG] |==|  0.76729
USER: genes 11 Torsion [CA]-CB--CG-[CD1] |==|  0.44606
USER: genes 12 Torsion [C]-CA--CB-[CG] |==|  0.02489
USER: genes 13 Torsion [CA]-CB--CG-[CD1] |==|  0.73995
USER: genes 14 Torsion [CE1]-CZ--OH-[HH] |==|  0.89724
USER: genes 15 Torsion [C]-CA--N-[C] |==|  0.79584
USER: genes 16 Torsion [N]-C--CA-[N] |==|  0.40936
USER: genes 17 Torsion [C]-CA--N-[C] |==|  0.73458
USER: genes 18 Torsion [N]-C--CA-[N] |==|  0.27557
USER: genes 19 Torsion [C]-CA--CB-[CG] |==|  0.22164
USER: genes 20 Torsion [CA]-CB--CG-[CD2] |==|  0.79821
USER: genes 21 Torsion [C]-CA--CB-[CG2] |==|  0.31505
ROOT
ATOM      1  CA  TYR P   8      80.731  -2.889  60.630  1.00 57.99 LIG 0.18  C 
ENDROOT
BRANCH 1 2
ATOM      2  C   TYR P   8      79.999  -1.586  60.917  1.00 56.68 LIG 0.24  C 
ATOM      3  N   GLN P   9      78.686  -1.673  61.106  1.00 57.67 LIG-0.35  N 
ATOM      4 H    GLN P   9      78.237  -2.401  61.018  1.00 57.67 LIG 0.16  HD
ATOM      5 O    TYR P   8      80.621  -0.520  60.965  1.00 54.26 LIG-0.27  OA
BRANCH 3 6
ATOM      6  CA  GLN P   9      77.884  -0.518  61.486  1.00 54.86 LIG 0.18  C 
BRANCH 6 7
ATOM      7  CB  GLN P   9      78.591   0.315  62.552  1.00 52.41 LIG 0.04  C 
BRANCH 7 8
ATOM      8  CG  GLN P   9      77.656   1.191  63.368  1.00 53.63 LIG 0.10  C 
BRANCH 8 9
ATOM      9  CD  GLN P   9      77.230   2.431  62.615  1.00 56.56 LIG 0.21  C 
ATOM     10 OE1  GLN P   9      76.173   3.000  62.889  1.00 59.67 LIG-0.27  OA
ATOM     11  NE2 GLN P   9      78.049   2.858  61.660  1.00 58.55 LIG-0.37  N 
ATOM     12 22HE GLN P   9      77.849   3.560  61.204  1.00 58.55 LIG 0.16  HD
ATOM     13 21HE GLN P   9      78.778   2.434  61.498  1.00 58.55 LIG 0.16  HD
ENDBRANCH 8 9
ENDBRANCH 7 8
ENDBRANCH 6 7
BRANCH 6 14
ATOM     14  C   GLN P   9      77.608   0.321  60.245  1.00 54.72 LIG 0.24  C 
ATOM     15 O    GLN P   9      76.448   0.513  59.865  1.00 59.60 LIG-0.27  OA
ATOM     16  N   PHE P  10      78.668   0.828  59.624  1.00 49.02 LIG-0.34  N 
ATOM     17 H    PHE P  10      79.478   0.746  59.902  1.00 49.02 LIG 0.16  HD
BRANCH 16 18
ATOM     18  CA  PHE P  10      78.522   1.583  58.387  1.00 50.33 LIG 0.19  C 
BRANCH 18 19
ATOM     19  C   PHE P  10      77.974   0.713  57.262  1.00 49.91 LIG 0.20  C 
ATOM     20 O    PHE P  10      78.572   0.635  56.186  1.00 45.93 LIG-0.65  OA
ATOM     21 OXT  PHE P  10      76.924   0.083  57.401  1.00 46.36 LIG-0.65  OA
ENDBRANCH 18 19
BRANCH 18 22
ATOM     22  CB  PHE P  10      79.854   2.214  57.975  1.00 51.88 LIG 0.07  C 
BRANCH 22 23
ATOM     23  CG  PHE P  10      80.152   3.529  58.647  1.00 51.17 LIG-0.06  A 
ATOM     24  CD1 PHE P  10      81.447   4.018  58.698  1.00 49.53 LIG 0.01  A 
ATOM     25  CE1 PHE P  10      81.724   5.216  59.325  1.00 54.45 LIG 0.00  A 
ATOM     26  CZ  PHE P  10      80.708   5.932  59.927  1.00 54.40 LIG 0.00  A 
ATOM     27  CE2 PHE P  10      79.416   5.454  59.889  1.00 52.97 LIG 0.00  A 
ATOM     28  CD2 PHE P  10      79.142   4.254  59.259  1.00 50.02 LIG 0.01  A 
ENDBRANCH 22 23
ENDBRANCH 18 22
ENDBRANCH 16 18
ENDBRANCH 6 14
ENDBRANCH 3 6
ENDBRANCH 1 2
BRANCH 1 29
ATOM     29  CB  TYR P   8      81.111  -3.574  61.942  1.00 54.61 LIG 0.07  C 
BRANCH 29 30
ATOM     30  CG  TYR P   8      80.510  -2.947  63.177  1.00 66.64 LIG-0.06  A 
ATOM     31  CD1 TYR P   8      81.208  -1.989  63.900  1.00 68.29 LIG 0.01  A 
ATOM     32  CE1 TYR P   8      80.667  -1.417  65.032  1.00 71.89 LIG 0.04  A 
ATOM     33  CZ  TYR P   8      79.413  -1.805  65.457  1.00 71.50 LIG 0.07  A 
ATOM     34  CE2 TYR P   8      78.702  -2.757  64.759  1.00 69.11 LIG 0.04  A 
ATOM     35  CD2 TYR P   8      79.253  -3.324  63.628  1.00 65.21 LIG 0.01  A 
BRANCH 33 36
ATOM     36 OH   TYR P   8      78.870  -1.238  66.586  1.00 83.55 LIG-0.36  OA
ATOM     37 HH   TYR P   8      79.475  -1.110  67.154  1.00 83.55 LIG 0.22  HD
ENDBRANCH 33 36
ENDBRANCH 29 30
ENDBRANCH 1 29
BRANCH 1 38
ATOM     38  N   TYR P   8      81.910  -2.596  59.828  1.00 59.31 LIG-0.35  N 
ATOM     39  C   VAL P   7      81.845  -2.269  58.540  1.00 65.10 LIG 0.24  C 
ATOM     40 O    VAL P   7      80.785  -2.257  57.901  1.00 66.40 LIG-0.27  OA
ATOM     41 H    TYR P   8      82.650  -2.653  60.263  1.00 59.31 LIG 0.16  HD
BRANCH 39 42
ATOM     42  CA  VAL P   7      83.162  -1.908  57.868  1.00 68.90 LIG 0.18  C 
BRANCH 42 43
ATOM     43  N   VAL P   7      83.111  -2.327  56.474  1.00 69.26 LIG-0.34  N 
ATOM     44  C   LEU P   6      83.602  -3.488  56.050  1.00 74.59 LIG 0.26  C 
ATOM     45 O    LEU P   6      84.103  -4.317  56.814  1.00 73.78 LIG-0.27  OA
ATOM     46 H    VAL P   7      82.734  -1.756  55.953  1.00 69.26 LIG 0.16  HD
BRANCH 44 47
ATOM     47  CA  LEU P   6      83.486  -3.747  54.546  1.00 78.06 LIG 0.40  C 
ATOM     48  N   LEU P   6      84.746  -3.449  53.876  1.00 74.40 LIG 0.61  N 
BRANCH 47 49
ATOM     49  CB  LEU P   6      83.057  -5.192  54.260  1.00 78.52 LIG 0.06  C 
BRANCH 49 50
ATOM     50  CG  LEU P   6      81.590  -5.618  54.375  1.00 77.43 LIG-0.02  C 
ATOM     51  CD2 LEU P   6      81.125  -5.699  55.824  1.00 73.93 LIG 0.01  C 
ATOM     52  CD1 LEU P   6      81.424  -6.945  53.666  1.00 75.78 LIG 0.01  C 
ENDBRANCH 49 50
ENDBRANCH 47 49
ENDBRANCH 44 47
ENDBRANCH 42 43
BRANCH 42 53
ATOM     53  CB  VAL P   7      83.447  -0.401  57.982  1.00 67.45 LIG 0.01  C 
ATOM     54  CG2 VAL P   7      84.660  -0.160  58.863  1.00 67.18 LIG 0.01  C 
ATOM     55  CG1 VAL P   7      82.238   0.327  58.537  1.00 63.58 LIG 0.01  C 
ENDBRANCH 42 53
ENDBRANCH 39 42
ENDBRANCH 1 38
TORSDOF 20
ENDMDL
MODEL 57
USER: ADFR SOLUTION from run 68
USER: SCORE 19.260197 LL:  -4.798 LR: -15.241 RR:   0.000 FEB:  -9.275
USER: RMSD 5.711354
USER: SEED 67
USER: STATUS no improvement in best in 8 clusters for 5 generations
USER: GENES 22
USER: genes 0 Translation |==|  0.46026 0.44814 0.41905
USER: genes 1 Rotation |==|  0.79859 0.32051 0.38813 0.84075
USER: genes 2 Torsion [N]-CA--C-[N] |==|  0.43231
USER: genes 3 Torsion [C]-N--CA-[CB] |==|  0.22405
USER: genes 4 Torsion [N]-CA--CB-[CG] |==|  0.72866
USER: genes 5 Torsion [CA]-CB--CG-[CD] |==|  0.82651
USER: genes 6 Torsion [CB]-CG--CD-[OE1] |==|  0.81403
USER: genes 7 Torsion [N]-CA--C-[N] |==|  0.99477
USER: genes 8 Torsion [C]-N--CA-[C] |==|  0.77445
USER: genes 9 Torsion [N]-CA--C-[O] |==|  0.25245
USER: genes 10 Torsion [N]-CA--CB-[CG] |==|  0.73163
USER: genes 11 Torsion [CA]-CB--CG-[CD1] |==|  0.83432
USER: genes 12 Torsion [C]-CA--CB-[CG] |==|  0.53861
USER: genes 13 Torsion [CA]-CB--CG-[CD1] |==|  0.73555
USER: genes 14 Torsion [CE1]-CZ--OH-[HH] |==|  0.35091
USER: genes 15 Torsion [C]-CA--N-[C] |==|  0.64570
USER: genes 16 Torsion [N]-C--CA-[N] |==|  0.07696
USER: genes 17 Torsion [C]-CA--N-[C] |==|  0.66116
USER: genes 18 Torsion [N]-C--CA-[N] |==|  0.43877
USER: genes 19 Torsion [C]-CA--CB-[CG] |==|  0.16700
USER: genes 20 Torsion [CA]-CB--CG-[CD2] |==|  0.58783
USER: genes 21 Torsion [C]-CA--CB-[CG2] |==|  0.78445
ROOT
ATOM      1  CA  TYR P   8      81.655  -3.334  59.283  1.00 57.99 LIG 0.18  C 
ENDROOT
BRANCH 1 2
ATOM      2  C   TYR P   8      80.954  -2.991  60.589  1.00 56.68 LIG 0.24  C 
ATOM      3  N   GLN P   9      80.462  -1.760  60.692  1.00 57.67 LIG-0.35  N 
ATOM      4 H    GLN P   9      80.571  -1.150  60.096  1.00 57.67 LIG 0.16  HD
ATOM      5 O    TYR P   8      80.862  -3.835  61.487  1.00 54.26 LIG-0.27  OA
BRANCH 3 6
ATOM      6  CA  GLN P   9      79.682  -1.336  61.847  1.00 54.86 LIG 0.18  C 
BRANCH 6 7
ATOM      7  CB  GLN P   9      80.590  -0.969  63.018  1.00 52.41 LIG 0.04  C 
BRANCH 7 8
ATOM      8  CG  GLN P   9      80.758  -2.082  64.037  1.00 53.63 LIG 0.10  C 
BRANCH 8 9
ATOM      9  CD  GLN P   9      79.451  -2.456  64.699  1.00 56.56 LIG 0.21  C 
ATOM     10 OE1  GLN P   9      78.875  -1.663  65.443  1.00 59.67 LIG-0.27  OA
ATOM     11  NE2 GLN P   9      78.973  -3.667  64.433  1.00 58.55 LIG-0.37  N 
ATOM     12 22HE GLN P   9      78.233  -3.925  64.786  1.00 58.55 LIG 0.16  HD
ATOM     13 21HE GLN P   9      79.405  -4.193  63.907  1.00 58.55 LIG 0.16  HD
ENDBRANCH 8 9
ENDBRANCH 7 8
ENDBRANCH 6 7
BRANCH 6 14
ATOM     14  C   GLN P   9      78.815  -0.149  61.447  1.00 54.72 LIG 0.24  C 
ATOM     15 O    GLN P   9      78.047   0.368  62.266  1.00 59.60 LIG-0.27  OA
ATOM     16  N   PHE P  10      78.947   0.289  60.200  1.00 49.02 LIG-0.34  N 
ATOM     17 H    PHE P  10      79.512  -0.026  59.633  1.00 49.02 LIG 0.16  HD
BRANCH 16 18
ATOM     18  CA  PHE P  10      78.114   1.370  59.693  1.00 50.33 LIG 0.19  C 
BRANCH 18 19
ATOM     19  C   PHE P  10      76.742   0.865  59.262  1.00 49.91 LIG 0.20  C 
ATOM     20 O    PHE P  10      75.805   0.846  60.062  1.00 45.93 LIG-0.65  OA
ATOM     21 OXT  PHE P  10      76.549   0.458  58.115  1.00 46.36 LIG-0.65  OA
ENDBRANCH 18 19
BRANCH 18 22
ATOM     22  CB  PHE P  10      78.806   2.093  58.534  1.00 51.88 LIG 0.07  C 
BRANCH 22 23
ATOM     23  CG  PHE P  10      79.543   3.343  58.935  1.00 51.17 LIG-0.06  A 
ATOM     24  CD1 PHE P  10      78.871   4.397  59.531  1.00 49.53 LIG 0.01  A 
ATOM     25  CE1 PHE P  10      79.541   5.551  59.886  1.00 54.45 LIG 0.00  A 
ATOM     26  CZ  PHE P  10      80.893   5.670  59.631  1.00 54.40 LIG 0.00  A 
ATOM     27  CE2 PHE P  10      81.573   4.632  59.032  1.00 52.97 LIG 0.00  A 
ATOM     28  CD2 PHE P  10      80.898   3.479  58.678  1.00 50.02 LIG 0.01  A 
ENDBRANCH 22 23
ENDBRANCH 18 22
ENDBRANCH 16 18
ENDBRANCH 6 14
ENDBRANCH 3 6
ENDBRANCH 1 2
BRANCH 1 29
ATOM     29  CB  TYR P   8      80.625  -3.724  58.223  1.00 54.61 LIG 0.07  C 
BRANCH 29 30
ATOM     30  CG  TYR P   8      81.204  -4.396  57.001  1.00 66.64 LIG-0.06  A 
ATOM     31  CD1 TYR P   8      81.510  -3.661  55.863  1.00 68.29 LIG 0.01  A 
ATOM     32  CE1 TYR P   8      82.034  -4.269  54.742  1.00 71.89 LIG 0.04  A 
ATOM     33  CZ  TYR P   8      82.253  -5.631  54.747  1.00 71.50 LIG 0.07  A 
ATOM     34  CE2 TYR P   8      81.953  -6.383  55.863  1.00 69.11 LIG 0.04  A 
ATOM     35  CD2 TYR P   8      81.429  -5.765  56.979  1.00 65.21 LIG 0.01  A 
BRANCH 33 36
ATOM     36 OH   TYR P   8      82.774  -6.242  53.631  1.00 83.55 LIG-0.36  OA
ATOM     37 HH   TYR P   8      83.455  -6.685  53.846  1.00 83.55 LIG 0.22  HD
ENDBRANCH 33 36
ENDBRANCH 29 30
ENDBRANCH 1 29
BRANCH 1 38
ATOM     38  N   TYR P   8      82.595  -4.418  59.528  1.00 59.31 LIG-0.35  N 
ATOM     39  C   VAL P   7      83.877  -4.355  59.178  1.00 65.10 LIG 0.24  C 
ATOM     40 O    VAL P   7      84.360  -3.401  58.554  1.00 66.40 LIG-0.27  OA
ATOM     41 H    TYR P   8      82.245  -5.100  59.918  1.00 59.31 LIG 0.16  HD
BRANCH 39 42
ATOM     42  CA  VAL P   7      84.746  -5.538  59.584  1.00 68.90 LIG 0.18  C 
BRANCH 42 43
ATOM     43  N   VAL P   7      83.910  -6.728  59.675  1.00 69.26 LIG-0.34  N 
ATOM     44  C   LEU P   6      83.799  -7.449  60.787  1.00 74.59 LIG 0.26  C 
ATOM     45 O    LEU P   6      84.365  -7.142  61.839  1.00 73.78 LIG-0.27  OA
ATOM     46 H    VAL P   7      83.498  -6.919  58.945  1.00 69.26 LIG 0.16  HD
BRANCH 44 47
ATOM     47  CA  LEU P   6      82.899  -8.684  60.687  1.00 78.06 LIG 0.40  C 
ATOM     48  N   LEU P   6      83.240  -9.651  61.723  1.00 74.40 LIG 0.61  N 
BRANCH 47 49
ATOM     49  CB  LEU P   6      81.416  -8.302  60.780  1.00 78.52 LIG 0.06  C 
BRANCH 49 50
ATOM     50  CG  LEU P   6      80.780  -7.355  59.757  1.00 77.43 LIG-0.02  C 
ATOM     51  CD2 LEU P   6      79.661  -6.517  60.365  1.00 73.93 LIG 0.01  C 
ATOM     52  CD1 LEU P   6      80.280  -8.182  58.592  1.00 75.78 LIG 0.01  C 
ENDBRANCH 49 50
ENDBRANCH 47 49
ENDBRANCH 44 47
ENDBRANCH 42 43
BRANCH 42 53
ATOM     53  CB  VAL P   7      85.900  -5.746  58.588  1.00 67.45 LIG 0.01  C 
ATOM     54  CG2 VAL P   7      85.392  -6.428  57.331  1.00 67.18 LIG 0.01  C 
ATOM     55  CG1 VAL P   7      87.007  -6.564  59.223  1.00 63.58 LIG 0.01  C 
ENDBRANCH 42 53
ENDBRANCH 39 42
ENDBRANCH 1 38
TORSDOF 20
ENDMDL
MODEL 58
USER: ADFR SOLUTION from run 13
USER: SCORE 18.443504 LL:  -4.474 LR: -15.244 RR:   0.000 FEB:  -9.278
USER: RMSD 5.729644
USER: SEED 346654
USER: STATUS no improvement in best in 11 clusters for 5 generations
USER: GENES 22
USER: genes 0 Translation |==|  0.46254 0.51364 0.42339
USER: genes 1 Rotation |==|  0.77854 0.15954 0.29441 0.61930
USER: genes 2 Torsion [N]-CA--C-[N] |==|  0.93320
USER: genes 3 Torsion [C]-N--CA-[CB] |==|  0.90556
USER: genes 4 Torsion [N]-CA--CB-[CG] |==|  0.57469
USER: genes 5 Torsion [CA]-CB--CG-[CD] |==|  0.31802
USER: genes 6 Torsion [CB]-CG--CD-[OE1] |==|  0.27209
USER: genes 7 Torsion [N]-CA--C-[N] |==|  0.76117
USER: genes 8 Torsion [C]-N--CA-[C] |==|  0.59106
USER: genes 9 Torsion [N]-CA--C-[O] |==|  0.17623
USER: genes 10 Torsion [N]-CA--CB-[CG] |==|  0.83047
USER: genes 11 Torsion [CA]-CB--CG-[CD1] |==|  0.71963
USER: genes 12 Torsion [C]-CA--CB-[CG] |==|  0.81062
USER: genes 13 Torsion [CA]-CB--CG-[CD1] |==|  0.72453
USER: genes 14 Torsion [CE1]-CZ--OH-[HH] |==|  0.10183
USER: genes 15 Torsion [C]-CA--N-[C] |==|  0.82946
USER: genes 16 Torsion [N]-C--CA-[N] |==|  0.43170
USER: genes 17 Torsion [C]-CA--N-[C] |==|  0.57685
USER: genes 18 Torsion [N]-C--CA-[N] |==|  0.50070
USER: genes 19 Torsion [C]-CA--CB-[CG] |==|  0.84338
USER: genes 20 Torsion [CA]-CB--CG-[CD2] |==|  0.60785
USER: genes 21 Torsion [C]-CA--CB-[CG2] |==|  0.79009
ROOT
ATOM      1  CA  TYR P   8      81.706  -1.860  59.361  1.00 57.99 LIG 0.18  C 
ENDROOT
BRANCH 1 2
ATOM      2  C   TYR P   8      80.745  -1.307  60.403  1.00 56.68 LIG 0.24  C 
ATOM      3  N   GLN P   9      79.566  -1.912  60.503  1.00 57.67 LIG-0.35  N 
ATOM      4 H    GLN P   9      79.307  -2.544  59.980  1.00 57.67 LIG 0.16  HD
ATOM      5 O    TYR P   8      81.075  -0.345  61.106  1.00 54.26 LIG-0.27  OA
BRANCH 3 6
ATOM      6  CA  GLN P   9      78.596  -1.546  61.526  1.00 54.86 LIG 0.18  C 
BRANCH 6 7
ATOM      7  CB  GLN P   9      79.292  -1.128  62.819  1.00 52.41 LIG 0.04  C 
BRANCH 7 8
ATOM      8  CG  GLN P   9      78.456  -1.353  64.066  1.00 53.63 LIG 0.10  C 
BRANCH 8 9
ATOM      9  CD  GLN P   9      79.059  -2.397  64.980  1.00 56.56 LIG 0.21  C 
ATOM     10 OE1  GLN P   9      79.739  -2.065  65.950  1.00 59.67 LIG-0.27  OA
ATOM     11  NE2 GLN P   9      78.813  -3.667  64.676  1.00 58.55 LIG-0.37  N 
ATOM     12 22HE GLN P   9      79.135  -4.297  65.165  1.00 58.55 LIG 0.16  HD
ATOM     13 21HE GLN P   9      78.333  -3.860  63.989  1.00 58.55 LIG 0.16  HD
ENDBRANCH 8 9
ENDBRANCH 7 8
ENDBRANCH 6 7
BRANCH 6 14
ATOM     14  C   GLN P   9      77.723  -0.415  60.996  1.00 54.72 LIG 0.24  C 
ATOM     15 O    GLN P   9      76.638  -0.663  60.459  1.00 59.60 LIG-0.27  OA
ATOM     16  N   PHE P  10      78.188   0.818  61.157  1.00 49.02 LIG-0.34  N 
ATOM     17 H    PHE P  10      78.917   1.012  61.571  1.00 49.02 LIG 0.16  HD
BRANCH 16 18
ATOM     18  CA  PHE P  10      77.469   1.966  60.622  1.00 50.33 LIG 0.19  C 
BRANCH 18 19
ATOM     19  C   PHE P  10      78.423   3.073  60.190  1.00 49.91 LIG 0.20  C 
ATOM     20 O    PHE P  10      79.228   2.881  59.276  1.00 45.93 LIG-0.65  OA
ATOM     21 OXT  PHE P  10      78.415   4.171  60.750  1.00 46.36 LIG-0.65  OA
ENDBRANCH 18 19
BRANCH 18 22
ATOM     22  CB  PHE P  10      76.459   2.498  61.643  1.00 51.88 LIG 0.07  C 
BRANCH 22 23
ATOM     23  CG  PHE P  10      75.396   1.508  62.038  1.00 51.17 LIG-0.06  A 
ATOM     24  CD1 PHE P  10      74.126   1.579  61.490  1.00 49.53 LIG 0.01  A 
ATOM     25  CE1 PHE P  10      73.146   0.681  61.862  1.00 54.45 LIG 0.00  A 
ATOM     26  CZ  PHE P  10      73.421  -0.291  62.803  1.00 54.40 LIG 0.00  A 
ATOM     27  CE2 PHE P  10      74.678  -0.369  63.362  1.00 52.97 LIG 0.00  A 
ATOM     28  CD2 PHE P  10      75.658   0.531  62.987  1.00 50.02 LIG 0.01  A 
ENDBRANCH 22 23
ENDBRANCH 18 22
ENDBRANCH 16 18
ENDBRANCH 6 14
ENDBRANCH 3 6
ENDBRANCH 1 2
BRANCH 1 29
ATOM     29  CB  TYR P   8      81.633  -1.023  58.085  1.00 54.61 LIG 0.07  C 
BRANCH 29 30
ATOM     30  CG  TYR P   8      80.330  -1.139  57.331  1.00 66.64 LIG-0.06  A 
ATOM     31  CD1 TYR P   8      80.219  -1.974  56.227  1.00 68.29 LIG 0.01  A 
ATOM     32  CE1 TYR P   8      79.033  -2.080  55.530  1.00 71.89 LIG 0.04  A 
ATOM     33  CZ  TYR P   8      77.940  -1.341  55.932  1.00 71.50 LIG 0.07  A 
ATOM     34  CE2 TYR P   8      78.027  -0.501  57.022  1.00 69.11 LIG 0.04  A 
ATOM     35  CD2 TYR P   8      79.217  -0.401  57.711  1.00 65.21 LIG 0.01  A 
BRANCH 33 36
ATOM     36 OH   TYR P   8      76.756  -1.443  55.240  1.00 83.55 LIG-0.36  OA
ATOM     37 HH   TYR P   8      76.648  -2.237  54.987  1.00 83.55 LIG 0.22  HD
ENDBRANCH 33 36
ENDBRANCH 29 30
ENDBRANCH 1 29
BRANCH 1 38
ATOM     38  N   TYR P   8      81.362  -3.251  59.099  1.00 59.31 LIG-0.35  N 
ATOM     39  C   VAL P   7      81.401  -4.193  60.037  1.00 65.10 LIG 0.24  C 
ATOM     40 O    VAL P   7      81.801  -3.982  61.189  1.00 66.40 LIG-0.27  OA
ATOM     41 H    TYR P   8      81.132  -3.404  58.284  1.00 59.31 LIG 0.16  HD
BRANCH 39 42
ATOM     42  CA  VAL P   7      80.927  -5.579  59.621  1.00 68.90 LIG 0.18  C 
BRANCH 42 43
ATOM     43  N   VAL P   7      81.549  -6.570  60.488  1.00 69.26 LIG-0.34  N 
ATOM     44  C   LEU P   6      81.786  -7.821  60.102  1.00 74.59 LIG 0.26  C 
ATOM     45 O    LEU P   6      81.534  -8.226  58.964  1.00 73.78 LIG-0.27  OA
ATOM     46 H    VAL P   7      81.748  -6.272  61.270  1.00 69.26 LIG 0.16  HD
BRANCH 44 47
ATOM     47  CA  LEU P   6      82.420  -8.731  61.158  1.00 78.06 LIG 0.40  C 
ATOM     48  N   LEU P   6      82.636 -10.068  60.619  1.00 74.40 LIG 0.61  N 
BRANCH 47 49
ATOM     49  CB  LEU P   6      83.738  -8.145  61.680  1.00 78.52 LIG 0.06  C 
BRANCH 49 50
ATOM     50  CG  LEU P   6      84.884  -7.802  60.723  1.00 77.43 LIG-0.02  C 
ATOM     51  CD2 LEU P   6      86.248  -8.148  61.308  1.00 73.93 LIG 0.01  C 
ATOM     52  CD1 LEU P   6      84.788  -6.331  60.377  1.00 75.78 LIG 0.01  C 
ENDBRANCH 49 50
ENDBRANCH 47 49
ENDBRANCH 44 47
ENDBRANCH 42 43
BRANCH 42 53
ATOM     53  CB  VAL P   7      79.393  -5.680  59.676  1.00 67.45 LIG 0.01  C 
ATOM     54  CG2 VAL P   7      78.926  -5.796  61.116  1.00 67.18 LIG 0.01  C 
ATOM     55  CG1 VAL P   7      78.910  -6.866  58.866  1.00 63.58 LIG 0.01  C 
ENDBRANCH 42 53
ENDBRANCH 39 42
ENDBRANCH 1 38
TORSDOF 20
ENDMDL
MODEL 59
USER: ADFR SOLUTION from run 143
USER: SCORE 19.615300 LL:  -4.796 LR: -15.233 RR:   0.000 FEB:  -9.267
USER: RMSD 5.247421
USER: SEED 142
USER: STATUS no improvement in best in 9 clusters for 5 generations
USER: GENES 22
USER: genes 0 Translation |==|  0.49075 0.46544 0.42213
USER: genes 1 Rotation |==|  0.78119 0.09062 0.44659 0.52203
USER: genes 2 Torsion [N]-CA--C-[N] |==|  0.43886
USER: genes 3 Torsion [C]-N--CA-[CB] |==|  0.86667
USER: genes 4 Torsion [N]-CA--CB-[CG] |==|  0.31909
USER: genes 5 Torsion [CA]-CB--CG-[CD] |==|  0.24110
USER: genes 6 Torsion [CB]-CG--CD-[OE1] |==|  0.52079
USER: genes 7 Torsion [N]-CA--C-[N] |==|  0.36582
USER: genes 8 Torsion [C]-N--CA-[C] |==|  0.59341
USER: genes 9 Torsion [N]-CA--C-[O] |==|  0.93642
USER: genes 10 Torsion [N]-CA--CB-[CG] |==|  0.85167
USER: genes 11 Torsion [CA]-CB--CG-[CD1] |==|  0.24506
USER: genes 12 Torsion [C]-CA--CB-[CG] |==|  0.21527
USER: genes 13 Torsion [CA]-CB--CG-[CD1] |==|  0.73366
USER: genes 14 Torsion [CE1]-CZ--OH-[HH] |==|  0.94474
USER: genes 15 Torsion [C]-CA--N-[C] |==|  0.68194
USER: genes 16 Torsion [N]-C--CA-[N] |==|  0.43045
USER: genes 17 Torsion [C]-CA--N-[C] |==|  0.56048
USER: genes 18 Torsion [N]-C--CA-[N] |==|  0.44226
USER: genes 19 Torsion [C]-CA--CB-[CG] |==|  0.21544
USER: genes 20 Torsion [CA]-CB--CG-[CD2] |==|  0.76627
USER: genes 21 Torsion [C]-CA--CB-[CG2] |==|  0.31628
ROOT
ATOM      1  CA  TYR P   8      82.341  -2.945  59.338  1.00 57.99 LIG 0.18  C 
ENDROOT
BRANCH 1 2
ATOM      2  C   TYR P   8      81.127  -2.027  59.343  1.00 56.68 LIG 0.24  C 
ATOM      3  N   GLN P   9      81.300  -0.816  59.862  1.00 57.67 LIG-0.35  N 
ATOM      4 H    GLN P   9      82.030  -0.557  60.237  1.00 57.67 LIG 0.16  HD
ATOM      5 O    TYR P   8      80.050  -2.418  58.880  1.00 54.26 LIG-0.27  OA
BRANCH 3 6
ATOM      6  CA  GLN P   9      80.249   0.192  59.836  1.00 54.86 LIG 0.18  C 
BRANCH 6 7
ATOM      7  CB  GLN P   9      79.633   0.308  58.444  1.00 52.41 LIG 0.04  C 
BRANCH 7 8
ATOM      8  CG  GLN P   9      78.174  -0.109  58.382  1.00 53.63 LIG 0.10  C 
BRANCH 8 9
ATOM      9  CD  GLN P   9      77.238   1.030  58.715  1.00 56.56 LIG 0.21  C 
ATOM     10 OE1  GLN P   9      76.030   0.833  58.845  1.00 59.67 LIG-0.27  OA
ATOM     11  NE2 GLN P   9      77.788   2.232  58.856  1.00 58.55 LIG-0.37  N 
ATOM     12 22HE GLN P   9      77.296   2.911  59.045  1.00 58.55 LIG 0.16  HD
ATOM     13 21HE GLN P   9      78.636   2.330  58.757  1.00 58.55 LIG 0.16  HD
ENDBRANCH 8 9
ENDBRANCH 7 8
ENDBRANCH 6 7
BRANCH 6 14
ATOM     14  C   GLN P   9      79.187  -0.178  60.864  1.00 54.72 LIG 0.24  C 
ATOM     15 O    GLN P   9      78.743  -1.331  60.917  1.00 59.60 LIG-0.27  OA
ATOM     16  N   PHE P  10      78.793   0.789  61.685  1.00 49.02 LIG-0.34  N 
ATOM     17 H    PHE P  10      79.126   1.582  61.695  1.00 49.02 LIG 0.16  HD
BRANCH 16 18
ATOM     18  CA  PHE P  10      77.731   0.562  62.655  1.00 50.33 LIG 0.19  C 
BRANCH 18 19
ATOM     19  C   PHE P  10      76.898   1.818  62.878  1.00 49.91 LIG 0.20  C 
ATOM     20 O    PHE P  10      77.368   2.931  62.628  1.00 45.93 LIG-0.65  OA
ATOM     21 OXT  PHE P  10      75.749   1.747  63.318  1.00 46.36 LIG-0.65  OA
ENDBRANCH 18 19
BRANCH 18 22
ATOM     22  CB  PHE P  10      78.306   0.060  63.982  1.00 51.88 LIG 0.07  C 
BRANCH 22 23
ATOM     23  CG  PHE P  10      79.195  -1.149  63.855  1.00 51.17 LIG-0.06  A 
ATOM     24  CD1 PHE P  10      80.552  -1.005  63.618  1.00 49.53 LIG 0.01  A 
ATOM     25  CE1 PHE P  10      81.367  -2.112  63.487  1.00 54.45 LIG 0.00  A 
ATOM     26  CZ  PHE P  10      80.828  -3.380  63.574  1.00 54.40 LIG 0.00  A 
ATOM     27  CE2 PHE P  10      79.479  -3.538  63.803  1.00 52.97 LIG 0.00  A 
ATOM     28  CD2 PHE P  10      78.666  -2.427  63.934  1.00 50.02 LIG 0.01  A 
ENDBRANCH 22 23
ENDBRANCH 18 22
ENDBRANCH 16 18
ENDBRANCH 6 14
ENDBRANCH 3 6
ENDBRANCH 1 2
BRANCH 1 29
ATOM     29  CB  TYR P   8      83.261  -2.588  58.172  1.00 54.61 LIG 0.07  C 
BRANCH 29 30
ATOM     30  CG  TYR P   8      84.110  -1.360  58.393  1.00 66.64 LIG-0.06  A 
ATOM     31  CD1 TYR P   8      83.704  -0.119  57.917  1.00 68.29 LIG 0.01  A 
ATOM     32  CE1 TYR P   8      84.478   1.006  58.111  1.00 71.89 LIG 0.04  A 
ATOM     33  CZ  TYR P   8      85.678   0.898  58.784  1.00 71.50 LIG 0.07  A 
ATOM     34  CE2 TYR P   8      86.104  -0.322  59.261  1.00 69.11 LIG 0.04  A 
ATOM     35  CD2 TYR P   8      85.324  -1.442  59.061  1.00 65.21 LIG 0.01  A 
BRANCH 33 36
ATOM     36 OH   TYR P   8      86.452   2.018  58.979  1.00 83.55 LIG-0.36  OA
ATOM     37 HH   TYR P   8      86.230   2.611  58.427  1.00 83.55 LIG 0.22  HD
ENDBRANCH 33 36
ENDBRANCH 29 30
ENDBRANCH 1 29
BRANCH 1 38
ATOM     38  N   TYR P   8      81.884  -4.324  59.247  1.00 59.31 LIG-0.35  N 
ATOM     39  C   VAL P   7      82.060  -5.209  60.224  1.00 65.10 LIG 0.24  C 
ATOM     40 O    VAL P   7      82.687  -4.954  61.261  1.00 66.40 LIG-0.27  OA
ATOM     41 H    TYR P   8      81.492  -4.512  58.504  1.00 59.31 LIG 0.16  HD
BRANCH 39 42
ATOM     42  CA  VAL P   7      81.446  -6.586  60.006  1.00 68.90 LIG 0.18  C 
BRANCH 42 43
ATOM     43  N   VAL P   7      82.183  -7.561  60.798  1.00 69.26 LIG-0.34  N 
ATOM     44  C   LEU P   6      82.184  -8.862  60.522  1.00 74.59 LIG 0.26  C 
ATOM     45 O    LEU P   6      81.593  -9.338  59.550  1.00 73.78 LIG-0.27  OA
ATOM     46 H    VAL P   7      82.616  -7.218  61.457  1.00 69.26 LIG 0.16  HD
BRANCH 44 47
ATOM     47  CA  LEU P   6      82.991  -9.741  61.482  1.00 78.06 LIG 0.40  C 
ATOM     48  N   LEU P   6      82.547 -11.128  61.403  1.00 74.40 LIG 0.61  N 
BRANCH 47 49
ATOM     49  CB  LEU P   6      84.495  -9.645  61.195  1.00 78.52 LIG 0.06  C 
BRANCH 49 50
ATOM     50  CG  LEU P   6      85.311  -8.433  61.656  1.00 77.43 LIG-0.02  C 
ATOM     51  CD2 LEU P   6      85.226  -7.272  60.672  1.00 73.93 LIG 0.01  C 
ATOM     52  CD1 LEU P   6      86.743  -8.877  61.865  1.00 75.78 LIG 0.01  C 
ENDBRANCH 49 50
ENDBRANCH 47 49
ENDBRANCH 44 47
ENDBRANCH 42 43
BRANCH 42 53
ATOM     53  CB  VAL P   7      79.952  -6.590  60.372  1.00 67.45 LIG 0.01  C 
ATOM     54  CG2 VAL P   7      79.108  -6.821  59.132  1.00 67.18 LIG 0.01  C 
ATOM     55  CG1 VAL P   7      79.566  -5.285  61.039  1.00 63.58 LIG 0.01  C 
ENDBRANCH 42 53
ENDBRANCH 39 42
ENDBRANCH 1 38
TORSDOF 20
ENDMDL
MODEL 60
USER: ADFR SOLUTION from run 132
USER: SCORE 17.684101 LL:  -3.478 LR: -15.219 RR:   0.000 FEB:  -9.253
USER: RMSD 8.112374
USER: SEED 131
USER: STATUS no improvement in best in 6 clusters for 5 generations
USER: GENES 22
USER: genes 0 Translation |==|  0.28563 0.68260 0.46287
USER: genes 1 Rotation |==|  0.34903 0.56429 0.38013 0.95684
USER: genes 2 Torsion [N]-CA--C-[N] |==|  0.85784
USER: genes 3 Torsion [C]-N--CA-[CB] |==|  0.56446
USER: genes 4 Torsion [N]-CA--CB-[CG] |==|  0.43870
USER: genes 5 Torsion [CA]-CB--CG-[CD] |==|  0.56334
USER: genes 6 Torsion [CB]-CG--CD-[OE1] |==|  0.68567
USER: genes 7 Torsion [N]-CA--C-[N] |==|  0.32298
USER: genes 8 Torsion [C]-N--CA-[C] |==|  0.74446
USER: genes 9 Torsion [N]-CA--C-[O] |==|  0.56263
USER: genes 10 Torsion [N]-CA--CB-[CG] |==|  0.65827
USER: genes 11 Torsion [CA]-CB--CG-[CD1] |==|  0.02914
USER: genes 12 Torsion [C]-CA--CB-[CG] |==|  0.35943
USER: genes 13 Torsion [CA]-CB--CG-[CD1] |==|  0.26576
USER: genes 14 Torsion [CE1]-CZ--OH-[HH] |==|  0.02783
USER: genes 15 Torsion [C]-CA--N-[C] |==|  0.65006
USER: genes 16 Torsion [N]-C--CA-[N] |==|  0.32080
USER: genes 17 Torsion [C]-CA--N-[C] |==|  0.74096
USER: genes 18 Torsion [N]-C--CA-[N] |==|  0.75236
USER: genes 19 Torsion [C]-CA--CB-[CG] |==|  0.74635
USER: genes 20 Torsion [CA]-CB--CG-[CD2] |==|  0.70269
USER: genes 21 Torsion [C]-CA--CB-[CG2] |==|  0.54153
ROOT
ATOM      1  CA  TYR P   8      77.726   1.942  60.072  1.00 57.99 LIG 0.18  C 
ENDROOT
BRANCH 1 2
ATOM      2  C   TYR P   8      78.019   3.323  59.505  1.00 56.68 LIG 0.24  C 
ATOM      3  N   GLN P   9      79.086   3.949  59.991  1.00 57.67 LIG-0.35  N 
ATOM      4 H    GLN P   9      79.569   3.643  60.634  1.00 57.67 LIG 0.16  HD
ATOM      5 O    TYR P   8      77.284   3.809  58.639  1.00 54.26 LIG-0.27  OA
BRANCH 3 6
ATOM      6  CA  GLN P   9      79.534   5.231  59.464  1.00 54.86 LIG 0.18  C 
BRANCH 6 7
ATOM      7  CB  GLN P   9      81.016   5.456  59.753  1.00 52.41 LIG 0.04  C 
BRANCH 7 8
ATOM      8  CG  GLN P   9      81.678   6.458  58.824  1.00 53.63 LIG 0.10  C 
BRANCH 8 9
ATOM      9  CD  GLN P   9      83.176   6.267  58.747  1.00 56.56 LIG 0.21  C 
ATOM     10 OE1  GLN P   9      83.942   7.120  59.195  1.00 59.67 LIG-0.27  OA
ATOM     11  NE2 GLN P   9      83.604   5.144  58.179  1.00 58.55 LIG-0.37  N 
ATOM     12 22HE GLN P   9      84.448   4.991  58.112  1.00 58.55 LIG 0.16  HD
ATOM     13 21HE GLN P   9      83.038   4.572  57.878  1.00 58.55 LIG 0.16  HD
ENDBRANCH 8 9
ENDBRANCH 7 8
ENDBRANCH 6 7
BRANCH 6 14
ATOM     14  C   GLN P   9      79.268   5.268  57.965  1.00 54.72 LIG 0.24  C 
ATOM     15 O    GLN P   9      79.835   4.470  57.210  1.00 59.60 LIG-0.27  OA
ATOM     16  N   PHE P  10      78.401   6.179  57.538  1.00 49.02 LIG-0.34  N 
ATOM     17 H    PHE P  10      77.960   6.708  58.054  1.00 49.02 LIG 0.16  HD
BRANCH 16 18
ATOM     18  CA  PHE P  10      78.129   6.348  56.117  1.00 50.33 LIG 0.19  C 
BRANCH 18 19
ATOM     19  C   PHE P  10      79.037   7.402  55.496  1.00 49.91 LIG 0.20  C 
ATOM     20 O    PHE P  10      78.706   7.976  54.456  1.00 45.93 LIG-0.65  OA
ATOM     21 OXT  PHE P  10      80.119   7.691  56.012  1.00 46.36 LIG-0.65  OA
ENDBRANCH 18 19
BRANCH 18 22
ATOM     22  CB  PHE P  10      76.659   6.704  55.884  1.00 51.88 LIG 0.07  C 
BRANCH 22 23
ATOM     23  CG  PHE P  10      75.929   5.757  54.968  1.00 51.17 LIG-0.06  A 
ATOM     24  CD1 PHE P  10      76.510   4.559  54.584  1.00 49.53 LIG 0.01  A 
ATOM     25  CE1 PHE P  10      75.849   3.696  53.733  1.00 54.45 LIG 0.00  A 
ATOM     26  CZ  PHE P  10      74.603   4.030  53.241  1.00 54.40 LIG 0.00  A 
ATOM     27  CE2 PHE P  10      74.016   5.221  53.610  1.00 52.97 LIG 0.00  A 
ATOM     28  CD2 PHE P  10      74.681   6.083  54.462  1.00 50.02 LIG 0.01  A 
ENDBRANCH 22 23
ENDBRANCH 18 22
ENDBRANCH 16 18
ENDBRANCH 6 14
ENDBRANCH 3 6
ENDBRANCH 1 2
BRANCH 1 29
ATOM     29  CB  TYR P   8      77.234   2.060  61.514  1.00 54.61 LIG 0.07  C 
BRANCH 29 30
ATOM     30  CG  TYR P   8      75.956   1.313  61.806  1.00 66.64 LIG-0.06  A 
ATOM     31  CD1 TYR P   8      75.987   0.035  62.350  1.00 68.29 LIG 0.01  A 
ATOM     32  CE1 TYR P   8      74.823  -0.655  62.615  1.00 71.89 LIG 0.04  A 
ATOM     33  CZ  TYR P   8      73.606  -0.070  62.330  1.00 71.50 LIG 0.07  A 
ATOM     34  CE2 TYR P   8      73.549   1.195  61.786  1.00 69.11 LIG 0.04  A 
ATOM     35  CD2 TYR P   8      74.719   1.877  61.524  1.00 65.21 LIG 0.01  A 
BRANCH 33 36
ATOM     36 OH   TYR P   8      72.443  -0.755  62.592  1.00 83.55 LIG-0.36  OA
ATOM     37 HH   TYR P   8      72.618  -1.443  63.042  1.00 83.55 LIG 0.22  HD
ENDBRANCH 33 36
ENDBRANCH 29 30
ENDBRANCH 1 29
BRANCH 1 38
ATOM     38  N   TYR P   8      78.937   1.137  59.993  1.00 59.31 LIG-0.35  N 
ATOM     39  C   VAL P   7      78.976  -0.053  59.401  1.00 65.10 LIG 0.24  C 
ATOM     40 O    VAL P   7      77.973  -0.606  58.932  1.00 66.40 LIG-0.27  OA
ATOM     41 H    TYR P   8      79.622   1.503  60.363  1.00 59.31 LIG 0.16  HD
BRANCH 39 42
ATOM     42  CA  VAL P   7      80.340  -0.725  59.328  1.00 68.90 LIG 0.18  C 
BRANCH 42 43
ATOM     43  N   VAL P   7      80.307  -1.948  60.120  1.00 69.26 LIG-0.34  N 
ATOM     44  C   LEU P   6      80.682  -1.992  61.395  1.00 74.59 LIG 0.26  C 
ATOM     45 O    LEU P   6      81.049  -0.992  62.017  1.00 73.78 LIG-0.27  OA
ATOM     46 H    VAL P   7      80.023  -2.634  59.687  1.00 69.26 LIG 0.16  HD
BRANCH 44 47
ATOM     47  CA  LEU P   6      80.607  -3.370  62.059  1.00 78.06 LIG 0.40  C 
ATOM     48  N   LEU P   6      79.292  -3.583  62.650  1.00 74.40 LIG 0.61  N 
BRANCH 47 49
ATOM     49  CB  LEU P   6      80.933  -4.488  61.061  1.00 78.52 LIG 0.06  C 
BRANCH 49 50
ATOM     50  CG  LEU P   6      79.826  -5.169  60.250  1.00 77.43 LIG-0.02  C 
ATOM     51  CD2 LEU P   6      79.539  -6.584  60.740  1.00 73.93 LIG 0.01  C 
ATOM     52  CD1 LEU P   6      80.232  -5.162  58.792  1.00 75.78 LIG 0.01  C 
ENDBRANCH 49 50
ENDBRANCH 47 49
ENDBRANCH 44 47
ENDBRANCH 42 43
BRANCH 42 53
ATOM     53  CB  VAL P   7      80.735  -1.021  57.871  1.00 67.45 LIG 0.01  C 
ATOM     54  CG2 VAL P   7      81.894  -2.001  57.828  1.00 67.18 LIG 0.01  C 
ATOM     55  CG1 VAL P   7      81.100   0.261  57.150  1.00 63.58 LIG 0.01  C 
ENDBRANCH 42 53
ENDBRANCH 39 42
ENDBRANCH 1 38
TORSDOF 20
ENDMDL
MODEL 61
USER: ADFR SOLUTION from run 19
USER: SCORE 18.396805 LL:  -4.599 LR: -15.221 RR:   0.000 FEB:  -9.255
USER: RMSD 6.608129
USER: SEED 18
USER: STATUS no improvement in best in 7 clusters for 5 generations
USER: GENES 22
USER: genes 0 Translation |==|  0.41548 0.46983 0.50227
USER: genes 1 Rotation |==|  0.43324 0.63412 0.58624 0.96917
USER: genes 2 Torsion [N]-CA--C-[N] |==|  0.41667
USER: genes 3 Torsion [C]-N--CA-[CB] |==|  0.88078
USER: genes 4 Torsion [N]-CA--CB-[CG] |==|  0.56225
USER: genes 5 Torsion [CA]-CB--CG-[CD] |==|  0.80654
USER: genes 6 Torsion [CB]-CG--CD-[OE1] |==|  0.39396
USER: genes 7 Torsion [N]-CA--C-[N] |==|  0.82797
USER: genes 8 Torsion [C]-N--CA-[C] |==|  0.83031
USER: genes 9 Torsion [N]-CA--C-[O] |==|  0.66063
USER: genes 10 Torsion [N]-CA--CB-[CG] |==|  0.75679
USER: genes 11 Torsion [CA]-CB--CG-[CD1] |==|  0.95378
USER: genes 12 Torsion [C]-CA--CB-[CG] |==|  0.02272
USER: genes 13 Torsion [CA]-CB--CG-[CD1] |==|  0.23120
USER: genes 14 Torsion [CE1]-CZ--OH-[HH] |==|  0.94547
USER: genes 15 Torsion [C]-CA--N-[C] |==|  0.84032
USER: genes 16 Torsion [N]-C--CA-[N] |==|  0.69621
USER: genes 17 Torsion [C]-CA--N-[C] |==|  0.66907
USER: genes 18 Torsion [N]-C--CA-[N] |==|  0.26078
USER: genes 19 Torsion [C]-CA--CB-[CG] |==|  0.58425
USER: genes 20 Torsion [CA]-CB--CG-[CD2] |==|  0.60458
USER: genes 21 Torsion [C]-CA--CB-[CG2] |==|  0.61246
ROOT
ATOM      1  CA  TYR P   8      80.647  -2.846  60.781  1.00 57.99 LIG 0.18  C 
ENDROOT
BRANCH 1 2
ATOM      2  C   TYR P   8      79.914  -1.543  61.064  1.00 56.68 LIG 0.24  C 
ATOM      3  N   GLN P   9      78.593  -1.622  61.193  1.00 57.67 LIG-0.35  N 
ATOM      4 H    GLN P   9      78.143  -2.345  61.068  1.00 57.67 LIG 0.16  HD
ATOM      5 O    TYR P   8      80.542  -0.484  61.165  1.00 54.26 LIG-0.27  OA
BRANCH 3 6
ATOM      6  CA  GLN P   9      77.784  -0.469  61.564  1.00 54.86 LIG 0.18  C 
BRANCH 6 7
ATOM      7  CB  GLN P   9      78.444   0.326  62.687  1.00 52.41 LIG 0.04  C 
BRANCH 7 8
ATOM      8  CG  GLN P   9      77.476   1.183  63.484  1.00 53.63 LIG 0.10  C 
BRANCH 8 9
ATOM      9  CD  GLN P   9      76.947   2.349  62.679  1.00 56.56 LIG 0.21  C 
ATOM     10 OE1  GLN P   9      75.775   2.708  62.790  1.00 59.67 LIG-0.27  OA
ATOM     11  NE2 GLN P   9      77.807   2.948  61.862  1.00 58.55 LIG-0.37  N 
ATOM     12 22HE GLN P   9      77.552   3.616  61.384  1.00 58.55 LIG 0.16  HD
ATOM     13 21HE GLN P   9      78.618   2.668  61.812  1.00 58.55 LIG 0.16  HD
ENDBRANCH 8 9
ENDBRANCH 7 8
ENDBRANCH 6 7
BRANCH 6 14
ATOM     14  C   GLN P   9      77.580   0.406  60.334  1.00 54.72 LIG 0.24  C 
ATOM     15 O    GLN P   9      76.443   0.615  59.897  1.00 59.60 LIG-0.27  OA
ATOM     16  N   PHE P  10      78.674   0.923  59.786  1.00 49.02 LIG-0.34  N 
ATOM     17 H    PHE P  10      79.468   0.829  60.105  1.00 49.02 LIG 0.16  HD
BRANCH 16 18
ATOM     18  CA  PHE P  10      78.599   1.713  58.565  1.00 50.33 LIG 0.19  C 
BRANCH 18 19
ATOM     19  C   PHE P  10      78.040   0.899  57.405  1.00 49.91 LIG 0.20  C 
ATOM     20 O    PHE P  10      78.695   0.756  56.370  1.00 45.93 LIG-0.65  OA
ATOM     21 OXT  PHE P  10      76.924   0.380  57.474  1.00 46.36 LIG-0.65  OA
ENDBRANCH 18 19
BRANCH 18 22
ATOM     22  CB  PHE P  10      79.972   2.287  58.203  1.00 51.88 LIG 0.07  C 
BRANCH 22 23
ATOM     23  CG  PHE P  10      80.279   3.614  58.846  1.00 51.17 LIG-0.06  A 
ATOM     24  CD1 PHE P  10      79.266   4.382  59.396  1.00 49.53 LIG 0.01  A 
ATOM     25  CE1 PHE P  10      79.543   5.606  59.973  1.00 54.45 LIG 0.00  A 
ATOM     26  CZ  PHE P  10      80.839   6.084  59.990  1.00 54.40 LIG 0.00  A 
ATOM     27  CE2 PHE P  10      81.855   5.332  59.440  1.00 52.97 LIG 0.00  A 
ATOM     28  CD2 PHE P  10      81.574   4.108  58.864  1.00 50.02 LIG 0.01  A 
ENDBRANCH 22 23
ENDBRANCH 18 22
ENDBRANCH 16 18
ENDBRANCH 6 14
ENDBRANCH 3 6
ENDBRANCH 1 2
BRANCH 1 29
ATOM     29  CB  TYR P   8      81.007  -3.540  62.094  1.00 54.61 LIG 0.07  C 
BRANCH 29 30
ATOM     30  CG  TYR P   8      80.404  -2.909  63.325  1.00 66.64 LIG-0.06  A 
ATOM     31  CD1 TYR P   8      79.106  -3.211  63.717  1.00 68.29 LIG 0.01  A 
ATOM     32  CE1 TYR P   8      78.547  -2.634  64.838  1.00 71.89 LIG 0.04  A 
ATOM     33  CZ  TYR P   8      79.287  -1.737  65.580  1.00 71.50 LIG 0.07  A 
ATOM     34  CE2 TYR P   8      80.575  -1.417  65.210  1.00 69.11 LIG 0.04  A 
ATOM     35  CD2 TYR P   8      81.124  -1.999  64.086  1.00 65.21 LIG 0.01  A 
BRANCH 33 36
ATOM     36 OH   TYR P   8      78.733  -1.158  66.698  1.00 83.55 LIG-0.36  OA
ATOM     37 HH   TYR P   8      77.896  -1.220  66.661  1.00 83.55 LIG 0.22  HD
ENDBRANCH 33 36
ENDBRANCH 29 30
ENDBRANCH 1 29
BRANCH 1 38
ATOM     38  N   TYR P   8      81.839  -2.550  59.998  1.00 59.31 LIG-0.35  N 
ATOM     39  C   VAL P   7      81.796  -1.926  58.824  1.00 65.10 LIG 0.24  C 
ATOM     40 O    VAL P   7      80.736  -1.608  58.268  1.00 66.40 LIG-0.27  OA
ATOM     41 H    TYR P   8      82.570  -2.817  60.364  1.00 59.31 LIG 0.16  HD
BRANCH 39 42
ATOM     42  CA  VAL P   7      83.137  -1.615  58.175  1.00 68.90 LIG 0.18  C 
BRANCH 42 43
ATOM     43  N   VAL P   7      83.366  -0.177  58.230  1.00 69.26 LIG-0.34  N 
ATOM     44  C   LEU P   6      83.515   0.572  57.142  1.00 74.59 LIG 0.26  C 
ATOM     45 O    LEU P   6      83.431   0.113  56.000  1.00 73.78 LIG-0.27  OA
ATOM     46 H    VAL P   7      83.395   0.139  59.029  1.00 69.26 LIG 0.16  HD
BRANCH 44 47
ATOM     47  CA  LEU P   6      83.777   2.060  57.394  1.00 78.06 LIG 0.40  C 
ATOM     48  N   LEU P   6      85.209   2.333  57.406  1.00 74.40 LIG 0.61  N 
BRANCH 47 49
ATOM     49  CB  LEU P   6      83.075   2.934  56.348  1.00 78.52 LIG 0.06  C 
BRANCH 49 50
ATOM     50  CG  LEU P   6      83.662   4.285  55.925  1.00 77.43 LIG-0.02  C 
ATOM     51  CD2 LEU P   6      82.584   5.335  55.687  1.00 73.93 LIG 0.01  C 
ATOM     52  CD1 LEU P   6      84.505   4.068  54.686  1.00 75.78 LIG 0.01  C 
ENDBRANCH 49 50
ENDBRANCH 47 49
ENDBRANCH 44 47
ENDBRANCH 42 43
BRANCH 42 53
ATOM     53  CB  VAL P   7      84.278  -2.384  58.865  1.00 67.45 LIG 0.01  C 
ATOM     54  CG2 VAL P   7      85.501  -1.496  59.005  1.00 67.18 LIG 0.01  C 
ATOM     55  CG1 VAL P   7      84.621  -3.637  58.084  1.00 63.58 LIG 0.01  C 
ENDBRANCH 42 53
ENDBRANCH 39 42
ENDBRANCH 1 38
TORSDOF 20
ENDMDL
MODEL 62
USER: ADFR SOLUTION from run 17
USER: SCORE 18.444109 LL:  -4.021 LR: -15.207 RR:   0.000 FEB:  -9.241
USER: RMSD 8.243424
USER: SEED 16
USER: STATUS no improvement in best in 5 clusters for 5 generations
USER: GENES 22
USER: genes 0 Translation |==|  0.31130 0.68428 0.33494
USER: genes 1 Rotation |==|  0.67598 0.63029 0.78996 0.84348
USER: genes 2 Torsion [N]-CA--C-[N] |==|  0.96886
USER: genes 3 Torsion [C]-N--CA-[CB] |==|  0.90376
USER: genes 4 Torsion [N]-CA--CB-[CG] |==|  0.50154
USER: genes 5 Torsion [CA]-CB--CG-[CD] |==|  0.54943
USER: genes 6 Torsion [CB]-CG--CD-[OE1] |==|  0.81092
USER: genes 7 Torsion [N]-CA--C-[N] |==|  0.83985
USER: genes 8 Torsion [C]-N--CA-[C] |==|  0.60263
USER: genes 9 Torsion [N]-CA--C-[O] |==|  0.67909
USER: genes 10 Torsion [N]-CA--CB-[CG] |==|  0.68847
USER: genes 11 Torsion [CA]-CB--CG-[CD1] |==|  0.25484
USER: genes 12 Torsion [C]-CA--CB-[CG] |==|  0.19937
USER: genes 13 Torsion [CA]-CB--CG-[CD1] |==|  0.09113
USER: genes 14 Torsion [CE1]-CZ--OH-[HH] |==|  0.99334
USER: genes 15 Torsion [C]-CA--N-[C] |==|  0.79197
USER: genes 16 Torsion [N]-C--CA-[N] |==|  0.01532
USER: genes 17 Torsion [C]-CA--N-[C] |==|  0.76111
USER: genes 18 Torsion [N]-C--CA-[N] |==|  0.75213
USER: genes 19 Torsion [C]-CA--CB-[CG] |==|  0.46950
USER: genes 20 Torsion [CA]-CB--CG-[CD2] |==|  0.76572
USER: genes 21 Torsion [C]-CA--CB-[CG2] |==|  0.85699
ROOT
ATOM      1  CA  TYR P   8      78.303   1.979  57.769  1.00 57.99 LIG 0.18  C 
ENDROOT
BRANCH 1 2
ATOM      2  C   TYR P   8      77.615   1.626  59.079  1.00 56.68 LIG 0.24  C 
ATOM      3  N   GLN P   9      77.652   2.548  60.036  1.00 57.67 LIG-0.35  N 
ATOM      4 H    GLN P   9      78.086   3.288  59.970  1.00 57.67 LIG 0.16  HD
ATOM      5 O    TYR P   8      77.057   0.532  59.215  1.00 54.26 LIG-0.27  OA
BRANCH 3 6
ATOM      6  CA  GLN P   9      76.948   2.378  61.299  1.00 54.86 LIG 0.18  C 
BRANCH 6 7
ATOM      7  CB  GLN P   9      75.635   1.625  61.099  1.00 52.41 LIG 0.04  C 
BRANCH 7 8
ATOM      8  CG  GLN P   9      74.841   1.424  62.377  1.00 53.63 LIG 0.10  C 
BRANCH 8 9
ATOM      9  CD  GLN P   9      73.798   0.338  62.240  1.00 56.56 LIG 0.21  C 
ATOM     10 OE1  GLN P   9      72.822   0.493  61.507  1.00 59.67 LIG-0.27  OA
ATOM     11  NE2 GLN P   9      73.998  -0.771  62.945  1.00 58.55 LIG-0.37  N 
ATOM     12 22HE GLN P   9      73.431  -1.417  62.900  1.00 58.55 LIG 0.16  HD
ATOM     13 21HE GLN P   9      74.692  -0.843  63.447  1.00 58.55 LIG 0.16  HD
ENDBRANCH 8 9
ENDBRANCH 7 8
ENDBRANCH 6 7
BRANCH 6 14
ATOM     14  C   GLN P   9      77.852   1.630  62.271  1.00 54.72 LIG 0.24  C 
ATOM     15 O    GLN P   9      78.141   2.128  63.365  1.00 59.60 LIG-0.27  OA
ATOM     16  N   PHE P  10      78.286   0.437  61.879  1.00 49.02 LIG-0.34  N 
ATOM     17 H    PHE P  10      78.056   0.055  61.144  1.00 49.02 LIG 0.16  HD
BRANCH 16 18
ATOM     18  CA  PHE P  10      79.214  -0.329  62.699  1.00 50.33 LIG 0.19  C 
BRANCH 18 19
ATOM     19  C   PHE P  10      80.226  -1.083  61.845  1.00 49.91 LIG 0.20  C 
ATOM     20 O    PHE P  10      80.242  -2.316  61.839  1.00 45.93 LIG-0.65  OA
ATOM     21 OXT  PHE P  10      81.049  -0.478  61.155  1.00 46.36 LIG-0.65  OA
ENDBRANCH 18 19
BRANCH 18 22
ATOM     22  CB  PHE P  10      78.459  -1.297  63.614  1.00 51.88 LIG 0.07  C 
BRANCH 22 23
ATOM     23  CG  PHE P  10      78.545  -0.962  65.079  1.00 51.17 LIG-0.06  A 
ATOM     24  CD1 PHE P  10      77.586  -0.162  65.677  1.00 49.53 LIG 0.01  A 
ATOM     25  CE1 PHE P  10      77.671   0.159  67.017  1.00 54.45 LIG 0.00  A 
ATOM     26  CZ  PHE P  10      78.730  -0.305  67.773  1.00 54.40 LIG 0.00  A 
ATOM     27  CE2 PHE P  10      79.694  -1.097  67.189  1.00 52.97 LIG 0.00  A 
ATOM     28  CD2 PHE P  10      79.606  -1.416  65.847  1.00 50.02 LIG 0.01  A 
ENDBRANCH 22 23
ENDBRANCH 18 22
ENDBRANCH 16 18
ENDBRANCH 6 14
ENDBRANCH 3 6
ENDBRANCH 1 2
BRANCH 1 29
ATOM     29  CB  TYR P   8      79.555   1.122  57.588  1.00 54.61 LIG 0.07  C 
BRANCH 29 30
ATOM     30  CG  TYR P   8      79.283  -0.329  57.273  1.00 66.64 LIG-0.06  A 
ATOM     31  CD1 TYR P   8      78.171  -0.699  56.527  1.00 68.29 LIG 0.01  A 
ATOM     32  CE1 TYR P   8      77.914  -2.024  56.240  1.00 71.89 LIG 0.04  A 
ATOM     33  CZ  TYR P   8      78.772  -2.999  56.705  1.00 71.50 LIG 0.07  A 
ATOM     34  CE2 TYR P   8      79.880  -2.657  57.451  1.00 69.11 LIG 0.04  A 
ATOM     35  CD2 TYR P   8      80.127  -1.330  57.733  1.00 65.21 LIG 0.01  A 
BRANCH 33 36
ATOM     36 OH   TYR P   8      78.519  -4.320  56.422  1.00 83.55 LIG-0.36  OA
ATOM     37 HH   TYR P   8      77.800  -4.382  55.992  1.00 83.55 LIG 0.22  HD
ENDBRANCH 33 36
ENDBRANCH 29 30
ENDBRANCH 1 29
BRANCH 1 38
ATOM     38  N   TYR P   8      78.634   3.397  57.782  1.00 59.31 LIG-0.35  N 
ATOM     39  C   VAL P   7      77.724   4.353  57.611  1.00 65.10 LIG 0.24  C 
ATOM     40 O    VAL P   7      76.536   4.114  57.359  1.00 66.40 LIG-0.27  OA
ATOM     41 H    TYR P   8      79.470   3.558  57.909  1.00 59.31 LIG 0.16  HD
BRANCH 39 42
ATOM     42  CA  VAL P   7      78.220   5.787  57.740  1.00 68.90 LIG 0.18  C 
BRANCH 42 43
ATOM     43  N   VAL P   7      79.667   5.772  57.902  1.00 69.26 LIG-0.34  N 
ATOM     44  C   LEU P   6      80.259   5.632  59.085  1.00 74.59 LIG 0.26  C 
ATOM     45 O    LEU P   6      79.628   5.463  60.131  1.00 73.78 LIG-0.27  OA
ATOM     46 H    VAL P   7      80.100   5.863  57.165  1.00 69.26 LIG 0.16  HD
BRANCH 44 47
ATOM     47  CA  LEU P   6      81.790   5.671  59.067  1.00 78.06 LIG 0.40  C 
ATOM     48  N   LEU P   6      82.334   4.333  58.866  1.00 74.40 LIG 0.61  N 
BRANCH 47 49
ATOM     49  CB  LEU P   6      82.311   6.627  57.986  1.00 78.52 LIG 0.06  C 
BRANCH 49 50
ATOM     50  CG  LEU P   6      83.789   7.029  57.934  1.00 77.43 LIG-0.02  C 
ATOM     51  CD2 LEU P   6      84.104   8.194  58.864  1.00 73.93 LIG 0.01  C 
ATOM     52  CD1 LEU P   6      84.140   7.358  56.498  1.00 75.78 LIG 0.01  C 
ENDBRANCH 49 50
ENDBRANCH 47 49
ENDBRANCH 44 47
ENDBRANCH 42 43
BRANCH 42 53
ATOM     53  CB  VAL P   7      77.808   6.626  56.518  1.00 67.45 LIG 0.01  C 
ATOM     54  CG2 VAL P   7      78.215   5.923  55.236  1.00 67.18 LIG 0.01  C 
ATOM     55  CG1 VAL P   7      78.435   8.004  56.587  1.00 63.58 LIG 0.01  C 
ENDBRANCH 42 53
ENDBRANCH 39 42
ENDBRANCH 1 38
TORSDOF 20
ENDMDL
MODEL 63
USER: ADFR SOLUTION from run 23
USER: SCORE 19.545273 LL:  -5.722 LR: -15.192 RR:   0.000 FEB:  -9.226
USER: RMSD 6.281556
USER: SEED 22
USER: STATUS no improvement in best in 4 clusters for 5 generations
USER: GENES 22
USER: genes 0 Translation |==|  0.29528 0.70799 0.31594
USER: genes 1 Rotation |==|  0.94180 0.56877 0.61524 0.69184
USER: genes 2 Torsion [N]-CA--C-[N] |==|  0.97531
USER: genes 3 Torsion [C]-N--CA-[CB] |==|  0.49298
USER: genes 4 Torsion [N]-CA--CB-[CG] |==|  0.65491
USER: genes 5 Torsion [CA]-CB--CG-[CD] |==|  0.27117
USER: genes 6 Torsion [CB]-CG--CD-[OE1] |==|  0.85477
USER: genes 7 Torsion [N]-CA--C-[N] |==|  0.81205
USER: genes 8 Torsion [C]-N--CA-[C] |==|  0.65480
USER: genes 9 Torsion [N]-CA--C-[O] |==|  0.88811
USER: genes 10 Torsion [N]-CA--CB-[CG] |==|  0.89581
USER: genes 11 Torsion [CA]-CB--CG-[CD1] |==|  0.71311
USER: genes 12 Torsion [C]-CA--CB-[CG] |==|  0.88591
USER: genes 13 Torsion [CA]-CB--CG-[CD1] |==|  0.31441
USER: genes 14 Torsion [CE1]-CZ--OH-[HH] |==|  0.95083
USER: genes 15 Torsion [C]-CA--N-[C] |==|  0.78662
USER: genes 16 Torsion [N]-C--CA-[N] |==|  0.97709
USER: genes 17 Torsion [C]-CA--N-[C] |==|  0.81634
USER: genes 18 Torsion [N]-C--CA-[N] |==|  0.13689
USER: genes 19 Torsion [C]-CA--CB-[CG] |==|  0.70082
USER: genes 20 Torsion [CA]-CB--CG-[CD2] |==|  0.58740
USER: genes 21 Torsion [C]-CA--CB-[CG2] |==|  0.87164
ROOT
ATOM      1  CA  TYR P   8      77.943   2.513  57.427  1.00 57.99 LIG 0.18  C 
ENDROOT
BRANCH 1 2
ATOM      2  C   TYR P   8      77.861   1.178  58.152  1.00 56.68 LIG 0.24  C 
ATOM      3  N   GLN P   9      78.951   0.790  58.806  1.00 57.67 LIG-0.35  N 
ATOM      4 H    GLN P   9      79.697   1.218  58.788  1.00 57.67 LIG 0.16  HD
ATOM      5 O    TYR P   8      76.820   0.513  58.117  1.00 54.26 LIG-0.27  OA
BRANCH 3 6
ATOM      6  CA  GLN P   9      78.973  -0.416  59.622  1.00 54.86 LIG 0.18  C 
BRANCH 6 7
ATOM      7  CB  GLN P   9      80.363  -0.658  60.207  1.00 52.41 LIG 0.04  C 
BRANCH 7 8
ATOM      8  CG  GLN P   9      80.941  -2.022  59.871  1.00 53.63 LIG 0.10  C 
BRANCH 8 9
ATOM      9  CD  GLN P   9      81.887  -1.969  58.693  1.00 56.56 LIG 0.21  C 
ATOM     10 OE1  GLN P   9      81.540  -1.453  57.631  1.00 59.67 LIG-0.27  OA
ATOM     11  NE2 GLN P   9      83.091  -2.504  58.872  1.00 58.55 LIG-0.37  N 
ATOM     12 22HE GLN P   9      83.664  -2.498  58.230  1.00 58.55 LIG 0.16  HD
ATOM     13 21HE GLN P   9      83.297  -2.855  59.629  1.00 58.55 LIG 0.16  HD
ENDBRANCH 8 9
ENDBRANCH 7 8
ENDBRANCH 6 7
BRANCH 6 14
ATOM     14  C   GLN P   9      77.939  -0.279  60.732  1.00 54.72 LIG 0.24  C 
ATOM     15 O    GLN P   9      76.939  -1.005  60.749  1.00 59.60 LIG-0.27  OA
ATOM     16  N   PHE P  10      78.185   0.639  61.661  1.00 49.02 LIG-0.34  N 
ATOM     17 H    PHE P  10      78.898   1.118  61.693  1.00 49.02 LIG 0.16  HD
BRANCH 16 18
ATOM     18  CA  PHE P  10      77.226   0.902  62.725  1.00 50.33 LIG 0.19  C 
BRANCH 18 19
ATOM     19  C   PHE P  10      76.829   2.373  62.769  1.00 49.91 LIG 0.20  C 
ATOM     20 O    PHE P  10      77.674   3.253  62.593  1.00 45.93 LIG-0.65  OA
ATOM     21 OXT  PHE P  10      75.663   2.708  62.990  1.00 46.36 LIG-0.65  OA
ENDBRANCH 18 19
BRANCH 18 22
ATOM     22  CB  PHE P  10      77.783   0.458  64.081  1.00 51.88 LIG 0.07  C 
BRANCH 22 23
ATOM     23  CG  PHE P  10      78.593  -0.810  64.033  1.00 51.17 LIG-0.06  A 
ATOM     24  CD1 PHE P  10      78.054  -2.008  64.473  1.00 49.53 LIG 0.01  A 
ATOM     25  CE1 PHE P  10      78.799  -3.170  64.444  1.00 54.45 LIG 0.00  A 
ATOM     26  CZ  PHE P  10      80.103  -3.143  63.990  1.00 54.40 LIG 0.00  A 
ATOM     27  CE2 PHE P  10      80.654  -1.957  63.556  1.00 52.97 LIG 0.00  A 
ATOM     28  CD2 PHE P  10      79.904  -0.796  63.586  1.00 50.02 LIG 0.01  A 
ENDBRANCH 22 23
ENDBRANCH 18 22
ENDBRANCH 16 18
ENDBRANCH 6 14
ENDBRANCH 3 6
ENDBRANCH 1 2
BRANCH 1 29
ATOM     29  CB  TYR P   8      77.870   2.293  55.917  1.00 54.61 LIG 0.07  C 
BRANCH 29 30
ATOM     30  CG  TYR P   8      78.661   1.110  55.414  1.00 66.64 LIG-0.06  A 
ATOM     31  CD1 TYR P   8      78.020   0.002  54.874  1.00 68.29 LIG 0.01  A 
ATOM     32  CE1 TYR P   8      78.737  -1.084  54.418  1.00 71.89 LIG 0.04  A 
ATOM     33  CZ  TYR P   8      80.113  -1.075  54.505  1.00 71.50 LIG 0.07  A 
ATOM     34  CE2 TYR P   8      80.773   0.010  55.041  1.00 69.11 LIG 0.04  A 
ATOM     35  CD2 TYR P   8      80.047   1.092  55.495  1.00 65.21 LIG 0.01  A 
BRANCH 33 36
ATOM     36 OH   TYR P   8      80.832  -2.157  54.052  1.00 83.55 LIG-0.36  OA
ATOM     37 HH   TYR P   8      80.323  -2.822  53.983  1.00 83.55 LIG 0.22  HD
ENDBRANCH 33 36
ENDBRANCH 29 30
ENDBRANCH 1 29
BRANCH 1 38
ATOM     38  N   TYR P   8      79.184   3.174  57.804  1.00 59.31 LIG-0.35  N 
ATOM     39  C   VAL P   7      79.349   3.788  58.972  1.00 65.10 LIG 0.24  C 
ATOM     40 O    VAL P   7      78.441   3.909  59.805  1.00 66.40 LIG-0.27  OA
ATOM     41 H    TYR P   8      79.798   3.131  57.203  1.00 59.31 LIG 0.16  HD
BRANCH 39 42
ATOM     42  CA  VAL P   7      80.736   4.354  59.247  1.00 68.90 LIG 0.18  C 
BRANCH 42 43
ATOM     43  N   VAL P   7      81.644   3.906  58.200  1.00 69.26 LIG-0.34  N 
ATOM     44  C   LEU P   6      81.984   2.631  58.035  1.00 74.59 LIG 0.26  C 
ATOM     45 O    LEU P   6      81.524   1.724  58.734  1.00 73.78 LIG-0.27  OA
ATOM     46 H    VAL P   7      81.938   4.541  57.700  1.00 69.26 LIG 0.16  HD
BRANCH 44 47
ATOM     47  CA  LEU P   6      82.973   2.350  56.901  1.00 78.06 LIG 0.40  C 
ATOM     48  N   LEU P   6      84.116   3.251  56.984  1.00 74.40 LIG 0.61  N 
BRANCH 47 49
ATOM     49  CB  LEU P   6      83.441   0.889  56.918  1.00 78.52 LIG 0.06  C 
BRANCH 49 50
ATOM     50  CG  LEU P   6      84.861   0.520  57.358  1.00 77.43 LIG-0.02  C 
ATOM     51  CD2 LEU P   6      85.386  -0.715  56.636  1.00 73.93 LIG 0.01  C 
ATOM     52  CD1 LEU P   6      84.856   0.323  58.859  1.00 75.78 LIG 0.01  C 
ENDBRANCH 49 50
ENDBRANCH 47 49
ENDBRANCH 44 47
ENDBRANCH 42 43
BRANCH 42 53
ATOM     53  CB  VAL P   7      80.701   5.890  59.330  1.00 67.45 LIG 0.01  C 
ATOM     54  CG2 VAL P   7      79.895   6.460  58.177  1.00 67.18 LIG 0.01  C 
ATOM     55  CG1 VAL P   7      82.108   6.453  59.320  1.00 63.58 LIG 0.01  C 
ENDBRANCH 42 53
ENDBRANCH 39 42
ENDBRANCH 1 38
TORSDOF 20
ENDMDL
MODEL 64
USER: ADFR SOLUTION from run 166
USER: SCORE 19.703475 LL:  -5.127 LR: -15.190 RR:   0.000 FEB:  -9.224
USER: RMSD 5.771921
USER: SEED 165
USER: STATUS searching
USER: GENES 22
USER: genes 0 Translation |==|  0.43904 0.57578 0.41726
USER: genes 1 Rotation |==|  0.79063 0.11915 0.56777 0.62607
USER: genes 2 Torsion [N]-CA--C-[N] |==|  0.45169
USER: genes 3 Torsion [C]-N--CA-[CB] |==|  0.77618
USER: genes 4 Torsion [N]-CA--CB-[CG] |==|  0.09255
USER: genes 5 Torsion [CA]-CB--CG-[CD] |==|  0.30554
USER: genes 6 Torsion [CB]-CG--CD-[OE1] |==|  0.59683
USER: genes 7 Torsion [N]-CA--C-[N] |==|  0.19404
USER: genes 8 Torsion [C]-N--CA-[C] |==|  0.52139
USER: genes 9 Torsion [N]-CA--C-[O] |==|  0.95126
USER: genes 10 Torsion [N]-CA--CB-[CG] |==|  0.27327
USER: genes 11 Torsion [CA]-CB--CG-[CD1] |==|  0.80675
USER: genes 12 Torsion [C]-CA--CB-[CG] |==|  0.21486
USER: genes 13 Torsion [CA]-CB--CG-[CD1] |==|  0.16737
USER: genes 14 Torsion [CE1]-CZ--OH-[HH] |==|  0.01517
USER: genes 15 Torsion [C]-CA--N-[C] |==|  0.74322
USER: genes 16 Torsion [N]-C--CA-[N] |==|  0.07907
USER: genes 17 Torsion [C]-CA--N-[C] |==|  0.65147
USER: genes 18 Torsion [N]-C--CA-[N] |==|  0.33540
USER: genes 19 Torsion [C]-CA--CB-[CG] |==|  0.21370
USER: genes 20 Torsion [CA]-CB--CG-[CD2] |==|  0.02169
USER: genes 21 Torsion [C]-CA--CB-[CG2] |==|  0.70268
ROOT
ATOM      1  CA  TYR P   8      81.177  -0.462  59.251  1.00 57.99 LIG 0.18  C 
ENDROOT
BRANCH 1 2
ATOM      2  C   TYR P   8      79.822   0.112  58.863  1.00 56.68 LIG 0.24  C 
ATOM      3  N   GLN P   9      79.807   1.382  58.470  1.00 57.67 LIG-0.35  N 
ATOM      4 H    GLN P   9      80.498   1.894  58.480  1.00 57.67 LIG 0.16  HD
ATOM      5 O    TYR P   8      78.809  -0.591  58.921  1.00 54.26 LIG-0.27  OA
BRANCH 3 6
ATOM      6  CA  GLN P   9      78.595   2.022  57.977  1.00 54.86 LIG 0.18  C 
BRANCH 6 7
ATOM      7  CB  GLN P   9      78.339   1.662  56.516  1.00 52.41 LIG 0.04  C 
BRANCH 7 8
ATOM      8  CG  GLN P   9      78.787   0.261  56.141  1.00 53.63 LIG 0.10  C 
BRANCH 8 9
ATOM      9  CD  GLN P   9      77.620  -0.662  55.873  1.00 56.56 LIG 0.21  C 
ATOM     10 OE1  GLN P   9      77.679  -1.854  56.176  1.00 59.67 LIG-0.27  OA
ATOM     11  NE2 GLN P   9      76.550  -0.119  55.302  1.00 58.55 LIG-0.37  N 
ATOM     12 22HE GLN P   9      75.861  -0.604  55.129  1.00 58.55 LIG 0.16  HD
ATOM     13 21HE GLN P   9      76.546   0.717  55.104  1.00 58.55 LIG 0.16  HD
ENDBRANCH 8 9
ENDBRANCH 7 8
ENDBRANCH 6 7
BRANCH 6 14
ATOM     14  C   GLN P   9      77.422   1.592  58.850  1.00 54.72 LIG 0.24  C 
ATOM     15 O    GLN P   9      76.555   0.833  58.402  1.00 59.60 LIG-0.27  OA
ATOM     16  N   PHE P  10      77.402   2.064  60.091  1.00 49.02 LIG-0.34  N 
ATOM     17 H    PHE P  10      78.021   2.552  60.435  1.00 49.02 LIG 0.16  HD
BRANCH 16 18
ATOM     18  CA  PHE P  10      76.289   1.774  60.984  1.00 50.33 LIG 0.19  C 
BRANCH 18 19
ATOM     19  C   PHE P  10      76.390   2.569  62.281  1.00 49.91 LIG 0.20  C 
ATOM     20 O    PHE P  10      77.461   3.080  62.616  1.00 45.93 LIG-0.65  OA
ATOM     21 OXT  PHE P  10      75.413   2.704  63.019  1.00 46.36 LIG-0.65  OA
ENDBRANCH 18 19
BRANCH 18 22
ATOM     22  CB  PHE P  10      76.205   0.275  61.281  1.00 51.88 LIG 0.07  C 
BRANCH 22 23
ATOM     23  CG  PHE P  10      76.829  -0.135  62.589  1.00 51.17 LIG-0.06  A 
ATOM     24  CD1 PHE P  10      78.202  -0.087  62.761  1.00 49.53 LIG 0.01  A 
ATOM     25  CE1 PHE P  10      78.777  -0.476  63.955  1.00 54.45 LIG 0.00  A 
ATOM     26  CZ  PHE P  10      77.983  -0.935  64.987  1.00 54.40 LIG 0.00  A 
ATOM     27  CE2 PHE P  10      76.616  -0.995  64.826  1.00 52.97 LIG 0.00  A 
ATOM     28  CD2 PHE P  10      76.044  -0.604  63.630  1.00 50.02 LIG 0.01  A 
ENDBRANCH 22 23
ENDBRANCH 18 22
ENDBRANCH 16 18
ENDBRANCH 6 14
ENDBRANCH 3 6
ENDBRANCH 1 2
BRANCH 1 29
ATOM     29  CB  TYR P   8      82.003  -0.746  57.997  1.00 54.61 LIG 0.07  C 
BRANCH 29 30
ATOM     30  CG  TYR P   8      82.626   0.475  57.364  1.00 66.64 LIG-0.06  A 
ATOM     31  CD1 TYR P   8      83.525   1.263  58.072  1.00 68.29 LIG 0.01  A 
ATOM     32  CE1 TYR P   8      84.094   2.383  57.501  1.00 71.89 LIG 0.04  A 
ATOM     33  CZ  TYR P   8      83.761   2.730  56.208  1.00 71.50 LIG 0.07  A 
ATOM     34  CE2 TYR P   8      82.869   1.966  55.487  1.00 69.11 LIG 0.04  A 
ATOM     35  CD2 TYR P   8      82.305   0.849  56.067  1.00 65.21 LIG 0.01  A 
BRANCH 33 36
ATOM     36 OH   TYR P   8      84.325   3.846  55.636  1.00 83.55 LIG-0.36  OA
ATOM     37 HH   TYR P   8      84.900   4.167  56.157  1.00 83.55 LIG 0.22  HD
ENDBRANCH 33 36
ENDBRANCH 29 30
ENDBRANCH 1 29
BRANCH 1 38
ATOM     38  N   TYR P   8      80.966  -1.675  60.028  1.00 59.31 LIG-0.35  N 
ATOM     39  C   VAL P   7      80.896  -1.679  61.356  1.00 65.10 LIG 0.24  C 
ATOM     40 O    VAL P   7      81.074  -0.664  62.044  1.00 66.40 LIG-0.27  OA
ATOM     41 H    TYR P   8      80.891  -2.386  59.549  1.00 59.31 LIG 0.16  HD
BRANCH 39 42
ATOM     42  CA  VAL P   7      80.584  -3.017  62.012  1.00 68.90 LIG 0.18  C 
BRANCH 42 43
ATOM     43  N   VAL P   7      81.078  -4.088  61.156  1.00 69.26 LIG-0.34  N 
ATOM     44  C   LEU P   6      80.307  -5.082  60.726  1.00 74.59 LIG 0.26  C 
ATOM     45 O    LEU P   6      79.103  -5.152  60.986  1.00 73.78 LIG-0.27  OA
ATOM     46 H    VAL P   7      81.911  -4.016  60.957  1.00 69.26 LIG 0.16  HD
BRANCH 44 47
ATOM     47  CA  LEU P   6      81.005  -6.134  59.860  1.00 78.06 LIG 0.40  C 
ATOM     48  N   LEU P   6      80.899  -7.453  60.471  1.00 74.40 LIG 0.61  N 
BRANCH 47 49
ATOM     49  CB  LEU P   6      80.431  -6.155  58.437  1.00 78.52 LIG 0.06  C 
BRANCH 49 50
ATOM     50  CG  LEU P   6      80.811  -5.078  57.416  1.00 77.43 LIG-0.02  C 
ATOM     51  CD2 LEU P   6      81.920  -4.165  57.926  1.00 73.93 LIG 0.01  C 
ATOM     52  CD1 LEU P   6      79.564  -4.292  57.071  1.00 75.78 LIG 0.01  C 
ENDBRANCH 49 50
ENDBRANCH 47 49
ENDBRANCH 44 47
ENDBRANCH 42 43
BRANCH 42 53
ATOM     53  CB  VAL P   7      81.201  -3.103  63.418  1.00 67.45 LIG 0.01  C 
ATOM     54  CG2 VAL P   7      82.393  -4.042  63.413  1.00 67.18 LIG 0.01  C 
ATOM     55  CG1 VAL P   7      80.166  -3.568  64.424  1.00 63.58 LIG 0.01  C 
ENDBRANCH 42 53
ENDBRANCH 39 42
ENDBRANCH 1 38
TORSDOF 20
ENDMDL
MODEL 65
USER: ADFR SOLUTION from run 167
USER: SCORE 20.060685 LL:  -5.668 LR: -15.182 RR:   0.000 FEB:  -9.216
USER: RMSD 9.255727
USER: SEED 166
USER: STATUS searching
USER: GENES 22
USER: genes 0 Translation |==|  0.42076 0.54660 0.59002
USER: genes 1 Rotation |==|  0.19920 0.40010 0.87960 0.57377
USER: genes 2 Torsion [N]-CA--C-[N] |==|  0.17970
USER: genes 3 Torsion [C]-N--CA-[CB] |==|  0.13356
USER: genes 4 Torsion [N]-CA--CB-[CG] |==|  0.50437
USER: genes 5 Torsion [CA]-CB--CG-[CD] |==|  0.63247
USER: genes 6 Torsion [CB]-CG--CD-[OE1] |==|  0.69640
USER: genes 7 Torsion [N]-CA--C-[N] |==|  0.12694
USER: genes 8 Torsion [C]-N--CA-[C] |==|  0.59311
USER: genes 9 Torsion [N]-CA--C-[O] |==|  0.25332
USER: genes 10 Torsion [N]-CA--CB-[CG] |==|  0.84158
USER: genes 11 Torsion [CA]-CB--CG-[CD1] |==|  0.25540
USER: genes 12 Torsion [C]-CA--CB-[CG] |==|  0.82179
USER: genes 13 Torsion [CA]-CB--CG-[CD1] |==|  0.96137
USER: genes 14 Torsion [CE1]-CZ--OH-[HH] |==|  0.32678
USER: genes 15 Torsion [C]-CA--N-[C] |==|  0.80556
USER: genes 16 Torsion [N]-C--CA-[N] |==|  0.06458
USER: genes 17 Torsion [C]-CA--N-[C] |==|  0.66908
USER: genes 18 Torsion [N]-C--CA-[N] |==|  0.33292
USER: genes 19 Torsion [C]-CA--CB-[CG] |==|  0.35204
USER: genes 20 Torsion [CA]-CB--CG-[CD2] |==|  0.82262
USER: genes 21 Torsion [C]-CA--CB-[CG2] |==|  0.68796
ROOT
ATOM      1  CA  TYR P   8      80.766  -1.119  62.360  1.00 57.99 LIG 0.18  C 
ENDROOT
BRANCH 1 2
ATOM      2  C   TYR P   8      80.551  -2.601  62.095  1.00 56.68 LIG 0.24  C 
ATOM      3  N   GLN P   9      81.331  -3.159  61.175  1.00 57.67 LIG-0.35  N 
ATOM      4 H    GLN P   9      81.894  -2.719  60.695  1.00 57.67 LIG 0.16  HD
ATOM      5 O    TYR P   8      79.688  -3.227  62.720  1.00 54.26 LIG-0.27  OA
BRANCH 3 6
ATOM      6  CA  GLN P   9      81.297  -4.588  60.897  1.00 54.86 LIG 0.18  C 
BRANCH 6 7
ATOM      7  CB  GLN P   9      79.862  -5.079  60.724  1.00 52.41 LIG 0.04  C 
BRANCH 7 8
ATOM      8  CG  GLN P   9      79.750  -6.572  60.469  1.00 53.63 LIG 0.10  C 
BRANCH 8 9
ATOM      9  CD  GLN P   9      78.836  -6.888  59.307  1.00 56.56 LIG 0.21  C 
ATOM     10 OE1  GLN P   9      77.738  -7.410  59.496  1.00 59.67 LIG-0.27  OA
ATOM     11  NE2 GLN P   9      79.283  -6.575  58.095  1.00 58.55 LIG-0.37  N 
ATOM     12 22HE GLN P   9      78.799  -6.737  57.403  1.00 58.55 LIG 0.16  HD
ATOM     13 21HE GLN P   9      80.057  -6.212  58.003  1.00 58.55 LIG 0.16  HD
ENDBRANCH 8 9
ENDBRANCH 7 8
ENDBRANCH 6 7
BRANCH 6 14
ATOM     14  C   GLN P   9      82.115  -4.866  59.643  1.00 54.72 LIG 0.24  C 
ATOM     15 O    GLN P   9      81.667  -5.599  58.754  1.00 59.60 LIG-0.27  OA
ATOM     16  N   PHE P  10      83.302  -4.275  59.566  1.00 49.02 LIG-0.34  N 
ATOM     17 H    PHE P  10      83.609  -3.724  60.151  1.00 49.02 LIG 0.16  HD
BRANCH 16 18
ATOM     18  CA  PHE P  10      84.195  -4.532  58.444  1.00 50.33 LIG 0.19  C 
BRANCH 18 19
ATOM     19  C   PHE P  10      85.657  -4.488  58.872  1.00 49.91 LIG 0.20  C 
ATOM     20 O    PHE P  10      86.231  -5.516  59.239  1.00 45.93 LIG-0.65  OA
ATOM     21 OXT  PHE P  10      86.287  -3.429  58.868  1.00 46.36 LIG-0.65  OA
ENDBRANCH 18 19
BRANCH 18 22
ATOM     22  CB  PHE P  10      83.940  -3.538  57.308  1.00 51.88 LIG 0.07  C 
BRANCH 22 23
ATOM     23  CG  PHE P  10      82.523  -3.528  56.798  1.00 51.17 LIG-0.06  A 
ATOM     24  CD1 PHE P  10      81.588  -2.656  57.330  1.00 49.53 LIG 0.01  A 
ATOM     25  CE1 PHE P  10      80.285  -2.656  56.874  1.00 54.45 LIG 0.00  A 
ATOM     26  CZ  PHE P  10      79.897  -3.544  55.890  1.00 54.40 LIG 0.00  A 
ATOM     27  CE2 PHE P  10      80.816  -4.421  55.357  1.00 52.97 LIG 0.00  A 
ATOM     28  CD2 PHE P  10      82.120  -4.418  55.815  1.00 50.02 LIG 0.01  A 
ENDBRANCH 22 23
ENDBRANCH 18 22
ENDBRANCH 16 18
ENDBRANCH 6 14
ENDBRANCH 3 6
ENDBRANCH 1 2
BRANCH 1 29
ATOM     29  CB  TYR P   8      79.917  -0.671  63.549  1.00 54.61 LIG 0.07  C 
BRANCH 29 30
ATOM     30  CG  TYR P   8      78.426  -0.771  63.330  1.00 66.64 LIG-0.06  A 
ATOM     31  CD1 TYR P   8      77.905  -0.959  62.056  1.00 68.29 LIG 0.01  A 
ATOM     32  CE1 TYR P   8      76.544  -1.046  61.849  1.00 71.89 LIG 0.04  A 
ATOM     33  CZ  TYR P   8      75.685  -0.939  62.923  1.00 71.50 LIG 0.07  A 
ATOM     34  CE2 TYR P   8      76.178  -0.748  64.196  1.00 69.11 LIG 0.04  A 
ATOM     35  CD2 TYR P   8      77.540  -0.661  64.393  1.00 65.21 LIG 0.01  A 
BRANCH 33 36
ATOM     36 OH   TYR P   8      74.327  -1.025  62.721  1.00 83.55 LIG-0.36  OA
ATOM     37 HH   TYR P   8      74.024  -1.691  63.133  1.00 83.55 LIG 0.22  HD
ENDBRANCH 33 36
ENDBRANCH 29 30
ENDBRANCH 1 29
BRANCH 1 38
ATOM     38  N   TYR P   8      80.423  -0.374  61.157  1.00 59.31 LIG-0.35  N 
ATOM     39  C   VAL P   7      81.156  -0.415  60.048  1.00 65.10 LIG 0.24  C 
ATOM     40 O    VAL P   7      82.226  -1.033  59.970  1.00 66.40 LIG-0.27  OA
ATOM     41 H    TYR P   8      79.704   0.094  61.231  1.00 59.31 LIG 0.16  HD
BRANCH 39 42
ATOM     42  CA  VAL P   7      80.612   0.352  58.851  1.00 68.90 LIG 0.18  C 
BRANCH 42 43
ATOM     43  N   VAL P   7      79.711   1.393  59.327  1.00 69.26 LIG-0.34  N 
ATOM     44  C   LEU P   6      78.425   1.443  58.993  1.00 74.59 LIG 0.26  C 
ATOM     45 O    LEU P   6      77.887   0.589  58.284  1.00 73.78 LIG-0.27  OA
ATOM     46 H    VAL P   7      80.087   1.968  59.843  1.00 69.26 LIG 0.16  HD
BRANCH 44 47
ATOM     47  CA  LEU P   6      77.638   2.626  59.564  1.00 78.06 LIG 0.40  C 
ATOM     48  N   LEU P   6      77.087   3.442  58.489  1.00 74.40 LIG 0.61  N 
BRANCH 47 49
ATOM     49  CB  LEU P   6      76.520   2.151  60.501  1.00 78.52 LIG 0.06  C 
BRANCH 49 50
ATOM     50  CG  LEU P   6      76.398   2.700  61.926  1.00 77.43 LIG-0.02  C 
ATOM     51  CD2 LEU P   6      77.600   2.335  62.790  1.00 73.93 LIG 0.01  C 
ATOM     52  CD1 LEU P   6      75.109   2.180  62.526  1.00 75.78 LIG 0.01  C 
ENDBRANCH 49 50
ENDBRANCH 47 49
ENDBRANCH 44 47
ENDBRANCH 42 43
BRANCH 42 53
ATOM     53  CB  VAL P   7      81.754   0.950  58.011  1.00 67.45 LIG 0.01  C 
ATOM     54  CG2 VAL P   7      81.738   2.465  58.106  1.00 67.18 LIG 0.01  C 
ATOM     55  CG1 VAL P   7      81.635   0.510  56.565  1.00 63.58 LIG 0.01  C 
ENDBRANCH 42 53
ENDBRANCH 39 42
ENDBRANCH 1 38
TORSDOF 20
ENDMDL
MODEL 66
USER: ADFR SOLUTION from run 96
USER: SCORE 18.343818 LL:  -4.203 LR: -15.166 RR:   0.000 FEB:  -9.200
USER: RMSD 4.996817
USER: SEED 95
USER: STATUS no improvement in best in 17 clusters for 5 generations
USER: GENES 22
USER: genes 0 Translation |==|  0.41891 0.43574 0.57294
USER: genes 1 Rotation |==|  0.32038 0.66711 0.47053 0.93467
USER: genes 2 Torsion [N]-CA--C-[N] |==|  0.96473
USER: genes 3 Torsion [C]-N--CA-[CB] |==|  0.56120
USER: genes 4 Torsion [N]-CA--CB-[CG] |==|  0.51626
USER: genes 5 Torsion [CA]-CB--CG-[CD] |==|  0.38604
USER: genes 6 Torsion [CB]-CG--CD-[OE1] |==|  0.10904
USER: genes 7 Torsion [N]-CA--C-[N] |==|  0.28541
USER: genes 8 Torsion [C]-N--CA-[C] |==|  0.82718
USER: genes 9 Torsion [N]-CA--C-[O] |==|  0.80408
USER: genes 10 Torsion [N]-CA--CB-[CG] |==|  0.65184
USER: genes 11 Torsion [CA]-CB--CG-[CD1] |==|  0.68734
USER: genes 12 Torsion [C]-CA--CB-[CG] |==|  0.13252
USER: genes 13 Torsion [CA]-CB--CG-[CD1] |==|  0.62860
USER: genes 14 Torsion [CE1]-CZ--OH-[HH] |==|  0.78206
USER: genes 15 Torsion [C]-CA--N-[C] |==|  0.67586
USER: genes 16 Torsion [N]-C--CA-[N] |==|  0.87716
USER: genes 17 Torsion [C]-CA--N-[C] |==|  0.73346
USER: genes 18 Torsion [N]-C--CA-[N] |==|  0.61607
USER: genes 19 Torsion [C]-CA--CB-[CG] |==|  0.27105
USER: genes 20 Torsion [CA]-CB--CG-[CD2] |==|  0.29311
USER: genes 21 Torsion [C]-CA--CB-[CG2] |==|  0.53302
ROOT
ATOM      1  CA  TYR P   8      80.725  -3.613  62.053  1.00 57.99 LIG 0.18  C 
ENDROOT
BRANCH 1 2
ATOM      2  C   TYR P   8      80.426  -2.224  61.508  1.00 56.68 LIG 0.24  C 
ATOM      3  N   GLN P   9      81.349  -1.686  60.717  1.00 57.67 LIG-0.35  N 
ATOM      4 H    GLN P   9      82.110  -2.052  60.553  1.00 57.67 LIG 0.16  HD
ATOM      5 O    TYR P   8      79.371  -1.653  61.802  1.00 54.26 LIG-0.27  OA
BRANCH 3 6
ATOM      6  CA  GLN P   9      81.143  -0.408  60.050  1.00 54.86 LIG 0.18  C 
BRANCH 6 7
ATOM      7  CB  GLN P   9      82.051  -0.273  58.830  1.00 52.41 LIG 0.04  C 
BRANCH 7 8
ATOM      8  CG  GLN P   9      81.991   1.093  58.168  1.00 53.63 LIG 0.10  C 
BRANCH 8 9
ATOM      9  CD  GLN P   9      83.355   1.583  57.739  1.00 56.56 LIG 0.21  C 
ATOM     10 OE1  GLN P   9      84.178   0.806  57.255  1.00 59.67 LIG-0.27  OA
ATOM     11  NE2 GLN P   9      83.605   2.877  57.914  1.00 58.55 LIG-0.37  N 
ATOM     12 22HE GLN P   9      84.368   3.202  57.686  1.00 58.55 LIG 0.16  HD
ATOM     13 21HE GLN P   9      83.004   3.388  58.256  1.00 58.55 LIG 0.16  HD
ENDBRANCH 8 9
ENDBRANCH 7 8
ENDBRANCH 6 7
BRANCH 6 14
ATOM     14  C   GLN P   9      79.679  -0.293  59.646  1.00 54.72 LIG 0.24  C 
ATOM     15 O    GLN P   9      79.252  -0.910  58.663  1.00 59.60 LIG-0.27  OA
ATOM     16  N   PHE P  10      78.913   0.481  60.405  1.00 49.02 LIG-0.34  N 
ATOM     17 H    PHE P  10      79.181   0.878  61.120  1.00 49.02 LIG 0.16  HD
BRANCH 16 18
ATOM     18  CA  PHE P  10      77.516   0.718  60.065  1.00 50.33 LIG 0.19  C 
BRANCH 18 19
ATOM     19  C   PHE P  10      77.379   1.423  58.721  1.00 49.91 LIG 0.20  C 
ATOM     20 O    PHE P  10      77.714   2.603  58.599  1.00 45.93 LIG-0.65  OA
ATOM     21 OXT  PHE P  10      76.924   0.833  57.740  1.00 46.36 LIG-0.65  OA
ENDBRANCH 18 19
BRANCH 18 22
ATOM     22  CB  PHE P  10      76.818   1.522  61.165  1.00 51.88 LIG 0.07  C 
BRANCH 22 23
ATOM     23  CG  PHE P  10      75.572   0.876  61.710  1.00 51.17 LIG-0.06  A 
ATOM     24  CD1 PHE P  10      74.328   1.444  61.490  1.00 49.53 LIG 0.01  A 
ATOM     25  CE1 PHE P  10      73.186   0.862  62.001  1.00 54.45 LIG 0.00  A 
ATOM     26  CZ  PHE P  10      73.277  -0.291  62.756  1.00 54.40 LIG 0.00  A 
ATOM     27  CE2 PHE P  10      74.509  -0.863  62.989  1.00 52.97 LIG 0.00  A 
ATOM     28  CD2 PHE P  10      75.650  -0.277  62.475  1.00 50.02 LIG 0.01  A 
ENDBRANCH 22 23
ENDBRANCH 18 22
ENDBRANCH 16 18
ENDBRANCH 6 14
ENDBRANCH 3 6
ENDBRANCH 1 2
BRANCH 1 29
ATOM     29  CB  TYR P   8      81.015  -3.536  63.551  1.00 54.61 LIG 0.07  C 
BRANCH 29 30
ATOM     30  CG  TYR P   8      80.019  -2.724  64.344  1.00 66.64 LIG-0.06  A 
ATOM     31  CD1 TYR P   8      80.446  -1.790  65.280  1.00 68.29 LIG 0.01  A 
ATOM     32  CE1 TYR P   8      79.541  -1.050  66.011  1.00 71.89 LIG 0.04  A 
ATOM     33  CZ  TYR P   8      78.190  -1.242  65.815  1.00 71.50 LIG 0.07  A 
ATOM     34  CE2 TYR P   8      77.741  -2.165  64.895  1.00 69.11 LIG 0.04  A 
ATOM     35  CD2 TYR P   8      78.654  -2.902  64.169  1.00 65.21 LIG 0.01  A 
BRANCH 33 36
ATOM     36 OH   TYR P   8      77.284  -0.506  66.542  1.00 83.55 LIG-0.36  OA
ATOM     37 HH   TYR P   8      77.217  -0.829  67.315  1.00 83.55 LIG 0.22  HD
ENDBRANCH 33 36
ENDBRANCH 29 30
ENDBRANCH 1 29
BRANCH 1 38
ATOM     38  N   TYR P   8      81.857  -4.168  61.325  1.00 59.31 LIG-0.35  N 
ATOM     39  C   VAL P   7      81.766  -5.258  60.569  1.00 65.10 LIG 0.24  C 
ATOM     40 O    VAL P   7      80.730  -5.931  60.479  1.00 66.40 LIG-0.27  OA
ATOM     41 H    TYR P   8      82.588  -3.725  61.429  1.00 59.31 LIG 0.16  HD
BRANCH 39 42
ATOM     42  CA  VAL P   7      83.021  -5.657  59.805  1.00 68.90 LIG 0.18  C 
BRANCH 42 43
ATOM     43  N   VAL P   7      83.605  -4.465  59.205  1.00 69.26 LIG-0.34  N 
ATOM     44  C   LEU P   6      83.372  -4.101  57.947  1.00 74.59 LIG 0.26  C 
ATOM     45 O    LEU P   6      82.609  -4.724  57.204  1.00 73.78 LIG-0.27  OA
ATOM     46 H    VAL P   7      84.113  -4.021  59.738  1.00 69.26 LIG 0.16  HD
BRANCH 44 47
ATOM     47  CA  LEU P   6      84.096  -2.836  57.479  1.00 78.06 LIG 0.40  C 
ATOM     48  N   LEU P   6      83.205  -2.001  56.681  1.00 74.40 LIG 0.61  N 
BRANCH 47 49
ATOM     49  CB  LEU P   6      84.652  -2.040  58.667  1.00 78.52 LIG 0.06  C 
BRANCH 49 50
ATOM     50  CG  LEU P   6      86.118  -2.179  59.093  1.00 77.43 LIG-0.02  C 
ATOM     51  CD2 LEU P   6      86.952  -0.968  58.692  1.00 73.93 LIG 0.01  C 
ATOM     52  CD1 LEU P   6      86.668  -3.453  58.489  1.00 75.78 LIG 0.01  C 
ENDBRANCH 49 50
ENDBRANCH 47 49
ENDBRANCH 44 47
ENDBRANCH 42 43
BRANCH 42 53
ATOM     53  CB  VAL P   7      84.029  -6.364  60.726  1.00 67.45 LIG 0.01  C 
ATOM     54  CG2 VAL P   7      85.375  -6.491  60.034  1.00 67.18 LIG 0.01  C 
ATOM     55  CG1 VAL P   7      83.512  -7.731  61.128  1.00 63.58 LIG 0.01  C 
ENDBRANCH 42 53
ENDBRANCH 39 42
ENDBRANCH 1 38
TORSDOF 20
ENDMDL
MODEL 67
USER: ADFR SOLUTION from run 127
USER: SCORE 17.971522 LL:  -5.189 LR: -15.163 RR:   0.000 FEB:  -9.197
USER: RMSD 9.795053
USER: SEED 126
USER: STATUS no improvement in best in 7 clusters for 5 generations
USER: GENES 22
USER: genes 0 Translation |==|  0.37408 0.60862 0.42046
USER: genes 1 Rotation |==|  0.28459 0.34648 0.07701 0.53329
USER: genes 2 Torsion [N]-CA--C-[N] |==|  0.34396
USER: genes 3 Torsion [C]-N--CA-[CB] |==|  0.33822
USER: genes 4 Torsion [N]-CA--CB-[CG] |==|  0.62472
USER: genes 5 Torsion [CA]-CB--CG-[CD] |==|  0.75168
USER: genes 6 Torsion [CB]-CG--CD-[OE1] |==|  0.71749
USER: genes 7 Torsion [N]-CA--C-[N] |==|  0.34831
USER: genes 8 Torsion [C]-N--CA-[C] |==|  0.55287
USER: genes 9 Torsion [N]-CA--C-[O] |==|  0.50865
USER: genes 10 Torsion [N]-CA--CB-[CG] |==|  0.13169
USER: genes 11 Torsion [CA]-CB--CG-[CD1] |==|  0.68037
USER: genes 12 Torsion [C]-CA--CB-[CG] |==|  0.51593
USER: genes 13 Torsion [CA]-CB--CG-[CD1] |==|  0.83949
USER: genes 14 Torsion [CE1]-CZ--OH-[HH] |==|  0.95699
USER: genes 15 Torsion [C]-CA--N-[C] |==|  0.65321
USER: genes 16 Torsion [N]-C--CA-[N] |==|  0.92050
USER: genes 17 Torsion [C]-CA--N-[C] |==|  0.63243
USER: genes 18 Torsion [N]-C--CA-[N] |==|  0.38807
USER: genes 19 Torsion [C]-CA--CB-[CG] |==|  0.17006
USER: genes 20 Torsion [CA]-CB--CG-[CD2] |==|  0.53186
USER: genes 21 Torsion [C]-CA--CB-[CG2] |==|  0.80011
ROOT
ATOM      1  CA  TYR P   8      79.716   0.277  59.308  1.00 57.99 LIG 0.18  C 
ENDROOT
BRANCH 1 2
ATOM      2  C   TYR P   8      80.745  -0.730  59.801  1.00 56.68 LIG 0.24  C 
ATOM      3  N   GLN P   9      80.859  -1.852  59.098  1.00 57.67 LIG-0.35  N 
ATOM      4 H    GLN P   9      80.352  -2.055  58.433  1.00 57.67 LIG 0.16  HD
ATOM      5 O    TYR P   8      81.424  -0.486  60.804  1.00 54.26 LIG-0.27  OA
BRANCH 3 6
ATOM      6  CA  GLN P   9      81.874  -2.852  59.402  1.00 54.86 LIG 0.18  C 
BRANCH 6 7
ATOM      7  CB  GLN P   9      81.237  -4.206  59.707  1.00 52.41 LIG 0.04  C 
BRANCH 7 8
ATOM      8  CG  GLN P   9      81.823  -4.900  60.924  1.00 53.63 LIG 0.10  C 
BRANCH 8 9
ATOM      9  CD  GLN P   9      83.000  -5.780  60.571  1.00 56.56 LIG 0.21  C 
ATOM     10 OE1  GLN P   9      82.868  -7.001  60.484  1.00 59.67 LIG-0.27  OA
ATOM     11  NE2 GLN P   9      84.161  -5.167  60.365  1.00 58.55 LIG-0.37  N 
ATOM     12 22HE GLN P   9      84.860  -5.626  60.162  1.00 58.55 LIG 0.16  HD
ATOM     13 21HE GLN P   9      84.214  -4.312  60.435  1.00 58.55 LIG 0.16  HD
ENDBRANCH 8 9
ENDBRANCH 7 8
ENDBRANCH 6 7
BRANCH 6 14
ATOM     14  C   GLN P   9      82.828  -2.962  58.219  1.00 54.72 LIG 0.24  C 
ATOM     15 O    GLN P   9      82.392  -3.180  57.083  1.00 59.60 LIG-0.27  OA
ATOM     16  N   PHE P  10      84.120  -2.800  58.482  1.00 49.02 LIG-0.34  N 
ATOM     17 H    PHE P  10      84.436  -2.599  59.256  1.00 49.02 LIG 0.16  HD
BRANCH 16 18
ATOM     18  CA  PHE P  10      85.122  -2.957  57.437  1.00 50.33 LIG 0.19  C 
BRANCH 18 19
ATOM     19  C   PHE P  10      86.509  -3.189  58.023  1.00 49.91 LIG 0.20  C 
ATOM     20 O    PHE P  10      87.491  -3.287  57.283  1.00 45.93 LIG-0.65  OA
ATOM     21 OXT  PHE P  10      86.674  -3.294  59.240  1.00 46.36 LIG-0.65  OA
ENDBRANCH 18 19
BRANCH 18 22
ATOM     22  CB  PHE P  10      85.131  -1.742  56.505  1.00 51.88 LIG 0.07  C 
BRANCH 22 23
ATOM     23  CG  PHE P  10      85.139  -0.415  57.216  1.00 51.17 LIG-0.06  A 
ATOM     24  CD1 PHE P  10      84.065   0.452  57.103  1.00 49.53 LIG 0.01  A 
ATOM     25  CE1 PHE P  10      84.077   1.676  57.742  1.00 54.45 LIG 0.00  A 
ATOM     26  CZ  PHE P  10      85.174   2.054  58.490  1.00 54.40 LIG 0.00  A 
ATOM     27  CE2 PHE P  10      86.252   1.204  58.606  1.00 52.97 LIG 0.00  A 
ATOM     28  CD2 PHE P  10      86.237  -0.021  57.965  1.00 50.02 LIG 0.01  A 
ENDBRANCH 22 23
ENDBRANCH 18 22
ENDBRANCH 16 18
ENDBRANCH 6 14
ENDBRANCH 3 6
ENDBRANCH 1 2
BRANCH 1 29
ATOM     29  CB  TYR P   8      80.415   1.548  58.828  1.00 54.61 LIG 0.07  C 
BRANCH 29 30
ATOM     30  CG  TYR P   8      79.483   2.672  58.443  1.00 66.64 LIG-0.06  A 
ATOM     31  CD1 TYR P   8      78.520   2.491  57.459  1.00 68.29 LIG 0.01  A 
ATOM     32  CE1 TYR P   8      77.670   3.516  57.099  1.00 71.89 LIG 0.04  A 
ATOM     33  CZ  TYR P   8      77.779   4.741  57.722  1.00 71.50 LIG 0.07  A 
ATOM     34  CE2 TYR P   8      78.730   4.946  58.698  1.00 69.11 LIG 0.04  A 
ATOM     35  CD2 TYR P   8      79.577   3.916  59.051  1.00 65.21 LIG 0.01  A 
BRANCH 33 36
ATOM     36 OH   TYR P   8      76.934   5.766  57.365  1.00 83.55 LIG-0.36  OA
ATOM     37 HH   TYR P   8      76.562   5.580  56.635  1.00 83.55 LIG 0.22  HD
ENDBRANCH 33 36
ENDBRANCH 29 30
ENDBRANCH 1 29
BRANCH 1 38
ATOM     38  N   TYR P   8      78.787   0.564  60.392  1.00 59.31 LIG-0.35  N 
ATOM     39  C   VAL P   7      77.470   0.423  60.271  1.00 65.10 LIG 0.24  C 
ATOM     40 O    VAL P   7      76.921   0.104  59.209  1.00 66.40 LIG-0.27  OA
ATOM     41 H    TYR P   8      79.169   0.833  61.115  1.00 59.31 LIG 0.16  HD
BRANCH 39 42
ATOM     42  CA  VAL P   7      76.646   0.681  61.525  1.00 68.90 LIG 0.18  C 
BRANCH 42 43
ATOM     43  N   VAL P   7      77.457   0.368  62.695  1.00 69.26 LIG-0.34  N 
ATOM     44  C   LEU P   6      77.013  -0.376  63.703  1.00 74.59 LIG 0.26  C 
ATOM     45 O    LEU P   6      75.892  -0.892  63.708  1.00 73.78 LIG-0.27  OA
ATOM     46 H    VAL P   7      78.246   0.709  62.671  1.00 69.26 LIG 0.16  HD
BRANCH 44 47
ATOM     47  CA  LEU P   6      77.994  -0.574  64.862  1.00 78.06 LIG 0.40  C 
ATOM     48  N   LEU P   6      77.299  -0.499  66.141  1.00 74.40 LIG 0.61  N 
BRANCH 47 49
ATOM     49  CB  LEU P   6      78.741  -1.909  64.737  1.00 78.52 LIG 0.06  C 
BRANCH 49 50
ATOM     50  CG  LEU P   6      79.636  -2.203  63.529  1.00 77.43 LIG-0.02  C 
ATOM     51  CD2 LEU P   6      80.053  -3.667  63.463  1.00 73.93 LIG 0.01  C 
ATOM     52  CD1 LEU P   6      80.840  -1.288  63.597  1.00 75.78 LIG 0.01  C 
ENDBRANCH 49 50
ENDBRANCH 47 49
ENDBRANCH 44 47
ENDBRANCH 42 43
BRANCH 42 53
ATOM     53  CB  VAL P   7      76.146   2.135  61.571  1.00 67.45 LIG 0.01  C 
ATOM     54  CG2 VAL P   7      77.299   3.078  61.865  1.00 67.18 LIG 0.01  C 
ATOM     55  CG1 VAL P   7      75.058   2.289  62.615  1.00 63.58 LIG 0.01  C 
ENDBRANCH 42 53
ENDBRANCH 39 42
ENDBRANCH 1 38
TORSDOF 20
ENDMDL
MODEL 68
USER: ADFR SOLUTION from run 49
USER: SCORE 18.577749 LL:  -4.296 LR: -15.151 RR:   0.000 FEB:  -9.185
USER: RMSD 6.001863
USER: SEED 48
USER: STATUS no improvement in best in 8 clusters for 5 generations
USER: GENES 22
USER: genes 0 Translation |==|  0.48301 0.50066 0.43561
USER: genes 1 Rotation |==|  0.77308 0.12488 0.32726 0.56981
USER: genes 2 Torsion [N]-CA--C-[N] |==|  0.96854
USER: genes 3 Torsion [C]-N--CA-[CB] |==|  0.87966
USER: genes 4 Torsion [N]-CA--CB-[CG] |==|  0.69169
USER: genes 5 Torsion [CA]-CB--CG-[CD] |==|  0.26022
USER: genes 6 Torsion [CB]-CG--CD-[OE1] |==|  0.06581
USER: genes 7 Torsion [N]-CA--C-[N] |==|  0.80668
USER: genes 8 Torsion [C]-N--CA-[C] |==|  0.59742
USER: genes 9 Torsion [N]-CA--C-[O] |==|  0.11317
USER: genes 10 Torsion [N]-CA--CB-[CG] |==|  0.86082
USER: genes 11 Torsion [CA]-CB--CG-[CD1] |==|  0.79212
USER: genes 12 Torsion [C]-CA--CB-[CG] |==|  0.25226
USER: genes 13 Torsion [CA]-CB--CG-[CD1] |==|  0.62533
USER: genes 14 Torsion [CE1]-CZ--OH-[HH] |==|  0.00732
USER: genes 15 Torsion [C]-CA--N-[C] |==|  0.77753
USER: genes 16 Torsion [N]-C--CA-[N] |==|  0.44544
USER: genes 17 Torsion [C]-CA--N-[C] |==|  0.81108
USER: genes 18 Torsion [N]-C--CA-[N] |==|  0.11079
USER: genes 19 Torsion [C]-CA--CB-[CG] |==|  0.26471
USER: genes 20 Torsion [CA]-CB--CG-[CD2] |==|  0.72331
USER: genes 21 Torsion [C]-CA--CB-[CG2] |==|  0.83697
ROOT
ATOM      1  CA  TYR P   8      82.167  -2.152  59.581  1.00 57.99 LIG 0.18  C 
ENDROOT
BRANCH 1 2
ATOM      2  C   TYR P   8      81.085  -1.414  60.357  1.00 56.68 LIG 0.24  C 
ATOM      3  N   GLN P   9      79.890  -1.994  60.406  1.00 57.67 LIG-0.35  N 
ATOM      4 H    GLN P   9      79.691  -2.716  59.982  1.00 57.67 LIG 0.16  HD
ATOM      5 O    TYR P   8      81.338  -0.335  60.903  1.00 54.26 LIG-0.27  OA
BRANCH 3 6
ATOM      6  CA  GLN P   9      78.798  -1.444  61.198  1.00 54.86 LIG 0.18  C 
BRANCH 6 7
ATOM      7  CB  GLN P   9      79.289  -0.991  62.570  1.00 52.41 LIG 0.04  C 
BRANCH 7 8
ATOM      8  CG  GLN P   9      78.778  -1.844  63.718  1.00 53.63 LIG 0.10  C 
BRANCH 8 9
ATOM      9  CD  GLN P   9      79.743  -2.948  64.086  1.00 56.56 LIG 0.21  C 
ATOM     10 OE1  GLN P   9      80.941  -2.848  63.823  1.00 59.67 LIG-0.27  OA
ATOM     11  NE2 GLN P   9      79.229  -4.009  64.699  1.00 58.55 LIG-0.37  N 
ATOM     12 22HE GLN P   9      79.738  -4.663  64.928  1.00 58.55 LIG 0.16  HD
ATOM     13 21HE GLN P   9      78.386  -4.042  64.867  1.00 58.55 LIG 0.16  HD
ENDBRANCH 8 9
ENDBRANCH 7 8
ENDBRANCH 6 7
BRANCH 6 14
ATOM     14  C   GLN P   9      78.177  -0.279  60.438  1.00 54.72 LIG 0.24  C 
ATOM     15 O    GLN P   9      77.037  -0.376  59.970  1.00 59.60 LIG-0.27  OA
ATOM     16  N   PHE P  10      78.916   0.818  60.327  1.00 49.02 LIG-0.34  N 
ATOM     17 H    PHE P  10      79.690   0.921  60.687  1.00 49.02 LIG 0.16  HD
BRANCH 16 18
ATOM     18  CA  PHE P  10      78.447   1.963  59.558  1.00 50.33 LIG 0.19  C 
BRANCH 18 19
ATOM     19  C   PHE P  10      79.596   2.669  58.848  1.00 49.91 LIG 0.20  C 
ATOM     20 O    PHE P  10      80.495   2.016  58.314  1.00 45.93 LIG-0.65  OA
ATOM     21 OXT  PHE P  10      79.653   3.900  58.805  1.00 46.36 LIG-0.65  OA
ENDBRANCH 18 19
BRANCH 18 22
ATOM     22  CB  PHE P  10      77.687   2.945  60.454  1.00 51.88 LIG 0.07  C 
BRANCH 22 23
ATOM     23  CG  PHE P  10      76.618   2.310  61.302  1.00 51.17 LIG-0.06  A 
ATOM     24  CD1 PHE P  10      75.418   1.905  60.740  1.00 49.53 LIG 0.01  A 
ATOM     25  CE1 PHE P  10      74.430   1.336  61.518  1.00 54.45 LIG 0.00  A 
ATOM     26  CZ  PHE P  10      74.625   1.181  62.877  1.00 54.40 LIG 0.00  A 
ATOM     27  CE2 PHE P  10      75.811   1.585  63.451  1.00 52.97 LIG 0.00  A 
ATOM     28  CD2 PHE P  10      76.798   2.154  62.668  1.00 50.02 LIG 0.01  A 
ENDBRANCH 22 23
ENDBRANCH 18 22
ENDBRANCH 16 18
ENDBRANCH 6 14
ENDBRANCH 3 6
ENDBRANCH 1 2
BRANCH 1 29
ATOM     29  CB  TYR P   8      82.507  -1.387  58.303  1.00 54.61 LIG 0.07  C 
BRANCH 29 30
ATOM     30  CG  TYR P   8      83.626  -0.384  58.449  1.00 66.64 LIG-0.06  A 
ATOM     31  CD1 TYR P   8      83.512   0.892  57.913  1.00 68.29 LIG 0.01  A 
ATOM     32  CE1 TYR P   8      84.532   1.811  58.039  1.00 71.89 LIG 0.04  A 
ATOM     33  CZ  TYR P   8      85.688   1.457  58.703  1.00 71.50 LIG 0.07  A 
ATOM     34  CE2 TYR P   8      85.827   0.195  59.240  1.00 69.11 LIG 0.04  A 
ATOM     35  CD2 TYR P   8      84.801  -0.717  59.108  1.00 65.21 LIG 0.01  A 
BRANCH 33 36
ATOM     36 OH   TYR P   8      86.708   2.371  58.830  1.00 83.55 LIG-0.36  OA
ATOM     37 HH   TYR P   8      86.473   3.102  58.490  1.00 83.55 LIG 0.22  HD
ENDBRANCH 33 36
ENDBRANCH 29 30
ENDBRANCH 1 29
BRANCH 1 38
ATOM     38  N   TYR P   8      81.692  -3.496  59.280  1.00 59.31 LIG-0.35  N 
ATOM     39  C   VAL P   7      81.722  -4.487  60.167  1.00 65.10 LIG 0.24  C 
ATOM     40 O    VAL P   7      82.219  -4.369  61.294  1.00 66.40 LIG-0.27  OA
ATOM     41 H    TYR P   8      81.392  -3.587  58.479  1.00 59.31 LIG 0.16  HD
BRANCH 39 42
ATOM     42  CA  VAL P   7      81.107  -5.807  59.722  1.00 68.90 LIG 0.18  C 
BRANCH 42 43
ATOM     43  N   VAL P   7      81.619  -6.875  60.571  1.00 69.26 LIG-0.34  N 
ATOM     44  C   LEU P   6      82.889  -7.271  60.547  1.00 74.59 LIG 0.26  C 
ATOM     45 O    LEU P   6      83.740  -6.737  59.832  1.00 73.78 LIG-0.27  OA
ATOM     46 H    VAL P   7      81.026  -7.223  61.087  1.00 69.26 LIG 0.16  HD
BRANCH 44 47
ATOM     47  CA  LEU P   6      83.239  -8.427  61.488  1.00 78.06 LIG 0.40  C 
ATOM     48  N   LEU P   6      82.173  -9.420  61.499  1.00 74.40 LIG 0.61  N 
BRANCH 47 49
ATOM     49  CB  LEU P   6      84.572  -9.078  61.097  1.00 78.52 LIG 0.06  C 
BRANCH 49 50
ATOM     50  CG  LEU P   6      85.883  -8.661  61.773  1.00 77.43 LIG-0.02  C 
ATOM     51  CD2 LEU P   6      86.685  -7.684  60.921  1.00 73.93 LIG 0.01  C 
ATOM     52  CD1 LEU P   6      86.679  -9.912  62.077  1.00 75.78 LIG 0.01  C 
ENDBRANCH 49 50
ENDBRANCH 47 49
ENDBRANCH 44 47
ENDBRANCH 42 43
BRANCH 42 53
ATOM     53  CB  VAL P   7      79.571  -5.749  59.773  1.00 67.45 LIG 0.01  C 
ATOM     54  CG2 VAL P   7      79.104  -5.427  61.181  1.00 67.18 LIG 0.01  C 
ATOM     55  CG1 VAL P   7      78.975  -7.061  59.305  1.00 63.58 LIG 0.01  C 
ENDBRANCH 42 53
ENDBRANCH 39 42
ENDBRANCH 1 38
TORSDOF 20
ENDMDL
MODEL 69
USER: ADFR SOLUTION from run 96
USER: SCORE 17.616224 LL:  -4.448 LR: -15.135 RR:   0.000 FEB:  -9.169
USER: RMSD 6.078161
USER: SEED 95
USER: STATUS no improvement in best in 17 clusters for 5 generations
USER: GENES 22
USER: genes 0 Translation |==|  0.40972 0.46358 0.56211
USER: genes 1 Rotation |==|  0.34630 0.71120 0.40513 0.91566
USER: genes 2 Torsion [N]-CA--C-[N] |==|  0.02121
USER: genes 3 Torsion [C]-N--CA-[CB] |==|  0.48933
USER: genes 4 Torsion [N]-CA--CB-[CG] |==|  0.52416
USER: genes 5 Torsion [CA]-CB--CG-[CD] |==|  0.28293
USER: genes 6 Torsion [CB]-CG--CD-[OE1] |==|  0.02045
USER: genes 7 Torsion [N]-CA--C-[N] |==|  0.24094
USER: genes 8 Torsion [C]-N--CA-[C] |==|  0.15990
USER: genes 9 Torsion [N]-CA--C-[O] |==|  0.67567
USER: genes 10 Torsion [N]-CA--CB-[CG] |==|  0.86542
USER: genes 11 Torsion [CA]-CB--CG-[CD1] |==|  0.75691
USER: genes 12 Torsion [C]-CA--CB-[CG] |==|  0.19678
USER: genes 13 Torsion [CA]-CB--CG-[CD1] |==|  0.06915
USER: genes 14 Torsion [CE1]-CZ--OH-[HH] |==|  0.99546
USER: genes 15 Torsion [C]-CA--N-[C] |==|  0.65556
USER: genes 16 Torsion [N]-C--CA-[N] |==|  0.77010
USER: genes 17 Torsion [C]-CA--N-[C] |==|  0.69622
USER: genes 18 Torsion [N]-C--CA-[N] |==|  0.37464
USER: genes 19 Torsion [C]-CA--CB-[CG] |==|  0.25850
USER: genes 20 Torsion [CA]-CB--CG-[CD2] |==|  0.64686
USER: genes 21 Torsion [C]-CA--CB-[CG2] |==|  0.59618
ROOT
ATOM      1  CA  TYR P   8      80.518  -2.986  61.858  1.00 57.99 LIG 0.18  C 
ENDROOT
BRANCH 1 2
ATOM      2  C   TYR P   8      80.644  -1.576  61.300  1.00 56.68 LIG 0.24  C 
ATOM      3  N   GLN P   9      81.313  -1.448  60.158  1.00 57.67 LIG-0.35  N 
ATOM      4 H    GLN P   9      81.716  -2.098  59.765  1.00 57.67 LIG 0.16  HD
ATOM      5 O    TYR P   8      80.138  -0.622  61.899  1.00 54.26 LIG-0.27  OA
BRANCH 3 6
ATOM      6  CA  GLN P   9      81.420  -0.171  59.466  1.00 54.86 LIG 0.18  C 
BRANCH 6 7
ATOM      7  CB  GLN P   9      82.318  -0.286  58.237  1.00 52.41 LIG 0.04  C 
BRANCH 7 8
ATOM      8  CG  GLN P   9      82.643   1.047  57.587  1.00 53.63 LIG 0.10  C 
BRANCH 8 9
ATOM      9  CD  GLN P   9      84.030   1.534  57.941  1.00 56.56 LIG 0.21  C 
ATOM     10 OE1  GLN P   9      84.808   0.814  58.565  1.00 59.67 LIG-0.27  OA
ATOM     11  NE2 GLN P   9      84.349   2.762  57.544  1.00 58.55 LIG-0.37  N 
ATOM     12 22HE GLN P   9      85.127   3.083  57.722  1.00 58.55 LIG 0.16  HD
ATOM     13 21HE GLN P   9      83.778   3.235  57.109  1.00 58.55 LIG 0.16  HD
ENDBRANCH 8 9
ENDBRANCH 7 8
ENDBRANCH 6 7
BRANCH 6 14
ATOM     14  C   GLN P   9      80.024   0.293  59.071  1.00 54.72 LIG 0.24  C 
ATOM     15 O    GLN P   9      79.564   0.013  57.958  1.00 59.60 LIG-0.27  OA
ATOM     16  N   PHE P  10      79.350   0.988  59.980  1.00 49.02 LIG-0.34  N 
ATOM     17 H    PHE P  10      79.634   1.150  60.776  1.00 49.02 LIG 0.16  HD
BRANCH 16 18
ATOM     18  CA  PHE P  10      78.037   1.542  59.678  1.00 50.33 LIG 0.19  C 
BRANCH 18 19
ATOM     19  C   PHE P  10      77.057   0.458  59.249  1.00 49.91 LIG 0.20  C 
ATOM     20 O    PHE P  10      76.573   0.467  58.115  1.00 45.93 LIG-0.65  OA
ATOM     21 OXT  PHE P  10      76.723  -0.438  60.027  1.00 46.36 LIG-0.65  OA
ENDBRANCH 18 19
BRANCH 18 22
ATOM     22  CB  PHE P  10      78.140   2.627  58.602  1.00 51.88 LIG 0.07  C 
BRANCH 22 23
ATOM     23  CG  PHE P  10      79.214   3.652  58.854  1.00 51.17 LIG-0.06  A 
ATOM     24  CD1 PHE P  10      78.950   4.777  59.617  1.00 49.53 LIG 0.01  A 
ATOM     25  CE1 PHE P  10      79.929   5.725  59.838  1.00 54.45 LIG 0.00  A 
ATOM     26  CZ  PHE P  10      81.182   5.566  59.281  1.00 54.40 LIG 0.00  A 
ATOM     27  CE2 PHE P  10      81.456   4.454  58.514  1.00 52.97 LIG 0.00  A 
ATOM     28  CD2 PHE P  10      80.474   3.507  58.296  1.00 50.02 LIG 0.01  A 
ENDBRANCH 22 23
ENDBRANCH 18 22
ENDBRANCH 16 18
ENDBRANCH 6 14
ENDBRANCH 3 6
ENDBRANCH 1 2
BRANCH 1 29
ATOM     29  CB  TYR P   8      80.936  -3.007  63.327  1.00 54.61 LIG 0.07  C 
BRANCH 29 30
ATOM     30  CG  TYR P   8      79.970  -2.324  64.266  1.00 66.64 LIG-0.06  A 
ATOM     31  CD1 TYR P   8      78.627  -2.197  63.936  1.00 68.29 LIG 0.01  A 
ATOM     32  CE1 TYR P   8      77.741  -1.570  64.787  1.00 71.89 LIG 0.04  A 
ATOM     33  CZ  TYR P   8      78.195  -1.056  65.983  1.00 71.50 LIG 0.07  A 
ATOM     34  CE2 TYR P   8      79.525  -1.166  66.332  1.00 69.11 LIG 0.04  A 
ATOM     35  CD2 TYR P   8      80.403  -1.794  65.474  1.00 65.21 LIG 0.01  A 
BRANCH 33 36
ATOM     36 OH   TYR P   8      77.315  -0.430  66.834  1.00 83.55 LIG-0.36  OA
ATOM     37 HH   TYR P   8      76.551  -0.416  66.486  1.00 83.55 LIG 0.22  HD
ENDBRANCH 33 36
ENDBRANCH 29 30
ENDBRANCH 1 29
BRANCH 1 38
ATOM     38  N   TYR P   8      81.347  -3.880  61.062  1.00 59.31 LIG-0.35  N 
ATOM     39  C   VAL P   7      80.868  -4.965  60.460  1.00 65.10 LIG 0.24  C 
ATOM     40 O    VAL P   7      79.695  -5.342  60.583  1.00 66.40 LIG-0.27  OA
ATOM     41 H    TYR P   8      82.173  -3.642  61.019  1.00 59.31 LIG 0.16  HD
BRANCH 39 42
ATOM     42  CA  VAL P   7      81.848  -5.745  59.594  1.00 68.90 LIG 0.18  C 
BRANCH 42 43
ATOM     43  N   VAL P   7      81.923  -5.115  58.282  1.00 69.26 LIG-0.34  N 
ATOM     44  C   LEU P   6      81.418  -5.670  57.185  1.00 74.59 LIG 0.26  C 
ATOM     45 O    LEU P   6      80.812  -6.745  57.200  1.00 73.78 LIG-0.27  OA
ATOM     46 H    VAL P   7      82.322  -4.353  58.285  1.00 69.26 LIG 0.16  HD
BRANCH 44 47
ATOM     47  CA  LEU P   6      81.617  -4.877  55.890  1.00 78.06 LIG 0.40  C 
ATOM     48  N   LEU P   6      82.056  -5.755  54.813  1.00 74.40 LIG 0.61  N 
BRANCH 47 49
ATOM     49  CB  LEU P   6      80.334  -4.137  55.487  1.00 78.52 LIG 0.06  C 
BRANCH 49 50
ATOM     50  CG  LEU P   6      80.089  -2.688  55.921  1.00 77.43 LIG-0.02  C 
ATOM     51  CD2 LEU P   6      78.743  -2.513  56.615  1.00 73.93 LIG 0.01  C 
ATOM     52  CD1 LEU P   6      80.200  -1.802  54.699  1.00 75.78 LIG 0.01  C 
ENDBRANCH 49 50
ENDBRANCH 47 49
ENDBRANCH 44 47
ENDBRANCH 42 43
BRANCH 42 53
ATOM     53  CB  VAL P   7      83.235  -5.815  60.254  1.00 67.45 LIG 0.01  C 
ATOM     54  CG2 VAL P   7      84.323  -5.777  59.196  1.00 67.18 LIG 0.01  C 
ATOM     55  CG1 VAL P   7      83.359  -7.071  61.094  1.00 63.58 LIG 0.01  C 
ENDBRANCH 42 53
ENDBRANCH 39 42
ENDBRANCH 1 38
TORSDOF 20
ENDMDL
MODEL 70
USER: ADFR SOLUTION from run 29
USER: SCORE 18.637847 LL:  -4.471 LR: -15.129 RR:   0.000 FEB:  -9.163
USER: RMSD 8.994680
USER: SEED 28
USER: STATUS no improvement in best in 11 clusters for 5 generations
USER: GENES 22
USER: genes 0 Translation |==|  0.32331 0.65076 0.36128
USER: genes 1 Rotation |==|  0.81823 0.40711 0.87260 0.53567
USER: genes 2 Torsion [N]-CA--C-[N] |==|  0.48323
USER: genes 3 Torsion [C]-N--CA-[CB] |==|  0.50307
USER: genes 4 Torsion [N]-CA--CB-[CG] |==|  0.77318
USER: genes 5 Torsion [CA]-CB--CG-[CD] |==|  0.98379
USER: genes 6 Torsion [CB]-CG--CD-[OE1] |==|  0.79699
USER: genes 7 Torsion [N]-CA--C-[N] |==|  0.40990
USER: genes 8 Torsion [C]-N--CA-[C] |==|  0.71896
USER: genes 9 Torsion [N]-CA--C-[O] |==|  0.72365
USER: genes 10 Torsion [N]-CA--CB-[CG] |==|  0.77443
USER: genes 11 Torsion [CA]-CB--CG-[CD1] |==|  0.96047
USER: genes 12 Torsion [C]-CA--CB-[CG] |==|  0.51383
USER: genes 13 Torsion [CA]-CB--CG-[CD1] |==|  0.96518
USER: genes 14 Torsion [CE1]-CZ--OH-[HH] |==|  0.99512
USER: genes 15 Torsion [C]-CA--N-[C] |==|  0.79444
USER: genes 16 Torsion [N]-C--CA-[N] |==|  0.93485
USER: genes 17 Torsion [C]-CA--N-[C] |==|  0.72816
USER: genes 18 Torsion [N]-C--CA-[N] |==|  0.90070
USER: genes 19 Torsion [C]-CA--CB-[CG] |==|  0.13658
USER: genes 20 Torsion [CA]-CB--CG-[CD2] |==|  0.11011
USER: genes 21 Torsion [C]-CA--CB-[CG2] |==|  0.22983
ROOT
ATOM      1  CA  TYR P   8      78.574   1.225  58.243  1.00 57.99 LIG 0.18  C 
ENDROOT
BRANCH 1 2
ATOM      2  C   TYR P   8      78.477  -0.159  57.618  1.00 56.68 LIG 0.24  C 
ATOM      3  N   GLN P   9      78.539  -0.216  56.291  1.00 57.67 LIG-0.35  N 
ATOM      4 H    GLN P   9      78.571   0.478  55.784  1.00 57.67 LIG 0.16  HD
ATOM      5 O    TYR P   8      78.348  -1.158  58.334  1.00 54.26 LIG-0.27  OA
BRANCH 3 6
ATOM      6  CA  GLN P   9      78.559  -1.484  55.574  1.00 54.86 LIG 0.18  C 
BRANCH 6 7
ATOM      7  CB  GLN P   9      78.661  -1.261  54.068  1.00 52.41 LIG 0.04  C 
BRANCH 7 8
ATOM      8  CG  GLN P   9      77.333  -0.943  53.403  1.00 53.63 LIG 0.10  C 
BRANCH 8 9
ATOM      9  CD  GLN P   9      76.170  -1.056  54.362  1.00 56.56 LIG 0.21  C 
ATOM     10 OE1  GLN P   9      75.772  -2.157  54.740  1.00 59.67 LIG-0.27  OA
ATOM     11  NE2 GLN P   9      75.617   0.084  54.764  1.00 58.55 LIG-0.37  N 
ATOM     12 22HE GLN P   9      74.952   0.071  55.310  1.00 58.55 LIG 0.16  HD
ATOM     13 21HE GLN P   9      75.924   0.834  54.478  1.00 58.55 LIG 0.16  HD
ENDBRANCH 8 9
ENDBRANCH 7 8
ENDBRANCH 6 7
BRANCH 6 14
ATOM     14  C   GLN P   9      79.734  -2.314  56.075  1.00 54.72 LIG 0.24  C 
ATOM     15 O    GLN P   9      80.771  -1.762  56.460  1.00 59.60 LIG-0.27  OA
ATOM     16  N   PHE P  10      79.568  -3.632  56.083  1.00 49.02 LIG-0.34  N 
ATOM     17 H    PHE P  10      78.838  -4.031  55.866  1.00 49.02 LIG 0.16  HD
BRANCH 16 18
ATOM     18  CA  PHE P  10      80.654  -4.522  56.473  1.00 50.33 LIG 0.19  C 
BRANCH 18 19
ATOM     19  C   PHE P  10      81.333  -5.142  55.258  1.00 49.91 LIG 0.20  C 
ATOM     20 O    PHE P  10      81.049  -6.287  54.901  1.00 45.93 LIG-0.65  OA
ATOM     21 OXT  PHE P  10      82.182  -4.517  54.619  1.00 46.36 LIG-0.65  OA
ENDBRANCH 18 19
BRANCH 18 22
ATOM     22  CB  PHE P  10      80.148  -5.614  57.419  1.00 51.88 LIG 0.07  C 
BRANCH 22 23
ATOM     23  CG  PHE P  10      80.019  -5.181  58.855  1.00 51.17 LIG-0.06  A 
ATOM     24  CD1 PHE P  10      80.609  -4.007  59.293  1.00 49.53 LIG 0.01  A 
ATOM     25  CE1 PHE P  10      80.505  -3.615  60.613  1.00 54.45 LIG 0.00  A 
ATOM     26  CZ  PHE P  10      79.821  -4.405  61.516  1.00 54.40 LIG 0.00  A 
ATOM     27  CE2 PHE P  10      79.235  -5.578  61.095  1.00 52.97 LIG 0.00  A 
ATOM     28  CD2 PHE P  10      79.341  -5.967  59.773  1.00 50.02 LIG 0.01  A 
ENDBRANCH 22 23
ENDBRANCH 18 22
ENDBRANCH 16 18
ENDBRANCH 6 14
ENDBRANCH 3 6
ENDBRANCH 1 2
BRANCH 1 29
ATOM     29  CB  TYR P   8      79.943   1.836  57.951  1.00 54.61 LIG 0.07  C 
BRANCH 29 30
ATOM     30  CG  TYR P   8      80.196   3.164  58.624  1.00 66.64 LIG-0.06  A 
ATOM     31  CD1 TYR P   8      79.158   3.870  59.219  1.00 68.29 LIG 0.01  A 
ATOM     32  CE1 TYR P   8      79.381   5.085  59.830  1.00 71.89 LIG 0.04  A 
ATOM     33  CZ  TYR P   8      80.656   5.613  59.848  1.00 71.50 LIG 0.07  A 
ATOM     34  CE2 TYR P   8      81.702   4.934  59.262  1.00 69.11 LIG 0.04  A 
ATOM     35  CD2 TYR P   8      81.468   3.719  58.652  1.00 65.21 LIG 0.01  A 
BRANCH 33 36
ATOM     36 OH   TYR P   8      80.883   6.825  60.456  1.00 83.55 LIG-0.36  OA
ATOM     37 HH   TYR P   8      80.157   7.133  60.747  1.00 83.55 LIG 0.22  HD
ENDBRANCH 33 36
ENDBRANCH 29 30
ENDBRANCH 1 29
BRANCH 1 38
ATOM     38  N   TYR P   8      78.343   1.108  59.676  1.00 59.31 LIG-0.35  N 
ATOM     39  C   VAL P   7      77.140   0.891  60.199  1.00 65.10 LIG 0.24  C 
ATOM     40 O    VAL P   7      76.108   0.840  59.517  1.00 66.40 LIG-0.27  OA
ATOM     41 H    TYR P   8      79.056   1.193  60.151  1.00 59.31 LIG 0.16  HD
BRANCH 39 42
ATOM     42  CA  VAL P   7      77.084   0.706  61.709  1.00 68.90 LIG 0.18  C 
BRANCH 42 43
ATOM     43  N   VAL P   7      78.390   0.264  62.179  1.00 69.26 LIG-0.34  N 
ATOM     44  C   LEU P   6      78.677  -1.013  62.415  1.00 74.59 LIG 0.26  C 
ATOM     45 O    LEU P   6      77.871  -1.926  62.216  1.00 73.78 LIG-0.27  OA
ATOM     46 H    VAL P   7      78.954   0.903  62.288  1.00 69.26 LIG 0.16  HD
BRANCH 44 47
ATOM     47  CA  LEU P   6      80.092  -1.288  62.933  1.00 78.06 LIG 0.40  C 
ATOM     48  N   LEU P   6      81.049  -0.376  62.318  1.00 74.40 LIG 0.61  N 
BRANCH 47 49
ATOM     49  CB  LEU P   6      80.157  -1.179  64.462  1.00 78.52 LIG 0.06  C 
BRANCH 49 50
ATOM     50  CG  LEU P   6      79.136  -1.900  65.348  1.00 77.43 LIG-0.02  C 
ATOM     51  CD2 LEU P   6      78.800  -3.292  64.826  1.00 73.93 LIG 0.01  C 
ATOM     52  CD1 LEU P   6      77.899  -1.034  65.450  1.00 75.78 LIG 0.01  C 
ENDBRANCH 49 50
ENDBRANCH 47 49
ENDBRANCH 44 47
ENDBRANCH 42 43
BRANCH 42 53
ATOM     53  CB  VAL P   7      76.655   2.006  62.411  1.00 67.45 LIG 0.01  C 
ATOM     54  CG2 VAL P   7      75.143   2.139  62.392  1.00 67.18 LIG 0.01  C 
ATOM     55  CG1 VAL P   7      77.299   3.206  61.744  1.00 63.58 LIG 0.01  C 
ENDBRANCH 42 53
ENDBRANCH 39 42
ENDBRANCH 1 38
TORSDOF 20
ENDMDL
MODEL 71
USER: ADFR SOLUTION from run 85
USER: SCORE 19.220370 LL:  -4.935 LR: -15.128 RR:   0.000 FEB:  -9.162
USER: RMSD 9.378527
USER: SEED 84
USER: STATUS no improvement in best in 10 clusters for 5 generations
USER: GENES 22
USER: genes 0 Translation |==|  0.40076 0.50566 0.57351
USER: genes 1 Rotation |==|  0.78980 0.67108 0.13028 0.50770
USER: genes 2 Torsion [N]-CA--C-[N] |==|  0.16818
USER: genes 3 Torsion [C]-N--CA-[CB] |==|  0.13344
USER: genes 4 Torsion [N]-CA--CB-[CG] |==|  0.12617
USER: genes 5 Torsion [CA]-CB--CG-[CD] |==|  0.55560
USER: genes 6 Torsion [CB]-CG--CD-[OE1] |==|  0.14810
USER: genes 7 Torsion [N]-CA--C-[N] |==|  0.11518
USER: genes 8 Torsion [C]-N--CA-[C] |==|  0.65544
USER: genes 9 Torsion [N]-CA--C-[O] |==|  0.37556
USER: genes 10 Torsion [N]-CA--CB-[CG] |==|  0.26973
USER: genes 11 Torsion [CA]-CB--CG-[CD1] |==|  0.76972
USER: genes 12 Torsion [C]-CA--CB-[CG] |==|  0.57557
USER: genes 13 Torsion [CA]-CB--CG-[CD1] |==|  0.35633
USER: genes 14 Torsion [CE1]-CZ--OH-[HH] |==|  0.04243
USER: genes 15 Torsion [C]-CA--N-[C] |==|  0.75037
USER: genes 16 Torsion [N]-C--CA-[N] |==|  0.25000
USER: genes 17 Torsion [C]-CA--N-[C] |==|  0.64865
USER: genes 18 Torsion [N]-C--CA-[N] |==|  0.78645
USER: genes 19 Torsion [C]-CA--CB-[CG] |==|  0.73478
USER: genes 20 Torsion [CA]-CB--CG-[CD2] |==|  0.67896
USER: genes 21 Torsion [C]-CA--CB-[CG2] |==|  0.58440
ROOT
ATOM      1  CA  TYR P   8      80.316  -2.040  62.063  1.00 57.99 LIG 0.18  C 
ENDROOT
BRANCH 1 2
ATOM      2  C   TYR P   8      80.757  -3.464  61.758  1.00 56.68 LIG 0.24  C 
ATOM      3  N   GLN P   9      81.718  -3.605  60.851  1.00 57.67 LIG-0.35  N 
ATOM      4 H    GLN P   9      82.050  -2.952  60.400  1.00 57.67 LIG 0.16  HD
ATOM      5 O    TYR P   8      80.230  -4.417  62.341  1.00 54.26 LIG-0.27  OA
BRANCH 3 6
ATOM      6  CA  GLN P   9      82.300  -4.904  60.541  1.00 54.86 LIG 0.18  C 
BRANCH 6 7
ATOM      7  CB  GLN P   9      81.214  -5.952  60.311  1.00 52.41 LIG 0.04  C 
BRANCH 7 8
ATOM      8  CG  GLN P   9      80.080  -5.475  59.421  1.00 53.63 LIG 0.10  C 
BRANCH 8 9
ATOM      9  CD  GLN P   9      78.827  -6.304  59.594  1.00 56.56 LIG 0.21  C 
ATOM     10 OE1  GLN P   9      78.341  -6.482  60.711  1.00 59.67 LIG-0.27  OA
ATOM     11  NE2 GLN P   9      78.296  -6.818  58.490  1.00 58.55 LIG-0.37  N 
ATOM     12 22HE GLN P   9      77.583  -7.298  58.538  1.00 58.55 LIG 0.16  HD
ATOM     13 21HE GLN P   9      78.665  -6.672  57.727  1.00 58.55 LIG 0.16  HD
ENDBRANCH 8 9
ENDBRANCH 7 8
ENDBRANCH 6 7
BRANCH 6 14
ATOM     14  C   GLN P   9      83.183  -4.766  59.307  1.00 54.72 LIG 0.24  C 
ATOM     15 O    GLN P   9      83.163  -5.631  58.423  1.00 59.60 LIG-0.27  OA
ATOM     16  N   PHE P  10      83.944  -3.679  59.240  1.00 49.02 LIG-0.34  N 
ATOM     17 H    PHE P  10      83.934  -3.044  59.820  1.00 49.02 LIG 0.16  HD
BRANCH 16 18
ATOM     18  CA  PHE P  10      84.878  -3.485  58.140  1.00 50.33 LIG 0.19  C 
BRANCH 18 19
ATOM     19  C   PHE P  10      86.299  -3.265  58.645  1.00 49.91 LIG 0.20  C 
ATOM     20 O    PHE P  10      87.247  -3.848  58.114  1.00 45.93 LIG-0.65  OA
ATOM     21 OXT  PHE P  10      86.525  -2.512  59.594  1.00 46.36 LIG-0.65  OA
ENDBRANCH 18 19
BRANCH 18 22
ATOM     22  CB  PHE P  10      84.439  -2.316  57.253  1.00 51.88 LIG 0.07  C 
BRANCH 22 23
ATOM     23  CG  PHE P  10      85.122  -1.011  57.563  1.00 51.17 LIG-0.06  A 
ATOM     24  CD1 PHE P  10      84.664  -0.200  58.588  1.00 49.53 LIG 0.01  A 
ATOM     25  CE1 PHE P  10      85.280   1.004  58.865  1.00 54.45 LIG 0.00  A 
ATOM     26  CZ  PHE P  10      86.355   1.420  58.105  1.00 54.40 LIG 0.00  A 
ATOM     27  CE2 PHE P  10      86.817   0.627  57.077  1.00 52.97 LIG 0.00  A 
ATOM     28  CD2 PHE P  10      86.198  -0.578  56.804  1.00 50.02 LIG 0.01  A 
ENDBRANCH 22 23
ENDBRANCH 18 22
ENDBRANCH 16 18
ENDBRANCH 6 14
ENDBRANCH 3 6
ENDBRANCH 1 2
BRANCH 1 29
ATOM     29  CB  TYR P   8      79.257  -2.045  63.164  1.00 54.61 LIG 0.07  C 
BRANCH 29 30
ATOM     30  CG  TYR P   8      78.302  -0.876  63.124  1.00 66.64 LIG-0.06  A 
ATOM     31  CD1 TYR P   8      76.928  -1.079  63.144  1.00 68.29 LIG 0.01  A 
ATOM     32  CE1 TYR P   8      76.050  -0.016  63.102  1.00 71.89 LIG 0.04  A 
ATOM     33  CZ  TYR P   8      76.543   1.271  63.033  1.00 71.50 LIG 0.07  A 
ATOM     34  CE2 TYR P   8      77.903   1.498  63.007  1.00 69.11 LIG 0.04  A 
ATOM     35  CD2 TYR P   8      78.772   0.428  63.048  1.00 65.21 LIG 0.01  A 
BRANCH 33 36
ATOM     36 OH   TYR P   8      75.672   2.333  62.990  1.00 83.55 LIG-0.36  OA
ATOM     37 HH   TYR P   8      74.906   2.077  63.220  1.00 83.55 LIG 0.22  HD
ENDBRANCH 33 36
ENDBRANCH 29 30
ENDBRANCH 1 29
BRANCH 1 38
ATOM     38  N   TYR P   8      79.803  -1.437  60.841  1.00 59.31 LIG-0.35  N 
ATOM     39  C   VAL P   7      80.573  -0.770  59.986  1.00 65.10 LIG 0.24  C 
ATOM     40 O    VAL P   7      81.773  -0.546  60.193  1.00 66.40 LIG-0.27  OA
ATOM     41 H    TYR P   8      78.958  -1.552  60.725  1.00 59.31 LIG 0.16  HD
BRANCH 39 42
ATOM     42  CA  VAL P   7      79.898  -0.277  58.713  1.00 68.90 LIG 0.18  C 
BRANCH 42 43
ATOM     43  N   VAL P   7      79.365   1.058  58.949  1.00 69.26 LIG-0.34  N 
ATOM     44  C   LEU P   6      78.096   1.379  58.715  1.00 74.59 LIG 0.26  C 
ATOM     45 O    LEU P   6      77.263   0.560  58.317  1.00 73.78 LIG-0.27  OA
ATOM     46 H    VAL P   7      79.945   1.615  59.252  1.00 69.26 LIG 0.16  HD
BRANCH 44 47
ATOM     47  CA  LEU P   6      77.721   2.838  58.993  1.00 78.06 LIG 0.40  C 
ATOM     48  N   LEU P   6      77.575   3.065  60.425  1.00 74.40 LIG 0.61  N 
BRANCH 47 49
ATOM     49  CB  LEU P   6      78.757   3.802  58.401  1.00 78.52 LIG 0.06  C 
BRANCH 49 50
ATOM     50  CG  LEU P   6      79.899   4.356  59.258  1.00 77.43 LIG-0.02  C 
ATOM     51  CD2 LEU P   6      79.807   5.867  59.436  1.00 73.93 LIG 0.01  C 
ATOM     52  CD1 LEU P   6      81.211   3.954  58.618  1.00 75.78 LIG 0.01  C 
ENDBRANCH 49 50
ENDBRANCH 47 49
ENDBRANCH 44 47
ENDBRANCH 42 43
BRANCH 42 53
ATOM     53  CB  VAL P   7      80.880  -0.280  57.529  1.00 67.45 LIG 0.01  C 
ATOM     54  CG2 VAL P   7      80.523   0.821  56.547  1.00 67.18 LIG 0.01  C 
ATOM     55  CG1 VAL P   7      80.872  -1.628  56.836  1.00 63.58 LIG 0.01  C 
ENDBRANCH 42 53
ENDBRANCH 39 42
ENDBRANCH 1 38
TORSDOF 20
ENDMDL
MODEL 72
USER: ADFR SOLUTION from run 53
USER: SCORE 18.838741 LL:  -5.128 LR: -15.122 RR:   0.000 FEB:  -9.156
USER: RMSD 8.341394
USER: SEED 52
USER: STATUS no improvement in best in 2 clusters for 5 generations
USER: GENES 22
USER: genes 0 Translation |==|  0.29931 0.72173 0.50560
USER: genes 1 Rotation |==|  0.14596 0.29051 0.75839 0.61835
USER: genes 2 Torsion [N]-CA--C-[N] |==|  0.32222
USER: genes 3 Torsion [C]-N--CA-[CB] |==|  0.19872
USER: genes 4 Torsion [N]-CA--CB-[CG] |==|  0.57324
USER: genes 5 Torsion [CA]-CB--CG-[CD] |==|  0.18413
USER: genes 6 Torsion [CB]-CG--CD-[OE1] |==|  0.03102
USER: genes 7 Torsion [N]-CA--C-[N] |==|  0.39428
USER: genes 8 Torsion [C]-N--CA-[C] |==|  0.66147
USER: genes 9 Torsion [N]-CA--C-[O] |==|  0.91713
USER: genes 10 Torsion [N]-CA--CB-[CG] |==|  0.81678
USER: genes 11 Torsion [CA]-CB--CG-[CD1] |==|  0.89773
USER: genes 12 Torsion [C]-CA--CB-[CG] |==|  0.18932
USER: genes 13 Torsion [CA]-CB--CG-[CD1] |==|  0.12443
USER: genes 14 Torsion [CE1]-CZ--OH-[HH] |==|  0.42261
USER: genes 15 Torsion [C]-CA--N-[C] |==|  0.84432
USER: genes 16 Torsion [N]-C--CA-[N] |==|  0.46017
USER: genes 17 Torsion [C]-CA--N-[C] |==|  0.80872
USER: genes 18 Torsion [N]-C--CA-[N] |==|  0.47968
USER: genes 19 Torsion [C]-CA--CB-[CG] |==|  0.95377
USER: genes 20 Torsion [CA]-CB--CG-[CD2] |==|  0.63610
USER: genes 21 Torsion [C]-CA--CB-[CG2] |==|  0.90155
ROOT
ATOM      1  CA  TYR P   8      78.033   2.822  60.841  1.00 57.99 LIG 0.18  C 
ENDROOT
BRANCH 1 2
ATOM      2  C   TYR P   8      78.163   1.679  59.845  1.00 56.68 LIG 0.24  C 
ATOM      3  N   GLN P   9      79.204   0.868  60.005  1.00 57.67 LIG-0.35  N 
ATOM      4 H    GLN P   9      79.821   0.991  60.592  1.00 57.67 LIG 0.16  HD
ATOM      5 O    TYR P   8      77.326   1.538  58.947  1.00 54.26 LIG-0.27  OA
BRANCH 3 6
ATOM      6  CA  GLN P   9      79.388  -0.321  59.184  1.00 54.86 LIG 0.18  C 
BRANCH 6 7
ATOM      7  CB  GLN P   9      79.782   0.053  57.757  1.00 52.41 LIG 0.04  C 
BRANCH 7 8
ATOM      8  CG  GLN P   9      79.390  -0.985  56.720  1.00 53.63 LIG 0.10  C 
BRANCH 8 9
ATOM      9  CD  GLN P   9      77.891  -1.113  56.575  1.00 56.56 LIG 0.21  C 
ATOM     10 OE1  GLN P   9      77.137  -0.291  57.096  1.00 59.67 LIG-0.27  OA
ATOM     11  NE2 GLN P   9      77.447  -2.147  55.867  1.00 58.55 LIG-0.37  N 
ATOM     12 22HE GLN P   9      76.601  -2.262  55.758  1.00 58.55 LIG 0.16  HD
ATOM     13 21HE GLN P   9      78.005  -2.700  55.519  1.00 58.55 LIG 0.16  HD
ENDBRANCH 8 9
ENDBRANCH 7 8
ENDBRANCH 6 7
BRANCH 6 14
ATOM     14  C   GLN P   9      80.456  -1.200  59.823  1.00 54.72 LIG 0.24  C 
ATOM     15 O    GLN P   9      81.441  -0.690  60.369  1.00 59.60 LIG-0.27  OA
ATOM     16  N   PHE P  10      80.257  -2.512  59.766  1.00 49.02 LIG-0.34  N 
ATOM     17 H    PHE P  10      79.555  -2.882  59.435  1.00 49.02 LIG 0.16  HD
BRANCH 16 18
ATOM     18  CA  PHE P  10      81.250  -3.444  60.281  1.00 50.33 LIG 0.19  C 
BRANCH 18 19
ATOM     19  C   PHE P  10      81.723  -4.410  59.202  1.00 49.91 LIG 0.20  C 
ATOM     20 O    PHE P  10      80.967  -4.740  58.285  1.00 45.93 LIG-0.65  OA
ATOM     21 OXT  PHE P  10      82.860  -4.886  59.231  1.00 46.36 LIG-0.65  OA
ENDBRANCH 18 19
BRANCH 18 22
ATOM     22  CB  PHE P  10      80.701  -4.214  61.485  1.00 51.88 LIG 0.07  C 
BRANCH 22 23
ATOM     23  CG  PHE P  10      80.432  -3.360  62.696  1.00 51.17 LIG-0.06  A 
ATOM     24  CD1 PHE P  10      81.269  -2.305  63.017  1.00 49.53 LIG 0.01  A 
ATOM     25  CE1 PHE P  10      81.032  -1.530  64.135  1.00 54.45 LIG 0.00  A 
ATOM     26  CZ  PHE P  10      79.960  -1.815  64.957  1.00 54.40 LIG 0.00  A 
ATOM     27  CE2 PHE P  10      79.122  -2.866  64.654  1.00 52.97 LIG 0.00  A 
ATOM     28  CD2 PHE P  10      79.363  -3.639  63.533  1.00 50.02 LIG 0.01  A 
ENDBRANCH 22 23
ENDBRANCH 18 22
ENDBRANCH 16 18
ENDBRANCH 6 14
ENDBRANCH 3 6
ENDBRANCH 1 2
BRANCH 1 29
ATOM     29  CB  TYR P   8      76.689   2.738  61.563  1.00 54.61 LIG 0.07  C 
BRANCH 29 30
ATOM     30  CG  TYR P   8      76.549   1.558  62.495  1.00 66.64 LIG-0.06  A 
ATOM     31  CD1 TYR P   8      77.575   1.212  63.364  1.00 68.29 LIG 0.01  A 
ATOM     32  CE1 TYR P   8      77.454   0.132  64.214  1.00 71.89 LIG 0.04  A 
ATOM     33  CZ  TYR P   8      76.298  -0.620  64.198  1.00 71.50 LIG 0.07  A 
ATOM     34  CE2 TYR P   8      75.267  -0.299  63.341  1.00 69.11 LIG 0.04  A 
ATOM     35  CD2 TYR P   8      75.398   0.782  62.494  1.00 65.21 LIG 0.01  A 
BRANCH 33 36
ATOM     36 OH   TYR P   8      76.175  -1.697  65.043  1.00 83.55 LIG-0.36  OA
ATOM     37 HH   TYR P   8      75.363  -1.823  65.219  1.00 83.55 LIG 0.22  HD
ENDBRANCH 33 36
ENDBRANCH 29 30
ENDBRANCH 1 29
BRANCH 1 38
ATOM     38  N   TYR P   8      78.169   4.083  60.125  1.00 59.31 LIG-0.35  N 
ATOM     39  C   VAL P   7      79.227   4.378  59.375  1.00 65.10 LIG 0.24  C 
ATOM     40 O    VAL P   7      80.214   3.636  59.281  1.00 66.40 LIG-0.27  OA
ATOM     41 H    TYR P   8      77.503   4.617  60.233  1.00 59.31 LIG 0.16  HD
BRANCH 39 42
ATOM     42  CA  VAL P   7      79.174   5.701  58.624  1.00 68.90 LIG 0.18  C 
BRANCH 42 43
ATOM     43  N   VAL P   7      80.511   6.024  58.143  1.00 69.26 LIG-0.34  N 
ATOM     44  C   LEU P   6      81.509   6.357  58.956  1.00 74.59 LIG 0.26  C 
ATOM     45 O    LEU P   6      81.390   6.378  60.184  1.00 73.78 LIG-0.27  OA
ATOM     46 H    VAL P   7      80.593   5.980  57.289  1.00 69.26 LIG 0.16  HD
BRANCH 44 47
ATOM     47  CA  LEU P   6      82.836   6.694  58.271  1.00 78.06 LIG 0.40  C 
ATOM     48  N   LEU P   6      83.798   7.206  59.240  1.00 74.40 LIG 0.61  N 
BRANCH 47 49
ATOM     49  CB  LEU P   6      83.412   5.473  57.541  1.00 78.52 LIG 0.06  C 
BRANCH 49 50
ATOM     50  CG  LEU P   6      82.908   4.059  57.848  1.00 77.43 LIG-0.02  C 
ATOM     51  CD2 LEU P   6      84.050   3.080  58.094  1.00 73.93 LIG 0.01  C 
ATOM     52  CD1 LEU P   6      82.031   3.609  56.699  1.00 75.78 LIG 0.01  C 
ENDBRANCH 49 50
ENDBRANCH 47 49
ENDBRANCH 44 47
ENDBRANCH 42 43
BRANCH 42 53
ATOM     53  CB  VAL P   7      78.168   5.637  57.461  1.00 67.45 LIG 0.01  C 
ATOM     54  CG2 VAL P   7      78.175   4.254  56.835  1.00 67.18 LIG 0.01  C 
ATOM     55  CG1 VAL P   7      78.495   6.690  56.420  1.00 63.58 LIG 0.01  C 
ENDBRANCH 42 53
ENDBRANCH 39 42
ENDBRANCH 1 38
TORSDOF 20
ENDMDL
MODEL 73
USER: ADFR SOLUTION from run 173
USER: SCORE 18.560659 LL:  -4.473 LR: -15.124 RR:   0.000 FEB:  -9.158
USER: RMSD 4.822881
USER: SEED 172
USER: STATUS no improvement in best in 12 clusters for 5 generations
USER: GENES 22
USER: genes 0 Translation |==|  0.45036 0.48356 0.43335
USER: genes 1 Rotation |==|  0.17783 0.60883 0.52542 0.86567
USER: genes 2 Torsion [N]-CA--C-[N] |==|  0.53326
USER: genes 3 Torsion [C]-N--CA-[CB] |==|  0.20982
USER: genes 4 Torsion [N]-CA--CB-[CG] |==|  0.61061
USER: genes 5 Torsion [CA]-CB--CG-[CD] |==|  0.67161
USER: genes 6 Torsion [CB]-CG--CD-[OE1] |==|  0.81159
USER: genes 7 Torsion [N]-CA--C-[N] |==|  0.10384
USER: genes 8 Torsion [C]-N--CA-[C] |==|  0.66503
USER: genes 9 Torsion [N]-CA--C-[O] |==|  0.08198
USER: genes 10 Torsion [N]-CA--CB-[CG] |==|  0.68867
USER: genes 11 Torsion [CA]-CB--CG-[CD1] |==|  0.40106
USER: genes 12 Torsion [C]-CA--CB-[CG] |==|  0.30472
USER: genes 13 Torsion [CA]-CB--CG-[CD1] |==|  0.21705
USER: genes 14 Torsion [CE1]-CZ--OH-[HH] |==|  0.83079
USER: genes 15 Torsion [C]-CA--N-[C] |==|  0.78456
USER: genes 16 Torsion [N]-C--CA-[N] |==|  0.88377
USER: genes 17 Torsion [C]-CA--N-[C] |==|  0.82399
USER: genes 18 Torsion [N]-C--CA-[N] |==|  0.62651
USER: genes 19 Torsion [C]-CA--CB-[CG] |==|  0.79331
USER: genes 20 Torsion [CA]-CB--CG-[CD2] |==|  0.68523
USER: genes 21 Torsion [C]-CA--CB-[CG2] |==|  0.49837
ROOT
ATOM      1  CA  TYR P   8      81.432  -2.537  59.540  1.00 57.99 LIG 0.18  C 
ENDROOT
BRANCH 1 2
ATOM      2  C   TYR P   8      80.643  -1.886  58.414  1.00 56.68 LIG 0.24  C 
ATOM      3  N   GLN P   9      79.489  -1.318  58.749  1.00 57.67 LIG-0.35  N 
ATOM      4 H    GLN P   9      79.151  -1.353  59.539  1.00 57.67 LIG 0.16  HD
ATOM      5 O    TYR P   8      81.080  -1.901  57.258  1.00 54.26 LIG-0.27  OA
BRANCH 3 6
ATOM      6  CA  GLN P   9      78.687  -0.575  57.787  1.00 54.86 LIG 0.18  C 
BRANCH 6 7
ATOM      7  CB  GLN P   9      77.958  -1.520  56.834  1.00 52.41 LIG 0.04  C 
BRANCH 7 8
ATOM      8  CG  GLN P   9      77.925  -1.035  55.396  1.00 53.63 LIG 0.10  C 
BRANCH 8 9
ATOM      9  CD  GLN P   9      76.515  -0.802  54.902  1.00 56.56 LIG 0.21  C 
ATOM     10 OE1  GLN P   9      75.741  -1.746  54.740  1.00 59.67 LIG-0.27  OA
ATOM     11  NE2 GLN P   9      76.170   0.459  54.658  1.00 58.55 LIG-0.37  N 
ATOM     12 22HE GLN P   9      75.378   0.641  54.375  1.00 58.55 LIG 0.16  HD
ATOM     13 21HE GLN P   9      76.738   1.091  54.783  1.00 58.55 LIG 0.16  HD
ENDBRANCH 8 9
ENDBRANCH 7 8
ENDBRANCH 6 7
BRANCH 6 14
ATOM     14  C   GLN P   9      77.693   0.297  58.543  1.00 54.72 LIG 0.24  C 
ATOM     15 O    GLN P   9      76.545   0.454  58.112  1.00 59.60 LIG-0.27  OA
ATOM     16  N   PHE P  10      78.126   0.849  59.671  1.00 49.02 LIG-0.34  N 
ATOM     17 H    PHE P  10      78.904   0.711  60.011  1.00 49.02 LIG 0.16  HD
BRANCH 16 18
ATOM     18  CA  PHE P  10      77.282   1.759  60.432  1.00 50.33 LIG 0.19  C 
BRANCH 18 19
ATOM     19  C   PHE P  10      77.927   3.132  60.580  1.00 49.91 LIG 0.20  C 
ATOM     20 O    PHE P  10      78.692   3.557  59.711  1.00 45.93 LIG-0.65  OA
ATOM     21 OXT  PHE P  10      77.706   3.833  61.569  1.00 46.36 LIG-0.65  OA
ENDBRANCH 18 19
BRANCH 18 22
ATOM     22  CB  PHE P  10      76.953   1.172  61.808  1.00 51.88 LIG 0.07  C 
BRANCH 22 23
ATOM     23  CG  PHE P  10      75.507   0.798  61.994  1.00 51.17 LIG-0.06  A 
ATOM     24  CD1 PHE P  10      75.156  -0.313  62.742  1.00 49.53 LIG 0.01  A 
ATOM     25  CE1 PHE P  10      73.831  -0.667  62.902  1.00 54.45 LIG 0.00  A 
ATOM     26  CZ  PHE P  10      72.839   0.081  62.298  1.00 54.40 LIG 0.00  A 
ATOM     27  CE2 PHE P  10      73.174   1.185  61.545  1.00 52.97 LIG 0.00  A 
ATOM     28  CD2 PHE P  10      74.502   1.536  61.388  1.00 50.02 LIG 0.01  A 
ENDBRANCH 22 23
ENDBRANCH 18 22
ENDBRANCH 16 18
ENDBRANCH 6 14
ENDBRANCH 3 6
ENDBRANCH 1 2
BRANCH 1 29
ATOM     29  CB  TYR P   8      81.484  -1.605  60.750  1.00 54.61 LIG 0.07  C 
BRANCH 29 30
ATOM     30  CG  TYR P   8      80.668  -2.064  61.934  1.00 66.64 LIG-0.06  A 
ATOM     31  CD1 TYR P   8      81.137  -3.063  62.777  1.00 68.29 LIG 0.01  A 
ATOM     32  CE1 TYR P   8      80.394  -3.491  63.857  1.00 71.89 LIG 0.04  A 
ATOM     33  CZ  TYR P   8      79.162  -2.922  64.103  1.00 71.50 LIG 0.07  A 
ATOM     34  CE2 TYR P   8      78.672  -1.932  63.278  1.00 69.11 LIG 0.04  A 
ATOM     35  CD2 TYR P   8      79.422  -1.512  62.200  1.00 65.21 LIG 0.01  A 
BRANCH 33 36
ATOM     36 OH   TYR P   8      78.417  -3.347  65.178  1.00 83.55 LIG-0.36  OA
ATOM     37 HH   TYR P   8      78.242  -4.164  65.093  1.00 83.55 LIG 0.22  HD
ENDBRANCH 33 36
ENDBRANCH 29 30
ENDBRANCH 1 29
BRANCH 1 38
ATOM     38  N   TYR P   8      82.770  -2.846  59.056  1.00 59.31 LIG-0.35  N 
ATOM     39  C   VAL P   7      83.032  -3.890  58.275  1.00 65.10 LIG 0.24  C 
ATOM     40 O    VAL P   7      82.175  -4.724  57.953  1.00 66.40 LIG-0.27  OA
ATOM     41 H    TYR P   8      83.373  -2.292  59.322  1.00 59.31 LIG 0.16  HD
BRANCH 39 42
ATOM     42  CA  VAL P   7      84.468  -4.022  57.784  1.00 68.90 LIG 0.18  C 
BRANCH 42 43
ATOM     43  N   VAL P   7      84.958  -2.705  57.401  1.00 69.26 LIG-0.34  N 
ATOM     44  C   LEU P   6      84.428  -1.999  56.406  1.00 74.59 LIG 0.26  C 
ATOM     45 O    LEU P   6      83.455  -2.390  55.757  1.00 73.78 LIG-0.27  OA
ATOM     46 H    VAL P   7      85.619  -2.429  57.876  1.00 69.26 LIG 0.16  HD
BRANCH 44 47
ATOM     47  CA  LEU P   6      85.093  -0.649  56.126  1.00 78.06 LIG 0.40  C 
ATOM     48  N   LEU P   6      84.086   0.391  55.951  1.00 74.40 LIG 0.61  N 
BRANCH 47 49
ATOM     49  CB  LEU P   6      86.069  -0.265  57.246  1.00 78.52 LIG 0.06  C 
BRANCH 49 50
ATOM     50  CG  LEU P   6      85.558   0.221  58.606  1.00 77.43 LIG-0.02  C 
ATOM     51  CD2 LEU P   6      85.906   1.682  58.865  1.00 73.93 LIG 0.01  C 
ATOM     52  CD1 LEU P   6      86.131  -0.682  59.677  1.00 75.78 LIG 0.01  C 
ENDBRANCH 49 50
ENDBRANCH 47 49
ENDBRANCH 44 47
ENDBRANCH 42 43
BRANCH 42 53
ATOM     53  CB  VAL P   7      85.365  -4.655  58.862  1.00 67.45 LIG 0.01  C 
ATOM     54  CG2 VAL P   7      86.787  -4.791  58.348  1.00 67.18 LIG 0.01  C 
ATOM     55  CG1 VAL P   7      84.822  -6.007  59.277  1.00 63.58 LIG 0.01  C 
ENDBRANCH 42 53
ENDBRANCH 39 42
ENDBRANCH 1 38
TORSDOF 20
ENDMDL
MODEL 74
USER: ADFR SOLUTION from run 177
USER: SCORE 18.757419 LL:  -4.271 LR: -15.110 RR:   0.000 FEB:  -9.144
USER: RMSD 5.642646
USER: SEED 176
USER: STATUS no improvement in best in 11 clusters for 5 generations
USER: GENES 22
USER: genes 0 Translation |==|  0.50601 0.44649 0.41666
USER: genes 1 Rotation |==|  0.77711 0.10128 0.38816 0.54144
USER: genes 2 Torsion [N]-CA--C-[N] |==|  0.42677
USER: genes 3 Torsion [C]-N--CA-[CB] |==|  0.87321
USER: genes 4 Torsion [N]-CA--CB-[CG] |==|  0.33997
USER: genes 5 Torsion [CA]-CB--CG-[CD] |==|  0.34162
USER: genes 6 Torsion [CB]-CG--CD-[OE1] |==|  0.38259
USER: genes 7 Torsion [N]-CA--C-[N] |==|  0.40556
USER: genes 8 Torsion [C]-N--CA-[C] |==|  0.17088
USER: genes 9 Torsion [N]-CA--C-[O] |==|  0.59886
USER: genes 10 Torsion [N]-CA--CB-[CG] |==|  0.76431
USER: genes 11 Torsion [CA]-CB--CG-[CD1] |==|  0.53771
USER: genes 12 Torsion [C]-CA--CB-[CG] |==|  0.21275
USER: genes 13 Torsion [CA]-CB--CG-[CD1] |==|  0.20170
USER: genes 14 Torsion [CE1]-CZ--OH-[HH] |==|  0.50517
USER: genes 15 Torsion [C]-CA--N-[C] |==|  0.76000
USER: genes 16 Torsion [N]-C--CA-[N] |==|  0.43518
USER: genes 17 Torsion [C]-CA--N-[C] |==|  0.64720
USER: genes 18 Torsion [N]-C--CA-[N] |==|  0.38798
USER: genes 19 Torsion [C]-CA--CB-[CG] |==|  0.99767
USER: genes 20 Torsion [CA]-CB--CG-[CD2] |==|  0.53527
USER: genes 21 Torsion [C]-CA--CB-[CG2] |==|  0.23299
ROOT
ATOM      1  CA  TYR P   8      82.684  -3.371  59.240  1.00 57.99 LIG 0.18  C 
ENDROOT
BRANCH 1 2
ATOM      2  C   TYR P   8      81.501  -2.494  59.622  1.00 56.68 LIG 0.24  C 
ATOM      3  N   GLN P   9      81.772  -1.416  60.350  1.00 57.67 LIG-0.35  N 
ATOM      4 H    GLN P   9      82.555  -1.230  60.657  1.00 57.67 LIG 0.16  HD
ATOM      5 O    TYR P   8      80.360  -2.795  59.256  1.00 54.26 LIG-0.27  OA
BRANCH 3 6
ATOM      6  CA  GLN P   9      80.747  -0.441  60.697  1.00 54.86 LIG 0.18  C 
BRANCH 6 7
ATOM      7  CB  GLN P   9      79.892  -0.088  59.483  1.00 52.41 LIG 0.04  C 
BRANCH 7 8
ATOM      8  CG  GLN P   9      78.409  -0.351  59.679  1.00 53.63 LIG 0.10  C 
BRANCH 8 9
ATOM      9  CD  GLN P   9      77.573   0.890  59.462  1.00 56.56 LIG 0.21  C 
ATOM     10 OE1  GLN P   9      76.514   0.833  58.837  1.00 59.67 LIG-0.27  OA
ATOM     11  NE2 GLN P   9      78.043   2.022  59.976  1.00 58.55 LIG-0.37  N 
ATOM     12 22HE GLN P   9      77.603   2.755  59.877  1.00 58.55 LIG 0.16  HD
ATOM     13 21HE GLN P   9      78.787   2.023  60.406  1.00 58.55 LIG 0.16  HD
ENDBRANCH 8 9
ENDBRANCH 7 8
ENDBRANCH 6 7
BRANCH 6 14
ATOM     14  C   GLN P   9      79.883  -1.012  61.815  1.00 54.72 LIG 0.24  C 
ATOM     15 O    GLN P   9      79.660  -2.226  61.874  1.00 59.60 LIG-0.27  OA
ATOM     16  N   PHE P  10      79.412  -0.144  62.703  1.00 49.02 LIG-0.34  N 
ATOM     17 H    PHE P  10      79.598   0.696  62.706  1.00 49.02 LIG 0.16  HD
BRANCH 16 18
ATOM     18  CA  PHE P  10      78.517  -0.573  63.769  1.00 50.33 LIG 0.19  C 
BRANCH 18 19
ATOM     19  C   PHE P  10      79.184  -1.592  64.684  1.00 49.91 LIG 0.20  C 
ATOM     20 O    PHE P  10      78.528  -2.514  65.174  1.00 45.93 LIG-0.65  OA
ATOM     21 OXT  PHE P  10      80.383  -1.509  64.958  1.00 46.36 LIG-0.65  OA
ENDBRANCH 18 19
BRANCH 18 22
ATOM     22  CB  PHE P  10      77.218  -1.141  63.191  1.00 51.88 LIG 0.07  C 
BRANCH 22 23
ATOM     23  CG  PHE P  10      76.173  -0.104  62.875  1.00 51.17 LIG-0.06  A 
ATOM     24  CD1 PHE P  10      74.865  -0.477  62.615  1.00 49.53 LIG 0.01  A 
ATOM     25  CE1 PHE P  10      73.908   0.471  62.311  1.00 54.45 LIG 0.00  A 
ATOM     26  CZ  PHE P  10      74.255   1.805  62.245  1.00 54.40 LIG 0.00  A 
ATOM     27  CE2 PHE P  10      75.555   2.190  62.494  1.00 52.97 LIG 0.00  A 
ATOM     28  CD2 PHE P  10      76.510   1.238  62.799  1.00 50.02 LIG 0.01  A 
ENDBRANCH 22 23
ENDBRANCH 18 22
ENDBRANCH 16 18
ENDBRANCH 6 14
ENDBRANCH 3 6
ENDBRANCH 1 2
BRANCH 1 29
ATOM     29  CB  TYR P   8      83.358  -2.823  57.983  1.00 54.61 LIG 0.07  C 
BRANCH 29 30
ATOM     30  CG  TYR P   8      84.225  -1.608  58.213  1.00 66.64 LIG-0.06  A 
ATOM     31  CD1 TYR P   8      85.452  -1.721  58.855  1.00 68.29 LIG 0.01  A 
ATOM     32  CE1 TYR P   8      86.246  -0.614  59.072  1.00 71.89 LIG 0.04  A 
ATOM     33  CZ  TYR P   8      85.814   0.626  58.650  1.00 71.50 LIG 0.07  A 
ATOM     34  CE2 TYR P   8      84.598   0.764  58.015  1.00 69.11 LIG 0.04  A 
ATOM     35  CD2 TYR P   8      83.811  -0.348  57.803  1.00 65.21 LIG 0.01  A 
BRANCH 33 36
ATOM     36 OH   TYR P   8      86.602   1.732  58.866  1.00 83.55 LIG-0.36  OA
ATOM     37 HH   TYR P   8      86.207   2.417  58.583  1.00 83.55 LIG 0.22  HD
ENDBRANCH 33 36
ENDBRANCH 29 30
ENDBRANCH 1 29
BRANCH 1 38
ATOM     38  N   TYR P   8      82.210  -4.732  59.032  1.00 59.31 LIG-0.35  N 
ATOM     39  C   VAL P   7      82.088  -5.613  60.021  1.00 65.10 LIG 0.24  C 
ATOM     40 O    VAL P   7      82.434  -5.372  61.185  1.00 66.40 LIG-0.27  OA
ATOM     41 H    TYR P   8      82.016  -4.911  58.213  1.00 59.31 LIG 0.16  HD
BRANCH 39 42
ATOM     42  CA  VAL P   7      81.495  -6.965  59.650  1.00 68.90 LIG 0.18  C 
BRANCH 42 43
ATOM     43  N   VAL P   7      81.926  -7.954  60.630  1.00 69.26 LIG-0.34  N 
ATOM     44  C   LEU P   6      82.513  -9.098  60.290  1.00 74.59 LIG 0.26  C 
ATOM     45 O    LEU P   6      82.774  -9.392  59.121  1.00 73.78 LIG-0.27  OA
ATOM     46 H    VAL P   7      81.766  -7.729  61.444  1.00 69.26 LIG 0.16  HD
BRANCH 44 47
ATOM     47  CA  LEU P   6      82.871 -10.028  61.453  1.00 78.06 LIG 0.40  C 
ATOM     48  N   LEU P   6      82.593 -11.416  61.103  1.00 74.40 LIG 0.61  N 
BRANCH 47 49
ATOM     49  CB  LEU P   6      84.340  -9.866  61.865  1.00 78.52 LIG 0.06  C 
BRANCH 49 50
ATOM     50  CG  LEU P   6      85.262  -8.885  61.133  1.00 77.43 LIG-0.02  C 
ATOM     51  CD2 LEU P   6      86.729  -9.099  61.485  1.00 73.93 LIG 0.01  C 
ATOM     52  CD1 LEU P   6      84.814  -7.477  61.462  1.00 75.78 LIG 0.01  C 
ENDBRANCH 49 50
ENDBRANCH 47 49
ENDBRANCH 44 47
ENDBRANCH 42 43
BRANCH 42 53
ATOM     53  CB  VAL P   7      79.960  -6.895  59.574  1.00 67.45 LIG 0.01  C 
ATOM     54  CG2 VAL P   7      79.524  -6.384  58.213  1.00 67.18 LIG 0.01  C 
ATOM     55  CG1 VAL P   7      79.415  -6.003  60.672  1.00 63.58 LIG 0.01  C 
ENDBRANCH 42 53
ENDBRANCH 39 42
ENDBRANCH 1 38
TORSDOF 20
ENDMDL
MODEL 75
USER: ADFR SOLUTION from run 104
USER: SCORE 18.302448 LL:  -4.288 LR: -15.099 RR:   0.000 FEB:  -9.133
USER: RMSD 6.711945
USER: SEED 103
USER: STATUS no improvement in best in 9 clusters for 5 generations
USER: GENES 22
USER: genes 0 Translation |==|  0.48385 0.49928 0.40883
USER: genes 1 Rotation |==|  0.72542 0.12963 0.25832 0.56000
USER: genes 2 Torsion [N]-CA--C-[N] |==|  0.04695
USER: genes 3 Torsion [C]-N--CA-[CB] |==|  0.82609
USER: genes 4 Torsion [N]-CA--CB-[CG] |==|  0.71916
USER: genes 5 Torsion [CA]-CB--CG-[CD] |==|  0.81344
USER: genes 6 Torsion [CB]-CG--CD-[OE1] |==|  0.84293
USER: genes 7 Torsion [N]-CA--C-[N] |==|  0.04444
USER: genes 8 Torsion [C]-N--CA-[C] |==|  0.72774
USER: genes 9 Torsion [N]-CA--C-[O] |==|  0.24682
USER: genes 10 Torsion [N]-CA--CB-[CG] |==|  0.68462
USER: genes 11 Torsion [CA]-CB--CG-[CD1] |==|  0.85442
USER: genes 12 Torsion [C]-CA--CB-[CG] |==|  0.21625
USER: genes 13 Torsion [CA]-CB--CG-[CD1] |==|  0.10175
USER: genes 14 Torsion [CE1]-CZ--OH-[HH] |==|  0.46259
USER: genes 15 Torsion [C]-CA--N-[C] |==|  0.74272
USER: genes 16 Torsion [N]-C--CA-[N] |==|  0.42734
USER: genes 17 Torsion [C]-CA--N-[C] |==|  0.78958
USER: genes 18 Torsion [N]-C--CA-[N] |==|  0.80899
USER: genes 19 Torsion [C]-CA--CB-[CG] |==|  0.18863
USER: genes 20 Torsion [CA]-CB--CG-[CD2] |==|  0.75865
USER: genes 21 Torsion [C]-CA--CB-[CG2] |==|  0.85845
ROOT
ATOM      1  CA  TYR P   8      82.186  -2.183  59.099  1.00 57.99 LIG 0.18  C 
ENDROOT
BRANCH 1 2
ATOM      2  C   TYR P   8      81.421  -1.471  60.206  1.00 56.68 LIG 0.24  C 
ATOM      3  N   GLN P   9      80.444  -2.159  60.788  1.00 57.67 LIG-0.35  N 
ATOM      4 H    GLN P   9      80.193  -2.941  60.534  1.00 57.67 LIG 0.16  HD
ATOM      5 O    TYR P   8      81.719  -0.315  60.524  1.00 54.26 LIG-0.27  OA
BRANCH 3 6
ATOM      6  CA  GLN P   9      79.702  -1.632  61.925  1.00 54.86 LIG 0.18  C 
BRANCH 6 7
ATOM      7  CB  GLN P   9      80.621  -1.410  63.124  1.00 52.41 LIG 0.04  C 
BRANCH 7 8
ATOM      8  CG  GLN P   9      80.534  -2.502  64.175  1.00 53.63 LIG 0.10  C 
BRANCH 8 9
ATOM      9  CD  GLN P   9      79.191  -2.523  64.871  1.00 56.56 LIG 0.21  C 
ATOM     10 OE1  GLN P   9      78.764  -1.520  65.442  1.00 59.67 LIG-0.27  OA
ATOM     11  NE2 GLN P   9      78.516  -3.667  64.828  1.00 58.55 LIG-0.37  N 
ATOM     12 22HE GLN P   9      77.747  -3.727  65.209  1.00 58.55 LIG 0.16  HD
ATOM     13 21HE GLN P   9      78.847  -4.346  64.419  1.00 58.55 LIG 0.16  HD
ENDBRANCH 8 9
ENDBRANCH 7 8
ENDBRANCH 6 7
BRANCH 6 14
ATOM     14  C   GLN P   9      79.031  -0.327  61.514  1.00 54.72 LIG 0.24  C 
ATOM     15 O    GLN P   9      78.607   0.455  62.373  1.00 59.60 LIG-0.27  OA
ATOM     16  N   PHE P  10      78.947  -0.088  60.211  1.00 49.02 LIG-0.34  N 
ATOM     17 H    PHE P  10      79.280  -0.597  59.602  1.00 49.02 LIG 0.16  HD
BRANCH 16 18
ATOM     18  CA  PHE P  10      78.259   1.093  59.708  1.00 50.33 LIG 0.19  C 
BRANCH 18 19
ATOM     19  C   PHE P  10      76.834   0.770  59.275  1.00 49.91 LIG 0.20  C 
ATOM     20 O    PHE P  10      75.907   0.833  60.085  1.00 45.93 LIG-0.65  OA
ATOM     21 OXT  PHE P  10      76.585   0.431  58.117  1.00 46.36 LIG-0.65  OA
ENDBRANCH 18 19
BRANCH 18 22
ATOM     22  CB  PHE P  10      79.039   1.725  58.552  1.00 51.88 LIG 0.07  C 
BRANCH 22 23
ATOM     23  CG  PHE P  10      79.605   3.087  58.857  1.00 51.17 LIG-0.06  A 
ATOM     24  CD1 PHE P  10      78.793   4.094  59.352  1.00 49.53 LIG 0.01  A 
ATOM     25  CE1 PHE P  10      79.306   5.347  59.619  1.00 54.45 LIG 0.00  A 
ATOM     26  CZ  PHE P  10      80.639   5.614  59.375  1.00 54.40 LIG 0.00  A 
ATOM     27  CE2 PHE P  10      81.457   4.623  58.876  1.00 52.97 LIG 0.00  A 
ATOM     28  CD2 PHE P  10      80.939   3.369  58.611  1.00 50.02 LIG 0.01  A 
ENDBRANCH 22 23
ENDBRANCH 18 22
ENDBRANCH 16 18
ENDBRANCH 6 14
ENDBRANCH 3 6
ENDBRANCH 1 2
BRANCH 1 29
ATOM     29  CB  TYR P   8      82.454  -1.219  57.945  1.00 54.61 LIG 0.07  C 
BRANCH 29 30
ATOM     30  CG  TYR P   8      83.589  -0.252  58.184  1.00 66.64 LIG-0.06  A 
ATOM     31  CD1 TYR P   8      84.726  -0.647  58.878  1.00 68.29 LIG 0.01  A 
ATOM     32  CE1 TYR P   8      85.763   0.233  59.104  1.00 71.89 LIG 0.04  A 
ATOM     33  CZ  TYR P   8      85.671   1.528  58.639  1.00 71.50 LIG 0.07  A 
ATOM     34  CE2 TYR P   8      84.551   1.945  57.951  1.00 69.11 LIG 0.04  A 
ATOM     35  CD2 TYR P   8      83.518   1.058  57.730  1.00 65.21 LIG 0.01  A 
BRANCH 33 36
ATOM     36 OH   TYR P   8      86.703   2.409  58.863  1.00 83.55 LIG-0.36  OA
ATOM     37 HH   TYR P   8      86.602   3.088  58.378  1.00 83.55 LIG 0.22  HD
ENDBRANCH 33 36
ENDBRANCH 29 30
ENDBRANCH 1 29
BRANCH 1 38
ATOM     38  N   TYR P   8      81.406  -3.331  58.656  1.00 59.31 LIG-0.35  N 
ATOM     39  C   VAL P   7      81.564  -4.550  59.163  1.00 65.10 LIG 0.24  C 
ATOM     40 O    VAL P   7      82.432  -4.824  60.002  1.00 66.40 LIG-0.27  OA
ATOM     41 H    TYR P   8      80.837  -3.146  58.037  1.00 59.31 LIG 0.16  HD
BRANCH 39 42
ATOM     42  CA  VAL P   7      80.610  -5.621  58.653  1.00 68.90 LIG 0.18  C 
BRANCH 42 43
ATOM     43  N   VAL P   7      81.251  -6.923  58.781  1.00 69.26 LIG-0.34  N 
ATOM     44  C   LEU P   6      82.206  -7.342  57.955  1.00 74.59 LIG 0.26  C 
ATOM     45 O    LEU P   6      82.649  -6.643  57.040  1.00 73.78 LIG-0.27  OA
ATOM     46 H    VAL P   7      80.956  -7.393  59.438  1.00 69.26 LIG 0.16  HD
BRANCH 44 47
ATOM     47  CA  LEU P   6      82.743  -8.750  58.224  1.00 78.06 LIG 0.40  C 
ATOM     48  N   LEU P   6      83.496  -8.782  59.472  1.00 74.40 LIG 0.61  N 
BRANCH 47 49
ATOM     49  CB  LEU P   6      81.608  -9.783  58.259  1.00 78.52 LIG 0.06  C 
BRANCH 49 50
ATOM     50  CG  LEU P   6      80.823 -10.136  56.992  1.00 77.43 LIG-0.02  C 
ATOM     51  CD2 LEU P   6      79.647  -9.195  56.760  1.00 73.93 LIG 0.01  C 
ATOM     52  CD1 LEU P   6      80.366 -11.575  57.102  1.00 75.78 LIG 0.01  C 
ENDBRANCH 49 50
ENDBRANCH 47 49
ENDBRANCH 44 47
ENDBRANCH 42 43
BRANCH 42 53
ATOM     53  CB  VAL P   7      79.275  -5.585  59.417  1.00 67.45 LIG 0.01  C 
ATOM     54  CG2 VAL P   7      79.526  -5.601  60.914  1.00 67.18 LIG 0.01  C 
ATOM     55  CG1 VAL P   7      78.402  -6.756  59.015  1.00 63.58 LIG 0.01  C 
ENDBRANCH 42 53
ENDBRANCH 39 42
ENDBRANCH 1 38
TORSDOF 20
ENDMDL
