MODEL 1
USER: ADFR SOLUTION from run 3
USER: SCORE 17.890687 LL:  -4.909 LR: -17.122 RR:   0.000 FEB:  -9.665
USER: RMSD 12.941375
USER: SEED 711406
USER: STATUS searching
USER: GENES 27
USER: genes 0 Translation |==|  0.28249 0.69800 0.73556
USER: genes 1 Rotation |==|  0.52915 0.97853 0.63606 0.54057
USER: genes 2 Torsion [CB]-CA--N-[C] |==|  0.34701
USER: genes 3 Torsion [N]-C--CA-[N] |==|  0.13494
USER: genes 4 Torsion [C]-CA--N-[C] |==|  0.13341
USER: genes 5 Torsion [N]-C--CA-[N] |==|  0.40668
USER: genes 6 Torsion [C]-CA--CB-[CG] |==|  0.45422
USER: genes 7 Torsion [CA]-CB--CG-[OD2] |==|  0.80878
USER: genes 8 Torsion [C]-CA--N-[C] |==|  0.68849
USER: genes 9 Torsion [C]-CA--CB-[CG] |==|  0.30276
USER: genes 10 Torsion [CA]-CB--CG-[CD1] |==|  0.49060
USER: genes 11 Torsion [N]-CA--C-[N] |==|  0.00398
USER: genes 12 Torsion [C]-N--CA-[CB] |==|  0.17030
USER: genes 13 Torsion [N]-CA--CB-[CG2] |==|  0.17954
USER: genes 14 Torsion [CA]-CB--OG1-[HG1] |==|  0.58284
USER: genes 15 Torsion [N]-CA--C-[N] |==|  0.50763
USER: genes 16 Torsion [C]-N--CA-[CB] |==|  0.44640
USER: genes 17 Torsion [N]-CA--CB-[OG] |==|  0.11850
USER: genes 18 Torsion [CA]-CB--OG-[HG] |==|  0.89031
USER: genes 19 Torsion [N]-CA--C-[N] |==|  0.90551
USER: genes 20 Torsion [C]-N--CA-[CB] |==|  0.42833
USER: genes 21 Torsion [N]-CA--C-[OXT] |==|  0.55144
USER: genes 22 Torsion [N]-CA--CB-[CG2] |==|  0.87462
USER: genes 23 Torsion [CA]-CB--CG1-[CD1] |==|  0.46166
USER: genes 24 Torsion [N]-CA--CB-[CG] |==|  0.27199
USER: genes 25 Torsion [CA]-CB--CG-[CD] |==|  0.66497
USER: genes 26 Torsion [CB]-CG--CD-[OE1] |==|  0.16018
ROOT
ATOM      1  CA  GLN B 366       5.007  92.669  17.962  1.00 38.37 LIG 0.18  C 
ENDROOT
BRANCH 1 2
ATOM      2  N   GLN B 366       3.808  91.989  17.503  1.00 38.60 LIG-0.35  N 
ATOM      3 H    GLN B 366       3.834  91.133  17.584  1.00 38.60 LIG 0.16  HD
ATOM      4  C   LEU B 365       2.765  92.658  17.002  1.00 41.18 LIG 0.24  C 
ATOM      5 O    LEU B 365       2.719  93.902  16.905  1.00 36.84 LIG-0.27  OA
BRANCH 4 6
ATOM      6  CA  LEU B 365       1.632  91.785  16.480  1.00 40.54 LIG 0.18  C 
BRANCH 6 7
ATOM      7  N   LEU B 365       1.295  90.772  17.472  1.00 42.84 LIG-0.35  N 
ATOM      8  C   ASP B 364       1.113  91.118  18.740  1.00 57.74 LIG 0.24  C 
ATOM      9 O    ASP B 364       1.281  92.253  19.092  1.00 57.74 LIG-0.27  OA
ATOM     10 H    LEU B 365       1.228  89.971  17.168  1.00 42.84 LIG 0.16  HD
BRANCH 8 11
ATOM     11  CA  ASP B 364       0.732  90.062  19.773  1.00 64.41 LIG 0.19  C 
BRANCH 11 12
ATOM     12  CB  ASP B 364      -0.766  89.994  19.981  1.00 67.32 LIG 0.15  C 
BRANCH 12 13
ATOM     13  CG  ASP B 364      -1.185  88.747  20.661  1.00 64.46 LIG 0.17  C 
ATOM     14 OD2  ASP B 364      -1.073  87.670  20.021  1.00 62.61 LIG-0.65  OA
ATOM     15 OD1  ASP B 364      -1.640  88.877  21.836  1.00 62.85 LIG-0.65  OA
ENDBRANCH 12 13
ENDBRANCH 11 12
BRANCH 11 16
ATOM     16  N   ASP B 364       1.287  90.329  21.063  1.00 73.89 LIG-0.35  N 
ATOM     17  C   ACE B 363       2.210  89.606  21.636  1.00 53.98 LIG 0.21  C 
ATOM     18  CH3 ACE B 363       2.504  90.130  23.022  1.00 56.03 LIG 0.12  C 
ATOM     19 O    ACE B 363       2.789  88.634  21.089  1.00 54.37 LIG-0.27  OA
ATOM     20 H    ASP B 364       0.950  91.027  21.436  1.00 73.89 LIG 0.16  HD
ENDBRANCH 11 16
ENDBRANCH 8 11
ENDBRANCH 6 7
BRANCH 6 21
ATOM     21  CB  LEU B 365       0.435  92.701  16.098  1.00 44.28 LIG 0.04  C 
BRANCH 21 22
ATOM     22  CG  LEU B 365       0.110  92.884  14.620  1.00 49.51 LIG-0.02  C 
ATOM     23  CD1 LEU B 365      -1.122  93.731  14.433  1.00 53.42 LIG 0.01  C 
ATOM     24  CD2 LEU B 365       1.333  93.483  13.862  1.00 51.82 LIG 0.01  C 
ENDBRANCH 21 22
ENDBRANCH 6 21
ENDBRANCH 4 6
ENDBRANCH 1 2
BRANCH 1 25
ATOM     25  C   GLN B 366       6.189  92.266  17.117  1.00 40.92 LIG 0.24  C 
ATOM     26  N   THR B 367       5.933  91.416  16.120  1.00 37.18 LIG-0.34  N 
ATOM     27 H    THR B 367       5.159  91.084  15.942  1.00 37.18 LIG 0.16  HD
ATOM     28 O    GLN B 366       7.290  92.803  17.295  1.00 43.39 LIG-0.27  OA
BRANCH 26 29
ATOM     29  CA  THR B 367       7.003  90.995  15.248  1.00 39.45 LIG 0.20  C 
BRANCH 29 30
ATOM     30  CB  THR B 367       8.094  90.255  16.030  1.00 41.55 LIG 0.15  C 
ATOM     31  CG2 THR B 367       7.515  88.983  16.586  1.00 46.47 LIG 0.04  C 
BRANCH 30 32
ATOM     32 OG1  THR B 367       9.193  90.001  15.154  1.00 42.44 LIG-0.39  OA
ATOM     33 HG1  THR B 367       9.585  89.298  15.393  1.00 42.44 LIG 0.21  HD
ENDBRANCH 30 32
ENDBRANCH 29 30
BRANCH 29 34
ATOM     34  C   THR B 367       6.422  90.087  14.197  1.00 39.06 LIG 0.24  C 
ATOM     35  N   SER B 368       7.298  89.583  13.367  1.00 40.73 LIG-0.34  N 
ATOM     36 H    SER B 368       8.131  89.798  13.361  1.00 40.73 LIG 0.16  HD
ATOM     37 O    THR B 367       5.224  89.771  14.245  1.00 38.11 LIG-0.27  OA
BRANCH 35 38
ATOM     38  CA  SER B 368       6.932  88.607  12.375  1.00 41.63 LIG 0.20  C 
BRANCH 38 39
ATOM     39  CB  SER B 368       7.992  88.563  11.281  1.00 43.79 LIG 0.20  C 
BRANCH 39 40
ATOM     40 OG   SER B 368       9.292  88.608  11.821  1.00 46.28 LIG-0.40  OA
ATOM     41 HG   SER B 368       9.310  89.146  12.465  1.00 46.28 LIG 0.21  HD
ENDBRANCH 39 40
ENDBRANCH 38 39
BRANCH 38 42
ATOM     42  C   SER B 368       6.814  87.252  13.042  1.00 44.50 LIG 0.24  C 
ATOM     43 O    SER B 368       5.935  86.480  12.689  1.00 47.26 LIG-0.27  OA
ATOM     44  N   ILE B 369       7.643  87.023  14.032  1.00 46.03 LIG-0.34  N 
ATOM     45 H    ILE B 369       8.160  87.621  14.369  1.00 46.03 LIG 0.16  HD
BRANCH 44 46
ATOM     46  CA  ILE B 369       7.762  85.697  14.664  1.00 49.82 LIG 0.19  C 
BRANCH 46 47
ATOM     47  C   ILE B 369       6.717  85.494  15.742  1.00 51.12 LIG 0.20  C 
ATOM     48 OXT  ILE B 369       6.890  84.619  16.570  1.00 48.45 LIG-0.65  OA
ATOM     49 O    ILE B 369       5.681  86.175  15.839  1.00 56.65 LIG-0.65  OA
ENDBRANCH 46 47
BRANCH 46 50
ATOM     50  CB  ILE B 369       9.128  85.551  15.269  1.00 51.86 LIG 0.01  C 
ATOM     51  CG2 ILE B 369      10.282  86.046  14.302  1.00 50.67 LIG 0.01  C 
BRANCH 50 52
ATOM     52  CG1 ILE B 369       9.231  86.281  16.585  1.00 48.80 LIG 0.00  C 
ATOM     53  CD1 ILE B 369      10.409  85.837  17.229  1.00 47.56 LIG 0.01  C 
ENDBRANCH 50 52
ENDBRANCH 46 50
ENDBRANCH 44 46
ENDBRANCH 38 42
ENDBRANCH 35 38
ENDBRANCH 29 34
ENDBRANCH 26 29
ENDBRANCH 1 25
BRANCH 1 54
ATOM     54  CB  GLN B 366       5.357  92.308  19.416  1.00 39.69 LIG 0.04  C 
BRANCH 54 55
ATOM     55  CG  GLN B 366       6.389  91.256  19.480  1.00 41.05 LIG 0.10  C 
BRANCH 55 56
ATOM     56  CD  GLN B 366       5.937  90.010  20.210  1.00 41.66 LIG 0.21  C 
ATOM     57 OE1  GLN B 366       4.936  89.380  19.837  1.00 35.58 LIG-0.27  OA
ATOM     58  NE2 GLN B 366       6.719  89.625  21.234  1.00 36.50 LIG-0.37  N 
ATOM     59 22HE GLN B 366       6.535  88.906  21.670  1.00 36.50 LIG 0.16  HD
ATOM     60 21HE GLN B 366       7.404  90.098  21.454  1.00 36.50 LIG 0.16  HD
ENDBRANCH 55 56
ENDBRANCH 54 55
ENDBRANCH 1 54
TORSDOF 25
ENDMDL
MODEL 2
USER: ADFR SOLUTION from run 197
USER: SCORE 18.098570 LL:  -4.664 LR: -16.872 RR:   0.000 FEB:  -9.415
USER: RMSD 12.215139
USER: SEED 196
USER: STATUS searching
USER: GENES 27
USER: genes 0 Translation |==|  0.32754 0.51424 0.55354
USER: genes 1 Rotation |==|  0.68101 0.23000 0.87616 0.55323
USER: genes 2 Torsion [CB]-CA--N-[C] |==|  0.86378
USER: genes 3 Torsion [N]-C--CA-[N] |==|  0.82129
USER: genes 4 Torsion [C]-CA--N-[C] |==|  0.55000
USER: genes 5 Torsion [N]-C--CA-[N] |==|  0.89715
USER: genes 6 Torsion [C]-CA--CB-[CG] |==|  0.98096
USER: genes 7 Torsion [CA]-CB--CG-[OD2] |==|  0.26387
USER: genes 8 Torsion [C]-CA--N-[C] |==|  0.83890
USER: genes 9 Torsion [C]-CA--CB-[CG] |==|  0.35364
USER: genes 10 Torsion [CA]-CB--CG-[CD1] |==|  0.94848
USER: genes 11 Torsion [N]-CA--C-[N] |==|  0.31704
USER: genes 12 Torsion [C]-N--CA-[CB] |==|  0.45655
USER: genes 13 Torsion [N]-CA--CB-[CG2] |==|  0.37846
USER: genes 14 Torsion [CA]-CB--OG1-[HG1] |==|  0.96813
USER: genes 15 Torsion [N]-CA--C-[N] |==|  0.39447
USER: genes 16 Torsion [C]-N--CA-[CB] |==|  0.20704
USER: genes 17 Torsion [N]-CA--CB-[OG] |==|  0.55837
USER: genes 18 Torsion [CA]-CB--OG-[HG] |==|  0.38078
USER: genes 19 Torsion [N]-CA--C-[N] |==|  0.42610
USER: genes 20 Torsion [C]-N--CA-[CB] |==|  0.28491
USER: genes 21 Torsion [N]-CA--C-[OXT] |==|  0.81086
USER: genes 22 Torsion [N]-CA--CB-[CG2] |==|  0.54762
USER: genes 23 Torsion [CA]-CB--CG1-[CD1] |==|  0.77813
USER: genes 24 Torsion [N]-CA--CB-[CG] |==|  0.75488
USER: genes 25 Torsion [CA]-CB--CG-[CD] |==|  0.22842
USER: genes 26 Torsion [CB]-CG--CD-[OE1] |==|  0.58809
ROOT
ATOM      1  CA  GLN B 366       6.257  89.499  14.004  1.00 38.37 LIG 0.18  C 
ENDROOT
BRANCH 1 2
ATOM      2  N   GLN B 366       5.867  89.759  15.379  1.00 38.60 LIG-0.35  N 
ATOM      3 H    GLN B 366       5.469  89.102  15.764  1.00 38.60 LIG 0.16  HD
ATOM      4  C   LEU B 365       6.118  90.931  15.974  1.00 41.18 LIG 0.24  C 
ATOM      5 O    LEU B 365       6.716  91.877  15.421  1.00 36.84 LIG-0.27  OA
BRANCH 4 6
ATOM      6  CA  LEU B 365       5.556  91.068  17.382  1.00 40.54 LIG 0.18  C 
BRANCH 6 7
ATOM      7  N   LEU B 365       4.100  91.025  17.336  1.00 42.84 LIG-0.35  N 
ATOM      8  C   ASP B 364       3.388  91.474  18.363  1.00 57.74 LIG 0.24  C 
ATOM      9 O    ASP B 364       3.934  91.865  19.357  1.00 57.74 LIG-0.27  OA
ATOM     10 H    LEU B 365       3.767  90.696  16.616  1.00 42.84 LIG 0.16  HD
BRANCH 8 11
ATOM     11  CA  ASP B 364       1.864  91.454  18.302  1.00 64.41 LIG 0.19  C 
BRANCH 11 12
ATOM     12  CB  ASP B 364       1.306  90.090  18.647  1.00 67.32 LIG 0.15  C 
BRANCH 12 13
ATOM     13  CG  ASP B 364       2.368  89.068  18.800  1.00 64.46 LIG 0.17  C 
ATOM     14 OD2  ASP B 364       2.794  88.842  19.961  1.00 62.61 LIG-0.65  OA
ATOM     15 OD1  ASP B 364       2.770  88.516  17.733  1.00 62.85 LIG-0.65  OA
ENDBRANCH 12 13
ENDBRANCH 11 12
BRANCH 11 16
ATOM     16  N   ASP B 364       1.363  91.755  16.998  1.00 73.89 LIG-0.35  N 
ATOM     17  C   ACE B 363       1.616  92.856  16.343  1.00 53.98 LIG 0.21  C 
ATOM     18  CH3 ACE B 363       0.863  92.874  15.034  1.00 56.03 LIG 0.12  C 
ATOM     19 O    ACE B 363       2.404  93.751  16.741  1.00 54.37 LIG-0.27  OA
ATOM     20 H    ASP B 364       0.867  91.131  16.676  1.00 73.89 LIG 0.16  HD
ENDBRANCH 11 16
ENDBRANCH 8 11
ENDBRANCH 6 7
BRANCH 6 21
ATOM     21  CB  LEU B 365       6.181  89.960  18.276  1.00 44.28 LIG 0.04  C 
BRANCH 21 22
ATOM     22  CG  LEU B 365       6.845  90.378  19.583  1.00 49.51 LIG-0.02  C 
ATOM     23  CD1 LEU B 365       7.175  91.848  19.580  1.00 53.42 LIG 0.01  C 
ATOM     24  CD2 LEU B 365       5.945  90.000  20.798  1.00 51.82 LIG 0.01  C 
ENDBRANCH 21 22
ENDBRANCH 6 21
ENDBRANCH 4 6
ENDBRANCH 1 2
BRANCH 1 25
ATOM     25  C   GLN B 366       7.758  89.392  13.900  1.00 40.92 LIG 0.24  C 
ATOM     26  N   THR B 367       8.237  88.192  13.564  1.00 37.18 LIG-0.34  N 
ATOM     27 H    THR B 367       7.757  87.493  13.418  1.00 37.18 LIG 0.16  HD
ATOM     28 O    GLN B 366       8.460  90.405  14.011  1.00 43.39 LIG-0.27  OA
BRANCH 26 29
ATOM     29  CA  THR B 367       9.662  88.006  13.421  1.00 39.45 LIG 0.20  C 
BRANCH 29 30
ATOM     30  CB  THR B 367      10.027  86.517  13.418  1.00 41.55 LIG 0.15  C 
ATOM     31  CG2 THR B 367      11.035  86.268  12.331  1.00 46.47 LIG 0.04  C 
BRANCH 30 32
ATOM     32 OG1  THR B 367      10.535  86.169  14.706  1.00 42.44 LIG-0.39  OA
ATOM     33 HG1  THR B 367      10.679  86.868  15.149  1.00 42.44 LIG 0.21  HD
ENDBRANCH 30 32
ENDBRANCH 29 30
BRANCH 29 34
ATOM     34  C   THR B 367      10.090  88.641  12.126  1.00 39.06 LIG 0.24  C 
ATOM     35  N   SER B 368      11.249  89.248  12.173  1.00 40.73 LIG-0.34  N 
ATOM     36 H    SER B 368      11.707  89.348  12.894  1.00 40.73 LIG 0.16  HD
ATOM     37 O    THR B 367       9.425  88.458  11.096  1.00 38.11 LIG-0.27  OA
BRANCH 35 38
ATOM     38  CA  SER B 368      11.862  89.808  10.998  1.00 41.63 LIG 0.20  C 
BRANCH 38 39
ATOM     39  CB  SER B 368      11.146  91.094  10.607  1.00 43.79 LIG 0.20  C 
BRANCH 39 40
ATOM     40 OG   SER B 368      11.369  91.418   9.255  1.00 46.28 LIG-0.40  OA
ATOM     41 HG   SER B 368      10.649  91.671   8.904  1.00 46.28 LIG 0.21  HD
ENDBRANCH 39 40
ENDBRANCH 38 39
BRANCH 38 42
ATOM     42  C   SER B 368      13.320  90.092  11.296  1.00 44.50 LIG 0.24  C 
ATOM     43 O    SER B 368      13.658  90.379  12.434  1.00 47.26 LIG-0.27  OA
ATOM     44  N   ILE B 369      14.132  90.081  10.266  1.00 46.03 LIG-0.34  N 
ATOM     45 H    ILE B 369      13.867  90.021   9.451  1.00 46.03 LIG 0.16  HD
BRANCH 44 46
ATOM     46  CA  ILE B 369      15.595  90.173  10.420  1.00 49.82 LIG 0.19  C 
BRANCH 46 47
ATOM     47  C   ILE B 369      16.206  91.126   9.413  1.00 51.12 LIG 0.20  C 
ATOM     48 OXT  ILE B 369      16.194  90.820   8.235  1.00 48.45 LIG-0.65  OA
ATOM     49 O    ILE B 369      16.722  92.215   9.716  1.00 56.65 LIG-0.65  OA
ENDBRANCH 46 47
BRANCH 46 50
ATOM     50  CB  ILE B 369      16.203  88.811  10.242  1.00 51.86 LIG 0.01  C 
ATOM     51  CG2 ILE B 369      17.681  88.722  10.805  1.00 50.67 LIG 0.01  C 
BRANCH 50 52
ATOM     52  CG1 ILE B 369      15.357  87.741  10.885  1.00 48.80 LIG 0.00  C 
ATOM     53  CD1 ILE B 369      15.633  87.754  12.272  1.00 47.56 LIG 0.01  C 
ENDBRANCH 50 52
ENDBRANCH 46 50
ENDBRANCH 44 46
ENDBRANCH 38 42
ENDBRANCH 35 38
ENDBRANCH 29 34
ENDBRANCH 26 29
ENDBRANCH 1 25
BRANCH 1 54
ATOM     54  CB  GLN B 366       5.826  90.630  13.054  1.00 39.69 LIG 0.04  C 
BRANCH 54 55
ATOM     55  CG  GLN B 366       4.463  90.410  12.534  1.00 41.05 LIG 0.10  C 
BRANCH 55 56
ATOM     56  CD  GLN B 366       3.375  90.858  13.485  1.00 41.66 LIG 0.21  C 
ATOM     57 OE1  GLN B 366       2.281  90.275  13.523  1.00 35.58 LIG-0.27  OA
ATOM     58  NE2 GLN B 366       3.703  91.878  14.299  1.00 36.50 LIG-0.37  N 
ATOM     59 22HE GLN B 366       3.140  92.159  14.886  1.00 36.50 LIG 0.16  HD
ATOM     60 21HE GLN B 366       4.476  92.250  14.233  1.00 36.50 LIG 0.16  HD
ENDBRANCH 55 56
ENDBRANCH 54 55
ENDBRANCH 1 54
TORSDOF 25
ENDMDL
MODEL 3
USER: ADFR SOLUTION from run 67
USER: SCORE 18.371310 LL:  -4.202 LR: -16.854 RR:   0.000 FEB:  -9.396
USER: RMSD 5.238543
USER: SEED 66
USER: STATUS no improvement in best in 6 clusters for 5 generations
USER: GENES 27
USER: genes 0 Translation |==|  0.39983 0.50182 0.54727
USER: genes 1 Rotation |==|  0.05994 0.57035 0.72099 0.55067
USER: genes 2 Torsion [CB]-CA--N-[C] |==|  0.19457
USER: genes 3 Torsion [N]-C--CA-[N] |==|  0.44521
USER: genes 4 Torsion [C]-CA--N-[C] |==|  0.68136
USER: genes 5 Torsion [N]-C--CA-[N] |==|  0.40220
USER: genes 6 Torsion [C]-CA--CB-[CG] |==|  0.36414
USER: genes 7 Torsion [CA]-CB--CG-[OD2] |==|  0.58569
USER: genes 8 Torsion [C]-CA--N-[C] |==|  0.83879
USER: genes 9 Torsion [C]-CA--CB-[CG] |==|  0.48658
USER: genes 10 Torsion [CA]-CB--CG-[CD1] |==|  0.23633
USER: genes 11 Torsion [N]-CA--C-[N] |==|  0.37302
USER: genes 12 Torsion [C]-N--CA-[CB] |==|  0.50714
USER: genes 13 Torsion [N]-CA--CB-[CG2] |==|  0.20921
USER: genes 14 Torsion [CA]-CB--OG1-[HG1] |==|  0.04435
USER: genes 15 Torsion [N]-CA--C-[N] |==|  0.46681
USER: genes 16 Torsion [C]-N--CA-[CB] |==|  0.54444
USER: genes 17 Torsion [N]-CA--CB-[OG] |==|  0.94665
USER: genes 18 Torsion [CA]-CB--OG-[HG] |==|  0.08131
USER: genes 19 Torsion [N]-CA--C-[N] |==|  0.80573
USER: genes 20 Torsion [C]-N--CA-[CB] |==|  0.26238
USER: genes 21 Torsion [N]-CA--C-[OXT] |==|  0.41641
USER: genes 22 Torsion [N]-CA--CB-[CG2] |==|  0.47177
USER: genes 23 Torsion [CA]-CB--CG1-[CD1] |==|  0.60811
USER: genes 24 Torsion [N]-CA--CB-[CG] |==|  0.66487
USER: genes 25 Torsion [CA]-CB--CG-[CD] |==|  0.84772
USER: genes 26 Torsion [CB]-CG--CD-[OE1] |==|  0.74238
ROOT
ATOM      1  CA  GLN B 366       8.263  89.284  13.867  1.00 38.37 LIG 0.18  C 
ENDROOT
BRANCH 1 2
ATOM      2  N   GLN B 366       9.348  89.895  13.118  1.00 38.60 LIG-0.35  N 
ATOM      3 H    GLN B 366       9.375  90.753  13.170  1.00 38.60 LIG 0.16  HD
ATOM      4  C   LEU B 365      10.219  89.163  12.414  1.00 41.18 LIG 0.24  C 
ATOM      5 O    LEU B 365      10.191  87.917  12.355  1.00 36.84 LIG-0.27  OA
BRANCH 4 6
ATOM      6  CA  LEU B 365      11.232  89.968  11.611  1.00 40.54 LIG 0.18  C 
BRANCH 6 7
ATOM      7  N   LEU B 365      12.375  89.129  11.280  1.00 42.84 LIG-0.35  N 
ATOM      8  C   ASP B 364      13.572  89.405  11.784  1.00 57.74 LIG 0.24  C 
ATOM      9 O    ASP B 364      13.735  90.378  12.467  1.00 57.74 LIG-0.27  OA
ATOM     10 H    LEU B 365      12.206  88.471  10.753  1.00 42.84 LIG 0.16  HD
BRANCH 8 11
ATOM     11  CA  ASP B 364      14.763  88.509  11.459  1.00 64.41 LIG 0.19  C 
BRANCH 11 12
ATOM     12  CB  ASP B 364      15.008  87.484  12.546  1.00 67.32 LIG 0.15  C 
BRANCH 12 13
ATOM     13  CG  ASP B 364      15.169  86.115  12.004  1.00 64.46 LIG 0.17  C 
ATOM     14 OD2  ASP B 364      14.793  85.157  12.727  1.00 62.61 LIG-0.65  OA
ATOM     15 OD1  ASP B 364      15.690  86.027  10.853  1.00 62.85 LIG-0.65  OA
ENDBRANCH 12 13
ENDBRANCH 11 12
BRANCH 11 16
ATOM     16  N   ASP B 364      15.985  89.242  11.339  1.00 73.89 LIG-0.35  N 
ATOM     17  C   ACE B 363      16.182  90.220  10.498  1.00 53.98 LIG 0.21  C 
ATOM     18  CH3 ACE B 363      17.607  90.712  10.588  1.00 56.03 LIG 0.12  C 
ATOM     19 O    ACE B 363      15.294  90.699   9.747  1.00 54.37 LIG-0.27  OA
ATOM     20 H    ASP B 364      16.592  88.973  11.885  1.00 73.89 LIG 0.16  HD
ENDBRANCH 11 16
ENDBRANCH 8 11
ENDBRANCH 6 7
BRANCH 6 21
ATOM     21  CB  LEU B 365      10.517  90.561  10.363  1.00 44.28 LIG 0.04  C 
BRANCH 21 22
ATOM     22  CG  LEU B 365      11.306  91.503   9.462  1.00 49.51 LIG-0.02  C 
ATOM     23  CD1 LEU B 365      12.114  90.737   8.446  1.00 53.42 LIG 0.01  C 
ATOM     24  CD2 LEU B 365      10.353  92.528   8.774  1.00 51.82 LIG 0.01  C 
ENDBRANCH 21 22
ENDBRANCH 6 21
ENDBRANCH 4 6
ENDBRANCH 1 2
BRANCH 1 25
ATOM     25  C   GLN B 366       7.323  90.346  14.380  1.00 40.92 LIG 0.24  C 
ATOM     26  N   THR B 367       6.021  90.104  14.214  1.00 37.18 LIG-0.34  N 
ATOM     27 H    THR B 367       5.694  89.406  13.832  1.00 37.18 LIG 0.16  HD
ATOM     28 O    GLN B 366       7.767  91.311  15.016  1.00 43.39 LIG-0.27  OA
BRANCH 26 29
ATOM     29  CA  THR B 367       5.051  91.059  14.695  1.00 39.45 LIG 0.20  C 
BRANCH 29 30
ATOM     30  CB  THR B 367       3.621  90.559  14.460  1.00 41.55 LIG 0.15  C 
ATOM     31  CG2 THR B 367       3.309  89.489  15.469  1.00 46.47 LIG 0.04  C 
BRANCH 30 32
ATOM     32 OG1  THR B 367       2.726  91.667  14.564  1.00 42.44 LIG-0.39  OA
ATOM     33 HG1  THR B 367       3.161  92.384  14.513  1.00 42.44 LIG 0.21  HD
ENDBRANCH 30 32
ENDBRANCH 29 30
BRANCH 29 34
ATOM     34  C   THR B 367       5.286  91.265  16.167  1.00 39.06 LIG 0.24  C 
ATOM     35  N   SER B 368       4.644  92.281  16.685  1.00 40.73 LIG-0.34  N 
ATOM     36 H    SER B 368       4.180  92.839  16.223  1.00 40.73 LIG 0.16  HD
ATOM     37 O    THR B 367       5.936  90.431  16.814  1.00 38.11 LIG-0.27  OA
BRANCH 35 38
ATOM     38  CA  SER B 368       4.663  92.553  18.098  1.00 41.63 LIG 0.20  C 
BRANCH 38 39
ATOM     39  CB  SER B 368       3.541  93.522  18.450  1.00 43.79 LIG 0.20  C 
BRANCH 39 40
ATOM     40 OG   SER B 368       3.084  94.216  17.313  1.00 46.28 LIG-0.40  OA
ATOM     41 HG   SER B 368       3.190  93.738  16.631  1.00 46.28 LIG 0.21  HD
ENDBRANCH 39 40
ENDBRANCH 38 39
BRANCH 38 42
ATOM     42  C   SER B 368       4.482  91.250  18.849  1.00 44.50 LIG 0.24  C 
ATOM     43 O    SER B 368       5.437  90.746  19.420  1.00 47.26 LIG-0.27  OA
ATOM     44  N   ILE B 369       3.295  90.700  18.770  1.00 46.03 LIG-0.34  N 
ATOM     45 H    ILE B 369       2.671  90.983  18.252  1.00 46.03 LIG 0.16  HD
BRANCH 44 46
ATOM     46  CA  ILE B 369       2.919  89.526  19.580  1.00 49.82 LIG 0.19  C 
BRANCH 46 47
ATOM     47  C   ILE B 369       2.003  88.590  18.819  1.00 51.12 LIG 0.20  C 
ATOM     48 OXT  ILE B 369       2.043  87.400  19.068  1.00 48.45 LIG-0.65  OA
ATOM     49 O    ILE B 369       1.200  88.965  17.947  1.00 56.65 LIG-0.65  OA
ENDBRANCH 46 47
BRANCH 46 50
ATOM     50  CB  ILE B 369       2.228  89.982  20.833  1.00 51.86 LIG 0.01  C 
ATOM     51  CG2 ILE B 369       1.564  88.789  21.636  1.00 50.67 LIG 0.01  C 
BRANCH 50 52
ATOM     52  CG1 ILE B 369       3.170  90.734  21.740  1.00 48.80 LIG 0.00  C 
ATOM     53  CD1 ILE B 369       2.872  90.357  23.071  1.00 47.56 LIG 0.01  C 
ENDBRANCH 50 52
ENDBRANCH 46 50
ENDBRANCH 44 46
ENDBRANCH 38 42
ENDBRANCH 35 38
ENDBRANCH 29 34
ENDBRANCH 26 29
ENDBRANCH 1 25
BRANCH 1 54
ATOM     54  CB  GLN B 366       8.771  88.510  15.095  1.00 39.69 LIG 0.04  C 
BRANCH 54 55
ATOM     55  CG  GLN B 366       8.389  87.086  15.035  1.00 41.05 LIG 0.10  C 
BRANCH 55 56
ATOM     56  CD  GLN B 366       6.902  86.868  14.858  1.00 41.66 LIG 0.21  C 
ATOM     57 OE1  GLN B 366       6.159  86.713  15.838  1.00 35.58 LIG-0.27  OA
ATOM     58  NE2 GLN B 366       6.460  86.906  13.588  1.00 36.50 LIG-0.37  N 
ATOM     59 22HE GLN B 366       5.620  86.821  13.422  1.00 36.50 LIG 0.16  HD
ATOM     60 21HE GLN B 366       7.017  87.016  12.941  1.00 36.50 LIG 0.16  HD
ENDBRANCH 55 56
ENDBRANCH 54 55
ENDBRANCH 1 54
TORSDOF 25
ENDMDL
MODEL 4
USER: ADFR SOLUTION from run 3
USER: SCORE 18.028239 LL:  -3.785 LR: -16.612 RR:   0.000 FEB:  -9.154
USER: RMSD 13.426847
USER: SEED 711406
USER: STATUS searching
USER: GENES 27
USER: genes 0 Translation |==|  0.30072 0.66673 0.69626
USER: genes 1 Rotation |==|  0.58314 0.98543 0.56190 0.56008
USER: genes 2 Torsion [CB]-CA--N-[C] |==|  0.25000
USER: genes 3 Torsion [N]-C--CA-[N] |==|  0.17501
USER: genes 4 Torsion [C]-CA--N-[C] |==|  0.14812
USER: genes 5 Torsion [N]-C--CA-[N] |==|  0.42149
USER: genes 6 Torsion [C]-CA--CB-[CG] |==|  0.43402
USER: genes 7 Torsion [CA]-CB--CG-[OD2] |==|  0.83178
USER: genes 8 Torsion [C]-CA--N-[C] |==|  0.67350
USER: genes 9 Torsion [C]-CA--CB-[CG] |==|  0.35147
USER: genes 10 Torsion [CA]-CB--CG-[CD1] |==|  0.43146
USER: genes 11 Torsion [N]-CA--C-[N] |==|  0.01947
USER: genes 12 Torsion [C]-N--CA-[CB] |==|  0.86667
USER: genes 13 Torsion [N]-CA--CB-[CG2] |==|  0.57793
USER: genes 14 Torsion [CA]-CB--OG1-[HG1] |==|  0.51933
USER: genes 15 Torsion [N]-CA--C-[N] |==|  0.49909
USER: genes 16 Torsion [C]-N--CA-[CB] |==|  0.17219
USER: genes 17 Torsion [N]-CA--CB-[OG] |==|  0.09297
USER: genes 18 Torsion [CA]-CB--OG-[HG] |==|  0.89560
USER: genes 19 Torsion [N]-CA--C-[N] |==|  0.12735
USER: genes 20 Torsion [C]-N--CA-[CB] |==|  0.50338
USER: genes 21 Torsion [N]-CA--C-[OXT] |==|  0.76839
USER: genes 22 Torsion [N]-CA--CB-[CG2] |==|  0.50911
USER: genes 23 Torsion [CA]-CB--CG1-[CD1] |==|  0.41053
USER: genes 24 Torsion [N]-CA--CB-[CG] |==|  0.25485
USER: genes 25 Torsion [CA]-CB--CG-[CD] |==|  0.60615
USER: genes 26 Torsion [CB]-CG--CD-[OE1] |==|  0.09764
ROOT
ATOM      1  CA  GLN B 366       5.513  92.129  17.108  1.00 38.37 LIG 0.18  C 
ENDROOT
BRANCH 1 2
ATOM      2  N   GLN B 366       4.167  91.667  16.815  1.00 38.60 LIG-0.35  N 
ATOM      3 H    GLN B 366       4.106  90.820  16.678  1.00 38.60 LIG 0.16  HD
ATOM      4  C   LEU B 365       3.127  92.506  16.769  1.00 41.18 LIG 0.24  C 
ATOM      5 O    LEU B 365       3.213  93.732  16.989  1.00 36.84 LIG-0.27  OA
BRANCH 4 6
ATOM      6  CA  LEU B 365       1.807  91.870  16.354  1.00 40.54 LIG 0.18  C 
BRANCH 6 7
ATOM      7  N   LEU B 365       1.414  90.868  17.335  1.00 42.84 LIG-0.35  N 
ATOM      8  C   ASP B 364       1.341  91.189  18.621  1.00 57.74 LIG 0.24  C 
ATOM      9 O    ASP B 364       1.653  92.286  18.994  1.00 57.74 LIG-0.27  OA
ATOM     10 H    LEU B 365       1.243  90.089  17.014  1.00 42.84 LIG 0.16  HD
BRANCH 8 11
ATOM     11  CA  ASP B 364       0.902  90.146  19.644  1.00 64.41 LIG 0.19  C 
BRANCH 11 12
ATOM     12  CB  ASP B 364      -0.599  90.148  19.841  1.00 67.32 LIG 0.15  C 
BRANCH 12 13
ATOM     13  CG  ASP B 364      -1.103  88.853  20.351  1.00 64.46 LIG 0.17  C 
ATOM     14 OD2  ASP B 364      -0.910  87.833  19.640  1.00 62.61 LIG-0.65  OA
ATOM     15 OD1  ASP B 364      -1.706  88.887  21.465  1.00 62.85 LIG-0.65  OA
ENDBRANCH 12 13
ENDBRANCH 11 12
BRANCH 11 16
ATOM     16  N   ASP B 364       1.459  90.380  20.940  1.00 73.89 LIG-0.35  N 
ATOM     17  C   ACE B 363       2.265  89.560  21.559  1.00 53.98 LIG 0.21  C 
ATOM     18  CH3 ACE B 363       2.594  90.086  22.936  1.00 56.03 LIG 0.12  C 
ATOM     19 O    ACE B 363       2.722  88.503  21.056  1.00 54.37 LIG-0.27  OA
ATOM     20 H    ASP B 364       1.209  91.128  21.284  1.00 73.89 LIG 0.16  HD
ENDBRANCH 11 16
ENDBRANCH 8 11
ENDBRANCH 6 7
BRANCH 6 21
ATOM     21  CB  LEU B 365       0.752  92.998  16.163  1.00 44.28 LIG 0.04  C 
BRANCH 21 22
ATOM     22  CG  LEU B 365      -0.002  93.062  14.840  1.00 49.51 LIG-0.02  C 
ATOM     23  CD1 LEU B 365      -1.331  93.754  15.003  1.00 53.42 LIG 0.01  C 
ATOM     24  CD2 LEU B 365       0.870  93.753  13.748  1.00 51.82 LIG 0.01  C 
ENDBRANCH 21 22
ENDBRANCH 6 21
ENDBRANCH 4 6
ENDBRANCH 1 2
BRANCH 1 25
ATOM     25  C   GLN B 366       6.527  91.232  16.443  1.00 40.92 LIG 0.24  C 
ATOM     26  N   THR B 367       6.035  90.306  15.617  1.00 37.18 LIG-0.34  N 
ATOM     27 H    THR B 367       5.199  90.184  15.455  1.00 37.18 LIG 0.16  HD
ATOM     28 O    GLN B 366       7.737  91.451  16.587  1.00 43.39 LIG-0.27  OA
BRANCH 26 29
ATOM     29  CA  THR B 367       6.937  89.418  14.922  1.00 39.45 LIG 0.20  C 
BRANCH 29 30
ATOM     30  CB  THR B 367       8.084  90.197  14.267  1.00 41.55 LIG 0.15  C 
ATOM     31  CG2 THR B 367       8.561  89.437  13.062  1.00 46.47 LIG 0.04  C 
BRANCH 30 32
ATOM     32 OG1  THR B 367       7.613  91.500  13.924  1.00 42.44 LIG-0.39  OA
ATOM     33 HG1  THR B 367       8.201  91.903  13.480  1.00 42.44 LIG 0.21  HD
ENDBRANCH 30 32
ENDBRANCH 29 30
BRANCH 29 34
ATOM     34  C   THR B 367       7.489  88.436  15.919  1.00 39.06 LIG 0.24  C 
ATOM     35  N   SER B 368       8.323  87.560  15.418  1.00 40.73 LIG-0.34  N 
ATOM     36 H    SER B 368       8.497  87.491  14.578  1.00 40.73 LIG 0.16  HD
ATOM     37 O    THR B 367       7.246  88.575  17.127  1.00 38.11 LIG-0.27  OA
BRANCH 35 38
ATOM     38  CA  SER B 368       9.032  86.623  16.249  1.00 41.63 LIG 0.20  C 
BRANCH 38 39
ATOM     39  CB  SER B 368       8.039  85.716  16.964  1.00 43.79 LIG 0.20  C 
BRANCH 39 40
ATOM     40 OG   SER B 368       6.904  85.465  16.169  1.00 46.28 LIG-0.40  OA
ATOM     41 HG   SER B 368       6.701  86.160  15.743  1.00 46.28 LIG 0.21  HD
ENDBRANCH 39 40
ENDBRANCH 38 39
BRANCH 38 42
ATOM     42  C   SER B 368       9.957  85.800  15.377  1.00 44.50 LIG 0.24  C 
ATOM     43 O    SER B 368      10.053  84.597  15.566  1.00 47.26 LIG-0.27  OA
ATOM     44  N   ILE B 369      10.668  86.467  14.500  1.00 46.03 LIG-0.34  N 
ATOM     45 H    ILE B 369      10.703  87.325  14.469  1.00 46.03 LIG 0.16  HD
BRANCH 44 46
ATOM     46  CA  ILE B 369      11.482  85.792  13.473  1.00 49.82 LIG 0.19  C 
BRANCH 46 47
ATOM     47  C   ILE B 369      12.500  84.856  14.091  1.00 51.12 LIG 0.20  C 
ATOM     48 OXT  ILE B 369      13.558  85.315  14.481  1.00 48.45 LIG-0.65  OA
ATOM     49 O    ILE B 369      12.322  83.634  14.231  1.00 56.65 LIG-0.65  OA
ENDBRANCH 46 47
BRANCH 46 50
ATOM     50  CB  ILE B 369      12.197  86.820  12.645  1.00 51.86 LIG 0.01  C 
ATOM     51  CG2 ILE B 369      13.033  86.181  11.461  1.00 50.67 LIG 0.01  C 
BRANCH 50 52
ATOM     52  CG1 ILE B 369      11.238  87.842  12.085  1.00 48.80 LIG 0.00  C 
ATOM     53  CD1 ILE B 369      11.928  89.074  12.002  1.00 47.56 LIG 0.01  C 
ENDBRANCH 50 52
ENDBRANCH 46 50
ENDBRANCH 44 46
ENDBRANCH 38 42
ENDBRANCH 35 38
ENDBRANCH 29 34
ENDBRANCH 26 29
ENDBRANCH 1 25
BRANCH 1 54
ATOM     54  CB  GLN B 366       5.820  92.105  18.615  1.00 39.69 LIG 0.04  C 
BRANCH 54 55
ATOM     55  CG  GLN B 366       6.432  90.826  19.022  1.00 41.05 LIG 0.10  C 
BRANCH 55 56
ATOM     56  CD  GLN B 366       5.959  90.332  20.371  1.00 41.66 LIG 0.21  C 
ATOM     57 OE1  GLN B 366       4.790  90.518  20.744  1.00 35.58 LIG-0.27  OA
ATOM     58  NE2 GLN B 366       6.869  89.650  21.089  1.00 36.50 LIG-0.37  N 
ATOM     59 22HE GLN B 366       6.653  89.314  21.851  1.00 36.50 LIG 0.16  HD
ATOM     60 21HE GLN B 366       7.668  89.549  20.786  1.00 36.50 LIG 0.16  HD
ENDBRANCH 55 56
ENDBRANCH 54 55
ENDBRANCH 1 54
TORSDOF 25
ENDMDL
MODEL 5
USER: ADFR SOLUTION from run 50
USER: SCORE 16.764250 LL:  -4.310 LR: -16.258 RR:   0.000 FEB:  -8.800
USER: RMSD 13.075188
USER: SEED 49
USER: STATUS no improvement in best in 10 clusters for 5 generations
USER: GENES 27
USER: genes 0 Translation |==|  0.30244 0.67065 0.69583
USER: genes 1 Rotation |==|  0.57554 0.98696 0.55178 0.56697
USER: genes 2 Torsion [CB]-CA--N-[C] |==|  0.23847
USER: genes 3 Torsion [N]-C--CA-[N] |==|  0.20235
USER: genes 4 Torsion [C]-CA--N-[C] |==|  0.13512
USER: genes 5 Torsion [N]-C--CA-[N] |==|  0.93510
USER: genes 6 Torsion [C]-CA--CB-[CG] |==|  0.79471
USER: genes 7 Torsion [CA]-CB--CG-[OD2] |==|  0.18589
USER: genes 8 Torsion [C]-CA--N-[C] |==|  0.59907
USER: genes 9 Torsion [C]-CA--CB-[CG] |==|  0.34286
USER: genes 10 Torsion [CA]-CB--CG-[CD1] |==|  0.43126
USER: genes 11 Torsion [N]-CA--C-[N] |==|  0.87567
USER: genes 12 Torsion [C]-N--CA-[CB] |==|  0.48333
USER: genes 13 Torsion [N]-CA--CB-[CG2] |==|  0.24762
USER: genes 14 Torsion [CA]-CB--OG1-[HG1] |==|  0.16808
USER: genes 15 Torsion [N]-CA--C-[N] |==|  0.42139
USER: genes 16 Torsion [C]-N--CA-[CB] |==|  0.16250
USER: genes 17 Torsion [N]-CA--CB-[OG] |==|  0.07850
USER: genes 18 Torsion [CA]-CB--OG-[HG] |==|  0.05372
USER: genes 19 Torsion [N]-CA--C-[N] |==|  0.73053
USER: genes 20 Torsion [C]-N--CA-[CB] |==|  0.41721
USER: genes 21 Torsion [N]-CA--C-[OXT] |==|  0.24661
USER: genes 22 Torsion [N]-CA--CB-[CG2] |==|  0.53387
USER: genes 23 Torsion [CA]-CB--CG1-[CD1] |==|  0.28769
USER: genes 24 Torsion [N]-CA--CB-[CG] |==|  0.14288
USER: genes 25 Torsion [CA]-CB--CG-[CD] |==|  0.35348
USER: genes 26 Torsion [CB]-CG--CD-[OE1] |==|  0.93800
ROOT
ATOM      1  CA  GLN B 366       5.561  92.197  17.098  1.00 38.37 LIG 0.18  C 
ENDROOT
BRANCH 1 2
ATOM      2  N   GLN B 366       4.232  91.690  16.798  1.00 38.60 LIG-0.35  N 
ATOM      3 H    GLN B 366       4.202  90.844  16.646  1.00 38.60 LIG 0.16  HD
ATOM      4  C   LEU B 365       3.162  92.491  16.768  1.00 41.18 LIG 0.24  C 
ATOM      5 O    LEU B 365       3.203  93.715  17.011  1.00 36.84 LIG-0.27  OA
BRANCH 4 6
ATOM      6  CA  LEU B 365       1.866  91.815  16.343  1.00 40.54 LIG 0.18  C 
BRANCH 6 7
ATOM      7  N   LEU B 365       1.388  90.950  17.413  1.00 42.84 LIG-0.35  N 
ATOM      8  C   ASP B 364       1.315  91.408  18.657  1.00 57.74 LIG 0.24  C 
ATOM      9 O    ASP B 364       1.696  92.515  18.921  1.00 57.74 LIG-0.27  OA
ATOM     10 H    LEU B 365       1.169  90.155  17.170  1.00 42.84 LIG 0.16  HD
BRANCH 8 11
ATOM     11  CA  ASP B 364       0.788  90.510  19.772  1.00 64.41 LIG 0.19  C 
BRANCH 11 12
ATOM     12  CB  ASP B 364       1.911  89.816  20.513  1.00 67.32 LIG 0.15  C 
BRANCH 12 13
ATOM     13  CG  ASP B 364       2.516  88.721  19.721  1.00 64.46 LIG 0.17  C 
ATOM     14 OD2  ASP B 364       3.150  89.037  18.681  1.00 62.61 LIG-0.65  OA
ATOM     15 OD1  ASP B 364       2.328  87.546  20.156  1.00 62.85 LIG-0.65  OA
ENDBRANCH 12 13
ENDBRANCH 11 12
BRANCH 11 16
ATOM     16  N   ASP B 364      -0.053  89.464  19.282  1.00 73.89 LIG-0.35  N 
ATOM     17  C   ACE B 363      -1.103  89.003  19.907  1.00 53.98 LIG 0.21  C 
ATOM     18  CH3 ACE B 363      -1.707  87.850  19.142  1.00 56.03 LIG 0.12  C 
ATOM     19 O    ACE B 363      -1.556  89.482  20.978  1.00 54.37 LIG-0.27  OA
ATOM     20 H    ASP B 364       0.200  89.157  18.519  1.00 73.89 LIG 0.16  HD
ENDBRANCH 11 16
ENDBRANCH 8 11
ENDBRANCH 6 7
BRANCH 6 21
ATOM     21  CB  LEU B 365       0.844  92.914  15.932  1.00 44.28 LIG 0.04  C 
BRANCH 21 22
ATOM     22  CG  LEU B 365       0.243  92.851  14.533  1.00 49.51 LIG-0.02  C 
ATOM     23  CD1 LEU B 365      -1.093  93.547  14.482  1.00 53.42 LIG 0.01  C 
ATOM     24  CD2 LEU B 365       1.234  93.444  13.485  1.00 51.82 LIG 0.01  C 
ENDBRANCH 21 22
ENDBRANCH 6 21
ENDBRANCH 4 6
ENDBRANCH 1 2
BRANCH 1 25
ATOM     25  C   GLN B 366       6.609  91.292  16.501  1.00 40.92 LIG 0.24  C 
ATOM     26  N   THR B 367       6.416  89.982  16.669  1.00 37.18 LIG-0.34  N 
ATOM     27 H    THR B 367       5.756  89.632  17.096  1.00 37.18 LIG 0.16  HD
ATOM     28 O    GLN B 366       7.513  91.769  15.803  1.00 43.39 LIG-0.27  OA
BRANCH 26 29
ATOM     29  CA  THR B 367       7.361  89.044  16.111  1.00 39.45 LIG 0.20  C 
BRANCH 29 30
ATOM     30  CB  THR B 367       7.035  87.609  16.543  1.00 41.55 LIG 0.15  C 
ATOM     31  CG2 THR B 367       6.084  87.006  15.547  1.00 46.47 LIG 0.04  C 
BRANCH 30 32
ATOM     32 OG1  THR B 367       8.254  86.871  16.630  1.00 42.44 LIG-0.39  OA
ATOM     33 HG1  THR B 367       8.758  87.228  17.200  1.00 42.44 LIG 0.21  HD
ENDBRANCH 30 32
ENDBRANCH 29 30
BRANCH 29 34
ATOM     34  C   THR B 367       7.299  89.153  14.611  1.00 39.06 LIG 0.24  C 
ATOM     35  N   SER B 368       8.412  88.847  13.995  1.00 40.73 LIG-0.34  N 
ATOM     36 H    SER B 368       9.149  88.668  14.401  1.00 40.73 LIG 0.16  HD
ATOM     37 O    THR B 367       6.218  89.386  14.050  1.00 38.11 LIG-0.27  OA
BRANCH 35 38
ATOM     38  CA  SER B 368       8.496  88.786  12.560  1.00 41.63 LIG 0.20  C 
BRANCH 38 39
ATOM     39  CB  SER B 368       8.108  90.134  11.964  1.00 43.79 LIG 0.20  C 
BRANCH 39 40
ATOM     40 OG   SER B 368       8.393  91.190  12.850  1.00 46.28 LIG-0.40  OA
ATOM     41 HG   SER B 368       8.953  90.934  13.422  1.00 46.28 LIG 0.21  HD
ENDBRANCH 39 40
ENDBRANCH 38 39
BRANCH 38 42
ATOM     42  C   SER B 368       9.915  88.430  12.168  1.00 44.50 LIG 0.24  C 
ATOM     43 O    SER B 368      10.285  87.268  12.231  1.00 47.26 LIG-0.27  OA
ATOM     44  N   ILE B 369      10.694  89.436  11.848  1.00 46.03 LIG-0.34  N 
ATOM     45 H    ILE B 369      10.471  90.260  11.943  1.00 46.03 LIG 0.16  HD
BRANCH 44 46
ATOM     46  CA  ILE B 369      12.042  89.236  11.286  1.00 49.82 LIG 0.19  C 
BRANCH 46 47
ATOM     47  C   ILE B 369      13.091  89.124  12.372  1.00 51.12 LIG 0.20  C 
ATOM     48 OXT  ILE B 369      13.337  88.028  12.839  1.00 48.45 LIG-0.65  OA
ATOM     49 O    ILE B 369      13.727  90.092  12.822  1.00 56.65 LIG-0.65  OA
ENDBRANCH 46 47
BRANCH 46 50
ATOM     50  CB  ILE B 369      12.385  90.387  10.385  1.00 51.86 LIG 0.01  C 
ATOM     51  CG2 ILE B 369      13.672  90.114   9.503  1.00 50.67 LIG 0.01  C 
BRANCH 50 52
ATOM     52  CG1 ILE B 369      11.229  90.747   9.485  1.00 48.80 LIG 0.00  C 
ATOM     53  CD1 ILE B 369      10.632  91.919  10.005  1.00 47.56 LIG 0.01  C 
ENDBRANCH 50 52
ENDBRANCH 46 50
ENDBRANCH 44 46
ENDBRANCH 38 42
ENDBRANCH 35 38
ENDBRANCH 29 34
ENDBRANCH 26 29
ENDBRANCH 1 25
BRANCH 1 54
ATOM     54  CB  GLN B 366       5.832  92.252  18.611  1.00 39.69 LIG 0.04  C 
BRANCH 54 55
ATOM     55  CG  GLN B 366       5.533  90.962  19.263  1.00 41.05 LIG 0.10  C 
BRANCH 55 56
ATOM     56  CD  GLN B 366       6.677  90.427  20.096  1.00 41.66 LIG 0.21  C 
ATOM     57 OE1  GLN B 366       7.843  90.792  19.887  1.00 35.58 LIG-0.27  OA
ATOM     58  NE2 GLN B 366       6.326  89.588  21.087  1.00 36.50 LIG-0.37  N 
ATOM     59 22HE GLN B 366       6.926  89.274  21.618  1.00 36.50 LIG 0.16  HD
ATOM     60 21HE GLN B 366       5.501  89.365  21.190  1.00 36.50 LIG 0.16  HD
ENDBRANCH 55 56
ENDBRANCH 54 55
ENDBRANCH 1 54
TORSDOF 25
ENDMDL
MODEL 6
USER: ADFR SOLUTION from run 174
USER: SCORE 17.190232 LL:  -5.115 LR: -16.182 RR:   0.000 FEB:  -8.725
USER: RMSD 3.890903
USER: SEED 173
USER: STATUS 1 or 2 clusters left
USER: GENES 27
USER: genes 0 Translation |==|  0.50449 0.51695 0.46586
USER: genes 1 Rotation |==|  0.44911 0.47494 0.50810 0.99671
USER: genes 2 Torsion [CB]-CA--N-[C] |==|  0.26111
USER: genes 3 Torsion [N]-C--CA-[N] |==|  0.03494
USER: genes 4 Torsion [C]-CA--N-[C] |==|  0.62513
USER: genes 5 Torsion [N]-C--CA-[N] |==|  0.87538
USER: genes 6 Torsion [C]-CA--CB-[CG] |==|  0.24843
USER: genes 7 Torsion [CA]-CB--CG-[OD2] |==|  0.01746
USER: genes 8 Torsion [C]-CA--N-[C] |==|  0.83598
USER: genes 9 Torsion [C]-CA--CB-[CG] |==|  0.86580
USER: genes 10 Torsion [CA]-CB--CG-[CD1] |==|  0.90890
USER: genes 11 Torsion [N]-CA--C-[N] |==|  0.38510
USER: genes 12 Torsion [C]-N--CA-[CB] |==|  0.24908
USER: genes 13 Torsion [N]-CA--CB-[CG2] |==|  0.47475
USER: genes 14 Torsion [CA]-CB--OG1-[HG1] |==|  0.12812
USER: genes 15 Torsion [N]-CA--C-[N] |==|  0.33708
USER: genes 16 Torsion [C]-N--CA-[CB] |==|  0.43750
USER: genes 17 Torsion [N]-CA--CB-[OG] |==|  0.07770
USER: genes 18 Torsion [CA]-CB--OG-[HG] |==|  0.31670
USER: genes 19 Torsion [N]-CA--C-[N] |==|  0.30747
USER: genes 20 Torsion [C]-N--CA-[CB] |==|  0.34048
USER: genes 21 Torsion [N]-CA--C-[OXT] |==|  0.45258
USER: genes 22 Torsion [N]-CA--CB-[CG2] |==|  0.63561
USER: genes 23 Torsion [CA]-CB--CG1-[CD1] |==|  0.58380
USER: genes 24 Torsion [N]-CA--CB-[CG] |==|  0.63590
USER: genes 25 Torsion [CA]-CB--CG-[CD] |==|  0.35037
USER: genes 26 Torsion [CB]-CG--CD-[OE1] |==|  0.90860
ROOT
ATOM      1  CA  GLN B 366      11.168  89.545  12.096  1.00 38.37 LIG 0.18  C 
ENDROOT
BRANCH 1 2
ATOM      2  N   GLN B 366      12.326  88.676  12.206  1.00 38.60 LIG-0.35  N 
ATOM      3 H    GLN B 366      12.137  87.837  12.244  1.00 38.60 LIG 0.16  HD
ATOM      4  C   LEU B 365      13.572  89.161  12.243  1.00 41.18 LIG 0.24  C 
ATOM      5 O    LEU B 365      13.847  90.376  12.166  1.00 36.84 LIG-0.27  OA
BRANCH 4 6
ATOM      6  CA  LEU B 365      14.661  88.118  12.457  1.00 40.54 LIG 0.18  C 
BRANCH 6 7
ATOM      7  N   LEU B 365      14.105  86.783  12.278  1.00 42.84 LIG-0.35  N 
ATOM      8  C   ASP B 364      14.395  85.820  13.144  1.00 57.74 LIG 0.24  C 
ATOM      9 O    ASP B 364      15.159  86.022  14.046  1.00 57.74 LIG-0.27  OA
ATOM     10 H    LEU B 365      13.598  86.688  11.591  1.00 42.84 LIG 0.16  HD
BRANCH 8 11
ATOM     11  CA  ASP B 364      13.790  84.430  12.971  1.00 64.41 LIG 0.19  C 
BRANCH 11 12
ATOM     12  CB  ASP B 364      14.433  83.676  11.828  1.00 67.32 LIG 0.15  C 
BRANCH 12 13
ATOM     13  CG  ASP B 364      15.612  82.892  12.261  1.00 64.46 LIG 0.17  C 
ATOM     14 OD2  ASP B 364      15.857  82.845  13.494  1.00 62.61 LIG-0.65  OA
ATOM     15 OD1  ASP B 364      16.289  82.344  11.341  1.00 62.85 LIG-0.65  OA
ENDBRANCH 12 13
ENDBRANCH 11 12
BRANCH 11 16
ATOM     16  N   ASP B 364      12.394  84.474  12.666  1.00 73.89 LIG-0.35  N 
ATOM     17  C   ACE B 363      11.486  85.023  13.426  1.00 53.98 LIG 0.21  C 
ATOM     18  CH3 ACE B 363      10.111  84.817  12.836  1.00 56.03 LIG 0.12  C 
ATOM     19 O    ACE B 363      11.736  85.659  14.481  1.00 54.37 LIG-0.27  OA
ATOM     20 H    ASP B 364      12.202  84.096  11.917  1.00 73.89 LIG 0.16  HD
ENDBRANCH 11 16
ENDBRANCH 8 11
ENDBRANCH 6 7
BRANCH 6 21
ATOM     21  CB  LEU B 365      15.843  88.431  11.496  1.00 44.28 LIG 0.04  C 
BRANCH 21 22
ATOM     22  CG  LEU B 365      15.526  88.700  10.029  1.00 49.51 LIG-0.02  C 
ATOM     23  CD1 LEU B 365      14.335  87.897   9.572  1.00 53.42 LIG 0.01  C 
ATOM     24  CD2 LEU B 365      15.310  90.225   9.788  1.00 51.82 LIG 0.01  C 
ENDBRANCH 21 22
ENDBRANCH 6 21
ENDBRANCH 4 6
ENDBRANCH 1 2
BRANCH 1 25
ATOM     25  C   GLN B 366       9.998  88.949  12.839  1.00 40.92 LIG 0.24  C 
ATOM     26  N   THR B 367       9.260  89.804  13.550  1.00 37.18 LIG-0.34  N 
ATOM     27 H    THR B 367       9.412  90.648  13.619  1.00 37.18 LIG 0.16  HD
ATOM     28 O    GLN B 366       9.704  87.758  12.677  1.00 43.39 LIG-0.27  OA
BRANCH 26 29
ATOM     29  CA  THR B 367       8.108  89.322  14.275  1.00 39.45 LIG 0.20  C 
BRANCH 29 30
ATOM     30  CB  THR B 367       8.490  88.887  15.694  1.00 41.55 LIG 0.15  C 
ATOM     31  CG2 THR B 367       7.234  88.609  16.471  1.00 46.47 LIG 0.04  C 
BRANCH 30 32
ATOM     32 OG1  THR B 367       9.330  87.736  15.608  1.00 42.44 LIG-0.39  OA
ATOM     33 HG1  THR B 367       9.920  87.862  15.024  1.00 42.44 LIG 0.21  HD
ENDBRANCH 30 32
ENDBRANCH 29 30
BRANCH 29 34
ATOM     34  C   THR B 367       7.094  90.432  14.335  1.00 39.06 LIG 0.24  C 
ATOM     35  N   SER B 368       5.933  90.140  13.806  1.00 40.73 LIG-0.34  N 
ATOM     36 H    SER B 368       5.769  89.406  13.388  1.00 40.73 LIG 0.16  HD
ATOM     37 O    THR B 367       7.346  91.469  14.966  1.00 38.11 LIG-0.27  OA
BRANCH 35 38
ATOM     38  CA  SER B 368       4.814  91.042  13.880  1.00 41.63 LIG 0.20  C 
BRANCH 38 39
ATOM     39  CB  SER B 368       3.828  90.732  12.761  1.00 43.79 LIG 0.20  C 
BRANCH 39 40
ATOM     40 OG   SER B 368       3.888  89.377  12.383  1.00 46.28 LIG-0.40  OA
ATOM     41 HG   SER B 368       3.164  88.998  12.578  1.00 46.28 LIG 0.21  HD
ENDBRANCH 39 40
ENDBRANCH 38 39
BRANCH 38 42
ATOM     42  C   SER B 368       4.143  90.879  15.228  1.00 44.50 LIG 0.24  C 
ATOM     43 O    SER B 368       3.480  89.878  15.454  1.00 47.26 LIG-0.27  OA
ATOM     44  N   ILE B 369       4.265  91.886  16.059  1.00 46.03 LIG-0.34  N 
ATOM     45 H    ILE B 369       4.609  92.643  15.842  1.00 46.03 LIG 0.16  HD
BRANCH 44 46
ATOM     46  CA  ILE B 369       3.813  91.806  17.460  1.00 49.82 LIG 0.19  C 
BRANCH 46 47
ATOM     47  C   ILE B 369       2.692  92.784  17.743  1.00 51.12 LIG 0.20  C 
ATOM     48 OXT  ILE B 369       2.012  92.624  18.740  1.00 48.45 LIG-0.65  OA
ATOM     49 O    ILE B 369       2.419  93.755  17.016  1.00 56.65 LIG-0.65  OA
ENDBRANCH 46 47
BRANCH 46 50
ATOM     50  CB  ILE B 369       4.967  92.100  18.375  1.00 51.86 LIG 0.01  C 
ATOM     51  CG2 ILE B 369       5.119  91.028  19.532  1.00 50.67 LIG 0.01  C 
BRANCH 50 52
ATOM     52  CG1 ILE B 369       6.265  92.200  17.612  1.00 48.80 LIG 0.00  C 
ATOM     53  CD1 ILE B 369       7.302  91.778  18.477  1.00 47.56 LIG 0.01  C 
ENDBRANCH 50 52
ENDBRANCH 46 50
ENDBRANCH 44 46
ENDBRANCH 38 42
ENDBRANCH 35 38
ENDBRANCH 29 34
ENDBRANCH 26 29
ENDBRANCH 1 25
BRANCH 1 54
ATOM     54  CB  GLN B 366      10.719  89.732  10.637  1.00 39.69 LIG 0.04  C 
BRANCH 54 55
ATOM     55  CG  GLN B 366      10.515  91.157  10.311  1.00 41.05 LIG 0.10  C 
BRANCH 55 56
ATOM     56  CD  GLN B 366      11.291  91.614   9.096  1.00 41.66 LIG 0.21  C 
ATOM     57 OE1  GLN B 366      12.398  91.126   8.824  1.00 35.58 LIG-0.27  OA
ATOM     58  NE2 GLN B 366      10.673  92.530   8.327  1.00 36.50 LIG-0.37  N 
ATOM     59 22HE GLN B 366      11.048  92.807   7.604  1.00 36.50 LIG 0.16  HD
ATOM     60 21HE GLN B 366       9.905  92.838   8.560  1.00 36.50 LIG 0.16  HD
ENDBRANCH 55 56
ENDBRANCH 54 55
ENDBRANCH 1 54
TORSDOF 25
ENDMDL
MODEL 7
USER: ADFR SOLUTION from run 114
USER: SCORE 16.592075 LL:  -4.166 LR: -15.987 RR:   0.000 FEB:  -8.529
USER: RMSD 12.465026
USER: SEED 113
USER: STATUS searching
USER: GENES 27
USER: genes 0 Translation |==|  0.39367 0.57976 0.53688
USER: genes 1 Rotation |==|  0.34818 0.04426 0.37566 0.56155
USER: genes 2 Torsion [CB]-CA--N-[C] |==|  0.23213
USER: genes 3 Torsion [N]-C--CA-[N] |==|  0.41423
USER: genes 4 Torsion [C]-CA--N-[C] |==|  0.76854
USER: genes 5 Torsion [N]-C--CA-[N] |==|  0.60348
USER: genes 6 Torsion [C]-CA--CB-[CG] |==|  0.21328
USER: genes 7 Torsion [CA]-CB--CG-[OD2] |==|  0.61934
USER: genes 8 Torsion [C]-CA--N-[C] |==|  0.14527
USER: genes 9 Torsion [C]-CA--CB-[CG] |==|  0.52048
USER: genes 10 Torsion [CA]-CB--CG-[CD1] |==|  0.21061
USER: genes 11 Torsion [N]-CA--C-[N] |==|  0.50635
USER: genes 12 Torsion [C]-N--CA-[CB] |==|  0.23183
USER: genes 13 Torsion [N]-CA--CB-[CG2] |==|  0.11608
USER: genes 14 Torsion [CA]-CB--OG1-[HG1] |==|  0.22934
USER: genes 15 Torsion [N]-CA--C-[N] |==|  0.90366
USER: genes 16 Torsion [C]-N--CA-[CB] |==|  0.85469
USER: genes 17 Torsion [N]-CA--CB-[OG] |==|  0.52013
USER: genes 18 Torsion [CA]-CB--OG-[HG] |==|  0.06632
USER: genes 19 Torsion [N]-CA--C-[N] |==|  0.50000
USER: genes 20 Torsion [C]-N--CA-[CB] |==|  0.79762
USER: genes 21 Torsion [N]-CA--C-[OXT] |==|  0.10304
USER: genes 22 Torsion [N]-CA--CB-[CG2] |==|  0.55046
USER: genes 23 Torsion [CA]-CB--CG1-[CD1] |==|  0.35356
USER: genes 24 Torsion [N]-CA--CB-[CG] |==|  0.99074
USER: genes 25 Torsion [CA]-CB--CG-[CD] |==|  0.30476
USER: genes 26 Torsion [CB]-CG--CD-[OE1] |==|  0.59490
ROOT
ATOM      1  CA  GLN B 366       8.092  90.629  13.641  1.00 38.37 LIG 0.18  C 
ENDROOT
BRANCH 1 2
ATOM      2  N   GLN B 366       6.669  90.462  13.882  1.00 38.60 LIG-0.35  N 
ATOM      3 H    GLN B 366       6.315  89.799  13.463  1.00 38.60 LIG 0.16  HD
ATOM      4  C   LEU B 365       5.989  91.283  14.689  1.00 41.18 LIG 0.24  C 
ATOM      5 O    LEU B 365       6.508  92.232  15.312  1.00 36.84 LIG-0.27  OA
BRANCH 4 6
ATOM      6  CA  LEU B 365       4.490  91.024  14.752  1.00 40.54 LIG 0.18  C 
BRANCH 6 7
ATOM      7  N   LEU B 365       3.983  91.385  16.070  1.00 42.84 LIG-0.35  N 
ATOM      8  C   ASP B 364       4.073  90.524  17.076  1.00 57.74 LIG 0.24  C 
ATOM      9 O    ASP B 364       4.517  89.424  16.898  1.00 57.74 LIG-0.27  OA
ATOM     10 H    LEU B 365       3.639  92.170  16.126  1.00 42.84 LIG 0.16  HD
BRANCH 8 11
ATOM     11  CA  ASP B 364       3.568  90.914  18.462  1.00 64.41 LIG 0.19  C 
BRANCH 11 12
ATOM     12  CB  ASP B 364       3.555  92.415  18.653  1.00 67.32 LIG 0.15  C 
BRANCH 12 13
ATOM     13  CG  ASP B 364       2.414  93.062  17.966  1.00 64.46 LIG 0.17  C 
ATOM     14 OD2  ASP B 364       2.642  94.128  17.339  1.00 62.61 LIG-0.65  OA
ATOM     15 OD1  ASP B 364       1.292  92.486  18.084  1.00 62.85 LIG-0.65  OA
ENDBRANCH 12 13
ENDBRANCH 11 12
BRANCH 11 16
ATOM     16  N   ASP B 364       4.393  90.400  19.511  1.00 73.89 LIG-0.35  N 
ATOM     17  C   ACE B 363       5.686  90.560  19.582  1.00 53.98 LIG 0.21  C 
ATOM     18  CH3 ACE B 363       6.243  89.820  20.775  1.00 56.03 LIG 0.12  C 
ATOM     19 O    ACE B 363       6.358  91.261  18.783  1.00 54.37 LIG-0.27  OA
ATOM     20 H    ASP B 364       3.949  89.965  20.105  1.00 73.89 LIG 0.16  HD
ENDBRANCH 11 16
ENDBRANCH 8 11
ENDBRANCH 6 7
BRANCH 6 21
ATOM     21  CB  LEU B 365       3.804  91.801  13.592  1.00 44.28 LIG 0.04  C 
BRANCH 21 22
ATOM     22  CG  LEU B 365       2.281  91.834  13.550  1.00 49.51 LIG-0.02  C 
ATOM     23  CD1 LEU B 365       1.728  92.789  14.577  1.00 53.42 LIG 0.01  C 
ATOM     24  CD2 LEU B 365       1.781  92.189  12.116  1.00 51.82 LIG 0.01  C 
ENDBRANCH 21 22
ENDBRANCH 6 21
ENDBRANCH 4 6
ENDBRANCH 1 2
BRANCH 1 25
ATOM     25  C   GLN B 366       8.480  89.971  12.341  1.00 40.92 LIG 0.24  C 
ATOM     26  N   THR B 367       9.777  90.013  12.029  1.00 37.18 LIG-0.34  N 
ATOM     27 H    THR B 367      10.387  90.393  12.503  1.00 37.18 LIG 0.16  HD
ATOM     28 O    GLN B 366       7.638  89.338  11.691  1.00 43.39 LIG-0.27  OA
BRANCH 26 29
ATOM     29  CA  THR B 367      10.240  89.389  10.811  1.00 39.45 LIG 0.20  C 
BRANCH 29 30
ATOM     30  CB  THR B 367      10.055  90.320   9.608  1.00 41.55 LIG 0.15  C 
ATOM     31  CG2 THR B 367      10.449  91.715  10.009  1.00 46.47 LIG 0.04  C 
BRANCH 30 32
ATOM     32 OG1  THR B 367      10.849  89.833   8.527  1.00 42.44 LIG-0.39  OA
ATOM     33 HG1  THR B 367      10.434  89.222   8.127  1.00 42.44 LIG 0.21  HD
ENDBRANCH 30 32
ENDBRANCH 29 30
BRANCH 29 34
ATOM     34  C   THR B 367      11.697  89.055  10.981  1.00 39.06 LIG 0.24  C 
ATOM     35  N   SER B 368      12.374  89.914  11.698  1.00 40.73 LIG-0.34  N 
ATOM     36 H    SER B 368      12.047  90.653  11.995  1.00 40.73 LIG 0.16  HD
ATOM     37 O    THR B 367      12.137  87.972  10.567  1.00 38.11 LIG-0.27  OA
BRANCH 35 38
ATOM     38  CA  SER B 368      13.750  89.690  12.056  1.00 41.63 LIG 0.20  C 
BRANCH 38 39
ATOM     39  CB  SER B 368      13.896  88.318  12.701  1.00 43.79 LIG 0.20  C 
BRANCH 39 40
ATOM     40 OG   SER B 368      15.193  88.125  13.215  1.00 46.28 LIG-0.40  OA
ATOM     41 HG   SER B 368      15.546  88.871  13.373  1.00 46.28 LIG 0.21  HD
ENDBRANCH 39 40
ENDBRANCH 38 39
BRANCH 38 42
ATOM     42  C   SER B 368      14.601  89.773  10.806  1.00 44.50 LIG 0.24  C 
ATOM     43 O    SER B 368      14.064  89.933   9.720  1.00 47.26 LIG-0.27  OA
ATOM     44  N   ILE B 369      15.888  89.589  10.971  1.00 46.03 LIG-0.34  N 
ATOM     45 H    ILE B 369      16.242  89.335  11.712  1.00 46.03 LIG 0.16  HD
BRANCH 44 46
ATOM     46  CA  ILE B 369      16.858  89.805   9.882  1.00 49.82 LIG 0.19  C 
BRANCH 46 47
ATOM     47  C   ILE B 369      16.632  91.131   9.186  1.00 51.12 LIG 0.20  C 
ATOM     48 OXT  ILE B 369      16.293  92.092   9.852  1.00 48.45 LIG-0.65  OA
ATOM     49 O    ILE B 369      16.776  91.305   7.964  1.00 56.65 LIG-0.65  OA
ENDBRANCH 46 47
BRANCH 46 50
ATOM     50  CB  ILE B 369      16.740  88.694   8.878  1.00 51.86 LIG 0.01  C 
ATOM     51  CG2 ILE B 369      18.010  88.580   7.939  1.00 50.67 LIG 0.01  C 
BRANCH 50 52
ATOM     52  CG1 ILE B 369      16.493  87.367   9.551  1.00 48.80 LIG 0.00  C 
ATOM     53  CD1 ILE B 369      15.348  86.791   8.952  1.00 47.56 LIG 0.01  C 
ENDBRANCH 50 52
ENDBRANCH 46 50
ENDBRANCH 44 46
ENDBRANCH 38 42
ENDBRANCH 35 38
ENDBRANCH 29 34
ENDBRANCH 26 29
ENDBRANCH 1 25
BRANCH 1 54
ATOM     54  CB  GLN B 366       8.946  89.976  14.741  1.00 39.69 LIG 0.04  C 
BRANCH 54 55
ATOM     55  CG  GLN B 366       8.107  89.409  15.814  1.00 41.05 LIG 0.10  C 
BRANCH 55 56
ATOM     56  CD  GLN B 366       8.101  87.896  15.839  1.00 41.66 LIG 0.21  C 
ATOM     57 OE1  GLN B 366       7.085  87.267  16.172  1.00 35.58 LIG-0.27  OA
ATOM     58  NE2 GLN B 366       9.240  87.307  15.432  1.00 36.50 LIG-0.37  N 
ATOM     59 22HE GLN B 366       9.291  86.449  15.393  1.00 36.50 LIG 0.16  HD
ATOM     60 21HE GLN B 366       9.919  87.789  15.213  1.00 36.50 LIG 0.16  HD
ENDBRANCH 55 56
ENDBRANCH 54 55
ENDBRANCH 1 54
TORSDOF 25
ENDMDL
MODEL 8
USER: ADFR SOLUTION from run 42
USER: SCORE 17.682607 LL:  -4.800 LR: -15.949 RR:   0.000 FEB:  -8.492
USER: RMSD 11.892788
USER: SEED 41
USER: STATUS no improvement in best in 7 clusters for 5 generations
USER: GENES 27
USER: genes 0 Translation |==|  0.39193 0.44761 0.65483
USER: genes 1 Rotation |==|  0.13872 0.26749 0.25192 0.56227
USER: genes 2 Torsion [CB]-CA--N-[C] |==|  0.52922
USER: genes 3 Torsion [N]-C--CA-[N] |==|  0.81179
USER: genes 4 Torsion [C]-CA--N-[C] |==|  0.57813
USER: genes 5 Torsion [N]-C--CA-[N] |==|  0.71136
USER: genes 6 Torsion [C]-CA--CB-[CG] |==|  0.20754
USER: genes 7 Torsion [CA]-CB--CG-[OD2] |==|  0.59273
USER: genes 8 Torsion [C]-CA--N-[C] |==|  0.58104
USER: genes 9 Torsion [C]-CA--CB-[CG] |==|  0.72162
USER: genes 10 Torsion [CA]-CB--CG-[CD1] |==|  0.42170
USER: genes 11 Torsion [N]-CA--C-[N] |==|  0.31337
USER: genes 12 Torsion [C]-N--CA-[CB] |==|  0.17772
USER: genes 13 Torsion [N]-CA--CB-[CG2] |==|  0.71569
USER: genes 14 Torsion [CA]-CB--OG1-[HG1] |==|  0.15745
USER: genes 15 Torsion [N]-CA--C-[N] |==|  0.15119
USER: genes 16 Torsion [C]-N--CA-[CB] |==|  0.17089
USER: genes 17 Torsion [N]-CA--CB-[OG] |==|  0.46181
USER: genes 18 Torsion [CA]-CB--OG-[HG] |==|  0.77598
USER: genes 19 Torsion [N]-CA--C-[N] |==|  0.15353
USER: genes 20 Torsion [C]-N--CA-[CB] |==|  0.16439
USER: genes 21 Torsion [N]-CA--C-[OXT] |==|  0.41638
USER: genes 22 Torsion [N]-CA--CB-[CG2] |==|  0.33432
USER: genes 23 Torsion [CA]-CB--CG1-[CD1] |==|  0.82503
USER: genes 24 Torsion [N]-CA--CB-[CG] |==|  0.52435
USER: genes 25 Torsion [CA]-CB--CG-[CD] |==|  0.08390
USER: genes 26 Torsion [CB]-CG--CD-[OE1] |==|  0.19424
ROOT
ATOM      1  CA  GLN B 366       8.044  88.349  16.207  1.00 38.37 LIG 0.18  C 
ENDROOT
BRANCH 1 2
ATOM      2  N   GLN B 366       7.301  89.329  16.981  1.00 38.60 LIG-0.35  N 
ATOM      3 H    GLN B 366       6.809  88.991  17.600  1.00 38.60 LIG 0.16  HD
ATOM      4  C   LEU B 365       7.391  90.640  16.732  1.00 41.18 LIG 0.24  C 
ATOM      5 O    LEU B 365       8.122  91.131  15.848  1.00 36.84 LIG-0.27  OA
BRANCH 4 6
ATOM      6  CA  LEU B 365       6.472  91.517  17.573  1.00 40.54 LIG 0.18  C 
BRANCH 6 7
ATOM      7  N   LEU B 365       5.085  91.273  17.201  1.00 42.84 LIG-0.35  N 
ATOM      8  C   ASP B 364       4.179  92.233  17.344  1.00 57.74 LIG 0.24  C 
ATOM      9 O    ASP B 364       4.481  93.286  17.833  1.00 57.74 LIG-0.27  OA
ATOM     10 H    LEU B 365       4.921  90.486  16.896  1.00 42.84 LIG 0.16  HD
BRANCH 8 11
ATOM     11  CA  ASP B 364       2.732  91.985  16.928  1.00 64.41 LIG 0.19  C 
BRANCH 11 12
ATOM     12  CB  ASP B 364       2.452  90.513  16.720  1.00 67.32 LIG 0.15  C 
BRANCH 12 13
ATOM     13  CG  ASP B 364       2.343  89.773  17.999  1.00 64.46 LIG 0.17  C 
ATOM     14 OD2  ASP B 364       2.745  88.581  18.016  1.00 62.61 LIG-0.65  OA
ATOM     15 OD1  ASP B 364       1.836  90.407  18.971  1.00 62.85 LIG-0.65  OA
ENDBRANCH 12 13
ENDBRANCH 11 12
BRANCH 11 16
ATOM     16  N   ASP B 364       2.402  92.618  15.690  1.00 73.89 LIG-0.35  N 
ATOM     17  C   ACE B 363       1.208  93.039  15.368  1.00 53.98 LIG 0.21  C 
ATOM     18  CH3 ACE B 363       1.203  93.582  13.959  1.00 56.03 LIG 0.12  C 
ATOM     19 O    ACE B 363       0.218  93.019  16.143  1.00 54.37 LIG-0.27  OA
ATOM     20 H    ASP B 364       3.076  92.698  15.162  1.00 73.89 LIG 0.16  HD
ENDBRANCH 11 16
ENDBRANCH 8 11
ENDBRANCH 6 7
BRANCH 6 21
ATOM     21  CB  LEU B 365       6.768  91.247  19.076  1.00 44.28 LIG 0.04  C 
BRANCH 21 22
ATOM     22  CG  LEU B 365       5.827  90.321  19.839  1.00 49.51 LIG-0.02  C 
ATOM     23  CD1 LEU B 365       6.543  89.628  20.970  1.00 53.42 LIG 0.01  C 
ATOM     24  CD2 LEU B 365       4.582  91.108  20.350  1.00 51.82 LIG 0.01  C 
ENDBRANCH 21 22
ENDBRANCH 6 21
ENDBRANCH 4 6
ENDBRANCH 1 2
BRANCH 1 25
ATOM     25  C   GLN B 366       7.831  88.582  14.732  1.00 40.92 LIG 0.24  C 
ATOM     26  N   THR B 367       8.900  88.989  14.044  1.00 37.18 LIG-0.34  N 
ATOM     27 H    THR B 367       9.678  89.135  14.382  1.00 37.18 LIG 0.16  HD
ATOM     28 O    GLN B 366       6.749  88.287  14.208  1.00 43.39 LIG-0.27  OA
BRANCH 26 29
ATOM     29  CA  THR B 367       8.791  89.215  12.622  1.00 39.45 LIG 0.20  C 
BRANCH 29 30
ATOM     30  CB  THR B 367       7.819  90.360  12.318  1.00 41.55 LIG 0.15  C 
ATOM     31  CG2 THR B 367       6.511  89.778  11.860  1.00 46.47 LIG 0.04  C 
BRANCH 30 32
ATOM     32 OG1  THR B 367       7.666  91.154  13.494  1.00 42.44 LIG-0.39  OA
ATOM     33 HG1  THR B 367       8.418  91.429  13.747  1.00 42.44 LIG 0.21  HD
ENDBRANCH 30 32
ENDBRANCH 29 30
BRANCH 29 34
ATOM     34  C   THR B 367      10.159  89.551  12.094  1.00 39.06 LIG 0.24  C 
ATOM     35  N   SER B 368      11.085  88.671  12.378  1.00 40.73 LIG-0.34  N 
ATOM     36 H    SER B 368      10.956  87.987  12.886  1.00 40.73 LIG 0.16  HD
ATOM     37 O    THR B 367      10.313  90.525  11.343  1.00 38.11 LIG-0.27  OA
BRANCH 35 38
ATOM     38  CA  SER B 368      12.421  88.775  11.855  1.00 41.63 LIG 0.20  C 
BRANCH 38 39
ATOM     39  CB  SER B 368      13.065  90.067  12.343  1.00 43.79 LIG 0.20  C 
BRANCH 39 40
ATOM     40 OG   SER B 368      14.455  90.067  12.121  1.00 46.28 LIG-0.40  OA
ATOM     41 HG   SER B 368      14.836  89.628  12.727  1.00 46.28 LIG 0.21  HD
ENDBRANCH 39 40
ENDBRANCH 38 39
BRANCH 38 42
ATOM     42  C   SER B 368      13.226  87.581  12.326  1.00 44.50 LIG 0.24  C 
ATOM     43 O    SER B 368      14.306  87.757  12.868  1.00 47.26 LIG-0.27  OA
ATOM     44  N   ILE B 369      12.725  86.402  12.046  1.00 46.03 LIG-0.34  N 
ATOM     45 H    ILE B 369      12.040  86.283  11.541  1.00 46.03 LIG 0.16  HD
BRANCH 44 46
ATOM     46  CA  ILE B 369      13.303  85.157  12.582  1.00 49.82 LIG 0.19  C 
BRANCH 46 47
ATOM     47  C   ILE B 369      12.544  83.936  12.105  1.00 51.12 LIG 0.20  C 
ATOM     48 OXT  ILE B 369      13.147  82.887  11.972  1.00 48.45 LIG-0.65  OA
ATOM     49 O    ILE B 369      11.330  83.935  11.839  1.00 56.65 LIG-0.65  OA
ENDBRANCH 46 47
BRANCH 46 50
ATOM     50  CB  ILE B 369      13.276  85.198  14.083  1.00 51.86 LIG 0.01  C 
ATOM     51  CG2 ILE B 369      12.434  84.014  14.714  1.00 50.67 LIG 0.01  C 
BRANCH 50 52
ATOM     52  CG1 ILE B 369      14.669  85.185  14.661  1.00 48.80 LIG 0.00  C 
ATOM     53  CD1 ILE B 369      15.273  83.960  14.292  1.00 47.56 LIG 0.01  C 
ENDBRANCH 50 52
ENDBRANCH 46 50
ENDBRANCH 44 46
ENDBRANCH 38 42
ENDBRANCH 35 38
ENDBRANCH 29 34
ENDBRANCH 26 29
ENDBRANCH 1 25
BRANCH 1 54
ATOM     54  CB  GLN B 366       7.586  86.911  16.500  1.00 39.69 LIG 0.04  C 
BRANCH 54 55
ATOM     55  CG  GLN B 366       8.479  85.919  15.872  1.00 41.05 LIG 0.10  C 
BRANCH 55 56
ATOM     56  CD  GLN B 366       9.910  86.392  15.742  1.00 41.66 LIG 0.21  C 
ATOM     57 OE1  GLN B 366      10.631  86.526  16.742  1.00 35.58 LIG-0.27  OA
ATOM     58  NE2 GLN B 366      10.339  86.598  14.484  1.00 36.50 LIG-0.37  N 
ATOM     59 22HE GLN B 366      11.153  86.836  14.340  1.00 36.50 LIG 0.16  HD
ATOM     60 21HE GLN B 366       9.799  86.491  13.822  1.00 36.50 LIG 0.16  HD
ENDBRANCH 55 56
ENDBRANCH 54 55
ENDBRANCH 1 54
TORSDOF 25
ENDMDL
MODEL 9
USER: ADFR SOLUTION from run 141
USER: SCORE 17.885259 LL:  -4.710 LR: -15.908 RR:   0.000 FEB:  -8.451
USER: RMSD 1.722659
USER: SEED 140
USER: STATUS 1 or 2 clusters left
USER: GENES 27
USER: genes 0 Translation |==|  0.50161 0.51839 0.47959
USER: genes 1 Rotation |==|  0.58453 0.46337 0.49600 0.99142
USER: genes 2 Torsion [CB]-CA--N-[C] |==|  0.22264
USER: genes 3 Torsion [N]-C--CA-[N] |==|  0.41578
USER: genes 4 Torsion [C]-CA--N-[C] |==|  0.63022
USER: genes 5 Torsion [N]-C--CA-[N] |==|  0.97341
USER: genes 6 Torsion [C]-CA--CB-[CG] |==|  0.82186
USER: genes 7 Torsion [CA]-CB--CG-[OD2] |==|  0.53526
USER: genes 8 Torsion [C]-CA--N-[C] |==|  0.79919
USER: genes 9 Torsion [C]-CA--CB-[CG] |==|  0.33653
USER: genes 10 Torsion [CA]-CB--CG-[CD1] |==|  0.49711
USER: genes 11 Torsion [N]-CA--C-[N] |==|  0.29740
USER: genes 12 Torsion [C]-N--CA-[CB] |==|  0.39704
USER: genes 13 Torsion [N]-CA--CB-[CG2] |==|  0.64180
USER: genes 14 Torsion [CA]-CB--OG1-[HG1] |==|  0.06151
USER: genes 15 Torsion [N]-CA--C-[N] |==|  0.91899
USER: genes 16 Torsion [C]-N--CA-[CB] |==|  0.86047
USER: genes 17 Torsion [N]-CA--CB-[OG] |==|  0.88698
USER: genes 18 Torsion [CA]-CB--OG-[HG] |==|  0.14217
USER: genes 19 Torsion [N]-CA--C-[N] |==|  0.41666
USER: genes 20 Torsion [C]-N--CA-[CB] |==|  0.25661
USER: genes 21 Torsion [N]-CA--C-[OXT] |==|  0.44935
USER: genes 22 Torsion [N]-CA--CB-[CG2] |==|  0.66179
USER: genes 23 Torsion [CA]-CB--CG1-[CD1] |==|  0.68934
USER: genes 24 Torsion [N]-CA--CB-[CG] |==|  0.98777
USER: genes 25 Torsion [CA]-CB--CG-[CD] |==|  0.34936
USER: genes 26 Torsion [CB]-CG--CD-[OE1] |==|  0.40150
ROOT
ATOM      1  CA  GLN B 366      11.088  89.570  12.395  1.00 38.37 LIG 0.18  C 
ENDROOT
BRANCH 1 2
ATOM      2  N   GLN B 366      12.237  88.739  12.080  1.00 38.60 LIG-0.35  N 
ATOM      3 H    GLN B 366      12.038  87.936  11.845  1.00 38.60 LIG 0.16  HD
ATOM      4  C   LEU B 365      13.488  89.206  12.157  1.00 41.18 LIG 0.24  C 
ATOM      5 O    LEU B 365      13.774  90.377  12.478  1.00 36.84 LIG-0.27  OA
BRANCH 4 6
ATOM      6  CA  LEU B 365      14.575  88.175  11.887  1.00 40.54 LIG 0.18  C 
BRANCH 6 7
ATOM      7  N   LEU B 365      15.737  88.828  11.298  1.00 42.84 LIG-0.35  N 
ATOM      8  C   ASP B 364      16.324  88.304  10.229  1.00 57.74 LIG 0.24  C 
ATOM      9 O    ASP B 364      15.942  87.262   9.774  1.00 57.74 LIG-0.27  OA
ATOM     10 H    LEU B 365      15.990  89.548  11.692  1.00 42.84 LIG 0.16  HD
BRANCH 8 11
ATOM     11  CA  ASP B 364      17.523  89.004   9.597  1.00 64.41 LIG 0.19  C 
BRANCH 11 12
ATOM     12  CB  ASP B 364      18.809  88.241   9.834  1.00 67.32 LIG 0.15  C 
BRANCH 12 13
ATOM     13  CG  ASP B 364      19.167  88.172  11.270  1.00 64.46 LIG 0.17  C 
ATOM     14 OD2  ASP B 364      20.326  87.780  11.561  1.00 62.61 LIG-0.65  OA
ATOM     15 OD1  ASP B 364      18.258  88.502  12.089  1.00 62.85 LIG-0.65  OA
ENDBRANCH 12 13
ENDBRANCH 11 12
BRANCH 11 16
ATOM     16  N   ASP B 364      17.745  90.308  10.138  1.00 73.89 LIG-0.35  N 
ATOM     17  C   ACE B 363      16.991  91.347   9.901  1.00 53.98 LIG 0.21  C 
ATOM     18  CH3 ACE B 363      17.562  92.575  10.569  1.00 56.03 LIG 0.12  C 
ATOM     19 O    ACE B 363      15.925  91.310   9.237  1.00 54.37 LIG-0.27  OA
ATOM     20 H    ASP B 364      18.437  90.348  10.647  1.00 73.89 LIG 0.16  HD
ENDBRANCH 11 16
ENDBRANCH 8 11
ENDBRANCH 6 7
BRANCH 6 21
ATOM     21  CB  LEU B 365      14.891  87.428  13.214  1.00 44.28 LIG 0.04  C 
BRANCH 21 22
ATOM     22  CG  LEU B 365      14.709  85.915  13.251  1.00 49.51 LIG-0.02  C 
ATOM     23  CD1 LEU B 365      15.082  85.353  14.598  1.00 53.42 LIG 0.01  C 
ATOM     24  CD2 LEU B 365      13.250  85.531  12.858  1.00 51.82 LIG 0.01  C 
ENDBRANCH 21 22
ENDBRANCH 6 21
ENDBRANCH 4 6
ENDBRANCH 1 2
BRANCH 1 25
ATOM     25  C   GLN B 366       9.883  88.707  12.676  1.00 40.92 LIG 0.24  C 
ATOM     26  N   THR B 367       9.504  88.630  13.953  1.00 37.18 LIG-0.34  N 
ATOM     27 H    THR B 367       9.900  89.020  14.610  1.00 37.18 LIG 0.16  HD
ATOM     28 O    GLN B 366       9.242  88.215  11.738  1.00 43.39 LIG-0.27  OA
BRANCH 26 29
ATOM     29  CA  THR B 367       8.347  87.842  14.309  1.00 39.45 LIG 0.20  C 
BRANCH 29 30
ATOM     30  CB  THR B 367       8.556  87.127  15.648  1.00 41.55 LIG 0.15  C 
ATOM     31  CG2 THR B 367       8.236  85.669  15.475  1.00 46.47 LIG 0.04  C 
BRANCH 30 32
ATOM     32 OG1  THR B 367       9.905  87.331  16.069  1.00 42.44 LIG-0.39  OA
ATOM     33 HG1  THR B 367      10.216  88.014  15.694  1.00 42.44 LIG 0.21  HD
ENDBRANCH 30 32
ENDBRANCH 29 30
BRANCH 29 34
ATOM     34  C   THR B 367       7.162  88.765  14.400  1.00 39.06 LIG 0.24  C 
ATOM     35  N   SER B 368       7.453  89.993  14.746  1.00 40.73 LIG-0.34  N 
ATOM     36 H    SER B 368       8.240  90.251  14.978  1.00 40.73 LIG 0.16  HD
ATOM     37 O    THR B 367       6.043  88.376  14.034  1.00 38.11 LIG-0.27  OA
BRANCH 35 38
ATOM     38  CA  SER B 368       6.458  91.033  14.769  1.00 41.63 LIG 0.20  C 
BRANCH 38 39
ATOM     39  CB  SER B 368       5.696  91.045  13.450  1.00 43.79 LIG 0.20  C 
BRANCH 39 40
ATOM     40 OG   SER B 368       6.558  90.840  12.355  1.00 46.28 LIG-0.40  OA
ATOM     41 HG   SER B 368       7.028  90.157  12.492  1.00 46.28 LIG 0.21  HD
ENDBRANCH 39 40
ENDBRANCH 38 39
BRANCH 38 42
ATOM     42  C   SER B 368       5.506  90.774  15.919  1.00 44.50 LIG 0.24  C 
ATOM     43 O    SER B 368       5.240  89.624  16.235  1.00 47.26 LIG-0.27  OA
ATOM     44  N   ILE B 369       4.961  91.833  16.465  1.00 46.03 LIG-0.34  N 
ATOM     45 H    ILE B 369       5.040  92.628  16.147  1.00 46.03 LIG 0.16  HD
BRANCH 44 46
ATOM     46  CA  ILE B 369       4.151  91.753  17.694  1.00 49.82 LIG 0.19  C 
BRANCH 46 47
ATOM     47  C   ILE B 369       3.033  92.776  17.697  1.00 51.12 LIG 0.20  C 
ATOM     48 OXT  ILE B 369       2.097  92.619  18.458  1.00 48.45 LIG-0.65  OA
ATOM     49 O    ILE B 369       3.012  93.779  16.964  1.00 56.65 LIG-0.65  OA
ENDBRANCH 46 47
BRANCH 46 50
ATOM     50  CB  ILE B 369       5.030  91.980  18.890  1.00 51.86 LIG 0.01  C 
ATOM     51  CG2 ILE B 369       5.006  90.768  19.909  1.00 50.67 LIG 0.01  C 
BRANCH 50 52
ATOM     52  CG1 ILE B 369       6.455  92.262  18.481  1.00 48.80 LIG 0.00  C 
ATOM     53  CD1 ILE B 369       7.243  91.161  18.893  1.00 47.56 LIG 0.01  C 
ENDBRANCH 50 52
ENDBRANCH 46 50
ENDBRANCH 44 46
ENDBRANCH 38 42
ENDBRANCH 35 38
ENDBRANCH 29 34
ENDBRANCH 26 29
ENDBRANCH 1 25
BRANCH 1 54
ATOM     54  CB  GLN B 366      10.707  90.499  11.230  1.00 39.69 LIG 0.04  C 
BRANCH 54 55
ATOM     55  CG  GLN B 366      11.668  90.391  10.115  1.00 41.05 LIG 0.10  C 
BRANCH 55 56
ATOM     56  CD  GLN B 366      11.018  90.073   8.786  1.00 41.66 LIG 0.21  C 
ATOM     57 OE1  GLN B 366      11.457  90.553   7.730  1.00 35.58 LIG-0.27  OA
ATOM     58  NE2 GLN B 366       9.987  89.211   8.839  1.00 36.50 LIG-0.37  N 
ATOM     59 22HE GLN B 366       9.595  88.964   8.114  1.00 36.50 LIG 0.16  HD
ATOM     60 21HE GLN B 366       9.719  88.906   9.598  1.00 36.50 LIG 0.16  HD
ENDBRANCH 55 56
ENDBRANCH 54 55
ENDBRANCH 1 54
TORSDOF 25
ENDMDL
MODEL 10
USER: ADFR SOLUTION from run 143
USER: SCORE 16.426406 LL:  -4.957 LR: -15.885 RR:   0.000 FEB:  -8.428
USER: RMSD 4.704488
USER: SEED 142
USER: STATUS no improvement in best in 2 clusters for 5 generations
USER: GENES 27
USER: genes 0 Translation |==|  0.40346 0.47955 0.53586
USER: genes 1 Rotation |==|  0.98723 0.47181 0.42031 0.57390
USER: genes 2 Torsion [CB]-CA--N-[C] |==|  0.36952
USER: genes 3 Torsion [N]-C--CA-[N] |==|  0.42851
USER: genes 4 Torsion [C]-CA--N-[C] |==|  0.64285
USER: genes 5 Torsion [N]-C--CA-[N] |==|  0.38017
USER: genes 6 Torsion [C]-CA--CB-[CG] |==|  0.26450
USER: genes 7 Torsion [CA]-CB--CG-[OD2] |==|  0.64396
USER: genes 8 Torsion [C]-CA--N-[C] |==|  0.82091
USER: genes 9 Torsion [C]-CA--CB-[CG] |==|  0.69072
USER: genes 10 Torsion [CA]-CB--CG-[CD1] |==|  0.17830
USER: genes 11 Torsion [N]-CA--C-[N] |==|  0.50453
USER: genes 12 Torsion [C]-N--CA-[CB] |==|  0.43130
USER: genes 13 Torsion [N]-CA--CB-[CG2] |==|  0.67442
USER: genes 14 Torsion [CA]-CB--OG1-[HG1] |==|  0.50640
USER: genes 15 Torsion [N]-CA--C-[N] |==|  0.78820
USER: genes 16 Torsion [C]-N--CA-[CB] |==|  0.19998
USER: genes 17 Torsion [N]-CA--CB-[OG] |==|  0.59587
USER: genes 18 Torsion [CA]-CB--OG-[HG] |==|  0.13741
USER: genes 19 Torsion [N]-CA--C-[N] |==|  0.52568
USER: genes 20 Torsion [C]-N--CA-[CB] |==|  0.29048
USER: genes 21 Torsion [N]-CA--C-[OXT] |==|  0.94226
USER: genes 22 Torsion [N]-CA--CB-[CG2] |==|  0.52672
USER: genes 23 Torsion [CA]-CB--CG1-[CD1] |==|  0.73608
USER: genes 24 Torsion [N]-CA--CB-[CG] |==|  0.12682
USER: genes 25 Torsion [CA]-CB--CG-[CD] |==|  0.30934
USER: genes 26 Torsion [CB]-CG--CD-[OE1] |==|  0.62761
ROOT
ATOM      1  CA  GLN B 366       8.364  88.900  13.619  1.00 38.37 LIG 0.18  C 
ENDROOT
BRANCH 1 2
ATOM      2  N   GLN B 366       9.543  89.628  13.182  1.00 38.60 LIG-0.35  N 
ATOM      3 H    GLN B 366       9.648  90.392  13.562  1.00 38.60 LIG 0.16  HD
ATOM      4  C   LEU B 365      10.381  89.131  12.266  1.00 41.18 LIG 0.24  C 
ATOM      5 O    LEU B 365      10.240  88.012  11.731  1.00 36.84 LIG-0.27  OA
BRANCH 4 6
ATOM      6  CA  LEU B 365      11.510  90.065  11.854  1.00 40.54 LIG 0.18  C 
BRANCH 6 7
ATOM      7  N   LEU B 365      12.644  89.285  11.376  1.00 42.84 LIG-0.35  N 
ATOM      8  C   ASP B 364      13.857  89.502  11.871  1.00 57.74 LIG 0.24  C 
ATOM      9 O    ASP B 364      14.040  90.378  12.670  1.00 57.74 LIG-0.27  OA
ATOM     10 H    LEU B 365      12.458  88.701  10.774  1.00 42.84 LIG 0.16  HD
BRANCH 8 11
ATOM     11  CA  ASP B 364      15.038  88.665  11.390  1.00 64.41 LIG 0.19  C 
BRANCH 11 12
ATOM     12  CB  ASP B 364      15.447  87.629  12.415  1.00 67.32 LIG 0.15  C 
BRANCH 12 13
ATOM     13  CG  ASP B 364      14.828  86.309  12.160  1.00 64.46 LIG 0.17  C 
ATOM     14 OD2  ASP B 364      14.220  85.758  13.114  1.00 62.61 LIG-0.65  OA
ATOM     15 OD1  ASP B 364      14.978  85.836  10.994  1.00 62.85 LIG-0.65  OA
ENDBRANCH 12 13
ENDBRANCH 11 12
BRANCH 11 16
ATOM     16  N   ASP B 364      16.208  89.453  11.153  1.00 73.89 LIG-0.35  N 
ATOM     17  C   ACE B 363      16.305  90.378  10.236  1.00 53.98 LIG 0.21  C 
ATOM     18  CH3 ACE B 363      17.701  90.951  10.213  1.00 56.03 LIG 0.12  C 
ATOM     19 O    ACE B 363      15.353  90.753   9.506  1.00 54.37 LIG-0.27  OA
ATOM     20 H    ASP B 364      16.857  89.258  11.681  1.00 73.89 LIG 0.16  HD
ENDBRANCH 11 16
ENDBRANCH 8 11
ENDBRANCH 6 7
BRANCH 6 21
ATOM     21  CB  LEU B 365      10.962  91.070  10.801  1.00 44.28 LIG 0.04  C 
BRANCH 21 22
ATOM     22  CG  LEU B 365      11.467  90.957   9.367  1.00 49.51 LIG-0.02  C 
ATOM     23  CD1 LEU B 365      11.056  89.646   8.746  1.00 53.42 LIG 0.01  C 
ATOM     24  CD2 LEU B 365      10.975  92.168   8.517  1.00 51.82 LIG 0.01  C 
ENDBRANCH 21 22
ENDBRANCH 6 21
ENDBRANCH 4 6
ENDBRANCH 1 2
BRANCH 1 25
ATOM     25  C   GLN B 366       7.118  89.554  13.075  1.00 40.92 LIG 0.24  C 
ATOM     26  N   THR B 367       5.961  88.995  13.435  1.00 37.18 LIG-0.34  N 
ATOM     27 H    THR B 367       5.883  88.299  13.934  1.00 37.18 LIG 0.16  HD
ATOM     28 O    GLN B 366       7.202  90.610  12.435  1.00 43.39 LIG-0.27  OA
BRANCH 26 29
ATOM     29  CA  THR B 367       4.718  89.570  12.976  1.00 39.45 LIG 0.20  C 
BRANCH 29 30
ATOM     30  CB  THR B 367       3.600  88.522  12.953  1.00 41.55 LIG 0.15  C 
ATOM     31  CG2 THR B 367       3.132  88.342  11.536  1.00 46.47 LIG 0.04  C 
BRANCH 30 32
ATOM     32 OG1  THR B 367       4.103  87.305  13.506  1.00 42.44 LIG-0.39  OA
ATOM     33 HG1  THR B 367       3.508  86.714  13.470  1.00 42.44 LIG 0.21  HD
ENDBRANCH 30 32
ENDBRANCH 29 30
BRANCH 29 34
ATOM     34  C   THR B 367       4.348  90.692  13.908  1.00 39.06 LIG 0.24  C 
ATOM     35  N   SER B 368       3.860  90.307  15.059  1.00 40.73 LIG-0.34  N 
ATOM     36 H    SER B 368       3.689  89.487  15.256  1.00 40.73 LIG 0.16  HD
ATOM     37 O    THR B 367       4.631  91.863  13.612  1.00 38.11 LIG-0.27  OA
BRANCH 35 38
ATOM     38  CA  SER B 368       3.563  91.243  16.112  1.00 41.63 LIG 0.20  C 
BRANCH 38 39
ATOM     39  CB  SER B 368       2.330  92.057  15.743  1.00 43.79 LIG 0.20  C 
BRANCH 39 40
ATOM     40 OG   SER B 368       2.421  93.378  16.222  1.00 46.28 LIG-0.40  OA
ATOM     41 HG   SER B 368       3.165  93.704  16.007  1.00 46.28 LIG 0.21  HD
ENDBRANCH 39 40
ENDBRANCH 38 39
BRANCH 38 42
ATOM     42  C   SER B 368       3.318  90.475  17.394  1.00 44.50 LIG 0.24  C 
ATOM     43 O    SER B 368       3.492  89.266  17.416  1.00 47.26 LIG-0.27  OA
ATOM     44  N   ILE B 369       2.851  91.171  18.402  1.00 46.03 LIG-0.34  N 
ATOM     45 H    ILE B 369       2.595  91.989  18.339  1.00 46.03 LIG 0.16  HD
BRANCH 44 46
ATOM     46  CA  ILE B 369       2.722  90.602  19.756  1.00 49.82 LIG 0.19  C 
BRANCH 46 47
ATOM     47  C   ILE B 369       1.381  90.932  20.378  1.00 51.12 LIG 0.20  C 
ATOM     48 OXT  ILE B 369       0.751  91.878  19.943  1.00 48.45 LIG-0.65  OA
ATOM     49 O    ILE B 369       0.875  90.290  21.314  1.00 56.65 LIG-0.65  OA
ENDBRANCH 46 47
BRANCH 46 50
ATOM     50  CB  ILE B 369       3.818  91.139  20.631  1.00 51.86 LIG 0.01  C 
ATOM     51  CG2 ILE B 369       3.904  90.399  22.029  1.00 50.67 LIG 0.01  C 
BRANCH 50 52
ATOM     52  CG1 ILE B 369       5.159  91.066  19.944  1.00 48.80 LIG 0.00  C 
ATOM     53  CD1 ILE B 369       5.785  89.866  20.353  1.00 47.56 LIG 0.01  C 
ENDBRANCH 50 52
ENDBRANCH 46 50
ENDBRANCH 44 46
ENDBRANCH 38 42
ENDBRANCH 35 38
ENDBRANCH 29 34
ENDBRANCH 26 29
ENDBRANCH 1 25
BRANCH 1 54
ATOM     54  CB  GLN B 366       8.225  88.887  15.151  1.00 39.69 LIG 0.04  C 
BRANCH 54 55
ATOM     55  CG  GLN B 366       8.456  90.226  15.727  1.00 41.05 LIG 0.10  C 
BRANCH 55 56
ATOM     56  CD  GLN B 366       7.211  90.853  16.314  1.00 41.66 LIG 0.21  C 
ATOM     57 OE1  GLN B 366       6.918  92.034  16.076  1.00 35.58 LIG-0.27  OA
ATOM     58  NE2 GLN B 366       6.443  90.030  17.052  1.00 36.50 LIG-0.37  N 
ATOM     59 22HE GLN B 366       5.704  90.317  17.387  1.00 36.50 LIG 0.16  HD
ATOM     60 21HE GLN B 366       6.691  89.218  17.189  1.00 36.50 LIG 0.16  HD
ENDBRANCH 55 56
ENDBRANCH 54 55
ENDBRANCH 1 54
TORSDOF 25
ENDMDL
MODEL 11
USER: ADFR SOLUTION from run 158
USER: SCORE 17.560012 LL:  -4.720 LR: -15.819 RR:   0.000 FEB:  -8.361
USER: RMSD 12.629826
USER: SEED 157
USER: STATUS no improvement in best in 7 clusters for 5 generations
USER: GENES 27
USER: genes 0 Translation |==|  0.33783 0.64638 0.61911
USER: genes 1 Rotation |==|  0.55247 0.97697 0.49287 0.64034
USER: genes 2 Torsion [CB]-CA--N-[C] |==|  0.77330
USER: genes 3 Torsion [N]-C--CA-[N] |==|  0.83267
USER: genes 4 Torsion [C]-CA--N-[C] |==|  0.82299
USER: genes 5 Torsion [N]-C--CA-[N] |==|  0.03252
USER: genes 6 Torsion [C]-CA--CB-[CG] |==|  0.35040
USER: genes 7 Torsion [CA]-CB--CG-[OD2] |==|  0.01369
USER: genes 8 Torsion [C]-CA--N-[C] |==|  0.75663
USER: genes 9 Torsion [C]-CA--CB-[CG] |==|  0.08918
USER: genes 10 Torsion [CA]-CB--CG-[CD1] |==|  0.28414
USER: genes 11 Torsion [N]-CA--C-[N] |==|  0.17551
USER: genes 12 Torsion [C]-N--CA-[CB] |==|  0.21862
USER: genes 13 Torsion [N]-CA--CB-[CG2] |==|  0.39182
USER: genes 14 Torsion [CA]-CB--OG1-[HG1] |==|  0.86388
USER: genes 15 Torsion [N]-CA--C-[N] |==|  0.35394
USER: genes 16 Torsion [C]-N--CA-[CB] |==|  0.16667
USER: genes 17 Torsion [N]-CA--CB-[OG] |==|  0.12020
USER: genes 18 Torsion [CA]-CB--OG-[HG] |==|  0.00716
USER: genes 19 Torsion [N]-CA--C-[N] |==|  0.47378
USER: genes 20 Torsion [C]-N--CA-[CB] |==|  0.32889
USER: genes 21 Torsion [N]-CA--C-[OXT] |==|  0.83115
USER: genes 22 Torsion [N]-CA--CB-[CG2] |==|  0.48737
USER: genes 23 Torsion [CA]-CB--CG1-[CD1] |==|  0.86250
USER: genes 24 Torsion [N]-CA--CB-[CG] |==|  0.01697
USER: genes 25 Torsion [CA]-CB--CG-[CD] |==|  0.63828
USER: genes 26 Torsion [CB]-CG--CD-[OE1] |==|  0.73836
ROOT
ATOM      1  CA  GLN B 366       6.543  91.778  15.430  1.00 38.37 LIG 0.18  C 
ENDROOT
BRANCH 1 2
ATOM      2  N   GLN B 366       5.332  91.132  14.952  1.00 38.60 LIG-0.35  N 
ATOM      3 H    GLN B 366       4.822  91.640  14.483  1.00 38.60 LIG 0.16  HD
ATOM      4  C   LEU B 365       5.057  89.853  15.232  1.00 41.18 LIG 0.24  C 
ATOM      5 O    LEU B 365       5.809  89.110  15.896  1.00 36.84 LIG-0.27  OA
BRANCH 4 6
ATOM      6  CA  LEU B 365       3.703  89.365  14.736  1.00 40.54 LIG 0.18  C 
BRANCH 6 7
ATOM      7  N   LEU B 365       2.642  90.156  15.345  1.00 42.84 LIG-0.35  N 
ATOM      8  C   ASP B 364       2.458  90.122  16.660  1.00 57.74 LIG 0.24  C 
ATOM      9 O    ASP B 364       3.123  89.400  17.349  1.00 57.74 LIG-0.27  OA
ATOM     10 H    LEU B 365       2.172  90.621  14.796  1.00 42.84 LIG 0.16  HD
BRANCH 8 11
ATOM     11  CA  ASP B 364       1.365  90.973  17.299  1.00 64.41 LIG 0.19  C 
BRANCH 11 12
ATOM     12  CB  ASP B 364       0.497  90.160  18.237  1.00 67.32 LIG 0.15  C 
BRANCH 12 13
ATOM     13  CG  ASP B 364       0.415  90.759  19.589  1.00 64.46 LIG 0.17  C 
ATOM     14 OD2  ASP B 364       0.969  91.874  19.766  1.00 62.61 LIG-0.65  OA
ATOM     15 OD1  ASP B 364      -0.200  90.080  20.464  1.00 62.85 LIG-0.65  OA
ENDBRANCH 12 13
ENDBRANCH 11 12
BRANCH 11 16
ATOM     16  N   ASP B 364       0.469  91.530  16.335  1.00 73.89 LIG-0.35  N 
ATOM     17  C   ACE B 363       0.655  92.668  15.721  1.00 53.98 LIG 0.21  C 
ATOM     18  CH3 ACE B 363      -0.524  92.986  14.832  1.00 56.03 LIG 0.12  C 
ATOM     19 O    ACE B 363       1.689  93.373  15.837  1.00 54.37 LIG-0.27  OA
ATOM     20 H    ASP B 364      -0.221  91.037  16.191  1.00 73.89 LIG 0.16  HD
ENDBRANCH 11 16
ENDBRANCH 8 11
ENDBRANCH 6 7
BRANCH 6 21
ATOM     21  CB  LEU B 365       3.697  89.414  13.181  1.00 44.28 LIG 0.04  C 
BRANCH 21 22
ATOM     22  CG  LEU B 365       5.011  89.166  12.449  1.00 49.51 LIG-0.02  C 
ATOM     23  CD1 LEU B 365       5.064  87.770  11.883  1.00 53.42 LIG 0.01  C 
ATOM     24  CD2 LEU B 365       5.228  90.238  11.338  1.00 51.82 LIG 0.01  C 
ENDBRANCH 21 22
ENDBRANCH 6 21
ENDBRANCH 4 6
ENDBRANCH 1 2
BRANCH 1 25
ATOM     25  C   GLN B 366       7.697  90.808  15.399  1.00 40.92 LIG 0.24  C 
ATOM     26  N   THR B 367       8.047  90.354  14.194  1.00 37.18 LIG-0.34  N 
ATOM     27 H    THR B 367       7.659  90.564  13.455  1.00 37.18 LIG 0.16  HD
ATOM     28 O    GLN B 366       8.330  90.566  16.435  1.00 43.39 LIG-0.27  OA
BRANCH 26 29
ATOM     29  CA  THR B 367       9.156  89.437  14.070  1.00 39.45 LIG 0.20  C 
BRANCH 29 30
ATOM     30  CB  THR B 367       8.741  88.012  14.454  1.00 41.55 LIG 0.15  C 
ATOM     31  CG2 THR B 367       9.408  87.044  13.517  1.00 46.47 LIG 0.04  C 
BRANCH 30 32
ATOM     32 OG1  THR B 367       9.109  87.779  15.813  1.00 42.44 LIG-0.39  OA
ATOM     33 HG1  THR B 367       9.908  88.010  15.931  1.00 42.44 LIG 0.21  HD
ENDBRANCH 30 32
ENDBRANCH 29 30
BRANCH 29 34
ATOM     34  C   THR B 367       9.631  89.465  12.643  1.00 39.06 LIG 0.24  C 
ATOM     35  N   SER B 368      10.912  89.686  12.498  1.00 40.73 LIG-0.34  N 
ATOM     36 H    SER B 368      11.442  89.874  13.149  1.00 40.73 LIG 0.16  HD
ATOM     37 O    THR B 367       8.854  89.163  11.725  1.00 38.11 LIG-0.27  OA
BRANCH 35 38
ATOM     38  CA  SER B 368      11.553  89.631  11.211  1.00 41.63 LIG 0.20  C 
BRANCH 38 39
ATOM     39  CB  SER B 368      10.927  90.661  10.280  1.00 43.79 LIG 0.20  C 
BRANCH 39 40
ATOM     40 OG   SER B 368      10.723  91.891  10.935  1.00 46.28 LIG-0.40  OA
ATOM     41 HG   SER B 368      11.019  91.843  11.720  1.00 46.28 LIG 0.21  HD
ENDBRANCH 39 40
ENDBRANCH 38 39
BRANCH 38 42
ATOM     42  C   SER B 368      13.030  89.916  11.388  1.00 44.50 LIG 0.24  C 
ATOM     43 O    SER B 368      13.434  90.373  12.446  1.00 47.26 LIG-0.27  OA
ATOM     44  N   ILE B 369      13.786  89.714  10.336  1.00 46.03 LIG-0.34  N 
ATOM     45 H    ILE B 369      13.478  89.531   9.555  1.00 46.03 LIG 0.16  HD
BRANCH 44 46
ATOM     46  CA  ILE B 369      15.257  89.786  10.402  1.00 49.82 LIG 0.19  C 
BRANCH 46 47
ATOM     47  C   ILE B 369      15.809  90.844   9.469  1.00 51.12 LIG 0.20  C 
ATOM     48 OXT  ILE B 369      15.601  90.740   8.275  1.00 48.45 LIG-0.65  OA
ATOM     49 O    ILE B 369      16.468  91.827   9.850  1.00 56.65 LIG-0.65  OA
ENDBRANCH 46 47
BRANCH 46 50
ATOM     50  CB  ILE B 369      15.840  88.451  10.034  1.00 51.86 LIG 0.01  C 
ATOM     51  CG2 ILE B 369      17.423  88.471   9.967  1.00 50.67 LIG 0.01  C 
BRANCH 50 52
ATOM     52  CG1 ILE B 369      15.393  87.372  10.987  1.00 48.80 LIG 0.00  C 
ATOM     53  CD1 ILE B 369      15.611  87.846  12.302  1.00 47.56 LIG 0.01  C 
ENDBRANCH 50 52
ENDBRANCH 46 50
ENDBRANCH 44 46
ENDBRANCH 38 42
ENDBRANCH 35 38
ENDBRANCH 29 34
ENDBRANCH 26 29
ENDBRANCH 1 25
BRANCH 1 54
ATOM     54  CB  GLN B 366       6.407  92.261  16.884  1.00 39.69 LIG 0.04  C 
BRANCH 54 55
ATOM     55  CG  GLN B 366       5.133  91.821  17.484  1.00 41.05 LIG 0.10  C 
BRANCH 55 56
ATOM     56  CD  GLN B 366       4.366  92.938  18.157  1.00 41.66 LIG 0.21  C 
ATOM     57 OE1  GLN B 366       4.488  93.153  19.373  1.00 35.58 LIG-0.27  OA
ATOM     58  NE2 GLN B 366       3.605  93.689  17.342  1.00 36.50 LIG-0.37  N 
ATOM     59 22HE GLN B 366       3.169  94.360  17.658  1.00 36.50 LIG 0.16  HD
ATOM     60 21HE GLN B 366       3.554  93.498  16.504  1.00 36.50 LIG 0.16  HD
ENDBRANCH 55 56
ENDBRANCH 54 55
ENDBRANCH 1 54
TORSDOF 25
ENDMDL
MODEL 12
USER: ADFR SOLUTION from run 151
USER: SCORE 16.990850 LL:  -4.650 LR: -15.769 RR:   0.000 FEB:  -8.312
USER: RMSD 12.887127
USER: SEED 150
USER: STATUS no improvement in best in 7 clusters for 5 generations
USER: GENES 27
USER: genes 0 Translation |==|  0.27729 0.69379 0.73036
USER: genes 1 Rotation |==|  0.51881 0.96853 0.65514 0.57786
USER: genes 2 Torsion [CB]-CA--N-[C] |==|  0.29868
USER: genes 3 Torsion [N]-C--CA-[N] |==|  0.17422
USER: genes 4 Torsion [C]-CA--N-[C] |==|  0.12801
USER: genes 5 Torsion [N]-C--CA-[N] |==|  0.99661
USER: genes 6 Torsion [C]-CA--CB-[CG] |==|  0.83338
USER: genes 7 Torsion [CA]-CB--CG-[OD2] |==|  0.97426
USER: genes 8 Torsion [C]-CA--N-[C] |==|  0.76112
USER: genes 9 Torsion [C]-CA--CB-[CG] |==|  0.31010
USER: genes 10 Torsion [CA]-CB--CG-[CD1] |==|  0.50365
USER: genes 11 Torsion [N]-CA--C-[N] |==|  0.01500
USER: genes 12 Torsion [C]-N--CA-[CB] |==|  0.17525
USER: genes 13 Torsion [N]-CA--CB-[CG2] |==|  0.19100
USER: genes 14 Torsion [CA]-CB--OG1-[HG1] |==|  0.06376
USER: genes 15 Torsion [N]-CA--C-[N] |==|  0.44870
USER: genes 16 Torsion [C]-N--CA-[CB] |==|  0.18397
USER: genes 17 Torsion [N]-CA--CB-[OG] |==|  0.74165
USER: genes 18 Torsion [CA]-CB--OG-[HG] |==|  0.05787
USER: genes 19 Torsion [N]-CA--C-[N] |==|  0.95911
USER: genes 20 Torsion [C]-N--CA-[CB] |==|  0.82699
USER: genes 21 Torsion [N]-CA--C-[OXT] |==|  0.94562
USER: genes 22 Torsion [N]-CA--CB-[CG2] |==|  0.42797
USER: genes 23 Torsion [CA]-CB--CG1-[CD1] |==|  0.69687
USER: genes 24 Torsion [N]-CA--CB-[CG] |==|  0.17565
USER: genes 25 Torsion [CA]-CB--CG-[CD] |==|  0.34339
USER: genes 26 Torsion [CB]-CG--CD-[OE1] |==|  0.83594
ROOT
ATOM      1  CA  GLN B 366       4.863  92.596  17.849  1.00 38.37 LIG 0.18  C 
ENDROOT
BRANCH 1 2
ATOM      2  N   GLN B 366       3.759  91.954  17.156  1.00 38.60 LIG-0.35  N 
ATOM      3 H    GLN B 366       3.892  91.124  16.971  1.00 38.60 LIG 0.16  HD
ATOM      4  C   LEU B 365       2.642  92.618  16.841  1.00 41.18 LIG 0.24  C 
ATOM      5 O    LEU B 365       2.441  93.816  17.128  1.00 36.84 LIG-0.27  OA
BRANCH 4 6
ATOM      6  CA  LEU B 365       1.628  91.821  16.031  1.00 40.54 LIG 0.18  C 
BRANCH 6 7
ATOM      7  N   LEU B 365       1.165  90.679  16.809  1.00 42.84 LIG-0.35  N 
ATOM      8  C   ASP B 364       0.814  90.838  18.079  1.00 57.74 LIG 0.24  C 
ATOM      9 O    ASP B 364       0.929  91.906  18.613  1.00 57.74 LIG-0.27  OA
ATOM     10 H    LEU B 365       1.144  89.932  16.384  1.00 42.84 LIG 0.16  HD
BRANCH 8 11
ATOM     11  CA  ASP B 364       0.303  89.647  18.884  1.00 64.41 LIG 0.19  C 
BRANCH 11 12
ATOM     12  CB  ASP B 364       1.210  89.328  20.054  1.00 67.32 LIG 0.15  C 
BRANCH 12 13
ATOM     13  CG  ASP B 364       2.587  88.994  19.625  1.00 64.46 LIG 0.17  C 
ATOM     14 OD2  ASP B 364       2.791  88.837  18.393  1.00 62.61 LIG-0.65  OA
ATOM     15 OD1  ASP B 364       3.448  88.878  20.547  1.00 62.85 LIG-0.65  OA
ENDBRANCH 12 13
ENDBRANCH 11 12
BRANCH 11 16
ATOM     16  N   ASP B 364       0.241  88.447  18.109  1.00 73.89 LIG-0.35  N 
ATOM     17  C   ACE B 363      -0.772  88.100  17.361  1.00 53.98 LIG 0.21  C 
ATOM     18  CH3 ACE B 363      -0.533  86.740  16.750  1.00 56.03 LIG 0.12  C 
ATOM     19 O    ACE B 363      -1.782  88.820  17.159  1.00 54.37 LIG-0.27  OA
ATOM     20 H    ASP B 364       0.947  87.962  18.182  1.00 73.89 LIG 0.16  HD
ENDBRANCH 11 16
ENDBRANCH 8 11
ENDBRANCH 6 7
BRANCH 6 21
ATOM     21  CB  LEU B 365       0.482  92.777  15.592  1.00 44.28 LIG 0.04  C 
BRANCH 21 22
ATOM     22  CG  LEU B 365       0.352  93.113  14.111  1.00 49.51 LIG-0.02  C 
ATOM     23  CD1 LEU B 365      -0.785  94.072  13.867  1.00 53.42 LIG 0.01  C 
ATOM     24  CD2 LEU B 365       1.698  93.673  13.558  1.00 51.82 LIG 0.01  C 
ENDBRANCH 21 22
ENDBRANCH 6 21
ENDBRANCH 4 6
ENDBRANCH 1 2
BRANCH 1 25
ATOM     25  C   GLN B 366       6.169  92.251  17.179  1.00 40.92 LIG 0.24  C 
ATOM     26  N   THR B 367       6.078  91.546  16.050  1.00 37.18 LIG-0.34  N 
ATOM     27 H    THR B 367       5.343  91.272  15.697  1.00 37.18 LIG 0.16  HD
ATOM     28 O    GLN B 366       7.231  92.714  17.616  1.00 43.39 LIG-0.27  OA
BRANCH 26 29
ATOM     29  CA  THR B 367       7.280  91.190  15.331  1.00 39.45 LIG 0.20  C 
BRANCH 29 30
ATOM     30  CB  THR B 367       8.177  90.275  16.172  1.00 41.55 LIG 0.15  C 
ATOM     31  CG2 THR B 367       7.503  88.940  16.322  1.00 46.47 LIG 0.04  C 
BRANCH 30 32
ATOM     32 OG1  THR B 367       9.446  90.163  15.529  1.00 42.44 LIG-0.39  OA
ATOM     33 HG1  THR B 367       9.566  90.826  15.027  1.00 42.44 LIG 0.21  HD
ENDBRANCH 30 32
ENDBRANCH 29 30
BRANCH 29 34
ATOM     34  C   THR B 367       6.876  90.487  14.063  1.00 39.06 LIG 0.24  C 
ATOM     35  N   SER B 368       7.806  90.443  13.144  1.00 40.73 LIG-0.34  N 
ATOM     36 H    SER B 368       8.566  90.842  13.213  1.00 40.73 LIG 0.16  HD
ATOM     37 O    THR B 367       5.787  89.898  14.000  1.00 38.11 LIG-0.27  OA
BRANCH 35 38
ATOM     38  CA  SER B 368       7.631  89.710  11.918  1.00 41.63 LIG 0.20  C 
BRANCH 38 39
ATOM     39  CB  SER B 368       6.531  90.357  11.086  1.00 43.79 LIG 0.20  C 
BRANCH 39 40
ATOM     40 OG   SER B 368       5.278  89.765  11.338  1.00 46.28 LIG-0.40  OA
ATOM     41 HG   SER B 368       5.297  89.374  12.081  1.00 46.28 LIG 0.21  HD
ENDBRANCH 39 40
ENDBRANCH 38 39
BRANCH 38 42
ATOM     42  C   SER B 368       8.938  89.718  11.153  1.00 44.50 LIG 0.24  C 
ATOM     43 O    SER B 368       9.125  88.895  10.270  1.00 47.26 LIG-0.27  OA
ATOM     44  N   ILE B 369       9.835  90.588  11.552  1.00 46.03 LIG-0.34  N 
ATOM     45 H    ILE B 369       9.753  91.064  12.263  1.00 46.03 LIG 0.16  HD
BRANCH 44 46
ATOM     46  CA  ILE B 369      11.082  90.828  10.804  1.00 49.82 LIG 0.19  C 
BRANCH 46 47
ATOM     47  C   ILE B 369      10.805  91.283   9.385  1.00 51.12 LIG 0.20  C 
ATOM     48 OXT  ILE B 369       9.711  91.062   8.902  1.00 48.45 LIG-0.65  OA
ATOM     49 O    ILE B 369      11.634  91.877   8.675  1.00 56.65 LIG-0.65  OA
ENDBRANCH 46 47
BRANCH 46 50
ATOM     50  CB  ILE B 369      11.896  89.567  10.768  1.00 51.86 LIG 0.01  C 
ATOM     51  CG2 ILE B 369      12.863  89.497   9.516  1.00 50.67 LIG 0.01  C 
BRANCH 50 52
ATOM     52  CG1 ILE B 369      12.700  89.393  12.032  1.00 48.80 LIG 0.00  C 
ATOM     53  CD1 ILE B 369      14.060  89.604  11.706  1.00 47.56 LIG 0.01  C 
ENDBRANCH 50 52
ENDBRANCH 46 50
ENDBRANCH 44 46
ENDBRANCH 38 42
ENDBRANCH 35 38
ENDBRANCH 29 34
ENDBRANCH 26 29
ENDBRANCH 1 25
BRANCH 1 54
ATOM     54  CB  GLN B 366       4.978  92.131  19.311  1.00 39.69 LIG 0.04  C 
BRANCH 54 55
ATOM     55  CG  GLN B 366       5.276  90.689  19.399  1.00 41.05 LIG 0.10  C 
BRANCH 55 56
ATOM     56  CD  GLN B 366       6.530  90.379  20.187  1.00 41.66 LIG 0.21  C 
ATOM     57 OE1  GLN B 366       7.629  90.838  19.843  1.00 35.58 LIG-0.27  OA
ATOM     58  NE2 GLN B 366       6.348  89.629  21.289  1.00 36.50 LIG-0.37  N 
ATOM     59 22HE GLN B 366       7.017  89.444  21.798  1.00 36.50 LIG 0.16  HD
ATOM     60 21HE GLN B 366       5.564  89.334  21.484  1.00 36.50 LIG 0.16  HD
ENDBRANCH 55 56
ENDBRANCH 54 55
ENDBRANCH 1 54
TORSDOF 25
ENDMDL
MODEL 13
USER: ADFR SOLUTION from run 88
USER: SCORE 16.248898 LL:  -3.424 LR: -15.743 RR:   0.000 FEB:  -8.286
USER: RMSD 5.835616
USER: SEED 87
USER: STATUS no improvement in best in 4 clusters for 5 generations
USER: GENES 27
USER: genes 0 Translation |==|  0.63761 0.42439 0.43955
USER: genes 1 Rotation |==|  0.04451 0.56128 0.61223 0.66180
USER: genes 2 Torsion [CB]-CA--N-[C] |==|  0.24349
USER: genes 3 Torsion [N]-C--CA-[N] |==|  0.44036
USER: genes 4 Torsion [C]-CA--N-[C] |==|  0.65854
USER: genes 5 Torsion [N]-C--CA-[N] |==|  0.34475
USER: genes 6 Torsion [C]-CA--CB-[CG] |==|  0.40818
USER: genes 7 Torsion [CA]-CB--CG-[OD2] |==|  0.72711
USER: genes 8 Torsion [C]-CA--N-[C] |==|  0.80038
USER: genes 9 Torsion [C]-CA--CB-[CG] |==|  0.29865
USER: genes 10 Torsion [CA]-CB--CG-[CD1] |==|  0.28436
USER: genes 11 Torsion [N]-CA--C-[N] |==|  0.46488
USER: genes 12 Torsion [C]-N--CA-[CB] |==|  0.24444
USER: genes 13 Torsion [N]-CA--CB-[CG2] |==|  0.07149
USER: genes 14 Torsion [CA]-CB--OG1-[HG1] |==|  0.11570
USER: genes 15 Torsion [N]-CA--C-[N] |==|  0.40636
USER: genes 16 Torsion [C]-N--CA-[CB] |==|  0.15955
USER: genes 17 Torsion [N]-CA--CB-[OG] |==|  0.11917
USER: genes 18 Torsion [CA]-CB--OG-[HG] |==|  0.97287
USER: genes 19 Torsion [N]-CA--C-[N] |==|  0.70450
USER: genes 20 Torsion [C]-N--CA-[CB] |==|  0.88458
USER: genes 21 Torsion [N]-CA--C-[OXT] |==|  0.90974
USER: genes 22 Torsion [N]-CA--CB-[CG2] |==|  0.31801
USER: genes 23 Torsion [CA]-CB--CG1-[CD1] |==|  0.85274
USER: genes 24 Torsion [N]-CA--CB-[CG] |==|  0.11239
USER: genes 25 Torsion [CA]-CB--CG-[CD] |==|  0.50188
USER: genes 26 Torsion [CB]-CG--CD-[OE1] |==|  0.43682
ROOT
ATOM      1  CA  GLN B 366      14.862  87.949  11.524  1.00 38.37 LIG 0.18  C 
ENDROOT
BRANCH 1 2
ATOM      2  N   GLN B 366      16.233  88.424  11.584  1.00 38.60 LIG-0.35  N 
ATOM      3 H    GLN B 366      16.364  89.058  12.151  1.00 38.60 LIG 0.16  HD
ATOM      4  C   LEU B 365      17.195  87.905  10.813  1.00 41.18 LIG 0.24  C 
ATOM      5 O    LEU B 365      17.009  86.971  10.006  1.00 36.84 LIG-0.27  OA
BRANCH 4 6
ATOM      6  CA  LEU B 365      18.552  88.585  10.934  1.00 40.54 LIG 0.18  C 
BRANCH 6 7
ATOM      7  N   LEU B 365      19.599  87.677  10.483  1.00 42.84 LIG-0.35  N 
ATOM      8  C   ASP B 364      20.598  87.358  11.297  1.00 57.74 LIG 0.24  C 
ATOM      9 O    ASP B 364      20.680  87.857  12.385  1.00 57.74 LIG-0.27  OA
ATOM     10 H    LEU B 365      19.508  87.385   9.680  1.00 42.84 LIG 0.16  HD
BRANCH 8 11
ATOM     11  CA  ASP B 364      21.678  86.385  10.834  1.00 64.41 LIG 0.19  C 
BRANCH 11 12
ATOM     12  CB  ASP B 364      21.703  85.129  11.679  1.00 67.32 LIG 0.15  C 
BRANCH 12 13
ATOM     13  CG  ASP B 364      22.091  83.932  10.899  1.00 64.46 LIG 0.17  C 
ATOM     14 OD2  ASP B 364      21.168  83.187  10.480  1.00 62.61 LIG-0.65  OA
ATOM     15 OD1  ASP B 364      23.334  83.752  10.732  1.00 62.85 LIG-0.65  OA
ENDBRANCH 12 13
ENDBRANCH 11 12
BRANCH 11 16
ATOM     16  N   ASP B 364      22.993  86.938  10.930  1.00 73.89 LIG-0.35  N 
ATOM     17  C   ACE B 363      23.463  87.872  10.148  1.00 53.98 LIG 0.21  C 
ATOM     18  CH3 ACE B 363      24.907  88.160  10.481  1.00 56.03 LIG 0.12  C 
ATOM     19 O    ACE B 363      22.788  88.463   9.267  1.00 54.37 LIG-0.27  OA
ATOM     20 H    ASP B 364      23.457  86.593  11.566  1.00 73.89 LIG 0.16  HD
ENDBRANCH 11 16
ENDBRANCH 8 11
ENDBRANCH 6 7
BRANCH 6 21
ATOM     21  CB  LEU B 365      18.508  89.922  10.140  1.00 44.28 LIG 0.04  C 
BRANCH 21 22
ATOM     22  CG  LEU B 365      18.472  91.226  10.928  1.00 49.51 LIG-0.02  C 
ATOM     23  CD1 LEU B 365      19.825  91.890  10.947  1.00 53.42 LIG 0.01  C 
ATOM     24  CD2 LEU B 365      17.379  92.180  10.356  1.00 51.82 LIG 0.01  C 
ENDBRANCH 21 22
ENDBRANCH 6 21
ENDBRANCH 4 6
ENDBRANCH 1 2
BRANCH 1 25
ATOM     25  C   GLN B 366      13.914  89.042  11.949  1.00 40.92 LIG 0.24  C 
ATOM     26  N   THR B 367      12.622  88.827  11.692  1.00 37.18 LIG-0.34  N 
ATOM     27 H    THR B 367      12.306  88.130  11.300  1.00 37.18 LIG 0.16  HD
ATOM     28 O    GLN B 366      14.333  90.008  12.600  1.00 43.39 LIG-0.27  OA
BRANCH 26 29
ATOM     29  CA  THR B 367      11.642  89.813  12.085  1.00 39.45 LIG 0.20  C 
BRANCH 29 30
ATOM     30  CB  THR B 367      11.448  90.866  10.988  1.00 41.55 LIG 0.15  C 
ATOM     31  CG2 THR B 367      11.808  90.257   9.662  1.00 46.47 LIG 0.04  C 
BRANCH 30 32
ATOM     32 OG1  THR B 367      10.092  91.313  11.019  1.00 42.44 LIG-0.39  OA
ATOM     33 HG1  THR B 367       9.848  91.413  11.816  1.00 42.44 LIG 0.21  HD
ENDBRANCH 30 32
ENDBRANCH 29 30
BRANCH 29 34
ATOM     34  C   THR B 367      10.342  89.102  12.349  1.00 39.06 LIG 0.24  C 
ATOM     35  N   SER B 368       9.617  89.628  13.303  1.00 40.73 LIG-0.34  N 
ATOM     36 H    SER B 368       9.878  90.281  13.798  1.00 40.73 LIG 0.16  HD
ATOM     37 O    THR B 367       9.976  88.182  11.603  1.00 38.11 LIG-0.27  OA
BRANCH 35 38
ATOM     38  CA  SER B 368       8.295  89.146  13.608  1.00 41.63 LIG 0.20  C 
BRANCH 38 39
ATOM     39  CB  SER B 368       8.354  87.662  13.945  1.00 43.79 LIG 0.20  C 
BRANCH 39 40
ATOM     40 OG   SER B 368       9.449  87.366  14.779  1.00 46.28 LIG-0.40  OA
ATOM     41 HG   SER B 368       9.950  88.037  14.834  1.00 46.28 LIG 0.21  HD
ENDBRANCH 39 40
ENDBRANCH 38 39
BRANCH 38 42
ATOM     42  C   SER B 368       7.750  89.928  14.785  1.00 44.50 LIG 0.24  C 
ATOM     43 O    SER B 368       7.451  91.104  14.642  1.00 47.26 LIG-0.27  OA
ATOM     44  N   ILE B 369       7.701  89.289  15.928  1.00 46.03 LIG-0.34  N 
ATOM     45 H    ILE B 369       8.045  88.511  16.055  1.00 46.03 LIG 0.16  HD
BRANCH 44 46
ATOM     46  CA  ILE B 369       7.042  89.858  17.118  1.00 49.82 LIG 0.19  C 
BRANCH 46 47
ATOM     47  C   ILE B 369       5.538  89.695  17.057  1.00 51.12 LIG 0.20  C 
ATOM     48 OXT  ILE B 369       4.989  89.725  15.971  1.00 48.45 LIG-0.65  OA
ATOM     49 O    ILE B 369       4.818  89.527  18.056  1.00 56.65 LIG-0.65  OA
ENDBRANCH 46 47
BRANCH 46 50
ATOM     50  CB  ILE B 369       7.377  91.318  17.225  1.00 51.86 LIG 0.01  C 
ATOM     51  CG2 ILE B 369       6.111  92.252  17.038  1.00 50.67 LIG 0.01  C 
BRANCH 50 52
ATOM     52  CG1 ILE B 369       8.043  91.636  18.540  1.00 48.80 LIG 0.00  C 
ATOM     53  CD1 ILE B 369       7.215  91.135  19.572  1.00 47.56 LIG 0.01  C 
ENDBRANCH 50 52
ENDBRANCH 46 50
ENDBRANCH 44 46
ENDBRANCH 38 42
ENDBRANCH 35 38
ENDBRANCH 29 34
ENDBRANCH 26 29
ENDBRANCH 1 25
BRANCH 1 54
ATOM     54  CB  GLN B 366      14.619  86.759  12.468  1.00 39.69 LIG 0.04  C 
BRANCH 54 55
ATOM     55  CG  GLN B 366      15.307  86.943  13.760  1.00 41.05 LIG 0.10  C 
BRANCH 55 56
ATOM     56  CD  GLN B 366      15.111  85.789  14.718  1.00 41.66 LIG 0.21  C 
ATOM     57 OE1  GLN B 366      15.918  85.578  15.636  1.00 35.58 LIG-0.27  OA
ATOM     58  NE2 GLN B 366      13.994  85.064  14.529  1.00 36.50 LIG-0.37  N 
ATOM     59 22HE GLN B 366      13.808  84.414  15.060  1.00 36.50 LIG 0.16  HD
ATOM     60 21HE GLN B 366      13.466  85.251  13.875  1.00 36.50 LIG 0.16  HD
ENDBRANCH 55 56
ENDBRANCH 54 55
ENDBRANCH 1 54
TORSDOF 25
ENDMDL
MODEL 14
USER: ADFR SOLUTION from run 53
USER: SCORE 18.134471 LL:  -5.940 LR: -15.728 RR:   0.000 FEB:  -8.270
USER: RMSD 11.646252
USER: SEED 52
USER: STATUS no improvement in best in 3 clusters for 5 generations
USER: GENES 27
USER: genes 0 Translation |==|  0.33775 0.65420 0.66499
USER: genes 1 Rotation |==|  0.29243 0.08577 0.37875 0.64363
USER: genes 2 Torsion [CB]-CA--N-[C] |==|  0.16152
USER: genes 3 Torsion [N]-C--CA-[N] |==|  0.05556
USER: genes 4 Torsion [C]-CA--N-[C] |==|  0.49448
USER: genes 5 Torsion [N]-C--CA-[N] |==|  0.88535
USER: genes 6 Torsion [C]-CA--CB-[CG] |==|  0.90920
USER: genes 7 Torsion [CA]-CB--CG-[OD2] |==|  0.80561
USER: genes 8 Torsion [C]-CA--N-[C] |==|  0.85340
USER: genes 9 Torsion [C]-CA--CB-[CG] |==|  0.78338
USER: genes 10 Torsion [CA]-CB--CG-[CD1] |==|  0.26865
USER: genes 11 Torsion [N]-CA--C-[N] |==|  0.92554
USER: genes 12 Torsion [C]-N--CA-[CB] |==|  0.79221
USER: genes 13 Torsion [N]-CA--CB-[CG2] |==|  0.60409
USER: genes 14 Torsion [CA]-CB--OG1-[HG1] |==|  0.14313
USER: genes 15 Torsion [N]-CA--C-[N] |==|  0.18255
USER: genes 16 Torsion [C]-N--CA-[CB] |==|  0.21362
USER: genes 17 Torsion [N]-CA--CB-[OG] |==|  0.82888
USER: genes 18 Torsion [CA]-CB--OG-[HG] |==|  0.34152
USER: genes 19 Torsion [N]-CA--C-[N] |==|  0.92793
USER: genes 20 Torsion [C]-N--CA-[CB] |==|  0.31242
USER: genes 21 Torsion [N]-CA--C-[OXT] |==|  0.51236
USER: genes 22 Torsion [N]-CA--CB-[CG2] |==|  0.54309
USER: genes 23 Torsion [CA]-CB--CG1-[CD1] |==|  0.71808
USER: genes 24 Torsion [N]-CA--CB-[CG] |==|  0.25829
USER: genes 25 Torsion [CA]-CB--CG-[CD] |==|  0.80551
USER: genes 26 Torsion [CB]-CG--CD-[OE1] |==|  0.42977
ROOT
ATOM      1  CA  GLN B 366       6.540  91.913  16.428  1.00 38.37 LIG 0.18  C 
ENDROOT
BRANCH 1 2
ATOM      2  N   GLN B 366       5.296  91.928  17.178  1.00 38.60 LIG-0.35  N 
ATOM      3 H    GLN B 366       4.608  91.679  16.725  1.00 38.60 LIG 0.16  HD
ATOM      4  C   LEU B 365       5.250  92.299  18.461  1.00 41.18 LIG 0.24  C 
ATOM      5 O    LEU B 365       6.252  92.638  19.123  1.00 36.84 LIG-0.27  OA
BRANCH 4 6
ATOM      6  CA  LEU B 365       3.853  92.349  19.065  1.00 40.54 LIG 0.18  C 
BRANCH 6 7
ATOM      7  N   LEU B 365       2.942  91.541  18.265  1.00 42.84 LIG-0.35  N 
ATOM      8  C   ASP B 364       1.673  91.409  18.631  1.00 57.74 LIG 0.24  C 
ATOM      9 O    ASP B 364       1.280  91.902  19.652  1.00 57.74 LIG-0.27  OA
ATOM     10 H    LEU B 365       3.291  91.179  17.568  1.00 42.84 LIG 0.16  HD
BRANCH 8 11
ATOM     11  CA  ASP B 364       0.714  90.586  17.777  1.00 64.41 LIG 0.19  C 
BRANCH 11 12
ATOM     12  CB  ASP B 364       0.913  89.100  17.981  1.00 67.32 LIG 0.15  C 
BRANCH 12 13
ATOM     13  CG  ASP B 364       2.324  88.753  18.266  1.00 64.46 LIG 0.17  C 
ATOM     14 OD2  ASP B 364       3.152  88.869  17.327  1.00 62.61 LIG-0.65  OA
ATOM     15 OD1  ASP B 364       2.574  88.351  19.441  1.00 62.85 LIG-0.65  OA
ENDBRANCH 12 13
ENDBRANCH 11 12
BRANCH 11 16
ATOM     16  N   ASP B 364       0.898  90.809  16.376  1.00 73.89 LIG-0.35  N 
ATOM     17  C   ACE B 363       0.900  91.984  15.807  1.00 53.98 LIG 0.21  C 
ATOM     18  CH3 ACE B 363       1.041  91.843  14.310  1.00 56.03 LIG 0.12  C 
ATOM     19 O    ACE B 363       0.829  93.073  16.431  1.00 54.37 LIG-0.27  OA
ATOM     20 H    ASP B 364       1.009  90.081  15.932  1.00 73.89 LIG 0.16  HD
ENDBRANCH 11 16
ENDBRANCH 8 11
ENDBRANCH 6 7
BRANCH 6 21
ATOM     21  CB  LEU B 365       3.939  91.896  20.551  1.00 44.28 LIG 0.04  C 
BRANCH 21 22
ATOM     22  CG  LEU B 365       4.051  90.404  20.843  1.00 49.51 LIG-0.02  C 
ATOM     23  CD1 LEU B 365       5.486  89.997  21.057  1.00 53.42 LIG 0.01  C 
ATOM     24  CD2 LEU B 365       3.162  90.018  22.065  1.00 51.82 LIG 0.01  C 
ENDBRANCH 21 22
ENDBRANCH 6 21
ENDBRANCH 4 6
ENDBRANCH 1 2
BRANCH 1 25
ATOM     25  C   GLN B 366       6.303  91.383  15.036  1.00 40.92 LIG 0.24  C 
ATOM     26  N   THR B 367       5.271  90.548  14.897  1.00 37.18 LIG-0.34  N 
ATOM     27 H    THR B 367       4.755  90.291  15.536  1.00 37.18 LIG 0.16  HD
ATOM     28 O    GLN B 366       6.971  91.812  14.087  1.00 43.39 LIG-0.27  OA
BRANCH 26 29
ATOM     29  CA  THR B 367       4.959  90.009  13.594  1.00 39.45 LIG 0.20  C 
BRANCH 29 30
ATOM     30  CB  THR B 367       4.292  91.065  12.705  1.00 41.55 LIG 0.15  C 
ATOM     31  CG2 THR B 367       3.231  90.399  11.873  1.00 46.47 LIG 0.04  C 
BRANCH 30 32
ATOM     32 OG1  THR B 367       3.750  92.088  13.540  1.00 42.44 LIG-0.39  OA
ATOM     33 HG1  THR B 367       4.342  92.361  14.069  1.00 42.44 LIG 0.21  HD
ENDBRANCH 30 32
ENDBRANCH 29 30
BRANCH 29 34
ATOM     34  C   THR B 367       6.241  89.542  12.960  1.00 39.06 LIG 0.24  C 
ATOM     35  N   SER B 368       6.814  88.534  13.567  1.00 40.73 LIG-0.34  N 
ATOM     36 H    SER B 368       6.534  88.200  14.309  1.00 40.73 LIG 0.16  HD
ATOM     37 O    THR B 367       6.608  90.021  11.877  1.00 38.11 LIG-0.27  OA
BRANCH 35 38
ATOM     38  CA  SER B 368       7.983  87.888  13.031  1.00 41.63 LIG 0.20  C 
BRANCH 38 39
ATOM     39  CB  SER B 368       9.212  88.749  13.294  1.00 43.79 LIG 0.20  C 
BRANCH 39 40
ATOM     40 OG   SER B 368       9.108  90.003  12.662  1.00 46.28 LIG-0.40  OA
ATOM     41 HG   SER B 368       9.182  90.613  13.235  1.00 46.28 LIG 0.21  HD
ENDBRANCH 39 40
ENDBRANCH 38 39
BRANCH 38 42
ATOM     42  C   SER B 368       8.142  86.536  13.695  1.00 44.50 LIG 0.24  C 
ATOM     43 O    SER B 368       8.671  85.621  13.082  1.00 47.26 LIG-0.27  OA
ATOM     44  N   ILE B 369       7.618  86.416  14.891  1.00 46.03 LIG-0.34  N 
ATOM     45 H    ILE B 369       7.124  87.016  15.257  1.00 46.03 LIG 0.16  HD
BRANCH 44 46
ATOM     46  CA  ILE B 369       7.837  85.221  15.727  1.00 49.82 LIG 0.19  C 
BRANCH 46 47
ATOM     47  C   ILE B 369       6.529  84.619  16.197  1.00 51.12 LIG 0.20  C 
ATOM     48 OXT  ILE B 369       6.561  83.675  16.964  1.00 48.45 LIG-0.65  OA
ATOM     49 O    ILE B 369       5.411  85.035  15.849  1.00 56.65 LIG-0.65  OA
ENDBRANCH 46 47
BRANCH 46 50
ATOM     50  CB  ILE B 369       8.668  85.591  16.921  1.00 51.86 LIG 0.01  C 
ATOM     51  CG2 ILE B 369       9.278  84.328  17.658  1.00 50.67 LIG 0.01  C 
BRANCH 50 52
ATOM     52  CG1 ILE B 369       9.781  86.538  16.548  1.00 48.80 LIG 0.00  C 
ATOM     53  CD1 ILE B 369      10.974  85.783  16.462  1.00 47.56 LIG 0.01  C 
ENDBRANCH 50 52
ENDBRANCH 46 50
ENDBRANCH 44 46
ENDBRANCH 38 42
ENDBRANCH 35 38
ENDBRANCH 29 34
ENDBRANCH 26 29
ENDBRANCH 1 25
BRANCH 1 54
ATOM     54  CB  GLN B 366       7.597  91.002  17.075  1.00 39.69 LIG 0.04  C 
BRANCH 54 55
ATOM     55  CG  GLN B 366       7.557  89.639  16.511  1.00 41.05 LIG 0.10  C 
BRANCH 55 56
ATOM     56  CD  GLN B 366       6.323  88.859  16.906  1.00 41.66 LIG 0.21  C 
ATOM     57 OE1  GLN B 366       5.898  87.935  16.196  1.00 35.58 LIG-0.27  OA
ATOM     58  NE2 GLN B 366       5.772  89.206  18.083  1.00 36.50 LIG-0.37  N 
ATOM     59 22HE GLN B 366       5.087  88.778  18.380  1.00 36.50 LIG 0.16  HD
ATOM     60 21HE GLN B 366       6.105  89.856  18.539  1.00 36.50 LIG 0.16  HD
ENDBRANCH 55 56
ENDBRANCH 54 55
ENDBRANCH 1 54
TORSDOF 25
ENDMDL
MODEL 15
USER: ADFR SOLUTION from run 111
USER: SCORE 17.226980 LL:  -4.770 LR: -15.670 RR:   0.000 FEB:  -8.212
USER: RMSD 12.138032
USER: SEED 110
USER: STATUS 1 or 2 clusters left
USER: GENES 27
USER: genes 0 Translation |==|  0.31329 0.64922 0.70326
USER: genes 1 Rotation |==|  0.34014 0.05498 0.37101 0.59882
USER: genes 2 Torsion [CB]-CA--N-[C] |==|  0.23813
USER: genes 3 Torsion [N]-C--CA-[N] |==|  0.88806
USER: genes 4 Torsion [C]-CA--N-[C] |==|  0.85688
USER: genes 5 Torsion [N]-C--CA-[N] |==|  0.53150
USER: genes 6 Torsion [C]-CA--CB-[CG] |==|  0.18233
USER: genes 7 Torsion [CA]-CB--CG-[OD2] |==|  0.19024
USER: genes 8 Torsion [C]-CA--N-[C] |==|  0.65339
USER: genes 9 Torsion [C]-CA--CB-[CG] |==|  0.45715
USER: genes 10 Torsion [CA]-CB--CG-[CD1] |==|  0.21349
USER: genes 11 Torsion [N]-CA--C-[N] |==|  0.94045
USER: genes 12 Torsion [C]-N--CA-[CB] |==|  0.83322
USER: genes 13 Torsion [N]-CA--CB-[CG2] |==|  0.58300
USER: genes 14 Torsion [CA]-CB--OG1-[HG1] |==|  0.32600
USER: genes 15 Torsion [N]-CA--C-[N] |==|  0.52666
USER: genes 16 Torsion [C]-N--CA-[CB] |==|  0.84841
USER: genes 17 Torsion [N]-CA--CB-[OG] |==|  0.90324
USER: genes 18 Torsion [CA]-CB--OG-[HG] |==|  0.30298
USER: genes 19 Torsion [N]-CA--C-[N] |==|  0.78889
USER: genes 20 Torsion [C]-N--CA-[CB] |==|  0.34938
USER: genes 21 Torsion [N]-CA--C-[OXT] |==|  0.40281
USER: genes 22 Torsion [N]-CA--CB-[CG2] |==|  0.36025
USER: genes 23 Torsion [CA]-CB--CG1-[CD1] |==|  0.14649
USER: genes 24 Torsion [N]-CA--CB-[CG] |==|  0.87158
USER: genes 25 Torsion [CA]-CB--CG-[CD] |==|  0.30475
USER: genes 26 Torsion [CB]-CG--CD-[OE1] |==|  0.82447
ROOT
ATOM      1  CA  GLN B 366       5.862  91.827  17.260  1.00 38.37 LIG 0.18  C 
ENDROOT
BRANCH 1 2
ATOM      2  N   GLN B 366       4.486  91.648  17.690  1.00 38.60 LIG-0.35  N 
ATOM      3 H    GLN B 366       4.076  90.998  17.304  1.00 38.60 LIG 0.16  HD
ATOM      4  C   LEU B 365       3.925  92.440  18.611  1.00 41.18 LIG 0.24  C 
ATOM      5 O    LEU B 365       4.526  93.369  19.186  1.00 36.84 LIG-0.27  OA
BRANCH 4 6
ATOM      6  CA  LEU B 365       2.449  92.174  18.872  1.00 40.54 LIG 0.18  C 
BRANCH 6 7
ATOM      7  N   LEU B 365       1.767  91.903  17.613  1.00 42.84 LIG-0.35  N 
ATOM      8  C   ASP B 364       1.898  92.741  16.592  1.00 57.74 LIG 0.24  C 
ATOM      9 O    ASP B 364       2.528  93.755  16.713  1.00 57.74 LIG-0.27  OA
ATOM     10 H    LEU B 365       1.297  91.184  17.600  1.00 42.84 LIG 0.16  HD
BRANCH 8 11
ATOM     11  CA  ASP B 364       1.206  92.441  15.266  1.00 64.41 LIG 0.19  C 
BRANCH 11 12
ATOM     12  CB  ASP B 364       1.483  91.030  14.794  1.00 67.32 LIG 0.15  C 
BRANCH 12 13
ATOM     13  CG  ASP B 364       0.897  90.009  15.693  1.00 64.46 LIG 0.17  C 
ATOM     14 OD2  ASP B 364      -0.357  89.919  15.729  1.00 62.61 LIG-0.65  OA
ATOM     15 OD1  ASP B 364       1.719  89.318  16.365  1.00 62.85 LIG-0.65  OA
ENDBRANCH 12 13
ENDBRANCH 11 12
BRANCH 11 16
ATOM     16  N   ASP B 364       1.653  93.294  14.209  1.00 73.89 LIG-0.35  N 
ATOM     17  C   ACE B 363       0.869  94.034  13.472  1.00 53.98 LIG 0.21  C 
ATOM     18  CH3 ACE B 363       1.667  94.743  12.404  1.00 56.03 LIG 0.12  C 
ATOM     19 O    ACE B 363      -0.368  94.156  13.657  1.00 54.37 LIG-0.27  OA
ATOM     20 H    ASP B 364       2.506  93.275  14.100  1.00 73.89 LIG 0.16  HD
ENDBRANCH 11 16
ENDBRANCH 8 11
ENDBRANCH 6 7
BRANCH 6 21
ATOM     21  CB  LEU B 365       2.329  91.016  19.903  1.00 44.28 LIG 0.04  C 
BRANCH 21 22
ATOM     22  CG  LEU B 365       0.987  90.803  20.594  1.00 49.51 LIG-0.02  C 
ATOM     23  CD1 LEU B 365       0.004  90.121  19.677  1.00 53.42 LIG 0.01  C 
ATOM     24  CD2 LEU B 365       1.175  90.005  21.920  1.00 51.82 LIG 0.01  C 
ENDBRANCH 21 22
ENDBRANCH 6 21
ENDBRANCH 4 6
ENDBRANCH 1 2
BRANCH 1 25
ATOM     25  C   GLN B 366       6.052  91.260  15.876  1.00 40.92 LIG 0.24  C 
ATOM     26  N   THR B 367       5.155  90.350  15.489  1.00 37.18 LIG-0.34  N 
ATOM     27 H    THR B 367       4.501  90.066  15.970  1.00 37.18 LIG 0.16  HD
ATOM     28 O    GLN B 366       6.927  91.722  15.131  1.00 43.39 LIG-0.27  OA
BRANCH 26 29
ATOM     29  CA  THR B 367       5.250  89.770  14.169  1.00 39.45 LIG 0.20  C 
BRANCH 29 30
ATOM     30  CB  THR B 367       5.143  90.847  13.084  1.00 41.55 LIG 0.15  C 
ATOM     31  CG2 THR B 367       4.526  90.238  11.856  1.00 46.47 LIG 0.04  C 
BRANCH 30 32
ATOM     32 OG1  THR B 367       4.365  91.931  13.590  1.00 42.44 LIG-0.39  OA
ATOM     33 HG1  THR B 367       4.836  92.625  13.619  1.00 42.44 LIG 0.21  HD
ENDBRANCH 30 32
ENDBRANCH 29 30
BRANCH 29 34
ATOM     34  C   THR B 367       6.575  89.064  14.062  1.00 39.06 LIG 0.24  C 
ATOM     35  N   SER B 368       6.881  88.660  12.856  1.00 40.73 LIG-0.34  N 
ATOM     36 H    SER B 368       6.349  88.719  12.182  1.00 40.73 LIG 0.16  HD
ATOM     37 O    THR B 367       7.334  89.017  15.041  1.00 38.11 LIG-0.27  OA
BRANCH 35 38
ATOM     38  CA  SER B 368       8.159  88.071  12.552  1.00 41.63 LIG 0.20  C 
BRANCH 38 39
ATOM     39  CB  SER B 368       9.275  89.010  12.991  1.00 43.79 LIG 0.20  C 
BRANCH 39 40
ATOM     40 OG   SER B 368       8.911  90.359  12.819  1.00 46.28 LIG-0.40  OA
ATOM     41 HG   SER B 368       8.786  90.715  13.570  1.00 46.28 LIG 0.21  HD
ENDBRANCH 39 40
ENDBRANCH 38 39
BRANCH 38 42
ATOM     42  C   SER B 368       8.273  86.748  13.280  1.00 44.50 LIG 0.24  C 
ATOM     43 O    SER B 368       8.071  85.706  12.674  1.00 47.26 LIG-0.27  OA
ATOM     44  N   ILE B 369       8.516  86.817  14.567  1.00 46.03 LIG-0.34  N 
ATOM     45 H    ILE B 369       8.515  87.551  15.014  1.00 46.03 LIG 0.16  HD
BRANCH 44 46
ATOM     46  CA  ILE B 369       8.820  85.621  15.373  1.00 49.82 LIG 0.19  C 
BRANCH 46 47
ATOM     47  C   ILE B 369       7.724  85.329  16.378  1.00 51.12 LIG 0.20  C 
ATOM     48 OXT  ILE B 369       7.461  84.170  16.638  1.00 48.45 LIG-0.65  OA
ATOM     49 O    ILE B 369       7.071  86.209  16.964  1.00 56.65 LIG-0.65  OA
ENDBRANCH 46 47
BRANCH 46 50
ATOM     50  CB  ILE B 369      10.117  85.824  16.102  1.00 51.86 LIG 0.01  C 
ATOM     51  CG2 ILE B 369      10.006  85.504  17.650  1.00 50.67 LIG 0.01  C 
BRANCH 50 52
ATOM     52  CG1 ILE B 369      11.225  84.999  15.498  1.00 48.80 LIG 0.00  C 
ATOM     53  CD1 ILE B 369      11.261  85.281  14.112  1.00 47.56 LIG 0.01  C 
ENDBRANCH 50 52
ENDBRANCH 46 50
ENDBRANCH 44 46
ENDBRANCH 38 42
ENDBRANCH 35 38
ENDBRANCH 29 34
ENDBRANCH 26 29
ENDBRANCH 1 25
BRANCH 1 54
ATOM     54  CB  GLN B 366       6.856  91.098  18.179  1.00 39.69 LIG 0.04  C 
BRANCH 54 55
ATOM     55  CG  GLN B 366       6.557  91.342  19.603  1.00 41.05 LIG 0.10  C 
BRANCH 55 56
ATOM     56  CD  GLN B 366       6.016  90.126  20.323  1.00 41.66 LIG 0.21  C 
ATOM     57 OE1  GLN B 366       4.935  89.617  19.991  1.00 35.58 LIG-0.27  OA
ATOM     58  NE2 GLN B 366       6.807  89.628  21.290  1.00 36.50 LIG-0.37  N 
ATOM     59 22HE GLN B 366       6.571  88.918  21.715  1.00 36.50 LIG 0.16  HD
ATOM     60 21HE GLN B 366       7.548  90.019  21.483  1.00 36.50 LIG 0.16  HD
ENDBRANCH 55 56
ENDBRANCH 54 55
ENDBRANCH 1 54
TORSDOF 25
ENDMDL
MODEL 16
USER: ADFR SOLUTION from run 171
USER: SCORE 16.790155 LL:  -3.847 LR: -15.605 RR:   0.000 FEB:  -8.148
USER: RMSD 13.275872
USER: SEED 170
USER: STATUS no improvement in best in 11 clusters for 5 generations
USER: GENES 27
USER: genes 0 Translation |==|  0.32262 0.63913 0.69539
USER: genes 1 Rotation |==|  0.37936 0.02803 0.38845 0.51566
USER: genes 2 Torsion [CB]-CA--N-[C] |==|  0.23333
USER: genes 3 Torsion [N]-C--CA-[N] |==|  0.29366
USER: genes 4 Torsion [C]-CA--N-[C] |==|  0.60297
USER: genes 5 Torsion [N]-C--CA-[N] |==|  0.96376
USER: genes 6 Torsion [C]-CA--CB-[CG] |==|  0.37570
USER: genes 7 Torsion [CA]-CB--CG-[OD2] |==|  0.71907
USER: genes 8 Torsion [C]-CA--N-[C] |==|  0.75034
USER: genes 9 Torsion [C]-CA--CB-[CG] |==|  0.31404
USER: genes 10 Torsion [CA]-CB--CG-[CD1] |==|  0.86091
USER: genes 11 Torsion [N]-CA--C-[N] |==|  0.76133
USER: genes 12 Torsion [C]-N--CA-[CB] |==|  0.15282
USER: genes 13 Torsion [N]-CA--CB-[CG2] |==|  0.68503
USER: genes 14 Torsion [CA]-CB--OG1-[HG1] |==|  0.68150
USER: genes 15 Torsion [N]-CA--C-[N] |==|  0.60696
USER: genes 16 Torsion [C]-N--CA-[CB] |==|  0.78144
USER: genes 17 Torsion [N]-CA--CB-[OG] |==|  0.46694
USER: genes 18 Torsion [CA]-CB--OG-[HG] |==|  0.84490
USER: genes 19 Torsion [N]-CA--C-[N] |==|  0.16825
USER: genes 20 Torsion [C]-N--CA-[CB] |==|  0.79815
USER: genes 21 Torsion [N]-CA--C-[OXT] |==|  0.19460
USER: genes 22 Torsion [N]-CA--CB-[CG2] |==|  0.55551
USER: genes 23 Torsion [CA]-CB--CG1-[CD1] |==|  0.37057
USER: genes 24 Torsion [N]-CA--CB-[CG] |==|  0.08626
USER: genes 25 Torsion [CA]-CB--CG-[CD] |==|  0.64675
USER: genes 26 Torsion [CB]-CG--CD-[OE1] |==|  0.23044
ROOT
ATOM      1  CA  GLN B 366       6.121  91.653  17.089  1.00 38.37 LIG 0.18  C 
ENDROOT
BRANCH 1 2
ATOM      2  N   GLN B 366       4.697  91.364  17.079  1.00 38.60 LIG-0.35  N 
ATOM      3 H    GLN B 366       4.488  90.629  16.685  1.00 38.60 LIG 0.16  HD
ATOM      4  C   LEU B 365       3.806  92.186  17.644  1.00 41.18 LIG 0.24  C 
ATOM      5 O    LEU B 365       4.112  93.241  18.235  1.00 36.84 LIG-0.27  OA
BRANCH 4 6
ATOM      6  CA  LEU B 365       2.350  91.780  17.458  1.00 40.54 LIG 0.18  C 
BRANCH 6 7
ATOM      7  N   LEU B 365       1.827  91.241  18.706  1.00 42.84 LIG-0.35  N 
ATOM      8  C   ASP B 364       0.976  90.222  18.686  1.00 57.74 LIG 0.24  C 
ATOM      9 O    ASP B 364       0.587  89.774  17.644  1.00 57.74 LIG-0.27  OA
ATOM     10 H    LEU B 365       2.110  91.629  19.419  1.00 42.84 LIG 0.16  HD
BRANCH 8 11
ATOM     11  CA  ASP B 364       0.451  89.640  19.995  1.00 64.41 LIG 0.19  C 
BRANCH 11 12
ATOM     12  CB  ASP B 364      -0.985  90.042  20.252  1.00 67.32 LIG 0.15  C 
BRANCH 12 13
ATOM     13  CG  ASP B 364      -1.816  88.905  20.710  1.00 64.46 LIG 0.17  C 
ATOM     14 OD2  ASP B 364      -2.565  88.353  19.863  1.00 62.61 LIG-0.65  OA
ATOM     15 OD1  ASP B 364      -1.710  88.592  21.933  1.00 62.85 LIG-0.65  OA
ENDBRANCH 12 13
ENDBRANCH 11 12
BRANCH 11 16
ATOM     16  N   ASP B 364       1.187  90.097  21.133  1.00 73.89 LIG-0.35  N 
ATOM     17  C   ACE B 363       2.242  89.502  21.621  1.00 53.98 LIG 0.21  C 
ATOM     18  CH3 ACE B 363       2.716  90.211  22.867  1.00 56.03 LIG 0.12  C 
ATOM     19 O    ACE B 363       2.795  88.501  21.099  1.00 54.37 LIG-0.27  OA
ATOM     20 H    ASP B 364       0.864  90.817  21.475  1.00 73.89 LIG 0.16  HD
ENDBRANCH 11 16
ENDBRANCH 8 11
ENDBRANCH 6 7
BRANCH 6 21
ATOM     21  CB  LEU B 365       1.555  93.010  16.933  1.00 44.28 LIG 0.04  C 
BRANCH 21 22
ATOM     22  CG  LEU B 365       0.991  92.951  15.519  1.00 49.51 LIG-0.02  C 
ATOM     23  CD1 LEU B 365       2.045  92.530  14.527  1.00 53.42 LIG 0.01  C 
ATOM     24  CD2 LEU B 365      -0.250  92.009  15.464  1.00 51.82 LIG 0.01  C 
ENDBRANCH 21 22
ENDBRANCH 6 21
ENDBRANCH 4 6
ENDBRANCH 1 2
BRANCH 1 25
ATOM     25  C   GLN B 366       6.808  90.920  15.964  1.00 40.92 LIG 0.24  C 
ATOM     26  N   THR B 367       7.184  89.667  16.227  1.00 37.18 LIG-0.34  N 
ATOM     27 H    THR B 367       7.074  89.266  16.981  1.00 37.18 LIG 0.16  HD
ATOM     28 O    GLN B 366       6.891  91.441  14.844  1.00 43.39 LIG-0.27  OA
BRANCH 26 29
ATOM     29  CA  THR B 367       7.831  88.884  15.200  1.00 39.45 LIG 0.20  C 
BRANCH 29 30
ATOM     30  CB  THR B 367       9.064  89.608  14.648  1.00 41.55 LIG 0.15  C 
ATOM     31  CG2 THR B 367       8.808  89.982  13.216  1.00 46.47 LIG 0.04  C 
BRANCH 30 32
ATOM     32 OG1  THR B 367       9.323  90.753  15.460  1.00 42.44 LIG-0.39  OA
ATOM     33 HG1  THR B 367       9.212  91.450  15.006  1.00 42.44 LIG 0.21  HD
ENDBRANCH 30 32
ENDBRANCH 29 30
BRANCH 29 34
ATOM     34  C   THR B 367       8.236  87.565  15.800  1.00 39.06 LIG 0.24  C 
ATOM     35  N   SER B 368       9.393  87.113  15.391  1.00 40.73 LIG-0.34  N 
ATOM     36 H    SER B 368       9.863  87.487  14.776  1.00 40.73 LIG 0.16  HD
ATOM     37 O    THR B 367       7.555  87.060  16.705  1.00 38.11 LIG-0.27  OA
BRANCH 35 38
ATOM     38  CA  SER B 368       9.986  85.926  15.949  1.00 41.63 LIG 0.20  C 
BRANCH 38 39
ATOM     39  CB  SER B 368      10.626  86.253  17.292  1.00 43.79 LIG 0.20  C 
BRANCH 39 40
ATOM     40 OG   SER B 368      10.978  85.084  17.993  1.00 46.28 LIG-0.40  OA
ATOM     41 HG   SER B 368      10.301  84.595  18.083  1.00 46.28 LIG 0.21  HD
ENDBRANCH 39 40
ENDBRANCH 38 39
BRANCH 38 42
ATOM     42  C   SER B 368       8.907  84.877  16.126  1.00 44.50 LIG 0.24  C 
ATOM     43 O    SER B 368       8.710  84.396  17.231  1.00 47.26 LIG-0.27  OA
ATOM     44  N   ILE B 369       8.291  84.495  15.034  1.00 46.03 LIG-0.34  N 
ATOM     45 H    ILE B 369       8.531  84.731  14.243  1.00 46.03 LIG 0.16  HD
BRANCH 44 46
ATOM     46  CA  ILE B 369       7.111  83.612  15.068  1.00 49.82 LIG 0.19  C 
BRANCH 46 47
ATOM     47  C   ILE B 369       6.083  84.088  16.073  1.00 51.12 LIG 0.20  C 
ATOM     48 OXT  ILE B 369       5.464  85.109  15.839  1.00 48.45 LIG-0.65  OA
ATOM     49 O    ILE B 369       5.826  83.495  17.134  1.00 56.65 LIG-0.65  OA
ENDBRANCH 46 47
BRANCH 46 50
ATOM     50  CB  ILE B 369       7.539  82.217  15.423  1.00 51.86 LIG 0.01  C 
ATOM     51  CG2 ILE B 369       6.473  81.123  15.003  1.00 50.67 LIG 0.01  C 
BRANCH 50 52
ATOM     52  CG1 ILE B 369       8.874  81.877  14.810  1.00 48.80 LIG 0.00  C 
ATOM     53  CD1 ILE B 369       9.668  81.280  15.818  1.00 47.56 LIG 0.01  C 
ENDBRANCH 50 52
ENDBRANCH 46 50
ENDBRANCH 44 46
ENDBRANCH 38 42
ENDBRANCH 35 38
ENDBRANCH 29 34
ENDBRANCH 26 29
ENDBRANCH 1 25
BRANCH 1 54
ATOM     54  CB  GLN B 366       6.796  91.198  18.393  1.00 39.69 LIG 0.04  C 
BRANCH 54 55
ATOM     55  CG  GLN B 366       6.131  90.010  18.962  1.00 41.05 LIG 0.10  C 
BRANCH 55 56
ATOM     56  CD  GLN B 366       5.728  90.179  20.410  1.00 41.66 LIG 0.21  C 
ATOM     57 OE1  GLN B 366       4.670  90.750  20.715  1.00 35.58 LIG-0.27  OA
ATOM     58  NE2 GLN B 366       6.562  89.628  21.310  1.00 36.50 LIG-0.37  N 
ATOM     59 22HE GLN B 366       6.373  89.662  22.149  1.00 36.50 LIG 0.16  HD
ATOM     60 21HE GLN B 366       7.285  89.243  21.047  1.00 36.50 LIG 0.16  HD
ENDBRANCH 55 56
ENDBRANCH 54 55
ENDBRANCH 1 54
TORSDOF 25
ENDMDL
MODEL 17
USER: ADFR SOLUTION from run 159
USER: SCORE 17.182888 LL:  -4.350 LR: -15.597 RR:   0.000 FEB:  -8.139
USER: RMSD 12.936875
USER: SEED 158
USER: STATUS no improvement in best in 6 clusters for 5 generations
USER: GENES 27
USER: genes 0 Translation |==|  0.32844 0.67785 0.69880
USER: genes 1 Rotation |==|  0.58353 0.98431 0.52097 0.58958
USER: genes 2 Torsion [CB]-CA--N-[C] |==|  0.78288
USER: genes 3 Torsion [N]-C--CA-[N] |==|  0.69811
USER: genes 4 Torsion [C]-CA--N-[C] |==|  0.70918
USER: genes 5 Torsion [N]-C--CA-[N] |==|  0.90655
USER: genes 6 Torsion [C]-CA--CB-[CG] |==|  0.65267
USER: genes 7 Torsion [CA]-CB--CG-[OD2] |==|  0.71282
USER: genes 8 Torsion [C]-CA--N-[C] |==|  0.86111
USER: genes 9 Torsion [C]-CA--CB-[CG] |==|  0.70694
USER: genes 10 Torsion [CA]-CB--CG-[CD1] |==|  0.24061
USER: genes 11 Torsion [N]-CA--C-[N] |==|  0.17362
USER: genes 12 Torsion [C]-N--CA-[CB] |==|  0.17411
USER: genes 13 Torsion [N]-CA--CB-[CG2] |==|  0.20838
USER: genes 14 Torsion [CA]-CB--OG1-[HG1] |==|  0.05106
USER: genes 15 Torsion [N]-CA--C-[N] |==|  0.42828
USER: genes 16 Torsion [C]-N--CA-[CB] |==|  0.22032
USER: genes 17 Torsion [N]-CA--CB-[OG] |==|  0.14612
USER: genes 18 Torsion [CA]-CB--OG-[HG] |==|  0.97279
USER: genes 19 Torsion [N]-CA--C-[N] |==|  0.98285
USER: genes 20 Torsion [C]-N--CA-[CB] |==|  0.33431
USER: genes 21 Torsion [N]-CA--C-[OXT] |==|  0.94903
USER: genes 22 Torsion [N]-CA--CB-[CG2] |==|  0.52025
USER: genes 23 Torsion [CA]-CB--CG1-[CD1] |==|  0.71610
USER: genes 24 Torsion [N]-CA--CB-[CG] |==|  0.12247
USER: genes 25 Torsion [CA]-CB--CG-[CD] |==|  0.31601
USER: genes 26 Torsion [CB]-CG--CD-[OE1] |==|  0.98980
ROOT
ATOM      1  CA  GLN B 366       6.282  92.321  17.163  1.00 38.37 LIG 0.18  C 
ENDROOT
BRANCH 1 2
ATOM      2  N   GLN B 366       4.946  91.853  16.835  1.00 38.60 LIG-0.35  N 
ATOM      3 H    GLN B 366       4.428  92.459  16.514  1.00 38.60 LIG 0.16  HD
ATOM      4  C   LEU B 365       4.577  90.582  17.026  1.00 41.18 LIG 0.24  C 
ATOM      5 O    LEU B 365       5.336  89.697  17.473  1.00 36.84 LIG-0.27  OA
BRANCH 4 6
ATOM      6  CA  LEU B 365       3.115  90.285  16.721  1.00 40.54 LIG 0.18  C 
BRANCH 6 7
ATOM      7  N   LEU B 365       2.393  90.044  17.963  1.00 42.84 LIG-0.35  N 
ATOM      8  C   ASP B 364       2.052  88.808  18.306  1.00 57.74 LIG 0.24  C 
ATOM      9 O    ASP B 364       2.284  87.887  17.573  1.00 57.74 LIG-0.27  OA
ATOM     10 H    LEU B 365       2.218  90.747  18.426  1.00 42.84 LIG 0.16  HD
BRANCH 8 11
ATOM     11  CA  ASP B 364       1.320  88.555  19.621  1.00 64.41 LIG 0.19  C 
BRANCH 11 12
ATOM     12  CB  ASP B 364      -0.175  88.738  19.476  1.00 67.32 LIG 0.15  C 
BRANCH 12 13
ATOM     13  CG  ASP B 364      -0.721  89.711  20.449  1.00 64.46 LIG 0.17  C 
ATOM     14 OD2  ASP B 364      -1.339  89.253  21.444  1.00 62.61 LIG-0.65  OA
ATOM     15 OD1  ASP B 364      -0.528  90.935  20.185  1.00 62.85 LIG-0.65  OA
ENDBRANCH 12 13
ENDBRANCH 11 12
BRANCH 11 16
ATOM     16  N   ASP B 364       1.720  89.459  20.654  1.00 73.89 LIG-0.35  N 
ATOM     17  C   ACE B 363       2.958  89.709  20.981  1.00 53.98 LIG 0.21  C 
ATOM     18  CH3 ACE B 363       3.011  90.648  22.163  1.00 56.03 LIG 0.12  C 
ATOM     19 O    ACE B 363       3.958  89.253  20.370  1.00 54.37 LIG-0.27  OA
ATOM     20 H    ASP B 364       1.054  89.832  21.050  1.00 73.89 LIG 0.16  HD
ENDBRANCH 11 16
ENDBRANCH 8 11
ENDBRANCH 6 7
BRANCH 6 21
ATOM     21  CB  LEU B 365       2.535  91.461  15.885  1.00 44.28 LIG 0.04  C 
BRANCH 21 22
ATOM     22  CG  LEU B 365       1.598  92.443  16.578  1.00 49.51 LIG-0.02  C 
ATOM     23  CD1 LEU B 365       2.368  93.548  17.254  1.00 53.42 LIG 0.01  C 
ATOM     24  CD2 LEU B 365       0.557  93.012  15.566  1.00 51.82 LIG 0.01  C 
ENDBRANCH 21 22
ENDBRANCH 6 21
ENDBRANCH 4 6
ENDBRANCH 1 2
BRANCH 1 25
ATOM     25  C   GLN B 366       7.308  91.291  16.760  1.00 40.92 LIG 0.24  C 
ATOM     26  N   THR B 367       7.378  91.015  15.456  1.00 37.18 LIG-0.34  N 
ATOM     27 H    THR B 367       6.881  91.369  14.849  1.00 37.18 LIG 0.16  HD
ATOM     28 O    GLN B 366       8.097  90.841  17.600  1.00 43.39 LIG-0.27  OA
BRANCH 26 29
ATOM     29  CA  THR B 367       8.347  90.056  14.980  1.00 39.45 LIG 0.20  C 
BRANCH 29 30
ATOM     30  CB  THR B 367       8.080  88.665  15.564  1.00 41.55 LIG 0.15  C 
ATOM     31  CG2 THR B 367       6.893  88.065  14.865  1.00 46.47 LIG 0.04  C 
BRANCH 30 32
ATOM     32 OG1  THR B 367       9.254  87.868  15.401  1.00 42.44 LIG-0.39  OA
ATOM     33 HG1  THR B 367       9.914  88.367  15.259  1.00 42.44 LIG 0.21  HD
ENDBRANCH 30 32
ENDBRANCH 29 30
BRANCH 29 34
ATOM     34  C   THR B 367       8.259  90.007  13.478  1.00 39.06 LIG 0.24  C 
ATOM     35  N   SER B 368       9.359  89.628  12.880  1.00 40.73 LIG-0.34  N 
ATOM     36 H    SER B 368      10.102  89.486  13.289  1.00 40.73 LIG 0.16  HD
ATOM     37 O    THR B 367       7.170  90.189  12.915  1.00 38.11 LIG-0.27  OA
BRANCH 35 38
ATOM     38  CA  SER B 368       9.416  89.414  11.457  1.00 41.63 LIG 0.20  C 
BRANCH 38 39
ATOM     39  CB  SER B 368       9.542  90.753  10.741  1.00 43.79 LIG 0.20  C 
BRANCH 39 40
ATOM     40 OG   SER B 368      10.612  91.512  11.252  1.00 46.28 LIG-0.40  OA
ATOM     41 HG   SER B 368      10.906  91.149  11.950  1.00 46.28 LIG 0.21  HD
ENDBRANCH 39 40
ENDBRANCH 38 39
BRANCH 38 42
ATOM     42  C   SER B 368      10.611  88.539  11.143  1.00 44.50 LIG 0.24  C 
ATOM     43 O    SER B 368      10.746  88.084  10.017  1.00 47.26 LIG-0.27  OA
ATOM     44  N   ILE B 369      11.404  88.262  12.150  1.00 46.03 LIG-0.34  N 
ATOM     45 H    ILE B 369      11.227  88.465  12.966  1.00 46.03 LIG 0.16  HD
BRANCH 44 46
ATOM     46  CA  ILE B 369      12.691  87.566  11.967  1.00 49.82 LIG 0.19  C 
BRANCH 46 47
ATOM     47  C   ILE B 369      12.724  86.246  12.708  1.00 51.12 LIG 0.20  C 
ATOM     48 OXT  ILE B 369      11.918  86.053  13.598  1.00 48.45 LIG-0.65  OA
ATOM     49 O    ILE B 369      13.531  85.333  12.460  1.00 56.65 LIG-0.65  OA
ENDBRANCH 46 47
BRANCH 46 50
ATOM     50  CB  ILE B 369      13.807  88.439  12.464  1.00 51.86 LIG 0.01  C 
ATOM     51  CG2 ILE B 369      15.240  87.848  12.138  1.00 50.67 LIG 0.01  C 
BRANCH 50 52
ATOM     52  CG1 ILE B 369      13.704  89.837  11.907  1.00 48.80 LIG 0.00  C 
ATOM     53  CD1 ILE B 369      14.649  89.951  10.860  1.00 47.56 LIG 0.01  C 
ENDBRANCH 50 52
ENDBRANCH 46 50
ENDBRANCH 44 46
ENDBRANCH 38 42
ENDBRANCH 35 38
ENDBRANCH 29 34
ENDBRANCH 26 29
ENDBRANCH 1 25
BRANCH 1 54
ATOM     54  CB  GLN B 366       6.460  92.557  18.672  1.00 39.69 LIG 0.04  C 
BRANCH 54 55
ATOM     55  CG  GLN B 366       5.881  91.456  19.465  1.00 41.05 LIG 0.10  C 
BRANCH 55 56
ATOM     56  CD  GLN B 366       6.912  90.652  20.225  1.00 41.66 LIG 0.21  C 
ATOM     57 OE1  GLN B 366       8.123  90.889  20.103  1.00 35.58 LIG-0.27  OA
ATOM     58  NE2 GLN B 366       6.418  89.720  21.060  1.00 36.50 LIG-0.37  N 
ATOM     59 22HE GLN B 366       6.951  89.251  21.546  1.00 36.50 LIG 0.16  HD
ATOM     60 21HE GLN B 366       5.568  89.593  21.108  1.00 36.50 LIG 0.16  HD
ENDBRANCH 55 56
ENDBRANCH 54 55
ENDBRANCH 1 54
TORSDOF 25
ENDMDL
MODEL 18
USER: ADFR SOLUTION from run 135
USER: SCORE 16.458230 LL:  -4.924 LR: -15.578 RR:   0.000 FEB:  -8.120
USER: RMSD 4.302102
USER: SEED 134
USER: STATUS no improvement in best in 5 clusters for 5 generations
USER: GENES 27
USER: genes 0 Translation |==|  0.51817 0.35364 0.47323
USER: genes 1 Rotation |==|  0.07176 0.37346 0.71505 0.56597
USER: genes 2 Torsion [CB]-CA--N-[C] |==|  0.51793
USER: genes 3 Torsion [N]-C--CA-[N] |==|  0.18060
USER: genes 4 Torsion [C]-CA--N-[C] |==|  0.75739
USER: genes 5 Torsion [N]-C--CA-[N] |==|  0.32014
USER: genes 6 Torsion [C]-CA--CB-[CG] |==|  0.18744
USER: genes 7 Torsion [CA]-CB--CG-[OD2] |==|  0.53757
USER: genes 8 Torsion [C]-CA--N-[C] |==|  0.62795
USER: genes 9 Torsion [C]-CA--CB-[CG] |==|  0.71348
USER: genes 10 Torsion [CA]-CB--CG-[CD1] |==|  0.15693
USER: genes 11 Torsion [N]-CA--C-[N] |==|  0.92216
USER: genes 12 Torsion [C]-N--CA-[CB] |==|  0.24110
USER: genes 13 Torsion [N]-CA--CB-[CG2] |==|  0.70064
USER: genes 14 Torsion [CA]-CB--OG1-[HG1] |==|  0.03131
USER: genes 15 Torsion [N]-CA--C-[N] |==|  0.37722
USER: genes 16 Torsion [C]-N--CA-[CB] |==|  0.47929
USER: genes 17 Torsion [N]-CA--CB-[OG] |==|  0.84970
USER: genes 18 Torsion [CA]-CB--OG-[HG] |==|  0.14874
USER: genes 19 Torsion [N]-CA--C-[N] |==|  0.84727
USER: genes 20 Torsion [C]-N--CA-[CB] |==|  0.11886
USER: genes 21 Torsion [N]-CA--C-[OXT] |==|  0.92476
USER: genes 22 Torsion [N]-CA--CB-[CG2] |==|  0.29258
USER: genes 23 Torsion [CA]-CB--CG1-[CD1] |==|  0.09561
USER: genes 24 Torsion [N]-CA--CB-[CG] |==|  0.83568
USER: genes 25 Torsion [CA]-CB--CG-[CD] |==|  0.33094
USER: genes 26 Torsion [CB]-CG--CD-[OE1] |==|  0.22655
ROOT
ATOM      1  CA  GLN B 366      11.547  86.728  12.257  1.00 38.37 LIG 0.18  C 
ENDROOT
BRANCH 1 2
ATOM      2  N   GLN B 366      11.975  88.095  12.013  1.00 38.60 LIG-0.35  N 
ATOM      3 H    GLN B 366      12.736  88.295  12.360  1.00 38.60 LIG 0.16  HD
ATOM      4  C   LEU B 365      11.231  88.952  11.304  1.00 41.18 LIG 0.24  C 
ATOM      5 O    LEU B 365      10.137  88.655  10.782  1.00 36.84 LIG-0.27  OA
BRANCH 4 6
ATOM      6  CA  LEU B 365      11.783  90.369  11.227  1.00 40.54 LIG 0.18  C 
BRANCH 6 7
ATOM      7  N   LEU B 365      13.045  90.367  10.500  1.00 42.84 LIG-0.35  N 
ATOM      8  C   ASP B 364      14.184  90.146  11.145  1.00 57.74 LIG 0.24  C 
ATOM      9 O    ASP B 364      14.191  90.005  12.337  1.00 57.74 LIG-0.27  OA
ATOM     10 H    LEU B 365      12.981  90.515   9.656  1.00 42.84 LIG 0.16  HD
BRANCH 8 11
ATOM     11  CA  ASP B 364      15.502  90.116  10.378  1.00 64.41 LIG 0.19  C 
BRANCH 11 12
ATOM     12  CB  ASP B 364      16.273  88.839  10.635  1.00 67.32 LIG 0.15  C 
BRANCH 12 13
ATOM     13  CG  ASP B 364      15.596  87.649  10.071  1.00 64.46 LIG 0.17  C 
ATOM     14 OD2  ASP B 364      16.003  86.518  10.443  1.00 62.61 LIG-0.65  OA
ATOM     15 OD1  ASP B 364      14.666  87.875   9.241  1.00 62.85 LIG-0.65  OA
ENDBRANCH 12 13
ENDBRANCH 11 12
BRANCH 11 16
ATOM     16  N   ASP B 364      16.382  91.178  10.757  1.00 73.89 LIG-0.35  N 
ATOM     17  C   ACE B 363      17.036  91.933   9.917  1.00 53.98 LIG 0.21  C 
ATOM     18  CH3 ACE B 363      17.929  92.897  10.661  1.00 56.03 LIG 0.12  C 
ATOM     19 O    ACE B 363      16.907  91.879   8.667  1.00 54.37 LIG-0.27  OA
ATOM     20 H    ASP B 364      16.442  91.277  11.609  1.00 73.89 LIG 0.16  HD
ENDBRANCH 11 16
ENDBRANCH 8 11
ENDBRANCH 6 7
BRANCH 6 21
ATOM     21  CB  LEU B 365      10.702  91.287  10.589  1.00 44.28 LIG 0.04  C 
BRANCH 21 22
ATOM     22  CG  LEU B 365      10.876  91.698   9.131  1.00 49.51 LIG-0.02  C 
ATOM     23  CD1 LEU B 365      10.995  90.492   8.235  1.00 53.42 LIG 0.01  C 
ATOM     24  CD2 LEU B 365       9.709  92.628   8.682  1.00 51.82 LIG 0.01  C 
ENDBRANCH 21 22
ENDBRANCH 6 21
ENDBRANCH 4 6
ENDBRANCH 1 2
BRANCH 1 25
ATOM     25  C   GLN B 366      10.178  86.717  12.889  1.00 40.92 LIG 0.24  C 
ATOM     26  N   THR B 367       9.862  87.789  13.619  1.00 37.18 LIG-0.34  N 
ATOM     27 H    THR B 367      10.380  88.461  13.758  1.00 37.18 LIG 0.16  HD
ATOM     28 O    GLN B 366       9.382  85.807  12.625  1.00 43.39 LIG-0.27  OA
BRANCH 26 29
ATOM     29  CA  THR B 367       8.562  87.870  14.243  1.00 39.45 LIG 0.20  C 
BRANCH 29 30
ATOM     30  CB  THR B 367       8.565  87.189  15.616  1.00 41.55 LIG 0.15  C 
ATOM     31  CG2 THR B 367       7.794  85.902  15.521  1.00 46.47 LIG 0.04  C 
BRANCH 30 32
ATOM     32 OG1  THR B 367       9.918  86.972  16.015  1.00 42.44 LIG-0.39  OA
ATOM     33 HG1  THR B 367      10.433  87.392  15.502  1.00 42.44 LIG 0.21  HD
ENDBRANCH 30 32
ENDBRANCH 29 30
BRANCH 29 34
ATOM     34  C   THR B 367       8.205  89.324  14.393  1.00 39.06 LIG 0.24  C 
ATOM     35  N   SER B 368       6.975  89.621  14.060  1.00 40.73 LIG-0.34  N 
ATOM     36 H    SER B 368       6.424  89.058  13.713  1.00 40.73 LIG 0.16  HD
ATOM     37 O    THR B 367       9.007  90.109  14.921  1.00 38.11 LIG-0.27  OA
BRANCH 35 38
ATOM     38  CA  SER B 368       6.432  90.940  14.251  1.00 41.63 LIG 0.20  C 
BRANCH 38 39
ATOM     39  CB  SER B 368       5.055  91.027  13.605  1.00 43.79 LIG 0.20  C 
BRANCH 39 40
ATOM     40 OG   SER B 368       5.095  90.640  12.252  1.00 46.28 LIG-0.40  OA
ATOM     41 HG   SER B 368       5.447  89.881  12.187  1.00 46.28 LIG 0.21  HD
ENDBRANCH 39 40
ENDBRANCH 38 39
BRANCH 38 42
ATOM     42  C   SER B 368       6.330  91.216  15.737  1.00 44.50 LIG 0.24  C 
ATOM     43 O    SER B 368       6.920  92.173  16.214  1.00 47.26 LIG-0.27  OA
ATOM     44  N   ILE B 369       5.654  90.341  16.441  1.00 46.03 LIG-0.34  N 
ATOM     45 H    ILE B 369       5.364  89.596  16.124  1.00 46.03 LIG 0.16  HD
BRANCH 44 46
ATOM     46  CA  ILE B 369       5.327  90.561  17.861  1.00 49.82 LIG 0.19  C 
BRANCH 46 47
ATOM     47  C   ILE B 369       4.234  89.626  18.336  1.00 51.12 LIG 0.20  C 
ATOM     48 OXT  ILE B 369       3.429  89.206  17.526  1.00 48.45 LIG-0.65  OA
ATOM     49 O    ILE B 369       4.105  89.254  19.515  1.00 56.65 LIG-0.65  OA
ENDBRANCH 46 47
BRANCH 46 50
ATOM     50  CB  ILE B 369       4.882  91.981  18.058  1.00 51.86 LIG 0.01  C 
ATOM     51  CG2 ILE B 369       3.317  92.110  18.268  1.00 50.67 LIG 0.01  C 
BRANCH 50 52
ATOM     52  CG1 ILE B 369       5.597  92.628  19.218  1.00 48.80 LIG 0.00  C 
ATOM     53  CD1 ILE B 369       6.911  92.105  19.255  1.00 47.56 LIG 0.01  C 
ENDBRANCH 50 52
ENDBRANCH 46 50
ENDBRANCH 44 46
ENDBRANCH 38 42
ENDBRANCH 35 38
ENDBRANCH 29 34
ENDBRANCH 26 29
ENDBRANCH 1 25
BRANCH 1 54
ATOM     54  CB  GLN B 366      12.488  85.990  13.224  1.00 39.69 LIG 0.04  C 
BRANCH 54 55
ATOM     55  CG  GLN B 366      13.869  85.941  12.704  1.00 41.05 LIG 0.10  C 
BRANCH 55 56
ATOM     56  CD  GLN B 366      14.875  86.628  13.600  1.00 41.66 LIG 0.21  C 
ATOM     57 OE1  GLN B 366      15.347  86.050  14.591  1.00 35.58 LIG-0.27  OA
ATOM     58  NE2 GLN B 366      15.245  87.863  13.214  1.00 36.50 LIG-0.37  N 
ATOM     59 22HE GLN B 366      15.839  88.294  13.663  1.00 36.50 LIG 0.16  HD
ATOM     60 21HE GLN B 366      14.887  88.221  12.518  1.00 36.50 LIG 0.16  HD
ENDBRANCH 55 56
ENDBRANCH 54 55
ENDBRANCH 1 54
TORSDOF 25
ENDMDL
MODEL 19
USER: ADFR SOLUTION from run 132
USER: SCORE 18.185636 LL:  -4.411 LR: -15.556 RR:   0.000 FEB:  -8.099
USER: RMSD 11.835810
USER: SEED 131
USER: STATUS searching
USER: GENES 27
USER: genes 0 Translation |==|  0.39178 0.45149 0.64891
USER: genes 1 Rotation |==|  0.13798 0.26680 0.24682 0.52149
USER: genes 2 Torsion [CB]-CA--N-[C] |==|  0.52605
USER: genes 3 Torsion [N]-C--CA-[N] |==|  0.86772
USER: genes 4 Torsion [C]-CA--N-[C] |==|  0.81289
USER: genes 5 Torsion [N]-C--CA-[N] |==|  0.37253
USER: genes 6 Torsion [C]-CA--CB-[CG] |==|  0.20829
USER: genes 7 Torsion [CA]-CB--CG-[OD2] |==|  0.60860
USER: genes 8 Torsion [C]-CA--N-[C] |==|  0.77669
USER: genes 9 Torsion [C]-CA--CB-[CG] |==|  0.68611
USER: genes 10 Torsion [CA]-CB--CG-[CD1] |==|  0.82024
USER: genes 11 Torsion [N]-CA--C-[N] |==|  0.31599
USER: genes 12 Torsion [C]-N--CA-[CB] |==|  0.18333
USER: genes 13 Torsion [N]-CA--CB-[CG2] |==|  0.69192
USER: genes 14 Torsion [CA]-CB--OG1-[HG1] |==|  0.17235
USER: genes 15 Torsion [N]-CA--C-[N] |==|  0.71455
USER: genes 16 Torsion [C]-N--CA-[CB] |==|  0.86558
USER: genes 17 Torsion [N]-CA--CB-[OG] |==|  0.49071
USER: genes 18 Torsion [CA]-CB--OG-[HG] |==|  0.54391
USER: genes 19 Torsion [N]-CA--C-[N] |==|  0.35261
USER: genes 20 Torsion [C]-N--CA-[CB] |==|  0.32328
USER: genes 21 Torsion [N]-CA--C-[OXT] |==|  0.98187
USER: genes 22 Torsion [N]-CA--CB-[CG2] |==|  0.63956
USER: genes 23 Torsion [CA]-CB--CG1-[CD1] |==|  0.67804
USER: genes 24 Torsion [N]-CA--CB-[CG] |==|  0.44260
USER: genes 25 Torsion [CA]-CB--CG-[CD] |==|  0.55578
USER: genes 26 Torsion [CB]-CG--CD-[OE1] |==|  0.82160
ROOT
ATOM      1  CA  GLN B 366       8.040  88.416  16.078  1.00 38.37 LIG 0.18  C 
ENDROOT
BRANCH 1 2
ATOM      2  N   GLN B 366       7.323  89.532  16.670  1.00 38.60 LIG-0.35  N 
ATOM      3 H    GLN B 366       6.741  89.305  17.262  1.00 38.60 LIG 0.16  HD
ATOM      4  C   LEU B 365       7.564  90.797  16.310  1.00 41.18 LIG 0.24  C 
ATOM      5 O    LEU B 365       8.422  91.128  15.467  1.00 36.84 LIG-0.27  OA
BRANCH 4 6
ATOM      6  CA  LEU B 365       6.656  91.833  16.959  1.00 40.54 LIG 0.18  C 
BRANCH 6 7
ATOM      7  N   LEU B 365       5.268  91.403  16.859  1.00 42.84 LIG-0.35  N 
ATOM      8  C   ASP B 364       4.673  91.342  15.674  1.00 57.74 LIG 0.24  C 
ATOM      9 O    ASP B 364       5.252  91.696  14.684  1.00 57.74 LIG-0.27  OA
ATOM     10 H    LEU B 365       4.893  91.202  17.606  1.00 42.84 LIG 0.16  HD
BRANCH 8 11
ATOM     11  CA  ASP B 364       3.229  90.864  15.568  1.00 64.41 LIG 0.19  C 
BRANCH 11 12
ATOM     12  CB  ASP B 364       3.138  89.479  14.964  1.00 67.32 LIG 0.15  C 
BRANCH 12 13
ATOM     13  CG  ASP B 364       3.545  88.421  15.917  1.00 64.46 LIG 0.17  C 
ATOM     14 OD2  ASP B 364       4.216  87.458  15.464  1.00 62.61 LIG-0.65  OA
ATOM     15 OD1  ASP B 364       3.166  88.572  17.116  1.00 62.85 LIG-0.65  OA
ENDBRANCH 12 13
ENDBRANCH 11 12
BRANCH 11 16
ATOM     16  N   ASP B 364       2.433  91.702  14.726  1.00 73.89 LIG-0.35  N 
ATOM     17  C   ACE B 363       1.905  92.837  15.097  1.00 53.98 LIG 0.21  C 
ATOM     18  CH3 ACE B 363       1.066  93.416  13.983  1.00 56.03 LIG 0.12  C 
ATOM     19 O    ACE B 363       2.103  93.378  16.214  1.00 54.37 LIG-0.27  OA
ATOM     20 H    ASP B 364       2.332  91.384  13.933  1.00 73.89 LIG 0.16  HD
ENDBRANCH 11 16
ENDBRANCH 8 11
ENDBRANCH 6 7
BRANCH 6 21
ATOM     21  CB  LEU B 365       7.130  92.060  18.423  1.00 44.28 LIG 0.04  C 
BRANCH 21 22
ATOM     22  CG  LEU B 365       6.211  91.615  19.554  1.00 49.51 LIG-0.02  C 
ATOM     23  CD1 LEU B 365       4.928  92.406  19.558  1.00 53.42 LIG 0.01  C 
ATOM     24  CD2 LEU B 365       5.934  90.083  19.462  1.00 51.82 LIG 0.01  C 
ENDBRANCH 21 22
ENDBRANCH 6 21
ENDBRANCH 4 6
ENDBRANCH 1 2
BRANCH 1 25
ATOM     25  C   GLN B 366       7.974  88.495  14.573  1.00 40.92 LIG 0.24  C 
ATOM     26  N   THR B 367       9.132  88.718  13.948  1.00 37.18 LIG-0.34  N 
ATOM     27 H    THR B 367       9.890  88.829  14.339  1.00 37.18 LIG 0.16  HD
ATOM     28 O    GLN B 366       6.913  88.245  13.986  1.00 43.39 LIG-0.27  OA
BRANCH 26 29
ATOM     29  CA  THR B 367       9.163  88.788  12.506  1.00 39.45 LIG 0.20  C 
BRANCH 29 30
ATOM     30  CB  THR B 367       8.385  90.005  11.994  1.00 41.55 LIG 0.15  C 
ATOM     31  CG2 THR B 367       7.143  89.528  11.295  1.00 46.47 LIG 0.04  C 
BRANCH 30 32
ATOM     32 OG1  THR B 367       8.081  90.851  13.103  1.00 42.44 LIG-0.39  OA
ATOM     33 HG1  THR B 367       8.794  91.124  13.452  1.00 42.44 LIG 0.21  HD
ENDBRANCH 30 32
ENDBRANCH 29 30
BRANCH 29 34
ATOM     34  C   THR B 367      10.602  88.880  12.073  1.00 39.06 LIG 0.24  C 
ATOM     35  N   SER B 368      10.989  90.079  11.719  1.00 40.73 LIG-0.34  N 
ATOM     36 H    SER B 368      10.460  90.755  11.662  1.00 40.73 LIG 0.16  HD
ATOM     37 O    THR B 367      11.349  87.898  12.190  1.00 38.11 LIG-0.27  OA
BRANCH 35 38
ATOM     38  CA  SER B 368      12.359  90.370  11.388  1.00 41.63 LIG 0.20  C 
BRANCH 38 39
ATOM     39  CB  SER B 368      13.278  89.805  12.464  1.00 43.79 LIG 0.20  C 
BRANCH 39 40
ATOM     40 OG   SER B 368      14.634  90.003  12.139  1.00 46.28 LIG-0.40  OA
ATOM     41 HG   SER B 368      15.113  89.507  12.619  1.00 46.28 LIG 0.21  HD
ENDBRANCH 39 40
ENDBRANCH 38 39
BRANCH 38 42
ATOM     42  C   SER B 368      12.681  89.746  10.046  1.00 44.50 LIG 0.24  C 
ATOM     43 O    SER B 368      12.522  88.546   9.885  1.00 47.26 LIG-0.27  OA
ATOM     44  N   ILE B 369      13.192  90.550   9.145  1.00 46.03 LIG-0.34  N 
ATOM     45 H    ILE B 369      13.434  91.358   9.309  1.00 46.03 LIG 0.16  HD
BRANCH 44 46
ATOM     46  CA  ILE B 369      13.399  90.131   7.747  1.00 49.82 LIG 0.19  C 
BRANCH 46 47
ATOM     47  C   ILE B 369      14.847  90.272   7.328  1.00 51.12 LIG 0.20  C 
ATOM     48 OXT  ILE B 369      15.630  90.804   8.093  1.00 48.45 LIG-0.65  OA
ATOM     49 O    ILE B 369      15.295  89.872   6.240  1.00 56.65 LIG-0.65  OA
ENDBRANCH 46 47
BRANCH 46 50
ATOM     50  CB  ILE B 369      12.539  90.966   6.842  1.00 51.86 LIG 0.01  C 
ATOM     51  CG2 ILE B 369      11.684  90.094   5.832  1.00 50.67 LIG 0.01  C 
BRANCH 50 52
ATOM     52  CG1 ILE B 369      11.620  91.865   7.629  1.00 48.80 LIG 0.00  C 
ATOM     53  CD1 ILE B 369      10.291  91.466   7.353  1.00 47.56 LIG 0.01  C 
ENDBRANCH 50 52
ENDBRANCH 46 50
ENDBRANCH 44 46
ENDBRANCH 38 42
ENDBRANCH 35 38
ENDBRANCH 29 34
ENDBRANCH 26 29
ENDBRANCH 1 25
BRANCH 1 54
ATOM     54  CB  GLN B 366       7.435  87.060  16.478  1.00 39.69 LIG 0.04  C 
BRANCH 54 55
ATOM     55  CG  GLN B 366       7.819  85.995  15.532  1.00 41.05 LIG 0.10  C 
BRANCH 55 56
ATOM     56  CD  GLN B 366       6.905  84.790  15.576  1.00 41.66 LIG 0.21  C 
ATOM     57 OE1  GLN B 366       6.822  84.089  16.596  1.00 35.58 LIG-0.27  OA
ATOM     58  NE2 GLN B 366       6.173  84.580  14.467  1.00 36.50 LIG-0.37  N 
ATOM     59 22HE GLN B 366       5.609  83.930  14.441  1.00 36.50 LIG 0.16  HD
ATOM     60 21HE GLN B 366       6.268  85.095  13.785  1.00 36.50 LIG 0.16  HD
ENDBRANCH 55 56
ENDBRANCH 54 55
ENDBRANCH 1 54
TORSDOF 25
ENDMDL
MODEL 20
USER: ADFR SOLUTION from run 147
USER: SCORE 18.094998 LL:  -5.625 LR: -15.517 RR:   0.000 FEB:  -8.060
USER: RMSD 12.595903
USER: SEED 146
USER: STATUS searching
USER: GENES 27
USER: genes 0 Translation |==|  0.27487 0.69035 0.71816
USER: genes 1 Rotation |==|  0.52934 0.97215 0.66083 0.51855
USER: genes 2 Torsion [CB]-CA--N-[C] |==|  0.36467
USER: genes 3 Torsion [N]-C--CA-[N] |==|  0.13333
USER: genes 4 Torsion [C]-CA--N-[C] |==|  0.13487
USER: genes 5 Torsion [N]-C--CA-[N] |==|  0.80588
USER: genes 6 Torsion [C]-CA--CB-[CG] |==|  0.13450
USER: genes 7 Torsion [CA]-CB--CG-[OD2] |==|  0.23404
USER: genes 8 Torsion [C]-CA--N-[C] |==|  0.58989
USER: genes 9 Torsion [C]-CA--CB-[CG] |==|  0.29419
USER: genes 10 Torsion [CA]-CB--CG-[CD1] |==|  0.54045
USER: genes 11 Torsion [N]-CA--C-[N] |==|  0.96354
USER: genes 12 Torsion [C]-N--CA-[CB] |==|  0.17345
USER: genes 13 Torsion [N]-CA--CB-[CG2] |==|  0.13972
USER: genes 14 Torsion [CA]-CB--OG1-[HG1] |==|  0.21831
USER: genes 15 Torsion [N]-CA--C-[N] |==|  0.04073
USER: genes 16 Torsion [C]-N--CA-[CB] |==|  0.79191
USER: genes 17 Torsion [N]-CA--CB-[OG] |==|  0.92105
USER: genes 18 Torsion [CA]-CB--OG-[HG] |==|  0.88781
USER: genes 19 Torsion [N]-CA--C-[N] |==|  0.13068
USER: genes 20 Torsion [C]-N--CA-[CB] |==|  0.30357
USER: genes 21 Torsion [N]-CA--C-[OXT] |==|  0.94951
USER: genes 22 Torsion [N]-CA--CB-[CG2] |==|  0.31706
USER: genes 23 Torsion [CA]-CB--CG1-[CD1] |==|  0.28593
USER: genes 24 Torsion [N]-CA--CB-[CG] |==|  0.21425
USER: genes 25 Torsion [CA]-CB--CG-[CD] |==|  0.43184
USER: genes 26 Torsion [CB]-CG--CD-[OE1] |==|  0.77131
ROOT
ATOM      1  CA  GLN B 366       4.796  92.536  17.584  1.00 38.37 LIG 0.18  C 
ENDROOT
BRANCH 1 2
ATOM      2  N   GLN B 366       3.582  91.869  17.145  1.00 38.60 LIG-0.35  N 
ATOM      3 H    GLN B 366       3.606  91.011  17.213  1.00 38.60 LIG 0.16  HD
ATOM      4  C   LEU B 365       2.530  92.550  16.681  1.00 41.18 LIG 0.24  C 
ATOM      5 O    LEU B 365       2.487  93.795  16.603  1.00 36.84 LIG-0.27  OA
BRANCH 4 6
ATOM      6  CA  LEU B 365       1.380  91.690  16.174  1.00 40.54 LIG 0.18  C 
BRANCH 6 7
ATOM      7  N   LEU B 365       1.072  90.655  17.153  1.00 42.84 LIG-0.35  N 
ATOM      8  C   ASP B 364       0.920  90.974  18.433  1.00 57.74 LIG 0.24  C 
ATOM      9 O    ASP B 364       1.092  92.102  18.803  1.00 57.74 LIG-0.27  OA
ATOM     10 H    LEU B 365       1.002  89.860  16.835  1.00 42.84 LIG 0.16  HD
BRANCH 8 11
ATOM     11  CA  ASP B 364       0.570  89.895  19.452  1.00 64.41 LIG 0.19  C 
BRANCH 11 12
ATOM     12  CB  ASP B 364       1.469  88.684  19.320  1.00 67.32 LIG 0.15  C 
BRANCH 12 13
ATOM     13  CG  ASP B 364       2.902  89.050  19.251  1.00 64.46 LIG 0.17  C 
ATOM     14 OD2  ASP B 364       3.508  89.234  20.338  1.00 62.61 LIG-0.65  OA
ATOM     15 OD1  ASP B 364       3.395  89.163  18.090  1.00 62.85 LIG-0.65  OA
ENDBRANCH 12 13
ENDBRANCH 11 12
BRANCH 11 16
ATOM     16  N   ASP B 364      -0.763  89.402  19.294  1.00 73.89 LIG-0.35  N 
ATOM     17  C   ACE B 363      -1.520  88.985  20.272  1.00 53.98 LIG 0.21  C 
ATOM     18  CH3 ACE B 363      -2.832  88.463  19.737  1.00 56.03 LIG 0.12  C 
ATOM     19 O    ACE B 363      -1.203  89.047  21.487  1.00 54.37 LIG-0.27  OA
ATOM     20 H    ASP B 364      -1.028  89.406  18.476  1.00 73.89 LIG 0.16  HD
ENDBRANCH 11 16
ENDBRANCH 8 11
ENDBRANCH 6 7
BRANCH 6 21
ATOM     21  CB  LEU B 365       0.173  92.615  15.851  1.00 44.28 LIG 0.04  C 
BRANCH 21 22
ATOM     22  CG  LEU B 365      -0.153  92.888  14.387  1.00 49.51 LIG-0.02  C 
ATOM     23  CD1 LEU B 365      -1.097  94.055  14.247  1.00 53.42 LIG 0.01  C 
ATOM     24  CD2 LEU B 365       1.155  93.114  13.569  1.00 51.82 LIG 0.01  C 
ENDBRANCH 21 22
ENDBRANCH 6 21
ENDBRANCH 4 6
ENDBRANCH 1 2
BRANCH 1 25
ATOM     25  C   GLN B 366       5.918  92.265  16.614  1.00 40.92 LIG 0.24  C 
ATOM     26  N   THR B 367       5.703  91.290  15.729  1.00 37.18 LIG-0.34  N 
ATOM     27 H    THR B 367       4.989  90.811  15.686  1.00 37.18 LIG 0.16  HD
ATOM     28 O    GLN B 366       6.912  93.003  16.595  1.00 43.39 LIG-0.27  OA
BRANCH 26 29
ATOM     29  CA  THR B 367       6.717  90.978  14.750  1.00 39.45 LIG 0.20  C 
BRANCH 29 30
ATOM     30  CB  THR B 367       8.007  90.495  15.424  1.00 41.55 LIG 0.15  C 
ATOM     31  CG2 THR B 367       7.664  89.410  16.406  1.00 46.47 LIG 0.04  C 
BRANCH 30 32
ATOM     32 OG1  THR B 367       8.905  90.035  14.414  1.00 42.44 LIG-0.39  OA
ATOM     33 HG1  THR B 367       9.274  90.693  14.046  1.00 42.44 LIG 0.21  HD
ENDBRANCH 30 32
ENDBRANCH 29 30
BRANCH 29 34
ATOM     34  C   THR B 367       6.179  89.902  13.845  1.00 39.06 LIG 0.24  C 
ATOM     35  N   SER B 368       4.887  89.716  13.928  1.00 40.73 LIG-0.34  N 
ATOM     36 H    SER B 368       4.382  90.114  14.499  1.00 40.73 LIG 0.16  HD
ATOM     37 O    THR B 367       6.923  89.363  13.012  1.00 38.11 LIG-0.27  OA
BRANCH 35 38
ATOM     38  CA  SER B 368       4.191  88.810  13.052  1.00 41.63 LIG 0.20  C 
BRANCH 38 39
ATOM     39  CB  SER B 368       4.057  89.433  11.668  1.00 43.79 LIG 0.20  C 
BRANCH 39 40
ATOM     40 OG   SER B 368       4.024  90.839  11.737  1.00 46.28 LIG-0.40  OA
ATOM     41 HG   SER B 368       3.558  91.077  12.394  1.00 46.28 LIG 0.21  HD
ENDBRANCH 39 40
ENDBRANCH 38 39
BRANCH 38 42
ATOM     42  C   SER B 368       4.971  87.514  12.969  1.00 44.50 LIG 0.24  C 
ATOM     43 O    SER B 368       5.126  86.972  11.885  1.00 47.26 LIG-0.27  OA
ATOM     44  N   ILE B 369       5.377  87.011  14.110  1.00 46.03 LIG-0.34  N 
ATOM     45 H    ILE B 369       5.143  87.320  14.877  1.00 46.03 LIG 0.16  HD
BRANCH 44 46
ATOM     46  CA  ILE B 369       6.286  85.853  14.177  1.00 49.82 LIG 0.19  C 
BRANCH 46 47
ATOM     47  C   ILE B 369       5.760  84.781  15.108  1.00 51.12 LIG 0.20  C 
ATOM     48 OXT  ILE B 369       4.904  85.079  15.921  1.00 48.45 LIG-0.65  OA
ATOM     49 O    ILE B 369       6.147  83.600  15.094  1.00 56.65 LIG-0.65  OA
ENDBRANCH 46 47
BRANCH 46 50
ATOM     50  CB  ILE B 369       7.636  86.303  14.657  1.00 51.86 LIG 0.01  C 
ATOM     51  CG2 ILE B 369       8.014  85.705  16.074  1.00 50.67 LIG 0.01  C 
BRANCH 50 52
ATOM     52  CG1 ILE B 369       8.718  85.958  13.664  1.00 48.80 LIG 0.00  C 
ATOM     53  CD1 ILE B 369       9.055  87.144  12.970  1.00 47.56 LIG 0.01  C 
ENDBRANCH 50 52
ENDBRANCH 46 50
ENDBRANCH 44 46
ENDBRANCH 38 42
ENDBRANCH 35 38
ENDBRANCH 29 34
ENDBRANCH 26 29
ENDBRANCH 1 25
BRANCH 1 54
ATOM     54  CB  GLN B 366       5.267  92.037  18.960  1.00 39.69 LIG 0.04  C 
BRANCH 54 55
ATOM     55  CG  GLN B 366       5.932  90.723  18.861  1.00 41.05 LIG 0.10  C 
BRANCH 55 56
ATOM     56  CD  GLN B 366       6.902  90.451  19.989  1.00 41.66 LIG 0.21  C 
ATOM     57 OE1  GLN B 366       8.058  90.898  19.958  1.00 35.58 LIG-0.27  OA
ATOM     58  NE2 GLN B 366       6.404  89.748  21.022  1.00 36.50 LIG-0.37  N 
ATOM     59 22HE GLN B 366       6.896  89.587  21.710  1.00 36.50 LIG 0.16  HD
ATOM     60 21HE GLN B 366       5.594  89.458  20.995  1.00 36.50 LIG 0.16  HD
ENDBRANCH 55 56
ENDBRANCH 54 55
ENDBRANCH 1 54
TORSDOF 25
ENDMDL
MODEL 21
USER: ADFR SOLUTION from run 44
USER: SCORE 17.066367 LL:  -4.664 LR: -15.439 RR:   0.000 FEB:  -7.982
USER: RMSD 12.179956
USER: SEED 43
USER: STATUS no improvement in best in 3 clusters for 5 generations
USER: GENES 27
USER: genes 0 Translation |==|  0.38779 0.57832 0.58155
USER: genes 1 Rotation |==|  0.33053 0.03151 0.45922 0.51162
USER: genes 2 Torsion [CB]-CA--N-[C] |==|  0.52285
USER: genes 3 Torsion [N]-C--CA-[N] |==|  0.07778
USER: genes 4 Torsion [C]-CA--N-[C] |==|  0.74833
USER: genes 5 Torsion [N]-C--CA-[N] |==|  0.63668
USER: genes 6 Torsion [C]-CA--CB-[CG] |==|  0.27075
USER: genes 7 Torsion [CA]-CB--CG-[OD2] |==|  0.15114
USER: genes 8 Torsion [C]-CA--N-[C] |==|  0.67754
USER: genes 9 Torsion [C]-CA--CB-[CG] |==|  0.70391
USER: genes 10 Torsion [CA]-CB--CG-[CD1] |==|  0.43994
USER: genes 11 Torsion [N]-CA--C-[N] |==|  0.42627
USER: genes 12 Torsion [C]-N--CA-[CB] |==|  0.17480
USER: genes 13 Torsion [N]-CA--CB-[CG2] |==|  0.13020
USER: genes 14 Torsion [CA]-CB--OG1-[HG1] |==|  0.53434
USER: genes 15 Torsion [N]-CA--C-[N] |==|  0.35110
USER: genes 16 Torsion [C]-N--CA-[CB] |==|  0.13187
USER: genes 17 Torsion [N]-CA--CB-[OG] |==|  0.20300
USER: genes 18 Torsion [CA]-CB--OG-[HG] |==|  0.21008
USER: genes 19 Torsion [N]-CA--C-[N] |==|  0.17697
USER: genes 20 Torsion [C]-N--CA-[CB] |==|  0.23406
USER: genes 21 Torsion [N]-CA--C-[OXT] |==|  0.92018
USER: genes 22 Torsion [N]-CA--CB-[CG2] |==|  0.72552
USER: genes 23 Torsion [CA]-CB--CG1-[CD1] |==|  0.42002
USER: genes 24 Torsion [N]-CA--CB-[CG] |==|  0.97169
USER: genes 25 Torsion [CA]-CB--CG-[CD] |==|  0.79069
USER: genes 26 Torsion [CB]-CG--CD-[OE1] |==|  0.13803
ROOT
ATOM      1  CA  GLN B 366       7.929  90.604  14.613  1.00 38.37 LIG 0.18  C 
ENDROOT
BRANCH 1 2
ATOM      2  N   GLN B 366       6.487  90.603  14.785  1.00 38.60 LIG-0.35  N 
ATOM      3 H    GLN B 366       6.229  90.593  15.606  1.00 38.60 LIG 0.16  HD
ATOM      4  C   LEU B 365       5.651  90.616  13.741  1.00 41.18 LIG 0.24  C 
ATOM      5 O    LEU B 365       6.026  90.651  12.552  1.00 36.84 LIG-0.27  OA
BRANCH 4 6
ATOM      6  CA  LEU B 365       4.175  90.514  14.100  1.00 40.54 LIG 0.18  C 
BRANCH 6 7
ATOM      7  N   LEU B 365       3.951  91.073  15.427  1.00 42.84 LIG-0.35  N 
ATOM      8  C   ASP B 364       4.022  90.292  16.498  1.00 57.74 LIG 0.24  C 
ATOM      9 O    ASP B 364       4.211  89.113  16.380  1.00 57.74 LIG-0.27  OA
ATOM     10 H    LEU B 365       3.778  91.914  15.444  1.00 42.84 LIG 0.16  HD
BRANCH 8 11
ATOM     11  CA  ASP B 364       3.815  90.883  17.889  1.00 64.41 LIG 0.19  C 
BRANCH 11 12
ATOM     12  CB  ASP B 364       3.838  92.397  17.865  1.00 67.32 LIG 0.15  C 
BRANCH 12 13
ATOM     13  CG  ASP B 364       2.478  92.981  17.826  1.00 64.46 LIG 0.17  C 
ATOM     14 OD2  ASP B 364       1.668  92.628  18.721  1.00 62.61 LIG-0.65  OA
ATOM     15 OD1  ASP B 364       2.241  93.782  16.874  1.00 62.85 LIG-0.65  OA
ENDBRANCH 12 13
ENDBRANCH 11 12
BRANCH 11 16
ATOM     16  N   ASP B 364       4.842  90.499  18.807  1.00 73.89 LIG-0.35  N 
ATOM     17  C   ACE B 363       4.647  89.775  19.876  1.00 53.98 LIG 0.21  C 
ATOM     18  CH3 ACE B 363       5.933  89.628  20.654  1.00 56.03 LIG 0.12  C 
ATOM     19 O    ACE B 363       3.546  89.253  20.185  1.00 54.37 LIG-0.27  OA
ATOM     20 H    ASP B 364       5.619  90.794  18.585  1.00 73.89 LIG 0.16  HD
ENDBRANCH 11 16
ENDBRANCH 8 11
ENDBRANCH 6 7
BRANCH 6 21
ATOM     21  CB  LEU B 365       3.345  91.214  12.986  1.00 44.28 LIG 0.04  C 
BRANCH 21 22
ATOM     22  CG  LEU B 365       2.716  92.567  13.299  1.00 49.51 LIG-0.02  C 
ATOM     23  CD1 LEU B 365       2.417  93.335  12.037  1.00 53.42 LIG 0.01  C 
ATOM     24  CD2 LEU B 365       1.437  92.386  14.172  1.00 51.82 LIG 0.01  C 
ENDBRANCH 21 22
ENDBRANCH 6 21
ENDBRANCH 4 6
ENDBRANCH 1 2
BRANCH 1 25
ATOM     25  C   GLN B 366       8.344  89.484  13.692  1.00 40.92 LIG 0.24  C 
ATOM     26  N   THR B 367       9.481  89.672  13.019  1.00 37.18 LIG-0.34  N 
ATOM     27 H    THR B 367       9.972  90.377  13.067  1.00 37.18 LIG 0.16  HD
ATOM     28 O    GLN B 366       7.705  88.424  13.679  1.00 43.39 LIG-0.27  OA
BRANCH 26 29
ATOM     29  CA  THR B 367       9.963  88.641  12.130  1.00 39.45 LIG 0.20  C 
BRANCH 29 30
ATOM     30  CB  THR B 367       8.980  88.398  10.980  1.00 41.55 LIG 0.15  C 
ATOM     31  CG2 THR B 367       8.567  89.724  10.406  1.00 46.47 LIG 0.04  C 
BRANCH 30 32
ATOM     32 OG1  THR B 367       9.613  87.570  10.005  1.00 42.44 LIG-0.39  OA
ATOM     33 HG1  THR B 367       9.156  87.567   9.300  1.00 42.44 LIG 0.21  HD
ENDBRANCH 30 32
ENDBRANCH 29 30
BRANCH 29 34
ATOM     34  C   THR B 367      11.294  89.080  11.581  1.00 39.06 LIG 0.24  C 
ATOM     35  N   SER B 368      12.263  88.216  11.744  1.00 40.73 LIG-0.34  N 
ATOM     36 H    SER B 368      12.182  87.484  12.190  1.00 40.73 LIG 0.16  HD
ATOM     37 O    THR B 367      11.378  90.125  10.919  1.00 38.11 LIG-0.27  OA
BRANCH 35 38
ATOM     38  CA  SER B 368      13.571  88.423  11.179  1.00 41.63 LIG 0.20  C 
BRANCH 38 39
ATOM     39  CB  SER B 368      14.041  89.841  11.478  1.00 43.79 LIG 0.20  C 
BRANCH 39 40
ATOM     40 OG   SER B 368      14.398  89.991  12.832  1.00 46.28 LIG-0.40  OA
ATOM     41 HG   SER B 368      15.144  89.629  12.967  1.00 46.28 LIG 0.21  HD
ENDBRANCH 39 40
ENDBRANCH 38 39
BRANCH 38 42
ATOM     42  C   SER B 368      14.529  87.417  11.782  1.00 44.50 LIG 0.24  C 
ATOM     43 O    SER B 368      15.503  87.810  12.406  1.00 47.26 LIG-0.27  OA
ATOM     44  N   ILE B 369      14.279  86.156  11.524  1.00 46.03 LIG-0.34  N 
ATOM     45 H    ILE B 369      13.678  85.894  10.968  1.00 46.03 LIG 0.16  HD
BRANCH 44 46
ATOM     46  CA  ILE B 369      15.018  85.060  12.176  1.00 49.82 LIG 0.19  C 
BRANCH 46 47
ATOM     47  C   ILE B 369      15.018  83.804  11.330  1.00 51.12 LIG 0.20  C 
ATOM     48 OXT  ILE B 369      14.081  83.602  10.580  1.00 48.45 LIG-0.65  OA
ATOM     49 O    ILE B 369      15.926  82.955  11.351  1.00 56.65 LIG-0.65  OA
ENDBRANCH 46 47
BRANCH 46 50
ATOM     50  CB  ILE B 369      14.395  84.759  13.508  1.00 51.86 LIG 0.01  C 
ATOM     51  CG2 ILE B 369      15.167  85.437  14.714  1.00 50.67 LIG 0.01  C 
BRANCH 50 52
ATOM     52  CG1 ILE B 369      12.945  85.173  13.546  1.00 48.80 LIG 0.00  C 
ATOM     53  CD1 ILE B 369      12.281  84.319  14.457  1.00 47.56 LIG 0.01  C 
ENDBRANCH 50 52
ENDBRANCH 46 50
ENDBRANCH 44 46
ENDBRANCH 38 42
ENDBRANCH 35 38
ENDBRANCH 29 34
ENDBRANCH 26 29
ENDBRANCH 1 25
BRANCH 1 54
ATOM     54  CB  GLN B 366       8.672  90.384  15.941  1.00 39.69 LIG 0.04  C 
BRANCH 54 55
ATOM     55  CG  GLN B 366       7.755  90.466  17.095  1.00 41.05 LIG 0.10  C 
BRANCH 55 56
ATOM     56  CD  GLN B 366       7.343  91.880  17.438  1.00 41.66 LIG 0.21  C 
ATOM     57 OE1  GLN B 366       6.919  92.652  16.565  1.00 35.58 LIG-0.27  OA
ATOM     58  NE2 GLN B 366       7.424  92.205  18.742  1.00 36.50 LIG-0.37  N 
ATOM     59 22HE GLN B 366       7.173  92.984  19.007  1.00 36.50 LIG 0.16  HD
ATOM     60 21HE GLN B 366       7.726  91.633  19.309  1.00 36.50 LIG 0.16  HD
ENDBRANCH 55 56
ENDBRANCH 54 55
ENDBRANCH 1 54
TORSDOF 25
ENDMDL
MODEL 22
USER: ADFR SOLUTION from run 197
USER: SCORE 18.042681 LL:  -4.898 LR: -15.429 RR:   0.000 FEB:  -7.972
USER: RMSD 11.948446
USER: SEED 196
USER: STATUS searching
USER: GENES 27
USER: genes 0 Translation |==|  0.32773 0.51473 0.55359
USER: genes 1 Rotation |==|  0.67860 0.22703 0.87468 0.55657
USER: genes 2 Torsion [CB]-CA--N-[C] |==|  0.86639
USER: genes 3 Torsion [N]-C--CA-[N] |==|  0.82179
USER: genes 4 Torsion [C]-CA--N-[C] |==|  0.55003
USER: genes 5 Torsion [N]-C--CA-[N] |==|  0.89706
USER: genes 6 Torsion [C]-CA--CB-[CG] |==|  0.98069
USER: genes 7 Torsion [CA]-CB--CG-[OD2] |==|  0.26445
USER: genes 8 Torsion [C]-CA--N-[C] |==|  0.83802
USER: genes 9 Torsion [C]-CA--CB-[CG] |==|  0.35390
USER: genes 10 Torsion [CA]-CB--CG-[CD1] |==|  0.94838
USER: genes 11 Torsion [N]-CA--C-[N] |==|  0.36436
USER: genes 12 Torsion [C]-N--CA-[CB] |==|  0.49070
USER: genes 13 Torsion [N]-CA--CB-[CG2] |==|  0.19961
USER: genes 14 Torsion [CA]-CB--OG1-[HG1] |==|  0.30387
USER: genes 15 Torsion [N]-CA--C-[N] |==|  0.47750
USER: genes 16 Torsion [C]-N--CA-[CB] |==|  0.49541
USER: genes 17 Torsion [N]-CA--CB-[OG] |==|  0.86719
USER: genes 18 Torsion [CA]-CB--OG-[HG] |==|  0.52757
USER: genes 19 Torsion [N]-CA--C-[N] |==|  0.46124
USER: genes 20 Torsion [C]-N--CA-[CB] |==|  0.32314
USER: genes 21 Torsion [N]-CA--C-[OXT] |==|  0.06041
USER: genes 22 Torsion [N]-CA--CB-[CG2] |==|  0.54823
USER: genes 23 Torsion [CA]-CB--CG1-[CD1] |==|  0.79425
USER: genes 24 Torsion [N]-CA--CB-[CG] |==|  0.75315
USER: genes 25 Torsion [CA]-CB--CG-[CD] |==|  0.22520
USER: genes 26 Torsion [CB]-CG--CD-[OE1] |==|  0.58790
ROOT
ATOM      1  CA  GLN B 366       6.263  89.507  14.005  1.00 38.37 LIG 0.18  C 
ENDROOT
BRANCH 1 2
ATOM      2  N   GLN B 366       5.879  89.767  15.382  1.00 38.60 LIG-0.35  N 
ATOM      3 H    GLN B 366       5.479  89.110  15.767  1.00 38.60 LIG 0.16  HD
ATOM      4  C   LEU B 365       6.137  90.936  15.978  1.00 41.18 LIG 0.24  C 
ATOM      5 O    LEU B 365       6.737  91.880  15.425  1.00 36.84 LIG-0.27  OA
BRANCH 4 6
ATOM      6  CA  LEU B 365       5.581  91.074  17.388  1.00 40.54 LIG 0.18  C 
BRANCH 6 7
ATOM      7  N   LEU B 365       4.125  91.032  17.349  1.00 42.84 LIG-0.35  N 
ATOM      8  C   ASP B 364       3.419  91.483  18.379  1.00 57.74 LIG 0.24  C 
ATOM      9 O    ASP B 364       3.969  91.872  19.371  1.00 57.74 LIG-0.27  OA
ATOM     10 H    LEU B 365       3.788  90.704  16.630  1.00 42.84 LIG 0.16  HD
BRANCH 8 11
ATOM     11  CA  ASP B 364       1.894  91.465  18.324  1.00 64.41 LIG 0.19  C 
BRANCH 11 12
ATOM     12  CB  ASP B 364       1.335  90.101  18.670  1.00 67.32 LIG 0.15  C 
BRANCH 12 13
ATOM     13  CG  ASP B 364       2.395  89.078  18.815  1.00 64.46 LIG 0.17  C 
ATOM     14 OD2  ASP B 364       2.825  88.846  19.974  1.00 62.61 LIG-0.65  OA
ATOM     15 OD1  ASP B 364       2.793  88.529  17.744  1.00 62.85 LIG-0.65  OA
ENDBRANCH 12 13
ENDBRANCH 11 12
BRANCH 11 16
ATOM     16  N   ASP B 364       1.388  91.768  17.022  1.00 73.89 LIG-0.35  N 
ATOM     17  C   ACE B 363       1.636  92.872  16.370  1.00 53.98 LIG 0.21  C 
ATOM     18  CH3 ACE B 363       0.878  92.892  15.063  1.00 56.03 LIG 0.12  C 
ATOM     19 O    ACE B 363       2.422  93.768  16.768  1.00 54.37 LIG-0.27  OA
ATOM     20 H    ASP B 364       0.893  91.143  16.700  1.00 73.89 LIG 0.16  HD
ENDBRANCH 11 16
ENDBRANCH 8 11
ENDBRANCH 6 7
BRANCH 6 21
ATOM     21  CB  LEU B 365       6.208  89.963  18.279  1.00 44.28 LIG 0.04  C 
BRANCH 21 22
ATOM     22  CG  LEU B 365       6.876  90.379  19.585  1.00 49.51 LIG-0.02  C 
ATOM     23  CD1 LEU B 365       7.209  91.849  19.583  1.00 53.42 LIG 0.01  C 
ATOM     24  CD2 LEU B 365       5.979  90.001  20.802  1.00 51.82 LIG 0.01  C 
ENDBRANCH 21 22
ENDBRANCH 6 21
ENDBRANCH 4 6
ENDBRANCH 1 2
BRANCH 1 25
ATOM     25  C   GLN B 366       7.761  89.371  13.899  1.00 40.92 LIG 0.24  C 
ATOM     26  N   THR B 367       8.205  88.305  13.229  1.00 37.18 LIG-0.34  N 
ATOM     27 H    THR B 367       7.705  87.702  12.874  1.00 37.18 LIG 0.16  HD
ATOM     28 O    GLN B 366       8.496  90.274  14.318  1.00 43.39 LIG-0.27  OA
BRANCH 26 29
ATOM     29  CA  THR B 367       9.626  88.108  13.061  1.00 39.45 LIG 0.20  C 
BRANCH 29 30
ATOM     30  CB  THR B 367       9.919  86.789  12.338  1.00 41.55 LIG 0.15  C 
ATOM     31  CG2 THR B 367       9.526  86.929  10.894  1.00 46.47 LIG 0.04  C 
BRANCH 30 32
ATOM     32 OG1  THR B 367      11.306  86.486  12.486  1.00 42.44 LIG-0.39  OA
ATOM     33 HG1  THR B 367      11.396  85.829  13.002  1.00 42.44 LIG 0.21  HD
ENDBRANCH 30 32
ENDBRANCH 29 30
BRANCH 29 34
ATOM     34  C   THR B 367      10.168  89.262  12.262  1.00 39.06 LIG 0.24  C 
ATOM     35  N   SER B 368      11.473  89.300  12.175  1.00 40.73 LIG-0.34  N 
ATOM     36 H    SER B 368      11.996  88.761  12.594  1.00 40.73 LIG 0.16  HD
ATOM     37 O    THR B 367       9.393  90.007  11.645  1.00 38.11 LIG-0.27  OA
BRANCH 35 38
ATOM     38  CA  SER B 368      12.153  90.267  11.354  1.00 41.63 LIG 0.20  C 
BRANCH 38 39
ATOM     39  CB  SER B 368      13.659  90.088  11.490  1.00 43.79 LIG 0.20  C 
BRANCH 39 40
ATOM     40 OG   SER B 368      14.047  89.987  12.840  1.00 46.28 LIG-0.40  OA
ATOM     41 HG   SER B 368      14.884  90.026  12.896  1.00 46.28 LIG 0.21  HD
ENDBRANCH 39 40
ENDBRANCH 38 39
BRANCH 38 42
ATOM     42  C   SER B 368      11.731  90.068   9.913  1.00 44.50 LIG 0.24  C 
ATOM     43 O    SER B 368      11.204  89.018   9.578  1.00 47.26 LIG-0.27  OA
ATOM     44  N   ILE B 369      12.036  91.037   9.084  1.00 46.03 LIG-0.34  N 
ATOM     45 H    ILE B 369      12.531  91.707   9.295  1.00 46.03 LIG 0.16  HD
BRANCH 44 46
ATOM     46  CA  ILE B 369      11.546  91.063   7.694  1.00 49.82 LIG 0.19  C 
BRANCH 46 47
ATOM     47  C   ILE B 369      12.686  91.126   6.699  1.00 51.12 LIG 0.20  C 
ATOM     48 OXT  ILE B 369      13.790  90.753   7.049  1.00 48.45 LIG-0.65  OA
ATOM     49 O    ILE B 369      12.565  91.537   5.532  1.00 56.65 LIG-0.65  OA
ENDBRANCH 46 47
BRANCH 46 50
ATOM     50  CB  ILE B 369      10.655  92.257   7.500  1.00 51.86 LIG 0.01  C 
ATOM     51  CG2 ILE B 369       9.747  92.140   6.207  1.00 50.67 LIG 0.01  C 
BRANCH 50 52
ATOM     52  CG1 ILE B 369       9.781  92.495   8.705  1.00 48.80 LIG 0.00  C 
ATOM     53  CD1 ILE B 369       8.771  91.504   8.704  1.00 47.56 LIG 0.01  C 
ENDBRANCH 50 52
ENDBRANCH 46 50
ENDBRANCH 44 46
ENDBRANCH 38 42
ENDBRANCH 35 38
ENDBRANCH 29 34
ENDBRANCH 26 29
ENDBRANCH 1 25
BRANCH 1 54
ATOM     54  CB  GLN B 366       5.854  90.652  13.063  1.00 39.69 LIG 0.04  C 
BRANCH 54 55
ATOM     55  CG  GLN B 366       4.491  90.456  12.531  1.00 41.05 LIG 0.10  C 
BRANCH 55 56
ATOM     56  CD  GLN B 366       3.402  90.885  13.490  1.00 41.66 LIG 0.21  C 
ATOM     57 OE1  GLN B 366       2.304  90.309  13.506  1.00 35.58 LIG-0.27  OA
ATOM     58  NE2 GLN B 366       3.734  91.878  14.334  1.00 36.50 LIG-0.37  N 
ATOM     59 22HE GLN B 366       3.169  92.146  14.926  1.00 36.50 LIG 0.16  HD
ATOM     60 21HE GLN B 366       4.510  92.246  14.282  1.00 36.50 LIG 0.16  HD
ENDBRANCH 55 56
ENDBRANCH 54 55
ENDBRANCH 1 54
TORSDOF 25
ENDMDL
MODEL 23
USER: ADFR SOLUTION from run 4
USER: SCORE 17.100556 LL:  -4.998 LR: -15.405 RR:   0.000 FEB:  -7.948
USER: RMSD 5.354532
USER: SEED 316539
USER: STATUS 1 or 2 clusters left
USER: GENES 27
USER: genes 0 Translation |==|  0.38554 0.51303 0.55937
USER: genes 1 Rotation |==|  0.04458 0.58018 0.68864 0.52403
USER: genes 2 Torsion [CB]-CA--N-[C] |==|  0.22309
USER: genes 3 Torsion [N]-C--CA-[N] |==|  0.44609
USER: genes 4 Torsion [C]-CA--N-[C] |==|  0.62988
USER: genes 5 Torsion [N]-C--CA-[N] |==|  0.43173
USER: genes 6 Torsion [C]-CA--CB-[CG] |==|  0.24375
USER: genes 7 Torsion [CA]-CB--CG-[OD2] |==|  0.04476
USER: genes 8 Torsion [C]-CA--N-[C] |==|  0.82419
USER: genes 9 Torsion [C]-CA--CB-[CG] |==|  0.49924
USER: genes 10 Torsion [CA]-CB--CG-[CD1] |==|  0.22936
USER: genes 11 Torsion [N]-CA--C-[N] |==|  0.32795
USER: genes 12 Torsion [C]-N--CA-[CB] |==|  0.42989
USER: genes 13 Torsion [N]-CA--CB-[CG2] |==|  0.18956
USER: genes 14 Torsion [CA]-CB--OG1-[HG1] |==|  0.03207
USER: genes 15 Torsion [N]-CA--C-[N] |==|  0.43789
USER: genes 16 Torsion [C]-N--CA-[CB] |==|  0.85155
USER: genes 17 Torsion [N]-CA--CB-[OG] |==|  0.87652
USER: genes 18 Torsion [CA]-CB--OG-[HG] |==|  0.99166
USER: genes 19 Torsion [N]-CA--C-[N] |==|  0.78929
USER: genes 20 Torsion [C]-N--CA-[CB] |==|  0.83616
USER: genes 21 Torsion [N]-CA--C-[OXT] |==|  0.24661
USER: genes 22 Torsion [N]-CA--CB-[CG2] |==|  0.51043
USER: genes 23 Torsion [CA]-CB--CG1-[CD1] |==|  0.34312
USER: genes 24 Torsion [N]-CA--CB-[CG] |==|  0.57468
USER: genes 25 Torsion [CA]-CB--CG-[CD] |==|  0.31533
USER: genes 26 Torsion [CB]-CG--CD-[OE1] |==|  0.44948
ROOT
ATOM      1  CA  GLN B 366       7.867  89.478  14.130  1.00 38.37 LIG 0.18  C 
ENDROOT
BRANCH 1 2
ATOM      2  N   GLN B 366       9.035  89.999  13.442  1.00 38.60 LIG-0.35  N 
ATOM      3 H    GLN B 366       9.129  90.852  13.501  1.00 38.60 LIG 0.16  HD
ATOM      4  C   LEU B 365       9.879  89.201  12.780  1.00 41.18 LIG 0.24  C 
ATOM      5 O    LEU B 365       9.755  87.961  12.714  1.00 36.84 LIG-0.27  OA
BRANCH 4 6
ATOM      6  CA  LEU B 365      10.995  89.922  12.036  1.00 40.54 LIG 0.18  C 
BRANCH 6 7
ATOM      7  N   LEU B 365      12.080  88.991  11.754  1.00 42.84 LIG-0.35  N 
ATOM      8  C   ASP B 364      13.337  89.340  12.001  1.00 57.74 LIG 0.24  C 
ATOM      9 O    ASP B 364      13.595  90.441  12.402  1.00 57.74 LIG-0.27  OA
ATOM     10 H    LEU B 365      11.836  88.234  11.429  1.00 42.84 LIG 0.16  HD
BRANCH 8 11
ATOM     11  CA  ASP B 364      14.469  88.354  11.731  1.00 64.41 LIG 0.19  C 
BRANCH 11 12
ATOM     12  CB  ASP B 364      14.701  87.429  12.907  1.00 67.32 LIG 0.15  C 
BRANCH 12 13
ATOM     13  CG  ASP B 364      13.849  86.219  12.849  1.00 64.46 LIG 0.17  C 
ATOM     14 OD2  ASP B 364      13.303  85.944  11.749  1.00 62.61 LIG-0.65  OA
ATOM     15 OD1  ASP B 364      13.729  85.567  13.929  1.00 62.85 LIG-0.65  OA
ENDBRANCH 12 13
ENDBRANCH 11 12
BRANCH 11 16
ATOM     16  N   ASP B 364      15.721  89.005  11.503  1.00 73.89 LIG-0.35  N 
ATOM     17  C   ACE B 363      15.966  89.810  10.504  1.00 53.98 LIG 0.21  C 
ATOM     18  CH3 ACE B 363      17.409  90.254  10.528  1.00 56.03 LIG 0.12  C 
ATOM     19 O    ACE B 363      15.105  90.182   9.667  1.00 54.37 LIG-0.27  OA
ATOM     20 H    ASP B 364      16.313  88.815  12.097  1.00 73.89 LIG 0.16  HD
ENDBRANCH 11 16
ENDBRANCH 8 11
ENDBRANCH 6 7
BRANCH 6 21
ATOM     21  CB  LEU B 365      10.395  90.579  10.760  1.00 44.28 LIG 0.04  C 
BRANCH 21 22
ATOM     22  CG  LEU B 365      11.329  91.369   9.851  1.00 49.51 LIG-0.02  C 
ATOM     23  CD1 LEU B 365      12.076  90.458   8.911  1.00 53.42 LIG 0.01  C 
ATOM     24  CD2 LEU B 365      10.537  92.463   9.072  1.00 51.82 LIG 0.01  C 
ENDBRANCH 21 22
ENDBRANCH 6 21
ENDBRANCH 4 6
ENDBRANCH 1 2
BRANCH 1 25
ATOM     25  C   GLN B 366       6.871  90.584  14.377  1.00 40.92 LIG 0.24  C 
ATOM     26  N   THR B 367       5.681  90.440  13.791  1.00 37.18 LIG-0.34  N 
ATOM     27 H    THR B 367       5.456  89.781  13.286  1.00 37.18 LIG 0.16  HD
ATOM     28 O    GLN B 366       7.139  91.491  15.175  1.00 43.39 LIG-0.27  OA
BRANCH 26 29
ATOM     29  CA  THR B 367       4.661  91.442  13.991  1.00 39.45 LIG 0.20  C 
BRANCH 29 30
ATOM     30  CB  THR B 367       3.666  91.459  12.825  1.00 41.55 LIG 0.15  C 
ATOM     31  CG2 THR B 367       2.868  90.186  12.849  1.00 46.47 LIG 0.04  C 
BRANCH 30 32
ATOM     32 OG1  THR B 367       2.834  92.612  12.952  1.00 42.44 LIG-0.39  OA
ATOM     33 HG1  THR B 367       3.151  93.125  13.536  1.00 42.44 LIG 0.21  HD
ENDBRANCH 30 32
ENDBRANCH 29 30
BRANCH 29 34
ATOM     34  C   THR B 367       3.940  91.127  15.274  1.00 39.06 LIG 0.24  C 
ATOM     35  N   SER B 368       3.329  92.147  15.821  1.00 40.73 LIG-0.34  N 
ATOM     36 H    SER B 368       3.385  92.953  15.526  1.00 40.73 LIG 0.16  HD
ATOM     37 O    THR B 367       3.851  89.954  15.664  1.00 38.11 LIG-0.27  OA
BRANCH 35 38
ATOM     38  CA  SER B 368       2.498  92.000  16.987  1.00 41.63 LIG 0.20  C 
BRANCH 38 39
ATOM     39  CB  SER B 368       1.448  90.924  16.737  1.00 43.79 LIG 0.20  C 
BRANCH 39 40
ATOM     40 OG   SER B 368       0.863  91.061  15.464  1.00 46.28 LIG-0.40  OA
ATOM     41 HG   SER B 368       1.173  91.743  15.084  1.00 46.28 LIG 0.21  HD
ENDBRANCH 39 40
ENDBRANCH 38 39
BRANCH 38 42
ATOM     42  C   SER B 368       3.369  91.616  18.164  1.00 44.50 LIG 0.24  C 
ATOM     43 O    SER B 368       3.700  92.470  18.974  1.00 47.26 LIG-0.27  OA
ATOM     44  N   ILE B 369       3.781  90.372  18.195  1.00 46.03 LIG-0.34  N 
ATOM     45 H    ILE B 369       3.665  89.815  17.551  1.00 46.03 LIG 0.16  HD
BRANCH 44 46
ATOM     46  CA  ILE B 369       4.492  89.809  19.358  1.00 49.82 LIG 0.19  C 
BRANCH 46 47
ATOM     47  C   ILE B 369       3.631  89.829  20.604  1.00 51.12 LIG 0.20  C 
ATOM     48 OXT  ILE B 369       2.909  88.876  20.832  1.00 48.45 LIG-0.65  OA
ATOM     49 O    ILE B 369       3.616  90.766  21.420  1.00 56.65 LIG-0.65  OA
ENDBRANCH 46 47
BRANCH 46 50
ATOM     50  CB  ILE B 369       5.743  90.600  19.611  1.00 51.86 LIG 0.01  C 
ATOM     51  CG2 ILE B 369       6.618  90.003  20.788  1.00 50.67 LIG 0.01  C 
BRANCH 50 52
ATOM     52  CG1 ILE B 369       6.588  90.710  18.366  1.00 48.80 LIG 0.00  C 
ATOM     53  CD1 ILE B 369       6.790  92.085  18.106  1.00 47.56 LIG 0.01  C 
ENDBRANCH 50 52
ENDBRANCH 46 50
ENDBRANCH 44 46
ENDBRANCH 38 42
ENDBRANCH 35 38
ENDBRANCH 29 34
ENDBRANCH 26 29
ENDBRANCH 1 25
BRANCH 1 54
ATOM     54  CB  GLN B 366       8.220  88.884  15.504  1.00 39.69 LIG 0.04  C 
BRANCH 54 55
ATOM     55  CG  GLN B 366       7.260  87.839  15.907  1.00 41.05 LIG 0.10  C 
BRANCH 55 56
ATOM     56  CD  GLN B 366       7.868  86.455  15.977  1.00 41.66 LIG 0.21  C 
ATOM     57 OE1  GLN B 366       7.309  85.544  16.605  1.00 35.58 LIG-0.27  OA
ATOM     58  NE2 GLN B 366       9.005  86.288  15.278  1.00 36.50 LIG-0.37  N 
ATOM     59 22HE GLN B 366       9.384  85.516  15.251  1.00 36.50 LIG 0.16  HD
ATOM     60 21HE GLN B 366       9.354  86.954  14.859  1.00 36.50 LIG 0.16  HD
ENDBRANCH 55 56
ENDBRANCH 54 55
ENDBRANCH 1 54
TORSDOF 25
ENDMDL
MODEL 24
USER: ADFR SOLUTION from run 110
USER: SCORE 17.899972 LL:  -4.213 LR: -15.343 RR:   0.000 FEB:  -7.886
USER: RMSD 13.130562
USER: SEED 109
USER: STATUS no improvement in best in 3 clusters for 5 generations
USER: GENES 27
USER: genes 0 Translation |==|  0.27103 0.68160 0.73406
USER: genes 1 Rotation |==|  0.48034 0.97806 0.63610 0.55050
USER: genes 2 Torsion [CB]-CA--N-[C] |==|  0.17857
USER: genes 3 Torsion [N]-C--CA-[N] |==|  0.35360
USER: genes 4 Torsion [C]-CA--N-[C] |==|  0.79805
USER: genes 5 Torsion [N]-C--CA-[N] |==|  0.45651
USER: genes 6 Torsion [C]-CA--CB-[CG] |==|  0.25566
USER: genes 7 Torsion [CA]-CB--CG-[OD2] |==|  0.30395
USER: genes 8 Torsion [C]-CA--N-[C] |==|  0.78576
USER: genes 9 Torsion [C]-CA--CB-[CG] |==|  0.12198
USER: genes 10 Torsion [CA]-CB--CG-[CD1] |==|  0.15635
USER: genes 11 Torsion [N]-CA--C-[N] |==|  0.02507
USER: genes 12 Torsion [C]-N--CA-[CB] |==|  0.18936
USER: genes 13 Torsion [N]-CA--CB-[CG2] |==|  0.19760
USER: genes 14 Torsion [CA]-CB--OG1-[HG1] |==|  0.96846
USER: genes 15 Torsion [N]-CA--C-[N] |==|  0.45586
USER: genes 16 Torsion [C]-N--CA-[CB] |==|  0.18351
USER: genes 17 Torsion [N]-CA--CB-[OG] |==|  0.44313
USER: genes 18 Torsion [CA]-CB--OG-[HG] |==|  0.13334
USER: genes 19 Torsion [N]-CA--C-[N] |==|  0.02897
USER: genes 20 Torsion [C]-N--CA-[CB] |==|  0.78968
USER: genes 21 Torsion [N]-CA--C-[OXT] |==|  0.57584
USER: genes 22 Torsion [N]-CA--CB-[CG2] |==|  0.57036
USER: genes 23 Torsion [CA]-CB--CG1-[CD1] |==|  0.59966
USER: genes 24 Torsion [N]-CA--CB-[CG] |==|  0.23906
USER: genes 25 Torsion [CA]-CB--CG-[CD] |==|  0.62776
USER: genes 26 Torsion [CB]-CG--CD-[OE1] |==|  0.12685
ROOT
ATOM      1  CA  GLN B 366       4.689  92.386  17.930  1.00 38.37 LIG 0.18  C 
ENDROOT
BRANCH 1 2
ATOM      2  N   GLN B 366       3.674  91.501  17.383  1.00 38.60 LIG-0.35  N 
ATOM      3 H    GLN B 366       3.961  90.972  16.768  1.00 38.60 LIG 0.16  HD
ATOM      4  C   LEU B 365       2.409  91.525  17.816  1.00 41.18 LIG 0.24  C 
ATOM      5 O    LEU B 365       2.000  92.278  18.723  1.00 36.84 LIG-0.27  OA
BRANCH 4 6
ATOM      6  CA  LEU B 365       1.458  90.602  17.068  1.00 40.54 LIG 0.18  C 
BRANCH 6 7
ATOM      7  N   LEU B 365       0.750  89.752  18.016  1.00 42.84 LIG-0.35  N 
ATOM      8  C   ASP B 364       1.388  88.760  18.626  1.00 57.74 LIG 0.24  C 
ATOM      9 O    ASP B 364       2.533  88.519  18.360  1.00 57.74 LIG-0.27  OA
ATOM     10 H    LEU B 365      -0.078  89.948  18.135  1.00 42.84 LIG 0.16  HD
BRANCH 8 11
ATOM     11  CA  ASP B 364       0.654  87.889  19.640  1.00 64.41 LIG 0.19  C 
BRANCH 11 12
ATOM     12  CB  ASP B 364       0.490  88.592  20.971  1.00 67.32 LIG 0.15  C 
BRANCH 12 13
ATOM     13  CG  ASP B 364      -0.788  89.333  21.064  1.00 64.46 LIG 0.17  C 
ATOM     14 OD2  ASP B 364      -1.669  88.878  21.839  1.00 62.61 LIG-0.65  OA
ATOM     15 OD1  ASP B 364      -0.891  90.365  20.336  1.00 62.85 LIG-0.65  OA
ENDBRANCH 12 13
ENDBRANCH 11 12
BRANCH 11 16
ATOM     16  N   ASP B 364       1.353  86.676  19.930  1.00 73.89 LIG-0.35  N 
ATOM     17  C   ACE B 363       1.379  85.632  19.148  1.00 53.98 LIG 0.21  C 
ATOM     18  CH3 ACE B 363       2.144  84.505  19.800  1.00 56.03 LIG 0.12  C 
ATOM     19 O    ACE B 363       0.866  85.593  18.001  1.00 54.37 LIG-0.27  OA
ATOM     20 H    ASP B 364       1.764  86.697  20.685  1.00 73.89 LIG 0.16  HD
ENDBRANCH 11 16
ENDBRANCH 8 11
ENDBRANCH 6 7
BRANCH 6 21
ATOM     21  CB  LEU B 365       0.512  91.470  16.189  1.00 44.28 LIG 0.04  C 
BRANCH 21 22
ATOM     22  CG  LEU B 365       1.121  92.620  15.395  1.00 49.51 LIG-0.02  C 
ATOM     23  CD1 LEU B 365       2.223  92.133  14.489  1.00 53.42 LIG 0.01  C 
ATOM     24  CD2 LEU B 365       0.018  93.375  14.594  1.00 51.82 LIG 0.01  C 
ENDBRANCH 21 22
ENDBRANCH 6 21
ENDBRANCH 4 6
ENDBRANCH 1 2
BRANCH 1 25
ATOM     25  C   GLN B 366       5.996  92.189  17.204  1.00 40.92 LIG 0.24  C 
ATOM     26  N   THR B 367       5.950  91.420  16.114  1.00 37.18 LIG-0.34  N 
ATOM     27 H    THR B 367       5.244  91.031  15.815  1.00 37.18 LIG 0.16  HD
ATOM     28 O    GLN B 366       7.003  92.815  17.561  1.00 43.39 LIG-0.27  OA
BRANCH 26 29
ATOM     29  CA  THR B 367       7.152  91.196  15.346  1.00 39.45 LIG 0.20  C 
BRANCH 29 30
ATOM     30  CB  THR B 367       8.160  90.349  16.132  1.00 41.55 LIG 0.15  C 
ATOM     31  CG2 THR B 367       7.646  88.939  16.217  1.00 46.47 LIG 0.04  C 
BRANCH 30 32
ATOM     32 OG1  THR B 367       9.425  90.417  15.474  1.00 42.44 LIG-0.39  OA
ATOM     33 HG1  THR B 367       9.329  90.771  14.718  1.00 42.44 LIG 0.21  HD
ENDBRANCH 30 32
ENDBRANCH 29 30
BRANCH 29 34
ATOM     34  C   THR B 367       6.771  90.489  14.074  1.00 39.06 LIG 0.24  C 
ATOM     35  N   SER B 368       7.689  90.509  13.142  1.00 40.73 LIG-0.34  N 
ATOM     36 H    SER B 368       8.427  90.948  13.207  1.00 40.73 LIG 0.16  HD
ATOM     37 O    THR B 367       5.715  89.841  14.017  1.00 38.11 LIG-0.27  OA
BRANCH 35 38
ATOM     38  CA  SER B 368       7.537  89.785  11.908  1.00 41.63 LIG 0.20  C 
BRANCH 38 39
ATOM     39  CB  SER B 368       6.389  90.378  11.101  1.00 43.79 LIG 0.20  C 
BRANCH 39 40
ATOM     40 OG   SER B 368       6.488  90.038   9.738  1.00 46.28 LIG-0.40  OA
ATOM     41 HG   SER B 368       6.632  89.214   9.664  1.00 46.28 LIG 0.21  HD
ENDBRANCH 39 40
ENDBRANCH 38 39
BRANCH 38 42
ATOM     42  C   SER B 368       8.830  89.879  11.124  1.00 44.50 LIG 0.24  C 
ATOM     43 O    SER B 368       8.879  89.437   9.986  1.00 47.26 LIG-0.27  OA
ATOM     44  N   ILE B 369       9.859  90.378  11.766  1.00 46.03 LIG-0.34  N 
ATOM     45 H    ILE B 369       9.856  90.554  12.607  1.00 46.03 LIG 0.16  HD
BRANCH 44 46
ATOM     46  CA  ILE B 369      11.131  90.687  11.089  1.00 49.82 LIG 0.19  C 
BRANCH 46 47
ATOM     47  C   ILE B 369      10.907  91.416   9.780  1.00 51.12 LIG 0.20  C 
ATOM     48 OXT  ILE B 369      11.736  91.302   8.897  1.00 48.45 LIG-0.65  OA
ATOM     49 O    ILE B 369       9.917  92.130   9.546  1.00 56.65 LIG-0.65  OA
ENDBRANCH 46 47
BRANCH 46 50
ATOM     50  CB  ILE B 369      11.879  89.413  10.822  1.00 51.86 LIG 0.01  C 
ATOM     51  CG2 ILE B 369      13.444  89.632  10.708  1.00 50.67 LIG 0.01  C 
BRANCH 50 52
ATOM     52  CG1 ILE B 369      11.595  88.375  11.880  1.00 48.80 LIG 0.00  C 
ATOM     53  CD1 ILE B 369      12.789  87.648  12.096  1.00 47.56 LIG 0.01  C 
ENDBRANCH 50 52
ENDBRANCH 46 50
ENDBRANCH 44 46
ENDBRANCH 38 42
ENDBRANCH 35 38
ENDBRANCH 29 34
ENDBRANCH 26 29
ENDBRANCH 1 25
BRANCH 1 54
ATOM     54  CB  GLN B 366       4.961  92.106  19.418  1.00 39.69 LIG 0.04  C 
BRANCH 54 55
ATOM     55  CG  GLN B 366       5.964  91.039  19.594  1.00 41.05 LIG 0.10  C 
BRANCH 55 56
ATOM     56  CD  GLN B 366       5.572  90.006  20.627  1.00 41.66 LIG 0.21  C 
ATOM     57 OE1  GLN B 366       4.429  89.525  20.647  1.00 35.58 LIG-0.27  OA
ATOM     58  NE2 GLN B 366       6.553  89.626  21.466  1.00 36.50 LIG-0.37  N 
ATOM     59 22HE GLN B 366       6.403  89.018  22.056  1.00 36.50 LIG 0.16  HD
ATOM     60 21HE GLN B 366       7.330  89.991  21.412  1.00 36.50 LIG 0.16  HD
ENDBRANCH 55 56
ENDBRANCH 54 55
ENDBRANCH 1 54
TORSDOF 25
ENDMDL
MODEL 25
USER: ADFR SOLUTION from run 106
USER: SCORE 17.291554 LL:  -4.914 LR: -15.333 RR:   0.000 FEB:  -7.876
USER: RMSD 12.272255
USER: SEED 105
USER: STATUS no improvement in best in 2 clusters for 5 generations
USER: GENES 27
USER: genes 0 Translation |==|  0.38220 0.58634 0.61886
USER: genes 1 Rotation |==|  0.68297 0.92612 0.58977 0.66397
USER: genes 2 Torsion [CB]-CA--N-[C] |==|  0.80556
USER: genes 3 Torsion [N]-C--CA-[N] |==|  0.84838
USER: genes 4 Torsion [C]-CA--N-[C] |==|  0.66858
USER: genes 5 Torsion [N]-C--CA-[N] |==|  0.33494
USER: genes 6 Torsion [C]-CA--CB-[CG] |==|  0.32554
USER: genes 7 Torsion [CA]-CB--CG-[OD2] |==|  0.54106
USER: genes 8 Torsion [C]-CA--N-[C] |==|  0.80302
USER: genes 9 Torsion [C]-CA--CB-[CG] |==|  0.15542
USER: genes 10 Torsion [CA]-CB--CG-[CD1] |==|  0.34952
USER: genes 11 Torsion [N]-CA--C-[N] |==|  0.17536
USER: genes 12 Torsion [C]-N--CA-[CB] |==|  0.19151
USER: genes 13 Torsion [N]-CA--CB-[CG2] |==|  0.70365
USER: genes 14 Torsion [CA]-CB--OG1-[HG1] |==|  0.63218
USER: genes 15 Torsion [N]-CA--C-[N] |==|  0.22063
USER: genes 16 Torsion [C]-N--CA-[CB] |==|  0.22751
USER: genes 17 Torsion [N]-CA--CB-[OG] |==|  0.01180
USER: genes 18 Torsion [CA]-CB--OG-[HG] |==|  0.12867
USER: genes 19 Torsion [N]-CA--C-[N] |==|  0.49946
USER: genes 20 Torsion [C]-N--CA-[CB] |==|  0.24191
USER: genes 21 Torsion [N]-CA--C-[OXT] |==|  0.89652
USER: genes 22 Torsion [N]-CA--CB-[CG2] |==|  0.07775
USER: genes 23 Torsion [CA]-CB--CG1-[CD1] |==|  0.30800
USER: genes 24 Torsion [N]-CA--CB-[CG] |==|  0.76830
USER: genes 25 Torsion [CA]-CB--CG-[CD] |==|  0.27662
USER: genes 26 Torsion [CB]-CG--CD-[OE1] |==|  0.30709
ROOT
ATOM      1  CA  GLN B 366       7.774  90.742  15.424  1.00 38.37 LIG 0.18  C 
ENDROOT
BRANCH 1 2
ATOM      2  N   GLN B 366       6.608  90.965  14.587  1.00 38.60 LIG-0.35  N 
ATOM      3 H    GLN B 366       6.543  91.764  14.276  1.00 38.60 LIG 0.16  HD
ATOM      4  C   LEU B 365       5.724  89.993  14.334  1.00 41.18 LIG 0.24  C 
ATOM      5 O    LEU B 365       5.831  88.828  14.768  1.00 36.84 LIG-0.27  OA
BRANCH 4 6
ATOM      6  CA  LEU B 365       4.513  90.423  13.519  1.00 40.54 LIG 0.18  C 
BRANCH 6 7
ATOM      7  N   LEU B 365       3.861  91.554  14.166  1.00 42.84 LIG-0.35  N 
ATOM      8  C   ASP B 364       2.602  91.452  14.576  1.00 57.74 LIG 0.24  C 
ATOM      9 O    ASP B 364       1.973  90.452  14.365  1.00 57.74 LIG-0.27  OA
ATOM     10 H    LEU B 365       4.348  92.257  14.252  1.00 42.84 LIG 0.16  HD
BRANCH 8 11
ATOM     11  CA  ASP B 364       1.930  92.627  15.279  1.00 64.41 LIG 0.19  C 
BRANCH 11 12
ATOM     12  CB  ASP B 364       1.459  92.256  16.668  1.00 67.32 LIG 0.15  C 
BRANCH 12 13
ATOM     13  CG  ASP B 364       2.140  93.040  17.723  1.00 64.46 LIG 0.17  C 
ATOM     14 OD2  ASP B 364       2.043  92.628  18.908  1.00 62.61 LIG-0.65  OA
ATOM     15 OD1  ASP B 364       2.756  94.078  17.339  1.00 62.85 LIG-0.65  OA
ENDBRANCH 12 13
ENDBRANCH 11 12
BRANCH 11 16
ATOM     16  N   ASP B 364       0.766  93.087  14.588  1.00 73.89 LIG-0.35  N 
ATOM     17  C   ACE B 363       0.783  93.726  13.450  1.00 53.98 LIG 0.21  C 
ATOM     18  CH3 ACE B 363      -0.616  94.128  13.050  1.00 56.03 LIG 0.12  C 
ATOM     19 O    ACE B 363       1.822  93.940  12.774  1.00 54.37 LIG-0.27  OA
ATOM     20 H    ASP B 364       0.035  92.900  15.000  1.00 73.89 LIG 0.16  HD
ENDBRANCH 11 16
ENDBRANCH 8 11
ENDBRANCH 6 7
BRANCH 6 21
ATOM     21  CB  LEU B 365       4.975  90.725  12.065  1.00 44.28 LIG 0.04  C 
BRANCH 21 22
ATOM     22  CG  LEU B 365       5.707  89.628  11.300  1.00 49.51 LIG-0.02  C 
ATOM     23  CD1 LEU B 365       5.040  89.345   9.979  1.00 53.42 LIG 0.01  C 
ATOM     24  CD2 LEU B 365       7.209  90.003  11.111  1.00 51.82 LIG 0.01  C 
ENDBRANCH 21 22
ENDBRANCH 6 21
ENDBRANCH 4 6
ENDBRANCH 1 2
BRANCH 1 25
ATOM     25  C   GLN B 366       8.493  89.488  14.993  1.00 40.92 LIG 0.24  C 
ATOM     26  N   THR B 367       8.999  89.500  13.758  1.00 37.18 LIG-0.34  N 
ATOM     27 H    THR B 367       8.932  90.155  13.204  1.00 37.18 LIG 0.16  HD
ATOM     28 O    GLN B 366       8.683  88.573  15.805  1.00 43.39 LIG-0.27  OA
BRANCH 26 29
ATOM     29  CA  THR B 367       9.721  88.349  13.271  1.00 39.45 LIG 0.20  C 
BRANCH 29 30
ATOM     30  CB  THR B 367       8.782  87.155  13.062  1.00 41.55 LIG 0.15  C 
ATOM     31  CG2 THR B 367       9.026  86.150  14.153  1.00 46.47 LIG 0.04  C 
BRANCH 30 32
ATOM     32 OG1  THR B 367       7.435  87.628  13.064  1.00 42.44 LIG-0.39  OA
ATOM     33 HG1  THR B 367       6.969  87.142  13.566  1.00 42.44 LIG 0.21  HD
ENDBRANCH 30 32
ENDBRANCH 29 30
BRANCH 29 34
ATOM     34  C   THR B 367      10.373  88.721  11.967  1.00 39.06 LIG 0.24  C 
ATOM     35  N   SER B 368      11.479  89.411  12.088  1.00 40.73 LIG-0.34  N 
ATOM     36 H    SER B 368      11.783  89.699  12.839  1.00 40.73 LIG 0.16  HD
ATOM     37 O    THR B 367       9.930  88.270  10.901  1.00 38.11 LIG-0.27  OA
BRANCH 35 38
ATOM     38  CA  SER B 368      12.292  89.751  10.950  1.00 41.63 LIG 0.20  C 
BRANCH 38 39
ATOM     39  CB  SER B 368      11.719  90.981  10.257  1.00 43.79 LIG 0.20  C 
BRANCH 39 40
ATOM     40 OG   SER B 368      10.619  91.505  10.964  1.00 46.28 LIG-0.40  OA
ATOM     41 HG   SER B 368      10.806  91.549  11.782  1.00 46.28 LIG 0.21  HD
ENDBRANCH 39 40
ENDBRANCH 38 39
BRANCH 38 42
ATOM     42  C   SER B 368      13.704  90.028  11.423  1.00 44.50 LIG 0.24  C 
ATOM     43 O    SER B 368      13.954  90.010  12.618  1.00 47.26 LIG-0.27  OA
ATOM     44  N   ILE B 369      14.570  90.350  10.493  1.00 46.03 LIG-0.34  N 
ATOM     45 H    ILE B 369      14.357  90.501   9.674  1.00 46.03 LIG 0.16  HD
BRANCH 44 46
ATOM     46  CA  ILE B 369      16.011  90.482  10.776  1.00 49.82 LIG 0.19  C 
BRANCH 46 47
ATOM     47  C   ILE B 369      16.678  91.465   9.836  1.00 51.12 LIG 0.20  C 
ATOM     48 OXT  ILE B 369      16.318  91.503   8.675  1.00 48.45 LIG-0.65  OA
ATOM     49 O    ILE B 369      17.580  92.248  10.180  1.00 56.65 LIG-0.65  OA
ENDBRANCH 46 47
BRANCH 46 50
ATOM     50  CB  ILE B 369      16.673  89.142  10.639  1.00 51.86 LIG 0.01  C 
ATOM     51  CG2 ILE B 369      15.926  88.191   9.616  1.00 50.67 LIG 0.01  C 
BRANCH 50 52
ATOM     52  CG1 ILE B 369      18.119  89.279  10.230  1.00 48.80 LIG 0.00  C 
ATOM     53  CD1 ILE B 369      18.914  88.883  11.331  1.00 47.56 LIG 0.01  C 
ENDBRANCH 50 52
ENDBRANCH 46 50
ENDBRANCH 44 46
ENDBRANCH 38 42
ENDBRANCH 35 38
ENDBRANCH 29 34
ENDBRANCH 26 29
ENDBRANCH 1 25
BRANCH 1 54
ATOM     54  CB  GLN B 366       7.398  90.552  16.903  1.00 39.69 LIG 0.04  C 
BRANCH 54 55
ATOM     55  CG  GLN B 366       7.224  91.847  17.589  1.00 41.05 LIG 0.10  C 
BRANCH 55 56
ATOM     56  CD  GLN B 366       5.778  92.267  17.729  1.00 41.66 LIG 0.21  C 
ATOM     57 OE1  GLN B 366       5.223  92.285  18.838  1.00 35.58 LIG-0.27  OA
ATOM     58  NE2 GLN B 366       5.177  92.658  16.591  1.00 36.50 LIG-0.37  N 
ATOM     59 22HE GLN B 366       4.365  92.940  16.608  1.00 36.50 LIG 0.16  HD
ATOM     60 21HE GLN B 366       5.606  92.626  15.845  1.00 36.50 LIG 0.16  HD
ENDBRANCH 55 56
ENDBRANCH 54 55
ENDBRANCH 1 54
TORSDOF 25
ENDMDL
MODEL 26
USER: ADFR SOLUTION from run 185
USER: SCORE 17.078921 LL:  -4.148 LR: -15.327 RR:   0.000 FEB:  -7.870
USER: RMSD 12.177857
USER: SEED 184
USER: STATUS searching
USER: GENES 27
USER: genes 0 Translation |==|  0.39666 0.56580 0.55576
USER: genes 1 Rotation |==|  0.26576 0.11413 0.28769 0.53407
USER: genes 2 Torsion [CB]-CA--N-[C] |==|  0.83814
USER: genes 3 Torsion [N]-C--CA-[N] |==|  0.89515
USER: genes 4 Torsion [C]-CA--N-[C] |==|  0.78283
USER: genes 5 Torsion [N]-C--CA-[N] |==|  0.72688
USER: genes 6 Torsion [C]-CA--CB-[CG] |==|  0.21285
USER: genes 7 Torsion [CA]-CB--CG-[OD2] |==|  0.65130
USER: genes 8 Torsion [C]-CA--N-[C] |==|  0.14470
USER: genes 9 Torsion [C]-CA--CB-[CG] |==|  0.53613
USER: genes 10 Torsion [CA]-CB--CG-[CD1] |==|  0.56060
USER: genes 11 Torsion [N]-CA--C-[N] |==|  0.44061
USER: genes 12 Torsion [C]-N--CA-[CB] |==|  0.21583
USER: genes 13 Torsion [N]-CA--CB-[CG2] |==|  0.75922
USER: genes 14 Torsion [CA]-CB--OG1-[HG1] |==|  0.93205
USER: genes 15 Torsion [N]-CA--C-[N] |==|  0.91267
USER: genes 16 Torsion [C]-N--CA-[CB] |==|  0.87222
USER: genes 17 Torsion [N]-CA--CB-[OG] |==|  0.90059
USER: genes 18 Torsion [CA]-CB--OG-[HG] |==|  0.45956
USER: genes 19 Torsion [N]-CA--C-[N] |==|  0.40217
USER: genes 20 Torsion [C]-N--CA-[CB] |==|  0.50159
USER: genes 21 Torsion [N]-CA--C-[OXT] |==|  0.90028
USER: genes 22 Torsion [N]-CA--CB-[CG2] |==|  0.35866
USER: genes 23 Torsion [CA]-CB--CG1-[CD1] |==|  0.54518
USER: genes 24 Torsion [N]-CA--CB-[CG] |==|  0.92220
USER: genes 25 Torsion [CA]-CB--CG-[CD] |==|  0.37043
USER: genes 26 Torsion [CB]-CG--CD-[OE1] |==|  0.23962
ROOT
ATOM      1  CA  GLN B 366       8.175  90.388  14.052  1.00 38.37 LIG 0.18  C 
ENDROOT
BRANCH 1 2
ATOM      2  N   GLN B 366       6.797  90.822  14.204  1.00 38.60 LIG-0.35  N 
ATOM      3 H    GLN B 366       6.710  91.629  14.491  1.00 38.60 LIG 0.16  HD
ATOM      4  C   LEU B 365       5.768  90.019  13.916  1.00 41.18 LIG 0.24  C 
ATOM      5 O    LEU B 365       5.895  88.857  13.480  1.00 36.84 LIG-0.27  OA
BRANCH 4 6
ATOM      6  CA  LEU B 365       4.394  90.599  14.225  1.00 40.54 LIG 0.18  C 
BRANCH 6 7
ATOM      7  N   LEU B 365       4.454  91.373  15.458  1.00 42.84 LIG-0.35  N 
ATOM      8  C   ASP B 364       4.453  90.754  16.633  1.00 57.74 LIG 0.24  C 
ATOM      9 O    ASP B 364       4.345  89.561  16.692  1.00 57.74 LIG-0.27  OA
ATOM     10 H    LEU B 365       4.487  92.225  15.353  1.00 42.84 LIG 0.16  HD
BRANCH 8 11
ATOM     11  CA  ASP B 364       4.543  91.565  17.922  1.00 64.41 LIG 0.19  C 
BRANCH 11 12
ATOM     12  CB  ASP B 364       4.136  93.007  17.709  1.00 67.32 LIG 0.15  C 
BRANCH 12 13
ATOM     13  CG  ASP B 364       2.668  93.169  17.610  1.00 64.46 LIG 0.17  C 
ATOM     14 OD2  ASP B 364       2.215  93.753  16.592  1.00 62.61 LIG-0.65  OA
ATOM     15 OD1  ASP B 364       1.988  92.715  18.578  1.00 62.85 LIG-0.65  OA
ENDBRANCH 12 13
ENDBRANCH 11 12
BRANCH 11 16
ATOM     16  N   ASP B 364       5.873  91.614  18.447  1.00 73.89 LIG-0.35  N 
ATOM     17  C   ACE B 363       6.926  91.972  17.763  1.00 53.98 LIG 0.21  C 
ATOM     18  CH3 ACE B 363       8.172  91.833  18.605  1.00 56.03 LIG 0.12  C 
ATOM     19 O    ACE B 363       6.891  92.401  16.582  1.00 54.37 LIG-0.27  OA
ATOM     20 H    ASP B 364       5.917  91.382  19.273  1.00 73.89 LIG 0.16  HD
ENDBRANCH 11 16
ENDBRANCH 8 11
ENDBRANCH 6 7
BRANCH 6 21
ATOM     21  CB  LEU B 365       3.919  91.427  12.997  1.00 44.28 LIG 0.04  C 
BRANCH 21 22
ATOM     22  CG  LEU B 365       2.718  92.349  13.172  1.00 49.51 LIG-0.02  C 
ATOM     23  CD1 LEU B 365       2.067  92.655  11.848  1.00 53.42 LIG 0.01  C 
ATOM     24  CD2 LEU B 365       1.698  91.734  14.179  1.00 51.82 LIG 0.01  C 
ENDBRANCH 21 22
ENDBRANCH 6 21
ENDBRANCH 4 6
ENDBRANCH 1 2
BRANCH 1 25
ATOM     25  C   GLN B 366       8.450  90.024  12.614  1.00 40.92 LIG 0.24  C 
ATOM     26  N   THR B 367       9.732  90.038  12.242  1.00 37.18 LIG-0.34  N 
ATOM     27 H    THR B 367      10.391  90.248  12.753  1.00 37.18 LIG 0.16  HD
ATOM     28 O    GLN B 366       7.529  89.626  11.889  1.00 43.39 LIG-0.27  OA
BRANCH 26 29
ATOM     29  CA  THR B 367      10.086  89.681  10.889  1.00 39.45 LIG 0.20  C 
BRANCH 29 30
ATOM     30  CB  THR B 367       9.801  90.835   9.920  1.00 41.55 LIG 0.15  C 
ATOM     31  CG2 THR B 367       8.371  90.744   9.465  1.00 46.47 LIG 0.04  C 
BRANCH 30 32
ATOM     32 OG1  THR B 367      10.070  92.068  10.587  1.00 42.44 LIG-0.39  OA
ATOM     33 HG1  THR B 367      10.000  91.959  11.417  1.00 42.44 LIG 0.21  HD
ENDBRANCH 30 32
ENDBRANCH 29 30
BRANCH 29 34
ATOM     34  C   THR B 367      11.552  89.342  10.862  1.00 39.06 LIG 0.24  C 
ATOM     35  N   SER B 368      12.280  90.001  11.727  1.00 40.73 LIG-0.34  N 
ATOM     36 H    SER B 368      11.976  90.632  12.227  1.00 40.73 LIG 0.16  HD
ATOM     37 O    THR B 367      11.960  88.410  10.154  1.00 38.11 LIG-0.27  OA
BRANCH 35 38
ATOM     38  CA  SER B 368      13.678  89.718  11.917  1.00 41.63 LIG 0.20  C 
BRANCH 38 39
ATOM     39  CB  SER B 368      13.889  88.213  12.019  1.00 43.79 LIG 0.20  C 
BRANCH 39 40
ATOM     40 OG   SER B 368      12.821  87.587  12.689  1.00 46.28 LIG-0.40  OA
ATOM     41 HG   SER B 368      12.856  86.757  12.561  1.00 46.28 LIG 0.21  HD
ENDBRANCH 39 40
ENDBRANCH 38 39
BRANCH 38 42
ATOM     42  C   SER B 368      14.454  90.276  10.742  1.00 44.50 LIG 0.24  C 
ATOM     43 O    SER B 368      13.986  90.194   9.617  1.00 47.26 LIG-0.27  OA
ATOM     44  N   ILE B 369      15.644  90.757  11.013  1.00 46.03 LIG-0.34  N 
ATOM     45 H    ILE B 369      16.025  90.681  11.779  1.00 46.03 LIG 0.16  HD
BRANCH 44 46
ATOM     46  CA  ILE B 369      16.443  91.482  10.009  1.00 49.82 LIG 0.19  C 
BRANCH 46 47
ATOM     47  C   ILE B 369      16.705  90.634   8.782  1.00 51.12 LIG 0.20  C 
ATOM     48 OXT  ILE B 369      16.887  89.439   8.923  1.00 48.45 LIG-0.65  OA
ATOM     49 O    ILE B 369      16.745  91.085   7.624  1.00 56.65 LIG-0.65  OA
ENDBRANCH 46 47
BRANCH 46 50
ATOM     50  CB  ILE B 369      17.755  91.892  10.615  1.00 51.86 LIG 0.01  C 
ATOM     51  CG2 ILE B 369      18.998  91.473   9.726  1.00 50.67 LIG 0.01  C 
BRANCH 50 52
ATOM     52  CG1 ILE B 369      17.803  93.377  10.874  1.00 48.80 LIG 0.00  C 
ATOM     53  CD1 ILE B 369      19.157  93.732  11.076  1.00 47.56 LIG 0.01  C 
ENDBRANCH 50 52
ENDBRANCH 46 50
ENDBRANCH 44 46
ENDBRANCH 38 42
ENDBRANCH 35 38
ENDBRANCH 29 34
ENDBRANCH 26 29
ENDBRANCH 1 25
BRANCH 1 54
ATOM     54  CB  GLN B 366       8.486  89.139  14.893  1.00 39.69 LIG 0.04  C 
BRANCH 54 55
ATOM     55  CG  GLN B 366       7.627  89.065  16.091  1.00 41.05 LIG 0.10  C 
BRANCH 55 56
ATOM     56  CD  GLN B 366       7.016  87.699  16.313  1.00 41.66 LIG 0.21  C 
ATOM     57 OE1  GLN B 366       7.630  86.819  16.934  1.00 35.58 LIG-0.27  OA
ATOM     58  NE2 GLN B 366       5.767  87.542  15.839  1.00 36.50 LIG-0.37  N 
ATOM     59 22HE GLN B 366       5.351  86.798  15.961  1.00 36.50 LIG 0.16  HD
ATOM     60 21HE GLN B 366       5.384  88.184  15.413  1.00 36.50 LIG 0.16  HD
ENDBRANCH 55 56
ENDBRANCH 54 55
ENDBRANCH 1 54
TORSDOF 25
ENDMDL
MODEL 27
USER: ADFR SOLUTION from run 67
USER: SCORE 17.004447 LL:  -4.612 LR: -15.334 RR:   0.000 FEB:  -7.877
USER: RMSD 5.886612
USER: SEED 66
USER: STATUS no improvement in best in 6 clusters for 5 generations
USER: GENES 27
USER: genes 0 Translation |==|  0.38841 0.50148 0.57627
USER: genes 1 Rotation |==|  0.07186 0.57658 0.73796 0.56490
USER: genes 2 Torsion [CB]-CA--N-[C] |==|  0.18333
USER: genes 3 Torsion [N]-C--CA-[N] |==|  0.44070
USER: genes 4 Torsion [C]-CA--N-[C] |==|  0.64293
USER: genes 5 Torsion [N]-C--CA-[N] |==|  0.42587
USER: genes 6 Torsion [C]-CA--CB-[CG] |==|  0.37812
USER: genes 7 Torsion [CA]-CB--CG-[OD2] |==|  0.59059
USER: genes 8 Torsion [C]-CA--N-[C] |==|  0.83256
USER: genes 9 Torsion [C]-CA--CB-[CG] |==|  0.50589
USER: genes 10 Torsion [CA]-CB--CG-[CD1] |==|  0.22360
USER: genes 11 Torsion [N]-CA--C-[N] |==|  0.56988
USER: genes 12 Torsion [C]-N--CA-[CB] |==|  0.17609
USER: genes 13 Torsion [N]-CA--CB-[CG2] |==|  0.19100
USER: genes 14 Torsion [CA]-CB--OG1-[HG1] |==|  0.43089
USER: genes 15 Torsion [N]-CA--C-[N] |==|  0.54179
USER: genes 16 Torsion [C]-N--CA-[CB] |==|  0.27189
USER: genes 17 Torsion [N]-CA--CB-[OG] |==|  0.52391
USER: genes 18 Torsion [CA]-CB--OG-[HG] |==|  0.41895
USER: genes 19 Torsion [N]-CA--C-[N] |==|  0.38948
USER: genes 20 Torsion [C]-N--CA-[CB] |==|  0.25408
USER: genes 21 Torsion [N]-CA--C-[OXT] |==|  0.54017
USER: genes 22 Torsion [N]-CA--CB-[CG2] |==|  0.79633
USER: genes 23 Torsion [CA]-CB--CG1-[CD1] |==|  0.69370
USER: genes 24 Torsion [N]-CA--CB-[CG] |==|  0.68234
USER: genes 25 Torsion [CA]-CB--CG-[CD] |==|  0.90630
USER: genes 26 Torsion [CB]-CG--CD-[OE1] |==|  0.75286
ROOT
ATOM      1  CA  GLN B 366       7.946  89.279  14.498  1.00 38.37 LIG 0.18  C 
ENDROOT
BRANCH 1 2
ATOM      2  N   GLN B 366       9.001  89.880  13.700  1.00 38.60 LIG-0.35  N 
ATOM      3 H    GLN B 366       9.039  90.738  13.753  1.00 38.60 LIG 0.16  HD
ATOM      4  C   LEU B 365       9.832  89.142  12.956  1.00 41.18 LIG 0.24  C 
ATOM      5 O    LEU B 365       9.790  87.896  12.897  1.00 36.84 LIG-0.27  OA
BRANCH 4 6
ATOM      6  CA  LEU B 365      10.814  89.939  12.109  1.00 40.54 LIG 0.18  C 
BRANCH 6 7
ATOM      7  N   LEU B 365      11.953  89.100  11.756  1.00 42.84 LIG-0.35  N 
ATOM      8  C   ASP B 364      13.189  89.529  11.979  1.00 57.74 LIG 0.24  C 
ATOM      9 O    ASP B 364      13.382  90.629  12.416  1.00 57.74 LIG-0.27  OA
ATOM     10 H    LEU B 365      11.753  88.340  11.408  1.00 42.84 LIG 0.16  HD
BRANCH 8 11
ATOM     11  CA  ASP B 364      14.379  88.638  11.636  1.00 64.41 LIG 0.19  C 
BRANCH 11 12
ATOM     12  CB  ASP B 364      14.747  87.724  12.785  1.00 67.32 LIG 0.15  C 
BRANCH 12 13
ATOM     13  CG  ASP B 364      15.025  86.340  12.337  1.00 64.46 LIG 0.17  C 
ATOM     14 OD2  ASP B 364      14.728  85.404  13.124  1.00 62.61 LIG-0.65  OA
ATOM     15 OD1  ASP B 364      15.558  86.218  11.194  1.00 62.85 LIG-0.65  OA
ENDBRANCH 12 13
ENDBRANCH 11 12
BRANCH 11 16
ATOM     16  N   ASP B 364      15.562  89.389  11.349  1.00 73.89 LIG-0.35  N 
ATOM     17  C   ACE B 363      15.670  90.261  10.384  1.00 53.98 LIG 0.21  C 
ATOM     18  CH3 ACE B 363      17.077  90.806  10.321  1.00 56.03 LIG 0.12  C 
ATOM     19 O    ACE B 363      14.720  90.615   9.640  1.00 54.37 LIG-0.27  OA
ATOM     20 H    ASP B 364      16.211  89.210  11.883  1.00 73.89 LIG 0.16  HD
ENDBRANCH 11 16
ENDBRANCH 8 11
ENDBRANCH 6 7
BRANCH 6 21
ATOM     21  CB  LEU B 365      10.057  90.506  10.874  1.00 44.28 LIG 0.04  C 
BRANCH 21 22
ATOM     22  CG  LEU B 365      10.852  91.304   9.847  1.00 49.51 LIG-0.02  C 
ATOM     23  CD1 LEU B 365      11.597  90.393   8.905  1.00 53.42 LIG 0.01  C 
ATOM     24  CD2 LEU B 365       9.917  92.282   9.072  1.00 51.82 LIG 0.01  C 
ENDBRANCH 21 22
ENDBRANCH 6 21
ENDBRANCH 4 6
ENDBRANCH 1 2
BRANCH 1 25
ATOM     25  C   GLN B 366       7.100  90.352  15.135  1.00 40.92 LIG 0.24  C 
ATOM     26  N   THR B 367       6.463  90.005  16.256  1.00 37.18 LIG-0.34  N 
ATOM     27 H    THR B 367       6.495  89.227  16.621  1.00 37.18 LIG 0.16  HD
ATOM     28 O    GLN B 366       7.116  91.504  14.682  1.00 43.39 LIG-0.27  OA
BRANCH 26 29
ATOM     29  CA  THR B 367       5.648  90.979  16.944  1.00 39.45 LIG 0.20  C 
BRANCH 29 30
ATOM     30  CB  THR B 367       4.467  91.424  16.073  1.00 41.55 LIG 0.15  C 
ATOM     31  CG2 THR B 367       3.511  90.274  15.926  1.00 46.47 LIG 0.04  C 
BRANCH 30 32
ATOM     32 OG1  THR B 367       3.849  92.555  16.687  1.00 42.44 LIG-0.39  OA
ATOM     33 HG1  THR B 367       3.451  93.008  16.103  1.00 42.44 LIG 0.21  HD
ENDBRANCH 30 32
ENDBRANCH 29 30
BRANCH 29 34
ATOM     34  C   THR B 367       5.139  90.350  18.213  1.00 39.06 LIG 0.24  C 
ATOM     35  N   SER B 368       4.150  90.991  18.781  1.00 40.73 LIG-0.34  N 
ATOM     36 H    SER B 368       3.851  91.750  18.506  1.00 40.73 LIG 0.16  HD
ATOM     37 O    THR B 367       5.568  89.244  18.573  1.00 38.11 LIG-0.27  OA
BRANCH 35 38
ATOM     38  CA  SER B 368       3.468  90.470  19.936  1.00 41.63 LIG 0.20  C 
BRANCH 38 39
ATOM     39  CB  SER B 368       4.029  91.113  21.198  1.00 43.79 LIG 0.20  C 
BRANCH 39 40
ATOM     40 OG   SER B 368       3.529  90.492  22.359  1.00 46.28 LIG-0.40  OA
ATOM     41 HG   SER B 368       4.095  90.554  22.976  1.00 46.28 LIG 0.21  HD
ENDBRANCH 39 40
ENDBRANCH 38 39
BRANCH 38 42
ATOM     42  C   SER B 368       1.990  90.772  19.809  1.00 44.50 LIG 0.24  C 
ATOM     43 O    SER B 368       1.630  91.876  19.429  1.00 47.26 LIG-0.27  OA
ATOM     44  N   ILE B 369       1.172  89.824  20.197  1.00 46.03 LIG-0.34  N 
ATOM     45 H    ILE B 369       1.428  89.107  20.596  1.00 46.03 LIG 0.16  HD
BRANCH 44 46
ATOM     46  CA  ILE B 369      -0.284  89.904  19.977  1.00 49.82 LIG 0.19  C 
BRANCH 46 47
ATOM     47  C   ILE B 369      -1.057  89.224  21.088  1.00 51.12 LIG 0.20  C 
ATOM     48 OXT  ILE B 369      -2.236  88.977  20.916  1.00 48.45 LIG-0.65  OA
ATOM     49 O    ILE B 369      -0.557  88.895  22.178  1.00 56.65 LIG-0.65  OA
ENDBRANCH 46 47
BRANCH 46 50
ATOM     50  CB  ILE B 369      -0.629  89.256  18.668  1.00 51.86 LIG 0.01  C 
ATOM     51  CG2 ILE B 369      -0.199  90.130  17.419  1.00 50.67 LIG 0.01  C 
BRANCH 50 52
ATOM     52  CG1 ILE B 369      -0.016  87.883  18.553  1.00 48.80 LIG 0.00  C 
ATOM     53  CD1 ILE B 369       1.002  87.951  17.573  1.00 47.56 LIG 0.01  C 
ENDBRANCH 50 52
ENDBRANCH 46 50
ENDBRANCH 44 46
ENDBRANCH 38 42
ENDBRANCH 35 38
ENDBRANCH 29 34
ENDBRANCH 26 29
ENDBRANCH 1 25
BRANCH 1 54
ATOM     54  CB  GLN B 366       8.505  88.416  15.642  1.00 39.69 LIG 0.04  C 
BRANCH 54 55
ATOM     55  CG  GLN B 366       8.175  86.990  15.457  1.00 41.05 LIG 0.10  C 
BRANCH 55 56
ATOM     56  CD  GLN B 366       6.833  86.762  14.796  1.00 41.66 LIG 0.21  C 
ATOM     57 OE1  GLN B 366       5.797  86.669  15.470  1.00 35.58 LIG-0.27  OA
ATOM     58  NE2 GLN B 366       6.851  86.723  13.451  1.00 36.50 LIG-0.37  N 
ATOM     59 22HE GLN B 366       6.116  86.629  13.014  1.00 36.50 LIG 0.16  HD
ATOM     60 21HE GLN B 366       7.598  86.792  13.029  1.00 36.50 LIG 0.16  HD
ENDBRANCH 55 56
ENDBRANCH 54 55
ENDBRANCH 1 54
TORSDOF 25
ENDMDL
MODEL 28
USER: ADFR SOLUTION from run 88
USER: SCORE 15.463544 LL:  -3.423 LR: -15.313 RR:   0.000 FEB:  -7.856
USER: RMSD 5.541941
USER: SEED 87
USER: STATUS no improvement in best in 4 clusters for 5 generations
USER: GENES 27
USER: genes 0 Translation |==|  0.63868 0.42604 0.42637
USER: genes 1 Rotation |==|  0.04901 0.56470 0.62968 0.66002
USER: genes 2 Torsion [CB]-CA--N-[C] |==|  0.23842
USER: genes 3 Torsion [N]-C--CA-[N] |==|  0.87695
USER: genes 4 Torsion [C]-CA--N-[C] |==|  0.75203
USER: genes 5 Torsion [N]-C--CA-[N] |==|  0.11074
USER: genes 6 Torsion [C]-CA--CB-[CG] |==|  0.52400
USER: genes 7 Torsion [CA]-CB--CG-[OD2] |==|  0.75210
USER: genes 8 Torsion [C]-CA--N-[C] |==|  0.66658
USER: genes 9 Torsion [C]-CA--CB-[CG] |==|  0.39484
USER: genes 10 Torsion [CA]-CB--CG-[CD1] |==|  0.23919
USER: genes 11 Torsion [N]-CA--C-[N] |==|  0.45880
USER: genes 12 Torsion [C]-N--CA-[CB] |==|  0.23797
USER: genes 13 Torsion [N]-CA--CB-[CG2] |==|  0.07527
USER: genes 14 Torsion [CA]-CB--OG1-[HG1] |==|  0.11504
USER: genes 15 Torsion [N]-CA--C-[N] |==|  0.41144
USER: genes 16 Torsion [C]-N--CA-[CB] |==|  0.16375
USER: genes 17 Torsion [N]-CA--CB-[OG] |==|  0.12176
USER: genes 18 Torsion [CA]-CB--OG-[HG] |==|  0.97397
USER: genes 19 Torsion [N]-CA--C-[N] |==|  0.70246
USER: genes 20 Torsion [C]-N--CA-[CB] |==|  0.88549
USER: genes 21 Torsion [N]-CA--C-[OXT] |==|  0.90988
USER: genes 22 Torsion [N]-CA--CB-[CG2] |==|  0.31461
USER: genes 23 Torsion [CA]-CB--CG1-[CD1] |==|  0.85112
USER: genes 24 Torsion [N]-CA--CB-[CG] |==|  0.13648
USER: genes 25 Torsion [CA]-CB--CG-[CD] |==|  0.49382
USER: genes 26 Torsion [CB]-CG--CD-[OE1] |==|  0.43781
ROOT
ATOM      1  CA  GLN B 366      14.891  87.977  11.238  1.00 38.37 LIG 0.18  C 
ENDROOT
BRANCH 1 2
ATOM      2  N   GLN B 366      16.259  88.465  11.200  1.00 38.60 LIG-0.35  N 
ATOM      3 H    GLN B 366      16.418  89.114  11.742  1.00 38.60 LIG 0.16  HD
ATOM      4  C   LEU B 365      17.176  87.935  10.383  1.00 41.18 LIG 0.24  C 
ATOM      5 O    LEU B 365      16.950  86.979   9.613  1.00 36.84 LIG-0.27  OA
BRANCH 4 6
ATOM      6  CA  LEU B 365      18.531  88.629  10.402  1.00 40.54 LIG 0.18  C 
BRANCH 6 7
ATOM      7  N   LEU B 365      18.344  90.074  10.371  1.00 42.84 LIG-0.35  N 
ATOM      8  C   ASP B 364      18.270  90.711   9.209  1.00 57.74 LIG 0.24  C 
ATOM      9 O    ASP B 364      18.415  90.114   8.178  1.00 57.74 LIG-0.27  OA
ATOM     10 H    LEU B 365      18.288  90.451  11.141  1.00 42.84 LIG 0.16  HD
BRANCH 8 11
ATOM     11  CA  ASP B 364      18.045  92.219   9.178  1.00 64.41 LIG 0.19  C 
BRANCH 11 12
ATOM     12  CB  ASP B 364      18.500  92.828   7.868  1.00 67.32 LIG 0.15  C 
BRANCH 12 13
ATOM     13  CG  ASP B 364      18.480  94.309   7.898  1.00 64.46 LIG 0.17  C 
ATOM     14 OD2  ASP B 364      17.414  94.882   7.555  1.00 62.61 LIG-0.65  OA
ATOM     15 OD1  ASP B 364      19.555  94.875   8.256  1.00 62.85 LIG-0.65  OA
ENDBRANCH 12 13
ENDBRANCH 11 12
BRANCH 11 16
ATOM     16  N   ASP B 364      18.780  92.904  10.195  1.00 73.89 LIG-0.35  N 
ATOM     17  C   ACE B 363      18.241  93.633  11.134  1.00 53.98 LIG 0.21  C 
ATOM     18  CH3 ACE B 363      19.313  94.271  11.986  1.00 56.03 LIG 0.12  C 
ATOM     19 O    ACE B 363      17.003  93.753  11.315  1.00 54.37 LIG-0.27  OA
ATOM     20 H    ASP B 364      19.630  92.790  10.131  1.00 73.89 LIG 0.16  HD
ENDBRANCH 11 16
ENDBRANCH 8 11
ENDBRANCH 6 7
BRANCH 6 21
ATOM     21  CB  LEU B 365      19.325  88.134  11.645  1.00 44.28 LIG 0.04  C 
BRANCH 21 22
ATOM     22  CG  LEU B 365      20.826  87.916  11.500  1.00 49.51 LIG-0.02  C 
ATOM     23  CD1 LEU B 365      21.588  89.194  11.739  1.00 53.42 LIG 0.01  C 
ATOM     24  CD2 LEU B 365      21.308  86.780  12.452  1.00 51.82 LIG 0.01  C 
ENDBRANCH 21 22
ENDBRANCH 6 21
ENDBRANCH 4 6
ENDBRANCH 1 2
BRANCH 1 25
ATOM     25  C   GLN B 366      13.967  89.059  11.736  1.00 40.92 LIG 0.24  C 
ATOM     26  N   THR B 367      12.664  88.854  11.532  1.00 37.18 LIG-0.34  N 
ATOM     27 H    THR B 367      12.328  88.168  11.135  1.00 37.18 LIG 0.16  HD
ATOM     28 O    GLN B 366      14.418  90.005  12.394  1.00 43.39 LIG-0.27  OA
BRANCH 26 29
ATOM     29  CA  THR B 367      11.706  89.829  11.997  1.00 39.45 LIG 0.20  C 
BRANCH 29 30
ATOM     30  CB  THR B 367      11.508  90.945  10.964  1.00 41.55 LIG 0.15  C 
ATOM     31  CG2 THR B 367      11.804  90.397   9.596  1.00 46.47 LIG 0.04  C 
BRANCH 30 32
ATOM     32 OG1  THR B 367      10.169  91.429  11.066  1.00 42.44 LIG-0.39  OA
ATOM     33 HG1  THR B 367       9.954  91.491  11.875  1.00 42.44 LIG 0.21  HD
ENDBRANCH 30 32
ENDBRANCH 29 30
BRANCH 29 34
ATOM     34  C   THR B 367      10.400  89.123  12.244  1.00 39.06 LIG 0.24  C 
ATOM     35  N   SER B 368       9.682  89.628  13.214  1.00 40.73 LIG-0.34  N 
ATOM     36 H    SER B 368       9.951  90.265  13.727  1.00 40.73 LIG 0.16  HD
ATOM     37 O    THR B 367      10.024  88.227  11.474  1.00 38.11 LIG-0.27  OA
BRANCH 35 38
ATOM     38  CA  SER B 368       8.357  89.150  13.509  1.00 41.63 LIG 0.20  C 
BRANCH 38 39
ATOM     39  CB  SER B 368       8.409  87.664  13.841  1.00 43.79 LIG 0.20  C 
BRANCH 39 40
ATOM     40 OG   SER B 368       9.485  87.364  14.698  1.00 46.28 LIG-0.40  OA
ATOM     41 HG   SER B 368       9.982  88.037  14.771  1.00 46.28 LIG 0.21  HD
ENDBRANCH 39 40
ENDBRANCH 38 39
BRANCH 38 42
ATOM     42  C   SER B 368       7.807  89.928  14.686  1.00 44.50 LIG 0.24  C 
ATOM     43 O    SER B 368       7.526  91.109  14.550  1.00 47.26 LIG-0.27  OA
ATOM     44  N   ILE B 369       7.736  89.280  15.824  1.00 46.03 LIG-0.34  N 
ATOM     45 H    ILE B 369       8.067  88.497  15.948  1.00 46.03 LIG 0.16  HD
BRANCH 44 46
ATOM     46  CA  ILE B 369       7.069  89.848  17.010  1.00 49.82 LIG 0.19  C 
BRANCH 46 47
ATOM     47  C   ILE B 369       5.564  89.698  16.932  1.00 51.12 LIG 0.20  C 
ATOM     48 OXT  ILE B 369       5.027  89.739  15.841  1.00 48.45 LIG-0.65  OA
ATOM     49 O    ILE B 369       4.833  89.532  17.923  1.00 56.65 LIG-0.65  OA
ENDBRANCH 46 47
BRANCH 46 50
ATOM     50  CB  ILE B 369       7.415  91.304  17.129  1.00 51.86 LIG 0.01  C 
ATOM     51  CG2 ILE B 369       6.165  92.251  16.903  1.00 50.67 LIG 0.01  C 
BRANCH 50 52
ATOM     52  CG1 ILE B 369       8.043  91.615  18.465  1.00 48.80 LIG 0.00  C 
ATOM     53  CD1 ILE B 369       7.172  91.132  19.469  1.00 47.56 LIG 0.01  C 
ENDBRANCH 50 52
ENDBRANCH 46 50
ENDBRANCH 44 46
ENDBRANCH 38 42
ENDBRANCH 35 38
ENDBRANCH 29 34
ENDBRANCH 26 29
ENDBRANCH 1 25
BRANCH 1 54
ATOM     54  CB  GLN B 366      14.729  86.781  12.190  1.00 39.69 LIG 0.04  C 
BRANCH 54 55
ATOM     55  CG  GLN B 366      15.336  87.051  13.508  1.00 41.05 LIG 0.10  C 
BRANCH 55 56
ATOM     56  CD  GLN B 366      15.155  85.923  14.499  1.00 41.66 LIG 0.21  C 
ATOM     57 OE1  GLN B 366      15.918  85.796  15.468  1.00 35.58 LIG-0.27  OA
ATOM     58  NE2 GLN B 366      14.097  85.122  14.276  1.00 36.50 LIG-0.37  N 
ATOM     59 22HE GLN B 366      13.920  84.481  14.822  1.00 36.50 LIG 0.16  HD
ATOM     60 21HE GLN B 366      13.597  85.252  13.587  1.00 36.50 LIG 0.16  HD
ENDBRANCH 55 56
ENDBRANCH 54 55
ENDBRANCH 1 54
TORSDOF 25
ENDMDL
MODEL 29
USER: ADFR SOLUTION from run 50
USER: SCORE 16.356952 LL:  -4.434 LR: -15.266 RR:   0.000 FEB:  -7.809
USER: RMSD 13.056609
USER: SEED 49
USER: STATUS no improvement in best in 10 clusters for 5 generations
USER: GENES 27
USER: genes 0 Translation |==|  0.30295 0.67269 0.69673
USER: genes 1 Rotation |==|  0.57781 0.98626 0.54486 0.57409
USER: genes 2 Torsion [CB]-CA--N-[C] |==|  0.23604
USER: genes 3 Torsion [N]-C--CA-[N] |==|  0.19949
USER: genes 4 Torsion [C]-CA--N-[C] |==|  0.13757
USER: genes 5 Torsion [N]-C--CA-[N] |==|  0.94039
USER: genes 6 Torsion [C]-CA--CB-[CG] |==|  0.79827
USER: genes 7 Torsion [CA]-CB--CG-[OD2] |==|  0.18289
USER: genes 8 Torsion [C]-CA--N-[C] |==|  0.60090
USER: genes 9 Torsion [C]-CA--CB-[CG] |==|  0.34287
USER: genes 10 Torsion [CA]-CB--CG-[CD1] |==|  0.43134
USER: genes 11 Torsion [N]-CA--C-[N] |==|  0.88143
USER: genes 12 Torsion [C]-N--CA-[CB] |==|  0.49463
USER: genes 13 Torsion [N]-CA--CB-[CG2] |==|  0.24585
USER: genes 14 Torsion [CA]-CB--OG1-[HG1] |==|  0.16808
USER: genes 15 Torsion [N]-CA--C-[N] |==|  0.42580
USER: genes 16 Torsion [C]-N--CA-[CB] |==|  0.19886
USER: genes 17 Torsion [N]-CA--CB-[OG] |==|  0.90992
USER: genes 18 Torsion [CA]-CB--OG-[HG] |==|  0.27249
USER: genes 19 Torsion [N]-CA--C-[N] |==|  0.15556
USER: genes 20 Torsion [C]-N--CA-[CB] |==|  0.42934
USER: genes 21 Torsion [N]-CA--C-[OXT] |==|  0.65291
USER: genes 22 Torsion [N]-CA--CB-[CG2] |==|  0.60630
USER: genes 23 Torsion [CA]-CB--CG1-[CD1] |==|  0.67270
USER: genes 24 Torsion [N]-CA--CB-[CG] |==|  0.14472
USER: genes 25 Torsion [CA]-CB--CG-[CD] |==|  0.34225
USER: genes 26 Torsion [CB]-CG--CD-[OE1] |==|  0.95557
ROOT
ATOM      1  CA  GLN B 366       5.575  92.232  17.118  1.00 38.37 LIG 0.18  C 
ENDROOT
BRANCH 1 2
ATOM      2  N   GLN B 366       4.245  91.738  16.802  1.00 38.60 LIG-0.35  N 
ATOM      3 H    GLN B 366       4.207  90.890  16.662  1.00 38.60 LIG 0.16  HD
ATOM      4  C   LEU B 365       3.186  92.551  16.740  1.00 41.18 LIG 0.24  C 
ATOM      5 O    LEU B 365       3.238  93.778  16.965  1.00 36.84 LIG-0.27  OA
BRANCH 4 6
ATOM      6  CA  LEU B 365       1.889  91.884  16.302  1.00 40.54 LIG 0.18  C 
BRANCH 6 7
ATOM      7  N   LEU B 365       1.394  91.024  17.369  1.00 42.84 LIG-0.35  N 
ATOM      8  C   ASP B 364       1.297  91.489  18.608  1.00 57.74 LIG 0.24  C 
ATOM      9 O    ASP B 364       1.668  92.599  18.873  1.00 57.74 LIG-0.27  OA
ATOM     10 H    LEU B 365       1.183  90.227  17.126  1.00 42.84 LIG 0.16  HD
BRANCH 8 11
ATOM     11  CA  ASP B 364       0.752  90.595  19.718  1.00 64.41 LIG 0.19  C 
BRANCH 11 12
ATOM     12  CB  ASP B 364       1.864  89.946  20.513  1.00 67.32 LIG 0.15  C 
BRANCH 12 13
ATOM     13  CG  ASP B 364       2.549  88.875  19.754  1.00 64.46 LIG 0.17  C 
ATOM     14 OD2  ASP B 364       3.203  89.213  18.734  1.00 62.61 LIG-0.65  OA
ATOM     15 OD1  ASP B 364       2.403  87.696  20.194  1.00 62.85 LIG-0.65  OA
ENDBRANCH 12 13
ENDBRANCH 11 12
BRANCH 11 16
ATOM     16  N   ASP B 364      -0.041  89.517  19.215  1.00 73.89 LIG-0.35  N 
ATOM     17  C   ACE B 363      -1.108  89.045  19.802  1.00 53.98 LIG 0.21  C 
ATOM     18  CH3 ACE B 363      -1.648  87.860  19.038  1.00 56.03 LIG 0.12  C 
ATOM     19 O    ACE B 363      -1.622  89.538  20.838  1.00 54.37 LIG-0.27  OA
ATOM     20 H    ASP B 364       0.256  89.199  18.473  1.00 73.89 LIG 0.16  HD
ENDBRANCH 11 16
ENDBRANCH 8 11
ENDBRANCH 6 7
BRANCH 6 21
ATOM     21  CB  LEU B 365       0.880  92.991  15.881  1.00 44.28 LIG 0.04  C 
BRANCH 21 22
ATOM     22  CG  LEU B 365       0.292  92.932  14.476  1.00 49.51 LIG-0.02  C 
ATOM     23  CD1 LEU B 365      -1.038  93.639  14.412  1.00 53.42 LIG 0.01  C 
ATOM     24  CD2 LEU B 365       1.298  93.516  13.438  1.00 51.82 LIG 0.01  C 
ENDBRANCH 21 22
ENDBRANCH 6 21
ENDBRANCH 4 6
ENDBRANCH 1 2
BRANCH 1 25
ATOM     25  C   GLN B 366       6.622  91.294  16.572  1.00 40.92 LIG 0.24  C 
ATOM     26  N   THR B 367       6.382  89.991  16.736  1.00 37.18 LIG-0.34  N 
ATOM     27 H    THR B 367       5.694  89.663  17.134  1.00 37.18 LIG 0.16  HD
ATOM     28 O    GLN B 366       7.570  91.740  15.913  1.00 43.39 LIG-0.27  OA
BRANCH 26 29
ATOM     29  CA  THR B 367       7.323  89.022  16.225  1.00 39.45 LIG 0.20  C 
BRANCH 29 30
ATOM     30  CB  THR B 367       6.882  87.593  16.562  1.00 41.55 LIG 0.15  C 
ATOM     31  CG2 THR B 367       5.984  87.091  15.466  1.00 46.47 LIG 0.04  C 
BRANCH 30 32
ATOM     32 OG1  THR B 367       8.046  86.780  16.712  1.00 42.44 LIG-0.39  OA
ATOM     33 HG1  THR B 367       8.520  87.081  17.336  1.00 42.44 LIG 0.21  HD
ENDBRANCH 30 32
ENDBRANCH 29 30
BRANCH 29 34
ATOM     34  C   THR B 367       7.406  89.193  14.732  1.00 39.06 LIG 0.24  C 
ATOM     35  N   SER B 368       8.542  88.818  14.203  1.00 40.73 LIG-0.34  N 
ATOM     36 H    SER B 368       9.223  88.561  14.663  1.00 40.73 LIG 0.16  HD
ATOM     37 O    THR B 367       6.403  89.539  14.090  1.00 38.11 LIG-0.27  OA
BRANCH 35 38
ATOM     38  CA  SER B 368       8.751  88.804  12.779  1.00 41.63 LIG 0.20  C 
BRANCH 38 39
ATOM     39  CB  SER B 368       8.852  90.233  12.260  1.00 43.79 LIG 0.20  C 
BRANCH 39 40
ATOM     40 OG   SER B 368       8.047  91.112  13.010  1.00 46.28 LIG-0.40  OA
ATOM     41 HG   SER B 368       8.520  91.506  13.582  1.00 46.28 LIG 0.21  HD
ENDBRANCH 39 40
ENDBRANCH 38 39
BRANCH 38 42
ATOM     42  C   SER B 368      10.029  88.048  12.479  1.00 44.50 LIG 0.24  C 
ATOM     43 O    SER B 368      10.888  88.567  11.782  1.00 47.26 LIG-0.27  OA
ATOM     44  N   ILE B 369      10.096  86.823  12.943  1.00 46.03 LIG-0.34  N 
ATOM     45 H    ILE B 369       9.434  86.415  13.308  1.00 46.03 LIG 0.16  HD
BRANCH 44 46
ATOM     46  CA  ILE B 369      11.335  86.027  12.878  1.00 49.82 LIG 0.19  C 
BRANCH 46 47
ATOM     47  C   ILE B 369      11.486  85.334  11.539  1.00 51.12 LIG 0.20  C 
ATOM     48 OXT  ILE B 369      11.643  84.128  11.518  1.00 48.45 LIG-0.65  OA
ATOM     49 O    ILE B 369      11.457  85.926  10.447  1.00 56.65 LIG-0.65  OA
ENDBRANCH 46 47
BRANCH 46 50
ATOM     50  CB  ILE B 369      11.325  84.995  13.969  1.00 51.86 LIG 0.01  C 
ATOM     51  CG2 ILE B 369      12.751  84.781  14.623  1.00 50.67 LIG 0.01  C 
BRANCH 50 52
ATOM     52  CG1 ILE B 369      10.327  85.341  15.046  1.00 48.80 LIG 0.00  C 
ATOM     53  CD1 ILE B 369      11.045  85.527  16.250  1.00 47.56 LIG 0.01  C 
ENDBRANCH 50 52
ENDBRANCH 46 50
ENDBRANCH 44 46
ENDBRANCH 38 42
ENDBRANCH 35 38
ENDBRANCH 29 34
ENDBRANCH 26 29
ENDBRANCH 1 25
BRANCH 1 54
ATOM     54  CB  GLN B 366       5.813  92.328  18.634  1.00 39.69 LIG 0.04  C 
BRANCH 54 55
ATOM     55  CG  GLN B 366       5.493  91.058  19.314  1.00 41.05 LIG 0.10  C 
BRANCH 55 56
ATOM     56  CD  GLN B 366       6.648  90.492  20.110  1.00 41.66 LIG 0.21  C 
ATOM     57 OE1  GLN B 366       7.806  90.898  19.931  1.00 35.58 LIG-0.27  OA
ATOM     58  NE2 GLN B 366       6.316  89.577  21.039  1.00 36.50 LIG-0.37  N 
ATOM     59 22HE GLN B 366       6.923  89.241  21.548  1.00 36.50 LIG 0.16  HD
ATOM     60 21HE GLN B 366       5.497  89.328  21.124  1.00 36.50 LIG 0.16  HD
ENDBRANCH 55 56
ENDBRANCH 54 55
ENDBRANCH 1 54
TORSDOF 25
ENDMDL
MODEL 30
USER: ADFR SOLUTION from run 184
USER: SCORE 16.276885 LL:  -4.491 LR: -15.263 RR:   0.000 FEB:  -7.805
USER: RMSD 13.400288
USER: SEED 183
USER: STATUS no improvement in best in 4 clusters for 5 generations
USER: GENES 27
USER: genes 0 Translation |==|  0.24447 0.64998 0.73437
USER: genes 1 Rotation |==|  0.50446 0.03619 0.39342 0.65331
USER: genes 2 Torsion [CB]-CA--N-[C] |==|  0.40572
USER: genes 3 Torsion [N]-C--CA-[N] |==|  0.18197
USER: genes 4 Torsion [C]-CA--N-[C] |==|  0.15608
USER: genes 5 Torsion [N]-C--CA-[N] |==|  0.89071
USER: genes 6 Torsion [C]-CA--CB-[CG] |==|  0.98222
USER: genes 7 Torsion [CA]-CB--CG-[OD2] |==|  0.78684
USER: genes 8 Torsion [C]-CA--N-[C] |==|  0.82786
USER: genes 9 Torsion [C]-CA--CB-[CG] |==|  0.45934
USER: genes 10 Torsion [CA]-CB--CG-[CD1] |==|  0.97387
USER: genes 11 Torsion [N]-CA--C-[N] |==|  0.06001
USER: genes 12 Torsion [C]-N--CA-[CB] |==|  0.77975
USER: genes 13 Torsion [N]-CA--CB-[CG2] |==|  0.59404
USER: genes 14 Torsion [CA]-CB--OG1-[HG1] |==|  0.21553
USER: genes 15 Torsion [N]-CA--C-[N] |==|  0.17280
USER: genes 16 Torsion [C]-N--CA-[CB] |==|  0.21111
USER: genes 17 Torsion [N]-CA--CB-[OG] |==|  0.81697
USER: genes 18 Torsion [CA]-CB--OG-[HG] |==|  0.70829
USER: genes 19 Torsion [N]-CA--C-[N] |==|  0.48563
USER: genes 20 Torsion [C]-N--CA-[CB] |==|  0.54479
USER: genes 21 Torsion [N]-CA--C-[OXT] |==|  0.30301
USER: genes 22 Torsion [N]-CA--CB-[CG2] |==|  0.80691
USER: genes 23 Torsion [CA]-CB--CG1-[CD1] |==|  0.31135
USER: genes 24 Torsion [N]-CA--CB-[CG] |==|  0.13147
USER: genes 25 Torsion [CA]-CB--CG-[CD] |==|  0.53837
USER: genes 26 Torsion [CB]-CG--CD-[OE1] |==|  0.80969
ROOT
ATOM      1  CA  GLN B 366       3.952  91.840  17.936  1.00 38.37 LIG 0.18  C 
ENDROOT
BRANCH 1 2
ATOM      2  N   GLN B 366       3.042  90.784  18.347  1.00 38.60 LIG-0.35  N 
ATOM      3 H    GLN B 366       3.432  90.066  18.616  1.00 38.60 LIG 0.16  HD
ATOM      4  C   LEU B 365       1.715  90.939  18.302  1.00 41.18 LIG 0.24  C 
ATOM      5 O    LEU B 365       1.150  91.988  17.932  1.00 36.84 LIG-0.27  OA
BRANCH 4 6
ATOM      6  CA  LEU B 365       0.911  89.701  18.676  1.00 40.54 LIG 0.18  C 
BRANCH 6 7
ATOM      7  N   LEU B 365       1.136  89.373  20.077  1.00 42.84 LIG-0.35  N 
ATOM      8  C   ASP B 364       0.895  90.277  21.019  1.00 57.74 LIG 0.24  C 
ATOM      9 O    ASP B 364       0.547  91.386  20.723  1.00 57.74 LIG-0.27  OA
ATOM     10 H    LEU B 365       1.425  88.577  20.225  1.00 42.84 LIG 0.16  HD
BRANCH 8 11
ATOM     11  CA  ASP B 364       1.104  89.923  22.488  1.00 64.41 LIG 0.19  C 
BRANCH 11 12
ATOM     12  CB  ASP B 364       2.565  89.986  22.879  1.00 67.32 LIG 0.15  C 
BRANCH 12 13
ATOM     13  CG  ASP B 364       3.450  90.225  21.716  1.00 64.46 LIG 0.17  C 
ATOM     14 OD2  ASP B 364       3.681  89.253  20.952  1.00 62.61 LIG-0.65  OA
ATOM     15 OD1  ASP B 364       3.916  91.398  21.599  1.00 62.85 LIG-0.65  OA
ENDBRANCH 12 13
ENDBRANCH 11 12
BRANCH 11 16
ATOM     16  N   ASP B 364       0.681  88.593  22.798  1.00 73.89 LIG-0.35  N 
ATOM     17  C   ACE B 363      -0.544  88.159  22.679  1.00 53.98 LIG 0.21  C 
ATOM     18  CH3 ACE B 363      -0.648  86.734  23.167  1.00 56.03 LIG 0.12  C 
ATOM     19 O    ACE B 363      -1.489  88.831  22.193  1.00 54.37 LIG-0.27  OA
ATOM     20 H    ASP B 364       1.322  88.093  23.077  1.00 73.89 LIG 0.16  HD
ENDBRANCH 11 16
ENDBRANCH 8 11
ENDBRANCH 6 7
BRANCH 6 21
ATOM     21  CB  LEU B 365      -0.584  89.958  18.332  1.00 44.28 LIG 0.04  C 
BRANCH 21 22
ATOM     22  CG  LEU B 365      -1.530  88.763  18.295  1.00 49.51 LIG-0.02  C 
ATOM     23  CD1 LEU B 365      -0.771  87.464  18.388  1.00 53.42 LIG 0.01  C 
ATOM     24  CD2 LEU B 365      -2.600  88.878  19.423  1.00 51.82 LIG 0.01  C 
ENDBRANCH 21 22
ENDBRANCH 6 21
ENDBRANCH 4 6
ENDBRANCH 1 2
BRANCH 1 25
ATOM     25  C   GLN B 366       4.363  91.642  16.499  1.00 40.92 LIG 0.24  C 
ATOM     26  N   THR B 367       3.547  90.893  15.755  1.00 37.18 LIG-0.34  N 
ATOM     27 H    THR B 367       2.827  90.516  16.039  1.00 37.18 LIG 0.16  HD
ATOM     28 O    GLN B 366       5.340  92.252  16.045  1.00 43.39 LIG-0.27  OA
BRANCH 26 29
ATOM     29  CA  THR B 367       3.853  90.670  14.362  1.00 39.45 LIG 0.20  C 
BRANCH 29 30
ATOM     30  CB  THR B 367       3.453  91.878  13.508  1.00 41.55 LIG 0.15  C 
ATOM     31  CG2 THR B 367       2.995  91.390  12.162  1.00 46.47 LIG 0.04  C 
BRANCH 30 32
ATOM     32 OG1  THR B 367       2.428  92.600  14.190  1.00 42.44 LIG-0.39  OA
ATOM     33 HG1  THR B 367       2.769  93.058  14.805  1.00 42.44 LIG 0.21  HD
ENDBRANCH 30 32
ENDBRANCH 29 30
BRANCH 29 34
ATOM     34  C   THR B 367       5.333  90.425  14.241  1.00 39.06 LIG 0.24  C 
ATOM     35  N   SER B 368       5.765  89.366  14.876  1.00 40.73 LIG-0.34  N 
ATOM     36 H    SER B 368       5.270  88.879  15.385  1.00 40.73 LIG 0.16  HD
ATOM     37 O    THR B 367       6.018  91.124  13.480  1.00 38.11 LIG-0.27  OA
BRANCH 35 38
ATOM     38  CA  SER B 368       7.129  88.919  14.773  1.00 41.63 LIG 0.20  C 
BRANCH 38 39
ATOM     39  CB  SER B 368       8.029  89.816  15.613  1.00 43.79 LIG 0.20  C 
BRANCH 39 40
ATOM     40 OG   SER B 368       8.071  91.127  15.101  1.00 46.28 LIG-0.40  OA
ATOM     41 HG   SER B 368       8.805  91.254  14.713  1.00 46.28 LIG 0.21  HD
ENDBRANCH 39 40
ENDBRANCH 38 39
BRANCH 38 42
ATOM     42  C   SER B 368       7.213  87.488  15.263  1.00 44.50 LIG 0.24  C 
ATOM     43 O    SER B 368       6.245  86.978  15.806  1.00 47.26 LIG-0.27  OA
ATOM     44  N   ILE B 369       8.379  86.902  15.133  1.00 46.03 LIG-0.34  N 
ATOM     45 H    ILE B 369       9.093  87.311  14.883  1.00 46.03 LIG 0.16  HD
BRANCH 44 46
ATOM     46  CA  ILE B 369       8.570  85.466  15.407  1.00 49.82 LIG 0.19  C 
BRANCH 46 47
ATOM     47  C   ILE B 369       7.846  85.035  16.665  1.00 51.12 LIG 0.20  C 
ATOM     48 OXT  ILE B 369       6.861  84.329  16.562  1.00 48.45 LIG-0.65  OA
ATOM     49 O    ILE B 369       8.200  85.357  17.812  1.00 56.65 LIG-0.65  OA
ENDBRANCH 46 47
BRANCH 46 50
ATOM     50  CB  ILE B 369      10.036  85.176  15.556  1.00 51.86 LIG 0.01  C 
ATOM     51  CG2 ILE B 369      10.829  85.306  14.191  1.00 50.67 LIG 0.01  C 
BRANCH 50 52
ATOM     52  CG1 ILE B 369      10.672  86.069  16.592  1.00 48.80 LIG 0.00  C 
ATOM     53  CD1 ILE B 369      11.043  85.255  17.688  1.00 47.56 LIG 0.01  C 
ENDBRANCH 50 52
ENDBRANCH 46 50
ENDBRANCH 44 46
ENDBRANCH 38 42
ENDBRANCH 35 38
ENDBRANCH 29 34
ENDBRANCH 26 29
ENDBRANCH 1 25
BRANCH 1 54
ATOM     54  CB  GLN B 366       5.244  91.849  18.771  1.00 39.69 LIG 0.04  C 
BRANCH 54 55
ATOM     55  CG  GLN B 366       5.820  90.496  18.892  1.00 41.05 LIG 0.10  C 
BRANCH 55 56
ATOM     56  CD  GLN B 366       6.887  90.387  19.959  1.00 41.66 LIG 0.21  C 
ATOM     57 OE1  GLN B 366       7.983  90.953  19.825  1.00 35.58 LIG-0.27  OA
ATOM     58  NE2 GLN B 366       6.539  89.690  21.055  1.00 36.50 LIG-0.37  N 
ATOM     59 22HE GLN B 366       7.090  89.619  21.712  1.00 36.50 LIG 0.16  HD
ATOM     60 21HE GLN B 366       5.766  89.316  21.099  1.00 36.50 LIG 0.16  HD
ENDBRANCH 55 56
ENDBRANCH 54 55
ENDBRANCH 1 54
TORSDOF 25
ENDMDL
MODEL 31
USER: ADFR SOLUTION from run 112
USER: SCORE 18.673216 LL:  -5.155 LR: -15.208 RR:   0.000 FEB:  -7.751
USER: RMSD 11.538057
USER: SEED 111
USER: STATUS no improvement in best in 6 clusters for 5 generations
USER: GENES 27
USER: genes 0 Translation |==|  0.28226 0.69639 0.72740
USER: genes 1 Rotation |==|  0.52410 0.97857 0.64029 0.52653
USER: genes 2 Torsion [CB]-CA--N-[C] |==|  0.19135
USER: genes 3 Torsion [N]-C--CA-[N] |==|  0.87510
USER: genes 4 Torsion [C]-CA--N-[C] |==|  0.84692
USER: genes 5 Torsion [N]-C--CA-[N] |==|  0.53007
USER: genes 6 Torsion [C]-CA--CB-[CG] |==|  0.24431
USER: genes 7 Torsion [CA]-CB--CG-[OD2] |==|  0.45579
USER: genes 8 Torsion [C]-CA--N-[C] |==|  0.54909
USER: genes 9 Torsion [C]-CA--CB-[CG] |==|  0.13487
USER: genes 10 Torsion [CA]-CB--CG-[CD1] |==|  0.13670
USER: genes 11 Torsion [N]-CA--C-[N] |==|  0.03565
USER: genes 12 Torsion [C]-N--CA-[CB] |==|  0.15916
USER: genes 13 Torsion [N]-CA--CB-[CG2] |==|  0.12313
USER: genes 14 Torsion [CA]-CB--OG1-[HG1] |==|  0.17552
USER: genes 15 Torsion [N]-CA--C-[N] |==|  0.70556
USER: genes 16 Torsion [C]-N--CA-[CB] |==|  0.17210
USER: genes 17 Torsion [N]-CA--CB-[OG] |==|  0.76299
USER: genes 18 Torsion [CA]-CB--OG-[HG] |==|  0.95431
USER: genes 19 Torsion [N]-CA--C-[N] |==|  0.08066
USER: genes 20 Torsion [C]-N--CA-[CB] |==|  0.29959
USER: genes 21 Torsion [N]-CA--C-[OXT] |==|  0.06719
USER: genes 22 Torsion [N]-CA--CB-[CG2] |==|  0.86574
USER: genes 23 Torsion [CA]-CB--CG1-[CD1] |==|  0.44080
USER: genes 24 Torsion [N]-CA--CB-[CG] |==|  0.22774
USER: genes 25 Torsion [CA]-CB--CG-[CD] |==|  0.63000
USER: genes 26 Torsion [CB]-CG--CD-[OE1] |==|  0.15853
ROOT
ATOM      1  CA  GLN B 366       5.001  92.641  17.785  1.00 38.37 LIG 0.18  C 
ENDROOT
BRANCH 1 2
ATOM      2  N   GLN B 366       3.806  91.925  17.370  1.00 38.60 LIG-0.35  N 
ATOM      3 H    GLN B 366       3.940  91.342  16.753  1.00 38.60 LIG 0.16  HD
ATOM      4  C   LEU B 365       2.610  92.171  17.917  1.00 41.18 LIG 0.24  C 
ATOM      5 O    LEU B 365       2.421  93.003  18.827  1.00 36.84 LIG-0.27  OA
BRANCH 4 6
ATOM      6  CA  LEU B 365       1.451  91.402  17.298  1.00 40.54 LIG 0.18  C 
BRANCH 6 7
ATOM      7  N   LEU B 365       1.549  91.450  15.845  1.00 42.84 LIG-0.35  N 
ATOM      8  C   ASP B 364       1.624  92.619  15.221  1.00 57.74 LIG 0.24  C 
ATOM      9 O    ASP B 364       1.553  93.645  15.840  1.00 57.74 LIG-0.27  OA
ATOM     10 H    LEU B 365       1.554  90.685  15.454  1.00 42.84 LIG 0.16  HD
BRANCH 8 11
ATOM     11  CA  ASP B 364       1.755  92.668  13.702  1.00 64.41 LIG 0.19  C 
BRANCH 11 12
ATOM     12  CB  ASP B 364       2.871  91.773  13.206  1.00 67.32 LIG 0.15  C 
BRANCH 12 13
ATOM     13  CG  ASP B 364       2.415  90.387  12.958  1.00 64.46 LIG 0.17  C 
ATOM     14 OD2  ASP B 364       3.158  89.645  12.265  1.00 62.61 LIG-0.65  OA
ATOM     15 OD1  ASP B 364       1.295  90.069  13.458  1.00 62.85 LIG-0.65  OA
ENDBRANCH 12 13
ENDBRANCH 11 12
BRANCH 11 16
ATOM     16  N   ASP B 364       2.068  93.976  13.220  1.00 73.89 LIG-0.35  N 
ATOM     17  C   ACE B 363       1.914  94.367  11.983  1.00 53.98 LIG 0.21  C 
ATOM     18  CH3 ACE B 363       2.418  95.780  11.811  1.00 56.03 LIG 0.12  C 
ATOM     19 O    ACE B 363       1.389  93.667  11.081  1.00 54.37 LIG-0.27  OA
ATOM     20 H    ASP B 364       2.375  94.496  13.832  1.00 73.89 LIG 0.16  HD
ENDBRANCH 11 16
ENDBRANCH 8 11
ENDBRANCH 6 7
BRANCH 6 21
ATOM     21  CB  LEU B 365       1.454  89.956  17.871  1.00 44.28 LIG 0.04  C 
BRANCH 21 22
ATOM     22  CG  LEU B 365       1.570  89.780  19.380  1.00 49.51 LIG-0.02  C 
ATOM     23  CD1 LEU B 365       0.588  90.661  20.109  1.00 53.42 LIG 0.01  C 
ATOM     24  CD2 LEU B 365       1.390  88.282  19.772  1.00 51.82 LIG 0.01  C 
ENDBRANCH 21 22
ENDBRANCH 6 21
ENDBRANCH 4 6
ENDBRANCH 1 2
BRANCH 1 25
ATOM     25  C   GLN B 366       6.155  92.295  16.878  1.00 40.92 LIG 0.24  C 
ATOM     26  N   THR B 367       5.841  91.652  15.751  1.00 37.18 LIG-0.34  N 
ATOM     27 H    THR B 367       5.045  91.418  15.523  1.00 37.18 LIG 0.16  HD
ATOM     28 O    GLN B 366       7.293  92.706  17.140  1.00 43.39 LIG-0.27  OA
BRANCH 26 29
ATOM     29  CA  THR B 367       6.883  91.302  14.815  1.00 39.45 LIG 0.20  C 
BRANCH 29 30
ATOM     30  CB  THR B 367       7.957  90.435  15.482  1.00 41.55 LIG 0.15  C 
ATOM     31  CG2 THR B 367       7.282  89.384  16.319  1.00 46.47 LIG 0.04  C 
BRANCH 30 32
ATOM     32 OG1  THR B 367       8.777  89.861  14.465  1.00 42.44 LIG-0.39  OA
ATOM     33 HG1  THR B 367       9.174  90.471  14.047  1.00 42.44 LIG 0.21  HD
ENDBRANCH 30 32
ENDBRANCH 29 30
BRANCH 29 34
ATOM     34  C   THR B 367       6.253  90.549  13.674  1.00 39.06 LIG 0.24  C 
ATOM     35  N   SER B 368       6.488  89.262  13.675  1.00 40.73 LIG-0.34  N 
ATOM     36 H    SER B 368       7.016  88.872  14.231  1.00 40.73 LIG 0.16  HD
ATOM     37 O    THR B 367       5.475  91.128  12.903  1.00 38.11 LIG-0.27  OA
BRANCH 35 38
ATOM     38  CA  SER B 368       5.870  88.375  12.725  1.00 41.63 LIG 0.20  C 
BRANCH 38 39
ATOM     39  CB  SER B 368       6.294  88.757  11.313  1.00 43.79 LIG 0.20  C 
BRANCH 39 40
ATOM     40 OG   SER B 368       5.475  89.773  10.785  1.00 46.28 LIG-0.40  OA
ATOM     41 HG   SER B 368       4.772  89.832  11.241  1.00 46.28 LIG 0.21  HD
ENDBRANCH 39 40
ENDBRANCH 38 39
BRANCH 38 42
ATOM     42  C   SER B 368       6.297  86.954  13.032  1.00 44.50 LIG 0.24  C 
ATOM     43 O    SER B 368       6.297  86.118  12.142  1.00 47.26 LIG-0.27  OA
ATOM     44  N   ILE B 369       6.576  86.696  14.287  1.00 46.03 LIG-0.34  N 
ATOM     45 H    ILE B 369       6.437  87.248  14.930  1.00 46.03 LIG 0.16  HD
BRANCH 44 46
ATOM     46  CA  ILE B 369       7.165  85.412  14.711  1.00 49.82 LIG 0.19  C 
BRANCH 46 47
ATOM     47  C   ILE B 369       6.416  84.813  15.884  1.00 51.12 LIG 0.20  C 
ATOM     48 OXT  ILE B 369       5.254  85.128  16.060  1.00 48.45 LIG-0.65  OA
ATOM     49 O    ILE B 369       6.918  84.008  16.687  1.00 56.65 LIG-0.65  OA
ENDBRANCH 46 47
BRANCH 46 50
ATOM     50  CB  ILE B 369       8.600  85.622  15.097  1.00 51.86 LIG 0.01  C 
ATOM     51  CG2 ILE B 369       9.409  86.454  14.018  1.00 50.67 LIG 0.01  C 
BRANCH 50 52
ATOM     52  CG1 ILE B 369       8.717  86.298  16.440  1.00 48.80 LIG 0.00  C 
ATOM     53  CD1 ILE B 369      10.008  86.019  16.948  1.00 47.56 LIG 0.01  C 
ENDBRANCH 50 52
ENDBRANCH 46 50
ENDBRANCH 44 46
ENDBRANCH 38 42
ENDBRANCH 35 38
ENDBRANCH 29 34
ENDBRANCH 26 29
ENDBRANCH 1 25
BRANCH 1 54
ATOM     54  CB  GLN B 366       5.432  92.269  19.214  1.00 39.69 LIG 0.04  C 
BRANCH 54 55
ATOM     55  CG  GLN B 366       6.209  91.014  19.236  1.00 41.05 LIG 0.10  C 
BRANCH 55 56
ATOM     56  CD  GLN B 366       5.761  90.046  20.308  1.00 41.66 LIG 0.21  C 
ATOM     57 OE1  GLN B 366       4.588  89.645  20.357  1.00 35.58 LIG-0.27  OA
ATOM     58  NE2 GLN B 366       6.725  89.628  21.148  1.00 36.50 LIG-0.37  N 
ATOM     59 22HE GLN B 366       6.542  89.052  21.760  1.00 36.50 LIG 0.16  HD
ATOM     60 21HE GLN B 366       7.524  89.937  21.073  1.00 36.50 LIG 0.16  HD
ENDBRANCH 55 56
ENDBRANCH 54 55
ENDBRANCH 1 54
TORSDOF 25
ENDMDL
MODEL 32
USER: ADFR SOLUTION from run 23
USER: SCORE 18.574324 LL:  -5.548 LR: -15.193 RR:   0.000 FEB:  -7.736
USER: RMSD 12.522378
USER: SEED 22
USER: STATUS 1 or 2 clusters left
USER: GENES 27
USER: genes 0 Translation |==|  0.30826 0.67458 0.73238
USER: genes 1 Rotation |==|  0.38573 0.03983 0.38340 0.60765
USER: genes 2 Torsion [CB]-CA--N-[C] |==|  0.21145
USER: genes 3 Torsion [N]-C--CA-[N] |==|  0.94675
USER: genes 4 Torsion [C]-CA--N-[C] |==|  0.81824
USER: genes 5 Torsion [N]-C--CA-[N] |==|  0.51774
USER: genes 6 Torsion [C]-CA--CB-[CG] |==|  0.17583
USER: genes 7 Torsion [CA]-CB--CG-[OD2] |==|  0.19464
USER: genes 8 Torsion [C]-CA--N-[C] |==|  0.80556
USER: genes 9 Torsion [C]-CA--CB-[CG] |==|  0.60829
USER: genes 10 Torsion [CA]-CB--CG-[CD1] |==|  0.50320
USER: genes 11 Torsion [N]-CA--C-[N] |==|  0.96202
USER: genes 12 Torsion [C]-N--CA-[CB] |==|  0.79423
USER: genes 13 Torsion [N]-CA--CB-[CG2] |==|  0.56287
USER: genes 14 Torsion [CA]-CB--OG1-[HG1] |==|  0.18953
USER: genes 15 Torsion [N]-CA--C-[N] |==|  0.22795
USER: genes 16 Torsion [C]-N--CA-[CB] |==|  0.48934
USER: genes 17 Torsion [N]-CA--CB-[OG] |==|  0.52236
USER: genes 18 Torsion [CA]-CB--OG-[HG] |==|  0.02211
USER: genes 19 Torsion [N]-CA--C-[N] |==|  0.43744
USER: genes 20 Torsion [C]-N--CA-[CB] |==|  0.28376
USER: genes 21 Torsion [N]-CA--C-[OXT] |==|  0.02052
USER: genes 22 Torsion [N]-CA--CB-[CG2] |==|  0.81907
USER: genes 23 Torsion [CA]-CB--CG1-[CD1] |==|  0.31516
USER: genes 24 Torsion [N]-CA--CB-[CG] |==|  0.15183
USER: genes 25 Torsion [CA]-CB--CG-[CD] |==|  0.72655
USER: genes 26 Torsion [CB]-CG--CD-[OE1] |==|  0.24933
ROOT
ATOM      1  CA  GLN B 366       5.722  92.265  17.893  1.00 38.37 LIG 0.18  C 
ENDROOT
BRANCH 1 2
ATOM      2  N   GLN B 366       4.404  91.819  18.311  1.00 38.60 LIG-0.35  N 
ATOM      3 H    GLN B 366       4.083  91.175  17.841  1.00 38.60 LIG 0.16  HD
ATOM      4  C   LEU B 365       3.765  92.378  19.344  1.00 41.18 LIG 0.24  C 
ATOM      5 O    LEU B 365       4.241  93.298  20.040  1.00 36.84 LIG-0.27  OA
BRANCH 4 6
ATOM      6  CA  LEU B 365       2.354  91.857  19.585  1.00 40.54 LIG 0.18  C 
BRANCH 6 7
ATOM      7  N   LEU B 365       1.860  91.203  18.380  1.00 42.84 LIG-0.35  N 
ATOM      8  C   ASP B 364       1.653  91.909  17.276  1.00 57.74 LIG 0.24  C 
ATOM      9 O    ASP B 364       1.815  93.098  17.275  1.00 57.74 LIG-0.27  OA
ATOM     10 H    LEU B 365       1.723  90.357  18.454  1.00 42.84 LIG 0.16  HD
BRANCH 8 11
ATOM     11  CA  ASP B 364       1.163  91.218  16.008  1.00 64.41 LIG 0.19  C 
BRANCH 11 12
ATOM     12  CB  ASP B 364       2.067  90.073  15.606  1.00 67.32 LIG 0.15  C 
BRANCH 12 13
ATOM     13  CG  ASP B 364       2.094  88.993  16.620  1.00 64.46 LIG 0.17  C 
ATOM     14 OD2  ASP B 364       1.054  88.297  16.755  1.00 62.61 LIG-0.65  OA
ATOM     15 OD1  ASP B 364       3.168  88.873  17.281  1.00 62.85 LIG-0.65  OA
ENDBRANCH 12 13
ENDBRANCH 11 12
BRANCH 11 16
ATOM     16  N   ASP B 364       1.133  92.097  14.880  1.00 73.89 LIG-0.35  N 
ATOM     17  C   ACE B 363       0.292  93.085  14.733  1.00 53.98 LIG 0.21  C 
ATOM     18  CH3 ACE B 363       0.493  93.752  13.393  1.00 56.03 LIG 0.12  C 
ATOM     19 O    ACE B 363      -0.539  93.442  15.605  1.00 54.37 LIG-0.27  OA
ATOM     20 H    ASP B 364       1.734  91.911  14.293  1.00 73.89 LIG 0.16  HD
ENDBRANCH 11 16
ENDBRANCH 8 11
ENDBRANCH 6 7
BRANCH 6 21
ATOM     21  CB  LEU B 365       2.376  90.926  20.831  1.00 44.28 LIG 0.04  C 
BRANCH 21 22
ATOM     22  CG  LEU B 365       1.521  89.664  20.801  1.00 49.51 LIG-0.02  C 
ATOM     23  CD1 LEU B 365       1.637  88.897  22.093  1.00 53.42 LIG 0.01  C 
ATOM     24  CD2 LEU B 365       0.036  90.018  20.482  1.00 51.82 LIG 0.01  C 
ENDBRANCH 21 22
ENDBRANCH 6 21
ENDBRANCH 4 6
ENDBRANCH 1 2
BRANCH 1 25
ATOM     25  C   GLN B 366       6.040  91.731  16.519  1.00 40.92 LIG 0.24  C 
ATOM     26  N   THR B 367       5.241  90.760  16.070  1.00 37.18 LIG-0.34  N 
ATOM     27 H    THR B 367       4.583  90.421  16.508  1.00 37.18 LIG 0.16  HD
ATOM     28 O    GLN B 366       6.920  92.268  15.834  1.00 43.39 LIG-0.27  OA
BRANCH 26 29
ATOM     29  CA  THR B 367       5.461  90.206  14.754  1.00 39.45 LIG 0.20  C 
BRANCH 29 30
ATOM     30  CB  THR B 367       5.005  91.180  13.662  1.00 41.55 LIG 0.15  C 
ATOM     31  CG2 THR B 367       4.725  90.403  12.406  1.00 46.47 LIG 0.04  C 
BRANCH 30 32
ATOM     32 OG1  THR B 367       3.849  91.878  14.125  1.00 42.44 LIG-0.39  OA
ATOM     33 HG1  THR B 367       4.064  92.389  14.755  1.00 42.44 LIG 0.21  HD
ENDBRANCH 30 32
ENDBRANCH 29 30
BRANCH 29 34
ATOM     34  C   THR B 367       6.931  89.921  14.605  1.00 39.06 LIG 0.24  C 
ATOM     35  N   SER B 368       7.323  88.790  15.132  1.00 40.73 LIG-0.34  N 
ATOM     36 H    SER B 368       6.812  88.274  15.593  1.00 40.73 LIG 0.16  HD
ATOM     37 O    THR B 367       7.640  90.667  13.913  1.00 38.11 LIG-0.27  OA
BRANCH 35 38
ATOM     38  CA  SER B 368       8.670  88.307  14.981  1.00 41.63 LIG 0.20  C 
BRANCH 38 39
ATOM     39  CB  SER B 368       8.848  87.022  15.780  1.00 43.79 LIG 0.20  C 
BRANCH 39 40
ATOM     40 OG   SER B 368      10.196  86.614  15.807  1.00 46.28 LIG-0.40  OA
ATOM     41 HG   SER B 368      10.677  87.213  15.468  1.00 46.28 LIG 0.21  HD
ENDBRANCH 39 40
ENDBRANCH 38 39
BRANCH 38 42
ATOM     42  C   SER B 368       8.935  88.049  13.512  1.00 44.50 LIG 0.24  C 
ATOM     43 O    SER B 368       8.003  87.789  12.767  1.00 47.26 LIG-0.27  OA
ATOM     44  N   ILE B 369      10.194  88.052  13.144  1.00 46.03 LIG-0.34  N 
ATOM     45 H    ILE B 369      10.852  88.093  13.696  1.00 46.03 LIG 0.16  HD
BRANCH 44 46
ATOM     46  CA  ILE B 369      10.597  87.985  11.728  1.00 49.82 LIG 0.19  C 
BRANCH 46 47
ATOM     47  C   ILE B 369      11.754  87.030  11.519  1.00 51.12 LIG 0.20  C 
ATOM     48 OXT  ILE B 369      12.123  86.343  12.454  1.00 48.45 LIG-0.65  OA
ATOM     49 O    ILE B 369      12.357  86.897  10.441  1.00 56.65 LIG-0.65  OA
ENDBRANCH 46 47
BRANCH 46 50
ATOM     50  CB  ILE B 369      10.997  89.354  11.256  1.00 51.86 LIG 0.01  C 
ATOM     51  CG2 ILE B 369       9.788  90.378  11.253  1.00 50.67 LIG 0.01  C 
BRANCH 50 52
ATOM     52  CG1 ILE B 369      12.126  89.915  12.083  1.00 48.80 LIG 0.00  C 
ATOM     53  CD1 ILE B 369      13.261  90.014  11.244  1.00 47.56 LIG 0.01  C 
ENDBRANCH 50 52
ENDBRANCH 46 50
ENDBRANCH 44 46
ENDBRANCH 38 42
ENDBRANCH 35 38
ENDBRANCH 29 34
ENDBRANCH 26 29
ENDBRANCH 1 25
BRANCH 1 54
ATOM     54  CB  GLN B 366       6.830  91.759  18.833  1.00 39.69 LIG 0.04  C 
BRANCH 54 55
ATOM     55  CG  GLN B 366       6.787  90.291  18.980  1.00 41.05 LIG 0.10  C 
BRANCH 55 56
ATOM     56  CD  GLN B 366       6.082  89.831  20.237  1.00 41.66 LIG 0.21  C 
ATOM     57 OE1  GLN B 366       4.861  89.615  20.240  1.00 35.58 LIG-0.27  OA
ATOM     58  NE2 GLN B 366       6.876  89.631  21.304  1.00 36.50 LIG-0.37  N 
ATOM     59 22HE GLN B 366       6.541  89.338  22.040  1.00 36.50 LIG 0.16  HD
ATOM     60 21HE GLN B 366       7.719  89.796  21.250  1.00 36.50 LIG 0.16  HD
ENDBRANCH 55 56
ENDBRANCH 54 55
ENDBRANCH 1 54
TORSDOF 25
ENDMDL
MODEL 33
USER: ADFR SOLUTION from run 163
USER: SCORE 16.776116 LL:  -4.713 LR: -15.189 RR:   0.000 FEB:  -7.732
USER: RMSD 12.110060
USER: SEED 162
USER: STATUS no improvement in best in 12 clusters for 5 generations
USER: GENES 27
USER: genes 0 Translation |==|  0.39854 0.56449 0.55568
USER: genes 1 Rotation |==|  0.34644 0.03050 0.42416 0.51556
USER: genes 2 Torsion [CB]-CA--N-[C] |==|  0.20799
USER: genes 3 Torsion [N]-C--CA-[N] |==|  0.39359
USER: genes 4 Torsion [C]-CA--N-[C] |==|  0.78118
USER: genes 5 Torsion [N]-C--CA-[N] |==|  0.61420
USER: genes 6 Torsion [C]-CA--CB-[CG] |==|  0.20071
USER: genes 7 Torsion [CA]-CB--CG-[OD2] |==|  0.14072
USER: genes 8 Torsion [C]-CA--N-[C] |==|  0.13513
USER: genes 9 Torsion [C]-CA--CB-[CG] |==|  0.50561
USER: genes 10 Torsion [CA]-CB--CG-[CD1] |==|  0.92077
USER: genes 11 Torsion [N]-CA--C-[N] |==|  0.66305
USER: genes 12 Torsion [C]-N--CA-[CB] |==|  0.81667
USER: genes 13 Torsion [N]-CA--CB-[CG2] |==|  0.56540
USER: genes 14 Torsion [CA]-CB--OG1-[HG1] |==|  0.78711
USER: genes 15 Torsion [N]-CA--C-[N] |==|  0.18908
USER: genes 16 Torsion [C]-N--CA-[CB] |==|  0.20553
USER: genes 17 Torsion [N]-CA--CB-[OG] |==|  0.04162
USER: genes 18 Torsion [CA]-CB--OG-[HG] |==|  0.11639
USER: genes 19 Torsion [N]-CA--C-[N] |==|  0.47448
USER: genes 20 Torsion [C]-N--CA-[CB] |==|  0.26540
USER: genes 21 Torsion [N]-CA--C-[OXT] |==|  0.31543
USER: genes 22 Torsion [N]-CA--CB-[CG2] |==|  0.77628
USER: genes 23 Torsion [CA]-CB--CG1-[CD1] |==|  0.60522
USER: genes 24 Torsion [N]-CA--CB-[CG] |==|  0.03860
USER: genes 25 Torsion [CA]-CB--CG-[CD] |==|  0.25874
USER: genes 26 Torsion [CB]-CG--CD-[OE1] |==|  0.58980
ROOT
ATOM      1  CA  GLN B 366       8.227  90.366  14.050  1.00 38.37 LIG 0.18  C 
ENDROOT
BRANCH 1 2
ATOM      2  N   GLN B 366       6.782  90.259  14.160  1.00 38.60 LIG-0.35  N 
ATOM      3 H    GLN B 366       6.448  89.567  13.774  1.00 38.60 LIG 0.16  HD
ATOM      4  C   LEU B 365       6.055  91.173  14.812  1.00 41.18 LIG 0.24  C 
ATOM      5 O    LEU B 365       6.543  92.165  15.390  1.00 36.84 LIG-0.27  OA
BRANCH 4 6
ATOM      6  CA  LEU B 365       4.549  90.960  14.747  1.00 40.54 LIG 0.18  C 
BRANCH 6 7
ATOM      7  N   LEU B 365       3.948  91.298  16.030  1.00 42.84 LIG-0.35  N 
ATOM      8  C   ASP B 364       4.012  90.440  17.041  1.00 57.74 LIG 0.24  C 
ATOM      9 O    ASP B 364       4.511  89.359  16.892  1.00 57.74 LIG-0.27  OA
ATOM     10 H    LEU B 365       3.569  92.068  16.065  1.00 42.84 LIG 0.16  HD
BRANCH 8 11
ATOM     11  CA  ASP B 364       3.408  90.807  18.393  1.00 64.41 LIG 0.19  C 
BRANCH 11 12
ATOM     12  CB  ASP B 364       3.235  92.303  18.544  1.00 67.32 LIG 0.15  C 
BRANCH 12 13
ATOM     13  CG  ASP B 364       2.133  92.831  17.707  1.00 64.46 LIG 0.17  C 
ATOM     14 OD2  ASP B 364       1.017  92.256  17.786  1.00 62.61 LIG-0.65  OA
ATOM     15 OD1  ASP B 364       2.418  93.817  16.964  1.00 62.85 LIG-0.65  OA
ENDBRANCH 12 13
ENDBRANCH 11 12
BRANCH 11 16
ATOM     16  N   ASP B 364       4.231  90.403  19.490  1.00 73.89 LIG-0.35  N 
ATOM     17  C   ACE B 363       5.512  90.637  19.580  1.00 53.98 LIG 0.21  C 
ATOM     18  CH3 ACE B 363       6.077  90.003  20.829  1.00 56.03 LIG 0.12  C 
ATOM     19 O    ACE B 363       6.166  91.324  18.754  1.00 54.37 LIG-0.27  OA
ATOM     20 H    ASP B 364       3.795  89.982  20.100  1.00 73.89 LIG 0.16  HD
ENDBRANCH 11 16
ENDBRANCH 8 11
ENDBRANCH 6 7
BRANCH 6 21
ATOM     21  CB  LEU B 365       3.981  91.790  13.560  1.00 44.28 LIG 0.04  C 
BRANCH 21 22
ATOM     22  CG  LEU B 365       2.476  91.771  13.324  1.00 49.51 LIG-0.02  C 
ATOM     23  CD1 LEU B 365       1.865  90.479  13.800  1.00 53.42 LIG 0.01  C 
ATOM     24  CD2 LEU B 365       1.801  93.003  14.001  1.00 51.82 LIG 0.01  C 
ENDBRANCH 21 22
ENDBRANCH 6 21
ENDBRANCH 4 6
ENDBRANCH 1 2
BRANCH 1 25
ATOM     25  C   GLN B 366       8.741  89.409  13.003  1.00 40.92 LIG 0.24  C 
ATOM     26  N   THR B 367       9.630  88.506  13.422  1.00 37.18 LIG-0.34  N 
ATOM     27 H    THR B 367       9.930  88.445  14.226  1.00 37.18 LIG 0.16  HD
ATOM     28 O    GLN B 366       8.255  89.417  11.865  1.00 43.39 LIG-0.27  OA
BRANCH 26 29
ATOM     29  CA  THR B 367      10.158  87.538  12.490  1.00 39.45 LIG 0.20  C 
BRANCH 29 30
ATOM     30  CB  THR B 367       9.063  86.580  12.009  1.00 41.55 LIG 0.15  C 
ATOM     31  CG2 THR B 367       9.706  85.303  11.543  1.00 46.47 LIG 0.04  C 
BRANCH 30 32
ATOM     32 OG1  THR B 367       8.149  86.355  13.082  1.00 42.44 LIG-0.39  OA
ATOM     33 HG1  THR B 367       8.490  85.822  13.634  1.00 42.44 LIG 0.21  HD
ENDBRANCH 30 32
ENDBRANCH 29 30
BRANCH 29 34
ATOM     34  C   THR B 367      10.737  88.284  11.317  1.00 39.06 LIG 0.24  C 
ATOM     35  N   SER B 368      11.809  88.982  11.590  1.00 40.73 LIG-0.34  N 
ATOM     36 H    SER B 368      12.129  89.078  12.384  1.00 40.73 LIG 0.16  HD
ATOM     37 O    THR B 367      10.275  88.107  10.181  1.00 38.11 LIG-0.27  OA
BRANCH 35 38
ATOM     38  CA  SER B 368      12.556  89.661  10.565  1.00 41.63 LIG 0.20  C 
BRANCH 38 39
ATOM     39  CB  SER B 368      11.792  90.896  10.104  1.00 43.79 LIG 0.20  C 
BRANCH 39 40
ATOM     40 OG   SER B 368      10.764  91.232  11.006  1.00 46.28 LIG-0.40  OA
ATOM     41 HG   SER B 368      11.043  91.149  11.794  1.00 46.28 LIG 0.21  HD
ENDBRANCH 39 40
ENDBRANCH 38 39
BRANCH 38 42
ATOM     42  C   SER B 368      13.905  90.061  11.127  1.00 44.50 LIG 0.24  C 
ATOM     43 O    SER B 368      14.098  90.004  12.332  1.00 47.26 LIG-0.27  OA
ATOM     44  N   ILE B 369      14.775  90.525  10.263  1.00 46.03 LIG-0.34  N 
ATOM     45 H    ILE B 369      14.587  90.697   9.442  1.00 46.03 LIG 0.16  HD
BRANCH 44 46
ATOM     46  CA  ILE B 369      16.177  90.794  10.629  1.00 49.82 LIG 0.19  C 
BRANCH 46 47
ATOM     47  C   ILE B 369      16.714  92.023   9.925  1.00 51.12 LIG 0.20  C 
ATOM     48 OXT  ILE B 369      16.996  93.003  10.589  1.00 48.45 LIG-0.65  OA
ATOM     49 O    ILE B 369      16.890  92.096   8.697  1.00 56.65 LIG-0.65  OA
ENDBRANCH 46 47
BRANCH 46 50
ATOM     50  CB  ILE B 369      17.026  89.609  10.269  1.00 51.86 LIG 0.01  C 
ATOM     51  CG2 ILE B 369      16.945  88.448  11.343  1.00 50.67 LIG 0.01  C 
BRANCH 50 52
ATOM     52  CG1 ILE B 369      16.661  89.061   8.912  1.00 48.80 LIG 0.00  C 
ATOM     53  CD1 ILE B 369      16.751  87.651   8.982  1.00 47.56 LIG 0.01  C 
ENDBRANCH 50 52
ENDBRANCH 46 50
ENDBRANCH 44 46
ENDBRANCH 38 42
ENDBRANCH 35 38
ENDBRANCH 29 34
ENDBRANCH 26 29
ENDBRANCH 1 25
BRANCH 1 54
ATOM     54  CB  GLN B 366       8.937  90.005  15.366  1.00 39.69 LIG 0.04  C 
BRANCH 54 55
ATOM     55  CG  GLN B 366       8.022  89.331  16.308  1.00 41.05 LIG 0.10  C 
BRANCH 55 56
ATOM     56  CD  GLN B 366       8.064  87.822  16.214  1.00 41.66 LIG 0.21  C 
ATOM     57 OE1  GLN B 366       7.051  87.141  16.433  1.00 35.58 LIG-0.27  OA
ATOM     58  NE2 GLN B 366       9.244  87.300  15.833  1.00 36.50 LIG-0.37  N 
ATOM     59 22HE GLN B 366       9.324  86.449  15.729  1.00 36.50 LIG 0.16  HD
ATOM     60 21HE GLN B 366       9.918  87.816  15.694  1.00 36.50 LIG 0.16  HD
ENDBRANCH 55 56
ENDBRANCH 54 55
ENDBRANCH 1 54
TORSDOF 25
ENDMDL
MODEL 34
USER: ADFR SOLUTION from run 67
USER: SCORE 16.967006 LL:  -4.201 LR: -15.177 RR:   0.000 FEB:  -7.720
USER: RMSD 5.282640
USER: SEED 66
USER: STATUS no improvement in best in 6 clusters for 5 generations
USER: GENES 27
USER: genes 0 Translation |==|  0.41179 0.49192 0.50833
USER: genes 1 Rotation |==|  0.08436 0.57674 0.74506 0.60631
USER: genes 2 Torsion [CB]-CA--N-[C] |==|  0.16039
USER: genes 3 Torsion [N]-C--CA-[N] |==|  0.41229
USER: genes 4 Torsion [C]-CA--N-[C] |==|  0.70802
USER: genes 5 Torsion [N]-C--CA-[N] |==|  0.36996
USER: genes 6 Torsion [C]-CA--CB-[CG] |==|  0.31080
USER: genes 7 Torsion [CA]-CB--CG-[OD2] |==|  0.56752
USER: genes 8 Torsion [C]-CA--N-[C] |==|  0.85285
USER: genes 9 Torsion [C]-CA--CB-[CG] |==|  0.42064
USER: genes 10 Torsion [CA]-CB--CG-[CD1] |==|  0.33284
USER: genes 11 Torsion [N]-CA--C-[N] |==|  0.64014
USER: genes 12 Torsion [C]-N--CA-[CB] |==|  0.15076
USER: genes 13 Torsion [N]-CA--CB-[CG2] |==|  0.18611
USER: genes 14 Torsion [CA]-CB--OG1-[HG1] |==|  0.45231
USER: genes 15 Torsion [N]-CA--C-[N] |==|  0.54489
USER: genes 16 Torsion [C]-N--CA-[CB] |==|  0.20556
USER: genes 17 Torsion [N]-CA--CB-[OG] |==|  0.53505
USER: genes 18 Torsion [CA]-CB--OG-[HG] |==|  0.39519
USER: genes 19 Torsion [N]-CA--C-[N] |==|  0.19088
USER: genes 20 Torsion [C]-N--CA-[CB] |==|  0.29705
USER: genes 21 Torsion [N]-CA--C-[OXT] |==|  0.42136
USER: genes 22 Torsion [N]-CA--CB-[CG2] |==|  0.83742
USER: genes 23 Torsion [CA]-CB--CG1-[CD1] |==|  0.54396
USER: genes 24 Torsion [N]-CA--CB-[CG] |==|  0.59053
USER: genes 25 Torsion [CA]-CB--CG-[CD] |==|  0.65617
USER: genes 26 Torsion [CB]-CG--CD-[OE1] |==|  0.40914
ROOT
ATOM      1  CA  GLN B 366       8.595  89.114  13.020  1.00 38.37 LIG 0.18  C 
ENDROOT
BRANCH 1 2
ATOM      2  N   GLN B 366       9.684  89.742  12.292  1.00 38.60 LIG-0.35  N 
ATOM      3 H    GLN B 366       9.726  90.596  12.386  1.00 38.60 LIG 0.16  HD
ATOM      4  C   LEU B 365      10.537  89.032  11.546  1.00 41.18 LIG 0.24  C 
ATOM      5 O    LEU B 365      10.490  87.790  11.429  1.00 36.84 LIG-0.27  OA
BRANCH 4 6
ATOM      6  CA  LEU B 365      11.557  89.858  10.775  1.00 40.54 LIG 0.18  C 
BRANCH 6 7
ATOM      7  N   LEU B 365      12.798  89.106  10.639  1.00 42.84 LIG-0.35  N 
ATOM      8  C   ASP B 364      13.854  89.425  11.377  1.00 57.74 LIG 0.24  C 
ATOM      9 O    ASP B 364      13.816  90.368  12.118  1.00 57.74 LIG-0.27  OA
ATOM     10 H    LEU B 365      12.777  88.469  10.062  1.00 42.84 LIG 0.16  HD
BRANCH 8 11
ATOM     11  CA  ASP B 364      15.143  88.619  11.253  1.00 64.41 LIG 0.19  C 
BRANCH 11 12
ATOM     12  CB  ASP B 364      15.384  87.754  12.472  1.00 67.32 LIG 0.15  C 
BRANCH 12 13
ATOM     13  CG  ASP B 364      15.260  86.309  12.170  1.00 64.46 LIG 0.17  C 
ATOM     14 OD2  ASP B 364      14.973  85.539  13.123  1.00 62.61 LIG-0.65  OA
ATOM     15 OD1  ASP B 364      15.471  85.968  10.969  1.00 62.85 LIG-0.65  OA
ENDBRANCH 12 13
ENDBRANCH 11 12
BRANCH 11 16
ATOM     16  N   ASP B 364      16.301  89.450  11.138  1.00 73.89 LIG-0.35  N 
ATOM     17  C   ACE B 363      16.443  90.405  10.260  1.00 53.98 LIG 0.21  C 
ATOM     18  CH3 ACE B 363      17.816  91.023  10.371  1.00 56.03 LIG 0.12  C 
ATOM     19 O    ACE B 363      15.544  90.772   9.461  1.00 54.37 LIG-0.27  OA
ATOM     20 H    ASP B 364      16.910  89.259  11.714  1.00 73.89 LIG 0.16  HD
ENDBRANCH 11 16
ENDBRANCH 8 11
ENDBRANCH 6 7
BRANCH 6 21
ATOM     21  CB  LEU B 365      10.931  90.272   9.413  1.00 44.28 LIG 0.04  C 
BRANCH 21 22
ATOM     22  CG  LEU B 365      11.404  91.570   8.768  1.00 49.51 LIG-0.02  C 
ATOM     23  CD1 LEU B 365      12.014  91.315   7.413  1.00 53.42 LIG 0.01  C 
ATOM     24  CD2 LEU B 365      10.233  92.595   8.681  1.00 51.82 LIG 0.01  C 
ENDBRANCH 21 22
ENDBRANCH 6 21
ENDBRANCH 4 6
ENDBRANCH 1 2
BRANCH 1 25
ATOM     25  C   GLN B 366       7.854  90.142  13.837  1.00 40.92 LIG 0.24  C 
ATOM     26  N   THR B 367       7.662  89.840  15.122  1.00 37.18 LIG-0.34  N 
ATOM     27 H    THR B 367       7.917  89.111  15.501  1.00 37.18 LIG 0.16  HD
ATOM     28 O    GLN B 366       7.562  91.237  13.337  1.00 43.39 LIG-0.27  OA
BRANCH 26 29
ATOM     29  CA  THR B 367       6.979  90.778  15.982  1.00 39.45 LIG 0.20  C 
BRANCH 29 30
ATOM     30  CB  THR B 367       5.616  91.169  15.401  1.00 41.55 LIG 0.15  C 
ATOM     31  CG2 THR B 367       4.716  89.965  15.423  1.00 46.47 LIG 0.04  C 
BRANCH 30 32
ATOM     32 OG1  THR B 367       5.083  92.247  16.171  1.00 42.44 LIG-0.39  OA
ATOM     33 HG1  THR B 367       4.468  92.622  15.740  1.00 42.44 LIG 0.21  HD
ENDBRANCH 30 32
ENDBRANCH 29 30
BRANCH 29 34
ATOM     34  C   THR B 367       6.796  90.132  17.329  1.00 39.06 LIG 0.24  C 
ATOM     35  N   SER B 368       5.915  90.717  18.099  1.00 40.73 LIG-0.34  N 
ATOM     36 H    SER B 368       5.517  91.454  17.898  1.00 40.73 LIG 0.16  HD
ATOM     37 O    THR B 367       7.358  89.057  17.583  1.00 38.11 LIG-0.27  OA
BRANCH 35 38
ATOM     38  CA  SER B 368       5.531  90.166  19.372  1.00 41.63 LIG 0.20  C 
BRANCH 38 39
ATOM     39  CB  SER B 368       6.651  90.378  20.383  1.00 43.79 LIG 0.20  C 
BRANCH 39 40
ATOM     40 OG   SER B 368       6.445  89.614  21.548  1.00 46.28 LIG-0.40  OA
ATOM     41 HG   SER B 368       7.182  89.322  21.826  1.00 46.28 LIG 0.21  HD
ENDBRANCH 39 40
ENDBRANCH 38 39
BRANCH 38 42
ATOM     42  C   SER B 368       4.266  90.854  19.841  1.00 44.50 LIG 0.24  C 
ATOM     43 O    SER B 368       4.293  91.545  20.849  1.00 47.26 LIG-0.27  OA
ATOM     44  N   ILE B 369       3.180  90.595  19.154  1.00 46.03 LIG-0.34  N 
ATOM     45 H    ILE B 369       3.137  89.998  18.537  1.00 46.03 LIG 0.16  HD
BRANCH 44 46
ATOM     46  CA  ILE B 369       1.915  91.316  19.385  1.00 49.82 LIG 0.19  C 
BRANCH 46 47
ATOM     47  C   ILE B 369       0.742  90.365  19.507  1.00 51.12 LIG 0.20  C 
ATOM     48 OXT  ILE B 369      -0.214  90.698  20.182  1.00 48.45 LIG-0.65  OA
ATOM     49 O    ILE B 369       0.691  89.254  18.953  1.00 56.65 LIG-0.65  OA
ENDBRANCH 46 47
BRANCH 46 50
ATOM     50  CB  ILE B 369       1.665  92.264  18.248  1.00 51.86 LIG 0.01  C 
ATOM     51  CG2 ILE B 369       2.832  93.319  18.061  1.00 50.67 LIG 0.01  C 
BRANCH 50 52
ATOM     52  CG1 ILE B 369       1.446  91.525  16.951  1.00 48.80 LIG 0.00  C 
ATOM     53  CD1 ILE B 369       1.587  92.459  15.898  1.00 47.56 LIG 0.01  C 
ENDBRANCH 50 52
ENDBRANCH 46 50
ENDBRANCH 44 46
ENDBRANCH 38 42
ENDBRANCH 35 38
ENDBRANCH 29 34
ENDBRANCH 26 29
ENDBRANCH 1 25
BRANCH 1 54
ATOM     54  CB  GLN B 366       9.098  88.044  14.005  1.00 39.69 LIG 0.04  C 
BRANCH 54 55
ATOM     55  CG  GLN B 366       8.128  86.941  14.147  1.00 41.05 LIG 0.10  C 
BRANCH 55 56
ATOM     56  CD  GLN B 366       7.692  86.701  15.576  1.00 41.66 LIG 0.21  C 
ATOM     57 OE1  GLN B 366       6.547  86.303  15.835  1.00 35.58 LIG-0.27  OA
ATOM     58  NE2 GLN B 366       8.641  86.898  16.509  1.00 36.50 LIG-0.37  N 
ATOM     59 22HE GLN B 366       8.466  86.747  17.338  1.00 36.50 LIG 0.16  HD
ATOM     60 21HE GLN B 366       9.421  87.175  16.278  1.00 36.50 LIG 0.16  HD
ENDBRANCH 55 56
ENDBRANCH 54 55
ENDBRANCH 1 54
TORSDOF 25
ENDMDL
MODEL 35
USER: ADFR SOLUTION from run 108
USER: SCORE 15.625816 LL:  -4.466 LR: -15.158 RR:   0.000 FEB:  -7.701
USER: RMSD 12.957316
USER: SEED 107
USER: STATUS no improvement in best in 8 clusters for 5 generations
USER: GENES 27
USER: genes 0 Translation |==|  0.28289 0.72031 0.72489
USER: genes 1 Rotation |==|  0.58538 0.95911 0.67509 0.53568
USER: genes 2 Torsion [CB]-CA--N-[C] |==|  0.83811
USER: genes 3 Torsion [N]-C--CA-[N] |==|  0.68285
USER: genes 4 Torsion [C]-CA--N-[C] |==|  0.16501
USER: genes 5 Torsion [N]-C--CA-[N] |==|  0.92061
USER: genes 6 Torsion [C]-CA--CB-[CG] |==|  0.93516
USER: genes 7 Torsion [CA]-CB--CG-[OD2] |==|  0.30313
USER: genes 8 Torsion [C]-CA--N-[C] |==|  0.51968
USER: genes 9 Torsion [C]-CA--CB-[CG] |==|  0.28596
USER: genes 10 Torsion [CA]-CB--CG-[CD1] |==|  0.94530
USER: genes 11 Torsion [N]-CA--C-[N] |==|  0.99787
USER: genes 12 Torsion [C]-N--CA-[CB] |==|  0.14517
USER: genes 13 Torsion [N]-CA--CB-[CG2] |==|  0.14965
USER: genes 14 Torsion [CA]-CB--OG1-[HG1] |==|  0.24749
USER: genes 15 Torsion [N]-CA--C-[N] |==|  0.44657
USER: genes 16 Torsion [C]-N--CA-[CB] |==|  0.21254
USER: genes 17 Torsion [N]-CA--CB-[OG] |==|  0.27530
USER: genes 18 Torsion [CA]-CB--OG-[HG] |==|  0.33833
USER: genes 19 Torsion [N]-CA--C-[N] |==|  0.05886
USER: genes 20 Torsion [C]-N--CA-[CB] |==|  0.34192
USER: genes 21 Torsion [N]-CA--C-[OXT] |==|  0.92256
USER: genes 22 Torsion [N]-CA--CB-[CG2] |==|  0.24617
USER: genes 23 Torsion [CA]-CB--CG1-[CD1] |==|  0.34456
USER: genes 24 Torsion [N]-CA--CB-[CG] |==|  0.24943
USER: genes 25 Torsion [CA]-CB--CG-[CD] |==|  0.41272
USER: genes 26 Torsion [CB]-CG--CD-[OE1] |==|  0.77783
ROOT
ATOM      1  CA  GLN B 366       5.018  93.053  17.730  1.00 38.37 LIG 0.18  C 
ENDROOT
BRANCH 1 2
ATOM      2  N   GLN B 366       3.685  92.721  17.257  1.00 38.60 LIG-0.35  N 
ATOM      3 H    GLN B 366       3.170  93.401  17.146  1.00 38.60 LIG 0.16  HD
ATOM      4  C   LEU B 365       3.315  91.458  17.019  1.00 41.18 LIG 0.24  C 
ATOM      5 O    LEU B 365       4.071  90.475  17.160  1.00 36.84 LIG-0.27  OA
BRANCH 4 6
ATOM      6  CA  LEU B 365       1.856  91.281  16.622  1.00 40.54 LIG 0.18  C 
BRANCH 6 7
ATOM      7  N   LEU B 365       1.152  90.535  17.656  1.00 42.84 LIG-0.35  N 
ATOM      8  C   ASP B 364       1.096  91.005  18.896  1.00 57.74 LIG 0.24  C 
ATOM      9 O    ASP B 364       1.672  92.016  19.189  1.00 57.74 LIG-0.27  OA
ATOM     10 H    LEU B 365       0.794  89.798  17.395  1.00 42.84 LIG 0.16  HD
BRANCH 8 11
ATOM     11  CA  ASP B 364       0.334  90.237  19.971  1.00 64.41 LIG 0.19  C 
BRANCH 11 12
ATOM     12  CB  ASP B 364       1.224  89.245  20.689  1.00 67.32 LIG 0.15  C 
BRANCH 12 13
ATOM     13  CG  ASP B 364       2.397  88.848  19.877  1.00 64.46 LIG 0.17  C 
ATOM     14 OD2  ASP B 364       3.525  89.269  20.241  1.00 62.61 LIG-0.65  OA
ATOM     15 OD1  ASP B 364       2.157  88.122  18.867  1.00 62.85 LIG-0.65  OA
ENDBRANCH 12 13
ENDBRANCH 11 12
BRANCH 11 16
ATOM     16  N   ASP B 364      -0.744  89.467  19.435  1.00 73.89 LIG-0.35  N 
ATOM     17  C   ACE B 363      -1.627  88.828  20.153  1.00 53.98 LIG 0.21  C 
ATOM     18  CH3 ACE B 363      -2.573  88.057  19.263  1.00 56.03 LIG 0.12  C 
ATOM     19 O    ACE B 363      -1.691  88.881  21.408  1.00 54.37 LIG-0.27  OA
ATOM     20 H    ASP B 364      -0.759  89.462  18.575  1.00 73.89 LIG 0.16  HD
ENDBRANCH 11 16
ENDBRANCH 8 11
ENDBRANCH 6 7
BRANCH 6 21
ATOM     21  CB  LEU B 365       1.244  92.684  16.345  1.00 44.28 LIG 0.04  C 
BRANCH 21 22
ATOM     22  CG  LEU B 365       1.050  93.112  14.895  1.00 49.51 LIG-0.02  C 
ATOM     23  CD1 LEU B 365       1.916  92.299  13.967  1.00 53.42 LIG 0.01  C 
ATOM     24  CD2 LEU B 365      -0.454  93.022  14.495  1.00 51.82 LIG 0.01  C 
ENDBRANCH 21 22
ENDBRANCH 6 21
ENDBRANCH 4 6
ENDBRANCH 1 2
BRANCH 1 25
ATOM     25  C   GLN B 366       6.053  92.601  16.731  1.00 40.92 LIG 0.24  C 
ATOM     26  N   THR B 367       5.585  91.988  15.642  1.00 37.18 LIG-0.34  N 
ATOM     27 H    THR B 367       4.755  91.827  15.485  1.00 37.18 LIG 0.16  HD
ATOM     28 O    GLN B 366       7.242  92.906  16.890  1.00 43.39 LIG-0.27  OA
BRANCH 26 29
ATOM     29  CA  THR B 367       6.506  91.541  14.623  1.00 39.45 LIG 0.20  C 
BRANCH 29 30
ATOM     30  CB  THR B 367       7.622  90.681  15.226  1.00 41.55 LIG 0.15  C 
ATOM     31  CG2 THR B 367       7.001  89.563  16.015  1.00 46.47 LIG 0.04  C 
BRANCH 30 32
ATOM     32 OG1  THR B 367       8.444  90.191  14.166  1.00 42.44 LIG-0.39  OA
ATOM     33 HG1  THR B 367       9.059  90.742  14.011  1.00 42.44 LIG 0.21  HD
ENDBRANCH 30 32
ENDBRANCH 29 30
BRANCH 29 34
ATOM     34  C   THR B 367       5.732  90.740  13.611  1.00 39.06 LIG 0.24  C 
ATOM     35  N   SER B 368       6.324  90.606  12.452  1.00 40.73 LIG-0.34  N 
ATOM     36 H    SER B 368       7.062  90.998  12.244  1.00 40.73 LIG 0.16  HD
ATOM     37 O    THR B 367       4.686  90.163  13.945  1.00 38.11 LIG-0.27  OA
BRANCH 35 38
ATOM     38  CA  SER B 368       5.780  89.776  11.410  1.00 41.63 LIG 0.20  C 
BRANCH 38 39
ATOM     39  CB  SER B 368       4.611  90.488  10.743  1.00 43.79 LIG 0.20  C 
BRANCH 39 40
ATOM     40 OG   SER B 368       5.001  91.104   9.539  1.00 46.28 LIG-0.40  OA
ATOM     41 HG   SER B 368       4.539  90.802   8.906  1.00 46.28 LIG 0.21  HD
ENDBRANCH 39 40
ENDBRANCH 38 39
BRANCH 38 42
ATOM     42  C   SER B 368       6.867  89.491  10.394  1.00 44.50 LIG 0.24  C 
ATOM     43 O    SER B 368       6.562  89.086   9.283  1.00 47.26 LIG-0.27  OA
ATOM     44  N   ILE B 369       8.101  89.634  10.815  1.00 46.03 LIG-0.34  N 
ATOM     45 H    ILE B 369       8.311  89.779  11.635  1.00 46.03 LIG 0.16  HD
BRANCH 44 46
ATOM     46  CA  ILE B 369       9.255  89.558   9.900  1.00 49.82 LIG 0.19  C 
BRANCH 46 47
ATOM     47  C   ILE B 369      10.149  88.380  10.225  1.00 51.12 LIG 0.20  C 
ATOM     48 OXT  ILE B 369      10.188  87.971  11.371  1.00 48.45 LIG-0.65  OA
ATOM     49 O    ILE B 369      10.854  87.793   9.385  1.00 56.65 LIG-0.65  OA
ENDBRANCH 46 47
BRANCH 46 50
ATOM     50  CB  ILE B 369      10.054  90.826   9.996  1.00 51.86 LIG 0.01  C 
ATOM     51  CG2 ILE B 369      11.163  90.767  11.125  1.00 50.67 LIG 0.01  C 
BRANCH 50 52
ATOM     52  CG1 ILE B 369      10.699  91.171   8.677  1.00 48.80 LIG 0.00  C 
ATOM     53  CD1 ILE B 369      10.283  92.477   8.327  1.00 47.56 LIG 0.01  C 
ENDBRANCH 50 52
ENDBRANCH 46 50
ENDBRANCH 44 46
ENDBRANCH 38 42
ENDBRANCH 35 38
ENDBRANCH 29 34
ENDBRANCH 26 29
ENDBRANCH 1 25
BRANCH 1 54
ATOM     54  CB  GLN B 366       5.351  92.356  19.060  1.00 39.69 LIG 0.04  C 
BRANCH 54 55
ATOM     55  CG  GLN B 366       5.976  91.038  18.839  1.00 41.05 LIG 0.10  C 
BRANCH 55 56
ATOM     56  CD  GLN B 366       6.963  90.649  19.918  1.00 41.66 LIG 0.21  C 
ATOM     57 OE1  GLN B 366       8.118  91.102  19.919  1.00 35.58 LIG-0.27  OA
ATOM     58  NE2 GLN B 366       6.481  89.838  20.877  1.00 36.50 LIG-0.37  N 
ATOM     59 22HE GLN B 366       6.982  89.606  21.536  1.00 36.50 LIG 0.16  HD
ATOM     60 21HE GLN B 366       5.671  89.550  20.830  1.00 36.50 LIG 0.16  HD
ENDBRANCH 55 56
ENDBRANCH 54 55
ENDBRANCH 1 54
TORSDOF 25
ENDMDL
MODEL 36
USER: ADFR SOLUTION from run 108
USER: SCORE 16.477417 LL:  -4.547 LR: -15.149 RR:   0.000 FEB:  -7.691
USER: RMSD 12.876006
USER: SEED 107
USER: STATUS no improvement in best in 8 clusters for 5 generations
USER: GENES 27
USER: genes 0 Translation |==|  0.29714 0.69166 0.69889
USER: genes 1 Rotation |==|  0.63288 0.97595 0.53177 0.56931
USER: genes 2 Torsion [CB]-CA--N-[C] |==|  0.79114
USER: genes 3 Torsion [N]-C--CA-[N] |==|  0.63413
USER: genes 4 Torsion [C]-CA--N-[C] |==|  0.18780
USER: genes 5 Torsion [N]-C--CA-[N] |==|  0.01677
USER: genes 6 Torsion [C]-CA--CB-[CG] |==|  0.87003
USER: genes 7 Torsion [CA]-CB--CG-[OD2] |==|  0.36128
USER: genes 8 Torsion [C]-CA--N-[C] |==|  0.60833
USER: genes 9 Torsion [C]-CA--CB-[CG] |==|  0.35586
USER: genes 10 Torsion [CA]-CB--CG-[CD1] |==|  0.75382
USER: genes 11 Torsion [N]-CA--C-[N] |==|  0.11132
USER: genes 12 Torsion [C]-N--CA-[CB] |==|  0.86111
USER: genes 13 Torsion [N]-CA--CB-[CG2] |==|  0.33772
USER: genes 14 Torsion [CA]-CB--OG1-[HG1] |==|  0.39595
USER: genes 15 Torsion [N]-CA--C-[N] |==|  0.39887
USER: genes 16 Torsion [C]-N--CA-[CB] |==|  0.42088
USER: genes 17 Torsion [N]-CA--CB-[OG] |==|  0.78081
USER: genes 18 Torsion [CA]-CB--OG-[HG] |==|  0.48674
USER: genes 19 Torsion [N]-CA--C-[N] |==|  0.93127
USER: genes 20 Torsion [C]-N--CA-[CB] |==|  0.49852
USER: genes 21 Torsion [N]-CA--C-[OXT] |==|  0.86480
USER: genes 22 Torsion [N]-CA--CB-[CG2] |==|  0.55803
USER: genes 23 Torsion [CA]-CB--CG1-[CD1] |==|  0.39816
USER: genes 24 Torsion [N]-CA--CB-[CG] |==|  0.18481
USER: genes 25 Torsion [CA]-CB--CG-[CD] |==|  0.34037
USER: genes 26 Torsion [CB]-CG--CD-[OE1] |==|  0.94309
ROOT
ATOM      1  CA  GLN B 366       5.414  92.559  17.165  1.00 38.37 LIG 0.18  C 
ENDROOT
BRANCH 1 2
ATOM      2  N   GLN B 366       3.995  92.375  16.909  1.00 38.60 LIG-0.35  N 
ATOM      3 H    GLN B 366       3.589  93.085  16.644  1.00 38.60 LIG 0.16  HD
ATOM      4  C   LEU B 365       3.395  91.192  17.078  1.00 41.18 LIG 0.24  C 
ATOM      5 O    LEU B 365       3.990  90.157  17.441  1.00 36.84 LIG-0.27  OA
BRANCH 4 6
ATOM      6  CA  LEU B 365       1.889  91.199  16.859  1.00 40.54 LIG 0.18  C 
BRANCH 6 7
ATOM      7  N   LEU B 365       1.227  90.523  17.967  1.00 42.84 LIG-0.35  N 
ATOM      8  C   ASP B 364       1.243  91.062  19.180  1.00 57.74 LIG 0.24  C 
ATOM      9 O    ASP B 364       1.848  92.077  19.387  1.00 57.74 LIG-0.27  OA
ATOM     10 H    LEU B 365       0.846  89.779  17.766  1.00 42.84 LIG 0.16  HD
BRANCH 8 11
ATOM     11  CA  ASP B 364       0.526  90.367  20.333  1.00 64.41 LIG 0.19  C 
BRANCH 11 12
ATOM     12  CB  ASP B 364       1.455  90.111  21.500  1.00 67.32 LIG 0.15  C 
BRANCH 12 13
ATOM     13  CG  ASP B 364       2.746  89.524  21.074  1.00 64.46 LIG 0.17  C 
ATOM     14 OD2  ASP B 364       3.799  90.063  21.502  1.00 62.61 LIG-0.65  OA
ATOM     15 OD1  ASP B 364       2.678  88.527  20.295  1.00 62.85 LIG-0.65  OA
ENDBRANCH 12 13
ENDBRANCH 11 12
BRANCH 11 16
ATOM     16  N   ASP B 364       0.009  89.085  19.965  1.00 73.89 LIG-0.35  N 
ATOM     17  C   ACE B 363      -1.140  88.609  20.360  1.00 53.98 LIG 0.21  C 
ATOM     18  CH3 ACE B 363      -1.331  87.201  19.848  1.00 56.03 LIG 0.12  C 
ATOM     19 O    ACE B 363      -1.977  89.253  21.042  1.00 54.37 LIG-0.27  OA
ATOM     20 H    ASP B 364       0.537  88.646  19.448  1.00 73.89 LIG 0.16  HD
ENDBRANCH 11 16
ENDBRANCH 8 11
ENDBRANCH 6 7
BRANCH 6 21
ATOM     21  CB  LEU B 365       1.423  92.671  16.665  1.00 44.28 LIG 0.04  C 
BRANCH 21 22
ATOM     22  CG  LEU B 365       0.577  93.003  15.442  1.00 49.51 LIG-0.02  C 
ATOM     23  CD1 LEU B 365       1.442  93.362  14.261  1.00 53.42 LIG 0.01  C 
ATOM     24  CD2 LEU B 365      -0.384  91.822  15.105  1.00 51.82 LIG 0.01  C 
ENDBRANCH 21 22
ENDBRANCH 6 21
ENDBRANCH 4 6
ENDBRANCH 1 2
BRANCH 1 25
ATOM     25  C   GLN B 366       6.199  91.405  16.594  1.00 40.92 LIG 0.24  C 
ATOM     26  N   THR B 367       5.796  90.956  15.403  1.00 37.18 LIG-0.34  N 
ATOM     27 H    THR B 367       5.127  91.266  14.960  1.00 37.18 LIG 0.16  HD
ATOM     28 O    GLN B 366       7.221  91.007  17.168  1.00 43.39 LIG-0.27  OA
BRANCH 26 29
ATOM     29  CA  THR B 367       6.505  89.867  14.773  1.00 39.45 LIG 0.20  C 
BRANCH 29 30
ATOM     30  CB  THR B 367       8.015  90.131  14.752  1.00 41.55 LIG 0.15  C 
ATOM     31  CG2 THR B 367       8.713  89.013  15.475  1.00 46.47 LIG 0.04  C 
BRANCH 30 32
ATOM     32 OG1  THR B 367       8.441  90.234  13.393  1.00 42.44 LIG-0.39  OA
ATOM     33 HG1  THR B 367       9.032  90.827  13.329  1.00 42.44 LIG 0.21  HD
ENDBRANCH 30 32
ENDBRANCH 29 30
BRANCH 29 34
ATOM     34  C   THR B 367       6.216  88.610  15.547  1.00 39.06 LIG 0.24  C 
ATOM     35  N   SER B 368       6.107  87.531  14.815  1.00 40.73 LIG-0.34  N 
ATOM     36 H    SER B 368       6.124  87.533  13.954  1.00 40.73 LIG 0.16  HD
ATOM     37 O    THR B 367       6.225  88.628  16.787  1.00 38.11 LIG-0.27  OA
BRANCH 35 38
ATOM     38  CA  SER B 368       5.947  86.226  15.400  1.00 41.63 LIG 0.20  C 
BRANCH 38 39
ATOM     39  CB  SER B 368       5.174  85.325  14.445  1.00 43.79 LIG 0.20  C 
BRANCH 39 40
ATOM     40 OG   SER B 368       3.792  85.587  14.495  1.00 46.28 LIG-0.40  OA
ATOM     41 HG   SER B 368       3.398  85.125  13.914  1.00 46.28 LIG 0.21  HD
ENDBRANCH 39 40
ENDBRANCH 38 39
BRANCH 38 42
ATOM     42  C   SER B 368       7.318  85.642  15.675  1.00 44.50 LIG 0.24  C 
ATOM     43 O    SER B 368       7.461  84.845  16.589  1.00 47.26 LIG-0.27  OA
ATOM     44  N   ILE B 369       8.299  86.102  14.936  1.00 46.03 LIG-0.34  N 
ATOM     45 H    ILE B 369       8.218  86.765  14.395  1.00 46.03 LIG 0.16  HD
BRANCH 44 46
ATOM     46  CA  ILE B 369       9.649  85.513  14.971  1.00 49.82 LIG 0.19  C 
BRANCH 46 47
ATOM     47  C   ILE B 369      10.253  85.577  16.358  1.00 51.12 LIG 0.20  C 
ATOM     48 OXT  ILE B 369      10.221  86.632  16.964  1.00 48.45 LIG-0.65  OA
ATOM     49 O    ILE B 369      10.784  84.608  16.928  1.00 56.65 LIG-0.65  OA
ENDBRANCH 46 47
BRANCH 46 50
ATOM     50  CB  ILE B 369      10.540  86.247  14.011  1.00 51.86 LIG 0.01  C 
ATOM     51  CG2 ILE B 369      11.809  85.400  13.583  1.00 50.67 LIG 0.01  C 
BRANCH 50 52
ATOM     52  CG1 ILE B 369       9.787  86.677  12.777  1.00 48.80 LIG 0.00  C 
ATOM     53  CD1 ILE B 369      10.287  87.942  12.390  1.00 47.56 LIG 0.01  C 
ENDBRANCH 50 52
ENDBRANCH 46 50
ENDBRANCH 44 46
ENDBRANCH 38 42
ENDBRANCH 35 38
ENDBRANCH 29 34
ENDBRANCH 26 29
ENDBRANCH 1 25
BRANCH 1 54
ATOM     54  CB  GLN B 366       5.730  92.610  18.669  1.00 39.69 LIG 0.04  C 
BRANCH 54 55
ATOM     55  CG  GLN B 366       5.471  91.311  19.321  1.00 41.05 LIG 0.10  C 
BRANCH 55 56
ATOM     56  CD  GLN B 366       6.682  90.736  20.022  1.00 41.66 LIG 0.21  C 
ATOM     57 OE1  GLN B 366       7.827  91.108  19.726  1.00 35.58 LIG-0.27  OA
ATOM     58  NE2 GLN B 366       6.417  89.852  21.001  1.00 36.50 LIG-0.37  N 
ATOM     59 22HE GLN B 366       7.061  89.513  21.460  1.00 36.50 LIG 0.16  HD
ATOM     60 21HE GLN B 366       5.604  89.626  21.168  1.00 36.50 LIG 0.16  HD
ENDBRANCH 55 56
ENDBRANCH 54 55
ENDBRANCH 1 54
TORSDOF 25
ENDMDL
