MODEL 1
USER: ADFR SOLUTION from run 125
USER: SCORE 18.835523 LL:  -3.094 LR: -18.141 RR:   0.000 FEB: -11.579
USER: RMSD 5.812882
USER: SEED 124
USER: STATUS no improvement in best in 4 clusters for 5 generations
USER: GENES 24
USER: genes 0 Translation |==|  0.49181 0.44083 0.23761
USER: genes 1 Rotation |==|  0.68273 0.44305 0.73875 0.89543
USER: genes 2 Torsion [CB]-CA--N-[C] |==|  0.57829
USER: genes 3 Torsion [N]-C--CA-[N] |==|  0.92570
USER: genes 4 Torsion [C]-CA--N-[C] |==|  0.84374
USER: genes 5 Torsion [N]-C--CA-[N] |==|  0.88489
USER: genes 6 Torsion [C]-CA--N-[H1] |==|  0.47507
USER: genes 7 Torsion [C]-CA--CB-[CG] |==|  0.42499
USER: genes 8 Torsion [CA]-CB--CG-[CD] |==|  0.16108
USER: genes 9 Torsion [CB]-CG--CD-[NE] |==|  0.14001
USER: genes 10 Torsion [CG]-CD--NE-[CZ] |==|  0.19314
USER: genes 11 Torsion [N]-CA--CB-[OG1] |==|  0.86810
USER: genes 12 Torsion [CA]-CB--OG1-[HG1] |==|  0.97850
USER: genes 13 Torsion [N]-CA--C-[N] |==|  0.82559
USER: genes 14 Torsion [C]-N--CA-[CB] |==|  0.57952
USER: genes 15 Torsion [N]-CA--C-[N] |==|  0.33203
USER: genes 16 Torsion [C]-N--CA-[CB] |==|  0.53898
USER: genes 17 Torsion [N]-CA--C-[N] |==|  0.42586
USER: genes 18 Torsion [C]-N--CA-[CB] |==|  0.54444
USER: genes 19 Torsion [N]-CA--CB-[CG2] |==|  0.65418
USER: genes 20 Torsion [CA]-CB--OG1-[HG1] |==|  0.17031
USER: genes 21 Torsion [N]-CA--C-[N] |==|  0.91122
USER: genes 22 Torsion [C]-N--CA-[C] |==|  0.15663
USER: genes 23 Torsion [N]-CA--C-[O] |==|  0.06788
ROOT
ATOM      1  CA  THR G   3      17.954  37.089  37.850  1.00 68.23 LIG 0.20  C 
ENDROOT
BRANCH 1 2
ATOM      2  N   THR G   3      18.963  38.004  38.374  1.00 68.42 LIG-0.34  N 
ATOM      3  C   ARG G   2      18.755  38.794  39.424  1.00 70.38 LIG 0.24  C 
ATOM      4 O    ARG G   2      17.661  38.912  39.988  1.00 69.46 LIG-0.27  OA
ATOM      5 H    THR G   3      19.705  37.984  37.940  1.00 68.42 LIG 0.16  HD
BRANCH 3 6
ATOM      6  CA  ARG G   2      19.964  39.596  39.895  1.00 72.62 LIG 0.18  C 
BRANCH 6 7
ATOM      7  N   ARG G   2      21.184  38.882  39.527  1.00 74.86 LIG-0.35  N 
ATOM      8  C   ALA G   1      21.414  37.628  39.909  1.00 76.29 LIG 0.25  C 
ATOM      9 O    ALA G   1      20.720  37.028  40.736  1.00 75.70 LIG-0.27  OA
ATOM     10 H    ARG G   2      21.730  39.342  39.048  1.00 74.86 LIG 0.16  HD
BRANCH 8 11
ATOM     11  CA  ALA G   1      22.614  36.946  39.271  1.00 78.97 LIG 0.27  C 
ATOM     12  CB  ALA G   1      23.891  37.371  39.987  1.00 79.33 LIG 0.05  C 
BRANCH 11 13
ATOM     13  N   ALA G   1      22.690  37.272  37.820  1.00 81.42 LIG-0.07  N 
ATOM     14 H3   ALA G   1      22.639  38.154  37.710  1.00 81.42 LIG 0.28  HD
ATOM     15 H2   ALA G   1      22.016  36.880  37.392  1.00 81.42 LIG 0.28  HD
ATOM     16 H1   ALA G   1      23.462  36.976  37.490  1.00 81.42 LIG 0.28  HD
ENDBRANCH 11 13
ENDBRANCH 8 11
ENDBRANCH 6 7
BRANCH 6 17
ATOM     17  CB  ARG G   2      19.952  41.005  39.293  1.00 73.45 LIG 0.04  C 
BRANCH 17 18
ATOM     18  CG  ARG G   2      20.675  42.027  40.153  1.00 75.79 LIG 0.02  C 
BRANCH 18 19
ATOM     19  CD  ARG G   2      22.126  41.650  40.407  1.00 77.52 LIG 0.14  C 
BRANCH 19 20
ATOM     20  NE  ARG G   2      22.817  41.320  39.158  1.00 80.25 LIG-0.23  N 
ATOM     21  CZ  ARG G   2      23.137  42.187  38.192  1.00 82.01 LIG 0.67  C 
ATOM     22  NH1 ARG G   2      22.838  43.485  38.290  1.00 81.47 LIG-0.23  N 
ATOM     23  NH2 ARG G   2      23.763  41.749  37.103  1.00 84.93 LIG-0.23  N 
ATOM     24 1HH1 ARG G   2      22.429  43.781  38.987  1.00 81.47 LIG 0.17  HD
ATOM     25 2HH1 ARG G   2      23.054  44.025  37.656  1.00 81.47 LIG 0.17  HD
ATOM     26 2HH2 ARG G   2      23.974  42.300  36.477  1.00 84.93 LIG 0.17  HD
ATOM     27 1HH2 ARG G   2      23.959  40.915  37.025  1.00 84.93 LIG 0.17  HD
ATOM     28 HE   ARG G   2      23.036  40.497  39.035  1.00 80.25 LIG 0.18  HD
ENDBRANCH 19 20
ENDBRANCH 18 19
ENDBRANCH 17 18
ENDBRANCH 6 17
ENDBRANCH 3 6
ENDBRANCH 1 2
BRANCH 1 29
ATOM     29  CB  THR G   3      18.591  35.860  37.159  1.00 68.23 LIG 0.15  C 
ATOM     30  CG2 THR G   3      17.547  35.074  36.388  1.00 68.63 LIG 0.04  C 
BRANCH 29 31
ATOM     31 OG1  THR G   3      19.629  36.281  36.264  1.00 67.51 LIG-0.39  OA
ATOM     32 HG1  THR G   3      19.624  37.118  36.204  1.00 67.51 LIG 0.21  HD
ENDBRANCH 29 31
ENDBRANCH 1 29
BRANCH 1 33
ATOM     33  C   THR G   3      17.035  36.615  38.971  1.00 68.02 LIG 0.24  C 
ATOM     34  N   ALA G   4      17.620  35.914  39.941  1.00 68.86 LIG-0.35  N 
ATOM     35 H    ALA G   4      18.450  35.690  39.929  1.00 68.86 LIG 0.16  HD
ATOM     36 O    THR G   3      15.830  36.876  38.953  1.00 67.54 LIG-0.27  OA
BRANCH 34 37
ATOM     37  CA  ALA G   4      16.897  35.454  41.130  1.00 69.75 LIG 0.17  C 
ATOM     38  CB  ALA G   4      17.851  35.340  42.308  1.00 70.86 LIG 0.04  C 
BRANCH 37 39
ATOM     39  C   ALA G   4      15.711  36.357  41.492  1.00 71.43 LIG 0.24  C 
ATOM     40  N   ALA G   5      14.503  35.790  41.493  1.00 71.85 LIG-0.35  N 
ATOM     41 H    ALA G   5      14.360  34.978  41.248  1.00 71.85 LIG 0.16  HD
ATOM     42 O    ALA G   4      15.898  37.546  41.765  1.00 72.80 LIG-0.27  OA
BRANCH 40 43
ATOM     43  CA  ALA G   5      13.295  36.507  41.915  1.00 72.89 LIG 0.17  C 
ATOM     44  CB  ALA G   5      12.148  35.532  42.142  1.00 72.65 LIG 0.04  C 
BRANCH 43 45
ATOM     45  C   ALA G   5      13.535  37.347  43.174  1.00 72.87 LIG 0.24  C 
ATOM     46  N   THR G   6      12.756  38.420  43.341  1.00 71.86 LIG-0.34  N 
ATOM     47 H    THR G   6      12.151  38.662  42.780  1.00 71.86 LIG 0.16  HD
ATOM     48 O    ALA G   5      14.413  37.022  43.976  1.00 74.40 LIG-0.27  OA
BRANCH 46 49
ATOM     49  CA  THR G   6      12.868  39.296  44.520  1.00 72.17 LIG 0.20  C 
BRANCH 49 50
ATOM     50  CB  THR G   6      11.635  40.214  44.690  1.00 71.29 LIG 0.15  C 
ATOM     51  CG2 THR G   6      12.054  41.681  44.753  1.00 70.64 LIG 0.04  C 
BRANCH 50 52
ATOM     52 OG1  THR G   6      10.726  40.021  43.600  1.00 70.47 LIG-0.39  OA
ATOM     53 HG1  THR G   6      10.460  39.224  43.594  1.00 70.47 LIG 0.21  HD
ENDBRANCH 50 52
ENDBRANCH 49 50
BRANCH 49 54
ATOM     54  C   THR G   6      13.089  38.508  45.819  1.00 73.53 LIG 0.24  C 
ATOM     55  N   ALA G   7      12.529  37.297  45.894  1.00 73.25 LIG-0.35  N 
ATOM     56 H    ALA G   7      11.995  36.986  45.295  1.00 73.25 LIG 0.16  HD
ATOM     57 O    THR G   6      13.745  39.007  46.736  1.00 75.15 LIG-0.27  OA
BRANCH 55 58
ATOM     58  CA  ALA G   7      12.769  36.370  47.009  1.00 74.45 LIG 0.16  C 
ATOM     59  CB  ALA G   7      14.222  35.917  47.022  1.00 73.04 LIG 0.04  C 
BRANCH 58 60
ATOM     60  C   ALA G   7      12.410  37.025  48.343  1.00 76.13 LIG 0.22  C 
ATOM     61 O    ALA G   7      11.599  37.951  48.398  1.00 77.97 LIG-0.29  OA
ENDBRANCH 58 60
ENDBRANCH 55 58
ENDBRANCH 49 54
ENDBRANCH 46 49
ENDBRANCH 43 45
ENDBRANCH 40 43
ENDBRANCH 37 39
ENDBRANCH 34 37
ENDBRANCH 1 33
TORSDOF 22
ENDMDL
MODEL 2
USER: ADFR SOLUTION from run 92
USER: SCORE 18.600073 LL:  -3.063 LR: -18.035 RR:   0.000 FEB: -11.472
USER: RMSD 6.049266
USER: SEED 91
USER: STATUS no improvement in best in 4 clusters for 5 generations
USER: GENES 24
USER: genes 0 Translation |==|  0.50499 0.48383 0.25878
USER: genes 1 Rotation |==|  0.77441 0.38888 0.66445 0.86784
USER: genes 2 Torsion [CB]-CA--N-[C] |==|  0.52222
USER: genes 3 Torsion [N]-C--CA-[N] |==|  0.00213
USER: genes 4 Torsion [C]-CA--N-[C] |==|  0.75792
USER: genes 5 Torsion [N]-C--CA-[N] |==|  0.87605
USER: genes 6 Torsion [C]-CA--N-[H1] |==|  0.83047
USER: genes 7 Torsion [C]-CA--CB-[CG] |==|  0.91699
USER: genes 8 Torsion [CA]-CB--CG-[CD] |==|  0.65870
USER: genes 9 Torsion [CB]-CG--CD-[NE] |==|  0.51716
USER: genes 10 Torsion [CG]-CD--NE-[CZ] |==|  0.41200
USER: genes 11 Torsion [N]-CA--CB-[OG1] |==|  0.69726
USER: genes 12 Torsion [CA]-CB--OG1-[HG1] |==|  0.18582
USER: genes 13 Torsion [N]-CA--C-[N] |==|  0.92640
USER: genes 14 Torsion [C]-N--CA-[CB] |==|  0.55384
USER: genes 15 Torsion [N]-CA--C-[N] |==|  0.43933
USER: genes 16 Torsion [C]-N--CA-[CB] |==|  0.55046
USER: genes 17 Torsion [N]-CA--C-[N] |==|  0.41566
USER: genes 18 Torsion [C]-N--CA-[CB] |==|  0.23402
USER: genes 19 Torsion [N]-CA--CB-[CG2] |==|  0.77210
USER: genes 20 Torsion [CA]-CB--OG1-[HG1] |==|  0.95173
USER: genes 21 Torsion [N]-CA--C-[N] |==|  0.41697
USER: genes 22 Torsion [C]-N--CA-[C] |==|  0.76908
USER: genes 23 Torsion [N]-CA--C-[O] |==|  0.83715
ROOT
ATOM      1  CA  THR G   3      18.250  37.863  38.278  1.00 68.23 LIG 0.20  C 
ENDROOT
BRANCH 1 2
ATOM      2  N   THR G   3      19.469  38.223  38.996  1.00 68.42 LIG-0.34  N 
ATOM      3  C   ARG G   2      19.465  38.830  40.181  1.00 70.38 LIG 0.24  C 
ATOM      4 O    ARG G   2      18.441  39.244  40.736  1.00 69.46 LIG-0.27  OA
ATOM      5 H    THR G   3      20.190  38.006  38.582  1.00 68.42 LIG 0.16  HD
BRANCH 3 6
ATOM      6  CA  ARG G   2      20.833  39.022  40.827  1.00 72.62 LIG 0.18  C 
BRANCH 6 7
ATOM      7  N   ARG G   2      21.861  38.484  39.940  1.00 74.86 LIG-0.35  N 
ATOM      8  C   ALA G   1      22.225  37.204  39.972  1.00 76.29 LIG 0.25  C 
ATOM      9 O    ALA G   1      21.867  36.414  40.851  1.00 75.70 LIG-0.27  OA
ATOM     10 H    ARG G   2      22.203  39.064  39.405  1.00 74.86 LIG 0.16  HD
BRANCH 8 11
ATOM     11  CA  ALA G   1      23.141  36.744  38.849  1.00 78.97 LIG 0.27  C 
ATOM     12  CB  ALA G   1      24.568  37.203  39.124  1.00 79.33 LIG 0.05  C 
BRANCH 11 13
ATOM     13  N   ALA G   1      22.664  37.265  37.538  1.00 81.42 LIG-0.07  N 
ATOM     14 H3   ALA G   1      23.218  37.000  36.893  1.00 81.42 LIG 0.28  HD
ATOM     15 H2   ALA G   1      22.641  38.154  37.562  1.00 81.42 LIG 0.28  HD
ATOM     16 H1   ALA G   1      21.847  36.952  37.373  1.00 81.42 LIG 0.28  HD
ENDBRANCH 11 13
ENDBRANCH 8 11
ENDBRANCH 6 7
BRANCH 6 17
ATOM     17  CB  ARG G   2      21.091  40.501  41.129  1.00 73.45 LIG 0.04  C 
BRANCH 17 18
ATOM     18  CG  ARG G   2      20.393  41.440  40.160  1.00 75.79 LIG 0.02  C 
BRANCH 18 19
ATOM     19  CD  ARG G   2      21.366  42.376  39.459  1.00 77.52 LIG 0.14  C 
BRANCH 19 20
ATOM     20  NE  ARG G   2      20.659  43.365  38.642  1.00 80.25 LIG-0.23  N 
ATOM     21  CZ  ARG G   2      21.072  44.613  38.399  1.00 82.01 LIG 0.67  C 
ATOM     22  NH1 ARG G   2      22.215  45.082  38.904  1.00 81.47 LIG-0.23  N 
ATOM     23  NH2 ARG G   2      20.327  45.411  37.639  1.00 84.93 LIG-0.23  N 
ATOM     24 1HH1 ARG G   2      22.705  44.578  39.401  1.00 81.47 LIG 0.17  HD
ATOM     25 2HH1 ARG G   2      22.462  45.889  38.734  1.00 81.47 LIG 0.17  HD
ATOM     26 2HH2 ARG G   2      20.585  46.215  37.476  1.00 84.93 LIG 0.17  HD
ATOM     27 1HH2 ARG G   2      19.586  45.122  37.309  1.00 84.93 LIG 0.17  HD
ATOM     28 HE   ARG G   2      19.913  43.122  38.288  1.00 80.25 LIG 0.18  HD
ENDBRANCH 19 20
ENDBRANCH 18 19
ENDBRANCH 17 18
ENDBRANCH 6 17
ENDBRANCH 3 6
ENDBRANCH 1 2
BRANCH 1 29
ATOM     29  CB  THR G   3      18.549  36.997  37.031  1.00 68.23 LIG 0.15  C 
ATOM     30  CG2 THR G   3      17.676  35.756  37.015  1.00 68.63 LIG 0.04  C 
BRANCH 29 31
ATOM     31 OG1  THR G   3      18.321  37.757  35.837  1.00 67.51 LIG-0.39  OA
ATOM     32 HG1  THR G   3      18.888  38.375  35.786  1.00 67.51 LIG 0.21  HD
ENDBRANCH 29 31
ENDBRANCH 1 29
BRANCH 1 33
ATOM     33  C   THR G   3      17.297  37.108  39.198  1.00 68.02 LIG 0.24  C 
ATOM     34  N   ALA G   4      17.867  36.443  40.202  1.00 68.86 LIG-0.35  N 
ATOM     35 H    ALA G   4      18.718  36.390  40.312  1.00 68.86 LIG 0.16  HD
ATOM     36 O    THR G   3      16.081  37.125  39.000  1.00 67.54 LIG-0.27  OA
BRANCH 34 37
ATOM     37  CA  ALA G   4      17.090  35.733  41.223  1.00 69.75 LIG 0.17  C 
ATOM     38  CB  ALA G   4      17.946  35.493  42.455  1.00 70.86 LIG 0.04  C 
BRANCH 37 39
ATOM     39  C   ALA G   4      15.799  36.468  41.606  1.00 71.43 LIG 0.24  C 
ATOM     40  N   ALA G   5      14.831  35.733  42.157  1.00 71.85 LIG-0.35  N 
ATOM     41 H    ALA G   5      14.877  34.879  42.249  1.00 71.85 LIG 0.16  HD
ATOM     42 O    ALA G   4      15.693  37.681  41.403  1.00 72.80 LIG-0.27  OA
BRANCH 40 43
ATOM     43  CA  ALA G   5      13.586  36.321  42.662  1.00 72.89 LIG 0.17  C 
ATOM     44  CB  ALA G   5      12.888  35.357  43.613  1.00 72.65 LIG 0.04  C 
BRANCH 43 45
ATOM     45  C   ALA G   5      13.823  37.669  43.352  1.00 72.87 LIG 0.24  C 
ATOM     46  N   THR G   6      12.830  38.560  43.292  1.00 71.86 LIG-0.34  N 
ATOM     47 H    THR G   6      12.088  38.420  42.882  1.00 71.86 LIG 0.16  HD
ATOM     48 O    ALA G   5      14.891  37.889  43.927  1.00 74.40 LIG-0.27  OA
BRANCH 46 49
ATOM     49  CA  THR G   6      12.922  39.882  43.935  1.00 72.17 LIG 0.20  C 
BRANCH 49 50
ATOM     50  CB  THR G   6      13.647  40.920  43.048  1.00 71.29 LIG 0.15  C 
ATOM     51  CG2 THR G   6      15.162  40.780  43.176  1.00 70.64 LIG 0.04  C 
BRANCH 50 52
ATOM     52 OG1  THR G   6      13.264  40.747  41.678  1.00 70.47 LIG-0.39  OA
ATOM     53 HG1  THR G   6      12.916  39.989  41.578  1.00 70.47 LIG 0.21  HD
ENDBRANCH 50 52
ENDBRANCH 49 50
BRANCH 49 54
ATOM     54  C   THR G   6      11.547  40.439  44.334  1.00 73.53 LIG 0.24  C 
ATOM     55  N   ALA G   7      11.507  41.245  45.400  1.00 73.25 LIG-0.35  N 
ATOM     56 H    ALA G   7      12.187  41.391  45.906  1.00 73.25 LIG 0.16  HD
ATOM     57 O    THR G   6      10.546  40.124  43.687  1.00 75.15 LIG-0.27  OA
BRANCH 55 58
ATOM     58  CA  ALA G   7      10.295  41.966  45.815  1.00 74.45 LIG 0.16  C 
ATOM     59  CB  ALA G   7      10.341  42.269  47.306  1.00 73.04 LIG 0.04  C 
BRANCH 58 60
ATOM     60  C   ALA G   7      10.137  43.261  45.019  1.00 76.13 LIG 0.22  C 
ATOM     61 O    ALA G   7      11.011  44.129  45.038  1.00 77.97 LIG-0.29  OA
ENDBRANCH 58 60
ENDBRANCH 55 58
ENDBRANCH 49 54
ENDBRANCH 46 49
ENDBRANCH 43 45
ENDBRANCH 40 43
ENDBRANCH 37 39
ENDBRANCH 34 37
ENDBRANCH 1 33
TORSDOF 22
ENDMDL
MODEL 3
USER: ADFR SOLUTION from run 110
USER: SCORE 18.909401 LL:  -3.275 LR: -17.970 RR:   0.000 FEB: -11.407
USER: RMSD 5.108034
USER: SEED 109
USER: STATUS no improvement in best in 5 clusters for 5 generations
USER: GENES 24
USER: genes 0 Translation |==|  0.40763 0.42575 0.30560
USER: genes 1 Rotation |==|  0.73935 0.48370 0.67623 0.90173
USER: genes 2 Torsion [CB]-CA--N-[C] |==|  0.53575
USER: genes 3 Torsion [N]-C--CA-[N] |==|  0.96667
USER: genes 4 Torsion [C]-CA--N-[C] |==|  0.81246
USER: genes 5 Torsion [N]-C--CA-[N] |==|  0.99805
USER: genes 6 Torsion [C]-CA--N-[H1] |==|  0.13385
USER: genes 7 Torsion [C]-CA--CB-[CG] |==|  0.43468
USER: genes 8 Torsion [CA]-CB--CG-[CD] |==|  0.40683
USER: genes 9 Torsion [CB]-CG--CD-[NE] |==|  0.75832
USER: genes 10 Torsion [CG]-CD--NE-[CZ] |==|  0.53001
USER: genes 11 Torsion [N]-CA--CB-[OG1] |==|  0.17164
USER: genes 12 Torsion [CA]-CB--OG1-[HG1] |==|  0.48928
USER: genes 13 Torsion [N]-CA--C-[N] |==|  0.38406
USER: genes 14 Torsion [C]-N--CA-[CB] |==|  0.85486
USER: genes 15 Torsion [N]-CA--C-[N] |==|  0.45948
USER: genes 16 Torsion [C]-N--CA-[CB] |==|  0.80148
USER: genes 17 Torsion [N]-CA--C-[N] |==|  0.13080
USER: genes 18 Torsion [C]-N--CA-[CB] |==|  0.27046
USER: genes 19 Torsion [N]-CA--CB-[CG2] |==|  0.84577
USER: genes 20 Torsion [CA]-CB--OG1-[HG1] |==|  0.76204
USER: genes 21 Torsion [N]-CA--C-[N] |==|  0.39136
USER: genes 22 Torsion [C]-N--CA-[C] |==|  0.50484
USER: genes 23 Torsion [N]-CA--C-[O] |==|  0.11472
ROOT
ATOM      1  CA  THR G   3      16.060  36.817  39.226  1.00 68.23 LIG 0.20  C 
ENDROOT
BRANCH 1 2
ATOM      2  N   THR G   3      17.303  37.542  39.472  1.00 68.42 LIG-0.34  N 
ATOM      3  C   ARG G   2      17.448  38.428  40.454  1.00 70.38 LIG 0.24  C 
ATOM      4 O    ARG G   2      16.521  38.805  41.181  1.00 69.46 LIG-0.27  OA
ATOM      5 H    THR G   3      17.933  37.342  38.922  1.00 68.42 LIG 0.16  HD
BRANCH 3 6
ATOM      6  CA  ARG G   2      18.852  38.998  40.625  1.00 72.62 LIG 0.18  C 
BRANCH 6 7
ATOM      7  N   ARG G   2      19.788  38.210  39.829  1.00 74.86 LIG-0.35  N 
ATOM      8  C   ALA G   1      20.077  36.944  40.122  1.00 76.29 LIG 0.25  C 
ATOM      9 O    ALA G   1      19.727  36.389  41.169  1.00 75.70 LIG-0.27  OA
ATOM     10 H    ARG G   2      20.130  38.635  39.164  1.00 74.86 LIG 0.16  HD
BRANCH 8 11
ATOM     11  CA  ALA G   1      20.891  36.188  39.084  1.00 78.97 LIG 0.27  C 
ATOM     12  CB  ALA G   1      22.182  35.675  39.713  1.00 79.33 LIG 0.05  C 
BRANCH 11 13
ATOM     13  N   ALA G   1      21.186  37.060  37.914  1.00 81.42 LIG-0.07  N 
ATOM     14 H3   ALA G   1      20.441  37.187  37.442  1.00 81.42 LIG 0.28  HD
ATOM     15 H2   ALA G   1      21.799  36.670  37.400  1.00 81.42 LIG 0.28  HD
ATOM     16 H1   ALA G   1      21.494  37.845  38.198  1.00 81.42 LIG 0.28  HD
ENDBRANCH 11 13
ENDBRANCH 8 11
ENDBRANCH 6 7
BRANCH 6 17
ATOM     17  CB  ARG G   2      18.895  40.474  40.216  1.00 73.45 LIG 0.04  C 
BRANCH 17 18
ATOM     18  CG  ARG G   2      20.037  41.240  40.863  1.00 75.79 LIG 0.02  C 
BRANCH 18 19
ATOM     19  CD  ARG G   2      20.592  42.328  39.957  1.00 77.52 LIG 0.14  C 
BRANCH 19 20
ATOM     20  NE  ARG G   2      21.631  41.802  39.068  1.00 80.25 LIG-0.23  N 
ATOM     21  CZ  ARG G   2      22.447  42.537  38.305  1.00 82.01 LIG 0.67  C 
ATOM     22  NH1 ARG G   2      22.378  43.870  38.288  1.00 81.47 LIG-0.23  N 
ATOM     23  NH2 ARG G   2      23.347  41.927  37.538  1.00 84.93 LIG-0.23  N 
ATOM     24 1HH1 ARG G   2      21.798  44.277  38.776  1.00 81.47 LIG 0.17  HD
ATOM     25 2HH1 ARG G   2      22.914  44.322  37.789  1.00 81.47 LIG 0.17  HD
ATOM     26 2HH2 ARG G   2      23.877  42.391  37.044  1.00 84.93 LIG 0.17  HD
ATOM     27 1HH2 ARG G   2      23.400  41.068  37.536  1.00 84.93 LIG 0.17  HD
ATOM     28 HE   ARG G   2      21.724  40.948  39.034  1.00 80.25 LIG 0.18  HD
ENDBRANCH 19 20
ENDBRANCH 18 19
ENDBRANCH 17 18
ENDBRANCH 6 17
ENDBRANCH 3 6
ENDBRANCH 1 2
BRANCH 1 29
ATOM     29  CB  THR G   3      16.263  35.638  38.246  1.00 68.23 LIG 0.15  C 
ATOM     30  CG2 THR G   3      16.788  36.132  36.910  1.00 68.63 LIG 0.04  C 
BRANCH 29 31
ATOM     31 OG1  THR G   3      17.183  34.689  38.799  1.00 67.51 LIG-0.39  OA
ATOM     32 HG1  THR G   3      17.247  34.028  38.285  1.00 67.51 LIG 0.21  HD
ENDBRANCH 29 31
ENDBRANCH 1 29
BRANCH 1 33
ATOM     33  C   THR G   3      15.487  36.289  40.537  1.00 68.02 LIG 0.24  C 
ATOM     34  N   ALA G   4      14.169  36.406  40.682  1.00 68.86 LIG-0.35  N 
ATOM     35 H    ALA G   4      13.662  36.797  40.108  1.00 68.86 LIG 0.16  HD
ATOM     36 O    THR G   3      16.223  35.792  41.393  1.00 67.54 LIG-0.27  OA
BRANCH 34 37
ATOM     37  CA  ALA G   4      13.450  35.876  41.845  1.00 69.75 LIG 0.17  C 
ATOM     38  CB  ALA G   4      13.801  34.412  42.052  1.00 70.86 LIG 0.04  C 
BRANCH 37 39
ATOM     39  C   ALA G   4      13.721  36.675  43.126  1.00 71.43 LIG 0.24  C 
ATOM     40  N   ALA G   5      12.895  36.461  44.153  1.00 71.85 LIG-0.35  N 
ATOM     41 H    ALA G   5      12.202  35.954  44.106  1.00 71.85 LIG 0.16  HD
ATOM     42 O    ALA G   4      14.667  37.467  43.174  1.00 72.80 LIG-0.27  OA
BRANCH 40 43
ATOM     43  CA  ALA G   5      13.095  37.079  45.468  1.00 72.89 LIG 0.17  C 
ATOM     44  CB  ALA G   5      14.291  36.453  46.175  1.00 72.65 LIG 0.04  C 
BRANCH 43 45
ATOM     45  C   ALA G   5      13.271  38.599  45.369  1.00 72.87 LIG 0.24  C 
ATOM     46  N   THR G   6      12.396  39.259  44.606  1.00 71.86 LIG-0.34  N 
ATOM     47 H    THR G   6      11.763  38.877  44.167  1.00 71.86 LIG 0.16  HD
ATOM     48 O    ALA G   5      14.187  39.155  45.978  1.00 74.40 LIG-0.27  OA
BRANCH 46 49
ATOM     49  CA  THR G   6      12.440  40.723  44.448  1.00 72.17 LIG 0.20  C 
BRANCH 49 50
ATOM     50  CB  THR G   6      13.174  41.154  43.157  1.00 71.29 LIG 0.15  C 
ATOM     51  CG2 THR G   6      14.582  40.564  43.109  1.00 70.64 LIG 0.04  C 
BRANCH 50 52
ATOM     52 OG1  THR G   6      12.436  40.726  42.006  1.00 70.47 LIG-0.39  OA
ATOM     53 HG1  THR G   6      12.647  39.936  41.815  1.00 70.47 LIG 0.21  HD
ENDBRANCH 50 52
ENDBRANCH 49 50
BRANCH 49 54
ATOM     54  C   THR G   6      11.042  41.358  44.464  1.00 73.53 LIG 0.24  C 
ATOM     55  N   ALA G   7      10.915  42.524  45.105  1.00 73.25 LIG-0.35  N 
ATOM     56 H    ALA G   7      11.547  42.879  45.568  1.00 73.25 LIG 0.16  HD
ATOM     57 O    THR G   6      10.100  40.783  43.913  1.00 75.15 LIG-0.27  OA
BRANCH 55 58
ATOM     58  CA  ALA G   7       9.679  43.320  45.085  1.00 74.45 LIG 0.16  C 
ATOM     59  CB  ALA G   7       8.519  42.517  45.656  1.00 73.04 LIG 0.04  C 
BRANCH 58 60
ATOM     60  C   ALA G   7       9.860  44.617  45.873  1.00 76.13 LIG 0.22  C 
ATOM     61 O    ALA G   7      10.900  45.273  45.788  1.00 77.97 LIG-0.29  OA
ENDBRANCH 58 60
ENDBRANCH 55 58
ENDBRANCH 49 54
ENDBRANCH 46 49
ENDBRANCH 43 45
ENDBRANCH 40 43
ENDBRANCH 37 39
ENDBRANCH 34 37
ENDBRANCH 1 33
TORSDOF 22
ENDMDL
MODEL 4
USER: ADFR SOLUTION from run 102
USER: SCORE 18.085970 LL:  -2.981 LR: -17.642 RR:   0.000 FEB: -11.079
USER: RMSD 6.374969
USER: SEED 101
USER: STATUS no improvement in best in 36 clusters for 5 generations
USER: GENES 24
USER: genes 0 Translation |==|  0.53094 0.48903 0.26894
USER: genes 1 Rotation |==|  0.70529 0.42000 0.68714 0.90797
USER: genes 2 Torsion [CB]-CA--N-[C] |==|  0.54469
USER: genes 3 Torsion [N]-C--CA-[N] |==|  0.00344
USER: genes 4 Torsion [C]-CA--N-[C] |==|  0.78254
USER: genes 5 Torsion [N]-C--CA-[N] |==|  0.83128
USER: genes 6 Torsion [C]-CA--N-[H1] |==|  0.93221
USER: genes 7 Torsion [C]-CA--CB-[CG] |==|  0.94984
USER: genes 8 Torsion [CA]-CB--CG-[CD] |==|  0.53067
USER: genes 9 Torsion [CB]-CG--CD-[NE] |==|  0.58721
USER: genes 10 Torsion [CG]-CD--NE-[CZ] |==|  0.37410
USER: genes 11 Torsion [N]-CA--CB-[OG1] |==|  0.68983
USER: genes 12 Torsion [CA]-CB--OG1-[HG1] |==|  0.08229
USER: genes 13 Torsion [N]-CA--C-[N] |==|  0.38660
USER: genes 14 Torsion [C]-N--CA-[CB] |==|  0.85018
USER: genes 15 Torsion [N]-CA--C-[N] |==|  0.32778
USER: genes 16 Torsion [C]-N--CA-[CB] |==|  0.13176
USER: genes 17 Torsion [N]-CA--C-[N] |==|  0.47488
USER: genes 18 Torsion [C]-N--CA-[CB] |==|  0.26105
USER: genes 19 Torsion [N]-CA--CB-[CG2] |==|  0.52115
USER: genes 20 Torsion [CA]-CB--OG1-[HG1] |==|  0.17424
USER: genes 21 Torsion [N]-CA--C-[N] |==|  0.98788
USER: genes 22 Torsion [C]-N--CA-[C] |==|  0.81215
USER: genes 23 Torsion [N]-CA--C-[O] |==|  0.12544
ROOT
ATOM      1  CA  THR G   3      18.834  37.957  38.484  1.00 68.23 LIG 0.20  C 
ENDROOT
BRANCH 1 2
ATOM      2  N   THR G   3      20.034  38.571  39.044  1.00 68.42 LIG-0.34  N 
ATOM      3  C   ARG G   2      20.005  39.438  40.053  1.00 70.38 LIG 0.24  C 
ATOM      4 O    ARG G   2      18.963  39.890  40.541  1.00 69.46 LIG-0.27  OA
ATOM      5 H    THR G   3      20.761  38.320  38.660  1.00 68.42 LIG 0.16  HD
BRANCH 3 6
ATOM      6  CA  ARG G   2      21.366  39.885  40.576  1.00 72.62 LIG 0.18  C 
BRANCH 6 7
ATOM      7  N   ARG G   2      22.416  39.244  39.788  1.00 74.86 LIG-0.35  N 
ATOM      8  C   ALA G   1      22.775  37.978  39.983  1.00 76.29 LIG 0.25  C 
ATOM      9 O    ALA G   1      22.391  37.298  40.940  1.00 75.70 LIG-0.27  OA
ATOM     10 H    ARG G   2      22.774  39.756  39.196  1.00 74.86 LIG 0.16  HD
BRANCH 8 11
ATOM     11  CA  ALA G   1      23.718  37.386  38.947  1.00 78.97 LIG 0.27  C 
ATOM     12  CB  ALA G   1      25.032  38.160  38.942  1.00 79.33 LIG 0.05  C 
BRANCH 11 13
ATOM     13  N   ALA G   1      23.091  37.404  37.597  1.00 81.42 LIG-0.07  N 
ATOM     14 H3   ALA G   1      23.338  36.678  37.145  1.00 81.42 LIG 0.28  HD
ATOM     15 H2   ALA G   1      23.355  38.131  37.157  1.00 81.42 LIG 0.28  HD
ATOM     16 H1   ALA G   1      22.205  37.414  37.681  1.00 81.42 LIG 0.28  HD
ENDBRANCH 11 13
ENDBRANCH 8 11
ENDBRANCH 6 7
BRANCH 6 17
ATOM     17  CB  ARG G   2      21.497  41.410  40.525  1.00 73.45 LIG 0.04  C 
BRANCH 17 18
ATOM     18  CG  ARG G   2      20.486  42.066  39.600  1.00 75.79 LIG 0.02  C 
BRANCH 18 19
ATOM     19  CD  ARG G   2      20.796  43.534  39.351  1.00 77.52 LIG 0.14  C 
BRANCH 19 20
ATOM     20  NE  ARG G   2      19.570  44.308  39.136  1.00 80.25 LIG-0.23  N 
ATOM     21  CZ  ARG G   2      19.291  45.492  39.691  1.00 82.01 LIG 0.67  C 
ATOM     22  NH1 ARG G   2      20.142  46.093  40.525  1.00 81.47 LIG-0.23  N 
ATOM     23  NH2 ARG G   2      18.133  46.086  39.411  1.00 84.93 LIG-0.23  N 
ATOM     24 1HH1 ARG G   2      20.892  45.718  40.718  1.00 81.47 LIG 0.17  HD
ATOM     25 2HH1 ARG G   2      19.941  46.855  40.870  1.00 81.47 LIG 0.17  HD
ATOM     26 2HH2 ARG G   2      17.944  46.847  39.763  1.00 84.93 LIG 0.17  HD
ATOM     27 1HH2 ARG G   2      17.574  45.708  38.878  1.00 84.93 LIG 0.17  HD
ATOM     28 HE   ARG G   2      18.981  43.972  38.608  1.00 80.25 LIG 0.18  HD
ENDBRANCH 19 20
ENDBRANCH 18 19
ENDBRANCH 17 18
ENDBRANCH 6 17
ENDBRANCH 3 6
ENDBRANCH 1 2
BRANCH 1 29
ATOM     29  CB  THR G   3      19.170  36.719  37.618  1.00 68.23 LIG 0.15  C 
ATOM     30  CG2 THR G   3      18.367  35.513  38.069  1.00 68.63 LIG 0.04  C 
BRANCH 29 31
ATOM     31 OG1  THR G   3      18.890  36.991  36.239  1.00 67.51 LIG-0.39  OA
ATOM     32 HG1  THR G   3      18.992  37.811  36.089  1.00 67.51 LIG 0.21  HD
ENDBRANCH 29 31
ENDBRANCH 1 29
BRANCH 1 33
ATOM     33  C   THR G   3      17.880  37.546  39.600  1.00 68.02 LIG 0.24  C 
ATOM     34  N   ALA G   4      16.588  37.776  39.372  1.00 68.86 LIG-0.35  N 
ATOM     35 H    ALA G   4      16.296  38.176  38.668  1.00 68.86 LIG 0.16  HD
ATOM     36 O    THR G   3      18.304  37.037  40.639  1.00 67.54 LIG-0.27  OA
BRANCH 34 37
ATOM     37  CA  ALA G   4      15.534  37.368  40.304  1.00 69.75 LIG 0.17  C 
ATOM     38  CB  ALA G   4      15.654  35.884  40.610  1.00 70.86 LIG 0.04  C 
BRANCH 37 39
ATOM     39  C   ALA G   4      15.543  38.182  41.605  1.00 71.43 LIG 0.24  C 
ATOM     40  N   ALA G   5      14.454  38.907  41.867  1.00 71.85 LIG-0.35  N 
ATOM     41 H    ALA G   5      13.791  38.981  41.324  1.00 71.85 LIG 0.16  HD
ATOM     42 O    ALA G   4      16.525  38.144  42.352  1.00 72.80 LIG-0.27  OA
BRANCH 40 43
ATOM     43  CA  ALA G   5      14.285  39.652  43.120  1.00 72.89 LIG 0.17  C 
ATOM     44  CB  ALA G   5      15.541  40.453  43.437  1.00 72.65 LIG 0.04  C 
BRANCH 43 45
ATOM     45  C   ALA G   5      13.062  40.573  43.082  1.00 72.87 LIG 0.24  C 
ATOM     46  N   THR G   6      12.709  41.156  44.231  1.00 71.86 LIG-0.34  N 
ATOM     47 H    THR G   6      13.119  41.028  44.976  1.00 71.86 LIG 0.16  HD
ATOM     48 O    ALA G   5      12.453  40.749  42.024  1.00 74.40 LIG-0.27  OA
BRANCH 46 49
ATOM     49  CA  THR G   6      11.568  42.083  44.324  1.00 72.17 LIG 0.20  C 
BRANCH 49 50
ATOM     50  CB  THR G   6      10.263  41.369  44.747  1.00 71.29 LIG 0.15  C 
ATOM     51  CG2 THR G   6       9.069  42.317  44.652  1.00 70.64 LIG 0.04  C 
BRANCH 50 52
ATOM     52 OG1  THR G   6      10.036  40.227  43.913  1.00 70.47 LIG-0.39  OA
ATOM     53 HG1  THR G   6      10.661  39.675  44.017  1.00 70.47 LIG 0.21  HD
ENDBRANCH 50 52
ENDBRANCH 49 50
BRANCH 49 54
ATOM     54  C   THR G   6      11.835  43.250  45.286  1.00 73.53 LIG 0.24  C 
ATOM     55  N   ALA G   7      12.989  43.225  45.960  1.00 73.25 LIG-0.35  N 
ATOM     56 H    ALA G   7      13.532  42.558  45.941  1.00 73.25 LIG 0.16  HD
ATOM     57 O    THR G   6      10.995  44.143  45.415  1.00 75.15 LIG-0.27  OA
BRANCH 55 58
ATOM     58  CA  ALA G   7      13.448  44.337  46.805  1.00 74.45 LIG 0.16  C 
ATOM     59  CB  ALA G   7      14.660  43.918  47.624  1.00 73.04 LIG 0.04  C 
BRANCH 58 60
ATOM     60  C   ALA G   7      13.786  45.559  45.951  1.00 76.13 LIG 0.22  C 
ATOM     61 O    ALA G   7      13.035  45.931  45.048  1.00 77.97 LIG-0.29  OA
ENDBRANCH 58 60
ENDBRANCH 55 58
ENDBRANCH 49 54
ENDBRANCH 46 49
ENDBRANCH 43 45
ENDBRANCH 40 43
ENDBRANCH 37 39
ENDBRANCH 34 37
ENDBRANCH 1 33
TORSDOF 22
ENDMDL
MODEL 5
USER: ADFR SOLUTION from run 12
USER: SCORE 18.459770 LL:  -3.182 LR: -17.481 RR:   0.000 FEB: -10.919
USER: RMSD 5.932329
USER: SEED 103677
USER: STATUS no improvement in best in 19 clusters for 5 generations
USER: GENES 24
USER: genes 0 Translation |==|  0.53097 0.49597 0.27268
USER: genes 1 Rotation |==|  0.70402 0.42702 0.69433 0.90655
USER: genes 2 Torsion [CB]-CA--N-[C] |==|  0.54505
USER: genes 3 Torsion [N]-C--CA-[N] |==|  0.99770
USER: genes 4 Torsion [C]-CA--N-[C] |==|  0.77580
USER: genes 5 Torsion [N]-C--CA-[N] |==|  0.81785
USER: genes 6 Torsion [C]-CA--N-[H1] |==|  0.13395
USER: genes 7 Torsion [C]-CA--CB-[CG] |==|  0.94959
USER: genes 8 Torsion [CA]-CB--CG-[CD] |==|  0.54394
USER: genes 9 Torsion [CB]-CG--CD-[NE] |==|  0.61024
USER: genes 10 Torsion [CG]-CD--NE-[CZ] |==|  0.36003
USER: genes 11 Torsion [N]-CA--CB-[OG1] |==|  0.68097
USER: genes 12 Torsion [CA]-CB--OG1-[HG1] |==|  0.17021
USER: genes 13 Torsion [N]-CA--C-[N] |==|  0.39528
USER: genes 14 Torsion [C]-N--CA-[CB] |==|  0.84708
USER: genes 15 Torsion [N]-CA--C-[N] |==|  0.35434
USER: genes 16 Torsion [C]-N--CA-[CB] |==|  0.44724
USER: genes 17 Torsion [N]-CA--C-[N] |==|  0.80033
USER: genes 18 Torsion [C]-N--CA-[CB] |==|  0.83889
USER: genes 19 Torsion [N]-CA--CB-[CG2] |==|  0.36674
USER: genes 20 Torsion [CA]-CB--OG1-[HG1] |==|  0.84805
USER: genes 21 Torsion [N]-CA--C-[N] |==|  0.39048
USER: genes 22 Torsion [C]-N--CA-[C] |==|  0.80199
USER: genes 23 Torsion [N]-CA--C-[O] |==|  0.24031
ROOT
ATOM      1  CA  THR G   3      18.835  38.081  38.560  1.00 68.23 LIG 0.20  C 
ENDROOT
BRANCH 1 2
ATOM      2  N   THR G   3      20.016  38.748  39.099  1.00 68.42 LIG-0.34  N 
ATOM      3  C   ARG G   2      19.964  39.629  40.095  1.00 70.38 LIG 0.24  C 
ATOM      4 O    ARG G   2      18.910  40.049  40.586  1.00 69.46 LIG-0.27  OA
ATOM      5 H    THR G   3      20.748  38.519  38.712  1.00 68.42 LIG 0.16  HD
BRANCH 3 6
ATOM      6  CA  ARG G   2      21.312  40.134  40.599  1.00 72.62 LIG 0.18  C 
BRANCH 6 7
ATOM      7  N   ARG G   2      22.379  39.484  39.843  1.00 74.86 LIG-0.35  N 
ATOM      8  C   ALA G   1      22.801  38.254  40.128  1.00 76.29 LIG 0.25  C 
ATOM      9 O    ALA G   1      22.465  37.634  41.142  1.00 75.70 LIG-0.27  OA
ATOM     10 H    ARG G   2      22.703  39.964  39.207  1.00 74.86 LIG 0.16  HD
BRANCH 8 11
ATOM     11  CA  ALA G   1      23.757  37.628  39.124  1.00 78.97 LIG 0.27  C 
ATOM     12  CB  ALA G   1      24.979  38.523  38.945  1.00 79.33 LIG 0.05  C 
BRANCH 11 13
ATOM     13  N   ALA G   1      23.073  37.404  37.820  1.00 81.42 LIG-0.07  N 
ATOM     14 H3   ALA G   1      22.493  36.733  37.900  1.00 81.42 LIG 0.28  HD
ATOM     15 H2   ALA G   1      23.678  37.201  37.199  1.00 81.42 LIG 0.28  HD
ATOM     16 H1   ALA G   1      22.640  38.143  37.581  1.00 81.42 LIG 0.28  HD
ENDBRANCH 11 13
ENDBRANCH 8 11
ENDBRANCH 6 7
BRANCH 6 17
ATOM     17  CB  ARG G   2      21.405  41.658  40.475  1.00 73.45 LIG 0.04  C 
BRANCH 17 18
ATOM     18  CG  ARG G   2      20.382  42.243  39.517  1.00 75.79 LIG 0.02  C 
BRANCH 18 19
ATOM     19  CD  ARG G   2      20.720  43.669  39.110  1.00 77.52 LIG 0.14  C 
BRANCH 19 20
ATOM     20  NE  ARG G   2      19.517  44.504  39.042  1.00 80.25 LIG-0.23  N 
ATOM     21  CZ  ARG G   2      19.365  45.697  39.624  1.00 82.01 LIG 0.67  C 
ATOM     22  NH1 ARG G   2      20.338  46.252  40.350  1.00 81.47 LIG-0.23  N 
ATOM     23  NH2 ARG G   2      18.213  46.349  39.484  1.00 84.93 LIG-0.23  N 
ATOM     24 1HH1 ARG G   2      21.086  45.839  40.452  1.00 81.47 LIG 0.17  HD
ATOM     25 2HH1 ARG G   2      20.218  47.021  40.715  1.00 81.47 LIG 0.17  HD
ATOM     26 2HH2 ARG G   2      18.105  47.117  39.855  1.00 84.93 LIG 0.17  HD
ATOM     27 1HH2 ARG G   2      17.576  46.001  39.022  1.00 84.93 LIG 0.17  HD
ATOM     28 HE   ARG G   2      18.853  44.199  38.588  1.00 80.25 LIG 0.18  HD
ENDBRANCH 19 20
ENDBRANCH 18 19
ENDBRANCH 17 18
ENDBRANCH 6 17
ENDBRANCH 3 6
ENDBRANCH 1 2
BRANCH 1 29
ATOM     29  CB  THR G   3      19.208  36.843  37.712  1.00 68.23 LIG 0.15  C 
ATOM     30  CG2 THR G   3      18.514  35.600  38.238  1.00 68.63 LIG 0.04  C 
BRANCH 29 31
ATOM     31 OG1  THR G   3      18.839  37.052  36.343  1.00 67.51 LIG-0.39  OA
ATOM     32 HG1  THR G   3      19.258  37.713  36.038  1.00 67.51 LIG 0.21  HD
ENDBRANCH 29 31
ENDBRANCH 1 29
BRANCH 1 33
ATOM     33  C   THR G   3      17.905  37.655  39.690  1.00 68.02 LIG 0.24  C 
ATOM     34  N   ALA G   4      16.601  37.775  39.445  1.00 68.86 LIG-0.35  N 
ATOM     35 H    ALA G   4      16.285  38.115  38.721  1.00 68.86 LIG 0.16  HD
ATOM     36 O    THR G   3      18.358  37.233  40.756  1.00 67.54 LIG-0.27  OA
BRANCH 34 37
ATOM     37  CA  ALA G   4      15.573  37.335  40.392  1.00 69.75 LIG 0.17  C 
ATOM     38  CB  ALA G   4      15.787  35.874  40.751  1.00 70.86 LIG 0.04  C 
BRANCH 37 39
ATOM     39  C   ALA G   4      15.528  38.194  41.662  1.00 71.43 LIG 0.24  C 
ATOM     40  N   ALA G   5      14.340  38.698  42.003  1.00 71.85 LIG-0.35  N 
ATOM     41 H    ALA G   5      13.632  38.612  41.523  1.00 71.85 LIG 0.16  HD
ATOM     42 O    ALA G   4      16.557  38.389  42.315  1.00 72.80 LIG-0.27  OA
BRANCH 40 43
ATOM     43  CA  ALA G   5      14.131  39.452  43.244  1.00 72.89 LIG 0.17  C 
ATOM     44  CB  ALA G   5      12.857  40.282  43.155  1.00 72.65 LIG 0.04  C 
BRANCH 43 45
ATOM     45  C   ALA G   5      14.085  38.539  44.473  1.00 72.87 LIG 0.24  C 
ATOM     46  N   THR G   6      12.999  37.774  44.617  1.00 71.86 LIG-0.34  N 
ATOM     47 H    THR G   6      12.335  37.783  44.071  1.00 71.86 LIG 0.16  HD
ATOM     48 O    ALA G   5      15.023  38.532  45.273  1.00 74.40 LIG-0.27  OA
BRANCH 46 49
ATOM     49  CA  THR G   6      12.843  36.834  45.740  1.00 72.17 LIG 0.20  C 
BRANCH 49 50
ATOM     50  CB  THR G   6      13.985  35.794  45.800  1.00 71.29 LIG 0.15  C 
ATOM     51  CG2 THR G   6      14.546  35.684  47.216  1.00 70.64 LIG 0.04  C 
BRANCH 50 52
ATOM     52 OG1  THR G   6      13.505  34.513  45.374  1.00 70.47 LIG-0.39  OA
ATOM     53 HG1  THR G   6      12.833  34.299  45.831  1.00 70.47 LIG 0.21  HD
ENDBRANCH 50 52
ENDBRANCH 49 50
BRANCH 49 54
ATOM     54  C   THR G   6      12.744  37.549  47.096  1.00 73.53 LIG 0.24  C 
ATOM     55  N   ALA G   7      11.872  37.053  47.979  1.00 73.25 LIG-0.35  N 
ATOM     56 H    ALA G   7      11.319  36.421  47.791  1.00 73.25 LIG 0.16  HD
ATOM     57 O    THR G   6      13.443  38.540  47.319  1.00 75.15 LIG-0.27  OA
BRANCH 55 58
ATOM     58  CA  ALA G   7      11.768  37.538  49.362  1.00 74.45 LIG 0.16  C 
ATOM     59  CB  ALA G   7      10.488  37.029  50.010  1.00 73.04 LIG 0.04  C 
BRANCH 58 60
ATOM     60  C   ALA G   7      12.982  37.100  50.181  1.00 76.13 LIG 0.22  C 
ATOM     61 O    ALA G   7      14.014  37.773  50.197  1.00 77.97 LIG-0.29  OA
ENDBRANCH 58 60
ENDBRANCH 55 58
ENDBRANCH 49 54
ENDBRANCH 46 49
ENDBRANCH 43 45
ENDBRANCH 40 43
ENDBRANCH 37 39
ENDBRANCH 34 37
ENDBRANCH 1 33
TORSDOF 22
ENDMDL
MODEL 6
USER: ADFR SOLUTION from run 150
USER: SCORE 18.676635 LL:  -4.130 LR: -17.471 RR:   0.000 FEB: -10.908
USER: RMSD 6.931240
USER: SEED 149
USER: STATUS no improvement in best in 3 clusters for 5 generations
USER: GENES 24
USER: genes 0 Translation |==|  0.50921 0.40925 0.26086
USER: genes 1 Rotation |==|  0.85680 0.52724 0.71962 0.77151
USER: genes 2 Torsion [CB]-CA--N-[C] |==|  0.52778
USER: genes 3 Torsion [N]-C--CA-[N] |==|  0.87988
USER: genes 4 Torsion [C]-CA--N-[C] |==|  0.84143
USER: genes 5 Torsion [N]-C--CA-[N] |==|  0.88119
USER: genes 6 Torsion [C]-CA--N-[H1] |==|  0.66638
USER: genes 7 Torsion [C]-CA--CB-[CG] |==|  0.41260
USER: genes 8 Torsion [CA]-CB--CG-[CD] |==|  0.18413
USER: genes 9 Torsion [CB]-CG--CD-[NE] |==|  0.10592
USER: genes 10 Torsion [CG]-CD--NE-[CZ] |==|  0.29270
USER: genes 11 Torsion [N]-CA--CB-[OG1] |==|  0.83534
USER: genes 12 Torsion [CA]-CB--OG1-[HG1] |==|  0.23807
USER: genes 13 Torsion [N]-CA--C-[N] |==|  0.83759
USER: genes 14 Torsion [C]-N--CA-[CB] |==|  0.56229
USER: genes 15 Torsion [N]-CA--C-[N] |==|  0.29489
USER: genes 16 Torsion [C]-N--CA-[CB] |==|  0.86665
USER: genes 17 Torsion [N]-CA--C-[N] |==|  0.35752
USER: genes 18 Torsion [C]-N--CA-[CB] |==|  0.81602
USER: genes 19 Torsion [N]-CA--CB-[CG2] |==|  0.51145
USER: genes 20 Torsion [CA]-CB--OG1-[HG1] |==|  0.72291
USER: genes 21 Torsion [N]-CA--C-[N] |==|  0.74601
USER: genes 22 Torsion [C]-N--CA-[C] |==|  0.77091
USER: genes 23 Torsion [N]-CA--C-[O] |==|  0.35634
ROOT
ATOM      1  CA  THR G   3      18.345  36.521  38.320  1.00 68.23 LIG 0.20  C 
ENDROOT
BRANCH 1 2
ATOM      2  N   THR G   3      19.285  37.509  38.840  1.00 68.42 LIG-0.34  N 
ATOM      3  C   ARG G   2      19.381  37.814  40.132  1.00 70.38 LIG 0.24  C 
ATOM      4 O    ARG G   2      18.618  37.375  41.000  1.00 69.46 LIG-0.27  OA
ATOM      5 H    THR G   3      19.770  37.877  38.233  1.00 68.42 LIG 0.16  HD
BRANCH 3 6
ATOM      6  CA  ARG G   2      20.498  38.786  40.498  1.00 72.62 LIG 0.18  C 
BRANCH 6 7
ATOM      7  N   ARG G   2      21.711  38.416  39.773  1.00 74.86 LIG-0.35  N 
ATOM      8  C   ALA G   1      22.257  37.207  39.877  1.00 76.29 LIG 0.25  C 
ATOM      9 O    ALA G   1      21.902  36.366  40.709  1.00 75.70 LIG-0.27  OA
ATOM     10 H    ARG G   2      22.033  39.044  39.282  1.00 74.86 LIG 0.16  HD
BRANCH 8 11
ATOM     11  CA  ALA G   1      23.382  36.898  38.901  1.00 78.97 LIG 0.27  C 
ATOM     12  CB  ALA G   1      24.680  37.529  39.391  1.00 79.33 LIG 0.05  C 
BRANCH 11 13
ATOM     13  N   ALA G   1      23.040  37.387  37.537  1.00 81.42 LIG-0.07  N 
ATOM     14 H3   ALA G   1      23.646  37.983  37.274  1.00 81.42 LIG 0.28  HD
ATOM     15 H2   ALA G   1      22.236  37.768  37.551  1.00 81.42 LIG 0.28  HD
ATOM     16 H1   ALA G   1      23.033  36.702  36.968  1.00 81.42 LIG 0.28  HD
ENDBRANCH 11 13
ENDBRANCH 8 11
ENDBRANCH 6 7
BRANCH 6 17
ATOM     17  CB  ARG G   2      20.091  40.229  40.182  1.00 73.45 LIG 0.04  C 
BRANCH 17 18
ATOM     18  CG  ARG G   2      20.708  41.244  41.128  1.00 75.79 LIG 0.02  C 
BRANCH 18 19
ATOM     19  CD  ARG G   2      22.219  41.329  40.982  1.00 77.52 LIG 0.14  C 
BRANCH 19 20
ATOM     20  NE  ARG G   2      22.627  41.206  39.580  1.00 80.25 LIG-0.23  N 
ATOM     21  CZ  ARG G   2      23.051  42.207  38.802  1.00 82.01 LIG 0.67  C 
ATOM     22  NH1 ARG G   2      23.140  43.459  39.259  1.00 81.47 LIG-0.23  N 
ATOM     23  NH2 ARG G   2      23.389  41.955  37.540  1.00 84.93 LIG-0.23  N 
ATOM     24 1HH1 ARG G   2      22.922  43.637  40.071  1.00 81.47 LIG 0.17  HD
ATOM     25 2HH1 ARG G   2      23.416  44.087  38.740  1.00 81.47 LIG 0.17  HD
ATOM     26 2HH2 ARG G   2      23.663  42.592  37.032  1.00 84.93 LIG 0.17  HD
ATOM     27 1HH2 ARG G   2      23.333  41.154  37.232  1.00 84.93 LIG 0.17  HD
ATOM     28 HE   ARG G   2      22.591  40.422  39.227  1.00 80.25 LIG 0.18  HD
ENDBRANCH 19 20
ENDBRANCH 18 19
ENDBRANCH 17 18
ENDBRANCH 6 17
ENDBRANCH 3 6
ENDBRANCH 1 2
BRANCH 1 29
ATOM     29  CB  THR G   3      18.618  36.191  36.834  1.00 68.23 LIG 0.15  C 
ATOM     30  CG2 THR G   3      17.637  35.152  36.323  1.00 68.63 LIG 0.04  C 
BRANCH 29 31
ATOM     31 OG1  THR G   3      18.514  37.378  36.038  1.00 67.51 LIG-0.39  OA
ATOM     32 HG1  THR G   3      19.250  37.783  36.041  1.00 67.51 LIG 0.21  HD
ENDBRANCH 29 31
ENDBRANCH 1 29
BRANCH 1 33
ATOM     33  C   THR G   3      18.418  35.238  39.141  1.00 68.02 LIG 0.24  C 
ATOM     34  N   ALA G   4      19.612  34.649  39.191  1.00 68.86 LIG-0.35  N 
ATOM     35 H    ALA G   4      20.297  34.931  38.754  1.00 68.86 LIG 0.16  HD
ATOM     36 O    THR G   3      17.419  34.794  39.710  1.00 67.54 LIG-0.27  OA
BRANCH 34 37
ATOM     37  CA  ALA G   4      19.873  33.456  40.000  1.00 69.75 LIG 0.17  C 
ATOM     38  CB  ALA G   4      21.359  33.344  40.300  1.00 70.86 LIG 0.04  C 
BRANCH 37 39
ATOM     39  C   ALA G   4      19.064  33.432  41.303  1.00 71.43 LIG 0.24  C 
ATOM     40  N   ALA G   5      18.036  32.582  41.357  1.00 71.85 LIG-0.35  N 
ATOM     41 H    ALA G   5      17.780  32.105  40.689  1.00 71.85 LIG 0.16  HD
ATOM     42 O    ALA G   4      19.375  34.174  42.239  1.00 72.80 LIG-0.27  OA
BRANCH 40 43
ATOM     43  CA  ALA G   5      17.240  32.383  42.573  1.00 72.89 LIG 0.17  C 
ATOM     44  CB  ALA G   5      18.148  32.174  43.777  1.00 72.65 LIG 0.04  C 
BRANCH 43 45
ATOM     45  C   ALA G   5      16.278  33.548  42.828  1.00 72.87 LIG 0.24  C 
ATOM     46  N   THR G   6      14.997  33.237  43.045  1.00 71.86 LIG-0.34  N 
ATOM     47 H    THR G   6      14.694  32.432  43.034  1.00 71.86 LIG 0.16  HD
ATOM     48 O    ALA G   5      16.697  34.708  42.827  1.00 74.40 LIG-0.27  OA
BRANCH 46 49
ATOM     49  CA  THR G   6      13.976  34.261  43.328  1.00 72.17 LIG 0.20  C 
BRANCH 49 50
ATOM     50  CB  THR G   6      14.214  34.970  44.681  1.00 71.29 LIG 0.15  C 
ATOM     51  CG2 THR G   6      13.084  35.950  44.987  1.00 70.64 LIG 0.04  C 
BRANCH 50 52
ATOM     52 OG1  THR G   6      14.307  34.002  45.733  1.00 70.47 LIG-0.39  OA
ATOM     53 HG1  THR G   6      13.573  33.957  46.139  1.00 70.47 LIG 0.21  HD
ENDBRANCH 50 52
ENDBRANCH 49 50
BRANCH 49 54
ATOM     54  C   THR G   6      13.880  35.318  42.218  1.00 73.53 LIG 0.24  C 
ATOM     55  N   ALA G   7      14.639  36.409  42.356  1.00 73.25 LIG-0.35  N 
ATOM     56 H    ALA G   7      15.101  36.577  43.062  1.00 73.25 LIG 0.16  HD
ATOM     57 O    THR G   6      13.116  35.141  41.267  1.00 75.15 LIG-0.27  OA
BRANCH 55 58
ATOM     58  CA  ALA G   7      14.763  37.436  41.312  1.00 74.45 LIG 0.16  C 
ATOM     59  CB  ALA G   7      15.150  38.775  41.925  1.00 73.04 LIG 0.04  C 
BRANCH 58 60
ATOM     60  C   ALA G   7      15.794  37.019  40.263  1.00 76.13 LIG 0.22  C 
ATOM     61 O    ALA G   7      15.519  37.029  39.063  1.00 77.97 LIG-0.29  OA
ENDBRANCH 58 60
ENDBRANCH 55 58
ENDBRANCH 49 54
ENDBRANCH 46 49
ENDBRANCH 43 45
ENDBRANCH 40 43
ENDBRANCH 37 39
ENDBRANCH 34 37
ENDBRANCH 1 33
TORSDOF 22
ENDMDL
MODEL 7
USER: ADFR SOLUTION from run 11
USER: SCORE 17.848741 LL:  -2.766 LR: -17.434 RR:   0.000 FEB: -10.871
USER: RMSD 6.119351
USER: SEED 701526
USER: STATUS no improvement in best in 22 clusters for 5 generations
USER: GENES 24
USER: genes 0 Translation |==|  0.52774 0.49478 0.27378
USER: genes 1 Rotation |==|  0.70026 0.43881 0.68869 0.91297
USER: genes 2 Torsion [CB]-CA--N-[C] |==|  0.54539
USER: genes 3 Torsion [N]-C--CA-[N] |==|  0.97362
USER: genes 4 Torsion [C]-CA--N-[C] |==|  0.81366
USER: genes 5 Torsion [N]-C--CA-[N] |==|  0.83842
USER: genes 6 Torsion [C]-CA--N-[H1] |==|  0.08871
USER: genes 7 Torsion [C]-CA--CB-[CG] |==|  0.56533
USER: genes 8 Torsion [CA]-CB--CG-[CD] |==|  0.30958
USER: genes 9 Torsion [CB]-CG--CD-[NE] |==|  0.74696
USER: genes 10 Torsion [CG]-CD--NE-[CZ] |==|  0.53825
USER: genes 11 Torsion [N]-CA--CB-[OG1] |==|  0.70909
USER: genes 12 Torsion [CA]-CB--OG1-[HG1] |==|  0.23684
USER: genes 13 Torsion [N]-CA--C-[N] |==|  0.39641
USER: genes 14 Torsion [C]-N--CA-[CB] |==|  0.84529
USER: genes 15 Torsion [N]-CA--C-[N] |==|  0.33022
USER: genes 16 Torsion [C]-N--CA-[CB] |==|  0.12392
USER: genes 17 Torsion [N]-CA--C-[N] |==|  0.47778
USER: genes 18 Torsion [C]-N--CA-[CB] |==|  0.24243
USER: genes 19 Torsion [N]-CA--CB-[CG2] |==|  0.52266
USER: genes 20 Torsion [CA]-CB--OG1-[HG1] |==|  0.95684
USER: genes 21 Torsion [N]-CA--C-[N] |==|  0.98482
USER: genes 22 Torsion [C]-N--CA-[C] |==|  0.80292
USER: genes 23 Torsion [N]-CA--C-[O] |==|  0.15485
ROOT
ATOM      1  CA  THR G   3      18.762  38.060  38.582  1.00 68.23 LIG 0.20  C 
ENDROOT
BRANCH 1 2
ATOM      2  N   THR G   3      19.973  38.732  39.042  1.00 68.42 LIG-0.34  N 
ATOM      3  C   ARG G   2      19.977  39.648  40.007  1.00 70.38 LIG 0.24  C 
ATOM      4 O    ARG G   2      18.951  40.098  40.530  1.00 69.46 LIG-0.27  OA
ATOM      5 H    THR G   3      20.685  38.480  38.630  1.00 68.42 LIG 0.16  HD
BRANCH 3 6
ATOM      6  CA  ARG G   2      21.352  40.156  40.429  1.00 72.62 LIG 0.18  C 
BRANCH 6 7
ATOM      7  N   ARG G   2      22.380  39.328  39.804  1.00 74.86 LIG-0.35  N 
ATOM      8  C   ALA G   1      22.551  38.048  40.126  1.00 76.29 LIG 0.25  C 
ATOM      9 O    ALA G   1      21.992  37.504  41.083  1.00 75.70 LIG-0.27  OA
ATOM     10 H    ARG G   2      22.856  39.740  39.218  1.00 74.86 LIG 0.16  HD
BRANCH 8 11
ATOM     11  CA  ALA G   1      23.504  37.260  39.241  1.00 78.97 LIG 0.27  C 
ATOM     12  CB  ALA G   1      24.915  37.825  39.368  1.00 79.33 LIG 0.05  C 
BRANCH 11 13
ATOM     13  N   ALA G   1      23.050  37.292  37.823  1.00 81.42 LIG-0.07  N 
ATOM     14 H3   ALA G   1      22.484  36.620  37.677  1.00 81.42 LIG 0.28  HD
ATOM     15 H2   ALA G   1      23.753  37.209  37.284  1.00 81.42 LIG 0.28  HD
ATOM     16 H1   ALA G   1      22.640  38.065  37.660  1.00 81.42 LIG 0.28  HD
ENDBRANCH 11 13
ENDBRANCH 8 11
ENDBRANCH 6 7
BRANCH 6 17
ATOM     17  CB  ARG G   2      21.531  41.629  40.049  1.00 73.45 LIG 0.04  C 
BRANCH 17 18
ATOM     18  CG  ARG G   2      22.987  42.037  39.907  1.00 75.79 LIG 0.02  C 
BRANCH 18 19
ATOM     19  CD  ARG G   2      23.363  42.348  38.466  1.00 77.52 LIG 0.14  C 
BRANCH 19 20
ATOM     20  NE  ARG G   2      23.867  41.157  37.778  1.00 80.25 LIG-0.23  N 
ATOM     21  CZ  ARG G   2      24.514  41.150  36.608  1.00 82.01 LIG 0.67  C 
ATOM     22  NH1 ARG G   2      24.764  42.278  35.939  1.00 81.47 LIG-0.23  N 
ATOM     23  NH2 ARG G   2      24.915  39.991  36.092  1.00 84.93 LIG-0.23  N 
ATOM     24 1HH1 ARG G   2      24.507  43.033  36.260  1.00 81.47 LIG 0.17  HD
ATOM     25 2HH1 ARG G   2      25.182  42.249  35.188  1.00 81.47 LIG 0.17  HD
ATOM     26 2HH2 ARG G   2      25.332  39.976  35.340  1.00 84.93 LIG 0.17  HD
ATOM     27 1HH2 ARG G   2      24.757  39.256  36.510  1.00 84.93 LIG 0.17  HD
ATOM     28 HE   ARG G   2      23.735  40.397  38.159  1.00 80.25 LIG 0.18  HD
ENDBRANCH 19 20
ENDBRANCH 18 19
ENDBRANCH 17 18
ENDBRANCH 6 17
ENDBRANCH 3 6
ENDBRANCH 1 2
BRANCH 1 29
ATOM     29  CB  THR G   3      19.084  36.786  37.766  1.00 68.23 LIG 0.15  C 
ATOM     30  CG2 THR G   3      18.214  35.626  38.213  1.00 68.63 LIG 0.04  C 
BRANCH 29 31
ATOM     31 OG1  THR G   3      18.875  37.029  36.369  1.00 67.51 LIG-0.39  OA
ATOM     32 HG1  THR G   3      19.566  37.373  36.038  1.00 67.51 LIG 0.21  HD
ENDBRANCH 29 31
ENDBRANCH 1 29
BRANCH 1 33
ATOM     33  C   THR G   3      17.880  37.688  39.769  1.00 68.02 LIG 0.24  C 
ATOM     34  N   ALA G   4      16.568  37.806  39.575  1.00 68.86 LIG-0.35  N 
ATOM     35 H    ALA G   4      16.223  38.117  38.852  1.00 68.86 LIG 0.16  HD
ATOM     36 O    THR G   3      18.378  37.308  40.831  1.00 67.54 LIG-0.27  OA
BRANCH 34 37
ATOM     37  CA  ALA G   4      15.581  37.412  40.584  1.00 69.75 LIG 0.17  C 
ATOM     38  CB  ALA G   4      15.792  35.962  40.983  1.00 70.86 LIG 0.04  C 
BRANCH 37 39
ATOM     39  C   ALA G   4      15.606  38.315  41.824  1.00 71.43 LIG 0.24  C 
ATOM     40  N   ALA G   5      14.486  38.988  42.100  1.00 71.85 LIG-0.35  N 
ATOM     41 H    ALA G   5      13.792  38.983  41.592  1.00 71.85 LIG 0.16  HD
ATOM     42 O    ALA G   4      16.626  38.392  42.514  1.00 72.80 LIG-0.27  OA
BRANCH 40 43
ATOM     43  CA  ALA G   5      14.336  39.808  43.307  1.00 72.89 LIG 0.17  C 
ATOM     44  CB  ALA G   5      15.581  40.655  43.534  1.00 72.65 LIG 0.04  C 
BRANCH 43 45
ATOM     45  C   ALA G   5      13.090  40.698  43.247  1.00 72.87 LIG 0.24  C 
ATOM     46  N   THR G   6      12.769  41.362  44.361  1.00 71.86 LIG-0.34  N 
ATOM     47 H    THR G   6      13.211  41.302  45.096  1.00 71.86 LIG 0.16  HD
ATOM     48 O    ALA G   5      12.436  40.777  42.205  1.00 74.40 LIG-0.27  OA
BRANCH 46 49
ATOM     49  CA  THR G   6      11.611  42.270  44.428  1.00 72.17 LIG 0.20  C 
BRANCH 49 50
ATOM     50  CB  THR G   6      10.304  41.531  44.799  1.00 71.29 LIG 0.15  C 
ATOM     51  CG2 THR G   6       9.098  42.457  44.663  1.00 70.64 LIG 0.04  C 
BRANCH 50 52
ATOM     52 OG1  THR G   6      10.129  40.389  43.952  1.00 70.47 LIG-0.39  OA
ATOM     53 HG1  THR G   6      10.640  40.451  43.288  1.00 70.47 LIG 0.21  HD
ENDBRANCH 50 52
ENDBRANCH 49 50
BRANCH 49 54
ATOM     54  C   THR G   6      11.828  43.428  45.412  1.00 73.53 LIG 0.24  C 
ATOM     55  N   ALA G   7      12.948  43.401  46.140  1.00 73.25 LIG-0.35  N 
ATOM     56 H    ALA G   7      13.494  42.736  46.141  1.00 73.25 LIG 0.16  HD
ATOM     57 O    THR G   6      10.979  44.318  45.510  1.00 75.15 LIG-0.27  OA
BRANCH 55 58
ATOM     58  CA  ALA G   7      13.363  44.507  47.016  1.00 74.45 LIG 0.16  C 
ATOM     59  CB  ALA G   7      14.482  44.059  47.945  1.00 73.04 LIG 0.04  C 
BRANCH 58 60
ATOM     60  C   ALA G   7      13.814  45.710  46.189  1.00 76.13 LIG 0.22  C 
ATOM     61 O    ALA G   7      13.072  46.216  45.345  1.00 77.97 LIG-0.29  OA
ENDBRANCH 58 60
ENDBRANCH 55 58
ENDBRANCH 49 54
ENDBRANCH 46 49
ENDBRANCH 43 45
ENDBRANCH 40 43
ENDBRANCH 37 39
ENDBRANCH 34 37
ENDBRANCH 1 33
TORSDOF 22
ENDMDL
MODEL 8
USER: ADFR SOLUTION from run 34
USER: SCORE 18.413850 LL:  -2.532 LR: -17.384 RR:   0.000 FEB: -10.821
USER: RMSD 4.995398
USER: SEED 33
USER: STATUS searching
USER: GENES 24
USER: genes 0 Translation |==|  0.41919 0.42964 0.29776
USER: genes 1 Rotation |==|  0.71398 0.49741 0.70260 0.90393
USER: genes 2 Torsion [CB]-CA--N-[C] |==|  0.84817
USER: genes 3 Torsion [N]-C--CA-[N] |==|  0.66243
USER: genes 4 Torsion [C]-CA--N-[C] |==|  0.71666
USER: genes 5 Torsion [N]-C--CA-[N] |==|  0.11092
USER: genes 6 Torsion [C]-CA--N-[H1] |==|  0.34256
USER: genes 7 Torsion [C]-CA--CB-[CG] |==|  0.32696
USER: genes 8 Torsion [CA]-CB--CG-[CD] |==|  0.35585
USER: genes 9 Torsion [CB]-CG--CD-[NE] |==|  0.88044
USER: genes 10 Torsion [CG]-CD--NE-[CZ] |==|  0.48289
USER: genes 11 Torsion [N]-CA--CB-[OG1] |==|  0.22027
USER: genes 12 Torsion [CA]-CB--OG1-[HG1] |==|  0.51311
USER: genes 13 Torsion [N]-CA--C-[N] |==|  0.36361
USER: genes 14 Torsion [C]-N--CA-[CB] |==|  0.84364
USER: genes 15 Torsion [N]-CA--C-[N] |==|  0.46667
USER: genes 16 Torsion [C]-N--CA-[CB] |==|  0.90358
USER: genes 17 Torsion [N]-CA--C-[N] |==|  0.87057
USER: genes 18 Torsion [C]-N--CA-[CB] |==|  0.83433
USER: genes 19 Torsion [N]-CA--CB-[CG2] |==|  0.51662
USER: genes 20 Torsion [CA]-CB--OG1-[HG1] |==|  0.22718
USER: genes 21 Torsion [N]-CA--C-[N] |==|  0.36882
USER: genes 22 Torsion [C]-N--CA-[C] |==|  0.74562
USER: genes 23 Torsion [N]-CA--C-[O] |==|  0.93263
ROOT
ATOM      1  CA  THR G   3      16.320  36.888  39.068  1.00 68.23 LIG 0.20  C 
ENDROOT
BRANCH 1 2
ATOM      2  N   THR G   3      17.469  37.762  39.277  1.00 68.42 LIG-0.34  N 
ATOM      3  C   ARG G   2      18.617  37.344  39.805  1.00 70.38 LIG 0.24  C 
ATOM      4 O    ARG G   2      18.786  36.210  40.268  1.00 69.46 LIG-0.27  OA
ATOM      5 H    THR G   3      17.335  38.574  39.027  1.00 68.42 LIG 0.16  HD
BRANCH 3 6
ATOM      6  CA  ARG G   2      19.741  38.374  39.839  1.00 72.62 LIG 0.18  C 
BRANCH 6 7
ATOM      7  N   ARG G   2      20.887  37.857  39.097  1.00 74.86 LIG-0.35  N 
ATOM      8  C   ALA G   1      21.954  37.345  39.708  1.00 76.29 LIG 0.25  C 
ATOM      9 O    ALA G   1      22.145  37.422  40.925  1.00 75.70 LIG-0.27  OA
ATOM     10 H    ARG G   2      20.809  37.914  38.243  1.00 74.86 LIG 0.16  HD
BRANCH 8 11
ATOM     11  CA  ALA G   1      22.965  36.649  38.811  1.00 78.97 LIG 0.27  C 
ATOM     12  CB  ALA G   1      24.295  36.507  39.542  1.00 79.33 LIG 0.05  C 
BRANCH 11 13
ATOM     13  N   ALA G   1      23.141  37.402  37.538  1.00 81.42 LIG-0.07  N 
ATOM     14 H3   ALA G   1      22.655  38.147  37.563  1.00 81.42 LIG 0.28  HD
ATOM     15 H2   ALA G   1      22.875  36.897  36.855  1.00 81.42 LIG 0.28  HD
ATOM     16 H1   ALA G   1      24.000  37.613  37.434  1.00 81.42 LIG 0.28  HD
ENDBRANCH 11 13
ENDBRANCH 8 11
ENDBRANCH 6 7
BRANCH 6 17
ATOM     17  CB  ARG G   2      19.272  39.712  39.258  1.00 73.45 LIG 0.04  C 
BRANCH 17 18
ATOM     18  CG  ARG G   2      19.312  40.848  40.265  1.00 75.79 LIG 0.02  C 
BRANCH 18 19
ATOM     19  CD  ARG G   2      20.067  42.060  39.742  1.00 77.52 LIG 0.14  C 
BRANCH 19 20
ATOM     20  NE  ARG G   2      21.299  41.665  39.055  1.00 80.25 LIG-0.23  N 
ATOM     21  CZ  ARG G   2      22.117  42.486  38.389  1.00 82.01 LIG 0.67  C 
ATOM     22  NH1 ARG G   2      21.866  43.793  38.288  1.00 81.47 LIG-0.23  N 
ATOM     23  NH2 ARG G   2      23.206  41.991  37.806  1.00 84.93 LIG-0.23  N 
ATOM     24 1HH1 ARG G   2      21.163  44.126  38.656  1.00 81.47 LIG 0.17  HD
ATOM     25 2HH1 ARG G   2      22.406  44.303  37.854  1.00 81.47 LIG 0.17  HD
ATOM     26 2HH2 ARG G   2      23.738  42.511  37.375  1.00 84.93 LIG 0.17  HD
ATOM     27 1HH2 ARG G   2      23.378  41.150  37.860  1.00 84.93 LIG 0.17  HD
ATOM     28 HE   ARG G   2      21.516  40.832  39.084  1.00 80.25 LIG 0.18  HD
ENDBRANCH 19 20
ENDBRANCH 18 19
ENDBRANCH 17 18
ENDBRANCH 6 17
ENDBRANCH 3 6
ENDBRANCH 1 2
BRANCH 1 29
ATOM     29  CB  THR G   3      16.688  35.639  38.231  1.00 68.23 LIG 0.15  C 
ATOM     30  CG2 THR G   3      17.600  36.014  37.078  1.00 68.63 LIG 0.04  C 
BRANCH 29 31
ATOM     31 OG1  THR G   3      17.339  34.666  39.058  1.00 67.51 LIG-0.39  OA
ATOM     32 HG1  THR G   3      17.593  34.021  38.584  1.00 67.51 LIG 0.21  HD
ENDBRANCH 29 31
ENDBRANCH 1 29
BRANCH 1 33
ATOM     33  C   THR G   3      15.743  36.443  40.407  1.00 68.02 LIG 0.24  C 
ATOM     34  N   ALA G   4      14.425  36.578  40.544  1.00 68.86 LIG-0.35  N 
ATOM     35 H    ALA G   4      13.921  36.937  39.946  1.00 68.86 LIG 0.16  HD
ATOM     36 O    THR G   3      16.474  35.993  41.292  1.00 67.54 LIG-0.27  OA
BRANCH 34 37
ATOM     37  CA  ALA G   4      13.702  36.124  41.735  1.00 69.75 LIG 0.17  C 
ATOM     38  CB  ALA G   4      13.964  34.646  41.973  1.00 70.86 LIG 0.04  C 
BRANCH 37 39
ATOM     39  C   ALA G   4      14.053  36.935  42.989  1.00 71.43 LIG 0.24  C 
ATOM     40  N   ALA G   5      13.271  36.760  44.056  1.00 71.85 LIG-0.35  N 
ATOM     41 H    ALA G   5      12.563  36.271  44.050  1.00 71.85 LIG 0.16  HD
ATOM     42 O    ALA G   4      15.020  37.702  42.980  1.00 72.80 LIG-0.27  OA
BRANCH 40 43
ATOM     43  CA  ALA G   5      13.548  37.393  45.350  1.00 72.89 LIG 0.17  C 
ATOM     44  CB  ALA G   5      15.050  37.485  45.587  1.00 72.65 LIG 0.04  C 
BRANCH 43 45
ATOM     45  C   ALA G   5      12.906  38.780  45.461  1.00 72.87 LIG 0.24  C 
ATOM     46  N   THR G   6      13.064  39.603  44.421  1.00 71.86 LIG-0.34  N 
ATOM     47 H    THR G   6      13.511  39.399  43.715  1.00 71.86 LIG 0.16  HD
ATOM     48 O    ALA G   5      12.280  39.092  46.476  1.00 74.40 LIG-0.27  OA
BRANCH 46 49
ATOM     49  CA  THR G   6      12.476  40.954  44.391  1.00 72.17 LIG 0.20  C 
BRANCH 49 50
ATOM     50  CB  THR G   6      10.935  40.928  44.519  1.00 71.29 LIG 0.15  C 
ATOM     51  CG2 THR G   6      10.350  42.326  44.337  1.00 70.64 LIG 0.04  C 
BRANCH 50 52
ATOM     52 OG1  THR G   6      10.377  40.043  43.540  1.00 70.47 LIG-0.39  OA
ATOM     53 HG1  THR G   6      10.423  39.252  43.818  1.00 70.47 LIG 0.21  HD
ENDBRANCH 50 52
ENDBRANCH 49 50
BRANCH 49 54
ATOM     54  C   THR G   6      13.053  41.871  45.479  1.00 73.53 LIG 0.24  C 
ATOM     55  N   ALA G   7      13.431  43.095  45.100  1.00 73.25 LIG-0.35  N 
ATOM     56 H    ALA G   7      13.442  43.352  44.279  1.00 73.25 LIG 0.16  HD
ATOM     57 O    THR G   6      13.162  41.458  46.636  1.00 75.15 LIG-0.27  OA
BRANCH 55 58
ATOM     58  CA  ALA G   7      13.866  44.131  46.048  1.00 74.45 LIG 0.16  C 
ATOM     59  CB  ALA G   7      14.945  45.005  45.425  1.00 73.04 LIG 0.04  C 
BRANCH 58 60
ATOM     60  C   ALA G   7      12.682  44.990  46.490  1.00 76.13 LIG 0.22  C 
ATOM     61 O    ALA G   7      11.678  45.099  45.785  1.00 77.97 LIG-0.29  OA
ENDBRANCH 58 60
ENDBRANCH 55 58
ENDBRANCH 49 54
ENDBRANCH 46 49
ENDBRANCH 43 45
ENDBRANCH 40 43
ENDBRANCH 37 39
ENDBRANCH 34 37
ENDBRANCH 1 33
TORSDOF 22
ENDMDL
MODEL 9
USER: ADFR SOLUTION from run 12
USER: SCORE 18.008055 LL:  -2.885 LR: -17.369 RR:   0.000 FEB: -10.807
USER: RMSD 5.647371
USER: SEED 103677
USER: STATUS no improvement in best in 19 clusters for 5 generations
USER: GENES 24
USER: genes 0 Translation |==|  0.53046 0.49962 0.27048
USER: genes 1 Rotation |==|  0.72028 0.42229 0.67727 0.90498
USER: genes 2 Torsion [CB]-CA--N-[C] |==|  0.53548
USER: genes 3 Torsion [N]-C--CA-[N] |==|  0.99611
USER: genes 4 Torsion [C]-CA--N-[C] |==|  0.78333
USER: genes 5 Torsion [N]-C--CA-[N] |==|  0.82521
USER: genes 6 Torsion [C]-CA--N-[H1] |==|  0.12291
USER: genes 7 Torsion [C]-CA--CB-[CG] |==|  0.80574
USER: genes 8 Torsion [CA]-CB--CG-[CD] |==|  0.71289
USER: genes 9 Torsion [CB]-CG--CD-[NE] |==|  0.27003
USER: genes 10 Torsion [CG]-CD--NE-[CZ] |==|  0.36432
USER: genes 11 Torsion [N]-CA--CB-[OG1] |==|  0.65302
USER: genes 12 Torsion [CA]-CB--OG1-[HG1] |==|  0.20110
USER: genes 13 Torsion [N]-CA--C-[N] |==|  0.40817
USER: genes 14 Torsion [C]-N--CA-[CB] |==|  0.85179
USER: genes 15 Torsion [N]-CA--C-[N] |==|  0.35117
USER: genes 16 Torsion [C]-N--CA-[CB] |==|  0.44564
USER: genes 17 Torsion [N]-CA--C-[N] |==|  0.79746
USER: genes 18 Torsion [C]-N--CA-[CB] |==|  0.83846
USER: genes 19 Torsion [N]-CA--CB-[CG2] |==|  0.36587
USER: genes 20 Torsion [CA]-CB--OG1-[HG1] |==|  0.84716
USER: genes 21 Torsion [N]-CA--C-[N] |==|  0.38887
USER: genes 22 Torsion [C]-N--CA-[C] |==|  0.80038
USER: genes 23 Torsion [N]-CA--C-[O] |==|  0.24509
ROOT
ATOM      1  CA  THR G   3      18.823  38.147  38.515  1.00 68.23 LIG 0.20  C 
ENDROOT
BRANCH 1 2
ATOM      2  N   THR G   3      20.056  38.713  39.055  1.00 68.42 LIG-0.34  N 
ATOM      3  C   ARG G   2      20.080  39.571  40.072  1.00 70.38 LIG 0.24  C 
ATOM      4 O    ARG G   2      19.064  40.056  40.584  1.00 69.46 LIG-0.27  OA
ATOM      5 H    THR G   3      20.765  38.439  38.654  1.00 68.42 LIG 0.16  HD
BRANCH 3 6
ATOM      6  CA  ARG G   2      21.467  39.964  40.570  1.00 72.62 LIG 0.18  C 
BRANCH 6 7
ATOM      7  N   ARG G   2      22.474  39.245  39.796  1.00 74.86 LIG-0.35  N 
ATOM      8  C   ALA G   1      22.766  37.967  40.026  1.00 76.29 LIG 0.25  C 
ATOM      9 O    ALA G   1      22.352  37.337  41.004  1.00 75.70 LIG-0.27  OA
ATOM     10 H    ARG G   2      22.855  39.718  39.187  1.00 74.86 LIG 0.16  HD
BRANCH 8 11
ATOM     11  CA  ALA G   1      23.669  37.295  39.003  1.00 78.97 LIG 0.27  C 
ATOM     12  CB  ALA G   1      25.003  38.029  38.930  1.00 79.33 LIG 0.05  C 
BRANCH 11 13
ATOM     13  N   ALA G   1      23.012  37.260  37.667  1.00 81.42 LIG-0.07  N 
ATOM     14 H3   ALA G   1      22.385  36.628  37.660  1.00 81.42 LIG 0.28  HD
ATOM     15 H2   ALA G   1      23.620  37.081  37.042  1.00 81.42 LIG 0.28  HD
ATOM     16 H1   ALA G   1      22.639  38.050  37.499  1.00 81.42 LIG 0.28  HD
ENDBRANCH 11 13
ENDBRANCH 8 11
ENDBRANCH 6 7
BRANCH 6 17
ATOM     17  CB  ARG G   2      21.675  41.478  40.466  1.00 73.45 LIG 0.04  C 
BRANCH 17 18
ATOM     18  CG  ARG G   2      21.793  41.969  39.033  1.00 75.79 LIG 0.02  C 
BRANCH 18 19
ATOM     19  CD  ARG G   2      23.230  42.277  38.643  1.00 77.52 LIG 0.14  C 
BRANCH 19 20
ATOM     20  NE  ARG G   2      23.840  41.154  37.925  1.00 80.25 LIG-0.23  N 
ATOM     21  CZ  ARG G   2      24.513  41.240  36.774  1.00 82.01 LIG 0.67  C 
ATOM     22  NH1 ARG G   2      24.692  42.408  36.153  1.00 81.47 LIG-0.23  N 
ATOM     23  NH2 ARG G   2      25.014  40.135  36.227  1.00 84.93 LIG-0.23  N 
ATOM     24 1HH1 ARG G   2      24.370  43.130  36.493  1.00 81.47 LIG 0.17  HD
ATOM     25 2HH1 ARG G   2      25.129  42.439  35.412  1.00 81.47 LIG 0.17  HD
ATOM     26 2HH2 ARG G   2      25.448  40.180  35.486  1.00 84.93 LIG 0.17  HD
ATOM     27 1HH2 ARG G   2      24.903  39.375  36.614  1.00 84.93 LIG 0.17  HD
ATOM     28 HE   ARG G   2      23.758  40.372  38.276  1.00 80.25 LIG 0.18  HD
ENDBRANCH 19 20
ENDBRANCH 18 19
ENDBRANCH 17 18
ENDBRANCH 6 17
ENDBRANCH 3 6
ENDBRANCH 1 2
BRANCH 1 29
ATOM     29  CB  THR G   3      19.101  36.957  37.567  1.00 68.23 LIG 0.15  C 
ATOM     30  CG2 THR G   3      18.569  35.664  38.155  1.00 68.63 LIG 0.04  C 
BRANCH 29 31
ATOM     31 OG1  THR G   3      18.489  37.189  36.292  1.00 67.51 LIG-0.39  OA
ATOM     32 HG1  THR G   3      18.916  37.783  35.880  1.00 67.51 LIG 0.21  HD
ENDBRANCH 29 31
ENDBRANCH 1 29
BRANCH 1 33
ATOM     33  C   THR G   3      17.912  37.686  39.648  1.00 68.02 LIG 0.24  C 
ATOM     34  N   ALA G   4      16.605  37.799  39.422  1.00 68.86 LIG-0.35  N 
ATOM     35 H    ALA G   4      16.276  38.154  38.710  1.00 68.86 LIG 0.16  HD
ATOM     36 O    THR G   3      18.383  37.243  40.697  1.00 67.54 LIG-0.27  OA
BRANCH 34 37
ATOM     37  CA  ALA G   4      15.593  37.328  40.372  1.00 69.75 LIG 0.17  C 
ATOM     38  CB  ALA G   4      15.849  35.872  40.725  1.00 70.86 LIG 0.04  C 
BRANCH 37 39
ATOM     39  C   ALA G   4      15.529  38.181  41.645  1.00 71.43 LIG 0.24  C 
ATOM     40  N   ALA G   5      14.333  38.670  41.980  1.00 71.85 LIG-0.35  N 
ATOM     41 H    ALA G   5      13.630  38.578  41.493  1.00 71.85 LIG 0.16  HD
ATOM     42 O    ALA G   4      16.551  38.386  42.306  1.00 72.80 LIG-0.27  OA
BRANCH 40 43
ATOM     43  CA  ALA G   5      14.106  39.417  43.222  1.00 72.89 LIG 0.17  C 
ATOM     44  CB  ALA G   5      12.831  40.244  43.121  1.00 72.65 LIG 0.04  C 
BRANCH 43 45
ATOM     45  C   ALA G   5      14.048  38.497  44.445  1.00 72.87 LIG 0.24  C 
ATOM     46  N   THR G   6      12.953  37.744  44.583  1.00 71.86 LIG-0.34  N 
ATOM     47 H    THR G   6      12.290  37.764  44.036  1.00 71.86 LIG 0.16  HD
ATOM     48 O    ALA G   5      14.985  38.474  45.247  1.00 74.40 LIG-0.27  OA
BRANCH 46 49
ATOM     49  CA  THR G   6      12.785  36.799  45.700  1.00 72.17 LIG 0.20  C 
BRANCH 49 50
ATOM     50  CB  THR G   6      13.913  35.743  45.753  1.00 71.29 LIG 0.15  C 
ATOM     51  CG2 THR G   6      14.478  35.622  47.166  1.00 70.64 LIG 0.04  C 
BRANCH 50 52
ATOM     52 OG1  THR G   6      13.413  34.470  45.326  1.00 70.47 LIG-0.39  OA
ATOM     53 HG1  THR G   6      12.744  34.262  45.788  1.00 70.47 LIG 0.21  HD
ENDBRANCH 50 52
ENDBRANCH 49 50
BRANCH 49 54
ATOM     54  C   THR G   6      12.696  37.506  47.060  1.00 73.53 LIG 0.24  C 
ATOM     55  N   ALA G   7      11.809  37.024  47.936  1.00 73.25 LIG-0.35  N 
ATOM     56 H    ALA G   7      11.243  36.406  47.741  1.00 73.25 LIG 0.16  HD
ATOM     57 O    THR G   6      13.416  38.480  47.294  1.00 75.15 LIG-0.27  OA
BRANCH 55 58
ATOM     58  CA  ALA G   7      11.709  37.501  49.322  1.00 74.45 LIG 0.16  C 
ATOM     59  CB  ALA G   7      10.409  37.029  49.956  1.00 73.04 LIG 0.04  C 
BRANCH 58 60
ATOM     60  C   ALA G   7      12.903  37.019  50.146  1.00 76.13 LIG 0.22  C 
ATOM     61 O    ALA G   7      13.944  37.674  50.201  1.00 77.97 LIG-0.29  OA
ENDBRANCH 58 60
ENDBRANCH 55 58
ENDBRANCH 49 54
ENDBRANCH 46 49
ENDBRANCH 43 45
ENDBRANCH 40 43
ENDBRANCH 37 39
ENDBRANCH 34 37
ENDBRANCH 1 33
TORSDOF 22
ENDMDL
MODEL 10
USER: ADFR SOLUTION from run 194
USER: SCORE 18.825038 LL:  -3.348 LR: -17.280 RR:   0.000 FEB: -10.718
USER: RMSD 6.745845
USER: SEED 193
USER: STATUS no improvement in best in 6 clusters for 5 generations
USER: GENES 24
USER: genes 0 Translation |==|  0.45299 0.48371 0.32454
USER: genes 1 Rotation |==|  0.66384 0.36168 0.60719 0.93879
USER: genes 2 Torsion [CB]-CA--N-[C] |==|  0.20556
USER: genes 3 Torsion [N]-C--CA-[N] |==|  0.42569
USER: genes 4 Torsion [C]-CA--N-[C] |==|  0.75665
USER: genes 5 Torsion [N]-C--CA-[N] |==|  0.91486
USER: genes 6 Torsion [C]-CA--N-[H1] |==|  0.08469
USER: genes 7 Torsion [C]-CA--CB-[CG] |==|  0.99287
USER: genes 8 Torsion [CA]-CB--CG-[CD] |==|  0.65686
USER: genes 9 Torsion [CB]-CG--CD-[NE] |==|  0.11083
USER: genes 10 Torsion [CG]-CD--NE-[CZ] |==|  0.51247
USER: genes 11 Torsion [N]-CA--CB-[OG1] |==|  0.02855
USER: genes 12 Torsion [CA]-CB--OG1-[HG1] |==|  0.08709
USER: genes 13 Torsion [N]-CA--C-[N] |==|  0.04531
USER: genes 14 Torsion [C]-N--CA-[CB] |==|  0.82413
USER: genes 15 Torsion [N]-CA--C-[N] |==|  0.80074
USER: genes 16 Torsion [C]-N--CA-[CB] |==|  0.51670
USER: genes 17 Torsion [N]-CA--C-[N] |==|  0.43931
USER: genes 18 Torsion [C]-N--CA-[CB] |==|  0.22884
USER: genes 19 Torsion [N]-CA--CB-[CG2] |==|  0.72513
USER: genes 20 Torsion [CA]-CB--OG1-[HG1] |==|  0.09619
USER: genes 21 Torsion [N]-CA--C-[N] |==|  0.05056
USER: genes 22 Torsion [C]-N--CA-[C] |==|  0.69109
USER: genes 23 Torsion [N]-CA--C-[O] |==|  0.07787
ROOT
ATOM      1  CA  THR G   3      17.080  37.861  39.610  1.00 68.23 LIG 0.20  C 
ENDROOT
BRANCH 1 2
ATOM      2  N   THR G   3      18.372  37.956  40.282  1.00 68.42 LIG-0.34  N 
ATOM      3  C   ARG G   2      19.511  38.205  39.641  1.00 70.38 LIG 0.24  C 
ATOM      4 O    ARG G   2      19.605  38.271  38.410  1.00 69.46 LIG-0.27  OA
ATOM      5 H    THR G   3      18.328  37.836  41.133  1.00 68.42 LIG 0.16  HD
BRANCH 3 6
ATOM      6  CA  ARG G   2      20.741  38.382  40.526  1.00 72.62 LIG 0.18  C 
BRANCH 6 7
ATOM      7  N   ARG G   2      21.933  38.015  39.767  1.00 74.86 LIG-0.35  N 
ATOM      8  C   ALA G   1      22.383  36.763  39.715  1.00 76.29 LIG 0.25  C 
ATOM      9 O    ALA G   1      21.950  35.852  40.428  1.00 75.70 LIG-0.27  OA
ATOM     10 H    ARG G   2      22.310  38.674  39.363  1.00 74.86 LIG 0.16  HD
BRANCH 8 11
ATOM     11  CA  ALA G   1      23.496  36.496  38.714  1.00 78.97 LIG 0.27  C 
ATOM     12  CB  ALA G   1      24.852  36.670  39.390  1.00 79.33 LIG 0.05  C 
BRANCH 11 13
ATOM     13  N   ALA G   1      23.373  37.403  37.540  1.00 81.42 LIG-0.07  N 
ATOM     14 H3   ALA G   1      22.859  37.020  36.921  1.00 81.42 LIG 0.28  HD
ATOM     15 H2   ALA G   1      24.180  37.559  37.199  1.00 81.42 LIG 0.28  HD
ATOM     16 H1   ALA G   1      23.005  38.172  37.795  1.00 81.42 LIG 0.28  HD
ENDBRANCH 11 13
ENDBRANCH 8 11
ENDBRANCH 6 7
BRANCH 6 17
ATOM     17  CB  ARG G   2      20.841  39.821  41.040  1.00 73.45 LIG 0.04  C 
BRANCH 17 18
ATOM     18  CG  ARG G   2      19.746  40.726  40.502  1.00 75.79 LIG 0.02  C 
BRANCH 18 19
ATOM     19  CD  ARG G   2      20.302  41.946  39.784  1.00 77.52 LIG 0.14  C 
BRANCH 19 20
ATOM     20  NE  ARG G   2      21.474  41.600  38.976  1.00 80.25 LIG-0.23  N 
ATOM     21  CZ  ARG G   2      22.234  42.466  38.297  1.00 82.01 LIG 0.67  C 
ATOM     22  NH1 ARG G   2      21.975  43.775  38.299  1.00 81.47 LIG-0.23  N 
ATOM     23  NH2 ARG G   2      23.271  42.013  37.598  1.00 84.93 LIG-0.23  N 
ATOM     24 1HH1 ARG G   2      21.305  44.081  38.743  1.00 81.47 LIG 0.17  HD
ATOM     25 2HH1 ARG G   2      22.478  44.314  37.855  1.00 81.47 LIG 0.17  HD
ATOM     26 2HH2 ARG G   2      23.766  42.562  37.158  1.00 84.93 LIG 0.17  HD
ATOM     27 1HH2 ARG G   2      23.448  41.172  37.585  1.00 84.93 LIG 0.17  HD
ATOM     28 HE   ARG G   2      21.692  40.769  38.934  1.00 80.25 LIG 0.18  HD
ENDBRANCH 19 20
ENDBRANCH 18 19
ENDBRANCH 17 18
ENDBRANCH 6 17
ENDBRANCH 3 6
ENDBRANCH 1 2
BRANCH 1 29
ATOM     29  CB  THR G   3      16.939  36.540  38.816  1.00 68.23 LIG 0.15  C 
ATOM     30  CG2 THR G   3      16.937  36.807  37.322  1.00 68.63 LIG 0.04  C 
BRANCH 29 31
ATOM     31 OG1  THR G   3      18.015  35.651  39.141  1.00 67.51 LIG-0.39  OA
ATOM     32 HG1  THR G   3      18.253  35.779  39.937  1.00 67.51 LIG 0.21  HD
ENDBRANCH 29 31
ENDBRANCH 1 29
BRANCH 1 33
ATOM     33  C   THR G   3      15.947  37.961  40.625  1.00 68.02 LIG 0.24  C 
ATOM     34  N   ALA G   4      16.281  38.442  41.821  1.00 68.86 LIG-0.35  N 
ATOM     35 H    ALA G   4      17.088  38.642  42.042  1.00 68.86 LIG 0.16  HD
ATOM     36 O    THR G   3      14.802  37.609  40.331  1.00 67.54 LIG-0.27  OA
BRANCH 34 37
ATOM     37  CA  ALA G   4      15.298  38.679  42.882  1.00 69.75 LIG 0.17  C 
ATOM     38  CB  ALA G   4      14.305  39.743  42.444  1.00 70.86 LIG 0.04  C 
BRANCH 37 39
ATOM     39  C   ALA G   4      14.559  37.403  43.304  1.00 71.43 LIG 0.24  C 
ATOM     40  N   ALA G   5      13.672  36.908  42.438  1.00 71.85 LIG-0.35  N 
ATOM     41 H    ALA G   5      13.461  37.297  41.701  1.00 71.85 LIG 0.16  HD
ATOM     42 O    ALA G   4      14.798  36.881  44.397  1.00 72.80 LIG-0.27  OA
BRANCH 40 43
ATOM     43  CA  ALA G   5      12.968  35.641  42.667  1.00 72.89 LIG 0.17  C 
ATOM     44  CB  ALA G   5      12.138  35.265  41.447  1.00 72.65 LIG 0.04  C 
BRANCH 43 45
ATOM     45  C   ALA G   5      13.931  34.504  43.026  1.00 72.87 LIG 0.24  C 
ATOM     46  N   THR G   6      13.414  33.460  43.679  1.00 71.86 LIG-0.34  N 
ATOM     47 H    THR G   6      12.589  33.405  43.913  1.00 71.86 LIG 0.16  HD
ATOM     48 O    ALA G   5      15.121  34.580  42.713  1.00 74.40 LIG-0.27  OA
BRANCH 46 49
ATOM     49  CA  THR G   6      14.226  32.291  44.060  1.00 72.17 LIG 0.20  C 
BRANCH 49 50
ATOM     50  CB  THR G   6      15.014  32.524  45.370  1.00 71.29 LIG 0.15  C 
ATOM     51  CG2 THR G   6      16.460  32.912  45.074  1.00 70.64 LIG 0.04  C 
BRANCH 50 52
ATOM     52 OG1  THR G   6      14.388  33.556  46.142  1.00 70.47 LIG-0.39  OA
ATOM     53 HG1  THR G   6      13.555  33.516  46.040  1.00 70.47 LIG 0.21  HD
ENDBRANCH 50 52
ENDBRANCH 49 50
BRANCH 49 54
ATOM     54  C   THR G   6      13.388  31.012  44.199  1.00 73.53 LIG 0.24  C 
ATOM     55  N   ALA G   7      12.183  31.013  43.621  1.00 73.25 LIG-0.35  N 
ATOM     56 H    ALA G   7      11.835  31.711  43.257  1.00 73.25 LIG 0.16  HD
ATOM     57 O    THR G   6      13.831  30.054  44.836  1.00 75.15 LIG-0.27  OA
BRANCH 55 58
ATOM     58  CA  ALA G   7      11.328  29.820  43.546  1.00 74.45 LIG 0.16  C 
ATOM     59  CB  ALA G   7       9.946  30.118  44.110  1.00 73.04 LIG 0.04  C 
BRANCH 58 60
ATOM     60  C   ALA G   7      11.213  29.328  42.103  1.00 76.13 LIG 0.22  C 
ATOM     61 O    ALA G   7      12.116  29.530  41.289  1.00 77.97 LIG-0.29  OA
ENDBRANCH 58 60
ENDBRANCH 55 58
ENDBRANCH 49 54
ENDBRANCH 46 49
ENDBRANCH 43 45
ENDBRANCH 40 43
ENDBRANCH 37 39
ENDBRANCH 34 37
ENDBRANCH 1 33
TORSDOF 22
ENDMDL
MODEL 11
USER: ADFR SOLUTION from run 72
USER: SCORE 16.161218 LL:  -3.634 LR: -17.221 RR:   0.000 FEB: -10.658
USER: RMSD 6.234202
USER: SEED 71
USER: STATUS no improvement in best in 31 clusters for 5 generations
USER: GENES 24
USER: genes 0 Translation |==|  0.50380 0.41297 0.22626
USER: genes 1 Rotation |==|  0.67276 0.39475 0.51454 0.95702
USER: genes 2 Torsion [CB]-CA--N-[C] |==|  0.53376
USER: genes 3 Torsion [N]-C--CA-[N] |==|  0.36005
USER: genes 4 Torsion [C]-CA--N-[C] |==|  0.52467
USER: genes 5 Torsion [N]-C--CA-[N] |==|  0.85536
USER: genes 6 Torsion [C]-CA--N-[H1] |==|  0.69000
USER: genes 7 Torsion [C]-CA--CB-[CG] |==|  0.23251
USER: genes 8 Torsion [CA]-CB--CG-[CD] |==|  0.37482
USER: genes 9 Torsion [CB]-CG--CD-[NE] |==|  0.71536
USER: genes 10 Torsion [CG]-CD--NE-[CZ] |==|  0.62653
USER: genes 11 Torsion [N]-CA--CB-[OG1] |==|  0.25519
USER: genes 12 Torsion [CA]-CB--OG1-[HG1] |==|  0.76828
USER: genes 13 Torsion [N]-CA--C-[N] |==|  0.89408
USER: genes 14 Torsion [C]-N--CA-[CB] |==|  0.85275
USER: genes 15 Torsion [N]-CA--C-[N] |==|  0.32842
USER: genes 16 Torsion [C]-N--CA-[CB] |==|  0.47987
USER: genes 17 Torsion [N]-CA--C-[N] |==|  0.83403
USER: genes 18 Torsion [C]-N--CA-[CB] |==|  0.45178
USER: genes 19 Torsion [N]-CA--CB-[CG2] |==|  0.59240
USER: genes 20 Torsion [CA]-CB--OG1-[HG1] |==|  0.81369
USER: genes 21 Torsion [N]-CA--C-[N] |==|  0.38396
USER: genes 22 Torsion [C]-N--CA-[C] |==|  0.53086
USER: genes 23 Torsion [N]-CA--C-[O] |==|  0.95081
ROOT
ATOM      1  CA  THR G   3      18.223  36.587  37.620  1.00 68.23 LIG 0.20  C 
ENDROOT
BRANCH 1 2
ATOM      2  N   THR G   3      19.611  36.249  37.919  1.00 68.42 LIG-0.34  N 
ATOM      3  C   ARG G   2      20.362  36.941  38.773  1.00 70.38 LIG 0.24  C 
ATOM      4 O    ARG G   2      19.998  37.994  39.309  1.00 69.46 LIG-0.27  OA
ATOM      5 H    THR G   3      19.898  35.561  37.492  1.00 68.42 LIG 0.16  HD
BRANCH 3 6
ATOM      6  CA  ARG G   2      21.750  36.369  39.042  1.00 72.62 LIG 0.18  C 
BRANCH 6 7
ATOM      7  N   ARG G   2      22.744  37.425  38.871  1.00 74.86 LIG-0.35  N 
ATOM      8  C   ALA G   1      24.051  37.174  38.874  1.00 76.29 LIG 0.25  C 
ATOM      9 O    ALA G   1      24.537  36.084  39.191  1.00 75.70 LIG-0.27  OA
ATOM     10 H    ARG G   2      22.410  38.211  38.771  1.00 74.86 LIG 0.16  HD
BRANCH 8 11
ATOM     11  CA  ALA G   1      24.952  38.330  38.466  1.00 78.97 LIG 0.27  C 
ATOM     12  CB  ALA G   1      24.946  39.399  39.553  1.00 79.33 LIG 0.05  C 
BRANCH 11 13
ATOM     13  N   ALA G   1      24.513  38.901  37.163  1.00 81.42 LIG-0.07  N 
ATOM     14 H3   ALA G   1      24.418  39.783  37.242  1.00 81.42 LIG 0.28  HD
ATOM     15 H2   ALA G   1      23.735  38.539  36.927  1.00 81.42 LIG 0.28  HD
ATOM     16 H1   ALA G   1      25.123  38.724  36.540  1.00 81.42 LIG 0.28  HD
ENDBRANCH 11 13
ENDBRANCH 8 11
ENDBRANCH 6 7
BRANCH 6 17
ATOM     17  CB  ARG G   2      21.828  35.767  40.449  1.00 73.45 LIG 0.04  C 
BRANCH 17 18
ATOM     18  CG  ARG G   2      21.305  34.343  40.519  1.00 75.79 LIG 0.02  C 
BRANCH 18 19
ATOM     19  CD  ARG G   2      22.219  33.428  41.319  1.00 77.52 LIG 0.14  C 
BRANCH 19 20
ATOM     20  NE  ARG G   2      23.028  32.580  40.440  1.00 80.25 LIG-0.23  N 
ATOM     21  CZ  ARG G   2      23.230  31.268  40.594  1.00 82.01 LIG 0.67  C 
ATOM     22  NH1 ARG G   2      22.689  30.591  41.610  1.00 81.47 LIG-0.23  N 
ATOM     23  NH2 ARG G   2      23.993  30.618  39.719  1.00 84.93 LIG-0.23  N 
ATOM     24 1HH1 ARG G   2      22.197  31.000  42.185  1.00 81.47 LIG 0.17  HD
ATOM     25 2HH1 ARG G   2      22.833  29.747  41.689  1.00 81.47 LIG 0.17  HD
ATOM     26 2HH2 ARG G   2      24.129  29.774  39.810  1.00 84.93 LIG 0.17  HD
ATOM     27 1HH2 ARG G   2      24.351  31.042  39.062  1.00 84.93 LIG 0.17  HD
ATOM     28 HE   ARG G   2      23.404  32.960  39.766  1.00 80.25 LIG 0.18  HD
ENDBRANCH 19 20
ENDBRANCH 18 19
ENDBRANCH 17 18
ENDBRANCH 6 17
ENDBRANCH 3 6
ENDBRANCH 1 2
BRANCH 1 29
ATOM     29  CB  THR G   3      17.510  35.458  36.840  1.00 68.23 LIG 0.15  C 
ATOM     30  CG2 THR G   3      18.498  34.682  35.990  1.00 68.63 LIG 0.04  C 
BRANCH 29 31
ATOM     31 OG1  THR G   3      16.858  34.564  37.752  1.00 67.51 LIG-0.39  OA
ATOM     32 HG1  THR G   3      17.413  34.001  38.036  1.00 67.51 LIG 0.21  HD
ENDBRANCH 29 31
ENDBRANCH 1 29
BRANCH 1 33
ATOM     33  C   THR G   3      17.458  36.871  38.908  1.00 68.02 LIG 0.24  C 
ATOM     34  N   ALA G   4      17.764  36.095  39.946  1.00 68.86 LIG-0.35  N 
ATOM     35 H    ALA G   4      18.318  35.438  39.900  1.00 68.86 LIG 0.16  HD
ATOM     36 O    THR G   3      16.612  37.766  38.956  1.00 67.54 LIG-0.27  OA
BRANCH 34 37
ATOM     37  CA  ALA G   4      17.181  36.287  41.277  1.00 69.75 LIG 0.17  C 
ATOM     38  CB  ALA G   4      17.375  37.725  41.728  1.00 70.86 LIG 0.04  C 
BRANCH 37 39
ATOM     39  C   ALA G   4      15.696  35.906  41.336  1.00 71.43 LIG 0.24  C 
ATOM     40  N   ALA G   5      15.363  34.912  42.162  1.00 71.85 LIG-0.35  N 
ATOM     41 H    ALA G   5      15.938  34.450  42.605  1.00 71.85 LIG 0.16  HD
ATOM     42 O    ALA G   4      14.873  36.510  40.642  1.00 72.80 LIG-0.27  OA
BRANCH 40 43
ATOM     43  CA  ALA G   5      13.971  34.511  42.393  1.00 72.89 LIG 0.17  C 
ATOM     44  CB  ALA G   5      13.915  33.245  43.238  1.00 72.65 LIG 0.04  C 
BRANCH 43 45
ATOM     45  C   ALA G   5      13.152  35.626  43.051  1.00 72.87 LIG 0.24  C 
ATOM     46  N   THR G   6      13.572  36.061  44.242  1.00 71.86 LIG-0.34  N 
ATOM     47 H    THR G   6      14.257  35.741  44.652  1.00 71.86 LIG 0.16  HD
ATOM     48 O    ALA G   5      12.158  36.081  42.482  1.00 74.40 LIG-0.27  OA
BRANCH 46 49
ATOM     49  CA  THR G   6      12.889  37.146  44.968  1.00 72.17 LIG 0.20  C 
BRANCH 49 50
ATOM     50  CB  THR G   6      13.272  37.184  46.466  1.00 71.29 LIG 0.15  C 
ATOM     51  CG2 THR G   6      12.094  37.652  47.317  1.00 70.64 LIG 0.04  C 
BRANCH 50 52
ATOM     52 OG1  THR G   6      13.690  35.884  46.899  1.00 70.47 LIG-0.39  OA
ATOM     53 HG1  THR G   6      13.035  35.358  46.879  1.00 70.47 LIG 0.21  HD
ENDBRANCH 50 52
ENDBRANCH 49 50
BRANCH 49 54
ATOM     54  C   THR G   6      13.153  38.526  44.349  1.00 73.53 LIG 0.24  C 
ATOM     55  N   ALA G   7      12.111  39.358  44.261  1.00 73.25 LIG-0.35  N 
ATOM     56 H    ALA G   7      11.305  39.127  44.453  1.00 73.25 LIG 0.16  HD
ATOM     57 O    THR G   6      14.283  38.813  43.948  1.00 75.15 LIG-0.27  OA
BRANCH 55 58
ATOM     58  CA  ALA G   7      12.236  40.757  43.826  1.00 74.45 LIG 0.16  C 
ATOM     59  CB  ALA G   7      12.596  40.824  42.348  1.00 73.04 LIG 0.04  C 
BRANCH 58 60
ATOM     60  C   ALA G   7      10.939  41.522  44.087  1.00 76.13 LIG 0.22  C 
ATOM     61 O    ALA G   7       9.879  40.926  44.288  1.00 77.97 LIG-0.29  OA
ENDBRANCH 58 60
ENDBRANCH 55 58
ENDBRANCH 49 54
ENDBRANCH 46 49
ENDBRANCH 43 45
ENDBRANCH 40 43
ENDBRANCH 37 39
ENDBRANCH 34 37
ENDBRANCH 1 33
TORSDOF 22
ENDMDL
MODEL 12
USER: ADFR SOLUTION from run 12
USER: SCORE 18.659074 LL:  -3.847 LR: -16.905 RR:   0.000 FEB: -10.343
USER: RMSD 5.931970
USER: SEED 103677
USER: STATUS no improvement in best in 19 clusters for 5 generations
USER: GENES 24
USER: genes 0 Translation |==|  0.52353 0.48901 0.26965
USER: genes 1 Rotation |==|  0.70566 0.42343 0.70452 0.90002
USER: genes 2 Torsion [CB]-CA--N-[C] |==|  0.55000
USER: genes 3 Torsion [N]-C--CA-[N] |==|  0.99808
USER: genes 4 Torsion [C]-CA--N-[C] |==|  0.78276
USER: genes 5 Torsion [N]-C--CA-[N] |==|  0.78300
USER: genes 6 Torsion [C]-CA--N-[H1] |==|  0.08079
USER: genes 7 Torsion [C]-CA--CB-[CG] |==|  0.92291
USER: genes 8 Torsion [CA]-CB--CG-[CD] |==|  0.55996
USER: genes 9 Torsion [CB]-CG--CD-[NE] |==|  0.63449
USER: genes 10 Torsion [CG]-CD--NE-[CZ] |==|  0.36436
USER: genes 11 Torsion [N]-CA--CB-[OG1] |==|  0.68872
USER: genes 12 Torsion [CA]-CB--OG1-[HG1] |==|  0.14181
USER: genes 13 Torsion [N]-CA--C-[N] |==|  0.90201
USER: genes 14 Torsion [C]-N--CA-[CB] |==|  0.59713
USER: genes 15 Torsion [N]-CA--C-[N] |==|  0.35876
USER: genes 16 Torsion [C]-N--CA-[CB] |==|  0.53438
USER: genes 17 Torsion [N]-CA--C-[N] |==|  0.25590
USER: genes 18 Torsion [C]-N--CA-[CB] |==|  0.86041
USER: genes 19 Torsion [N]-CA--CB-[CG2] |==|  0.55507
USER: genes 20 Torsion [CA]-CB--OG1-[HG1] |==|  0.01147
USER: genes 21 Torsion [N]-CA--C-[N] |==|  0.89847
USER: genes 22 Torsion [C]-N--CA-[C] |==|  0.80673
USER: genes 23 Torsion [N]-CA--C-[O] |==|  0.96271
ROOT
ATOM      1  CA  THR G   3      18.668  37.956  38.498  1.00 68.23 LIG 0.20  C 
ENDROOT
BRANCH 1 2
ATOM      2  N   THR G   3      19.806  38.659  39.083  1.00 68.42 LIG-0.34  N 
ATOM      3  C   ARG G   2      19.695  39.495  40.113  1.00 70.38 LIG 0.24  C 
ATOM      4 O    ARG G   2      18.614  39.841  40.602  1.00 69.46 LIG-0.27  OA
ATOM      5 H    THR G   3      20.554  38.482  38.699  1.00 68.42 LIG 0.16  HD
BRANCH 3 6
ATOM      6  CA  ARG G   2      21.009  40.045  40.657  1.00 72.62 LIG 0.18  C 
BRANCH 6 7
ATOM      7  N   ARG G   2      22.118  39.483  39.891  1.00 74.86 LIG-0.35  N 
ATOM      8  C   ALA G   1      22.567  38.247  40.098  1.00 76.29 LIG 0.25  C 
ATOM      9 O    ALA G   1      22.218  37.544  41.051  1.00 75.70 LIG-0.27  OA
ATOM     10 H    ARG G   2      22.447  40.018  39.304  1.00 74.86 LIG 0.16  HD
BRANCH 8 11
ATOM     11  CA  ALA G   1      23.572  37.725  39.082  1.00 78.97 LIG 0.27  C 
ATOM     12  CB  ALA G   1      24.610  38.801  38.781  1.00 79.33 LIG 0.05  C 
BRANCH 11 13
ATOM     13  N   ALA G   1      22.880  37.296  37.835  1.00 81.42 LIG-0.07  N 
ATOM     14 H3   ALA G   1      22.669  36.433  37.894  1.00 81.42 LIG 0.28  HD
ATOM     15 H2   ALA G   1      23.420  37.423  37.139  1.00 81.42 LIG 0.28  HD
ATOM     16 H1   ALA G   1      22.139  37.776  37.726  1.00 81.42 LIG 0.28  HD
ENDBRANCH 11 13
ENDBRANCH 8 11
ENDBRANCH 6 7
BRANCH 6 17
ATOM     17  CB  ARG G   2      21.025  41.576  40.599  1.00 73.45 LIG 0.04  C 
BRANCH 17 18
ATOM     18  CG  ARG G   2      20.155  42.141  39.490  1.00 75.79 LIG 0.02  C 
BRANCH 18 19
ATOM     19  CD  ARG G   2      20.561  43.553  39.098  1.00 77.52 LIG 0.14  C 
BRANCH 19 20
ATOM     20  NE  ARG G   2      19.400  44.445  39.038  1.00 80.25 LIG-0.23  N 
ATOM     21  CZ  ARG G   2      19.315  45.651  39.609  1.00 82.01 LIG 0.67  C 
ATOM     22  NH1 ARG G   2      20.326  46.165  40.313  1.00 81.47 LIG-0.23  N 
ATOM     23  NH2 ARG G   2      18.195  46.357  39.478  1.00 84.93 LIG-0.23  N 
ATOM     24 1HH1 ARG G   2      21.054  45.718  40.409  1.00 81.47 LIG 0.17  HD
ATOM     25 2HH1 ARG G   2      20.248  46.943  40.671  1.00 81.47 LIG 0.17  HD
ATOM     26 2HH2 ARG G   2      18.130  47.134  39.841  1.00 84.93 LIG 0.17  HD
ATOM     27 1HH2 ARG G   2      17.534  46.036  39.029  1.00 84.93 LIG 0.17  HD
ATOM     28 HE   ARG G   2      18.715  44.169  38.598  1.00 80.25 LIG 0.18  HD
ENDBRANCH 19 20
ENDBRANCH 18 19
ENDBRANCH 17 18
ENDBRANCH 6 17
ENDBRANCH 3 6
ENDBRANCH 1 2
BRANCH 1 29
ATOM     29  CB  THR G   3      19.113  36.746  37.644  1.00 68.23 LIG 0.15  C 
ATOM     30  CG2 THR G   3      18.400  35.482  38.086  1.00 68.63 LIG 0.04  C 
BRANCH 29 31
ATOM     31 OG1  THR G   3      18.835  36.991  36.259  1.00 67.51 LIG-0.39  OA
ATOM     32 HG1  THR G   3      19.151  37.738  36.038  1.00 67.51 LIG 0.21  HD
ENDBRANCH 29 31
ENDBRANCH 1 29
BRANCH 1 33
ATOM     33  C   THR G   3      17.722  37.477  39.594  1.00 68.02 LIG 0.24  C 
ATOM     34  N   ALA G   4      18.301  37.086  40.728  1.00 68.86 LIG-0.35  N 
ATOM     35 H    ALA G   4      19.153  37.051  40.838  1.00 68.86 LIG 0.16  HD
ATOM     36 O    THR G   3      16.503  37.459  39.414  1.00 67.54 LIG-0.27  OA
BRANCH 34 37
ATOM     37  CA  ALA G   4      17.534  36.674  41.907  1.00 69.75 LIG 0.17  C 
ATOM     38  CB  ALA G   4      18.255  37.103  43.174  1.00 70.86 LIG 0.04  C 
BRANCH 37 39
ATOM     39  C   ALA G   4      16.098  37.215  41.902  1.00 71.43 LIG 0.24  C 
ATOM     40  N   ALA G   5      15.122  36.329  42.109  1.00 71.85 LIG-0.35  N 
ATOM     41 H    ALA G   5      15.257  35.483  42.183  1.00 71.85 LIG 0.16  HD
ATOM     42 O    ALA G   4      15.890  38.417  41.715  1.00 72.80 LIG-0.27  OA
BRANCH 40 43
ATOM     43  CA  ALA G   5      13.713  36.722  42.229  1.00 72.89 LIG 0.17  C 
ATOM     44  CB  ALA G   5      12.880  35.562  42.759  1.00 72.65 LIG 0.04  C 
BRANCH 43 45
ATOM     45  C   ALA G   5      13.534  37.956  43.120  1.00 72.87 LIG 0.24  C 
ATOM     46  N   THR G   6      13.534  39.145  42.510  1.00 71.86 LIG-0.34  N 
ATOM     47 H    THR G   6      13.643  39.246  41.663  1.00 71.86 LIG 0.16  HD
ATOM     48 O    ALA G   5      13.397  37.825  44.338  1.00 74.40 LIG-0.27  OA
BRANCH 46 49
ATOM     49  CA  THR G   6      13.345  40.406  43.248  1.00 72.17 LIG 0.20  C 
BRANCH 49 50
ATOM     50  CB  THR G   6      12.109  40.366  44.175  1.00 71.29 LIG 0.15  C 
ATOM     51  CG2 THR G   6      11.654  41.778  44.537  1.00 70.64 LIG 0.04  C 
BRANCH 50 52
ATOM     52 OG1  THR G   6      11.036  39.666  43.533  1.00 70.47 LIG-0.39  OA
ATOM     53 HG1  THR G   6      11.302  39.362  42.796  1.00 70.47 LIG 0.21  HD
ENDBRANCH 50 52
ENDBRANCH 49 50
BRANCH 49 54
ATOM     54  C   THR G   6      14.579  40.794  44.075  1.00 73.53 LIG 0.24  C 
ATOM     55  N   ALA G   7      15.260  39.797  44.649  1.00 73.25 LIG-0.35  N 
ATOM     56 H    ALA G   7      14.993  38.980  44.644  1.00 73.25 LIG 0.16  HD
ATOM     57 O    THR G   6      14.890  41.982  44.194  1.00 75.15 LIG-0.27  OA
BRANCH 55 58
ATOM     58  CA  ALA G   7      16.537  39.997  45.349  1.00 74.45 LIG 0.16  C 
ATOM     59  CB  ALA G   7      16.914  38.750  46.136  1.00 73.04 LIG 0.04  C 
BRANCH 58 60
ATOM     60  C   ALA G   7      17.646  40.350  44.358  1.00 76.13 LIG 0.22  C 
ATOM     61 O    ALA G   7      17.487  40.198  43.146  1.00 77.97 LIG-0.29  OA
ENDBRANCH 58 60
ENDBRANCH 55 58
ENDBRANCH 49 54
ENDBRANCH 46 49
ENDBRANCH 43 45
ENDBRANCH 40 43
ENDBRANCH 37 39
ENDBRANCH 34 37
ENDBRANCH 1 33
TORSDOF 22
ENDMDL
MODEL 13
USER: ADFR SOLUTION from run 35
USER: SCORE 18.199735 LL:  -4.203 LR: -16.830 RR:   0.000 FEB: -10.267
USER: RMSD 6.871908
USER: SEED 34
USER: STATUS no improvement in best in 6 clusters for 5 generations
USER: GENES 24
USER: genes 0 Translation |==|  0.56564 0.47442 0.41554
USER: genes 1 Rotation |==|  0.87054 0.21102 0.32952 0.51116
USER: genes 2 Torsion [CB]-CA--N-[C] |==|  0.43305
USER: genes 3 Torsion [N]-C--CA-[N] |==|  0.91257
USER: genes 4 Torsion [C]-CA--N-[C] |==|  0.83176
USER: genes 5 Torsion [N]-C--CA-[N] |==|  0.87597
USER: genes 6 Torsion [C]-CA--N-[H1] |==|  0.07169
USER: genes 7 Torsion [C]-CA--CB-[CG] |==|  0.97961
USER: genes 8 Torsion [CA]-CB--CG-[CD] |==|  0.76981
USER: genes 9 Torsion [CB]-CG--CD-[NE] |==|  0.80743
USER: genes 10 Torsion [CG]-CD--NE-[CZ] |==|  0.38725
USER: genes 11 Torsion [N]-CA--CB-[OG1] |==|  0.06561
USER: genes 12 Torsion [CA]-CB--OG1-[HG1] |==|  0.53188
USER: genes 13 Torsion [N]-CA--C-[N] |==|  0.91597
USER: genes 14 Torsion [C]-N--CA-[CB] |==|  0.47778
USER: genes 15 Torsion [N]-CA--C-[N] |==|  0.36754
USER: genes 16 Torsion [C]-N--CA-[CB] |==|  0.77220
USER: genes 17 Torsion [N]-CA--C-[N] |==|  0.57673
USER: genes 18 Torsion [C]-N--CA-[CB] |==|  0.17397
USER: genes 19 Torsion [N]-CA--CB-[CG2] |==|  0.69507
USER: genes 20 Torsion [CA]-CB--OG1-[HG1] |==|  0.24119
USER: genes 21 Torsion [N]-CA--C-[N] |==|  0.05597
USER: genes 22 Torsion [C]-N--CA-[C] |==|  0.58638
USER: genes 23 Torsion [N]-CA--C-[O] |==|  0.21870
ROOT
ATOM      1  CA  THR G   3      19.615  37.694  41.453  1.00 68.23 LIG 0.20  C 
ENDROOT
BRANCH 1 2
ATOM      2  N   THR G   3      20.094  36.543  40.693  1.00 68.42 LIG-0.34  N 
ATOM      3  C   ARG G   2      20.049  35.296  41.153  1.00 70.38 LIG 0.24  C 
ATOM      4 O    ARG G   2      19.703  35.001  42.303  1.00 69.46 LIG-0.27  OA
ATOM      5 H    THR G   3      20.408  36.748  39.919  1.00 68.42 LIG 0.16  HD
BRANCH 3 6
ATOM      6  CA  ARG G   2      20.489  34.215  40.171  1.00 72.62 LIG 0.18  C 
BRANCH 6 7
ATOM      7  N   ARG G   2      20.156  34.637  38.814  1.00 74.86 LIG-0.35  N 
ATOM      8  C   ALA G   1      18.903  34.881  38.436  1.00 76.29 LIG 0.25  C 
ATOM      9 O    ALA G   1      17.916  34.608  39.126  1.00 75.70 LIG-0.27  OA
ATOM     10 H    ARG G   2      20.835  34.711  38.291  1.00 74.86 LIG 0.16  HD
BRANCH 8 11
ATOM     11  CA  ALA G   1      18.733  35.521  37.067  1.00 78.97 LIG 0.27  C 
ATOM     12  CB  ALA G   1      18.905  34.468  35.978  1.00 79.33 LIG 0.05  C 
BRANCH 11 13
ATOM     13  N   ALA G   1      19.709  36.632  36.884  1.00 81.42 LIG-0.07  N 
ATOM     14 H3   ALA G   1      19.327  37.403  37.112  1.00 81.42 LIG 0.28  HD
ATOM     15 H2   ALA G   1      19.962  36.667  36.031  1.00 81.42 LIG 0.28  HD
ATOM     16 H1   ALA G   1      20.421  36.490  37.398  1.00 81.42 LIG 0.28  HD
ENDBRANCH 11 13
ENDBRANCH 8 11
ENDBRANCH 6 7
BRANCH 6 17
ATOM     17  CB  ARG G   2      21.990  33.936  40.304  1.00 73.45 LIG 0.04  C 
BRANCH 17 18
ATOM     18  CG  ARG G   2      22.699  34.906  41.233  1.00 75.79 LIG 0.02  C 
BRANCH 18 19
ATOM     19  CD  ARG G   2      23.071  36.206  40.538  1.00 77.52 LIG 0.14  C 
BRANCH 19 20
ATOM     20  NE  ARG G   2      24.132  35.998  39.549  1.00 80.25 LIG-0.23  N 
ATOM     21  CZ  ARG G   2      24.192  36.564  38.340  1.00 82.01 LIG 0.67  C 
ATOM     22  NH1 ARG G   2      23.246  37.404  37.913  1.00 81.47 LIG-0.23  N 
ATOM     23  NH2 ARG G   2      25.216  36.283  37.538  1.00 84.93 LIG-0.23  N 
ATOM     24 1HH1 ARG G   2      22.577  37.591  38.420  1.00 81.47 LIG 0.17  HD
ATOM     25 2HH1 ARG G   2      23.306  37.757  37.131  1.00 81.47 LIG 0.17  HD
ATOM     26 2HH2 ARG G   2      25.263  36.643  36.758  1.00 84.93 LIG 0.17  HD
ATOM     27 1HH2 ARG G   2      25.830  35.741  37.799  1.00 84.93 LIG 0.17  HD
ATOM     28 HE   ARG G   2      24.772  35.465  39.766  1.00 80.25 LIG 0.18  HD
ENDBRANCH 19 20
ENDBRANCH 18 19
ENDBRANCH 17 18
ENDBRANCH 6 17
ENDBRANCH 3 6
ENDBRANCH 1 2
BRANCH 1 29
ATOM     29  CB  THR G   3      20.292  39.008  40.999  1.00 68.23 LIG 0.15  C 
ATOM     30  CG2 THR G   3      21.449  39.362  41.914  1.00 68.63 LIG 0.04  C 
BRANCH 29 31
ATOM     31 OG1  THR G   3      20.770  38.878  39.653  1.00 67.51 LIG-0.39  OA
ATOM     32 HG1  THR G   3      21.268  39.528  39.469  1.00 67.51 LIG 0.21  HD
ENDBRANCH 29 31
ENDBRANCH 1 29
BRANCH 1 33
ATOM     33  C   THR G   3      18.103  37.831  41.309  1.00 68.02 LIG 0.24  C 
ATOM     34  N   ALA G   4      17.589  37.400  40.158  1.00 68.86 LIG-0.35  N 
ATOM     35 H    ALA G   4      18.068  37.106  39.507  1.00 68.86 LIG 0.16  HD
ATOM     36 O    THR G   3      17.424  38.318  42.215  1.00 67.54 LIG-0.27  OA
BRANCH 34 37
ATOM     37  CA  ALA G   4      16.148  37.385  39.891  1.00 69.75 LIG 0.17  C 
ATOM     38  CB  ALA G   4      15.892  37.029  38.436  1.00 70.86 LIG 0.04  C 
BRANCH 37 39
ATOM     39  C   ALA G   4      15.382  36.431  40.816  1.00 71.43 LIG 0.24  C 
ATOM     40  N   ALA G   5      14.280  36.913  41.395  1.00 71.85 LIG-0.35  N 
ATOM     41 H    ALA G   5      14.023  37.730  41.321  1.00 71.85 LIG 0.16  HD
ATOM     42 O    ALA G   4      15.789  35.279  40.993  1.00 72.80 LIG-0.27  OA
BRANCH 40 43
ATOM     43  CA  ALA G   5      13.397  36.083  42.222  1.00 72.89 LIG 0.17  C 
ATOM     44  CB  ALA G   5      12.442  35.283  41.346  1.00 72.65 LIG 0.04  C 
BRANCH 43 45
ATOM     45  C   ALA G   5      14.184  35.145  43.144  1.00 72.87 LIG 0.24  C 
ATOM     46  N   THR G   6      13.585  34.005  43.498  1.00 71.86 LIG-0.34  N 
ATOM     47 H    THR G   6      12.792  33.786  43.250  1.00 71.86 LIG 0.16  HD
ATOM     48 O    ALA G   5      15.315  35.457  43.522  1.00 74.40 LIG-0.27  OA
BRANCH 46 49
ATOM     49  CA  THR G   6      14.243  33.006  44.359  1.00 72.17 LIG 0.20  C 
BRANCH 49 50
ATOM     50  CB  THR G   6      14.561  33.561  45.767  1.00 71.29 LIG 0.15  C 
ATOM     51  CG2 THR G   6      16.066  33.747  45.951  1.00 70.64 LIG 0.04  C 
BRANCH 50 52
ATOM     52 OG1  THR G   6      13.896  34.814  45.962  1.00 70.47 LIG-0.39  OA
ATOM     53 HG1  THR G   6      13.119  34.678  46.252  1.00 70.47 LIG 0.21  HD
ENDBRANCH 50 52
ENDBRANCH 49 50
BRANCH 49 54
ATOM     54  C   THR G   6      13.419  31.719  44.502  1.00 73.53 LIG 0.24  C 
ATOM     55  N   ALA G   7      12.494  31.486  43.566  1.00 73.25 LIG-0.35  N 
ATOM     56 H    ALA G   7      12.290  32.054  42.953  1.00 73.25 LIG 0.16  HD
ATOM     57 O    THR G   6      13.619  30.965  45.458  1.00 75.15 LIG-0.27  OA
BRANCH 55 58
ATOM     58  CA  ALA G   7      11.729  30.233  43.489  1.00 74.45 LIG 0.16  C 
ATOM     59  CB  ALA G   7      10.467  30.327  44.334  1.00 73.04 LIG 0.04  C 
BRANCH 58 60
ATOM     60  C   ALA G   7      11.369  29.909  42.039  1.00 76.13 LIG 0.22  C 
ATOM     61 O    ALA G   7      12.199  29.414  41.274  1.00 77.97 LIG-0.29  OA
ENDBRANCH 58 60
ENDBRANCH 55 58
ENDBRANCH 49 54
ENDBRANCH 46 49
ENDBRANCH 43 45
ENDBRANCH 40 43
ENDBRANCH 37 39
ENDBRANCH 34 37
ENDBRANCH 1 33
TORSDOF 22
ENDMDL
MODEL 14
USER: ADFR SOLUTION from run 69
USER: SCORE 17.916141 LL:  -3.300 LR: -16.812 RR:   0.000 FEB: -10.250
USER: RMSD 5.556690
USER: SEED 68
USER: STATUS no improvement in best in 17 clusters for 5 generations
USER: GENES 24
USER: genes 0 Translation |==|  0.46262 0.45555 0.25941
USER: genes 1 Rotation |==|  0.72944 0.43349 0.71734 0.88170
USER: genes 2 Torsion [CB]-CA--N-[C] |==|  0.78330
USER: genes 3 Torsion [N]-C--CA-[N] |==|  0.75812
USER: genes 4 Torsion [C]-CA--N-[C] |==|  0.72304
USER: genes 5 Torsion [N]-C--CA-[N] |==|  0.96897
USER: genes 6 Torsion [C]-CA--N-[H1] |==|  0.97916
USER: genes 7 Torsion [C]-CA--CB-[CG] |==|  0.43289
USER: genes 8 Torsion [CA]-CB--CG-[CD] |==|  0.35950
USER: genes 9 Torsion [CB]-CG--CD-[NE] |==|  0.84287
USER: genes 10 Torsion [CG]-CD--NE-[CZ] |==|  0.48061
USER: genes 11 Torsion [N]-CA--CB-[OG1] |==|  0.85471
USER: genes 12 Torsion [CA]-CB--OG1-[HG1] |==|  0.13222
USER: genes 13 Torsion [N]-CA--C-[N] |==|  0.15581
USER: genes 14 Torsion [C]-N--CA-[CB] |==|  0.14127
USER: genes 15 Torsion [N]-CA--C-[N] |==|  0.17653
USER: genes 16 Torsion [C]-N--CA-[CB] |==|  0.53795
USER: genes 17 Torsion [N]-CA--C-[N] |==|  0.28774
USER: genes 18 Torsion [C]-N--CA-[CB] |==|  0.84796
USER: genes 19 Torsion [N]-CA--CB-[CG2] |==|  0.57554
USER: genes 20 Torsion [CA]-CB--OG1-[HG1] |==|  0.14292
USER: genes 21 Torsion [N]-CA--C-[N] |==|  0.93585
USER: genes 22 Torsion [C]-N--CA-[C] |==|  0.85708
USER: genes 23 Torsion [N]-CA--C-[O] |==|  0.80915
ROOT
ATOM      1  CA  THR G   3      17.297  37.354  38.291  1.00 68.23 LIG 0.20  C 
ENDROOT
BRANCH 1 2
ATOM      2  N   THR G   3      18.383  38.122  38.893  1.00 68.42 LIG-0.34  N 
ATOM      3  C   ARG G   2      19.126  37.667  39.899  1.00 70.38 LIG 0.24  C 
ATOM      4 O    ARG G   2      18.903  36.605  40.491  1.00 69.46 LIG-0.27  OA
ATOM      5 H    THR G   3      18.497  38.896  38.536  1.00 68.42 LIG 0.16  HD
BRANCH 3 6
ATOM      6  CA  ARG G   2      20.286  38.564  40.318  1.00 72.62 LIG 0.18  C 
BRANCH 6 7
ATOM      7  N   ARG G   2      21.455  38.249  39.501  1.00 74.86 LIG-0.35  N 
ATOM      8  C   ALA G   1      22.439  37.469  39.944  1.00 76.29 LIG 0.25  C 
ATOM      9 O    ALA G   1      22.540  37.097  41.117  1.00 75.70 LIG-0.27  OA
ATOM     10 H    ARG G   2      21.446  38.609  38.720  1.00 74.86 LIG 0.16  HD
BRANCH 8 11
ATOM     11  CA  ALA G   1      23.474  37.053  38.911  1.00 78.97 LIG 0.27  C 
ATOM     12  CB  ALA G   1      24.809  37.723  39.216  1.00 79.33 LIG 0.05  C 
BRANCH 11 13
ATOM     13  N   ALA G   1      23.013  37.398  37.538  1.00 81.42 LIG-0.07  N 
ATOM     14 H3   ALA G   1      23.060  36.677  37.018  1.00 81.42 LIG 0.28  HD
ATOM     15 H2   ALA G   1      23.531  38.040  37.203  1.00 81.42 LIG 0.28  HD
ATOM     16 H1   ALA G   1      22.171  37.685  37.571  1.00 81.42 LIG 0.28  HD
ENDBRANCH 11 13
ENDBRANCH 8 11
ENDBRANCH 6 7
BRANCH 6 17
ATOM     17  CB  ARG G   2      19.909  40.043  40.184  1.00 73.45 LIG 0.04  C 
BRANCH 17 18
ATOM     18  CG  ARG G   2      20.724  40.952  41.086  1.00 75.79 LIG 0.02  C 
BRANCH 18 19
ATOM     19  CD  ARG G   2      21.331  42.125  40.331  1.00 77.52 LIG 0.14  C 
BRANCH 19 20
ATOM     20  NE  ARG G   2      22.160  41.669  39.214  1.00 80.25 LIG-0.23  N 
ATOM     21  CZ  ARG G   2      22.719  42.454  38.287  1.00 82.01 LIG 0.67  C 
ATOM     22  NH1 ARG G   2      22.558  43.779  38.303  1.00 81.47 LIG-0.23  N 
ATOM     23  NH2 ARG G   2      23.449  41.904  37.320  1.00 84.93 LIG-0.23  N 
ATOM     24 1HH1 ARG G   2      22.084  44.147  38.920  1.00 81.47 LIG 0.17  HD
ATOM     25 2HH1 ARG G   2      22.927  44.265  37.696  1.00 81.47 LIG 0.17  HD
ATOM     26 2HH2 ARG G   2      23.812  42.401  36.720  1.00 84.93 LIG 0.17  HD
ATOM     27 1HH2 ARG G   2      23.558  41.051  37.296  1.00 84.93 LIG 0.17  HD
ATOM     28 HE   ARG G   2      22.300  40.822  39.148  1.00 80.25 LIG 0.18  HD
ENDBRANCH 19 20
ENDBRANCH 18 19
ENDBRANCH 17 18
ENDBRANCH 6 17
ENDBRANCH 3 6
ENDBRANCH 1 2
BRANCH 1 29
ATOM     29  CB  THR G   3      17.825  36.269  37.323  1.00 68.23 LIG 0.15  C 
ATOM     30  CG2 THR G   3      16.678  35.593  36.594  1.00 68.63 LIG 0.04  C 
BRANCH 29 31
ATOM     31 OG1  THR G   3      18.720  36.853  36.368  1.00 67.51 LIG-0.39  OA
ATOM     32 HG1  THR G   3      19.273  37.343  36.766  1.00 67.51 LIG 0.21  HD
ENDBRANCH 29 31
ENDBRANCH 1 29
BRANCH 1 33
ATOM     33  C   THR G   3      16.452  36.693  39.375  1.00 68.02 LIG 0.24  C 
ATOM     34  N   ALA G   4      15.939  37.514  40.290  1.00 68.86 LIG-0.35  N 
ATOM     35 H    ALA G   4      16.102  38.357  40.314  1.00 68.86 LIG 0.16  HD
ATOM     36 O    THR G   3      16.275  35.473  39.382  1.00 67.54 LIG-0.27  OA
BRANCH 34 37
ATOM     37  CA  ALA G   4      15.039  37.052  41.351  1.00 69.75 LIG 0.17  C 
ATOM     38  CB  ALA G   4      15.648  35.859  42.068  1.00 70.86 LIG 0.04  C 
BRANCH 37 39
ATOM     39  C   ALA G   4      14.689  38.157  42.356  1.00 71.43 LIG 0.24  C 
ATOM     40  N   ALA G   5      14.013  39.206  41.884  1.00 71.85 LIG-0.35  N 
ATOM     41 H    ALA G   5      13.823  39.313  41.052  1.00 71.85 LIG 0.16  HD
ATOM     42 O    ALA G   4      15.030  38.050  43.538  1.00 72.80 LIG-0.27  OA
BRANCH 40 43
ATOM     43  CA  ALA G   5      13.527  40.286  42.750  1.00 72.89 LIG 0.17  C 
ATOM     44  CB  ALA G   5      12.520  41.154  42.007  1.00 72.65 LIG 0.04  C 
BRANCH 43 45
ATOM     45  C   ALA G   5      12.912  39.750  44.048  1.00 72.87 LIG 0.24  C 
ATOM     46  N   THR G   6      13.652  39.856  45.155  1.00 71.86 LIG-0.34  N 
ATOM     47 H    THR G   6      14.444  40.189  45.168  1.00 71.86 LIG 0.16  HD
ATOM     48 O    ALA G   5      11.784  39.252  44.037  1.00 74.40 LIG-0.27  OA
BRANCH 46 49
ATOM     49  CA  THR G   6      13.167  39.403  46.470  1.00 72.17 LIG 0.20  C 
BRANCH 49 50
ATOM     50  CB  THR G   6      11.812  40.044  46.851  1.00 71.29 LIG 0.15  C 
ATOM     51  CG2 THR G   6      11.656  40.125  48.367  1.00 70.64 LIG 0.04  C 
BRANCH 50 52
ATOM     52 OG1  THR G   6      11.716  41.358  46.287  1.00 70.47 LIG-0.39  OA
ATOM     53 HG1  THR G   6      11.889  41.324  45.466  1.00 70.47 LIG 0.21  HD
ENDBRANCH 50 52
ENDBRANCH 49 50
BRANCH 49 54
ATOM     54  C   THR G   6      13.039  37.875  46.555  1.00 73.53 LIG 0.24  C 
ATOM     55  N   ALA G   7      12.901  37.214  45.402  1.00 73.25 LIG-0.35  N 
ATOM     56 H    ALA G   7      12.798  37.607  44.643  1.00 73.25 LIG 0.16  HD
ATOM     57 O    THR G   6      13.053  37.318  47.656  1.00 75.15 LIG-0.27  OA
BRANCH 55 58
ATOM     58  CA  ALA G   7      12.911  35.747  45.311  1.00 74.45 LIG 0.16  C 
ATOM     59  CB  ALA G   7      12.888  35.303  43.856  1.00 73.04 LIG 0.04  C 
BRANCH 58 60
ATOM     60  C   ALA G   7      14.138  35.171  46.018  1.00 76.13 LIG 0.22  C 
ATOM     61 O    ALA G   7      15.271  35.342  45.565  1.00 77.97 LIG-0.29  OA
ENDBRANCH 58 60
ENDBRANCH 55 58
ENDBRANCH 49 54
ENDBRANCH 46 49
ENDBRANCH 43 45
ENDBRANCH 40 43
ENDBRANCH 37 39
ENDBRANCH 34 37
ENDBRANCH 1 33
TORSDOF 22
ENDMDL
MODEL 15
USER: ADFR SOLUTION from run 178
USER: SCORE 17.618065 LL:  -3.395 LR: -16.796 RR:   0.000 FEB: -10.234
USER: RMSD 6.150705
USER: SEED 177
USER: STATUS searching
USER: GENES 24
USER: genes 0 Translation |==|  0.52883 0.49757 0.26426
USER: genes 1 Rotation |==|  0.73349 0.41904 0.68042 0.89544
USER: genes 2 Torsion [CB]-CA--N-[C] |==|  0.53602
USER: genes 3 Torsion [N]-C--CA-[N] |==|  0.98529
USER: genes 4 Torsion [C]-CA--N-[C] |==|  0.80231
USER: genes 5 Torsion [N]-C--CA-[N] |==|  0.83609
USER: genes 6 Torsion [C]-CA--N-[H1] |==|  0.28975
USER: genes 7 Torsion [C]-CA--CB-[CG] |==|  0.95915
USER: genes 8 Torsion [CA]-CB--CG-[CD] |==|  0.52145
USER: genes 9 Torsion [CB]-CG--CD-[NE] |==|  0.58512
USER: genes 10 Torsion [CG]-CD--NE-[CZ] |==|  0.38177
USER: genes 11 Torsion [N]-CA--CB-[OG1] |==|  0.65913
USER: genes 12 Torsion [CA]-CB--OG1-[HG1] |==|  0.16966
USER: genes 13 Torsion [N]-CA--C-[N] |==|  0.40018
USER: genes 14 Torsion [C]-N--CA-[CB] |==|  0.84562
USER: genes 15 Torsion [N]-CA--C-[N] |==|  0.37293
USER: genes 16 Torsion [C]-N--CA-[CB] |==|  0.40634
USER: genes 17 Torsion [N]-CA--C-[N] |==|  0.97475
USER: genes 18 Torsion [C]-N--CA-[CB] |==|  0.51988
USER: genes 19 Torsion [N]-CA--CB-[CG2] |==|  0.22790
USER: genes 20 Torsion [CA]-CB--OG1-[HG1] |==|  0.93903
USER: genes 21 Torsion [N]-CA--C-[N] |==|  0.45556
USER: genes 22 Torsion [C]-N--CA-[C] |==|  0.79099
USER: genes 23 Torsion [N]-CA--C-[O] |==|  0.95748
ROOT
ATOM      1  CA  THR G   3      18.787  38.110  38.389  1.00 68.23 LIG 0.20  C 
ENDROOT
BRANCH 1 2
ATOM      2  N   THR G   3      20.003  38.673  38.968  1.00 68.42 LIG-0.34  N 
ATOM      3  C   ARG G   2      20.002  39.464  40.038  1.00 70.38 LIG 0.24  C 
ATOM      4 O    ARG G   2      18.973  39.886  40.579  1.00 69.46 LIG-0.27  OA
ATOM      5 H    THR G   3      20.720  38.446  38.552  1.00 68.42 LIG 0.16  HD
BRANCH 3 6
ATOM      6  CA  ARG G   2      21.377  39.861  40.565  1.00 72.62 LIG 0.18  C 
BRANCH 6 7
ATOM      7  N   ARG G   2      22.403  39.150  39.808  1.00 74.86 LIG-0.35  N 
ATOM      8  C   ALA G   1      22.605  37.841  39.945  1.00 76.29 LIG 0.25  C 
ATOM      9 O    ALA G   1      22.080  37.158  40.831  1.00 75.70 LIG-0.27  OA
ATOM     10 H    ARG G   2      22.857  39.649  39.274  1.00 74.86 LIG 0.16  HD
BRANCH 8 11
ATOM     11  CA  ALA G   1      23.550  37.204  38.939  1.00 78.97 LIG 0.27  C 
ATOM     12  CB  ALA G   1      24.947  37.791  39.097  1.00 79.33 LIG 0.05  C 
BRANCH 11 13
ATOM     13  N   ALA G   1      23.048  37.404  37.551  1.00 81.42 LIG-0.07  N 
ATOM     14 H3   ALA G   1      22.193  37.652  37.576  1.00 81.42 LIG 0.28  HD
ATOM     15 H2   ALA G   1      23.123  36.643  37.096  1.00 81.42 LIG 0.28  HD
ATOM     16 H1   ALA G   1      23.529  38.037  37.150  1.00 81.42 LIG 0.28  HD
ENDBRANCH 11 13
ENDBRANCH 8 11
ENDBRANCH 6 7
BRANCH 6 17
ATOM     17  CB  ARG G   2      21.580  41.377  40.471  1.00 73.45 LIG 0.04  C 
BRANCH 17 18
ATOM     18  CG  ARG G   2      20.560  42.062  39.578  1.00 75.79 LIG 0.02  C 
BRANCH 18 19
ATOM     19  CD  ARG G   2      20.887  43.530  39.347  1.00 77.52 LIG 0.14  C 
BRANCH 19 20
ATOM     20  NE  ARG G   2      19.671  44.323  39.153  1.00 80.25 LIG-0.23  N 
ATOM     21  CZ  ARG G   2      19.433  45.526  39.684  1.00 82.01 LIG 0.67  C 
ATOM     22  NH1 ARG G   2      20.325  46.131  40.473  1.00 81.47 LIG-0.23  N 
ATOM     23  NH2 ARG G   2      18.279  46.136  39.428  1.00 84.93 LIG-0.23  N 
ATOM     24 1HH1 ARG G   2      21.073  45.746  40.650  1.00 81.47 LIG 0.17  HD
ATOM     25 2HH1 ARG G   2      20.150  46.906  40.804  1.00 81.47 LIG 0.17  HD
ATOM     26 2HH2 ARG G   2      18.117  46.911  39.765  1.00 84.93 LIG 0.17  HD
ATOM     27 1HH2 ARG G   2      17.694  45.756  38.924  1.00 84.93 LIG 0.17  HD
ATOM     28 HE   ARG G   2      19.057  43.985  38.654  1.00 80.25 LIG 0.18  HD
ENDBRANCH 19 20
ENDBRANCH 18 19
ENDBRANCH 17 18
ENDBRANCH 6 17
ENDBRANCH 3 6
ENDBRANCH 1 2
BRANCH 1 29
ATOM     29  CB  THR G   3      19.098  36.989  37.370  1.00 68.23 LIG 0.15  C 
ATOM     30  CG2 THR G   3      18.552  35.657  37.850  1.00 68.63 LIG 0.04  C 
BRANCH 29 31
ATOM     31 OG1  THR G   3      18.527  37.308  36.095  1.00 67.51 LIG-0.39  OA
ATOM     32 HG1  THR G   3      18.861  38.024  35.809  1.00 67.51 LIG 0.21  HD
ENDBRANCH 29 31
ENDBRANCH 1 29
BRANCH 1 33
ATOM     33  C   THR G   3      17.885  37.555  39.487  1.00 68.02 LIG 0.24  C 
ATOM     34  N   ALA G   4      16.576  37.702  39.291  1.00 68.86 LIG-0.35  N 
ATOM     35 H    ALA G   4      16.242  38.124  38.620  1.00 68.86 LIG 0.16  HD
ATOM     36 O    THR G   3      18.365  37.013  40.485  1.00 67.54 LIG-0.27  OA
BRANCH 34 37
ATOM     37  CA  ALA G   4      15.572  37.155  40.207  1.00 69.75 LIG 0.17  C 
ATOM     38  CB  ALA G   4      15.783  35.660  40.379  1.00 70.86 LIG 0.04  C 
BRANCH 37 39
ATOM     39  C   ALA G   4      15.571  37.853  41.573  1.00 71.43 LIG 0.24  C 
ATOM     40  N   ALA G   5      14.381  38.195  42.072  1.00 71.85 LIG-0.35  N 
ATOM     41 H    ALA G   5      13.641  38.096  41.644  1.00 71.85 LIG 0.16  HD
ATOM     42 O    ALA G   4      16.636  38.072  42.159  1.00 72.80 LIG-0.27  OA
BRANCH 40 43
ATOM     43  CA  ALA G   5      14.223  38.776  43.410  1.00 72.89 LIG 0.17  C 
ATOM     44  CB  ALA G   5      13.073  39.774  43.425  1.00 72.65 LIG 0.04  C 
BRANCH 43 45
ATOM     45  C   ALA G   5      14.012  37.703  44.483  1.00 72.87 LIG 0.24  C 
ATOM     46  N   THR G   6      13.813  36.453  44.055  1.00 71.86 LIG-0.34  N 
ATOM     47 H    THR G   6      13.785  36.233  43.225  1.00 71.86 LIG 0.16  HD
ATOM     48 O    ALA G   5      14.031  38.011  45.677  1.00 74.40 LIG-0.27  OA
BRANCH 46 49
ATOM     49  CA  THR G   6      13.622  35.326  44.985  1.00 72.17 LIG 0.20  C 
BRANCH 49 50
ATOM     50  CB  THR G   6      13.588  33.962  44.256  1.00 71.29 LIG 0.15  C 
ATOM     51  CG2 THR G   6      15.002  33.460  43.976  1.00 70.64 LIG 0.04  C 
BRANCH 50 52
ATOM     52 OG1  THR G   6      12.886  33.000  45.052  1.00 70.47 LIG-0.39  OA
ATOM     53 HG1  THR G   6      12.888  33.244  45.855  1.00 70.47 LIG 0.21  HD
ENDBRANCH 50 52
ENDBRANCH 49 50
BRANCH 49 54
ATOM     54  C   THR G   6      14.695  35.281  46.082  1.00 73.53 LIG 0.24  C 
ATOM     55  N   ALA G   7      14.437  34.518  47.149  1.00 73.25 LIG-0.35  N 
ATOM     56 H    ALA G   7      13.680  34.131  47.279  1.00 73.25 LIG 0.16  HD
ATOM     57 O    THR G   6      15.728  35.942  45.958  1.00 75.15 LIG-0.27  OA
BRANCH 55 58
ATOM     58  CA  ALA G   7      15.422  34.261  48.209  1.00 74.45 LIG 0.16  C 
ATOM     59  CB  ALA G   7      14.733  33.742  49.462  1.00 73.04 LIG 0.04  C 
BRANCH 58 60
ATOM     60  C   ALA G   7      16.477  33.261  47.735  1.00 76.13 LIG 0.22  C 
ATOM     61 O    ALA G   7      16.294  32.574  46.729  1.00 77.97 LIG-0.29  OA
ENDBRANCH 58 60
ENDBRANCH 55 58
ENDBRANCH 49 54
ENDBRANCH 46 49
ENDBRANCH 43 45
ENDBRANCH 40 43
ENDBRANCH 37 39
ENDBRANCH 34 37
ENDBRANCH 1 33
TORSDOF 22
ENDMDL
MODEL 16
USER: ADFR SOLUTION from run 198
USER: SCORE 18.835872 LL:  -4.000 LR: -16.776 RR:   0.000 FEB: -10.213
USER: RMSD 5.426946
USER: SEED 197
USER: STATUS 1 or 2 clusters left
USER: GENES 24
USER: genes 0 Translation |==|  0.49043 0.44273 0.24071
USER: genes 1 Rotation |==|  0.68193 0.43970 0.73505 0.89751
USER: genes 2 Torsion [CB]-CA--N-[C] |==|  0.57514
USER: genes 3 Torsion [N]-C--CA-[N] |==|  0.93220
USER: genes 4 Torsion [C]-CA--N-[C] |==|  0.83516
USER: genes 5 Torsion [N]-C--CA-[N] |==|  0.88872
USER: genes 6 Torsion [C]-CA--N-[H1] |==|  0.13591
USER: genes 7 Torsion [C]-CA--CB-[CG] |==|  0.39234
USER: genes 8 Torsion [CA]-CB--CG-[CD] |==|  0.22932
USER: genes 9 Torsion [CB]-CG--CD-[NE] |==|  0.06400
USER: genes 10 Torsion [CG]-CD--NE-[CZ] |==|  0.28317
USER: genes 11 Torsion [N]-CA--CB-[OG1] |==|  0.87747
USER: genes 12 Torsion [CA]-CB--OG1-[HG1] |==|  0.94100
USER: genes 13 Torsion [N]-CA--C-[N] |==|  0.83378
USER: genes 14 Torsion [C]-N--CA-[CB] |==|  0.56854
USER: genes 15 Torsion [N]-CA--C-[N] |==|  0.39031
USER: genes 16 Torsion [C]-N--CA-[CB] |==|  0.56795
USER: genes 17 Torsion [N]-CA--C-[N] |==|  0.27579
USER: genes 18 Torsion [C]-N--CA-[CB] |==|  0.77778
USER: genes 19 Torsion [N]-CA--CB-[CG2] |==|  0.88019
USER: genes 20 Torsion [CA]-CB--OG1-[HG1] |==|  0.79421
USER: genes 21 Torsion [N]-CA--C-[N] |==|  0.15996
USER: genes 22 Torsion [C]-N--CA-[C] |==|  0.79932
USER: genes 23 Torsion [N]-CA--C-[O] |==|  0.71197
ROOT
ATOM      1  CA  THR G   3      17.923  37.123  37.912  1.00 68.23 LIG 0.20  C 
ENDROOT
BRANCH 1 2
ATOM      2  N   THR G   3      18.948  38.015  38.445  1.00 68.42 LIG-0.34  N 
ATOM      3  C   ARG G   2      18.743  38.823  39.482  1.00 70.38 LIG 0.24  C 
ATOM      4 O    ARG G   2      17.643  38.978  40.025  1.00 69.46 LIG-0.27  OA
ATOM      5 H    THR G   3      19.697  37.970  38.025  1.00 68.42 LIG 0.16  HD
BRANCH 3 6
ATOM      6  CA  ARG G   2      19.966  39.596  39.966  1.00 72.62 LIG 0.18  C 
BRANCH 6 7
ATOM      7  N   ARG G   2      21.174  38.872  39.580  1.00 74.86 LIG-0.35  N 
ATOM      8  C   ALA G   1      21.413  37.627  39.984  1.00 76.29 LIG 0.25  C 
ATOM      9 O    ALA G   1      20.744  37.048  40.845  1.00 75.70 LIG-0.27  OA
ATOM     10 H    ARG G   2      21.706  39.320  39.074  1.00 74.86 LIG 0.16  HD
BRANCH 8 11
ATOM     11  CA  ALA G   1      22.593  36.928  39.327  1.00 78.97 LIG 0.27  C 
ATOM     12  CB  ALA G   1      23.889  37.341  40.017  1.00 79.33 LIG 0.05  C 
BRANCH 11 13
ATOM     13  N   ALA G   1      22.647  37.246  37.873  1.00 81.42 LIG-0.07  N 
ATOM     14 H3   ALA G   1      21.977  36.835  37.454  1.00 81.42 LIG 0.28  HD
ATOM     15 H2   ALA G   1      23.422  36.967  37.537  1.00 81.42 LIG 0.28  HD
ATOM     16 H1   ALA G   1      22.573  38.125  37.759  1.00 81.42 LIG 0.28  HD
ENDBRANCH 11 13
ENDBRANCH 8 11
ENDBRANCH 6 7
BRANCH 6 17
ATOM     17  CB  ARG G   2      19.974  41.017  39.395  1.00 73.45 LIG 0.04  C 
BRANCH 17 18
ATOM     18  CG  ARG G   2      20.458  42.058  40.390  1.00 75.79 LIG 0.02  C 
BRANCH 18 19
ATOM     19  CD  ARG G   2      21.975  42.140  40.452  1.00 77.52 LIG 0.14  C 
BRANCH 19 20
ATOM     20  NE  ARG G   2      22.587  41.635  39.221  1.00 80.25 LIG-0.23  N 
ATOM     21  CZ  ARG G   2      23.081  42.387  38.232  1.00 82.01 LIG 0.67  C 
ATOM     22  NH1 ARG G   2      23.055  43.720  38.287  1.00 81.47 LIG-0.23  N 
ATOM     23  NH2 ARG G   2      23.608  41.795  37.163  1.00 84.93 LIG-0.23  N 
ATOM     24 1HH1 ARG G   2      22.714  44.116  38.970  1.00 81.47 LIG 0.17  HD
ATOM     25 2HH1 ARG G   2      23.380  44.184  37.639  1.00 81.47 LIG 0.17  HD
ATOM     26 2HH2 ARG G   2      23.929  42.270  36.522  1.00 84.93 LIG 0.17  HD
ATOM     27 1HH2 ARG G   2      23.628  40.936  37.113  1.00 84.93 LIG 0.17  HD
ATOM     28 HE   ARG G   2      22.633  40.781  39.126  1.00 80.25 LIG 0.18  HD
ENDBRANCH 19 20
ENDBRANCH 18 19
ENDBRANCH 17 18
ENDBRANCH 6 17
ENDBRANCH 3 6
ENDBRANCH 1 2
BRANCH 1 29
ATOM     29  CB  THR G   3      18.538  35.883  37.222  1.00 68.23 LIG 0.15  C 
ATOM     30  CG2 THR G   3      17.501  35.167  36.377  1.00 68.63 LIG 0.04  C 
BRANCH 29 31
ATOM     31 OG1  THR G   3      19.641  36.276  36.394  1.00 67.51 LIG-0.39  OA
ATOM     32 HG1  THR G   3      19.573  37.091  36.206  1.00 67.51 LIG 0.21  HD
ENDBRANCH 29 31
ENDBRANCH 1 29
BRANCH 1 33
ATOM     33  C   THR G   3      16.988  36.666  39.027  1.00 68.02 LIG 0.24  C 
ATOM     34  N   ALA G   4      17.563  36.003  40.029  1.00 68.86 LIG-0.35  N 
ATOM     35 H    ALA G   4      18.396  35.793  40.041  1.00 68.86 LIG 0.16  HD
ATOM     36 O    THR G   3      15.780  36.905  38.977  1.00 67.54 LIG-0.27  OA
BRANCH 34 37
ATOM     37  CA  ALA G   4      16.822  35.565  41.216  1.00 69.75 LIG 0.17  C 
ATOM     38  CB  ALA G   4      17.771  35.407  42.393  1.00 70.86 LIG 0.04  C 
BRANCH 37 39
ATOM     39  C   ALA G   4      15.672  36.512  41.582  1.00 71.43 LIG 0.24  C 
ATOM     40  N   ALA G   5      14.539  35.945  42.001  1.00 71.85 LIG-0.35  N 
ATOM     41 H    ALA G   5      14.410  35.095  42.016  1.00 71.85 LIG 0.16  HD
ATOM     42 O    ALA G   4      15.820  37.733  41.486  1.00 72.80 LIG-0.27  OA
BRANCH 40 43
ATOM     43  CA  ALA G   5      13.394  36.729  42.478  1.00 72.89 LIG 0.17  C 
ATOM     44  CB  ALA G   5      12.530  35.896  43.415  1.00 72.65 LIG 0.04  C 
BRANCH 43 45
ATOM     45  C   ALA G   5      13.832  38.025  43.169  1.00 72.87 LIG 0.24  C 
ATOM     46  N   THR G   6      13.778  39.144  42.442  1.00 71.86 LIG-0.34  N 
ATOM     47 H    THR G   6      13.527  39.167  41.620  1.00 71.86 LIG 0.16  HD
ATOM     48 O    ALA G   5      14.212  38.002  44.342  1.00 74.40 LIG-0.27  OA
BRANCH 46 49
ATOM     49  CA  THR G   6      14.146  40.459  42.996  1.00 72.17 LIG 0.20  C 
BRANCH 49 50
ATOM     50  CB  THR G   6      13.013  41.079  43.846  1.00 71.29 LIG 0.15  C 
ATOM     51  CG2 THR G   6      11.660  40.900  43.161  1.00 70.64 LIG 0.04  C 
BRANCH 50 52
ATOM     52 OG1  THR G   6      12.980  40.467  45.140  1.00 70.47 LIG-0.39  OA
ATOM     53 HG1  THR G   6      12.657  39.694  45.077  1.00 70.47 LIG 0.21  HD
ENDBRANCH 50 52
ENDBRANCH 49 50
BRANCH 49 54
ATOM     54  C   THR G   6      15.430  40.404  43.837  1.00 73.53 LIG 0.24  C 
ATOM     55  N   ALA G   7      16.531  39.948  43.231  1.00 73.25 LIG-0.35  N 
ATOM     56 H    ALA G   7      16.529  39.614  42.438  1.00 73.25 LIG 0.16  HD
ATOM     57 O    THR G   6      15.406  40.758  45.018  1.00 75.15 LIG-0.27  OA
BRANCH 55 58
ATOM     58  CA  ALA G   7      17.860  39.971  43.859  1.00 74.45 LIG 0.16  C 
ATOM     59  CB  ALA G   7      18.826  39.079  43.093  1.00 73.04 LIG 0.04  C 
BRANCH 58 60
ATOM     60  C   ALA G   7      18.401  41.399  43.925  1.00 76.13 LIG 0.22  C 
ATOM     61 O    ALA G   7      19.271  41.785  43.143  1.00 77.97 LIG-0.29  OA
ENDBRANCH 58 60
ENDBRANCH 55 58
ENDBRANCH 49 54
ENDBRANCH 46 49
ENDBRANCH 43 45
ENDBRANCH 40 43
ENDBRANCH 37 39
ENDBRANCH 34 37
ENDBRANCH 1 33
TORSDOF 22
ENDMDL
MODEL 17
USER: ADFR SOLUTION from run 71
USER: SCORE 16.686656 LL:  -3.191 LR: -16.741 RR:   0.000 FEB: -10.178
USER: RMSD 6.026036
USER: SEED 70
USER: STATUS searching
USER: GENES 24
USER: genes 0 Translation |==|  0.44789 0.47481 0.34276
USER: genes 1 Rotation |==|  0.79878 0.39624 0.61726 0.86907
USER: genes 2 Torsion [CB]-CA--N-[C] |==|  0.17259
USER: genes 3 Torsion [N]-C--CA-[N] |==|  0.36144
USER: genes 4 Torsion [C]-CA--N-[C] |==|  0.70295
USER: genes 5 Torsion [N]-C--CA-[N] |==|  0.90039
USER: genes 6 Torsion [C]-CA--N-[H1] |==|  0.16302
USER: genes 7 Torsion [C]-CA--CB-[CG] |==|  0.02156
USER: genes 8 Torsion [CA]-CB--CG-[CD] |==|  0.71776
USER: genes 9 Torsion [CB]-CG--CD-[NE] |==|  0.01378
USER: genes 10 Torsion [CG]-CD--NE-[CZ] |==|  0.61458
USER: genes 11 Torsion [N]-CA--CB-[OG1] |==|  0.58611
USER: genes 12 Torsion [CA]-CB--OG1-[HG1] |==|  0.18591
USER: genes 13 Torsion [N]-CA--C-[N] |==|  0.38115
USER: genes 14 Torsion [C]-N--CA-[CB] |==|  0.83470
USER: genes 15 Torsion [N]-CA--C-[N] |==|  0.40912
USER: genes 16 Torsion [C]-N--CA-[CB] |==|  0.53891
USER: genes 17 Torsion [N]-CA--C-[N] |==|  0.80128
USER: genes 18 Torsion [C]-N--CA-[CB] |==|  0.18519
USER: genes 19 Torsion [N]-CA--CB-[CG2] |==|  0.70331
USER: genes 20 Torsion [CA]-CB--OG1-[HG1] |==|  0.12248
USER: genes 21 Torsion [N]-CA--C-[N] |==|  0.91657
USER: genes 22 Torsion [C]-N--CA-[C] |==|  0.78851
USER: genes 23 Torsion [N]-CA--C-[O] |==|  0.02653
ROOT
ATOM      1  CA  THR G   3      16.966  37.701  39.979  1.00 68.23 LIG 0.20  C 
ENDROOT
BRANCH 1 2
ATOM      2  N   THR G   3      18.312  37.864  40.519  1.00 68.42 LIG-0.34  N 
ATOM      3  C   ARG G   2      19.266  38.555  39.901  1.00 70.38 LIG 0.24  C 
ATOM      4 O    ARG G   2      19.143  39.032  38.767  1.00 69.46 LIG-0.27  OA
ATOM      5 H    THR G   3      18.430  37.470  41.275  1.00 68.42 LIG 0.16  HD
BRANCH 3 6
ATOM      6  CA  ARG G   2      20.572  38.710  40.674  1.00 72.62 LIG 0.18  C 
BRANCH 6 7
ATOM      7  N   ARG G   2      21.687  38.338  39.808  1.00 74.86 LIG-0.35  N 
ATOM      8  C   ALA G   1      22.360  37.201  39.969  1.00 76.29 LIG 0.25  C 
ATOM      9 O    ALA G   1      22.225  36.461  40.948  1.00 75.70 LIG-0.27  OA
ATOM     10 H    ARG G   2      21.864  38.914  39.194  1.00 74.86 LIG 0.16  HD
BRANCH 8 11
ATOM     11  CA  ALA G   1      23.344  36.847  38.865  1.00 78.97 LIG 0.27  C 
ATOM     12  CB  ALA G   1      24.690  37.507  39.140  1.00 79.33 LIG 0.05  C 
BRANCH 11 13
ATOM     13  N   ALA G   1      22.814  37.266  37.538  1.00 81.42 LIG-0.07  N 
ATOM     14 H3   ALA G   1      22.052  36.835  37.372  1.00 81.42 LIG 0.28  HD
ATOM     15 H2   ALA G   1      23.408  37.069  36.905  1.00 81.42 LIG 0.28  HD
ATOM     16 H1   ALA G   1      22.664  38.143  37.541  1.00 81.42 LIG 0.28  HD
ENDBRANCH 11 13
ENDBRANCH 8 11
ENDBRANCH 6 7
BRANCH 6 17
ATOM     17  CB  ARG G   2      20.734  40.144  41.189  1.00 73.45 LIG 0.04  C 
BRANCH 17 18
ATOM     18  CG  ARG G   2      19.497  40.999  40.977  1.00 75.79 LIG 0.02  C 
BRANCH 18 19
ATOM     19  CD  ARG G   2      19.636  41.933  39.785  1.00 77.52 LIG 0.14  C 
BRANCH 19 20
ATOM     20  NE  ARG G   2      20.888  41.694  39.063  1.00 80.25 LIG-0.23  N 
ATOM     21  CZ  ARG G   2      21.692  42.638  38.564  1.00 82.01 LIG 0.67  C 
ATOM     22  NH1 ARG G   2      21.406  43.937  38.686  1.00 81.47 LIG-0.23  N 
ATOM     23  NH2 ARG G   2      22.802  42.279  37.924  1.00 84.93 LIG-0.23  N 
ATOM     24 1HH1 ARG G   2      20.690  44.183  39.094  1.00 81.47 LIG 0.17  HD
ATOM     25 2HH1 ARG G   2      21.939  44.527  38.358  1.00 81.47 LIG 0.17  HD
ATOM     26 2HH2 ARG G   2      23.326  42.879  37.600  1.00 84.93 LIG 0.17  HD
ATOM     27 1HH2 ARG G   2      22.997  41.446  37.835  1.00 84.93 LIG 0.17  HD
ATOM     28 HE   ARG G   2      21.127  40.875  38.950  1.00 80.25 LIG 0.18  HD
ENDBRANCH 19 20
ENDBRANCH 18 19
ENDBRANCH 17 18
ENDBRANCH 6 17
ENDBRANCH 3 6
ENDBRANCH 1 2
BRANCH 1 29
ATOM     29  CB  THR G   3      16.974  36.952  38.625  1.00 68.23 LIG 0.15  C 
ATOM     30  CG2 THR G   3      16.859  35.454  38.838  1.00 68.63 LIG 0.04  C 
BRANCH 29 31
ATOM     31 OG1  THR G   3      15.888  37.403  37.805  1.00 67.51 LIG-0.39  OA
ATOM     32 HG1  THR G   3      16.017  38.203  37.586  1.00 67.51 LIG 0.21  HD
ENDBRANCH 29 31
ENDBRANCH 1 29
BRANCH 1 33
ATOM     33  C   THR G   3      16.087  36.942  40.968  1.00 68.02 LIG 0.24  C 
ATOM     34  N   ALA G   4      14.852  37.416  41.127  1.00 68.86 LIG-0.35  N 
ATOM     35 H    ALA G   4      14.567  38.132  40.744  1.00 68.86 LIG 0.16  HD
ATOM     36 O    THR G   3      16.518  35.958  41.571  1.00 67.54 LIG-0.27  OA
BRANCH 34 37
ATOM     37  CA  ALA G   4      13.855  36.759  41.976  1.00 69.75 LIG 0.17  C 
ATOM     38  CB  ALA G   4      13.602  35.344  41.484  1.00 70.86 LIG 0.04  C 
BRANCH 37 39
ATOM     39  C   ALA G   4      14.254  36.744  43.458  1.00 71.43 LIG 0.24  C 
ATOM     40  N   ALA G   5      13.261  36.818  44.347  1.00 71.85 LIG-0.35  N 
ATOM     41 H    ALA G   5      12.437  36.931  44.130  1.00 71.85 LIG 0.16  HD
ATOM     42 O    ALA G   4      15.443  36.663  43.779  1.00 72.80 LIG-0.27  OA
BRANCH 40 43
ATOM     43  CA  ALA G   5      13.488  36.713  45.793  1.00 72.89 LIG 0.17  C 
ATOM     44  CB  ALA G   5      12.172  36.487  46.524  1.00 72.65 LIG 0.04  C 
BRANCH 43 45
ATOM     45  C   ALA G   5      14.487  35.604  46.140  1.00 72.87 LIG 0.24  C 
ATOM     46  N   THR G   6      14.066  34.345  45.990  1.00 71.86 LIG-0.34  N 
ATOM     47 H    THR G   6      13.275  34.135  45.727  1.00 71.86 LIG 0.16  HD
ATOM     48 O    ALA G   5      15.618  35.892  46.536  1.00 74.40 LIG-0.27  OA
BRANCH 46 49
ATOM     49  CA  THR G   6      14.936  33.188  46.265  1.00 72.17 LIG 0.20  C 
BRANCH 49 50
ATOM     50  CB  THR G   6      15.295  33.065  47.764  1.00 71.29 LIG 0.15  C 
ATOM     51  CG2 THR G   6      16.747  33.466  48.010  1.00 70.64 LIG 0.04  C 
BRANCH 50 52
ATOM     52 OG1  THR G   6      14.429  33.896  48.546  1.00 70.47 LIG-0.39  OA
ATOM     53 HG1  THR G   6      13.638  33.809  48.276  1.00 70.47 LIG 0.21  HD
ENDBRANCH 50 52
ENDBRANCH 49 50
BRANCH 49 54
ATOM     54  C   THR G   6      14.322  31.864  45.786  1.00 73.53 LIG 0.24  C 
ATOM     55  N   ALA G   7      12.988  31.781  45.787  1.00 73.25 LIG-0.35  N 
ATOM     56 H    ALA G   7      12.478  32.390  46.116  1.00 73.25 LIG 0.16  HD
ATOM     57 O    THR G   6      15.057  30.937  45.438  1.00 75.15 LIG-0.27  OA
BRANCH 55 58
ATOM     58  CA  ALA G   7      12.256  30.637  45.225  1.00 74.45 LIG 0.16  C 
ATOM     59  CB  ALA G   7      10.831  30.602  45.760  1.00 73.04 LIG 0.04  C 
BRANCH 58 60
ATOM     60  C   ALA G   7      12.243  30.702  43.698  1.00 76.13 LIG 0.22  C 
ATOM     61 O    ALA G   7      12.937  31.519  43.091  1.00 77.97 LIG-0.29  OA
ENDBRANCH 58 60
ENDBRANCH 55 58
ENDBRANCH 49 54
ENDBRANCH 46 49
ENDBRANCH 43 45
ENDBRANCH 40 43
ENDBRANCH 37 39
ENDBRANCH 34 37
ENDBRANCH 1 33
TORSDOF 22
ENDMDL
MODEL 18
USER: ADFR SOLUTION from run 66
USER: SCORE 18.680792 LL:  -3.566 LR: -16.725 RR:   0.000 FEB: -10.163
USER: RMSD 6.229797
USER: SEED 65
USER: STATUS searching
USER: GENES 24
USER: genes 0 Translation |==|  0.51181 0.40587 0.23428
USER: genes 1 Rotation |==|  0.61218 0.35028 0.44410 0.96030
USER: genes 2 Torsion [CB]-CA--N-[C] |==|  0.82052
USER: genes 3 Torsion [N]-C--CA-[N] |==|  0.06111
USER: genes 4 Torsion [C]-CA--N-[C] |==|  0.16438
USER: genes 5 Torsion [N]-C--CA-[N] |==|  0.25112
USER: genes 6 Torsion [C]-CA--N-[H1] |==|  0.51103
USER: genes 7 Torsion [C]-CA--CB-[CG] |==|  0.31012
USER: genes 8 Torsion [CA]-CB--CG-[CD] |==|  0.33846
USER: genes 9 Torsion [CB]-CG--CD-[NE] |==|  0.69765
USER: genes 10 Torsion [CG]-CD--NE-[CZ] |==|  0.24142
USER: genes 11 Torsion [N]-CA--CB-[OG1] |==|  0.17670
USER: genes 12 Torsion [CA]-CB--OG1-[HG1] |==|  0.70859
USER: genes 13 Torsion [N]-CA--C-[N] |==|  0.02548
USER: genes 14 Torsion [C]-N--CA-[CB] |==|  0.84720
USER: genes 15 Torsion [N]-CA--C-[N] |==|  0.84522
USER: genes 16 Torsion [C]-N--CA-[CB] |==|  0.85000
USER: genes 17 Torsion [N]-CA--C-[N] |==|  0.00426
USER: genes 18 Torsion [C]-N--CA-[CB] |==|  0.84978
USER: genes 19 Torsion [N]-CA--CB-[CG2] |==|  0.47624
USER: genes 20 Torsion [CA]-CB--OG1-[HG1] |==|  0.36975
USER: genes 21 Torsion [N]-CA--C-[N] |==|  0.87899
USER: genes 22 Torsion [C]-N--CA-[C] |==|  0.58710
USER: genes 23 Torsion [N]-CA--C-[O] |==|  0.98152
ROOT
ATOM      1  CA  THR G   3      18.404  36.460  37.782  1.00 68.23 LIG 0.20  C 
ENDROOT
BRANCH 1 2
ATOM      2  N   THR G   3      19.557  35.705  38.262  1.00 68.42 LIG-0.34  N 
ATOM      3  C   ARG G   2      19.481  34.793  39.228  1.00 70.38 LIG 0.24  C 
ATOM      4 O    ARG G   2      18.457  34.574  39.885  1.00 69.46 LIG-0.27  OA
ATOM      5 H    THR G   3      20.291  35.906  37.862  1.00 68.42 LIG 0.16  HD
BRANCH 3 6
ATOM      6  CA  ARG G   2      20.768  34.027  39.515  1.00 72.62 LIG 0.18  C 
BRANCH 6 7
ATOM      7  N   ARG G   2      21.906  34.809  39.038  1.00 74.86 LIG-0.35  N 
ATOM      8  C   ALA G   1      22.163  36.034  39.490  1.00 76.29 LIG 0.25  C 
ATOM      9 O    ALA G   1      21.384  36.677  40.201  1.00 75.70 LIG-0.27  OA
ATOM     10 H    ARG G   2      22.386  34.408  38.447  1.00 74.86 LIG 0.16  HD
BRANCH 8 11
ATOM     11  CA  ALA G   1      23.496  36.633  39.070  1.00 78.97 LIG 0.27  C 
ATOM     12  CB  ALA G   1      24.030  37.535  40.177  1.00 79.33 LIG 0.05  C 
BRANCH 11 13
ATOM     13  N   ALA G   1      23.351  37.392  37.796  1.00 81.42 LIG-0.07  N 
ATOM     14 H3   ALA G   1      22.805  38.084  37.923  1.00 81.42 LIG 0.28  HD
ATOM     15 H2   ALA G   1      23.011  36.858  37.170  1.00 81.42 LIG 0.28  HD
ATOM     16 H1   ALA G   1      24.148  37.687  37.534  1.00 81.42 LIG 0.28  HD
ENDBRANCH 11 13
ENDBRANCH 8 11
ENDBRANCH 6 7
BRANCH 6 17
ATOM     17  CB  ARG G   2      20.901  33.724  41.010  1.00 73.45 LIG 0.04  C 
BRANCH 17 18
ATOM     18  CG  ARG G   2      20.773  32.246  41.334  1.00 75.79 LIG 0.02  C 
BRANCH 18 19
ATOM     19  CD  ARG G   2      22.001  31.699  42.046  1.00 77.52 LIG 0.14  C 
BRANCH 19 20
ATOM     20  NE  ARG G   2      22.773  30.813  41.172  1.00 80.25 LIG-0.23  N 
ATOM     21  CZ  ARG G   2      23.725  31.200  40.316  1.00 82.01 LIG 0.67  C 
ATOM     22  NH1 ARG G   2      24.063  32.484  40.180  1.00 81.47 LIG-0.23  N 
ATOM     23  NH2 ARG G   2      24.348  30.286  39.576  1.00 84.93 LIG-0.23  N 
ATOM     24 1HH1 ARG G   2      23.666  33.086  40.649  1.00 81.47 LIG 0.17  HD
ATOM     25 2HH1 ARG G   2      24.679  32.710  39.623  1.00 81.47 LIG 0.17  HD
ATOM     26 2HH2 ARG G   2      24.962  30.525  39.023  1.00 84.93 LIG 0.17  HD
ATOM     27 1HH2 ARG G   2      24.137  29.455  39.651  1.00 84.93 LIG 0.17  HD
ATOM     28 HE   ARG G   2      22.600  29.971  41.213  1.00 80.25 LIG 0.18  HD
ENDBRANCH 19 20
ENDBRANCH 18 19
ENDBRANCH 17 18
ENDBRANCH 6 17
ENDBRANCH 3 6
ENDBRANCH 1 2
BRANCH 1 29
ATOM     29  CB  THR G   3      17.354  35.544  37.108  1.00 68.23 LIG 0.15  C 
ATOM     30  CG2 THR G   3      17.971  34.778  35.953  1.00 68.63 LIG 0.04  C 
BRANCH 29 31
ATOM     31 OG1  THR G   3      16.820  34.619  38.064  1.00 67.51 LIG-0.39  OA
ATOM     32 HG1  THR G   3      17.148  33.857  37.929  1.00 67.51 LIG 0.21  HD
ENDBRANCH 29 31
ENDBRANCH 1 29
BRANCH 1 33
ATOM     33  C   THR G   3      17.748  37.213  38.934  1.00 68.02 LIG 0.24  C 
ATOM     34  N   ALA G   4      18.421  37.214  40.083  1.00 68.86 LIG-0.35  N 
ATOM     35 H    ALA G   4      19.154  36.781  40.203  1.00 68.86 LIG 0.16  HD
ATOM     36 O    THR G   3      16.661  37.775  38.784  1.00 67.54 LIG-0.27  OA
BRANCH 34 37
ATOM     37  CA  ALA G   4      17.971  37.958  41.263  1.00 69.75 LIG 0.17  C 
ATOM     38  CB  ALA G   4      17.766  39.421  40.910  1.00 70.86 LIG 0.04  C 
BRANCH 37 39
ATOM     39  C   ALA G   4      16.693  37.376  41.882  1.00 71.43 LIG 0.24  C 
ATOM     40  N   ALA G   5      15.637  37.256  41.075  1.00 71.85 LIG-0.35  N 
ATOM     41 H    ALA G   5      15.625  37.538  40.263  1.00 71.85 LIG 0.16  HD
ATOM     42 O    ALA G   4      16.676  37.042  43.070  1.00 72.80 LIG-0.27  OA
BRANCH 40 43
ATOM     43  CA  ALA G   5      14.384  36.624  41.505  1.00 72.89 LIG 0.17  C 
ATOM     44  CB  ALA G   5      14.652  35.230  42.058  1.00 72.65 LIG 0.04  C 
BRANCH 43 45
ATOM     45  C   ALA G   5      13.637  37.472  42.540  1.00 72.87 LIG 0.24  C 
ATOM     46  N   THR G   6      14.190  38.642  42.873  1.00 71.86 LIG-0.34  N 
ATOM     47 H    THR G   6      14.935  38.926  42.551  1.00 71.86 LIG 0.16  HD
ATOM     48 O    ALA G   5      12.578  37.067  43.023  1.00 74.40 LIG-0.27  OA
BRANCH 46 49
ATOM     49  CA  THR G   6      13.561  39.562  43.836  1.00 72.17 LIG 0.20  C 
BRANCH 49 50
ATOM     50  CB  THR G   6      12.103  39.908  43.453  1.00 71.29 LIG 0.15  C 
ATOM     51  CG2 THR G   6      11.417  40.687  44.573  1.00 70.64 LIG 0.04  C 
BRANCH 50 52
ATOM     52 OG1  THR G   6      12.083  40.682  42.248  1.00 70.47 LIG-0.39  OA
ATOM     53 HG1  THR G   6      11.505  40.371  41.724  1.00 70.47 LIG 0.21  HD
ENDBRANCH 50 52
ENDBRANCH 49 50
BRANCH 49 54
ATOM     54  C   THR G   6      13.586  39.018  45.272  1.00 73.53 LIG 0.24  C 
ATOM     55  N   ALA G   7      13.276  37.728  45.436  1.00 73.25 LIG-0.35  N 
ATOM     56 H    ALA G   7      12.988  37.228  44.797  1.00 73.25 LIG 0.16  HD
ATOM     57 O    THR G   6      13.869  39.769  46.208  1.00 75.15 LIG-0.27  OA
BRANCH 55 58
ATOM     58  CA  ALA G   7      13.395  37.032  46.725  1.00 74.45 LIG 0.16  C 
ATOM     59  CB  ALA G   7      12.104  37.162  47.521  1.00 73.04 LIG 0.04  C 
BRANCH 58 60
ATOM     60  C   ALA G   7      13.736  35.557  46.512  1.00 76.13 LIG 0.22  C 
ATOM     61 O    ALA G   7      13.756  35.067  45.382  1.00 77.97 LIG-0.29  OA
ENDBRANCH 58 60
ENDBRANCH 55 58
ENDBRANCH 49 54
ENDBRANCH 46 49
ENDBRANCH 43 45
ENDBRANCH 40 43
ENDBRANCH 37 39
ENDBRANCH 34 37
ENDBRANCH 1 33
TORSDOF 22
ENDMDL
MODEL 19
USER: ADFR SOLUTION from run 185
USER: SCORE 18.098425 LL:  -3.280 LR: -16.705 RR:   0.000 FEB: -10.143
USER: RMSD 5.108496
USER: SEED 184
USER: STATUS searching
USER: GENES 24
USER: genes 0 Translation |==|  0.32631 0.46313 0.45375
USER: genes 1 Rotation |==|  0.61725 0.53830 0.54045 0.98286
USER: genes 2 Torsion [CB]-CA--N-[C] |==|  0.21242
USER: genes 3 Torsion [N]-C--CA-[N] |==|  0.49350
USER: genes 4 Torsion [C]-CA--N-[C] |==|  0.73889
USER: genes 5 Torsion [N]-C--CA-[N] |==|  0.27827
USER: genes 6 Torsion [C]-CA--N-[H1] |==|  0.70573
USER: genes 7 Torsion [C]-CA--CB-[CG] |==|  0.54443
USER: genes 8 Torsion [CA]-CB--CG-[CD] |==|  0.86502
USER: genes 9 Torsion [CB]-CG--CD-[NE] |==|  0.42621
USER: genes 10 Torsion [CG]-CD--NE-[CZ] |==|  0.60971
USER: genes 11 Torsion [N]-CA--CB-[OG1] |==|  0.53402
USER: genes 12 Torsion [CA]-CB--OG1-[HG1] |==|  0.87073
USER: genes 13 Torsion [N]-CA--C-[N] |==|  0.47573
USER: genes 14 Torsion [C]-N--CA-[CB] |==|  0.82205
USER: genes 15 Torsion [N]-CA--C-[N] |==|  0.53258
USER: genes 16 Torsion [C]-N--CA-[CB] |==|  0.84552
USER: genes 17 Torsion [N]-CA--C-[N] |==|  0.36549
USER: genes 18 Torsion [C]-N--CA-[CB] |==|  0.85326
USER: genes 19 Torsion [N]-CA--CB-[CG2] |==|  0.91246
USER: genes 20 Torsion [CA]-CB--OG1-[HG1] |==|  0.86885
USER: genes 21 Torsion [N]-CA--C-[N] |==|  0.89572
USER: genes 22 Torsion [C]-N--CA-[C] |==|  0.48103
USER: genes 23 Torsion [N]-CA--C-[O] |==|  0.96447
ROOT
ATOM      1  CA  THR G   3      14.230  37.490  42.227  1.00 68.23 LIG 0.20  C 
ENDROOT
BRANCH 1 2
ATOM      2  N   THR G   3      15.635  37.496  41.833  1.00 68.42 LIG-0.34  N 
ATOM      3  C   ARG G   2      16.038  37.407  40.568  1.00 70.38 LIG 0.24  C 
ATOM      4 O    ARG G   2      15.275  37.201  39.617  1.00 69.46 LIG-0.27  OA
ATOM      5 H    THR G   3      16.179  37.563  42.496  1.00 68.42 LIG 0.16  HD
BRANCH 3 6
ATOM      6  CA  ARG G   2      17.541  37.545  40.344  1.00 72.62 LIG 0.18  C 
BRANCH 6 7
ATOM      7  N   ARG G   2      17.831  37.370  38.924  1.00 74.86 LIG-0.35  N 
ATOM      8  C   ALA G   1      18.174  36.191  38.410  1.00 76.29 LIG 0.25  C 
ATOM      9 O    ALA G   1      18.446  35.201  39.096  1.00 75.70 LIG-0.27  OA
ATOM     10 H    ARG G   2      17.760  38.090  38.458  1.00 74.86 LIG 0.16  HD
BRANCH 8 11
ATOM     11  CA  ALA G   1      18.229  36.115  36.893  1.00 78.97 LIG 0.27  C 
ATOM     12  CB  ALA G   1      17.596  34.813  36.416  1.00 79.33 LIG 0.05  C 
BRANCH 11 13
ATOM     13  N   ALA G   1      19.635  36.224  36.414  1.00 81.42 LIG-0.07  N 
ATOM     14 H3   ALA G   1      19.788  35.599  35.798  1.00 81.42 LIG 0.28  HD
ATOM     15 H2   ALA G   1      20.191  36.109  37.099  1.00 81.42 LIG 0.28  HD
ATOM     16 H1   ALA G   1      19.766  37.029  36.058  1.00 81.42 LIG 0.28  HD
ENDBRANCH 11 13
ENDBRANCH 8 11
ENDBRANCH 6 7
BRANCH 6 17
ATOM     17  CB  ARG G   2      18.044  38.903  40.842  1.00 73.45 LIG 0.04  C 
BRANCH 17 18
ATOM     18  CG  ARG G   2      19.422  39.261  40.311  1.00 75.79 LIG 0.02  C 
BRANCH 18 19
ATOM     19  CD  ARG G   2      20.419  38.124  40.475  1.00 77.52 LIG 0.14  C 
BRANCH 19 20
ATOM     20  NE  ARG G   2      21.480  38.197  39.468  1.00 80.25 LIG-0.23  N 
ATOM     21  CZ  ARG G   2      22.020  37.154  38.829  1.00 82.01 LIG 0.67  C 
ATOM     22  NH1 ARG G   2      21.619  35.903  39.068  1.00 81.47 LIG-0.23  N 
ATOM     23  NH2 ARG G   2      22.984  37.364  37.936  1.00 84.93 LIG-0.23  N 
ATOM     24 1HH1 ARG G   2      20.999  35.753  39.645  1.00 81.47 LIG 0.17  HD
ATOM     25 2HH1 ARG G   2      21.980  35.247  38.644  1.00 81.47 LIG 0.17  HD
ATOM     26 2HH2 ARG G   2      23.337  36.699  37.520  1.00 84.93 LIG 0.17  HD
ATOM     27 1HH2 ARG G   2      23.254  38.164  37.775  1.00 84.93 LIG 0.17  HD
ATOM     28 HE   ARG G   2      21.782  38.978  39.270  1.00 80.25 LIG 0.18  HD
ENDBRANCH 19 20
ENDBRANCH 18 19
ENDBRANCH 17 18
ENDBRANCH 6 17
ENDBRANCH 3 6
ENDBRANCH 1 2
BRANCH 1 29
ATOM     29  CB  THR G   3      13.621  36.069  42.170  1.00 68.23 LIG 0.15  C 
ATOM     30  CG2 THR G   3      14.173  35.202  43.285  1.00 68.63 LIG 0.04  C 
BRANCH 29 31
ATOM     31 OG1  THR G   3      12.193  36.140  42.282  1.00 67.51 LIG-0.39  OA
ATOM     32 HG1  THR G   3      11.987  36.655  42.912  1.00 67.51 LIG 0.21  HD
ENDBRANCH 29 31
ENDBRANCH 1 29
BRANCH 1 33
ATOM     33  C   THR G   3      14.073  38.049  43.637  1.00 68.02 LIG 0.24  C 
ATOM     34  N   ALA G   4      12.821  38.263  44.039  1.00 68.86 LIG-0.35  N 
ATOM     35 H    ALA G   4      12.135  38.147  43.533  1.00 68.86 LIG 0.16  HD
ATOM     36 O    THR G   3      15.060  38.282  44.337  1.00 67.54 LIG-0.27  OA
BRANCH 34 37
ATOM     37  CA  ALA G   4      12.492  38.720  45.392  1.00 69.75 LIG 0.17  C 
ATOM     38  CB  ALA G   4      12.899  37.669  46.410  1.00 70.86 LIG 0.04  C 
BRANCH 37 39
ATOM     39  C   ALA G   4      13.132  40.071  45.736  1.00 71.43 LIG 0.24  C 
ATOM     40  N   ALA G   5      13.088  40.447  47.016  1.00 71.85 LIG-0.35  N 
ATOM     41 H    ALA G   5      12.675  40.005  47.626  1.00 71.85 LIG 0.16  HD
ATOM     42 O    ALA G   4      13.656  40.752  44.849  1.00 72.80 LIG-0.27  OA
BRANCH 40 43
ATOM     43  CA  ALA G   5      13.747  41.664  47.502  1.00 72.89 LIG 0.17  C 
ATOM     44  CB  ALA G   5      15.228  41.647  47.148  1.00 72.65 LIG 0.04  C 
BRANCH 43 45
ATOM     45  C   ALA G   5      13.085  42.934  46.958  1.00 72.87 LIG 0.24  C 
ATOM     46  N   THR G   6      12.798  43.892  47.844  1.00 71.86 LIG-0.34  N 
ATOM     47 H    THR G   6      12.952  43.823  48.687  1.00 71.86 LIG 0.16  HD
ATOM     48 O    ALA G   5      12.842  43.037  45.754  1.00 74.40 LIG-0.27  OA
BRANCH 46 49
ATOM     49  CA  THR G   6      12.184  45.171  47.447  1.00 72.17 LIG 0.20  C 
BRANCH 49 50
ATOM     50  CB  THR G   6      12.968  45.873  46.313  1.00 71.29 LIG 0.15  C 
ATOM     51  CG2 THR G   6      14.459  45.561  46.409  1.00 70.64 LIG 0.04  C 
BRANCH 50 52
ATOM     52 OG1  THR G   6      12.470  45.449  45.039  1.00 70.47 LIG-0.39  OA
ATOM     53 HG1  THR G   6      12.398  44.612  45.029  1.00 70.47 LIG 0.21  HD
ENDBRANCH 50 52
ENDBRANCH 49 50
BRANCH 49 54
ATOM     54  C   THR G   6      10.718  45.013  47.019  1.00 73.53 LIG 0.24  C 
ATOM     55  N   ALA G   7      10.405  43.910  46.331  1.00 73.25 LIG-0.35  N 
ATOM     56 H    ALA G   7      10.992  43.345  46.054  1.00 73.25 LIG 0.16  HD
ATOM     57 O    THR G   6       9.898  45.889  47.302  1.00 75.15 LIG-0.27  OA
BRANCH 55 58
ATOM     58  CA  ALA G   7       9.025  43.550  45.979  1.00 74.45 LIG 0.16  C 
ATOM     59  CB  ALA G   7       8.320  44.725  45.316  1.00 73.04 LIG 0.04  C 
BRANCH 58 60
ATOM     60  C   ALA G   7       9.004  42.333  45.054  1.00 76.13 LIG 0.22  C 
ATOM     61 O    ALA G   7      10.034  41.929  44.512  1.00 77.97 LIG-0.29  OA
ENDBRANCH 58 60
ENDBRANCH 55 58
ENDBRANCH 49 54
ENDBRANCH 46 49
ENDBRANCH 43 45
ENDBRANCH 40 43
ENDBRANCH 37 39
ENDBRANCH 34 37
ENDBRANCH 1 33
TORSDOF 22
ENDMDL
MODEL 20
USER: ADFR SOLUTION from run 66
USER: SCORE 18.015387 LL:  -3.421 LR: -16.672 RR:   0.000 FEB: -10.110
USER: RMSD 6.055696
USER: SEED 65
USER: STATUS searching
USER: GENES 24
USER: genes 0 Translation |==|  0.51214 0.40889 0.23364
USER: genes 1 Rotation |==|  0.59881 0.35654 0.43859 0.96463
USER: genes 2 Torsion [CB]-CA--N-[C] |==|  0.81577
USER: genes 3 Torsion [N]-C--CA-[N] |==|  0.07327
USER: genes 4 Torsion [C]-CA--N-[C] |==|  0.16764
USER: genes 5 Torsion [N]-C--CA-[N] |==|  0.25132
USER: genes 6 Torsion [C]-CA--N-[H1] |==|  0.51348
USER: genes 7 Torsion [C]-CA--CB-[CG] |==|  0.31061
USER: genes 8 Torsion [CA]-CB--CG-[CD] |==|  0.34025
USER: genes 9 Torsion [CB]-CG--CD-[NE] |==|  0.69829
USER: genes 10 Torsion [CG]-CD--NE-[CZ] |==|  0.24156
USER: genes 11 Torsion [N]-CA--CB-[OG1] |==|  0.17563
USER: genes 12 Torsion [CA]-CB--OG1-[HG1] |==|  0.72688
USER: genes 13 Torsion [N]-CA--C-[N] |==|  0.04887
USER: genes 14 Torsion [C]-N--CA-[CB] |==|  0.80668
USER: genes 15 Torsion [N]-CA--C-[N] |==|  0.76940
USER: genes 16 Torsion [C]-N--CA-[CB] |==|  0.86076
USER: genes 17 Torsion [N]-CA--C-[N] |==|  0.44986
USER: genes 18 Torsion [C]-N--CA-[CB] |==|  0.86618
USER: genes 19 Torsion [N]-CA--CB-[CG2] |==|  0.51132
USER: genes 20 Torsion [CA]-CB--OG1-[HG1] |==|  0.94510
USER: genes 21 Torsion [N]-CA--C-[N] |==|  0.36251
USER: genes 22 Torsion [C]-N--CA-[C] |==|  0.77196
USER: genes 23 Torsion [N]-CA--C-[O] |==|  0.96534
ROOT
ATOM      1  CA  THR G   3      18.411  36.514  37.769  1.00 68.23 LIG 0.20  C 
ENDROOT
BRANCH 1 2
ATOM      2  N   THR G   3      19.561  35.747  38.237  1.00 68.42 LIG-0.34  N 
ATOM      3  C   ARG G   2      19.506  34.905  39.266  1.00 70.38 LIG 0.24  C 
ATOM      4 O    ARG G   2      18.513  34.771  39.990  1.00 69.46 LIG-0.27  OA
ATOM      5 H    THR G   3      20.279  35.891  37.786  1.00 68.42 LIG 0.16  HD
BRANCH 3 6
ATOM      6  CA  ARG G   2      20.778  34.109  39.535  1.00 72.62 LIG 0.18  C 
BRANCH 6 7
ATOM      7  N   ARG G   2      21.927  34.861  39.038  1.00 74.86 LIG-0.35  N 
ATOM      8  C   ALA G   1      22.234  36.071  39.498  1.00 76.29 LIG 0.25  C 
ATOM      9 O    ALA G   1      21.495  36.728  40.238  1.00 75.70 LIG-0.27  OA
ATOM     10 H    ARG G   2      22.378  34.453  38.430  1.00 74.86 LIG 0.16  HD
BRANCH 8 11
ATOM     11  CA  ALA G   1      23.574  36.634  39.050  1.00 78.97 LIG 0.27  C 
ATOM     12  CB  ALA G   1      24.166  37.502  40.155  1.00 79.33 LIG 0.05  C 
BRANCH 11 13
ATOM     13  N   ALA G   1      23.419  37.415  37.792  1.00 81.42 LIG-0.07  N 
ATOM     14 H3   ALA G   1      22.910  38.129  37.946  1.00 81.42 LIG 0.28  HD
ATOM     15 H2   ALA G   1      23.035  36.905  37.172  1.00 81.42 LIG 0.28  HD
ATOM     16 H1   ALA G   1      24.220  37.678  37.505  1.00 81.42 LIG 0.28  HD
ENDBRANCH 11 13
ENDBRANCH 8 11
ENDBRANCH 6 7
BRANCH 6 17
ATOM     17  CB  ARG G   2      20.928  33.806  41.029  1.00 73.45 LIG 0.04  C 
BRANCH 17 18
ATOM     18  CG  ARG G   2      20.772  32.332  41.359  1.00 75.79 LIG 0.02  C 
BRANCH 18 19
ATOM     19  CD  ARG G   2      21.992  31.765  42.068  1.00 77.52 LIG 0.14  C 
BRANCH 19 20
ATOM     20  NE  ARG G   2      22.747  30.865  41.193  1.00 80.25 LIG-0.23  N 
ATOM     21  CZ  ARG G   2      23.704  31.235  40.335  1.00 82.01 LIG 0.67  C 
ATOM     22  NH1 ARG G   2      24.065  32.513  40.197  1.00 81.47 LIG-0.23  N 
ATOM     23  NH2 ARG G   2      24.309  30.310  39.594  1.00 84.93 LIG-0.23  N 
ATOM     24 1HH1 ARG G   2      23.679  33.121  40.667  1.00 81.47 LIG 0.17  HD
ATOM     25 2HH1 ARG G   2      24.683  32.728  39.639  1.00 81.47 LIG 0.17  HD
ATOM     26 2HH2 ARG G   2      24.925  30.538  39.040  1.00 84.93 LIG 0.17  HD
ATOM     27 1HH2 ARG G   2      24.084  29.483  39.670  1.00 84.93 LIG 0.17  HD
ATOM     28 HE   ARG G   2      22.559  30.027  41.234  1.00 80.25 LIG 0.18  HD
ENDBRANCH 19 20
ENDBRANCH 18 19
ENDBRANCH 17 18
ENDBRANCH 6 17
ENDBRANCH 3 6
ENDBRANCH 1 2
BRANCH 1 29
ATOM     29  CB  THR G   3      17.311  35.602  37.178  1.00 68.23 LIG 0.15  C 
ATOM     30  CG2 THR G   3      17.857  34.775  36.028  1.00 68.63 LIG 0.04  C 
BRANCH 29 31
ATOM     31 OG1  THR G   3      16.796  34.728  38.191  1.00 67.51 LIG-0.39  OA
ATOM     32 HG1  THR G   3      17.166  33.977  38.128  1.00 67.51 LIG 0.21  HD
ENDBRANCH 29 31
ENDBRANCH 1 29
BRANCH 1 33
ATOM     33  C   THR G   3      17.823  37.336  38.911  1.00 68.02 LIG 0.24  C 
ATOM     34  N   ALA G   4      18.616  37.511  39.967  1.00 68.86 LIG-0.35  N 
ATOM     35 H    ALA G   4      19.393  37.151  40.040  1.00 68.86 LIG 0.16  HD
ATOM     36 O    THR G   3      16.681  37.794  38.837  1.00 67.54 LIG-0.27  OA
BRANCH 34 37
ATOM     37  CA  ALA G   4      18.235  38.342  41.113  1.00 69.75 LIG 0.17  C 
ATOM     38  CB  ALA G   4      18.216  39.807  40.711  1.00 70.86 LIG 0.04  C 
BRANCH 37 39
ATOM     39  C   ALA G   4      16.885  37.937  41.718  1.00 71.43 LIG 0.24  C 
ATOM     40  N   ALA G   5      15.792  38.426  41.128  1.00 71.85 LIG-0.35  N 
ATOM     41 H    ALA G   5      15.815  38.990  40.479  1.00 71.85 LIG 0.16  HD
ATOM     42 O    ALA G   4      16.845  37.193  42.702  1.00 72.80 LIG-0.27  OA
BRANCH 40 43
ATOM     43  CA  ALA G   5      14.436  38.043  41.538  1.00 72.89 LIG 0.17  C 
ATOM     44  CB  ALA G   5      14.310  36.528  41.613  1.00 72.65 LIG 0.04  C 
BRANCH 43 45
ATOM     45  C   ALA G   5      14.039  38.677  42.876  1.00 72.87 LIG 0.24  C 
ATOM     46  N   THR G   6      12.735  38.710  43.164  1.00 71.86 LIG-0.34  N 
ATOM     47 H    THR G   6      12.123  38.412  42.639  1.00 71.86 LIG 0.16  HD
ATOM     48 O    ALA G   5      14.906  39.126  43.629  1.00 74.40 LIG-0.27  OA
BRANCH 46 49
ATOM     49  CA  THR G   6      12.224  39.268  44.428  1.00 72.17 LIG 0.20  C 
BRANCH 49 50
ATOM     50  CB  THR G   6      12.987  38.731  45.660  1.00 71.29 LIG 0.15  C 
ATOM     51  CG2 THR G   6      12.367  39.252  46.954  1.00 70.64 LIG 0.04  C 
BRANCH 50 52
ATOM     52 OG1  THR G   6      12.969  37.299  45.662  1.00 70.47 LIG-0.39  OA
ATOM     53 HG1  THR G   6      12.343  37.025  45.173  1.00 70.47 LIG 0.21  HD
ENDBRANCH 50 52
ENDBRANCH 49 50
BRANCH 49 54
ATOM     54  C   THR G   6      12.256  40.803  44.448  1.00 73.53 LIG 0.24  C 
ATOM     55  N   ALA G   7      11.135  41.427  44.823  1.00 73.25 LIG-0.35  N 
ATOM     56 H    ALA G   7      10.392  41.017  44.965  1.00 73.25 LIG 0.16  HD
ATOM     57 O    THR G   6      13.283  41.400  44.115  1.00 75.15 LIG-0.27  OA
BRANCH 55 58
ATOM     58  CA  ALA G   7      11.056  42.880  45.029  1.00 74.45 LIG 0.16  C 
ATOM     59  CB  ALA G   7       9.624  43.366  44.854  1.00 73.04 LIG 0.04  C 
BRANCH 58 60
ATOM     60  C   ALA G   7      11.574  43.258  46.416  1.00 76.13 LIG 0.22  C 
ATOM     61 O    ALA G   7      11.770  42.398  47.277  1.00 77.97 LIG-0.29  OA
ENDBRANCH 58 60
ENDBRANCH 55 58
ENDBRANCH 49 54
ENDBRANCH 46 49
ENDBRANCH 43 45
ENDBRANCH 40 43
ENDBRANCH 37 39
ENDBRANCH 34 37
ENDBRANCH 1 33
TORSDOF 22
ENDMDL
MODEL 21
USER: ADFR SOLUTION from run 15
USER: SCORE 18.571699 LL:  -3.847 LR: -16.651 RR:   0.000 FEB: -10.088
USER: RMSD 8.230941
USER: SEED 463223
USER: STATUS no improvement in best in 12 clusters for 5 generations
USER: GENES 24
USER: genes 0 Translation |==|  0.50799 0.39800 0.20651
USER: genes 1 Rotation |==|  0.61282 0.31464 0.48881 0.95032
USER: genes 2 Torsion [CB]-CA--N-[C] |==|  0.79910
USER: genes 3 Torsion [N]-C--CA-[N] |==|  0.06111
USER: genes 4 Torsion [C]-CA--N-[C] |==|  0.16690
USER: genes 5 Torsion [N]-C--CA-[N] |==|  0.21886
USER: genes 6 Torsion [C]-CA--N-[H1] |==|  0.52339
USER: genes 7 Torsion [C]-CA--CB-[CG] |==|  0.59427
USER: genes 8 Torsion [CA]-CB--CG-[CD] |==|  0.71537
USER: genes 9 Torsion [CB]-CG--CD-[NE] |==|  0.22025
USER: genes 10 Torsion [CG]-CD--NE-[CZ] |==|  0.59144
USER: genes 11 Torsion [N]-CA--CB-[OG1] |==|  0.20224
USER: genes 12 Torsion [CA]-CB--OG1-[HG1] |==|  0.80193
USER: genes 13 Torsion [N]-CA--C-[N] |==|  0.09362
USER: genes 14 Torsion [C]-N--CA-[CB] |==|  0.17520
USER: genes 15 Torsion [N]-CA--C-[N] |==|  0.13280
USER: genes 16 Torsion [C]-N--CA-[CB] |==|  0.22136
USER: genes 17 Torsion [N]-CA--C-[N] |==|  0.04378
USER: genes 18 Torsion [C]-N--CA-[CB] |==|  0.76797
USER: genes 19 Torsion [N]-CA--CB-[CG2] |==|  0.53919
USER: genes 20 Torsion [CA]-CB--OG1-[HG1] |==|  0.73876
USER: genes 21 Torsion [N]-CA--C-[N] |==|  0.18944
USER: genes 22 Torsion [C]-N--CA-[C] |==|  0.18632
USER: genes 23 Torsion [N]-CA--C-[O] |==|  0.09471
ROOT
ATOM      1  CA  THR G   3      18.318  36.318  37.220  1.00 68.23 LIG 0.20  C 
ENDROOT
BRANCH 1 2
ATOM      2  N   THR G   3      19.445  35.747  37.949  1.00 68.42 LIG-0.34  N 
ATOM      3  C   ARG G   2      19.304  34.997  39.039  1.00 70.38 LIG 0.24  C 
ATOM      4 O    ARG G   2      18.220  34.800  39.601  1.00 69.46 LIG-0.27  OA
ATOM      5 H    THR G   3      20.211  35.941  37.609  1.00 68.42 LIG 0.16  HD
BRANCH 3 6
ATOM      6  CA  ARG G   2      20.589  34.395  39.597  1.00 72.62 LIG 0.18  C 
BRANCH 6 7
ATOM      7  N   ARG G   2      21.727  35.182  39.131  1.00 74.86 LIG-0.35  N 
ATOM      8  C   ALA G   1      21.856  36.477  39.412  1.00 76.29 LIG 0.25  C 
ATOM      9 O    ALA G   1      20.963  37.156  39.927  1.00 75.70 LIG-0.27  OA
ATOM     10 H    ARG G   2      22.297  34.737  38.664  1.00 74.86 LIG 0.16  HD
BRANCH 8 11
ATOM     11  CA  ALA G   1      23.192  37.107  39.051  1.00 78.97 LIG 0.27  C 
ATOM     12  CB  ALA G   1      23.403  38.377  39.869  1.00 79.33 LIG 0.05  C 
BRANCH 11 13
ATOM     13  N   ALA G   1      23.254  37.404  37.593  1.00 81.42 LIG-0.07  N 
ATOM     14 H3   ALA G   1      22.682  38.058  37.398  1.00 81.42 LIG 0.28  HD
ATOM     15 H2   ALA G   1      23.037  36.674  37.132  1.00 81.42 LIG 0.28  HD
ATOM     16 H1   ALA G   1      24.079  37.657  37.376  1.00 81.42 LIG 0.28  HD
ENDBRANCH 11 13
ENDBRANCH 8 11
ENDBRANCH 6 7
BRANCH 6 17
ATOM     17  CB  ARG G   2      20.550  34.345  41.127  1.00 73.45 LIG 0.04  C 
BRANCH 17 18
ATOM     18  CG  ARG G   2      21.910  34.561  41.768  1.00 75.79 LIG 0.02  C 
BRANCH 18 19
ATOM     19  CD  ARG G   2      22.537  33.262  42.249  1.00 77.52 LIG 0.14  C 
BRANCH 19 20
ATOM     20  NE  ARG G   2      23.142  32.520  41.140  1.00 80.25 LIG-0.23  N 
ATOM     21  CZ  ARG G   2      23.209  31.189  41.039  1.00 82.01 LIG 0.67  C 
ATOM     22  NH1 ARG G   2      22.709  30.389  41.984  1.00 81.47 LIG-0.23  N 
ATOM     23  NH2 ARG G   2      23.793  30.644  39.975  1.00 84.93 LIG-0.23  N 
ATOM     24 1HH1 ARG G   2      22.333  30.728  42.679  1.00 81.47 LIG 0.17  HD
ATOM     25 2HH1 ARG G   2      22.763  29.535  41.898  1.00 81.47 LIG 0.17  HD
ATOM     26 2HH2 ARG G   2      23.841  29.788  39.901  1.00 84.93 LIG 0.17  HD
ATOM     27 1HH2 ARG G   2      24.123  31.147  39.360  1.00 84.93 LIG 0.17  HD
ATOM     28 HE   ARG G   2      23.484  32.981  40.499  1.00 80.25 LIG 0.18  HD
ENDBRANCH 19 20
ENDBRANCH 18 19
ENDBRANCH 17 18
ENDBRANCH 6 17
ENDBRANCH 3 6
ENDBRANCH 1 2
BRANCH 1 29
ATOM     29  CB  THR G   3      17.533  35.241  36.435  1.00 68.23 LIG 0.15  C 
ATOM     30  CG2 THR G   3      18.476  34.363  35.633  1.00 68.63 LIG 0.04  C 
BRANCH 29 31
ATOM     31 OG1  THR G   3      16.775  34.426  37.338  1.00 67.51 LIG-0.39  OA
ATOM     32 HG1  THR G   3      17.296  33.932  37.774  1.00 67.51 LIG 0.21  HD
ENDBRANCH 29 31
ENDBRANCH 1 29
BRANCH 1 33
ATOM     33  C   THR G   3      17.372  37.030  38.181  1.00 68.02 LIG 0.24  C 
ATOM     34  N   ALA G   4      17.945  37.621  39.227  1.00 68.86 LIG-0.35  N 
ATOM     35 H    ALA G   4      18.788  37.574  39.394  1.00 68.86 LIG 0.16  HD
ATOM     36 O    THR G   3      16.155  37.038  37.980  1.00 67.54 LIG-0.27  OA
BRANCH 34 37
ATOM     37  CA  ALA G   4      17.190  38.415  40.200  1.00 69.75 LIG 0.17  C 
ATOM     38  CB  ALA G   4      16.179  37.537  40.917  1.00 70.86 LIG 0.04  C 
BRANCH 37 39
ATOM     39  C   ALA G   4      18.093  39.127  41.215  1.00 71.43 LIG 0.24  C 
ATOM     40  N   ALA G   5      19.140  39.793  40.725  1.00 71.85 LIG-0.35  N 
ATOM     41 H    ALA G   5      19.358  39.789  39.893  1.00 71.85 LIG 0.16  HD
ATOM     42 O    ALA G   4      17.834  39.070  42.421  1.00 72.80 LIG-0.27  OA
BRANCH 40 43
ATOM     43  CA  ALA G   5      20.028  40.600  41.569  1.00 72.89 LIG 0.17  C 
ATOM     44  CB  ALA G   5      21.026  39.709  42.298  1.00 72.65 LIG 0.04  C 
BRANCH 43 45
ATOM     45  C   ALA G   5      20.764  41.677  40.766  1.00 72.87 LIG 0.24  C 
ATOM     46  N   THR G   6      20.287  41.955  39.550  1.00 71.86 LIG-0.34  N 
ATOM     47 H    THR G   6      19.610  41.556  39.201  1.00 71.86 LIG 0.16  HD
ATOM     48 O    ALA G   5      21.748  42.243  41.248  1.00 74.40 LIG-0.27  OA
BRANCH 46 49
ATOM     49  CA  THR G   6      20.887  42.987  38.687  1.00 72.17 LIG 0.20  C 
BRANCH 49 50
ATOM     50  CB  THR G   6      20.369  44.406  39.020  1.00 71.29 LIG 0.15  C 
ATOM     51  CG2 THR G   6      20.729  45.390  37.909  1.00 70.64 LIG 0.04  C 
BRANCH 50 52
ATOM     52 OG1  THR G   6      18.948  44.381  39.196  1.00 70.47 LIG-0.39  OA
ATOM     53 HG1  THR G   6      18.572  44.575  38.471  1.00 70.47 LIG 0.21  HD
ENDBRANCH 50 52
ENDBRANCH 49 50
BRANCH 49 54
ATOM     54  C   THR G   6      22.421  42.986  38.749  1.00 73.53 LIG 0.24  C 
ATOM     55  N   ALA G   7      23.047  41.929  38.223  1.00 73.25 LIG-0.35  N 
ATOM     56 H    ALA G   7      22.633  41.231  37.936  1.00 73.25 LIG 0.16  HD
ATOM     57 O    THR G   6      23.015  43.927  39.281  1.00 75.15 LIG-0.27  OA
BRANCH 55 58
ATOM     58  CA  ALA G   7      24.508  41.851  38.079  1.00 74.45 LIG 0.16  C 
ATOM     59  CB  ALA G   7      25.030  43.046  37.294  1.00 73.04 LIG 0.04  C 
BRANCH 58 60
ATOM     60  C   ALA G   7      25.182  41.785  39.449  1.00 76.13 LIG 0.22  C 
ATOM     61 O    ALA G   7      24.646  41.203  40.393  1.00 77.97 LIG-0.29  OA
ENDBRANCH 58 60
ENDBRANCH 55 58
ENDBRANCH 49 54
ENDBRANCH 46 49
ENDBRANCH 43 45
ENDBRANCH 40 43
ENDBRANCH 37 39
ENDBRANCH 34 37
ENDBRANCH 1 33
TORSDOF 22
ENDMDL
MODEL 22
USER: ADFR SOLUTION from run 134
USER: SCORE 17.520701 LL:  -2.963 LR: -16.640 RR:   0.000 FEB: -10.078
USER: RMSD 6.244146
USER: SEED 133
USER: STATUS searching
USER: GENES 24
USER: genes 0 Translation |==|  0.53168 0.47911 0.26907
USER: genes 1 Rotation |==|  0.68301 0.42885 0.71052 0.90881
USER: genes 2 Torsion [CB]-CA--N-[C] |==|  0.55071
USER: genes 3 Torsion [N]-C--CA-[N] |==|  0.99974
USER: genes 4 Torsion [C]-CA--N-[C] |==|  0.77743
USER: genes 5 Torsion [N]-C--CA-[N] |==|  0.82606
USER: genes 6 Torsion [C]-CA--N-[H1] |==|  0.10947
USER: genes 7 Torsion [C]-CA--CB-[CG] |==|  0.65393
USER: genes 8 Torsion [CA]-CB--CG-[CD] |==|  0.41217
USER: genes 9 Torsion [CB]-CG--CD-[NE] |==|  0.96982
USER: genes 10 Torsion [CG]-CD--NE-[CZ] |==|  0.32630
USER: genes 11 Torsion [N]-CA--CB-[OG1] |==|  0.70894
USER: genes 12 Torsion [CA]-CB--OG1-[HG1] |==|  0.24714
USER: genes 13 Torsion [N]-CA--C-[N] |==|  0.35051
USER: genes 14 Torsion [C]-N--CA-[CB] |==|  0.83385
USER: genes 15 Torsion [N]-CA--C-[N] |==|  0.37308
USER: genes 16 Torsion [C]-N--CA-[CB] |==|  0.16983
USER: genes 17 Torsion [N]-CA--C-[N] |==|  0.44882
USER: genes 18 Torsion [C]-N--CA-[CB] |==|  0.50559
USER: genes 19 Torsion [N]-CA--CB-[CG2] |==|  0.81030
USER: genes 20 Torsion [CA]-CB--OG1-[HG1] |==|  0.45412
USER: genes 21 Torsion [N]-CA--C-[N] |==|  0.46230
USER: genes 22 Torsion [C]-N--CA-[C] |==|  0.81084
USER: genes 23 Torsion [N]-CA--C-[O] |==|  0.19542
ROOT
ATOM      1  CA  THR G   3      18.851  37.778  38.487  1.00 68.23 LIG 0.20  C 
ENDROOT
BRANCH 1 2
ATOM      2  N   THR G   3      19.975  38.536  39.026  1.00 68.42 LIG-0.34  N 
ATOM      3  C   ARG G   2      19.842  39.467  39.968  1.00 70.38 LIG 0.24  C 
ATOM      4 O    ARG G   2      18.751  39.856  40.398  1.00 69.46 LIG-0.27  OA
ATOM      5 H    THR G   3      20.732  38.325  38.677  1.00 68.42 LIG 0.16  HD
BRANCH 3 6
ATOM      6  CA  ARG G   2      21.143  40.071  40.486  1.00 72.62 LIG 0.18  C 
BRANCH 6 7
ATOM      7  N   ARG G   2      22.268  39.451  39.791  1.00 74.86 LIG-0.35  N 
ATOM      8  C   ALA G   1      22.743  38.256  40.137  1.00 76.29 LIG 0.25  C 
ATOM      9 O    ALA G   1      22.403  37.657  41.162  1.00 75.70 LIG-0.27  OA
ATOM     10 H    ARG G   2      22.589  39.924  39.148  1.00 74.86 LIG 0.16  HD
BRANCH 8 11
ATOM     11  CA  ALA G   1      23.764  37.646  39.190  1.00 78.97 LIG 0.27  C 
ATOM     12  CB  ALA G   1      24.977  38.563  39.075  1.00 79.33 LIG 0.05  C 
BRANCH 11 13
ATOM     13  N   ALA G   1      23.158  37.404  37.852  1.00 81.42 LIG-0.07  N 
ATOM     14 H3   ALA G   1      22.688  36.648  37.870  1.00 81.42 LIG 0.28  HD
ATOM     15 H2   ALA G   1      23.803  37.337  37.242  1.00 81.42 LIG 0.28  HD
ATOM     16 H1   ALA G   1      22.621  38.082  37.642  1.00 81.42 LIG 0.28  HD
ENDBRANCH 11 13
ENDBRANCH 8 11
ENDBRANCH 6 7
BRANCH 6 17
ATOM     17  CB  ARG G   2      21.154  41.591  40.295  1.00 73.45 LIG 0.04  C 
BRANCH 17 18
ATOM     18  CG  ARG G   2      22.355  42.086  39.508  1.00 75.79 LIG 0.02  C 
BRANCH 18 19
ATOM     19  CD  ARG G   2      22.036  43.324  38.684  1.00 77.52 LIG 0.14  C 
BRANCH 19 20
ATOM     20  NE  ARG G   2      20.595  43.585  38.649  1.00 80.25 LIG-0.23  N 
ATOM     21  CZ  ARG G   2      19.989  44.674  39.134  1.00 82.01 LIG 0.67  C 
ATOM     22  NH1 ARG G   2      20.678  45.657  39.718  1.00 81.47 LIG-0.23  N 
ATOM     23  NH2 ARG G   2      18.667  44.781  39.038  1.00 84.93 LIG-0.23  N 
ATOM     24 1HH1 ARG G   2      21.534  45.598  39.790  1.00 81.47 LIG 0.17  HD
ATOM     25 2HH1 ARG G   2      20.267  46.348  40.023  1.00 81.47 LIG 0.17  HD
ATOM     26 2HH2 ARG G   2      18.268  45.478  39.347  1.00 84.93 LIG 0.17  HD
ATOM     27 1HH2 ARG G   2      18.210  44.154  38.667  1.00 84.93 LIG 0.17  HD
ATOM     28 HE   ARG G   2      20.096  42.987  38.285  1.00 80.25 LIG 0.18  HD
ENDBRANCH 19 20
ENDBRANCH 18 19
ENDBRANCH 17 18
ENDBRANCH 6 17
ENDBRANCH 3 6
ENDBRANCH 1 2
BRANCH 1 29
ATOM     29  CB  THR G   3      19.315  36.490  37.767  1.00 68.23 LIG 0.15  C 
ATOM     30  CG2 THR G   3      18.468  35.303  38.187  1.00 68.63 LIG 0.04  C 
BRANCH 29 31
ATOM     31 OG1  THR G   3      19.230  36.659  36.346  1.00 67.51 LIG-0.39  OA
ATOM     32 HG1  THR G   3      19.950  36.980  36.059  1.00 67.51 LIG 0.21  HD
ENDBRANCH 29 31
ENDBRANCH 1 29
BRANCH 1 33
ATOM     33  C   THR G   3      17.879  37.409  39.602  1.00 68.02 LIG 0.24  C 
ATOM     34  N   ALA G   4      16.610  37.764  39.405  1.00 68.86 LIG-0.35  N 
ATOM     35 H    ALA G   4      16.345  38.217  38.724  1.00 68.86 LIG 0.16  HD
ATOM     36 O    THR G   3      18.270  36.821  40.612  1.00 67.54 LIG-0.27  OA
BRANCH 34 37
ATOM     37  CA  ALA G   4      15.536  37.414  40.339  1.00 69.75 LIG 0.17  C 
ATOM     38  CB  ALA G   4      15.431  35.904  40.471  1.00 70.86 LIG 0.04  C 
BRANCH 37 39
ATOM     39  C   ALA G   4      15.716  38.057  41.720  1.00 71.43 LIG 0.24  C 
ATOM     40  N   ALA G   5      14.638  38.626  42.263  1.00 71.85 LIG-0.35  N 
ATOM     41 H    ALA G   5      13.883  38.697  41.856  1.00 71.85 LIG 0.16  HD
ATOM     42 O    ALA G   4      16.818  38.032  42.277  1.00 72.80 LIG-0.27  OA
BRANCH 40 43
ATOM     43  CA  ALA G   5      14.640  39.189  43.618  1.00 72.89 LIG 0.17  C 
ATOM     44  CB  ALA G   5      15.654  40.321  43.722  1.00 72.65 LIG 0.04  C 
BRANCH 43 45
ATOM     45  C   ALA G   5      13.251  39.678  44.041  1.00 72.87 LIG 0.24  C 
ATOM     46  N   THR G   6      13.045  39.852  45.349  1.00 71.86 LIG-0.34  N 
ATOM     47 H    THR G   6      13.639  39.692  45.950  1.00 71.86 LIG 0.16  HD
ATOM     48 O    ALA G   5      12.385  39.893  43.189  1.00 74.40 LIG-0.27  OA
BRANCH 46 49
ATOM     49  CA  THR G   6      11.763  40.342  45.884  1.00 72.17 LIG 0.20  C 
BRANCH 49 50
ATOM     50  CB  THR G   6      11.791  40.506  47.422  1.00 71.29 LIG 0.15  C 
ATOM     51  CG2 THR G   6      11.882  39.147  48.112  1.00 70.64 LIG 0.04  C 
BRANCH 50 52
ATOM     52 OG1  THR G   6      12.907  41.316  47.808  1.00 70.47 LIG-0.39  OA
ATOM     53 HG1  THR G   6      12.797  41.588  48.596  1.00 70.47 LIG 0.21  HD
ENDBRANCH 50 52
ENDBRANCH 49 50
BRANCH 49 54
ATOM     54  C   THR G   6      11.329  41.670  45.247  1.00 73.53 LIG 0.24  C 
ATOM     55  N   ALA G   7      10.065  42.054  45.452  1.00 73.25 LIG-0.35  N 
ATOM     56 H    ALA G   7       9.479  41.560  45.843  1.00 73.25 LIG 0.16  HD
ATOM     57 O    THR G   6      12.131  42.319  44.572  1.00 75.15 LIG-0.27  OA
BRANCH 55 58
ATOM     58  CA  ALA G   7       9.546  43.363  45.030  1.00 74.45 LIG 0.16  C 
ATOM     59  CB  ALA G   7       8.031  43.405  45.169  1.00 73.04 LIG 0.04  C 
BRANCH 58 60
ATOM     60  C   ALA G   7      10.181  44.486  45.850  1.00 76.13 LIG 0.22  C 
ATOM     61 O    ALA G   7      11.367  44.787  45.702  1.00 77.97 LIG-0.29  OA
ENDBRANCH 58 60
ENDBRANCH 55 58
ENDBRANCH 49 54
ENDBRANCH 46 49
ENDBRANCH 43 45
ENDBRANCH 40 43
ENDBRANCH 37 39
ENDBRANCH 34 37
ENDBRANCH 1 33
TORSDOF 22
ENDMDL
MODEL 23
USER: ADFR SOLUTION from run 69
USER: SCORE 16.829958 LL:  -2.699 LR: -16.627 RR:   0.000 FEB: -10.064
USER: RMSD 5.047040
USER: SEED 68
USER: STATUS no improvement in best in 17 clusters for 5 generations
USER: GENES 24
USER: genes 0 Translation |==|  0.46233 0.45611 0.25906
USER: genes 1 Rotation |==|  0.72854 0.44113 0.71520 0.88470
USER: genes 2 Torsion [CB]-CA--N-[C] |==|  0.76376
USER: genes 3 Torsion [N]-C--CA-[N] |==|  0.77072
USER: genes 4 Torsion [C]-CA--N-[C] |==|  0.72869
USER: genes 5 Torsion [N]-C--CA-[N] |==|  0.97893
USER: genes 6 Torsion [C]-CA--N-[H1] |==|  0.98606
USER: genes 7 Torsion [C]-CA--CB-[CG] |==|  0.41451
USER: genes 8 Torsion [CA]-CB--CG-[CD] |==|  0.35684
USER: genes 9 Torsion [CB]-CG--CD-[NE] |==|  0.86590
USER: genes 10 Torsion [CG]-CD--NE-[CZ] |==|  0.47789
USER: genes 11 Torsion [N]-CA--CB-[OG1] |==|  0.86406
USER: genes 12 Torsion [CA]-CB--OG1-[HG1] |==|  0.13256
USER: genes 13 Torsion [N]-CA--C-[N] |==|  0.16667
USER: genes 14 Torsion [C]-N--CA-[CB] |==|  0.12085
USER: genes 15 Torsion [N]-CA--C-[N] |==|  0.20429
USER: genes 16 Torsion [C]-N--CA-[CB] |==|  0.58500
USER: genes 17 Torsion [N]-CA--C-[N] |==|  0.80755
USER: genes 18 Torsion [C]-N--CA-[CB] |==|  0.85418
USER: genes 19 Torsion [N]-CA--CB-[CG2] |==|  0.51769
USER: genes 20 Torsion [CA]-CB--OG1-[HG1] |==|  0.40268
USER: genes 21 Torsion [N]-CA--C-[N] |==|  0.90990
USER: genes 22 Torsion [C]-N--CA-[C] |==|  0.61595
USER: genes 23 Torsion [N]-CA--C-[O] |==|  0.95112
ROOT
ATOM      1  CA  THR G   3      17.290  37.364  38.284  1.00 68.23 LIG 0.20  C 
ENDROOT
BRANCH 1 2
ATOM      2  N   THR G   3      18.391  38.145  38.840  1.00 68.42 LIG-0.34  N 
ATOM      3  C   ARG G   2      19.075  37.775  39.919  1.00 70.38 LIG 0.24  C 
ATOM      4 O    ARG G   2      18.780  36.798  40.617  1.00 69.46 LIG-0.27  OA
ATOM      5 H    THR G   3      18.555  38.868  38.404  1.00 68.42 LIG 0.16  HD
BRANCH 3 6
ATOM      6  CA  ARG G   2      20.262  38.661  40.283  1.00 72.62 LIG 0.18  C 
BRANCH 6 7
ATOM      7  N   ARG G   2      21.414  38.273  39.474  1.00 74.86 LIG-0.35  N 
ATOM      8  C   ALA G   1      22.361  37.459  39.936  1.00 76.29 LIG 0.25  C 
ATOM      9 O    ALA G   1      22.445  37.109  41.117  1.00 75.70 LIG-0.27  OA
ATOM     10 H    ARG G   2      21.422  38.614  38.685  1.00 74.86 LIG 0.16  HD
BRANCH 8 11
ATOM     11  CA  ALA G   1      23.376  36.971  38.913  1.00 78.97 LIG 0.27  C 
ATOM     12  CB  ALA G   1      24.758  37.515  39.256  1.00 79.33 LIG 0.05  C 
BRANCH 11 13
ATOM     13  N   ALA G   1      22.974  37.381  37.540  1.00 81.42 LIG-0.07  N 
ATOM     14 H3   ALA G   1      22.932  36.663  37.015  1.00 81.42 LIG 0.28  HD
ATOM     15 H2   ALA G   1      23.573  37.952  37.213  1.00 81.42 LIG 0.28  HD
ATOM     16 H1   ALA G   1      22.175  37.773  37.568  1.00 81.42 LIG 0.28  HD
ENDBRANCH 11 13
ENDBRANCH 8 11
ENDBRANCH 6 7
BRANCH 6 17
ATOM     17  CB  ARG G   2      19.922  40.140  40.075  1.00 73.45 LIG 0.04  C 
BRANCH 17 18
ATOM     18  CG  ARG G   2      20.655  41.062  41.036  1.00 75.79 LIG 0.02  C 
BRANCH 18 19
ATOM     19  CD  ARG G   2      21.372  42.195  40.318  1.00 77.52 LIG 0.14  C 
BRANCH 19 20
ATOM     20  NE  ARG G   2      22.160  41.695  39.188  1.00 80.25 LIG-0.23  N 
ATOM     21  CZ  ARG G   2      22.779  42.452  38.277  1.00 82.01 LIG 0.67  C 
ATOM     22  NH1 ARG G   2      22.726  43.785  38.320  1.00 81.47 LIG-0.23  N 
ATOM     23  NH2 ARG G   2      23.461  41.865  37.296  1.00 84.93 LIG-0.23  N 
ATOM     24 1HH1 ARG G   2      22.285  44.178  38.946  1.00 81.47 LIG 0.17  HD
ATOM     25 2HH1 ARG G   2      23.133  44.252  37.723  1.00 81.47 LIG 0.17  HD
ATOM     26 2HH2 ARG G   2      23.863  42.343  36.705  1.00 84.93 LIG 0.17  HD
ATOM     27 1HH2 ARG G   2      23.501  41.007  37.254  1.00 84.93 LIG 0.17  HD
ATOM     28 HE   ARG G   2      22.231  40.842  39.105  1.00 80.25 LIG 0.18  HD
ENDBRANCH 19 20
ENDBRANCH 18 19
ENDBRANCH 17 18
ENDBRANCH 6 17
ENDBRANCH 3 6
ENDBRANCH 1 2
BRANCH 1 29
ATOM     29  CB  THR G   3      17.794  36.260  37.324  1.00 68.23 LIG 0.15  C 
ATOM     30  CG2 THR G   3      16.634  35.624  36.579  1.00 68.63 LIG 0.04  C 
BRANCH 29 31
ATOM     31 OG1  THR G   3      18.722  36.811  36.381  1.00 67.51 LIG-0.39  OA
ATOM     32 HG1  THR G   3      19.287  37.282  36.787  1.00 67.51 LIG 0.21  HD
ENDBRANCH 29 31
ENDBRANCH 1 29
BRANCH 1 33
ATOM     33  C   THR G   3      16.477  36.724  39.404  1.00 68.02 LIG 0.24  C 
ATOM     34  N   ALA G   4      15.919  37.569  40.270  1.00 68.86 LIG-0.35  N 
ATOM     35 H    ALA G   4      16.039  38.420  40.245  1.00 68.86 LIG 0.16  HD
ATOM     36 O    THR G   3      16.362  35.499  39.481  1.00 67.54 LIG-0.27  OA
BRANCH 34 37
ATOM     37  CA  ALA G   4      15.040  37.124  41.355  1.00 69.75 LIG 0.17  C 
ATOM     38  CB  ALA G   4      15.624  35.891  42.026  1.00 70.86 LIG 0.04  C 
BRANCH 37 39
ATOM     39  C   ALA G   4      14.777  38.221  42.394  1.00 71.43 LIG 0.24  C 
ATOM     40  N   ALA G   5      13.957  39.209  42.030  1.00 71.85 LIG-0.35  N 
ATOM     41 H    ALA G   5      13.628  39.285  41.239  1.00 71.85 LIG 0.16  HD
ATOM     42 O    ALA G   4      15.311  38.162  43.506  1.00 72.80 LIG-0.27  OA
BRANCH 40 43
ATOM     43  CA  ALA G   5      13.539  40.268  42.954  1.00 72.89 LIG 0.17  C 
ATOM     44  CB  ALA G   5      12.143  40.765  42.599  1.00 72.65 LIG 0.04  C 
BRANCH 43 45
ATOM     45  C   ALA G   5      13.583  39.808  44.415  1.00 72.87 LIG 0.24  C 
ATOM     46  N   THR G   6      12.680  38.898  44.789  1.00 71.86 LIG-0.34  N 
ATOM     47 H    THR G   6      12.080  38.577  44.262  1.00 71.86 LIG 0.16  HD
ATOM     48 O    ALA G   5      14.426  40.275  45.185  1.00 74.40 LIG-0.27  OA
BRANCH 46 49
ATOM     49  CA  THR G   6      12.632  38.354  46.157  1.00 72.17 LIG 0.20  C 
BRANCH 49 50
ATOM     50  CB  THR G   6      14.002  37.805  46.621  1.00 71.29 LIG 0.15  C 
ATOM     51  CG2 THR G   6      13.879  37.111  47.975  1.00 70.64 LIG 0.04  C 
BRANCH 50 52
ATOM     52 OG1  THR G   6      14.513  36.881  45.653  1.00 70.47 LIG-0.39  OA
ATOM     53 HG1  THR G   6      15.349  36.949  45.614  1.00 70.47 LIG 0.21  HD
ENDBRANCH 50 52
ENDBRANCH 49 50
BRANCH 49 54
ATOM     54  C   THR G   6      12.132  39.383  47.182  1.00 73.53 LIG 0.24  C 
ATOM     55  N   ALA G   7      12.436  40.663  46.950  1.00 73.25 LIG-0.35  N 
ATOM     56 H    ALA G   7      12.957  40.917  46.314  1.00 73.25 LIG 0.16  HD
ATOM     57 O    THR G   6      11.495  39.007  48.168  1.00 75.15 LIG-0.27  OA
BRANCH 55 58
ATOM     58  CA  ALA G   7      11.908  41.772  47.759  1.00 74.45 LIG 0.16  C 
ATOM     59  CB  ALA G   7      12.940  42.221  48.784  1.00 73.04 LIG 0.04  C 
BRANCH 58 60
ATOM     60  C   ALA G   7      11.505  42.946  46.867  1.00 76.13 LIG 0.22  C 
ATOM     61 O    ALA G   7      11.918  43.036  45.710  1.00 77.97 LIG-0.29  OA
ENDBRANCH 58 60
ENDBRANCH 55 58
ENDBRANCH 49 54
ENDBRANCH 46 49
ENDBRANCH 43 45
ENDBRANCH 40 43
ENDBRANCH 37 39
ENDBRANCH 34 37
ENDBRANCH 1 33
TORSDOF 22
ENDMDL
MODEL 24
USER: ADFR SOLUTION from run 58
USER: SCORE 17.455751 LL:  -2.877 LR: -16.581 RR:   0.000 FEB: -10.019
USER: RMSD 5.031374
USER: SEED 57
USER: STATUS no improvement in best in 10 clusters for 5 generations
USER: GENES 24
USER: genes 0 Translation |==|  0.43223 0.41555 0.32974
USER: genes 1 Rotation |==|  0.74717 0.40179 0.63477 0.90137
USER: genes 2 Torsion [CB]-CA--N-[C] |==|  0.19597
USER: genes 3 Torsion [N]-C--CA-[N] |==|  0.38468
USER: genes 4 Torsion [C]-CA--N-[C] |==|  0.67451
USER: genes 5 Torsion [N]-C--CA-[N] |==|  0.01274
USER: genes 6 Torsion [C]-CA--N-[H1] |==|  0.37785
USER: genes 7 Torsion [C]-CA--CB-[CG] |==|  0.00884
USER: genes 8 Torsion [CA]-CB--CG-[CD] |==|  0.71388
USER: genes 9 Torsion [CB]-CG--CD-[NE] |==|  0.98081
USER: genes 10 Torsion [CG]-CD--NE-[CZ] |==|  0.61375
USER: genes 11 Torsion [N]-CA--CB-[OG1] |==|  0.06476
USER: genes 12 Torsion [CA]-CB--OG1-[HG1] |==|  0.51738
USER: genes 13 Torsion [N]-CA--C-[N] |==|  0.36865
USER: genes 14 Torsion [C]-N--CA-[CB] |==|  0.84798
USER: genes 15 Torsion [N]-CA--C-[N] |==|  0.48333
USER: genes 16 Torsion [C]-N--CA-[CB] |==|  0.86206
USER: genes 17 Torsion [N]-CA--C-[N] |==|  0.31669
USER: genes 18 Torsion [C]-N--CA-[CB] |==|  0.85457
USER: genes 19 Torsion [N]-CA--CB-[CG2] |==|  0.54147
USER: genes 20 Torsion [CA]-CB--OG1-[HG1] |==|  0.93994
USER: genes 21 Torsion [N]-CA--C-[N] |==|  0.36604
USER: genes 22 Torsion [C]-N--CA-[C] |==|  0.69170
USER: genes 23 Torsion [N]-CA--C-[O] |==|  0.30681
ROOT
ATOM      1  CA  THR G   3      16.613  36.634  39.715  1.00 68.23 LIG 0.20  C 
ENDROOT
BRANCH 1 2
ATOM      2  N   THR G   3      17.935  36.923  40.262  1.00 68.42 LIG-0.34  N 
ATOM      3  C   ARG G   2      18.874  37.584  39.589  1.00 70.38 LIG 0.24  C 
ATOM      4 O    ARG G   2      18.760  37.921  38.405  1.00 69.46 LIG-0.27  OA
ATOM      5 H    THR G   3      18.051  36.625  41.060  1.00 68.42 LIG 0.16  HD
BRANCH 3 6
ATOM      6  CA  ARG G   2      20.150  37.890  40.367  1.00 72.62 LIG 0.18  C 
BRANCH 6 7
ATOM      7  N   ARG G   2      21.304  37.662  39.501  1.00 74.86 LIG-0.35  N 
ATOM      8  C   ALA G   1      22.220  36.735  39.771  1.00 76.29 LIG 0.25  C 
ATOM      9 O    ALA G   1      22.275  36.121  40.841  1.00 75.70 LIG-0.27  OA
ATOM     10 H    ARG G   2      21.334  38.176  38.812  1.00 74.86 LIG 0.16  HD
BRANCH 8 11
ATOM     11  CA  ALA G   1      23.237  36.464  38.673  1.00 78.97 LIG 0.27  C 
ATOM     12  CB  ALA G   1      24.649  36.582  39.235  1.00 79.33 LIG 0.05  C 
BRANCH 11 13
ATOM     13  N   ALA G   1      23.042  37.405  37.535  1.00 81.42 LIG-0.07  N 
ATOM     14 H3   ALA G   1      22.534  38.088  37.797  1.00 81.42 LIG 0.28  HD
ATOM     15 H2   ALA G   1      22.643  36.980  36.863  1.00 81.42 LIG 0.28  HD
ATOM     16 H1   ALA G   1      23.833  37.711  37.264  1.00 81.42 LIG 0.28  HD
ENDBRANCH 11 13
ENDBRANCH 8 11
ENDBRANCH 6 7
BRANCH 6 17
ATOM     17  CB  ARG G   2      20.137  39.328  40.894  1.00 73.45 LIG 0.04  C 
BRANCH 17 18
ATOM     18  CG  ARG G   2      18.845  40.065  40.587  1.00 75.79 LIG 0.02  C 
BRANCH 18 19
ATOM     19  CD  ARG G   2      18.996  41.042  39.431  1.00 77.52 LIG 0.14  C 
BRANCH 19 20
ATOM     20  NE  ARG G   2      20.393  41.151  39.004  1.00 80.25 LIG-0.23  N 
ATOM     21  CZ  ARG G   2      21.017  42.283  38.663  1.00 82.01 LIG 0.67  C 
ATOM     22  NH1 ARG G   2      20.390  43.461  38.684  1.00 81.47 LIG-0.23  N 
ATOM     23  NH2 ARG G   2      22.293  42.237  38.289  1.00 84.93 LIG-0.23  N 
ATOM     24 1HH1 ARG G   2      19.564  43.505  38.920  1.00 81.47 LIG 0.17  HD
ATOM     25 2HH1 ARG G   2      20.812  44.177  38.461  1.00 81.47 LIG 0.17  HD
ATOM     26 2HH2 ARG G   2      22.703  42.960  38.069  1.00 84.93 LIG 0.17  HD
ATOM     27 1HH2 ARG G   2      22.708  41.484  38.268  1.00 84.93 LIG 0.17  HD
ATOM     28 HE   ARG G   2      20.851  40.423  38.969  1.00 80.25 LIG 0.18  HD
ENDBRANCH 19 20
ENDBRANCH 18 19
ENDBRANCH 17 18
ENDBRANCH 6 17
ENDBRANCH 3 6
ENDBRANCH 1 2
BRANCH 1 29
ATOM     29  CB  THR G   3      16.673  35.573  38.591  1.00 68.23 LIG 0.15  C 
ATOM     30  CG2 THR G   3      16.670  36.235  37.225  1.00 68.63 LIG 0.04  C 
BRANCH 29 31
ATOM     31 OG1  THR G   3      17.853  34.771  38.731  1.00 67.51 LIG-0.39  OA
ATOM     32 HG1  THR G   3      17.921  34.257  38.070  1.00 67.51 LIG 0.21  HD
ENDBRANCH 29 31
ENDBRANCH 1 29
BRANCH 1 33
ATOM     33  C   THR G   3      15.680  36.146  40.818  1.00 68.02 LIG 0.24  C 
ATOM     34  N   ALA G   4      14.476  36.716  40.852  1.00 68.86 LIG-0.35  N 
ATOM     35 H    ALA G   4      14.240  37.355  40.327  1.00 68.86 LIG 0.16  HD
ATOM     36 O    THR G   3      16.043  35.279  41.616  1.00 67.54 LIG-0.27  OA
BRANCH 34 37
ATOM     37  CA  ALA G   4      13.433  36.306  41.796  1.00 69.75 LIG 0.17  C 
ATOM     38  CB  ALA G   4      13.178  34.813  41.674  1.00 70.86 LIG 0.04  C 
BRANCH 37 39
ATOM     39  C   ALA G   4      13.766  36.672  43.247  1.00 71.43 LIG 0.24  C 
ATOM     40  N   ALA G   5      12.815  36.446  44.157  1.00 71.85 LIG-0.35  N 
ATOM     41 H    ALA G   5      12.026  36.168  43.959  1.00 71.85 LIG 0.16  HD
ATOM     42 O    ALA G   4      14.869  37.149  43.529  1.00 72.80 LIG-0.27  OA
BRANCH 40 43
ATOM     43  CA  ALA G   5      13.032  36.655  45.593  1.00 72.89 LIG 0.17  C 
ATOM     44  CB  ALA G   5      14.317  35.971  46.043  1.00 72.65 LIG 0.04  C 
BRANCH 43 45
ATOM     45  C   ALA G   5      13.064  38.142  45.960  1.00 72.87 LIG 0.24  C 
ATOM     46  N   THR G   6      12.074  38.594  46.735  1.00 71.86 LIG-0.34  N 
ATOM     47 H    THR G   6      11.428  38.102  47.017  1.00 71.86 LIG 0.16  HD
ATOM     48 O    ALA G   5      13.975  38.862  45.545  1.00 74.40 LIG-0.27  OA
BRANCH 46 49
ATOM     49  CA  THR G   6      12.002  39.996  47.180  1.00 72.17 LIG 0.20  C 
BRANCH 49 50
ATOM     50  CB  THR G   6      13.314  40.470  47.848  1.00 71.29 LIG 0.15  C 
ATOM     51  CG2 THR G   6      13.094  41.771  48.615  1.00 70.64 LIG 0.04  C 
BRANCH 50 52
ATOM     52 OG1  THR G   6      13.800  39.462  48.742  1.00 70.47 LIG-0.39  OA
ATOM     53 HG1  THR G   6      13.168  38.955  48.964  1.00 70.47 LIG 0.21  HD
ENDBRANCH 50 52
ENDBRANCH 49 50
BRANCH 49 54
ATOM     54  C   THR G   6      11.646  40.959  46.038  1.00 73.53 LIG 0.24  C 
ATOM     55  N   ALA G   7      10.676  41.847  46.276  1.00 73.25 LIG-0.35  N 
ATOM     56 H    ALA G   7      10.200  41.845  46.992  1.00 73.25 LIG 0.16  HD
ATOM     57 O    THR G   6      12.238  40.877  44.959  1.00 75.15 LIG-0.27  OA
BRANCH 55 58
ATOM     58  CA  ALA G   7      10.324  42.921  45.336  1.00 74.45 LIG 0.16  C 
ATOM     59  CB  ALA G   7       8.835  42.891  45.026  1.00 73.04 LIG 0.04  C 
BRANCH 58 60
ATOM     60  C   ALA G   7      10.716  44.285  45.904  1.00 76.13 LIG 0.22  C 
ATOM     61 O    ALA G   7      11.639  44.937  45.413  1.00 77.97 LIG-0.29  OA
ENDBRANCH 58 60
ENDBRANCH 55 58
ENDBRANCH 49 54
ENDBRANCH 46 49
ENDBRANCH 43 45
ENDBRANCH 40 43
ENDBRANCH 37 39
ENDBRANCH 34 37
ENDBRANCH 1 33
TORSDOF 22
ENDMDL
MODEL 25
USER: ADFR SOLUTION from run 151
USER: SCORE 17.547852 LL:  -4.326 LR: -16.560 RR:   0.000 FEB:  -9.997
USER: RMSD 6.115646
USER: SEED 150
USER: STATUS no improvement in best in 9 clusters for 5 generations
USER: GENES 24
USER: genes 0 Translation |==|  0.49897 0.42568 0.25463
USER: genes 1 Rotation |==|  0.62930 0.40775 0.49780 0.97410
USER: genes 2 Torsion [CB]-CA--N-[C] |==|  0.52508
USER: genes 3 Torsion [N]-C--CA-[N] |==|  0.38598
USER: genes 4 Torsion [C]-CA--N-[C] |==|  0.55234
USER: genes 5 Torsion [N]-C--CA-[N] |==|  0.85011
USER: genes 6 Torsion [C]-CA--N-[H1] |==|  0.62635
USER: genes 7 Torsion [C]-CA--CB-[CG] |==|  0.43183
USER: genes 8 Torsion [CA]-CB--CG-[CD] |==|  0.77430
USER: genes 9 Torsion [CB]-CG--CD-[NE] |==|  0.91842
USER: genes 10 Torsion [CG]-CD--NE-[CZ] |==|  0.29450
USER: genes 11 Torsion [N]-CA--CB-[OG1] |==|  0.95132
USER: genes 12 Torsion [CA]-CB--OG1-[HG1] |==|  0.48589
USER: genes 13 Torsion [N]-CA--C-[N] |==|  0.90693
USER: genes 14 Torsion [C]-N--CA-[CB] |==|  0.78257
USER: genes 15 Torsion [N]-CA--C-[N] |==|  0.18196
USER: genes 16 Torsion [C]-N--CA-[CB] |==|  0.51667
USER: genes 17 Torsion [N]-CA--C-[N] |==|  0.28336
USER: genes 18 Torsion [C]-N--CA-[CB] |==|  0.20820
USER: genes 19 Torsion [N]-CA--CB-[CG2] |==|  0.20968
USER: genes 20 Torsion [CA]-CB--OG1-[HG1] |==|  0.28419
USER: genes 21 Torsion [N]-CA--C-[N] |==|  0.47350
USER: genes 22 Torsion [C]-N--CA-[C] |==|  0.63334
USER: genes 23 Torsion [N]-CA--C-[O] |==|  0.30499
ROOT
ATOM      1  CA  THR G   3      18.115  36.816  38.194  1.00 68.23 LIG 0.20  C 
ENDROOT
BRANCH 1 2
ATOM      2  N   THR G   3      19.494  36.411  38.446  1.00 68.42 LIG-0.34  N 
ATOM      3  C   ARG G   2      20.382  37.191  39.058  1.00 70.38 LIG 0.24  C 
ATOM      4 O    ARG G   2      20.162  38.366  39.374  1.00 69.46 LIG-0.27  OA
ATOM      5 H    THR G   3      19.679  35.622  38.161  1.00 68.42 LIG 0.16  HD
BRANCH 3 6
ATOM      6  CA  ARG G   2      21.740  36.553  39.333  1.00 72.62 LIG 0.18  C 
BRANCH 6 7
ATOM      7  N   ARG G   2      22.792  37.527  39.056  1.00 74.86 LIG-0.35  N 
ATOM      8  C   ALA G   1      24.056  37.165  38.850  1.00 76.29 LIG 0.25  C 
ATOM      9 O    ALA G   1      24.480  36.022  39.046  1.00 75.70 LIG-0.27  OA
ATOM     10 H    ARG G   2      22.521  38.343  39.038  1.00 74.86 LIG 0.16  HD
BRANCH 8 11
ATOM     11  CA  ALA G   1      24.990  38.259  38.357  1.00 78.97 LIG 0.27  C 
ATOM     12  CB  ALA G   1      25.207  39.290  39.459  1.00 79.33 LIG 0.05  C 
BRANCH 11 13
ATOM     13  N   ALA G   1      24.441  38.904  37.133  1.00 81.42 LIG-0.07  N 
ATOM     14 H3   ALA G   1      24.119  39.708  37.339  1.00 81.42 LIG 0.28  HD
ATOM     15 H2   ALA G   1      23.787  38.400  36.799  1.00 81.42 LIG 0.28  HD
ATOM     16 H1   ALA G   1      25.087  38.990  36.527  1.00 81.42 LIG 0.28  HD
ENDBRANCH 11 13
ENDBRANCH 8 11
ENDBRANCH 6 7
BRANCH 6 17
ATOM     17  CB  ARG G   2      21.825  36.052  40.778  1.00 73.45 LIG 0.04  C 
BRANCH 17 18
ATOM     18  CG  ARG G   2      22.833  34.931  40.965  1.00 75.79 LIG 0.02  C 
BRANCH 18 19
ATOM     19  CD  ARG G   2      22.273  33.576  40.562  1.00 77.52 LIG 0.14  C 
BRANCH 19 20
ATOM     20  NE  ARG G   2      20.822  33.519  40.758  1.00 80.25 LIG-0.23  N 
ATOM     21  CZ  ARG G   2      19.903  33.556  39.788  1.00 82.01 LIG 0.67  C 
ATOM     22  NH1 ARG G   2      20.247  33.654  38.502  1.00 81.47 LIG-0.23  N 
ATOM     23  NH2 ARG G   2      18.613  33.500  40.109  1.00 84.93 LIG-0.23  N 
ATOM     24 1HH1 ARG G   2      21.077  33.696  38.281  1.00 81.47 LIG 0.17  HD
ATOM     25 2HH1 ARG G   2      19.638  33.676  37.894  1.00 81.47 LIG 0.17  HD
ATOM     26 2HH2 ARG G   2      18.014  33.522  39.492  1.00 84.93 LIG 0.17  HD
ATOM     27 1HH2 ARG G   2      18.377  33.440  40.934  1.00 84.93 LIG 0.17  HD
ATOM     28 HE   ARG G   2      20.537  33.456  41.568  1.00 80.25 LIG 0.18  HD
ENDBRANCH 19 20
ENDBRANCH 18 19
ENDBRANCH 17 18
ENDBRANCH 6 17
ENDBRANCH 3 6
ENDBRANCH 1 2
BRANCH 1 29
ATOM     29  CB  THR G   3      17.254  35.641  37.675  1.00 68.23 LIG 0.15  C 
ATOM     30  CG2 THR G   3      16.332  36.100  36.561  1.00 68.63 LIG 0.04  C 
BRANCH 29 31
ATOM     31 OG1  THR G   3      18.097  34.587  37.193  1.00 67.51 LIG-0.39  OA
ATOM     32 HG1  THR G   3      17.625  33.926  36.978  1.00 67.51 LIG 0.21  HD
ENDBRANCH 29 31
ENDBRANCH 1 29
BRANCH 1 33
ATOM     33  C   THR G   3      17.487  37.376  39.466  1.00 68.02 LIG 0.24  C 
ATOM     34  N   ALA G   4      17.896  36.821  40.606  1.00 68.86 LIG-0.35  N 
ATOM     35 H    ALA G   4      18.440  36.156  40.641  1.00 68.86 LIG 0.16  HD
ATOM     36 O    THR G   3      16.653  38.282  39.414  1.00 67.54 LIG-0.27  OA
BRANCH 34 37
ATOM     37  CA  ALA G   4      17.453  37.296  41.920  1.00 69.75 LIG 0.17  C 
ATOM     38  CB  ALA G   4      18.213  38.554  42.303  1.00 70.86 LIG 0.04  C 
BRANCH 37 39
ATOM     39  C   ALA G   4      15.941  37.547  41.984  1.00 71.43 LIG 0.24  C 
ATOM     40  N   ALA G   5      15.150  36.480  41.853  1.00 71.85 LIG-0.35  N 
ATOM     41 H    ALA G   5      15.442  35.690  41.681  1.00 71.85 LIG 0.16  HD
ATOM     42 O    ALA G   4      15.510  38.691  42.150  1.00 72.80 LIG-0.27  OA
BRANCH 40 43
ATOM     43  CA  ALA G   5      13.691  36.559  41.994  1.00 72.89 LIG 0.17  C 
ATOM     44  CB  ALA G   5      13.075  35.167  41.940  1.00 72.65 LIG 0.04  C 
BRANCH 43 45
ATOM     45  C   ALA G   5      13.274  37.276  43.282  1.00 72.87 LIG 0.24  C 
ATOM     46  N   THR G   6      12.872  38.544  43.163  1.00 71.86 LIG-0.34  N 
ATOM     47 H    THR G   6      12.851  38.970  42.417  1.00 71.86 LIG 0.16  HD
ATOM     48 O    ALA G   5      13.319  36.683  44.362  1.00 74.40 LIG-0.27  OA
BRANCH 46 49
ATOM     49  CA  THR G   6      12.422  39.337  44.321  1.00 72.17 LIG 0.20  C 
BRANCH 49 50
ATOM     50  CB  THR G   6      13.598  39.794  45.215  1.00 71.29 LIG 0.15  C 
ATOM     51  CG2 THR G   6      14.360  40.946  44.565  1.00 70.64 LIG 0.04  C 
BRANCH 50 52
ATOM     52 OG1  THR G   6      13.108  40.206  46.497  1.00 70.47 LIG-0.39  OA
ATOM     53 HG1  THR G   6      13.250  39.599  47.060  1.00 70.47 LIG 0.21  HD
ENDBRANCH 50 52
ENDBRANCH 49 50
BRANCH 49 54
ATOM     54  C   THR G   6      11.600  40.567  43.907  1.00 73.53 LIG 0.24  C 
ATOM     55  N   ALA G   7      10.983  41.238  44.884  1.00 73.25 LIG-0.35  N 
ATOM     56 H    ALA G   7      10.959  40.967  45.700  1.00 73.25 LIG 0.16  HD
ATOM     57 O    THR G   6      11.524  40.883  42.717  1.00 75.15 LIG-0.27  OA
BRANCH 55 58
ATOM     58  CA  ALA G   7      10.282  42.511  44.664  1.00 74.45 LIG 0.16  C 
ATOM     59  CB  ALA G   7       8.774  42.301  44.696  1.00 73.04 LIG 0.04  C 
BRANCH 58 60
ATOM     60  C   ALA G   7      10.692  43.542  45.715  1.00 76.13 LIG 0.22  C 
ATOM     61 O    ALA G   7      11.384  44.516  45.413  1.00 77.97 LIG-0.29  OA
ENDBRANCH 58 60
ENDBRANCH 55 58
ENDBRANCH 49 54
ENDBRANCH 46 49
ENDBRANCH 43 45
ENDBRANCH 40 43
ENDBRANCH 37 39
ENDBRANCH 34 37
ENDBRANCH 1 33
TORSDOF 22
ENDMDL
MODEL 26
USER: ADFR SOLUTION from run 190
USER: SCORE 16.717926 LL:  -3.153 LR: -16.514 RR:   0.000 FEB:  -9.951
USER: RMSD 6.366986
USER: SEED 189
USER: STATUS no improvement in best in 7 clusters for 5 generations
USER: GENES 24
USER: genes 0 Translation |==|  0.49863 0.45305 0.26878
USER: genes 1 Rotation |==|  0.73486 0.39810 0.65168 0.90181
USER: genes 2 Torsion [CB]-CA--N-[C] |==|  0.56390
USER: genes 3 Torsion [N]-C--CA-[N] |==|  0.01033
USER: genes 4 Torsion [C]-CA--N-[C] |==|  0.68395
USER: genes 5 Torsion [N]-C--CA-[N] |==|  0.00131
USER: genes 6 Torsion [C]-CA--N-[H1] |==|  0.66867
USER: genes 7 Torsion [C]-CA--CB-[CG] |==|  0.96717
USER: genes 8 Torsion [CA]-CB--CG-[CD] |==|  0.64600
USER: genes 9 Torsion [CB]-CG--CD-[NE] |==|  0.11027
USER: genes 10 Torsion [CG]-CD--NE-[CZ] |==|  0.51212
USER: genes 11 Torsion [N]-CA--CB-[OG1] |==|  0.84083
USER: genes 12 Torsion [CA]-CB--OG1-[HG1] |==|  0.04565
USER: genes 13 Torsion [N]-CA--C-[N] |==|  0.27828
USER: genes 14 Torsion [C]-N--CA-[CB] |==|  0.87138
USER: genes 15 Torsion [N]-CA--C-[N] |==|  0.88354
USER: genes 16 Torsion [C]-N--CA-[CB] |==|  0.81375
USER: genes 17 Torsion [N]-CA--C-[N] |==|  0.03842
USER: genes 18 Torsion [C]-N--CA-[CB] |==|  0.32155
USER: genes 19 Torsion [N]-CA--CB-[CG2] |==|  0.75645
USER: genes 20 Torsion [CA]-CB--OG1-[HG1] |==|  0.50547
USER: genes 21 Torsion [N]-CA--C-[N] |==|  0.62352
USER: genes 22 Torsion [C]-N--CA-[C] |==|  0.80606
USER: genes 23 Torsion [N]-CA--C-[O] |==|  0.55301
ROOT
ATOM      1  CA  THR G   3      18.107  37.309  38.481  1.00 68.23 LIG 0.20  C 
ENDROOT
BRANCH 1 2
ATOM      2  N   THR G   3      19.384  37.674  39.087  1.00 68.42 LIG-0.34  N 
ATOM      3  C   ARG G   2      19.485  38.244  40.285  1.00 70.38 LIG 0.24  C 
ATOM      4 O    ARG G   2      18.512  38.618  40.952  1.00 69.46 LIG-0.27  OA
ATOM      5 H    THR G   3      20.064  37.487  38.597  1.00 68.42 LIG 0.16  HD
BRANCH 3 6
ATOM      6  CA  ARG G   2      20.906  38.448  40.800  1.00 72.62 LIG 0.18  C 
BRANCH 6 7
ATOM      7  N   ARG G   2      21.852  38.027  39.771  1.00 74.86 LIG-0.35  N 
ATOM      8  C   ALA G   1      22.654  36.976  39.933  1.00 76.29 LIG 0.25  C 
ATOM      9 O    ALA G   1      22.796  36.385  41.008  1.00 75.70 LIG-0.27  OA
ATOM     10 H    ARG G   2      21.842  38.514  39.063  1.00 74.86 LIG 0.16  HD
BRANCH 8 11
ATOM     11  CA  ALA G   1      23.422  36.528  38.700  1.00 78.97 LIG 0.27  C 
ATOM     12  CB  ALA G   1      24.918  36.539  38.989  1.00 79.33 LIG 0.05  C 
BRANCH 11 13
ATOM     13  N   ALA G   1      23.104  37.404  37.538  1.00 81.42 LIG-0.07  N 
ATOM     14 H3   ALA G   1      23.851  37.786  37.240  1.00 81.42 LIG 0.28  HD
ATOM     15 H2   ALA G   1      22.528  38.034  37.790  1.00 81.42 LIG 0.28  HD
ATOM     16 H1   ALA G   1      22.742  36.916  36.888  1.00 81.42 LIG 0.28  HD
ENDBRANCH 11 13
ENDBRANCH 8 11
ENDBRANCH 6 7
BRANCH 6 17
ATOM     17  CB  ARG G   2      21.140  39.910  41.193  1.00 73.45 LIG 0.04  C 
BRANCH 17 18
ATOM     18  CG  ARG G   2      20.036  40.840  40.720  1.00 75.79 LIG 0.02  C 
BRANCH 18 19
ATOM     19  CD  ARG G   2      20.575  42.027  39.936  1.00 77.52 LIG 0.14  C 
BRANCH 19 20
ATOM     20  NE  ARG G   2      21.673  41.628  39.053  1.00 80.25 LIG-0.23  N 
ATOM     21  CZ  ARG G   2      22.406  42.454  38.300  1.00 82.01 LIG 0.67  C 
ATOM     22  NH1 ARG G   2      22.185  43.771  38.288  1.00 81.47 LIG-0.23  N 
ATOM     23  NH2 ARG G   2      23.375  41.955  37.538  1.00 84.93 LIG-0.23  N 
ATOM     24 1HH1 ARG G   2      21.559  44.106  38.773  1.00 81.47 LIG 0.17  HD
ATOM     25 2HH1 ARG G   2      22.670  44.284  37.796  1.00 81.47 LIG 0.17  HD
ATOM     26 2HH2 ARG G   2      23.852  42.479  37.050  1.00 84.93 LIG 0.17  HD
ATOM     27 1HH2 ARG G   2      23.526  41.108  37.533  1.00 84.93 LIG 0.17  HD
ATOM     28 HE   ARG G   2      21.863  40.790  39.016  1.00 80.25 LIG 0.18  HD
ENDBRANCH 19 20
ENDBRANCH 18 19
ENDBRANCH 17 18
ENDBRANCH 6 17
ENDBRANCH 3 6
ENDBRANCH 1 2
BRANCH 1 29
ATOM     29  CB  THR G   3      18.271  36.198  37.417  1.00 68.23 LIG 0.15  C 
ATOM     30  CG2 THR G   3      16.935  35.863  36.779  1.00 68.63 LIG 0.04  C 
BRANCH 29 31
ATOM     31 OG1  THR G   3      19.193  36.617  36.403  1.00 67.51 LIG-0.39  OA
ATOM     32 HG1  THR G   3      19.636  37.274  36.682  1.00 67.51 LIG 0.21  HD
ENDBRANCH 29 31
ENDBRANCH 1 29
BRANCH 1 33
ATOM     33  C   THR G   3      17.128  36.840  39.551  1.00 68.02 LIG 0.24  C 
ATOM     34  N   ALA G   4      16.227  37.738  39.945  1.00 68.86 LIG-0.35  N 
ATOM     35 H    ALA G   4      16.213  38.550  39.663  1.00 68.86 LIG 0.16  HD
ATOM     36 O    THR G   3      17.191  35.697  40.009  1.00 67.54 LIG-0.27  OA
BRANCH 34 37
ATOM     37  CA  ALA G   4      15.164  37.424  40.905  1.00 69.75 LIG 0.17  C 
ATOM     38  CB  ALA G   4      14.502  36.107  40.538  1.00 70.86 LIG 0.04  C 
BRANCH 37 39
ATOM     39  C   ALA G   4      15.666  37.382  42.354  1.00 71.43 LIG 0.24  C 
ATOM     40  N   ALA G   5      16.840  36.785  42.566  1.00 71.85 LIG-0.35  N 
ATOM     41 H    ALA G   5      17.285  36.382  41.950  1.00 71.85 LIG 0.16  HD
ATOM     42 O    ALA G   4      14.993  37.888  43.257  1.00 72.80 LIG-0.27  OA
BRANCH 40 43
ATOM     43  CA  ALA G   5      17.486  36.759  43.883  1.00 72.89 LIG 0.17  C 
ATOM     44  CB  ALA G   5      17.918  38.161  44.292  1.00 72.65 LIG 0.04  C 
BRANCH 43 45
ATOM     45  C   ALA G   5      16.580  36.148  44.957  1.00 72.87 LIG 0.24  C 
ATOM     46  N   THR G   6      15.503  35.483  44.530  1.00 71.86 LIG-0.34  N 
ATOM     47 H    THR G   6      15.293  35.398  43.701  1.00 71.86 LIG 0.16  HD
ATOM     48 O    ALA G   5      16.860  36.280  46.150  1.00 74.40 LIG-0.27  OA
BRANCH 46 49
ATOM     49  CA  THR G   6      14.566  34.827  45.459  1.00 72.17 LIG 0.20  C 
BRANCH 49 50
ATOM     50  CB  THR G   6      13.154  35.457  45.413  1.00 71.29 LIG 0.15  C 
ATOM     51  CG2 THR G   6      13.051  36.632  46.383  1.00 70.64 LIG 0.04  C 
BRANCH 50 52
ATOM     52 OG1  THR G   6      12.860  35.905  44.085  1.00 70.47 LIG-0.39  OA
ATOM     53 HG1  THR G   6      12.103  36.270  44.073  1.00 70.47 LIG 0.21  HD
ENDBRANCH 50 52
ENDBRANCH 49 50
BRANCH 49 54
ATOM     54  C   THR G   6      14.448  33.317  45.207  1.00 73.53 LIG 0.24  C 
ATOM     55  N   ALA G   7      13.217  32.797  45.211  1.00 73.25 LIG-0.35  N 
ATOM     56 H    ALA G   7      12.516  33.247  45.428  1.00 73.25 LIG 0.16  HD
ATOM     57 O    THR G   6      15.466  32.644  45.027  1.00 75.15 LIG-0.27  OA
BRANCH 55 58
ATOM     58  CA  ALA G   7      12.934  31.402  44.845  1.00 74.45 LIG 0.16  C 
ATOM     59  CB  ALA G   7      11.509  31.029  45.229  1.00 73.04 LIG 0.04  C 
BRANCH 58 60
ATOM     60  C   ALA G   7      13.151  31.182  43.348  1.00 76.13 LIG 0.22  C 
ATOM     61 O    ALA G   7      12.653  30.215  42.769  1.00 77.97 LIG-0.29  OA
ENDBRANCH 58 60
ENDBRANCH 55 58
ENDBRANCH 49 54
ENDBRANCH 46 49
ENDBRANCH 43 45
ENDBRANCH 40 43
ENDBRANCH 37 39
ENDBRANCH 34 37
ENDBRANCH 1 33
TORSDOF 22
ENDMDL
MODEL 27
USER: ADFR SOLUTION from run 29
USER: SCORE 16.440398 LL:  -3.080 LR: -16.474 RR:   0.000 FEB:  -9.912
USER: RMSD 5.864549
USER: SEED 28
USER: STATUS no improvement in best in 22 clusters for 5 generations
USER: GENES 24
USER: genes 0 Translation |==|  0.52797 0.47718 0.24424
USER: genes 1 Rotation |==|  0.79845 0.37708 0.51188 0.88168
USER: genes 2 Torsion [CB]-CA--N-[C] |==|  0.52281
USER: genes 3 Torsion [N]-C--CA-[N] |==|  0.25339
USER: genes 4 Torsion [C]-CA--N-[C] |==|  0.57894
USER: genes 5 Torsion [N]-C--CA-[N] |==|  0.79594
USER: genes 6 Torsion [C]-CA--N-[H1] |==|  0.99404
USER: genes 7 Torsion [C]-CA--CB-[CG] |==|  0.36101
USER: genes 8 Torsion [CA]-CB--CG-[CD] |==|  0.80404
USER: genes 9 Torsion [CB]-CG--CD-[NE] |==|  0.14457
USER: genes 10 Torsion [CG]-CD--NE-[CZ] |==|  0.57367
USER: genes 11 Torsion [N]-CA--CB-[OG1] |==|  0.68587
USER: genes 12 Torsion [CA]-CB--OG1-[HG1] |==|  0.22395
USER: genes 13 Torsion [N]-CA--C-[N] |==|  0.45723
USER: genes 14 Torsion [C]-N--CA-[CB] |==|  0.91111
USER: genes 15 Torsion [N]-CA--C-[N] |==|  0.37761
USER: genes 16 Torsion [C]-N--CA-[CB] |==|  0.40147
USER: genes 17 Torsion [N]-CA--C-[N] |==|  0.83629
USER: genes 18 Torsion [C]-N--CA-[CB] |==|  0.86069
USER: genes 19 Torsion [N]-CA--CB-[CG2] |==|  0.34378
USER: genes 20 Torsion [CA]-CB--OG1-[HG1] |==|  0.81021
USER: genes 21 Torsion [N]-CA--C-[N] |==|  0.88735
USER: genes 22 Torsion [C]-N--CA-[C] |==|  0.64710
USER: genes 23 Torsion [N]-CA--C-[O] |==|  0.08975
ROOT
ATOM      1  CA  THR G   3      18.767  37.743  37.984  1.00 68.23 LIG 0.20  C 
ENDROOT
BRANCH 1 2
ATOM      2  N   THR G   3      20.154  37.360  38.228  1.00 68.42 LIG-0.34  N 
ATOM      3  C   ARG G   2      20.776  37.575  39.385  1.00 70.38 LIG 0.24  C 
ATOM      4 O    ARG G   2      20.282  38.212  40.322  1.00 69.46 LIG-0.27  OA
ATOM      5 H    THR G   3      20.532  36.983  37.554  1.00 68.42 LIG 0.16  HD
BRANCH 3 6
ATOM      6  CA  ARG G   2      22.186  37.003  39.490  1.00 72.62 LIG 0.18  C 
BRANCH 6 7
ATOM      7  N   ARG G   2      23.146  38.013  39.055  1.00 74.86 LIG-0.35  N 
ATOM      8  C   ALA G   1      24.319  37.691  38.516  1.00 76.29 LIG 0.25  C 
ATOM      9 O    ALA G   1      24.770  36.541  38.498  1.00 75.70 LIG-0.27  OA
ATOM     10 H    ARG G   2      22.885  38.824  39.179  1.00 74.86 LIG 0.16  HD
BRANCH 8 11
ATOM     11  CA  ALA G   1      25.114  38.838  37.912  1.00 78.97 LIG 0.27  C 
ATOM     12  CB  ALA G   1      25.186  39.995  38.902  1.00 79.33 LIG 0.05  C 
BRANCH 11 13
ATOM     13  N   ALA G   1      24.501  39.281  36.629  1.00 81.42 LIG-0.07  N 
ATOM     14 H3   ALA G   1      25.101  39.214  35.974  1.00 81.42 LIG 0.28  HD
ATOM     15 H2   ALA G   1      24.236  40.127  36.703  1.00 81.42 LIG 0.28  HD
ATOM     16 H1   ALA G   1      23.799  38.766  36.442  1.00 81.42 LIG 0.28  HD
ENDBRANCH 11 13
ENDBRANCH 8 11
ENDBRANCH 6 7
BRANCH 6 17
ATOM     17  CB  ARG G   2      22.485  36.546  40.922  1.00 73.45 LIG 0.04  C 
BRANCH 17 18
ATOM     18  CG  ARG G   2      23.044  35.136  40.995  1.00 75.79 LIG 0.02  C 
BRANCH 18 19
ATOM     19  CD  ARG G   2      22.002  34.081  40.659  1.00 77.52 LIG 0.14  C 
BRANCH 19 20
ATOM     20  NE  ARG G   2      21.342  34.370  39.383  1.00 80.25 LIG-0.23  N 
ATOM     21  CZ  ARG G   2      20.110  33.984  39.038  1.00 82.01 LIG 0.67  C 
ATOM     22  NH1 ARG G   2      19.344  33.269  39.865  1.00 81.47 LIG-0.23  N 
ATOM     23  NH2 ARG G   2      19.634  34.314  37.840  1.00 84.93 LIG-0.23  N 
ATOM     24 1HH1 ARG G   2      19.641  33.045  40.640  1.00 81.47 LIG 0.17  HD
ATOM     25 2HH1 ARG G   2      18.554  33.031  39.622  1.00 81.47 LIG 0.17  HD
ATOM     26 2HH2 ARG G   2      18.842  34.071  37.609  1.00 84.93 LIG 0.17  HD
ATOM     27 1HH2 ARG G   2      20.118  34.772  37.296  1.00 84.93 LIG 0.17  HD
ATOM     28 HE   ARG G   2      21.787  34.829  38.806  1.00 80.25 LIG 0.18  HD
ENDBRANCH 19 20
ENDBRANCH 18 19
ENDBRANCH 17 18
ENDBRANCH 6 17
ENDBRANCH 3 6
ENDBRANCH 1 2
BRANCH 1 29
ATOM     29  CB  THR G   3      18.246  37.194  36.635  1.00 68.23 LIG 0.15  C 
ATOM     30  CG2 THR G   3      16.972  36.395  36.835  1.00 68.63 LIG 0.04  C 
BRANCH 29 31
ATOM     31 OG1  THR G   3      17.995  38.274  35.726  1.00 67.51 LIG-0.39  OA
ATOM     32 HG1  THR G   3      18.718  38.518  35.376  1.00 67.51 LIG 0.21  HD
ENDBRANCH 29 31
ENDBRANCH 1 29
BRANCH 1 33
ATOM     33  C   THR G   3      17.873  37.240  39.111  1.00 68.02 LIG 0.24  C 
ATOM     34  N   ALA G   4      16.659  37.785  39.175  1.00 68.86 LIG-0.35  N 
ATOM     35 H    ALA G   4      16.396  38.418  38.655  1.00 68.86 LIG 0.16  HD
ATOM     36 O    THR G   3      18.274  36.383  39.902  1.00 67.54 LIG-0.27  OA
BRANCH 34 37
ATOM     37  CA  ALA G   4      15.649  37.356  40.146  1.00 69.75 LIG 0.17  C 
ATOM     38  CB  ALA G   4      15.808  35.874  40.444  1.00 70.86 LIG 0.04  C 
BRANCH 37 39
ATOM     39  C   ALA G   4      15.692  38.168  41.447  1.00 71.43 LIG 0.24  C 
ATOM     40  N   ALA G   5      14.519  38.565  41.946  1.00 71.85 LIG-0.35  N 
ATOM     41 H    ALA G   5      13.768  38.440  41.548  1.00 71.85 LIG 0.16  HD
ATOM     42 O    ALA G   4      16.774  38.422  41.983  1.00 72.80 LIG-0.27  OA
BRANCH 40 43
ATOM     43  CA  ALA G   5      14.405  39.261  43.233  1.00 72.89 LIG 0.17  C 
ATOM     44  CB  ALA G   5      13.293  40.301  43.179  1.00 72.65 LIG 0.04  C 
BRANCH 43 45
ATOM     45  C   ALA G   5      14.169  38.289  44.394  1.00 72.87 LIG 0.24  C 
ATOM     46  N   THR G   6      13.081  37.517  44.322  1.00 71.86 LIG-0.34  N 
ATOM     47 H    THR G   6      12.514  37.551  43.677  1.00 71.86 LIG 0.16  HD
ATOM     48 O    ALA G   5      14.964  38.245  45.334  1.00 74.40 LIG-0.27  OA
BRANCH 46 49
ATOM     49  CA  THR G   6      12.753  36.524  45.360  1.00 72.17 LIG 0.20  C 
BRANCH 49 50
ATOM     50  CB  THR G   6      13.950  35.603  45.693  1.00 71.29 LIG 0.15  C 
ATOM     51  CG2 THR G   6      14.279  35.657  47.183  1.00 70.64 LIG 0.04  C 
BRANCH 50 52
ATOM     52 OG1  THR G   6      13.651  34.254  45.316  1.00 70.47 LIG-0.39  OA
ATOM     53 HG1  THR G   6      13.048  33.950  45.815  1.00 70.47 LIG 0.21  HD
ENDBRANCH 50 52
ENDBRANCH 49 50
BRANCH 49 54
ATOM     54  C   THR G   6      12.244  37.172  46.655  1.00 73.53 LIG 0.24  C 
ATOM     55  N   ALA G   7      12.864  38.286  47.058  1.00 73.25 LIG-0.35  N 
ATOM     56 H    ALA G   7      13.571  38.596  46.678  1.00 73.25 LIG 0.16  HD
ATOM     57 O    THR G   6      11.314  36.654  47.277  1.00 75.15 LIG-0.27  OA
BRANCH 55 58
ATOM     58  CA  ALA G   7      12.401  39.096  48.194  1.00 74.45 LIG 0.16  C 
ATOM     59  CB  ALA G   7      13.376  38.987  49.358  1.00 73.04 LIG 0.04  C 
BRANCH 58 60
ATOM     60  C   ALA G   7      12.235  40.558  47.782  1.00 76.13 LIG 0.22  C 
ATOM     61 O    ALA G   7      11.894  40.861  46.637  1.00 77.97 LIG-0.29  OA
ENDBRANCH 58 60
ENDBRANCH 55 58
ENDBRANCH 49 54
ENDBRANCH 46 49
ENDBRANCH 43 45
ENDBRANCH 40 43
ENDBRANCH 37 39
ENDBRANCH 34 37
ENDBRANCH 1 33
TORSDOF 22
ENDMDL
MODEL 28
USER: ADFR SOLUTION from run 192
USER: SCORE 18.342713 LL:  -3.726 LR: -16.437 RR:   0.000 FEB:  -9.874
USER: RMSD 9.084359
USER: SEED 191
USER: STATUS no improvement in best in 13 clusters for 5 generations
USER: GENES 24
USER: genes 0 Translation |==|  0.51710 0.41276 0.22865
USER: genes 1 Rotation |==|  0.56342 0.34845 0.44586 0.96913
USER: genes 2 Torsion [CB]-CA--N-[C] |==|  0.79689
USER: genes 3 Torsion [N]-C--CA-[N] |==|  0.07222
USER: genes 4 Torsion [C]-CA--N-[C] |==|  0.16155
USER: genes 5 Torsion [N]-C--CA-[N] |==|  0.34094
USER: genes 6 Torsion [C]-CA--N-[H1] |==|  0.86110
USER: genes 7 Torsion [C]-CA--CB-[CG] |==|  0.59826
USER: genes 8 Torsion [CA]-CB--CG-[CD] |==|  0.71953
USER: genes 9 Torsion [CB]-CG--CD-[NE] |==|  0.24806
USER: genes 10 Torsion [CG]-CD--NE-[CZ] |==|  0.59357
USER: genes 11 Torsion [N]-CA--CB-[OG1] |==|  0.15221
USER: genes 12 Torsion [CA]-CB--OG1-[HG1] |==|  0.73060
USER: genes 13 Torsion [N]-CA--C-[N] |==|  0.16511
USER: genes 14 Torsion [C]-N--CA-[CB] |==|  0.19436
USER: genes 15 Torsion [N]-CA--C-[N] |==|  0.19904
USER: genes 16 Torsion [C]-N--CA-[CB] |==|  0.79700
USER: genes 17 Torsion [N]-CA--C-[N] |==|  0.23288
USER: genes 18 Torsion [C]-N--CA-[CB] |==|  0.17690
USER: genes 19 Torsion [N]-CA--CB-[CG2] |==|  0.71112
USER: genes 20 Torsion [CA]-CB--OG1-[HG1] |==|  0.09782
USER: genes 21 Torsion [N]-CA--C-[N] |==|  0.08374
USER: genes 22 Torsion [C]-N--CA-[C] |==|  0.79520
USER: genes 23 Torsion [N]-CA--C-[O] |==|  0.97511
ROOT
ATOM      1  CA  THR G   3      18.523  36.584  37.668  1.00 68.23 LIG 0.20  C 
ENDROOT
BRANCH 1 2
ATOM      2  N   THR G   3      19.653  35.875  38.260  1.00 68.42 LIG-0.34  N 
ATOM      3  C   ARG G   2      19.606  35.305  39.462  1.00 70.38 LIG 0.24  C 
ATOM      4 O    ARG G   2      18.648  35.411  40.236  1.00 69.46 LIG-0.27  OA
ATOM      5 H    THR G   3      20.351  35.860  37.760  1.00 68.42 LIG 0.16  HD
BRANCH 3 6
ATOM      6  CA  ARG G   2      20.846  34.512  39.863  1.00 72.62 LIG 0.18  C 
BRANCH 6 7
ATOM      7  N   ARG G   2      22.005  35.042  39.150  1.00 74.86 LIG-0.35  N 
ATOM      8  C   ALA G   1      22.379  36.315  39.253  1.00 76.29 LIG 0.25  C 
ATOM      9 O    ALA G   1      21.698  37.185  39.805  1.00 75.70 LIG-0.27  OA
ATOM     10 H    ARG G   2      22.415  34.463  38.664  1.00 74.86 LIG 0.16  HD
BRANCH 8 11
ATOM     11  CA  ALA G   1      23.722  36.667  38.633  1.00 78.97 LIG 0.27  C 
ATOM     12  CB  ALA G   1      24.700  37.092  39.723  1.00 79.33 LIG 0.05  C 
BRANCH 11 13
ATOM     13  N   ALA G   1      23.564  37.745  37.618  1.00 81.42 LIG-0.07  N 
ATOM     14 H3   ALA G   1      24.324  37.840  37.164  1.00 81.42 LIG 0.28  HD
ATOM     15 H2   ALA G   1      23.365  38.511  38.027  1.00 81.42 LIG 0.28  HD
ATOM     16 H1   ALA G   1      22.908  37.530  37.057  1.00 81.42 LIG 0.28  HD
ENDBRANCH 11 13
ENDBRANCH 8 11
ENDBRANCH 6 7
BRANCH 6 17
ATOM     17  CB  ARG G   2      21.064  34.570  41.379  1.00 73.45 LIG 0.04  C 
BRANCH 17 18
ATOM     18  CG  ARG G   2      22.531  34.607  41.770  1.00 75.79 LIG 0.02  C 
BRANCH 18 19
ATOM     19  CD  ARG G   2      23.043  33.249  42.228  1.00 77.52 LIG 0.14  C 
BRANCH 19 20
ATOM     20  NE  ARG G   2      23.557  32.466  41.101  1.00 80.25 LIG-0.23  N 
ATOM     21  CZ  ARG G   2      23.485  31.137  40.980  1.00 82.01 LIG 0.67  C 
ATOM     22  NH1 ARG G   2      22.913  30.378  41.919  1.00 81.47 LIG-0.23  N 
ATOM     23  NH2 ARG G   2      23.999  30.551  39.901  1.00 84.93 LIG-0.23  N 
ATOM     24 1HH1 ARG G   2      22.581  30.743  42.623  1.00 81.47 LIG 0.17  HD
ATOM     25 2HH1 ARG G   2      22.878  29.525  41.819  1.00 81.47 LIG 0.17  HD
ATOM     26 2HH2 ARG G   2      23.957  29.697  39.814  1.00 84.93 LIG 0.17  HD
ATOM     27 1HH2 ARG G   2      24.373  31.028  39.291  1.00 84.93 LIG 0.17  HD
ATOM     28 HE   ARG G   2      23.938  32.899  40.463  1.00 80.25 LIG 0.18  HD
ENDBRANCH 19 20
ENDBRANCH 18 19
ENDBRANCH 17 18
ENDBRANCH 6 17
ENDBRANCH 3 6
ENDBRANCH 1 2
BRANCH 1 29
ATOM     29  CB  THR G   3      17.413  35.613  37.201  1.00 68.23 LIG 0.15  C 
ATOM     30  CG2 THR G   3      17.898  34.755  36.047  1.00 68.63 LIG 0.04  C 
BRANCH 29 31
ATOM     31 OG1  THR G   3      17.006  34.769  38.286  1.00 67.51 LIG-0.39  OA
ATOM     32 HG1  THR G   3      17.410  34.034  38.236  1.00 67.51 LIG 0.21  HD
ENDBRANCH 29 31
ENDBRANCH 1 29
BRANCH 1 33
ATOM     33  C   THR G   3      17.936  37.574  38.668  1.00 68.02 LIG 0.24  C 
ATOM     34  N   ALA G   4      18.771  38.512  39.112  1.00 68.86 LIG-0.35  N 
ATOM     35 H    ALA G   4      19.604  38.544  38.899  1.00 68.86 LIG 0.16  HD
ATOM     36 O    THR G   3      16.761  37.487  39.029  1.00 67.54 LIG-0.27  OA
BRANCH 34 37
ATOM     37  CA  ALA G   4      18.347  39.587  40.013  1.00 69.75 LIG 0.17  C 
ATOM     38  CB  ALA G   4      18.041  39.024  41.390  1.00 70.86 LIG 0.04  C 
BRANCH 37 39
ATOM     39  C   ALA G   4      19.379  40.717  40.117  1.00 71.43 LIG 0.24  C 
ATOM     40  N   ALA G   5      19.513  41.509  39.051  1.00 71.85 LIG-0.35  N 
ATOM     41 H    ALA G   5      19.099  41.379  38.308  1.00 71.85 LIG 0.16  HD
ATOM     42 O    ALA G   4      20.037  40.862  41.152  1.00 72.80 LIG-0.27  OA
BRANCH 40 43
ATOM     43  CA  ALA G   5      20.388  42.687  39.048  1.00 72.89 LIG 0.17  C 
ATOM     44  CB  ALA G   5      19.778  43.806  39.882  1.00 72.65 LIG 0.04  C 
BRANCH 43 45
ATOM     45  C   ALA G   5      21.798  42.358  39.548  1.00 72.87 LIG 0.24  C 
ATOM     46  N   THR G   6      22.654  41.854  38.654  1.00 71.86 LIG-0.34  N 
ATOM     47 H    THR G   6      22.448  41.697  37.834  1.00 71.86 LIG 0.16  HD
ATOM     48 O    ALA G   5      22.099  42.560  40.727  1.00 74.40 LIG-0.27  OA
BRANCH 46 49
ATOM     49  CA  THR G   6      24.046  41.519  39.001  1.00 72.17 LIG 0.20  C 
BRANCH 49 50
ATOM     50  CB  THR G   6      24.135  40.390  40.054  1.00 71.29 LIG 0.15  C 
ATOM     51  CG2 THR G   6      24.486  40.956  41.428  1.00 70.64 LIG 0.04  C 
BRANCH 50 52
ATOM     52 OG1  THR G   6      22.888  39.689  40.127  1.00 70.47 LIG-0.39  OA
ATOM     53 HG1  THR G   6      22.543  39.649  39.362  1.00 70.47 LIG 0.21  HD
ENDBRANCH 50 52
ENDBRANCH 49 50
BRANCH 49 54
ATOM     54  C   THR G   6      24.879  41.126  37.773  1.00 73.53 LIG 0.24  C 
ATOM     55  N   ALA G   7      24.542  41.687  36.607  1.00 73.25 LIG-0.35  N 
ATOM     56 H    ALA G   7      23.843  42.179  36.506  1.00 73.25 LIG 0.16  HD
ATOM     57 O    THR G   6      25.801  40.315  37.890  1.00 75.15 LIG-0.27  OA
BRANCH 55 58
ATOM     58  CA  ALA G   7      25.330  41.521  35.378  1.00 74.45 LIG 0.16  C 
ATOM     59  CB  ALA G   7      24.513  41.930  34.161  1.00 73.04 LIG 0.04  C 
BRANCH 58 60
ATOM     60  C   ALA G   7      26.618  42.341  35.448  1.00 76.13 LIG 0.22  C 
ATOM     61 O    ALA G   7      26.809  43.148  36.359  1.00 77.97 LIG-0.29  OA
ENDBRANCH 58 60
ENDBRANCH 55 58
ENDBRANCH 49 54
ENDBRANCH 46 49
ENDBRANCH 43 45
ENDBRANCH 40 43
ENDBRANCH 37 39
ENDBRANCH 34 37
ENDBRANCH 1 33
TORSDOF 22
ENDMDL
MODEL 29
USER: ADFR SOLUTION from run 34
USER: SCORE 17.518399 LL:  -2.667 LR: -16.440 RR:   0.000 FEB:  -9.878
USER: RMSD 5.135829
USER: SEED 33
USER: STATUS searching
USER: GENES 24
USER: genes 0 Translation |==|  0.41969 0.42939 0.29682
USER: genes 1 Rotation |==|  0.72524 0.49501 0.70199 0.89805
USER: genes 2 Torsion [CB]-CA--N-[C] |==|  0.84407
USER: genes 3 Torsion [N]-C--CA-[N] |==|  0.66119
USER: genes 4 Torsion [C]-CA--N-[C] |==|  0.71111
USER: genes 5 Torsion [N]-C--CA-[N] |==|  0.10170
USER: genes 6 Torsion [C]-CA--N-[H1] |==|  0.33744
USER: genes 7 Torsion [C]-CA--CB-[CG] |==|  0.33368
USER: genes 8 Torsion [CA]-CB--CG-[CD] |==|  0.35609
USER: genes 9 Torsion [CB]-CG--CD-[NE] |==|  0.88567
USER: genes 10 Torsion [CG]-CD--NE-[CZ] |==|  0.48555
USER: genes 11 Torsion [N]-CA--CB-[OG1] |==|  0.21598
USER: genes 12 Torsion [CA]-CB--OG1-[HG1] |==|  0.50116
USER: genes 13 Torsion [N]-CA--C-[N] |==|  0.42752
USER: genes 14 Torsion [C]-N--CA-[CB] |==|  0.88229
USER: genes 15 Torsion [N]-CA--C-[N] |==|  0.85644
USER: genes 16 Torsion [C]-N--CA-[CB] |==|  0.87392
USER: genes 17 Torsion [N]-CA--C-[N] |==|  0.85013
USER: genes 18 Torsion [C]-N--CA-[CB] |==|  0.83474
USER: genes 19 Torsion [N]-CA--CB-[CG2] |==|  0.46041
USER: genes 20 Torsion [CA]-CB--OG1-[HG1] |==|  0.78689
USER: genes 21 Torsion [N]-CA--C-[N] |==|  0.39646
USER: genes 22 Torsion [C]-N--CA-[C] |==|  0.82089
USER: genes 23 Torsion [N]-CA--C-[O] |==|  0.88749
ROOT
ATOM      1  CA  THR G   3      16.331  36.883  39.049  1.00 68.23 LIG 0.20  C 
ENDROOT
BRANCH 1 2
ATOM      2  N   THR G   3      17.480  37.751  39.288  1.00 68.42 LIG-0.34  N 
ATOM      3  C   ARG G   2      18.625  37.316  39.808  1.00 70.38 LIG 0.24  C 
ATOM      4 O    ARG G   2      18.793  36.169  40.237  1.00 69.46 LIG-0.27  OA
ATOM      5 H    THR G   3      17.347  38.569  39.062  1.00 68.42 LIG 0.16  HD
BRANCH 3 6
ATOM      6  CA  ARG G   2      19.749  38.345  39.878  1.00 72.62 LIG 0.18  C 
BRANCH 6 7
ATOM      7  N   ARG G   2      20.902  37.845  39.134  1.00 74.86 LIG-0.35  N 
ATOM      8  C   ALA G   1      21.979  37.354  39.743  1.00 76.29 LIG 0.25  C 
ATOM      9 O    ALA G   1      22.173  37.437  40.960  1.00 75.70 LIG-0.27  OA
ATOM     10 H    ARG G   2      20.820  37.898  38.280  1.00 74.86 LIG 0.16  HD
BRANCH 8 11
ATOM     11  CA  ALA G   1      22.999  36.672  38.845  1.00 78.97 LIG 0.27  C 
ATOM     12  CB  ALA G   1      24.355  36.629  39.541  1.00 79.33 LIG 0.05  C 
BRANCH 11 13
ATOM     13  N   ALA G   1      23.101  37.378  37.538  1.00 81.42 LIG-0.07  N 
ATOM     14 H3   ALA G   1      22.557  38.083  37.538  1.00 81.42 LIG 0.28  HD
ATOM     15 H2   ALA G   1      22.868  36.824  36.882  1.00 81.42 LIG 0.28  HD
ATOM     16 H1   ALA G   1      23.939  37.651  37.412  1.00 81.42 LIG 0.28  HD
ENDBRANCH 11 13
ENDBRANCH 8 11
ENDBRANCH 6 7
BRANCH 6 17
ATOM     17  CB  ARG G   2      19.286  39.697  39.325  1.00 73.45 LIG 0.04  C 
BRANCH 17 18
ATOM     18  CG  ARG G   2      19.373  40.820  40.344  1.00 75.79 LIG 0.02  C 
BRANCH 18 19
ATOM     19  CD  ARG G   2      20.131  42.027  39.813  1.00 77.52 LIG 0.14  C 
BRANCH 19 20
ATOM     20  NE  ARG G   2      21.313  41.619  39.048  1.00 80.25 LIG-0.23  N 
ATOM     21  CZ  ARG G   2      22.125  42.440  38.374  1.00 82.01 LIG 0.67  C 
ATOM     22  NH1 ARG G   2      21.916  43.758  38.340  1.00 81.47 LIG-0.23  N 
ATOM     23  NH2 ARG G   2      23.165  41.934  37.717  1.00 84.93 LIG-0.23  N 
ATOM     24 1HH1 ARG G   2      21.245  44.099  38.757  1.00 81.47 LIG 0.17  HD
ATOM     25 2HH1 ARG G   2      22.452  44.267  37.900  1.00 81.47 LIG 0.17  HD
ATOM     26 2HH2 ARG G   2      23.693  42.454  37.281  1.00 84.93 LIG 0.17  HD
ATOM     27 1HH2 ARG G   2      23.309  41.086  37.727  1.00 84.93 LIG 0.17  HD
ATOM     28 HE   ARG G   2      21.500  40.780  39.031  1.00 80.25 LIG 0.18  HD
ENDBRANCH 19 20
ENDBRANCH 18 19
ENDBRANCH 17 18
ENDBRANCH 6 17
ENDBRANCH 3 6
ENDBRANCH 1 2
BRANCH 1 29
ATOM     29  CB  THR G   3      16.694  35.680  38.146  1.00 68.23 LIG 0.15  C 
ATOM     30  CG2 THR G   3      17.560  36.123  36.981  1.00 68.63 LIG 0.04  C 
BRANCH 29 31
ATOM     31 OG1  THR G   3      17.390  34.684  38.907  1.00 67.51 LIG-0.39  OA
ATOM     32 HG1  THR G   3      17.588  34.038  38.409  1.00 67.51 LIG 0.21  HD
ENDBRANCH 29 31
ENDBRANCH 1 29
BRANCH 1 33
ATOM     33  C   THR G   3      15.771  36.369  40.371  1.00 68.02 LIG 0.24  C 
ATOM     34  N   ALA G   4      14.480  36.043  40.365  1.00 68.86 LIG-0.35  N 
ATOM     35 H    ALA G   4      13.966  36.155  39.684  1.00 68.86 LIG 0.16  HD
ATOM     36 O    THR G   3      16.490  36.274  41.367  1.00 67.54 LIG-0.27  OA
BRANCH 34 37
ATOM     37  CA  ALA G   4      13.806  35.458  41.527  1.00 69.75 LIG 0.17  C 
ATOM     38  CB  ALA G   4      14.694  34.405  42.169  1.00 70.86 LIG 0.04  C 
BRANCH 37 39
ATOM     39  C   ALA G   4      13.391  36.509  42.565  1.00 71.43 LIG 0.24  C 
ATOM     40  N   ALA G   5      14.338  37.355  42.975  1.00 71.85 LIG-0.35  N 
ATOM     41 H    ALA G   5      15.162  37.299  42.733  1.00 71.85 LIG 0.16  HD
ATOM     42 O    ALA G   4      12.229  36.545  42.980  1.00 72.80 LIG-0.27  OA
BRANCH 40 43
ATOM     43  CA  ALA G   5      14.059  38.470  43.886  1.00 72.89 LIG 0.17  C 
ATOM     44  CB  ALA G   5      12.799  39.209  43.455  1.00 72.65 LIG 0.04  C 
BRANCH 43 45
ATOM     45  C   ALA G   5      13.932  38.006  45.341  1.00 72.87 LIG 0.24  C 
ATOM     46  N   THR G   6      13.056  37.028  45.588  1.00 71.86 LIG-0.34  N 
ATOM     47 H    THR G   6      12.563  36.667  44.984  1.00 71.86 LIG 0.16  HD
ATOM     48 O    ALA G   5      14.620  38.531  46.220  1.00 74.40 LIG-0.27  OA
BRANCH 46 49
ATOM     49  CA  THR G   6      12.857  36.475  46.939  1.00 72.17 LIG 0.20  C 
BRANCH 49 50
ATOM     50  CB  THR G   6      14.154  35.871  47.525  1.00 71.29 LIG 0.15  C 
ATOM     51  CG2 THR G   6      14.013  35.631  49.026  1.00 70.64 LIG 0.04  C 
BRANCH 50 52
ATOM     52 OG1  THR G   6      14.460  34.635  46.869  1.00 70.47 LIG-0.39  OA
ATOM     53 HG1  THR G   6      13.957  34.030  47.162  1.00 70.47 LIG 0.21  HD
ENDBRANCH 50 52
ENDBRANCH 49 50
BRANCH 49 54
ATOM     54  C   THR G   6      12.298  37.513  47.923  1.00 73.53 LIG 0.24  C 
ATOM     55  N   ALA G   7      11.410  37.077  48.822  1.00 73.25 LIG-0.35  N 
ATOM     56 H    ALA G   7      11.085  36.280  48.816  1.00 73.25 LIG 0.16  HD
ATOM     57 O    THR G   6      12.664  38.688  47.849  1.00 75.15 LIG-0.27  OA
BRANCH 55 58
ATOM     58  CA  ALA G   7      10.897  37.915  49.915  1.00 74.45 LIG 0.16  C 
ATOM     59  CB  ALA G   7       9.785  37.194  50.663  1.00 73.04 LIG 0.04  C 
BRANCH 58 60
ATOM     60  C   ALA G   7      12.022  38.292  50.879  1.00 76.13 LIG 0.22  C 
ATOM     61 O    ALA G   7      12.882  37.472  51.204  1.00 77.97 LIG-0.29  OA
ENDBRANCH 58 60
ENDBRANCH 55 58
ENDBRANCH 49 54
ENDBRANCH 46 49
ENDBRANCH 43 45
ENDBRANCH 40 43
ENDBRANCH 37 39
ENDBRANCH 34 37
ENDBRANCH 1 33
TORSDOF 22
ENDMDL
MODEL 30
USER: ADFR SOLUTION from run 58
USER: SCORE 17.198951 LL:  -3.603 LR: -16.426 RR:   0.000 FEB:  -9.864
USER: RMSD 4.787317
USER: SEED 57
USER: STATUS no improvement in best in 10 clusters for 5 generations
USER: GENES 24
USER: genes 0 Translation |==|  0.43104 0.41638 0.32223
USER: genes 1 Rotation |==|  0.74602 0.39546 0.63274 0.90116
USER: genes 2 Torsion [CB]-CA--N-[C] |==|  0.20598
USER: genes 3 Torsion [N]-C--CA-[N] |==|  0.37704
USER: genes 4 Torsion [C]-CA--N-[C] |==|  0.66399
USER: genes 5 Torsion [N]-C--CA-[N] |==|  0.02052
USER: genes 6 Torsion [C]-CA--N-[H1] |==|  0.39148
USER: genes 7 Torsion [C]-CA--CB-[CG] |==|  0.01147
USER: genes 8 Torsion [CA]-CB--CG-[CD] |==|  0.71418
USER: genes 9 Torsion [CB]-CG--CD-[NE] |==|  0.97851
USER: genes 10 Torsion [CG]-CD--NE-[CZ] |==|  0.60700
USER: genes 11 Torsion [N]-CA--CB-[OG1] |==|  0.06141
USER: genes 12 Torsion [CA]-CB--OG1-[HG1] |==|  0.43575
USER: genes 13 Torsion [N]-CA--C-[N] |==|  0.36457
USER: genes 14 Torsion [C]-N--CA-[CB] |==|  0.78274
USER: genes 15 Torsion [N]-CA--C-[N] |==|  0.60857
USER: genes 16 Torsion [C]-N--CA-[CB] |==|  0.81487
USER: genes 17 Torsion [N]-CA--C-[N] |==|  0.18991
USER: genes 18 Torsion [C]-N--CA-[CB] |==|  0.87729
USER: genes 19 Torsion [N]-CA--CB-[CG2] |==|  0.58502
USER: genes 20 Torsion [CA]-CB--OG1-[HG1] |==|  0.80363
USER: genes 21 Torsion [N]-CA--C-[N] |==|  0.90554
USER: genes 22 Torsion [C]-N--CA-[C] |==|  0.79770
USER: genes 23 Torsion [N]-CA--C-[O] |==|  0.93720
ROOT
ATOM      1  CA  THR G   3      16.586  36.649  39.563  1.00 68.23 LIG 0.20  C 
ENDROOT
BRANCH 1 2
ATOM      2  N   THR G   3      17.904  36.909  40.135  1.00 68.42 LIG-0.34  N 
ATOM      3  C   ARG G   2      18.843  37.614  39.510  1.00 70.38 LIG 0.24  C 
ATOM      4 O    ARG G   2      18.735  38.023  38.348  1.00 69.46 LIG-0.27  OA
ATOM      5 H    THR G   3      18.016  36.562  40.914  1.00 68.42 LIG 0.16  HD
BRANCH 3 6
ATOM      6  CA  ARG G   2      20.113  37.876  40.312  1.00 72.62 LIG 0.18  C 
BRANCH 6 7
ATOM      7  N   ARG G   2      21.275  37.644  39.459  1.00 74.86 LIG-0.35  N 
ATOM      8  C   ALA G   1      22.207  36.743  39.761  1.00 76.29 LIG 0.25  C 
ATOM      9 O    ALA G   1      22.268  36.162  40.849  1.00 75.70 LIG-0.27  OA
ATOM     10 H    ARG G   2      21.299  38.137  38.755  1.00 74.86 LIG 0.16  HD
BRANCH 8 11
ATOM     11  CA  ALA G   1      23.234  36.457  38.676  1.00 78.97 LIG 0.27  C 
ATOM     12  CB  ALA G   1      24.640  36.550  39.257  1.00 79.33 LIG 0.05  C 
BRANCH 11 13
ATOM     13  N   ALA G   1      23.070  37.404  37.538  1.00 81.42 LIG-0.07  N 
ATOM     14 H3   ALA G   1      22.631  38.128  37.814  1.00 81.42 LIG 0.28  HD
ATOM     15 H2   ALA G   1      22.610  37.009  36.887  1.00 81.42 LIG 0.28  HD
ATOM     16 H1   ALA G   1      23.871  37.642  37.232  1.00 81.42 LIG 0.28  HD
ENDBRANCH 11 13
ENDBRANCH 8 11
ENDBRANCH 6 7
BRANCH 6 17
ATOM     17  CB  ARG G   2      20.122  39.303  40.871  1.00 73.45 LIG 0.04  C 
BRANCH 17 18
ATOM     18  CG  ARG G   2      18.840  40.066  40.581  1.00 75.79 LIG 0.02  C 
BRANCH 18 19
ATOM     19  CD  ARG G   2      19.004  41.064  39.445  1.00 77.52 LIG 0.14  C 
BRANCH 19 20
ATOM     20  NE  ARG G   2      20.405  41.174  39.031  1.00 80.25 LIG-0.23  N 
ATOM     21  CZ  ARG G   2      21.024  42.304  38.673  1.00 82.01 LIG 0.67  C 
ATOM     22  NH1 ARG G   2      20.388  43.477  38.661  1.00 81.47 LIG-0.23  N 
ATOM     23  NH2 ARG G   2      22.305  42.260  38.314  1.00 84.93 LIG-0.23  N 
ATOM     24 1HH1 ARG G   2      19.559  43.519  38.887  1.00 81.47 LIG 0.17  HD
ATOM     25 2HH1 ARG G   2      20.807  44.191  38.428  1.00 81.47 LIG 0.17  HD
ATOM     26 2HH2 ARG G   2      22.712  42.981  38.082  1.00 84.93 LIG 0.17  HD
ATOM     27 1HH2 ARG G   2      22.726  41.510  38.313  1.00 84.93 LIG 0.17  HD
ATOM     28 HE   ARG G   2      20.869  40.450  39.017  1.00 80.25 LIG 0.18  HD
ENDBRANCH 19 20
ENDBRANCH 18 19
ENDBRANCH 17 18
ENDBRANCH 6 17
ENDBRANCH 3 6
ENDBRANCH 1 2
BRANCH 1 29
ATOM     29  CB  THR G   3      16.645  35.593  38.434  1.00 68.23 LIG 0.15  C 
ATOM     30  CG2 THR G   3      16.650  36.261  37.072  1.00 68.63 LIG 0.04  C 
BRANCH 29 31
ATOM     31 OG1  THR G   3      17.821  34.785  38.574  1.00 67.51 LIG-0.39  OA
ATOM     32 HG1  THR G   3      17.702  34.049  38.188  1.00 67.51 LIG 0.21  HD
ENDBRANCH 29 31
ENDBRANCH 1 29
BRANCH 1 33
ATOM     33  C   THR G   3      15.624  36.174  40.646  1.00 68.02 LIG 0.24  C 
ATOM     34  N   ALA G   4      14.443  36.789  40.682  1.00 68.86 LIG-0.35  N 
ATOM     35 H    ALA G   4      14.236  37.447  40.169  1.00 68.86 LIG 0.16  HD
ATOM     36 O    THR G   3      15.946  35.278  41.429  1.00 67.54 LIG-0.27  OA
BRANCH 34 37
ATOM     37  CA  ALA G   4      13.375  36.399  41.607  1.00 69.75 LIG 0.17  C 
ATOM     38  CB  ALA G   4      12.670  35.154  41.094  1.00 70.86 LIG 0.04  C 
BRANCH 37 39
ATOM     39  C   ALA G   4      13.880  36.174  43.037  1.00 71.43 LIG 0.24  C 
ATOM     40  N   ALA G   5      13.345  35.152  43.709  1.00 71.85 LIG-0.35  N 
ATOM     41 H    ALA G   5      12.705  34.666  43.403  1.00 71.85 LIG 0.16  HD
ATOM     42 O    ALA G   4      14.742  36.918  43.515  1.00 72.80 LIG-0.27  OA
BRANCH 40 43
ATOM     43  CA  ALA G   5      13.804  34.760  45.046  1.00 72.89 LIG 0.17  C 
ATOM     44  CB  ALA G   5      15.228  34.223  44.984  1.00 72.65 LIG 0.04  C 
BRANCH 43 45
ATOM     45  C   ALA G   5      13.715  35.917  46.048  1.00 72.87 LIG 0.24  C 
ATOM     46  N   THR G   6      12.490  36.325  46.390  1.00 71.86 LIG-0.34  N 
ATOM     47 H    THR G   6      11.768  35.986  46.070  1.00 71.86 LIG 0.16  HD
ATOM     48 O    ALA G   5      14.744  36.425  46.498  1.00 74.40 LIG-0.27  OA
BRANCH 46 49
ATOM     49  CA  THR G   6      12.267  37.410  47.361  1.00 72.17 LIG 0.20  C 
BRANCH 49 50
ATOM     50  CB  THR G   6      13.176  37.282  48.606  1.00 71.29 LIG 0.15  C 
ATOM     51  CG2 THR G   6      12.489  37.857  49.843  1.00 70.64 LIG 0.04  C 
BRANCH 50 52
ATOM     52 OG1  THR G   6      13.504  35.907  48.834  1.00 70.47 LIG-0.39  OA
ATOM     53 HG1  THR G   6      12.822  35.497  49.104  1.00 70.47 LIG 0.21  HD
ENDBRANCH 50 52
ENDBRANCH 49 50
BRANCH 49 54
ATOM     54  C   THR G   6      12.458  38.802  46.743  1.00 73.53 LIG 0.24  C 
ATOM     55  N   ALA G   7      13.392  38.919  45.794  1.00 73.25 LIG-0.35  N 
ATOM     56 H    ALA G   7      13.932  38.284  45.583  1.00 73.25 LIG 0.16  HD
ATOM     57 O    THR G   6      11.774  39.749  47.138  1.00 75.15 LIG-0.27  OA
BRANCH 55 58
ATOM     58  CA  ALA G   7      13.591  40.148  45.011  1.00 74.45 LIG 0.16  C 
ATOM     59  CB  ALA G   7      14.932  40.110  44.293  1.00 73.04 LIG 0.04  C 
BRANCH 58 60
ATOM     60  C   ALA G   7      12.458  40.335  44.003  1.00 76.13 LIG 0.22  C 
ATOM     61 O    ALA G   7      11.784  39.378  43.619  1.00 77.97 LIG-0.29  OA
ENDBRANCH 58 60
ENDBRANCH 55 58
ENDBRANCH 49 54
ENDBRANCH 46 49
ENDBRANCH 43 45
ENDBRANCH 40 43
ENDBRANCH 37 39
ENDBRANCH 34 37
ENDBRANCH 1 33
TORSDOF 22
ENDMDL
MODEL 31
USER: ADFR SOLUTION from run 18
USER: SCORE 18.384210 LL:  -3.775 LR: -16.382 RR:   0.000 FEB:  -9.819
USER: RMSD 4.436627
USER: SEED 17
USER: STATUS searching
USER: GENES 24
USER: genes 0 Translation |==|  0.32469 0.45401 0.46026
USER: genes 1 Rotation |==|  0.70687 0.53484 0.53052 0.95284
USER: genes 2 Torsion [CB]-CA--N-[C] |==|  0.15337
USER: genes 3 Torsion [N]-C--CA-[N] |==|  0.49081
USER: genes 4 Torsion [C]-CA--N-[C] |==|  0.72122
USER: genes 5 Torsion [N]-C--CA-[N] |==|  0.30808
USER: genes 6 Torsion [C]-CA--N-[H1] |==|  0.03353
USER: genes 7 Torsion [C]-CA--CB-[CG] |==|  0.52269
USER: genes 8 Torsion [CA]-CB--CG-[CD] |==|  0.89444
USER: genes 9 Torsion [CB]-CG--CD-[NE] |==|  0.41366
USER: genes 10 Torsion [CG]-CD--NE-[CZ] |==|  0.59553
USER: genes 11 Torsion [N]-CA--CB-[OG1] |==|  0.53133
USER: genes 12 Torsion [CA]-CB--OG1-[HG1] |==|  0.85602
USER: genes 13 Torsion [N]-CA--C-[N] |==|  0.51797
USER: genes 14 Torsion [C]-N--CA-[CB] |==|  0.83794
USER: genes 15 Torsion [N]-CA--C-[N] |==|  0.44239
USER: genes 16 Torsion [C]-N--CA-[CB] |==|  0.78867
USER: genes 17 Torsion [N]-CA--C-[N] |==|  0.22425
USER: genes 18 Torsion [C]-N--CA-[CB] |==|  0.85556
USER: genes 19 Torsion [N]-CA--CB-[CG2] |==|  0.57975
USER: genes 20 Torsion [CA]-CB--OG1-[HG1] |==|  0.25471
USER: genes 21 Torsion [N]-CA--C-[N] |==|  0.91659
USER: genes 22 Torsion [C]-N--CA-[C] |==|  0.76668
USER: genes 23 Torsion [N]-CA--C-[O] |==|  0.01318
ROOT
ATOM      1  CA  THR G   3      14.193  37.326  42.358  1.00 68.23 LIG 0.20  C 
ENDROOT
BRANCH 1 2
ATOM      2  N   THR G   3      15.587  37.403  41.932  1.00 68.42 LIG-0.34  N 
ATOM      3  C   ARG G   2      15.963  37.355  40.656  1.00 70.38 LIG 0.24  C 
ATOM      4 O    ARG G   2      15.186  37.133  39.720  1.00 69.46 LIG-0.27  OA
ATOM      5 H    THR G   3      16.143  37.482  42.583  1.00 68.42 LIG 0.16  HD
BRANCH 3 6
ATOM      6  CA  ARG G   2      17.451  37.565  40.399  1.00 72.62 LIG 0.18  C 
BRANCH 6 7
ATOM      7  N   ARG G   2      17.718  37.407  38.972  1.00 74.86 LIG-0.35  N 
ATOM      8  C   ALA G   1      18.223  36.285  38.466  1.00 76.29 LIG 0.25  C 
ATOM      9 O    ALA G   1      18.669  35.364  39.158  1.00 75.70 LIG-0.27  OA
ATOM     10 H    ARG G   2      17.520  38.097  38.498  1.00 74.86 LIG 0.16  HD
BRANCH 8 11
ATOM     11  CA  ALA G   1      18.239  36.186  36.949  1.00 78.97 LIG 0.27  C 
ATOM     12  CB  ALA G   1      17.555  34.897  36.507  1.00 79.33 LIG 0.05  C 
BRANCH 11 13
ATOM     13  N   ALA G   1      19.635  36.244  36.435  1.00 81.42 LIG-0.07  N 
ATOM     14 H3   ALA G   1      19.774  37.029  36.038  1.00 81.42 LIG 0.28  HD
ATOM     15 H2   ALA G   1      19.762  35.588  35.847  1.00 81.42 LIG 0.28  HD
ATOM     16 H1   ALA G   1      20.205  36.150  37.112  1.00 81.42 LIG 0.28  HD
ENDBRANCH 11 13
ENDBRANCH 8 11
ENDBRANCH 6 7
BRANCH 6 17
ATOM     17  CB  ARG G   2      17.900  38.945  40.890  1.00 73.45 LIG 0.04  C 
BRANCH 17 18
ATOM     18  CG  ARG G   2      19.323  39.290  40.485  1.00 75.79 LIG 0.02  C 
BRANCH 18 19
ATOM     19  CD  ARG G   2      20.251  38.087  40.551  1.00 77.52 LIG 0.14  C 
BRANCH 19 20
ATOM     20  NE  ARG G   2      21.314  38.177  39.546  1.00 80.25 LIG-0.23  N 
ATOM     21  CZ  ARG G   2      21.856  37.146  38.892  1.00 82.01 LIG 0.67  C 
ATOM     22  NH1 ARG G   2      21.458  35.890  39.110  1.00 81.47 LIG-0.23  N 
ATOM     23  NH2 ARG G   2      22.821  37.371  38.004  1.00 84.93 LIG-0.23  N 
ATOM     24 1HH1 ARG G   2      20.838  35.730  39.685  1.00 81.47 LIG 0.17  HD
ATOM     25 2HH1 ARG G   2      21.821  35.242  38.677  1.00 81.47 LIG 0.17  HD
ATOM     26 2HH2 ARG G   2      23.176  36.714  37.577  1.00 84.93 LIG 0.17  HD
ATOM     27 1HH2 ARG G   2      23.090  38.175  37.855  1.00 84.93 LIG 0.17  HD
ATOM     28 HE   ARG G   2      21.614  38.962  39.362  1.00 80.25 LIG 0.18  HD
ENDBRANCH 19 20
ENDBRANCH 18 19
ENDBRANCH 17 18
ENDBRANCH 6 17
ENDBRANCH 3 6
ENDBRANCH 1 2
BRANCH 1 29
ATOM     29  CB  THR G   3      13.492  36.059  41.815  1.00 68.23 LIG 0.15  C 
ATOM     30  CG2 THR G   3      14.030  34.813  42.494  1.00 68.63 LIG 0.04  C 
BRANCH 29 31
ATOM     31 OG1  THR G   3      12.078  36.147  42.028  1.00 67.51 LIG-0.39  OA
ATOM     32 HG1  THR G   3      11.927  36.328  42.834  1.00 67.51 LIG 0.21  HD
ENDBRANCH 29 31
ENDBRANCH 1 29
BRANCH 1 33
ATOM     33  C   THR G   3      14.104  37.336  43.880  1.00 68.02 LIG 0.24  C 
ATOM     34  N   ALA G   4      12.891  37.136  44.391  1.00 68.86 LIG-0.35  N 
ATOM     35 H    ALA G   4      12.183  37.053  43.910  1.00 68.86 LIG 0.16  HD
ATOM     36 O    THR G   3      15.108  37.525  44.571  1.00 67.54 LIG-0.27  OA
BRANCH 34 37
ATOM     37  CA  ALA G   4      12.645  37.035  45.832  1.00 69.75 LIG 0.17  C 
ATOM     38  CB  ALA G   4      13.464  35.899  46.423  1.00 70.86 LIG 0.04  C 
BRANCH 37 39
ATOM     39  C   ALA G   4      12.935  38.344  46.578  1.00 71.43 LIG 0.24  C 
ATOM     40  N   ALA G   5      12.357  38.495  47.772  1.00 71.85 LIG-0.35  N 
ATOM     41 H    ALA G   5      11.799  37.932  48.103  1.00 71.85 LIG 0.16  HD
ATOM     42 O    ALA G   4      13.672  39.195  46.072  1.00 72.80 LIG-0.27  OA
BRANCH 40 43
ATOM     43  CA  ALA G   5      12.625  39.649  48.637  1.00 72.89 LIG 0.17  C 
ATOM     44  CB  ALA G   5      13.985  39.507  49.309  1.00 72.65 LIG 0.04  C 
BRANCH 43 45
ATOM     45  C   ALA G   5      12.547  40.974  47.870  1.00 72.87 LIG 0.24  C 
ATOM     46  N   THR G   6      11.327  41.477  47.659  1.00 71.86 LIG-0.34  N 
ATOM     47 H    THR G   6      10.602  41.093  47.916  1.00 71.86 LIG 0.16  HD
ATOM     48 O    ALA G   5      13.578  41.525  47.480  1.00 74.40 LIG-0.27  OA
BRANCH 46 49
ATOM     49  CA  THR G   6      11.115  42.755  46.958  1.00 72.17 LIG 0.20  C 
BRANCH 49 50
ATOM     50  CB  THR G   6      11.957  43.904  47.561  1.00 71.29 LIG 0.15  C 
ATOM     51  CG2 THR G   6      11.265  45.250  47.358  1.00 70.64 LIG 0.04  C 
BRANCH 50 52
ATOM     52 OG1  THR G   6      12.164  43.678  48.961  1.00 70.47 LIG-0.39  OA
ATOM     53 HG1  THR G   6      12.880  43.253  49.073  1.00 70.47 LIG 0.21  HD
ENDBRANCH 50 52
ENDBRANCH 49 50
BRANCH 49 54
ATOM     54  C   THR G   6      11.408  42.657  45.454  1.00 73.53 LIG 0.24  C 
ATOM     55  N   ALA G   7      12.334  41.770  45.075  1.00 73.25 LIG-0.35  N 
ATOM     56 H    ALA G   7      12.818  41.328  45.631  1.00 73.25 LIG 0.16  HD
ATOM     57 O    THR G   6      10.807  43.387  44.663  1.00 75.15 LIG-0.27  OA
BRANCH 55 58
ATOM     58  CA  ALA G   7      12.619  41.461  43.666  1.00 74.45 LIG 0.16  C 
ATOM     59  CB  ALA G   7      14.051  40.971  43.508  1.00 73.04 LIG 0.04  C 
BRANCH 58 60
ATOM     60  C   ALA G   7      11.642  40.412  43.136  1.00 76.13 LIG 0.22  C 
ATOM     61 O    ALA G   7      10.709  40.004  43.829  1.00 77.97 LIG-0.29  OA
ENDBRANCH 58 60
ENDBRANCH 55 58
ENDBRANCH 49 54
ENDBRANCH 46 49
ENDBRANCH 43 45
ENDBRANCH 40 43
ENDBRANCH 37 39
ENDBRANCH 34 37
ENDBRANCH 1 33
TORSDOF 22
ENDMDL
MODEL 32
USER: ADFR SOLUTION from run 151
USER: SCORE 16.547890 LL:  -3.707 LR: -16.366 RR:   0.000 FEB:  -9.804
USER: RMSD 5.739419
USER: SEED 150
USER: STATUS no improvement in best in 9 clusters for 5 generations
USER: GENES 24
USER: genes 0 Translation |==|  0.49694 0.41512 0.25252
USER: genes 1 Rotation |==|  0.61631 0.40991 0.49798 0.97786
USER: genes 2 Torsion [CB]-CA--N-[C] |==|  0.50668
USER: genes 3 Torsion [N]-C--CA-[N] |==|  0.39444
USER: genes 4 Torsion [C]-CA--N-[C] |==|  0.53415
USER: genes 5 Torsion [N]-C--CA-[N] |==|  0.93791
USER: genes 6 Torsion [C]-CA--N-[H1] |==|  0.59429
USER: genes 7 Torsion [C]-CA--CB-[CG] |==|  0.73261
USER: genes 8 Torsion [CA]-CB--CG-[CD] |==|  0.19055
USER: genes 9 Torsion [CB]-CG--CD-[NE] |==|  0.75388
USER: genes 10 Torsion [CG]-CD--NE-[CZ] |==|  0.67908
USER: genes 11 Torsion [N]-CA--CB-[OG1] |==|  0.16118
USER: genes 12 Torsion [CA]-CB--OG1-[HG1] |==|  0.57372
USER: genes 13 Torsion [N]-CA--C-[N] |==|  0.90502
USER: genes 14 Torsion [C]-N--CA-[CB] |==|  0.78543
USER: genes 15 Torsion [N]-CA--C-[N] |==|  0.17856
USER: genes 16 Torsion [C]-N--CA-[CB] |==|  0.51113
USER: genes 17 Torsion [N]-CA--C-[N] |==|  0.28500
USER: genes 18 Torsion [C]-N--CA-[CB] |==|  0.20893
USER: genes 19 Torsion [N]-CA--CB-[CG2] |==|  0.20977
USER: genes 20 Torsion [CA]-CB--OG1-[HG1] |==|  0.28419
USER: genes 21 Torsion [N]-CA--C-[N] |==|  0.47351
USER: genes 22 Torsion [C]-N--CA-[C] |==|  0.63411
USER: genes 23 Torsion [N]-CA--C-[O] |==|  0.30358
ROOT
ATOM      1  CA  THR G   3      18.069  36.626  38.152  1.00 68.23 LIG 0.20  C 
ENDROOT
BRANCH 1 2
ATOM      2  N   THR G   3      19.449  36.226  38.409  1.00 68.42 LIG-0.34  N 
ATOM      3  C   ARG G   2      20.381  37.067  38.850  1.00 70.38 LIG 0.24  C 
ATOM      4 O    ARG G   2      20.203  38.283  38.980  1.00 69.46 LIG-0.27  OA
ATOM      5 H    THR G   3      19.602  35.395  38.249  1.00 68.42 LIG 0.16  HD
BRANCH 3 6
ATOM      6  CA  ARG G   2      21.735  36.440  39.170  1.00 72.62 LIG 0.18  C 
BRANCH 6 7
ATOM      7  N   ARG G   2      22.795  37.357  38.761  1.00 74.86 LIG-0.35  N 
ATOM      8  C   ALA G   1      24.070  36.982  38.697  1.00 76.29 LIG 0.25  C 
ATOM      9 O    ALA G   1      24.489  35.907  39.136  1.00 75.70 LIG-0.27  OA
ATOM     10 H    ARG G   2      22.521  38.150  38.570  1.00 74.86 LIG 0.16  HD
BRANCH 8 11
ATOM     11  CA  ALA G   1      25.024  37.973  38.048  1.00 78.97 LIG 0.27  C 
ATOM     12  CB  ALA G   1      25.779  38.745  39.124  1.00 79.33 LIG 0.05  C 
BRANCH 11 13
ATOM     13  N   ALA G   1      24.283  38.904  37.153  1.00 81.42 LIG-0.07  N 
ATOM     14 H3   ALA G   1      24.072  39.644  37.602  1.00 81.42 LIG 0.28  HD
ATOM     15 H2   ALA G   1      23.538  38.510  36.866  1.00 81.42 LIG 0.28  HD
ATOM     16 H1   ALA G   1      24.793  39.116  36.456  1.00 81.42 LIG 0.28  HD
ENDBRANCH 11 13
ENDBRANCH 8 11
ENDBRANCH 6 7
BRANCH 6 17
ATOM     17  CB  ARG G   2      21.844  36.108  40.661  1.00 73.45 LIG 0.04  C 
BRANCH 17 18
ATOM     18  CG  ARG G   2      22.553  37.185  41.463  1.00 75.79 LIG 0.02  C 
BRANCH 18 19
ATOM     19  CD  ARG G   2      21.740  38.467  41.558  1.00 77.52 LIG 0.14  C 
BRANCH 19 20
ATOM     20  NE  ARG G   2      22.022  39.362  40.433  1.00 80.25 LIG-0.23  N 
ATOM     21  CZ  ARG G   2      22.590  40.569  40.521  1.00 82.01 LIG 0.67  C 
ATOM     22  NH1 ARG G   2      22.961  41.083  41.696  1.00 81.47 LIG-0.23  N 
ATOM     23  NH2 ARG G   2      22.786  41.281  39.414  1.00 84.93 LIG-0.23  N 
ATOM     24 1HH1 ARG G   2      22.837  40.636  42.420  1.00 81.47 LIG 0.17  HD
ATOM     25 2HH1 ARG G   2      23.325  41.862  41.729  1.00 81.47 LIG 0.17  HD
ATOM     26 2HH2 ARG G   2      23.150  42.058  39.461  1.00 84.93 LIG 0.17  HD
ATOM     27 1HH2 ARG G   2      22.548  40.963  38.651  1.00 84.93 LIG 0.17  HD
ATOM     28 HE   ARG G   2      21.804  39.086  39.647  1.00 80.25 LIG 0.18  HD
ENDBRANCH 19 20
ENDBRANCH 18 19
ENDBRANCH 17 18
ENDBRANCH 6 17
ENDBRANCH 3 6
ENDBRANCH 1 2
BRANCH 1 29
ATOM     29  CB  THR G   3      17.195  35.431  37.705  1.00 68.23 LIG 0.15  C 
ATOM     30  CG2 THR G   3      17.691  34.863  36.387  1.00 68.63 LIG 0.04  C 
BRANCH 29 31
ATOM     31 OG1  THR G   3      17.215  34.404  38.704  1.00 67.51 LIG-0.39  OA
ATOM     32 HG1  THR G   3      17.070  33.659  38.344  1.00 67.51 LIG 0.21  HD
ENDBRANCH 29 31
ENDBRANCH 1 29
BRANCH 1 33
ATOM     33  C   THR G   3      17.459  37.257  39.399  1.00 68.02 LIG 0.24  C 
ATOM     34  N   ALA G   4      17.866  36.751  40.562  1.00 68.86 LIG-0.35  N 
ATOM     35 H    ALA G   4      18.400  36.080  40.625  1.00 68.86 LIG 0.16  HD
ATOM     36 O    THR G   3      16.639  38.173  39.307  1.00 67.54 LIG-0.27  OA
BRANCH 34 37
ATOM     37  CA  ALA G   4      17.441  37.296  41.854  1.00 69.75 LIG 0.17  C 
ATOM     38  CB  ALA G   4      18.206  38.573  42.159  1.00 70.86 LIG 0.04  C 
BRANCH 37 39
ATOM     39  C   ALA G   4      15.930  37.552  41.923  1.00 71.43 LIG 0.24  C 
ATOM     40  N   ALA G   5      15.135  36.483  41.834  1.00 71.85 LIG-0.35  N 
ATOM     41 H    ALA G   5      15.425  35.687  41.685  1.00 71.85 LIG 0.16  HD
ATOM     42 O    ALA G   4      15.501  38.702  42.056  1.00 72.80 LIG-0.27  OA
BRANCH 40 43
ATOM     43  CA  ALA G   5      13.678  36.568  41.985  1.00 72.89 LIG 0.17  C 
ATOM     44  CB  ALA G   5      13.055  35.180  41.933  1.00 72.65 LIG 0.04  C 
BRANCH 43 45
ATOM     45  C   ALA G   5      13.274  37.285  43.278  1.00 72.87 LIG 0.24  C 
ATOM     46  N   THR G   6      12.866  38.552  43.163  1.00 71.86 LIG-0.34  N 
ATOM     47 H    THR G   6      12.834  38.976  42.416  1.00 71.86 LIG 0.16  HD
ATOM     48 O    ALA G   5      13.334  36.693  44.358  1.00 74.40 LIG-0.27  OA
BRANCH 46 49
ATOM     49  CA  THR G   6      12.426  39.344  44.325  1.00 72.17 LIG 0.20  C 
BRANCH 49 50
ATOM     50  CB  THR G   6      13.612  39.811  45.201  1.00 71.29 LIG 0.15  C 
ATOM     51  CG2 THR G   6      14.355  40.968  44.538  1.00 70.64 LIG 0.04  C 
BRANCH 50 52
ATOM     52 OG1  THR G   6      13.137  40.221  46.489  1.00 70.47 LIG-0.39  OA
ATOM     53 HG1  THR G   6      13.292  39.616  47.051  1.00 70.47 LIG 0.21  HD
ENDBRANCH 50 52
ENDBRANCH 49 50
BRANCH 49 54
ATOM     54  C   THR G   6      11.590  40.566  43.921  1.00 73.53 LIG 0.24  C 
ATOM     55  N   ALA G   7      10.982  41.235  44.905  1.00 73.25 LIG-0.35  N 
ATOM     56 H    ALA G   7      10.971  40.965  45.722  1.00 73.25 LIG 0.16  HD
ATOM     57 O    THR G   6      11.494  40.879  42.731  1.00 75.15 LIG-0.27  OA
BRANCH 55 58
ATOM     58  CA  ALA G   7      10.268  42.502  44.692  1.00 74.45 LIG 0.16  C 
ATOM     59  CB  ALA G   7       8.763  42.283  44.754  1.00 73.04 LIG 0.04  C 
BRANCH 58 60
ATOM     60  C   ALA G   7      10.691  43.541  45.731  1.00 76.13 LIG 0.22  C 
ATOM     61 O    ALA G   7      11.378  44.514  45.413  1.00 77.97 LIG-0.29  OA
ENDBRANCH 58 60
ENDBRANCH 55 58
ENDBRANCH 49 54
ENDBRANCH 46 49
ENDBRANCH 43 45
ENDBRANCH 40 43
ENDBRANCH 37 39
ENDBRANCH 34 37
ENDBRANCH 1 33
TORSDOF 22
ENDMDL
MODEL 33
USER: ADFR SOLUTION from run 139
USER: SCORE 16.705436 LL:  -3.912 LR: -16.307 RR:   0.000 FEB:  -9.745
USER: RMSD 5.956919
USER: SEED 138
USER: STATUS no improvement in best in 11 clusters for 5 generations
USER: GENES 24
USER: genes 0 Translation |==|  0.47363 0.42873 0.25892
USER: genes 1 Rotation |==|  0.79637 0.51321 0.73085 0.82969
USER: genes 2 Torsion [CB]-CA--N-[C] |==|  0.50169
USER: genes 3 Torsion [N]-C--CA-[N] |==|  0.92086
USER: genes 4 Torsion [C]-CA--N-[C] |==|  0.83126
USER: genes 5 Torsion [N]-C--CA-[N] |==|  0.83881
USER: genes 6 Torsion [C]-CA--N-[H1] |==|  0.13327
USER: genes 7 Torsion [C]-CA--CB-[CG] |==|  0.42402
USER: genes 8 Torsion [CA]-CB--CG-[CD] |==|  0.33558
USER: genes 9 Torsion [CB]-CG--CD-[NE] |==|  0.84281
USER: genes 10 Torsion [CG]-CD--NE-[CZ] |==|  0.51462
USER: genes 11 Torsion [N]-CA--CB-[OG1] |==|  0.87365
USER: genes 12 Torsion [CA]-CB--OG1-[HG1] |==|  0.25685
USER: genes 13 Torsion [N]-CA--C-[N] |==|  0.79713
USER: genes 14 Torsion [C]-N--CA-[CB] |==|  0.44642
USER: genes 15 Torsion [N]-CA--C-[N] |==|  0.18304
USER: genes 16 Torsion [C]-N--CA-[CB] |==|  0.22700
USER: genes 17 Torsion [N]-CA--C-[N] |==|  0.00634
USER: genes 18 Torsion [C]-N--CA-[CB] |==|  0.84577
USER: genes 19 Torsion [N]-CA--CB-[CG2] |==|  0.41438
USER: genes 20 Torsion [CA]-CB--OG1-[HG1] |==|  0.47270
USER: genes 21 Torsion [N]-CA--C-[N] |==|  0.37534
USER: genes 22 Torsion [C]-N--CA-[C] |==|  0.19621
USER: genes 23 Torsion [N]-CA--C-[O] |==|  0.20370
ROOT
ATOM      1  CA  THR G   3      17.545  36.871  38.281  1.00 68.23 LIG 0.20  C 
ENDROOT
BRANCH 1 2
ATOM      2  N   THR G   3      18.504  37.888  38.701  1.00 68.42 LIG-0.34  N 
ATOM      3  C   ARG G   2      18.330  38.655  39.774  1.00 70.38 LIG 0.24  C 
ATOM      4 O    ARG G   2      17.298  38.660  40.454  1.00 69.46 LIG-0.27  OA
ATOM      5 H    THR G   3      19.193  37.944  38.189  1.00 68.42 LIG 0.16  HD
BRANCH 3 6
ATOM      6  CA  ARG G   2      19.493  39.580  40.118  1.00 72.62 LIG 0.18  C 
BRANCH 6 7
ATOM      7  N   ARG G   2      20.738  38.977  39.651  1.00 74.86 LIG-0.35  N 
ATOM      8  C   ALA G   1      21.166  37.798  40.097  1.00 76.29 LIG 0.25  C 
ATOM      9 O    ALA G   1      20.657  37.205  41.053  1.00 75.70 LIG-0.27  OA
ATOM     10 H    ARG G   2      21.162  39.449  39.069  1.00 74.86 LIG 0.16  HD
BRANCH 8 11
ATOM     11  CA  ALA G   1      22.355  37.199  39.363  1.00 78.97 LIG 0.27  C 
ATOM     12  CB  ALA G   1      23.581  38.087  39.551  1.00 79.33 LIG 0.05  C 
BRANCH 11 13
ATOM     13  N   ALA G   1      22.046  37.029  37.917  1.00 81.42 LIG-0.07  N 
ATOM     14 H3   ALA G   1      21.468  36.359  37.813  1.00 81.42 LIG 0.28  HD
ATOM     15 H2   ALA G   1      22.795  36.846  37.472  1.00 81.42 LIG 0.28  HD
ATOM     16 H1   ALA G   1      21.689  37.780  37.599  1.00 81.42 LIG 0.28  HD
ENDBRANCH 11 13
ENDBRANCH 8 11
ENDBRANCH 6 7
BRANCH 6 17
ATOM     17  CB  ARG G   2      19.290  40.966  39.497  1.00 73.45 LIG 0.04  C 
BRANCH 17 18
ATOM     18  CG  ARG G   2      19.977  42.075  40.274  1.00 75.79 LIG 0.02  C 
BRANCH 18 19
ATOM     19  CD  ARG G   2      20.993  42.830  39.431  1.00 77.52 LIG 0.14  C 
BRANCH 19 20
ATOM     20  NE  ARG G   2      22.000  41.925  38.873  1.00 80.25 LIG-0.23  N 
ATOM     21  CZ  ARG G   2      23.078  42.295  38.173  1.00 82.01 LIG 0.67  C 
ATOM     22  NH1 ARG G   2      23.336  43.579  37.913  1.00 81.47 LIG-0.23  N 
ATOM     23  NH2 ARG G   2      23.913  41.364  37.720  1.00 84.93 LIG-0.23  N 
ATOM     24 1HH1 ARG G   2      22.802  44.191  38.197  1.00 81.47 LIG 0.17  HD
ATOM     25 2HH1 ARG G   2      24.036  43.794  37.461  1.00 81.47 LIG 0.17  HD
ATOM     26 2HH2 ARG G   2      24.609  41.593  37.269  1.00 84.93 LIG 0.17  HD
ATOM     27 1HH2 ARG G   2      23.757  40.533  37.877  1.00 84.93 LIG 0.17  HD
ATOM     28 HE   ARG G   2      21.889  41.082  39.006  1.00 80.25 LIG 0.18  HD
ENDBRANCH 19 20
ENDBRANCH 18 19
ENDBRANCH 17 18
ENDBRANCH 6 17
ENDBRANCH 3 6
ENDBRANCH 1 2
BRANCH 1 29
ATOM     29  CB  THR G   3      18.014  36.124  37.010  1.00 68.23 LIG 0.15  C 
ATOM     30  CG2 THR G   3      16.879  35.315  36.411  1.00 68.63 LIG 0.04  C 
BRANCH 29 31
ATOM     31 OG1  THR G   3      18.499  37.059  36.039  1.00 67.51 LIG-0.39  OA
ATOM     32 HG1  THR G   3      19.328  37.155  36.132  1.00 67.51 LIG 0.21  HD
ENDBRANCH 29 31
ENDBRANCH 1 29
BRANCH 1 33
ATOM     33  C   THR G   3      17.317  35.863  39.402  1.00 68.02 LIG 0.24  C 
ATOM     34  N   ALA G   4      18.316  35.011  39.626  1.00 68.86 LIG-0.35  N 
ATOM     35 H    ALA G   4      19.030  34.982  39.147  1.00 68.86 LIG 0.16  HD
ATOM     36 O    THR G   3      16.264  35.857  40.043  1.00 67.54 LIG-0.27  OA
BRANCH 34 37
ATOM     37  CA  ALA G   4      18.293  34.033  40.717  1.00 69.75 LIG 0.17  C 
ATOM     38  CB  ALA G   4      19.294  32.923  40.444  1.00 70.86 LIG 0.04  C 
BRANCH 37 39
ATOM     39  C   ALA G   4      18.560  34.666  42.089  1.00 71.43 LIG 0.24  C 
ATOM     40  N   ALA G   5      17.642  35.521  42.545  1.00 71.85 LIG-0.35  N 
ATOM     41 H    ALA G   5      16.957  35.769  42.088  1.00 71.85 LIG 0.16  HD
ATOM     42 O    ALA G   4      19.583  34.376  42.716  1.00 72.80 LIG-0.27  OA
BRANCH 40 43
ATOM     43  CA  ALA G   5      17.719  36.122  43.881  1.00 72.89 LIG 0.17  C 
ATOM     44  CB  ALA G   5      18.663  37.317  43.874  1.00 72.65 LIG 0.04  C 
BRANCH 43 45
ATOM     45  C   ALA G   5      16.340  36.536  44.406  1.00 72.87 LIG 0.24  C 
ATOM     46  N   THR G   6      15.290  36.261  43.627  1.00 71.86 LIG-0.34  N 
ATOM     47 H    THR G   6      15.354  35.883  42.857  1.00 71.86 LIG 0.16  HD
ATOM     48 O    ALA G   5      16.238  37.096  45.500  1.00 74.40 LIG-0.27  OA
BRANCH 46 49
ATOM     49  CA  THR G   6      13.910  36.584  44.027  1.00 72.17 LIG 0.20  C 
BRANCH 49 50
ATOM     50  CB  THR G   6      13.532  35.964  45.392  1.00 71.29 LIG 0.15  C 
ATOM     51  CG2 THR G   6      12.520  36.840  46.126  1.00 70.64 LIG 0.04  C 
BRANCH 50 52
ATOM     52 OG1  THR G   6      12.983  34.654  45.201  1.00 70.47 LIG-0.39  OA
ATOM     53 HG1  THR G   6      12.905  34.272  45.945  1.00 70.47 LIG 0.21  HD
ENDBRANCH 50 52
ENDBRANCH 49 50
BRANCH 49 54
ATOM     54  C   THR G   6      13.650  38.096  44.074  1.00 73.53 LIG 0.24  C 
ATOM     55  N   ALA G   7      12.513  38.532  43.523  1.00 73.25 LIG-0.35  N 
ATOM     56 H    ALA G   7      11.978  38.023  43.081  1.00 73.25 LIG 0.16  HD
ATOM     57 O    THR G   6      14.481  38.846  44.592  1.00 75.15 LIG-0.27  OA
BRANCH 55 58
ATOM     58  CA  ALA G   7      12.059  39.927  43.617  1.00 74.45 LIG 0.16  C 
ATOM     59  CB  ALA G   7      12.065  40.392  45.066  1.00 73.04 LIG 0.04  C 
BRANCH 58 60
ATOM     60  C   ALA G   7      12.941  40.840  42.766  1.00 76.13 LIG 0.22  C 
ATOM     61 O    ALA G   7      12.862  40.835  41.537  1.00 77.97 LIG-0.29  OA
ENDBRANCH 58 60
ENDBRANCH 55 58
ENDBRANCH 49 54
ENDBRANCH 46 49
ENDBRANCH 43 45
ENDBRANCH 40 43
ENDBRANCH 37 39
ENDBRANCH 34 37
ENDBRANCH 1 33
TORSDOF 22
ENDMDL
MODEL 34
USER: ADFR SOLUTION from run 66
USER: SCORE 18.159762 LL:  -4.006 LR: -16.277 RR:   0.000 FEB:  -9.714
USER: RMSD 5.736983
USER: SEED 65
USER: STATUS searching
USER: GENES 24
USER: genes 0 Translation |==|  0.51245 0.40993 0.23234
USER: genes 1 Rotation |==|  0.60154 0.35384 0.44032 0.96343
USER: genes 2 Torsion [CB]-CA--N-[C] |==|  0.81111
USER: genes 3 Torsion [N]-C--CA-[N] |==|  0.07403
USER: genes 4 Torsion [C]-CA--N-[C] |==|  0.16827
USER: genes 5 Torsion [N]-C--CA-[N] |==|  0.25138
USER: genes 6 Torsion [C]-CA--N-[H1] |==|  0.51342
USER: genes 7 Torsion [C]-CA--CB-[CG] |==|  0.31008
USER: genes 8 Torsion [CA]-CB--CG-[CD] |==|  0.33886
USER: genes 9 Torsion [CB]-CG--CD-[NE] |==|  0.69720
USER: genes 10 Torsion [CG]-CD--NE-[CZ] |==|  0.25331
USER: genes 11 Torsion [N]-CA--CB-[OG1] |==|  0.18012
USER: genes 12 Torsion [CA]-CB--OG1-[HG1] |==|  0.71103
USER: genes 13 Torsion [N]-CA--C-[N] |==|  0.05361
USER: genes 14 Torsion [C]-N--CA-[CB] |==|  0.76040
USER: genes 15 Torsion [N]-CA--C-[N] |==|  0.10442
USER: genes 16 Torsion [C]-N--CA-[CB] |==|  0.52872
USER: genes 17 Torsion [N]-CA--C-[N] |==|  0.35623
USER: genes 18 Torsion [C]-N--CA-[CB] |==|  0.87715
USER: genes 19 Torsion [N]-CA--CB-[CG2] |==|  0.55092
USER: genes 20 Torsion [CA]-CB--OG1-[HG1] |==|  0.93350
USER: genes 21 Torsion [N]-CA--C-[N] |==|  0.87778
USER: genes 22 Torsion [C]-N--CA-[C] |==|  0.53206
USER: genes 23 Torsion [N]-CA--C-[O] |==|  0.95452
ROOT
ATOM      1  CA  THR G   3      18.418  36.533  37.743  1.00 68.23 LIG 0.20  C 
ENDROOT
BRANCH 1 2
ATOM      2  N   THR G   3      19.567  35.770  38.221  1.00 68.42 LIG-0.34  N 
ATOM      3  C   ARG G   2      19.510  34.944  39.263  1.00 70.38 LIG 0.24  C 
ATOM      4 O    ARG G   2      18.518  34.823  39.990  1.00 69.46 LIG-0.27  OA
ATOM      5 H    THR G   3      20.284  35.905  37.767  1.00 68.42 LIG 0.16  HD
BRANCH 3 6
ATOM      6  CA  ARG G   2      20.781  34.148  39.542  1.00 72.62 LIG 0.18  C 
BRANCH 6 7
ATOM      7  N   ARG G   2      21.932  34.893  39.039  1.00 74.86 LIG-0.35  N 
ATOM      8  C   ALA G   1      22.243  36.106  39.489  1.00 76.29 LIG 0.25  C 
ATOM      9 O    ALA G   1      21.507  36.771  40.223  1.00 75.70 LIG-0.27  OA
ATOM     10 H    ARG G   2      22.382  34.479  38.433  1.00 74.86 LIG 0.16  HD
BRANCH 8 11
ATOM     11  CA  ALA G   1      23.584  36.661  39.035  1.00 78.97 LIG 0.27  C 
ATOM     12  CB  ALA G   1      24.180  37.536  40.132  1.00 79.33 LIG 0.05  C 
BRANCH 11 13
ATOM     13  N   ALA G   1      23.431  37.433  37.771  1.00 81.42 LIG-0.07  N 
ATOM     14 H3   ALA G   1      22.924  38.149  37.919  1.00 81.42 LIG 0.28  HD
ATOM     15 H2   ALA G   1      23.045  36.919  37.155  1.00 81.42 LIG 0.28  HD
ATOM     16 H1   ALA G   1      24.232  37.691  37.481  1.00 81.42 LIG 0.28  HD
ENDBRANCH 11 13
ENDBRANCH 8 11
ENDBRANCH 6 7
BRANCH 6 17
ATOM     17  CB  ARG G   2      20.928  33.863  41.040  1.00 73.45 LIG 0.04  C 
BRANCH 17 18
ATOM     18  CG  ARG G   2      20.764  32.393  41.387  1.00 75.79 LIG 0.02  C 
BRANCH 18 19
ATOM     19  CD  ARG G   2      21.986  31.825  42.093  1.00 77.52 LIG 0.14  C 
BRANCH 19 20
ATOM     20  NE  ARG G   2      22.723  30.903  41.224  1.00 80.25 LIG-0.23  N 
ATOM     21  CZ  ARG G   2      23.728  31.238  40.409  1.00 82.01 LIG 0.67  C 
ATOM     22  NH1 ARG G   2      24.162  32.497  40.313  1.00 81.47 LIG-0.23  N 
ATOM     23  NH2 ARG G   2      24.309  30.297  39.669  1.00 84.93 LIG-0.23  N 
ATOM     24 1HH1 ARG G   2      23.793  33.116  40.782  1.00 81.47 LIG 0.17  HD
ATOM     25 2HH1 ARG G   2      24.811  32.689  39.781  1.00 81.47 LIG 0.17  HD
ATOM     26 2HH2 ARG G   2      24.957  30.502  39.142  1.00 84.93 LIG 0.17  HD
ATOM     27 1HH2 ARG G   2      24.037  29.482  39.718  1.00 84.93 LIG 0.17  HD
ATOM     28 HE   ARG G   2      22.489  30.076  41.241  1.00 80.25 LIG 0.18  HD
ENDBRANCH 19 20
ENDBRANCH 18 19
ENDBRANCH 17 18
ENDBRANCH 6 17
ENDBRANCH 3 6
ENDBRANCH 1 2
BRANCH 1 29
ATOM     29  CB  THR G   3      17.333  35.618  37.129  1.00 68.23 LIG 0.15  C 
ATOM     30  CG2 THR G   3      17.910  34.775  36.006  1.00 68.63 LIG 0.04  C 
BRANCH 29 31
ATOM     31 OG1  THR G   3      16.783  34.759  38.136  1.00 67.51 LIG-0.39  OA
ATOM     32 HG1  THR G   3      17.094  33.984  38.044  1.00 67.51 LIG 0.21  HD
ENDBRANCH 29 31
ENDBRANCH 1 29
BRANCH 1 33
ATOM     33  C   THR G   3      17.808  37.342  38.882  1.00 68.02 LIG 0.24  C 
ATOM     34  N   ALA G   4      18.597  37.544  39.936  1.00 68.86 LIG-0.35  N 
ATOM     35 H    ALA G   4      19.385  37.207  40.009  1.00 68.86 LIG 0.16  HD
ATOM     36 O    THR G   3      16.653  37.766  38.808  1.00 67.54 LIG-0.27  OA
BRANCH 34 37
ATOM     37  CA  ALA G   4      18.195  38.368  41.080  1.00 69.75 LIG 0.17  C 
ATOM     38  CB  ALA G   4      18.521  39.827  40.811  1.00 70.86 LIG 0.04  C 
BRANCH 37 39
ATOM     39  C   ALA G   4      16.710  38.210  41.433  1.00 71.43 LIG 0.24  C 
ATOM     40  N   ALA G   5      16.192  36.986  41.314  1.00 71.85 LIG-0.35  N 
ATOM     41 H    ALA G   5      16.627  36.315  41.000  1.00 71.85 LIG 0.16  HD
ATOM     42 O    ALA G   4      16.056  39.187  41.808  1.00 72.80 LIG-0.27  OA
BRANCH 40 43
ATOM     43  CA  ALA G   5      14.815  36.671  41.713  1.00 72.89 LIG 0.17  C 
ATOM     44  CB  ALA G   5      14.589  35.165  41.702  1.00 72.65 LIG 0.04  C 
BRANCH 43 45
ATOM     45  C   ALA G   5      14.466  37.252  43.087  1.00 72.87 LIG 0.24  C 
ATOM     46  N   THR G   6      13.351  37.984  43.167  1.00 71.86 LIG-0.34  N 
ATOM     47 H    THR G   6      12.842  38.151  42.495  1.00 71.86 LIG 0.16  HD
ATOM     48 O    ALA G   5      15.200  37.036  44.054  1.00 74.40 LIG-0.27  OA
BRANCH 46 49
ATOM     49  CA  THR G   6      12.891  38.577  44.434  1.00 72.17 LIG 0.20  C 
BRANCH 49 50
ATOM     50  CB  THR G   6      12.988  37.587  45.618  1.00 71.29 LIG 0.15  C 
ATOM     51  CG2 THR G   6      12.112  38.043  46.782  1.00 70.64 LIG 0.04  C 
BRANCH 50 52
ATOM     52 OG1  THR G   6      12.583  36.279  45.197  1.00 70.47 LIG-0.39  OA
ATOM     53 HG1  THR G   6      12.078  36.343  44.529  1.00 70.47 LIG 0.21  HD
ENDBRANCH 50 52
ENDBRANCH 49 50
BRANCH 49 54
ATOM     54  C   THR G   6      13.651  39.862  44.793  1.00 73.53 LIG 0.24  C 
ATOM     55  N   ALA G   7      14.978  39.845  44.632  1.00 73.25 LIG-0.35  N 
ATOM     56 H    ALA G   7      15.418  39.136  44.423  1.00 73.25 LIG 0.16  HD
ATOM     57 O    THR G   6      13.035  40.841  45.220  1.00 75.15 LIG-0.27  OA
BRANCH 55 58
ATOM     58  CA  ALA G   7      15.821  41.037  44.795  1.00 74.45 LIG 0.16  C 
ATOM     59  CB  ALA G   7      15.871  41.459  46.257  1.00 73.04 LIG 0.04  C 
BRANCH 58 60
ATOM     60  C   ALA G   7      17.234  40.774  44.275  1.00 76.13 LIG 0.22  C 
ATOM     61 O    ALA G   7      17.635  39.626  44.078  1.00 77.97 LIG-0.29  OA
ENDBRANCH 58 60
ENDBRANCH 55 58
ENDBRANCH 49 54
ENDBRANCH 46 49
ENDBRANCH 43 45
ENDBRANCH 40 43
ENDBRANCH 37 39
ENDBRANCH 34 37
ENDBRANCH 1 33
TORSDOF 22
ENDMDL
MODEL 35
USER: ADFR SOLUTION from run 113
USER: SCORE 16.988246 LL:  -2.754 LR: -16.229 RR:   0.000 FEB:  -9.667
USER: RMSD 5.099012
USER: SEED 112
USER: STATUS no improvement in best in 27 clusters for 5 generations
USER: GENES 24
USER: genes 0 Translation |==|  0.31861 0.40982 0.43880
USER: genes 1 Rotation |==|  0.67016 0.57885 0.55341 0.96041
USER: genes 2 Torsion [CB]-CA--N-[C] |==|  0.48580
USER: genes 3 Torsion [N]-C--CA-[N] |==|  0.21499
USER: genes 4 Torsion [C]-CA--N-[C] |==|  0.69444
USER: genes 5 Torsion [N]-C--CA-[N] |==|  0.19596
USER: genes 6 Torsion [C]-CA--N-[H1] |==|  0.52074
USER: genes 7 Torsion [C]-CA--CB-[CG] |==|  0.51813
USER: genes 8 Torsion [CA]-CB--CG-[CD] |==|  0.89646
USER: genes 9 Torsion [CB]-CG--CD-[NE] |==|  0.45872
USER: genes 10 Torsion [CG]-CD--NE-[CZ] |==|  0.53643
USER: genes 11 Torsion [N]-CA--CB-[OG1] |==|  0.60164
USER: genes 12 Torsion [CA]-CB--OG1-[HG1] |==|  0.64538
USER: genes 13 Torsion [N]-CA--C-[N] |==|  0.49166
USER: genes 14 Torsion [C]-N--CA-[CB] |==|  0.86601
USER: genes 15 Torsion [N]-CA--C-[N] |==|  0.37303
USER: genes 16 Torsion [C]-N--CA-[CB] |==|  0.85283
USER: genes 17 Torsion [N]-CA--C-[N] |==|  0.40134
USER: genes 18 Torsion [C]-N--CA-[CB] |==|  0.23487
USER: genes 19 Torsion [N]-CA--CB-[CG2] |==|  0.16881
USER: genes 20 Torsion [CA]-CB--OG1-[HG1] |==|  0.37193
USER: genes 21 Torsion [N]-CA--C-[N] |==|  0.01777
USER: genes 22 Torsion [C]-N--CA-[C] |==|  0.80713
USER: genes 23 Torsion [N]-CA--C-[O] |==|  0.12397
ROOT
ATOM      1  CA  THR G   3      14.057  36.531  41.924  1.00 68.23 LIG 0.20  C 
ENDROOT
BRANCH 1 2
ATOM      2  N   THR G   3      15.368  36.754  41.324  1.00 68.42 LIG-0.34  N 
ATOM      3  C   ARG G   2      15.983  37.934  41.334  1.00 70.38 LIG 0.24  C 
ATOM      4 O    ARG G   2      15.463  38.975  41.752  1.00 69.46 LIG-0.27  OA
ATOM      5 H    THR G   3      15.706  36.051  40.963  1.00 68.42 LIG 0.16  HD
BRANCH 3 6
ATOM      6  CA  ARG G   2      17.396  37.946  40.760  1.00 72.62 LIG 0.18  C 
BRANCH 6 7
ATOM      7  N   ARG G   2      17.320  37.925  39.302  1.00 74.86 LIG-0.35  N 
ATOM      8  C   ALA G   1      17.682  36.862  38.588  1.00 76.29 LIG 0.25  C 
ATOM      9 O    ALA G   1      18.269  35.886  39.067  1.00 75.70 LIG-0.27  OA
ATOM     10 H    ARG G   2      17.023  38.654  38.954  1.00 74.86 LIG 0.16  HD
BRANCH 8 11
ATOM     11  CA  ALA G   1      17.341  36.906  37.107  1.00 78.97 LIG 0.27  C 
ATOM     12  CB  ALA G   1      17.515  35.521  36.494  1.00 79.33 LIG 0.05  C 
BRANCH 11 13
ATOM     13  N   ALA G   1      18.194  37.904  36.403  1.00 81.42 LIG-0.07  N 
ATOM     14 H3   ALA G   1      19.039  37.625  36.402  1.00 81.42 LIG 0.28  HD
ATOM     15 H2   ALA G   1      18.141  38.687  36.822  1.00 81.42 LIG 0.28  HD
ATOM     16 H1   ALA G   1      17.912  37.997  35.564  1.00 81.42 LIG 0.28  HD
ENDBRANCH 11 13
ENDBRANCH 8 11
ENDBRANCH 6 7
BRANCH 6 17
ATOM     17  CB  ARG G   2      18.174  39.171  41.250  1.00 73.45 LIG 0.04  C 
BRANCH 17 18
ATOM     18  CG  ARG G   2      19.533  39.320  40.587  1.00 75.79 LIG 0.02  C 
BRANCH 18 19
ATOM     19  CD  ARG G   2      20.213  37.980  40.353  1.00 77.52 LIG 0.14  C 
BRANCH 19 20
ATOM     20  NE  ARG G   2      21.334  38.107  39.417  1.00 80.25 LIG-0.23  N 
ATOM     21  CZ  ARG G   2      21.968  37.093  38.821  1.00 82.01 LIG 0.67  C 
ATOM     22  NH1 ARG G   2      21.620  35.823  39.039  1.00 81.47 LIG-0.23  N 
ATOM     23  NH2 ARG G   2      22.977  37.352  37.992  1.00 84.93 LIG-0.23  N 
ATOM     24 1HH1 ARG G   2      20.972  35.642  39.576  1.00 81.47 LIG 0.17  HD
ATOM     25 2HH1 ARG G   2      22.042  35.187  38.644  1.00 81.47 LIG 0.17  HD
ATOM     26 2HH2 ARG G   2      23.391  36.706  37.603  1.00 84.93 LIG 0.17  HD
ATOM     27 1HH2 ARG G   2      23.215  38.166  37.844  1.00 84.93 LIG 0.17  HD
ATOM     28 HE   ARG G   2      21.606  38.903  39.236  1.00 80.25 LIG 0.18  HD
ENDBRANCH 19 20
ENDBRANCH 18 19
ENDBRANCH 17 18
ENDBRANCH 6 17
ENDBRANCH 3 6
ENDBRANCH 1 2
BRANCH 1 29
ATOM     29  CB  THR G   3      13.533  35.100  41.652  1.00 68.23 LIG 0.15  C 
ATOM     30  CG2 THR G   3      13.861  34.178  42.811  1.00 68.63 LIG 0.04  C 
BRANCH 29 31
ATOM     31 OG1  THR G   3      12.115  35.124  41.447  1.00 67.51 LIG-0.39  OA
ATOM     32 HG1  THR G   3      11.749  34.566  41.956  1.00 67.51 LIG 0.21  HD
ENDBRANCH 29 31
ENDBRANCH 1 29
BRANCH 1 33
ATOM     33  C   THR G   3      14.116  36.767  43.429  1.00 68.02 LIG 0.24  C 
ATOM     34  N   ALA G   4      12.959  36.653  44.079  1.00 68.86 LIG-0.35  N 
ATOM     35 H    ALA G   4      12.208  36.506  43.687  1.00 68.86 LIG 0.16  HD
ATOM     36 O    THR G   3      15.180  37.048  43.983  1.00 67.54 LIG-0.27  OA
BRANCH 34 37
ATOM     37  CA  ALA G   4      12.855  36.769  45.536  1.00 69.75 LIG 0.17  C 
ATOM     38  CB  ALA G   4      13.912  35.906  46.205  1.00 70.86 LIG 0.04  C 
BRANCH 37 39
ATOM     39  C   ALA G   4      12.963  38.219  46.027  1.00 71.43 LIG 0.24  C 
ATOM     40  N   ALA G   5      12.071  38.612  46.938  1.00 71.85 LIG-0.35  N 
ATOM     41 H    ALA G   5      11.420  38.119  47.208  1.00 71.85 LIG 0.16  HD
ATOM     42 O    ALA G   4      13.846  38.959  45.583  1.00 72.80 LIG-0.27  OA
BRANCH 40 43
ATOM     43  CA  ALA G   5      12.118  39.937  47.567  1.00 72.89 LIG 0.17  C 
ATOM     44  CB  ALA G   5      13.495  40.194  48.164  1.00 72.65 LIG 0.04  C 
BRANCH 43 45
ATOM     45  C   ALA G   5      11.745  41.054  46.587  1.00 72.87 LIG 0.24  C 
ATOM     46  N   THR G   6      11.063  42.089  47.083  1.00 71.86 LIG-0.34  N 
ATOM     47 H    THR G   6      10.817  42.148  47.905  1.00 71.86 LIG 0.16  HD
ATOM     48 O    ALA G   5      12.075  40.972  45.402  1.00 74.40 LIG-0.27  OA
BRANCH 46 49
ATOM     49  CA  THR G   6      10.666  43.239  46.252  1.00 72.17 LIG 0.20  C 
BRANCH 49 50
ATOM     50  CB  THR G   6       9.343  42.988  45.492  1.00 71.29 LIG 0.15  C 
ATOM     51  CG2 THR G   6       8.195  42.736  46.467  1.00 70.64 LIG 0.04  C 
BRANCH 50 52
ATOM     52 OG1  THR G   6       9.031  44.115  44.665  1.00 70.47 LIG-0.39  OA
ATOM     53 HG1  THR G   6       8.805  43.849  43.901  1.00 70.47 LIG 0.21  HD
ENDBRANCH 50 52
ENDBRANCH 49 50
BRANCH 49 54
ATOM     54  C   THR G   6      10.538  44.536  47.065  1.00 73.53 LIG 0.24  C 
ATOM     55  N   ALA G   7      10.920  44.487  48.345  1.00 73.25 LIG-0.35  N 
ATOM     56 H    ALA G   7      11.147  43.758  48.742  1.00 73.25 LIG 0.16  HD
ATOM     57 O    THR G   6      10.086  45.552  46.533  1.00 75.15 LIG-0.27  OA
BRANCH 55 58
ATOM     58  CA  ALA G   7      10.991  45.676  49.207  1.00 74.45 LIG 0.16  C 
ATOM     59  CB  ALA G   7      11.174  45.268  50.662  1.00 73.04 LIG 0.04  C 
BRANCH 58 60
ATOM     60  C   ALA G   7      12.134  46.592  48.769  1.00 76.13 LIG 0.22  C 
ATOM     61 O    ALA G   7      12.319  46.852  47.579  1.00 77.97 LIG-0.29  OA
ENDBRANCH 58 60
ENDBRANCH 55 58
ENDBRANCH 49 54
ENDBRANCH 46 49
ENDBRANCH 43 45
ENDBRANCH 40 43
ENDBRANCH 37 39
ENDBRANCH 34 37
ENDBRANCH 1 33
TORSDOF 22
ENDMDL
MODEL 36
USER: ADFR SOLUTION from run 69
USER: SCORE 17.573321 LL:  -3.109 LR: -16.203 RR:   0.000 FEB:  -9.641
USER: RMSD 5.085950
USER: SEED 68
USER: STATUS no improvement in best in 17 clusters for 5 generations
USER: GENES 24
USER: genes 0 Translation |==|  0.45634 0.45725 0.26481
USER: genes 1 Rotation |==|  0.74497 0.44154 0.71277 0.87590
USER: genes 2 Torsion [CB]-CA--N-[C] |==|  0.78791
USER: genes 3 Torsion [N]-C--CA-[N] |==|  0.74070
USER: genes 4 Torsion [C]-CA--N-[C] |==|  0.71086
USER: genes 5 Torsion [N]-C--CA-[N] |==|  0.98217
USER: genes 6 Torsion [C]-CA--N-[H1] |==|  0.98963
USER: genes 7 Torsion [C]-CA--CB-[CG] |==|  0.42258
USER: genes 8 Torsion [CA]-CB--CG-[CD] |==|  0.35823
USER: genes 9 Torsion [CB]-CG--CD-[NE] |==|  0.85218
USER: genes 10 Torsion [CG]-CD--NE-[CZ] |==|  0.47414
USER: genes 11 Torsion [N]-CA--CB-[OG1] |==|  0.86267
USER: genes 12 Torsion [CA]-CB--OG1-[HG1] |==|  0.13744
USER: genes 13 Torsion [N]-CA--C-[N] |==|  0.17976
USER: genes 14 Torsion [C]-N--CA-[CB] |==|  0.15537
USER: genes 15 Torsion [N]-CA--C-[N] |==|  0.09308
USER: genes 16 Torsion [C]-N--CA-[CB] |==|  0.86569
USER: genes 17 Torsion [N]-CA--C-[N] |==|  0.82783
USER: genes 18 Torsion [C]-N--CA-[CB] |==|  0.85545
USER: genes 19 Torsion [N]-CA--CB-[CG2] |==|  0.53724
USER: genes 20 Torsion [CA]-CB--OG1-[HG1] |==|  0.20257
USER: genes 21 Torsion [N]-CA--C-[N] |==|  0.89137
USER: genes 22 Torsion [C]-N--CA-[C] |==|  0.62161
USER: genes 23 Torsion [N]-CA--C-[O] |==|  0.73562
ROOT
ATOM      1  CA  THR G   3      17.156  37.385  38.400  1.00 68.23 LIG 0.20  C 
ENDROOT
BRANCH 1 2
ATOM      2  N   THR G   3      18.260  38.146  38.975  1.00 68.42 LIG-0.34  N 
ATOM      3  C   ARG G   2      19.088  37.650  39.892  1.00 70.38 LIG 0.24  C 
ATOM      4 O    ARG G   2      18.939  36.544  40.424  1.00 69.46 LIG-0.27  OA
ATOM      5 H    THR G   3      18.326  38.945  38.666  1.00 68.42 LIG 0.16  HD
BRANCH 3 6
ATOM      6  CA  ARG G   2      20.249  38.555  40.289  1.00 72.62 LIG 0.18  C 
BRANCH 6 7
ATOM      7  N   ARG G   2      21.412  38.229  39.469  1.00 74.86 LIG-0.35  N 
ATOM      8  C   ALA G   1      22.440  37.530  39.943  1.00 76.29 LIG 0.25  C 
ATOM      9 O    ALA G   1      22.584  37.253  41.138  1.00 75.70 LIG-0.27  OA
ATOM     10 H    ARG G   2      21.370  38.527  38.663  1.00 74.86 LIG 0.16  HD
BRANCH 8 11
ATOM     11  CA  ALA G   1      23.470  37.080  38.918  1.00 78.97 LIG 0.27  C 
ATOM     12  CB  ALA G   1      24.812  37.742  39.209  1.00 79.33 LIG 0.05  C 
BRANCH 11 13
ATOM     13  N   ALA G   1      23.012  37.404  37.539  1.00 81.42 LIG-0.07  N 
ATOM     14 H3   ALA G   1      22.998  36.661  37.048  1.00 81.42 LIG 0.28  HD
ATOM     15 H2   ALA G   1      23.569  37.992  37.171  1.00 81.42 LIG 0.28  HD
ATOM     16 H1   ALA G   1      22.193  37.752  37.572  1.00 81.42 LIG 0.28  HD
ENDBRANCH 11 13
ENDBRANCH 8 11
ENDBRANCH 6 7
BRANCH 6 17
ATOM     17  CB  ARG G   2      19.868  40.031  40.136  1.00 73.45 LIG 0.04  C 
BRANCH 17 18
ATOM     18  CG  ARG G   2      20.626  40.946  41.082  1.00 75.79 LIG 0.02  C 
BRANCH 18 19
ATOM     19  CD  ARG G   2      21.273  42.118  40.361  1.00 77.52 LIG 0.14  C 
BRANCH 19 20
ATOM     20  NE  ARG G   2      22.108  41.663  39.246  1.00 80.25 LIG-0.23  N 
ATOM     21  CZ  ARG G   2      22.664  42.449  38.319  1.00 82.01 LIG 0.67  C 
ATOM     22  NH1 ARG G   2      22.495  43.774  38.332  1.00 81.47 LIG-0.23  N 
ATOM     23  NH2 ARG G   2      23.399  41.902  37.355  1.00 84.93 LIG-0.23  N 
ATOM     24 1HH1 ARG G   2      22.019  44.141  38.947  1.00 81.47 LIG 0.17  HD
ATOM     25 2HH1 ARG G   2      22.863  44.260  37.725  1.00 81.47 LIG 0.17  HD
ATOM     26 2HH2 ARG G   2      23.761  42.399  36.754  1.00 84.93 LIG 0.17  HD
ATOM     27 1HH2 ARG G   2      23.513  41.049  37.332  1.00 84.93 LIG 0.17  HD
ATOM     28 HE   ARG G   2      22.252  40.818  39.183  1.00 80.25 LIG 0.18  HD
ENDBRANCH 19 20
ENDBRANCH 18 19
ENDBRANCH 17 18
ENDBRANCH 6 17
ENDBRANCH 3 6
ENDBRANCH 1 2
BRANCH 1 29
ATOM     29  CB  THR G   3      17.646  36.356  37.354  1.00 68.23 LIG 0.15  C 
ATOM     30  CG2 THR G   3      16.474  35.742  36.611  1.00 68.63 LIG 0.04  C 
BRANCH 29 31
ATOM     31 OG1  THR G   3      18.528  36.988  36.417  1.00 67.51 LIG-0.39  OA
ATOM     32 HG1  THR G   3      19.112  37.424  36.833  1.00 67.51 LIG 0.21  HD
ENDBRANCH 29 31
ENDBRANCH 1 29
BRANCH 1 33
ATOM     33  C   THR G   3      16.386  36.658  39.498  1.00 68.02 LIG 0.24  C 
ATOM     34  N   ALA G   4      15.761  37.435  40.379  1.00 68.86 LIG-0.35  N 
ATOM     35 H    ALA G   4      15.816  38.294  40.377  1.00 68.86 LIG 0.16  HD
ATOM     36 O    THR G   3      16.365  35.426  39.545  1.00 67.54 LIG-0.27  OA
BRANCH 34 37
ATOM     37  CA  ALA G   4      14.912  36.899  41.447  1.00 69.75 LIG 0.17  C 
ATOM     38  CB  ALA G   4      15.697  35.907  42.289  1.00 70.86 LIG 0.04  C 
BRANCH 37 39
ATOM     39  C   ALA G   4      14.311  37.994  42.337  1.00 71.43 LIG 0.24  C 
ATOM     40  N   ALA G   5      14.014  39.153  41.745  1.00 71.85 LIG-0.35  N 
ATOM     41 H    ALA G   5      14.196  39.326  40.922  1.00 71.85 LIG 0.16  HD
ATOM     42 O    ALA G   4      14.123  37.782  43.538  1.00 72.80 LIG-0.27  OA
BRANCH 40 43
ATOM     43  CA  ALA G   5      13.344  40.251  42.451  1.00 72.89 LIG 0.17  C 
ATOM     44  CB  ALA G   5      12.127  39.733  43.207  1.00 72.65 LIG 0.04  C 
BRANCH 43 45
ATOM     45  C   ALA G   5      14.292  40.984  43.407  1.00 72.87 LIG 0.24  C 
ATOM     46  N   THR G   6      14.813  40.268  44.407  1.00 71.86 LIG-0.34  N 
ATOM     47 H    THR G   6      14.634  39.438  44.543  1.00 71.86 LIG 0.16  HD
ATOM     48 O    ALA G   5      14.541  42.179  43.233  1.00 74.40 LIG-0.27  OA
BRANCH 46 49
ATOM     49  CA  THR G   6      15.757  40.847  45.378  1.00 72.17 LIG 0.20  C 
BRANCH 49 50
ATOM     50  CB  THR G   6      16.947  41.557  44.692  1.00 71.29 LIG 0.15  C 
ATOM     51  CG2 THR G   6      18.058  41.851  45.697  1.00 70.64 LIG 0.04  C 
BRANCH 50 52
ATOM     52 OG1  THR G   6      17.461  40.740  43.634  1.00 70.47 LIG-0.39  OA
ATOM     53 HG1  THR G   6      16.925  40.748  42.987  1.00 70.47 LIG 0.21  HD
ENDBRANCH 50 52
ENDBRANCH 49 50
BRANCH 49 54
ATOM     54  C   THR G   6      15.078  41.827  46.345  1.00 73.53 LIG 0.24  C 
ATOM     55  N   ALA G   7      14.141  42.631  45.832  1.00 73.25 LIG-0.35  N 
ATOM     56 H    ALA G   7      13.970  42.678  44.990  1.00 73.25 LIG 0.16  HD
ATOM     57 O    THR G   6      15.417  41.855  47.531  1.00 75.15 LIG-0.27  OA
BRANCH 55 58
ATOM     58  CA  ALA G   7      13.307  43.518  46.655  1.00 74.45 LIG 0.16  C 
ATOM     59  CB  ALA G   7      13.819  44.949  46.584  1.00 73.04 LIG 0.04  C 
BRANCH 58 60
ATOM     60  C   ALA G   7      11.847  43.458  46.205  1.00 76.13 LIG 0.22  C 
ATOM     61 O    ALA G   7      11.393  44.285  45.413  1.00 77.97 LIG-0.29  OA
ENDBRANCH 58 60
ENDBRANCH 55 58
ENDBRANCH 49 54
ENDBRANCH 46 49
ENDBRANCH 43 45
ENDBRANCH 40 43
ENDBRANCH 37 39
ENDBRANCH 34 37
ENDBRANCH 1 33
TORSDOF 22
ENDMDL
MODEL 37
USER: ADFR SOLUTION from run 15
USER: SCORE 17.998471 LL:  -3.841 LR: -16.150 RR:   0.000 FEB:  -9.587
USER: RMSD 8.409310
USER: SEED 463223
USER: STATUS no improvement in best in 12 clusters for 5 generations
USER: GENES 24
USER: genes 0 Translation |==|  0.50710 0.40113 0.21079
USER: genes 1 Rotation |==|  0.59591 0.32810 0.46946 0.95861
USER: genes 2 Torsion [CB]-CA--N-[C] |==|  0.79851
USER: genes 3 Torsion [N]-C--CA-[N] |==|  0.07222
USER: genes 4 Torsion [C]-CA--N-[C] |==|  0.16772
USER: genes 5 Torsion [N]-C--CA-[N] |==|  0.23898
USER: genes 6 Torsion [C]-CA--N-[H1] |==|  0.18180
USER: genes 7 Torsion [C]-CA--CB-[CG] |==|  0.57984
USER: genes 8 Torsion [CA]-CB--CG-[CD] |==|  0.71436
USER: genes 9 Torsion [CB]-CG--CD-[NE] |==|  0.25250
USER: genes 10 Torsion [CG]-CD--NE-[CZ] |==|  0.53001
USER: genes 11 Torsion [N]-CA--CB-[OG1] |==|  0.19069
USER: genes 12 Torsion [CA]-CB--OG1-[HG1] |==|  0.76921
USER: genes 13 Torsion [N]-CA--C-[N] |==|  0.11918
USER: genes 14 Torsion [C]-N--CA-[CB] |==|  0.17102
USER: genes 15 Torsion [N]-CA--C-[N] |==|  0.09790
USER: genes 16 Torsion [C]-N--CA-[CB] |==|  0.23134
USER: genes 17 Torsion [N]-CA--C-[N] |==|  0.55357
USER: genes 18 Torsion [C]-N--CA-[CB] |==|  0.84919
USER: genes 19 Torsion [N]-CA--CB-[CG2] |==|  0.54086
USER: genes 20 Torsion [CA]-CB--OG1-[HG1] |==|  0.24059
USER: genes 21 Torsion [N]-CA--C-[N] |==|  0.93300
USER: genes 22 Torsion [C]-N--CA-[C] |==|  0.50330
USER: genes 23 Torsion [N]-CA--C-[O] |==|  0.03512
ROOT
ATOM      1  CA  THR G   3      18.298  36.374  37.307  1.00 68.23 LIG 0.20  C 
ENDROOT
BRANCH 1 2
ATOM      2  N   THR G   3      19.432  35.737  37.969  1.00 68.42 LIG-0.34  N 
ATOM      3  C   ARG G   2      19.320  35.044  39.099  1.00 70.38 LIG 0.24  C 
ATOM      4 O    ARG G   2      18.274  34.962  39.753  1.00 69.46 LIG-0.27  OA
ATOM      5 H    THR G   3      20.179  35.853  37.560  1.00 68.42 LIG 0.16  HD
BRANCH 3 6
ATOM      6  CA  ARG G   2      20.594  34.356  39.579  1.00 72.62 LIG 0.18  C 
BRANCH 6 7
ATOM      7  N   ARG G   2      21.752  35.083  39.067  1.00 74.86 LIG-0.35  N 
ATOM      8  C   ALA G   1      21.976  36.361  39.366  1.00 76.29 LIG 0.25  C 
ATOM      9 O    ALA G   1      21.155  37.081  39.943  1.00 75.70 LIG-0.27  OA
ATOM     10 H    ARG G   2      22.266  34.615  38.561  1.00 74.86 LIG 0.16  HD
BRANCH 8 11
ATOM     11  CA  ALA G   1      23.327  36.917  38.944  1.00 78.97 LIG 0.27  C 
ATOM     12  CB  ALA G   1      23.743  38.038  39.889  1.00 79.33 LIG 0.05  C 
BRANCH 11 13
ATOM     13  N   ALA G   1      23.276  37.404  37.538  1.00 81.42 LIG-0.07  N 
ATOM     14 H3   ALA G   1      22.984  36.752  37.007  1.00 81.42 LIG 0.28  HD
ATOM     15 H2   ALA G   1      24.091  37.653  37.281  1.00 81.42 LIG 0.28  HD
ATOM     16 H1   ALA G   1      22.724  38.099  37.484  1.00 81.42 LIG 0.28  HD
ENDBRANCH 11 13
ENDBRANCH 8 11
ENDBRANCH 6 7
BRANCH 6 17
ATOM     17  CB  ARG G   2      20.629  34.280  41.109  1.00 73.45 LIG 0.04  C 
BRANCH 17 18
ATOM     18  CG  ARG G   2      22.039  34.277  41.674  1.00 75.79 LIG 0.02  C 
BRANCH 18 19
ATOM     19  CD  ARG G   2      22.486  32.890  42.110  1.00 77.52 LIG 0.14  C 
BRANCH 19 20
ATOM     20  NE  ARG G   2      23.162  32.180  41.021  1.00 80.25 LIG-0.23  N 
ATOM     21  CZ  ARG G   2      23.486  30.884  41.019  1.00 82.01 LIG 0.67  C 
ATOM     22  NH1 ARG G   2      23.211  30.092  42.059  1.00 81.47 LIG-0.23  N 
ATOM     23  NH2 ARG G   2      24.104  30.367  39.960  1.00 84.93 LIG-0.23  N 
ATOM     24 1HH1 ARG G   2      22.815  30.414  42.751  1.00 81.47 LIG 0.17  HD
ATOM     25 2HH1 ARG G   2      23.429  29.260  42.036  1.00 81.47 LIG 0.17  HD
ATOM     26 2HH2 ARG G   2      24.317  29.534  39.950  1.00 84.93 LIG 0.17  HD
ATOM     27 1HH2 ARG G   2      24.291  30.866  39.285  1.00 84.93 LIG 0.17  HD
ATOM     28 HE   ARG G   2      23.367  32.638  40.321  1.00 80.25 LIG 0.18  HD
ENDBRANCH 19 20
ENDBRANCH 18 19
ENDBRANCH 17 18
ENDBRANCH 6 17
ENDBRANCH 3 6
ENDBRANCH 1 2
BRANCH 1 29
ATOM     29  CB  THR G   3      17.368  35.339  36.631  1.00 68.23 LIG 0.15  C 
ATOM     30  CG2 THR G   3      18.157  34.422  35.715  1.00 68.63 LIG 0.04  C 
BRANCH 29 31
ATOM     31 OG1  THR G   3      16.695  34.557  37.626  1.00 67.51 LIG-0.39  OA
ATOM     32 HG1  THR G   3      17.197  33.932  37.877  1.00 67.51 LIG 0.21  HD
ENDBRANCH 29 31
ENDBRANCH 1 29
BRANCH 1 33
ATOM     33  C   THR G   3      17.493  37.196  38.308  1.00 68.02 LIG 0.24  C 
ATOM     34  N   ALA G   4      18.205  37.926  39.163  1.00 68.86 LIG-0.35  N 
ATOM     35 H    ALA G   4      19.065  37.911  39.198  1.00 68.86 LIG 0.16  HD
ATOM     36 O    THR G   3      16.261  37.163  38.306  1.00 67.54 LIG-0.27  OA
BRANCH 34 37
ATOM     37  CA  ALA G   4      17.588  38.833  40.135  1.00 69.75 LIG 0.17  C 
ATOM     38  CB  ALA G   4      16.703  38.050  41.090  1.00 70.86 LIG 0.04  C 
BRANCH 37 39
ATOM     39  C   ALA G   4      18.619  39.656  40.919  1.00 71.43 LIG 0.24  C 
ATOM     40  N   ALA G   5      19.712  40.037  40.255  1.00 71.85 LIG-0.35  N 
ATOM     41 H    ALA G   5      19.885  39.797  39.448  1.00 71.85 LIG 0.16  HD
ATOM     42 O    ALA G   4      18.416  39.937  42.104  1.00 72.80 LIG-0.27  OA
BRANCH 40 43
ATOM     43  CA  ALA G   5      20.731  40.911  40.849  1.00 72.89 LIG 0.17  C 
ATOM     44  CB  ALA G   5      21.704  40.097  41.693  1.00 72.65 LIG 0.04  C 
BRANCH 43 45
ATOM     45  C   ALA G   5      21.489  41.715  39.788  1.00 72.87 LIG 0.24  C 
ATOM     46  N   THR G   6      22.670  42.225  40.149  1.00 71.86 LIG-0.34  N 
ATOM     47 H    THR G   6      23.008  42.137  40.934  1.00 71.86 LIG 0.16  HD
ATOM     48 O    ALA G   5      21.006  41.865  38.664  1.00 74.40 LIG-0.27  OA
BRANCH 46 49
ATOM     49  CA  THR G   6      23.510  42.996  39.216  1.00 72.17 LIG 0.20  C 
BRANCH 49 50
ATOM     50  CB  THR G   6      23.800  42.223  37.908  1.00 71.29 LIG 0.15  C 
ATOM     51  CG2 THR G   6      24.944  42.873  37.134  1.00 70.64 LIG 0.04  C 
BRANCH 50 52
ATOM     52 OG1  THR G   6      24.135  40.863  38.207  1.00 70.47 LIG-0.39  OA
ATOM     53 HG1  THR G   6      23.433  40.405  38.260  1.00 70.47 LIG 0.21  HD
ENDBRANCH 50 52
ENDBRANCH 49 50
BRANCH 49 54
ATOM     54  C   THR G   6      22.901  44.361  38.866  1.00 73.53 LIG 0.24  C 
ATOM     55  N   ALA G   7      21.576  44.482  38.994  1.00 73.25 LIG-0.35  N 
ATOM     56 H    ALA G   7      21.057  43.821  39.178  1.00 73.25 LIG 0.16  HD
ATOM     57 O    THR G   6      23.629  45.276  38.474  1.00 75.15 LIG-0.27  OA
BRANCH 55 58
ATOM     58  CA  ALA G   7      20.868  45.761  38.836  1.00 74.45 LIG 0.16  C 
ATOM     59  CB  ALA G   7      21.116  46.338  37.449  1.00 73.04 LIG 0.04  C 
BRANCH 58 60
ATOM     60  C   ALA G   7      19.369  45.581  39.071  1.00 76.13 LIG 0.22  C 
ATOM     61 O    ALA G   7      18.924  44.547  39.572  1.00 77.97 LIG-0.29  OA
ENDBRANCH 58 60
ENDBRANCH 55 58
ENDBRANCH 49 54
ENDBRANCH 46 49
ENDBRANCH 43 45
ENDBRANCH 40 43
ENDBRANCH 37 39
ENDBRANCH 34 37
ENDBRANCH 1 33
TORSDOF 22
ENDMDL
