MODEL 1
USER: ADFR SOLUTION from run 200
USER: SCORE 9.052552 LL:  -2.344 LR:  -9.054 RR:   0.000 FEB:  -5.176
USER: RMSD 8.596656
USER: SEED 199
USER: STATUS no improvement in best in 50 clusters for 5 generations
USER: GENES 15
USER: genes 0 Translation |==|  0.82073 0.46136 0.72394
USER: genes 1 Rotation |==|  0.62738 0.61206 0.78436 0.87464
USER: genes 2 Torsion [CB]-CA--N-[C] |==|  0.84159
USER: genes 3 Torsion [N]-C--CA-[N] |==|  0.80430
USER: genes 4 Torsion [C]-CA--N-[C] |==|  0.53896
USER: genes 5 Torsion [N]-C--CA-[N] |==|  0.34391
USER: genes 6 Torsion [C]-CA--N-[C] |==|  0.80680
USER: genes 7 Torsion [N]-C--CA-[N] |==|  0.22796
USER: genes 8 Torsion [N]-CA--C-[N] |==|  0.01163
USER: genes 9 Torsion [C]-N--CA-[CB] |==|  0.83569
USER: genes 10 Torsion [N]-CA--C-[N] |==|  0.42785
USER: genes 11 Torsion [C]-N--CA-[CB] |==|  0.51714
USER: genes 12 Torsion [N]-CA--C-[N] |==|  0.39303
USER: genes 13 Torsion [C]-N--CA-[C] |==|  0.48245
USER: genes 14 Torsion [N]-CA--C-[O] |==|  0.77259
ROOT
ATOM      1  CA  ALA E  11       5.996  22.933   5.225  1.00 85.35 LIG 0.17  C 
ATOM      2  CB  ALA E  11       6.122  22.045   6.464  1.00 80.46 LIG 0.04  C 
ENDROOT
BRANCH 1 3
ATOM      3  N   ALA E  11       5.221  24.128   5.540  1.00 87.15 LIG-0.35  N 
ATOM      4  C   ALA E  10       3.982  24.020   6.028  1.00 62.15 LIG 0.24  C 
ATOM      5 O    ALA E  10       3.520  22.948   6.421  1.00 65.72 LIG-0.27  OA
ATOM      6 H    ALA E  11       5.622  24.873   5.388  1.00 87.15 LIG 0.16  HD
BRANCH 4 7
ATOM      7  CA  ALA E  10       3.138  25.288   6.092  1.00 66.45 LIG 0.17  C 
ATOM      8  CB  ALA E  10       3.117  25.981   4.730  1.00 58.63 LIG 0.04  C 
BRANCH 7 9
ATOM      9  N   ALA E  10       3.618  26.212   7.108  1.00 75.43 LIG-0.35  N 
ATOM     10  C   ALA E   9       2.905  27.249   7.541  1.00 82.21 LIG 0.24  C 
ATOM     11 O    ALA E   9       1.789  27.541   7.097  1.00 73.75 LIG-0.27  OA
ATOM     12 H    ALA E  10       4.405  26.026   7.402  1.00 75.43 LIG 0.16  HD
BRANCH 10 13
ATOM     13  CA  ALA E   9       3.556  28.106   8.619  1.00 87.65 LIG 0.17  C 
ATOM     14  CB  ALA E   9       2.792  28.002   9.937  1.00 72.21 LIG 0.04  C 
BRANCH 13 15
ATOM     15  N   ALA E   9       3.598  29.480   8.134  1.00 84.24 LIG-0.35  N 
ATOM     16 H    ALA E   9       3.069  30.016   8.549  1.00 84.24 LIG 0.16  HD
ATOM     17  C   ALA E   8       4.389  29.855   7.139  1.00 61.40 LIG 0.26  C 
ATOM     18 O    ALA E   8       5.208  29.100   6.619  1.00 66.21 LIG-0.27  OA
BRANCH 17 19
ATOM     19  CA  ALA E   8       4.258  31.305   6.681  1.00 67.03 LIG 0.40  C 
ATOM     20  N   ALA E   8       5.046  32.211   7.569  1.00 60.26 LIG 0.61  N 
ATOM     21  CB  ALA E   8       4.711  31.455   5.233  1.00 64.64 LIG 0.06  C 
ENDBRANCH 17 19
ENDBRANCH 13 15
ENDBRANCH 10 13
ENDBRANCH 7 9
ENDBRANCH 4 7
ENDBRANCH 1 3
BRANCH 1 22
ATOM     22  C   ALA E  11       5.374  22.151   4.076  1.00 81.78 LIG 0.24  C 
ATOM     23  N   ALA E  12       4.306  22.679   3.479  1.00 82.91 LIG-0.35  N 
ATOM     24 H    ALA E  12       4.010  23.474   3.619  1.00 82.91 LIG 0.16  HD
ATOM     25 O    ALA E  11       5.844  21.061   3.728  1.00 89.30 LIG-0.27  OA
BRANCH 23 26
ATOM     26  CA  ALA E  12       3.547  21.899   2.511  1.00 61.10 LIG 0.17  C 
ATOM     27  CB  ALA E  12       4.441  21.468   1.338  1.00 65.27 LIG 0.04  C 
BRANCH 26 28
ATOM     28  C   ALA E  12       2.921  20.685   3.177  1.00 54.59 LIG 0.24  C 
ATOM     29  N   ALA E  13       1.820  20.226   2.581  1.00 64.78 LIG-0.35  N 
ATOM     30 H    ALA E  13       1.511  20.539   1.842  1.00 64.78 LIG 0.16  HD
ATOM     31 O    ALA E  12       3.434  20.159   4.168  1.00 69.11 LIG-0.27  OA
BRANCH 29 32
ATOM     32  CA  ALA E  13       1.036  19.138   3.143  1.00 54.23 LIG 0.17  C 
ATOM     33  CB  ALA E  13      -0.071  18.735   2.167  1.00 56.27 LIG 0.04  C 
BRANCH 32 34
ATOM     34  C   ALA E  13       1.879  17.911   3.442  1.00 65.29 LIG 0.24  C 
ATOM     35  N   ALA E  14       1.562  17.265   4.558  1.00 85.74 LIG-0.35  N 
ATOM     36 H    ALA E  14       0.953  17.530   5.103  1.00 85.74 LIG 0.16  HD
ATOM     37 O    ALA E  13       2.749  17.524   2.659  1.00 75.52 LIG-0.27  OA
BRANCH 35 38
ATOM     38  CA  ALA E  14       2.225  16.039   4.966  1.00 94.46 LIG 0.16  C 
ATOM     39  CB  ALA E  14       3.725  16.226   4.944  1.00106.12 LIG 0.04  C 
BRANCH 38 40
ATOM     40  C   ALA E  14       1.758  15.622   6.356  1.00 99.07 LIG 0.22  C 
ATOM     41 O    ALA E  14       2.249  16.129   7.365  1.00120.33 LIG-0.29  OA
ENDBRANCH 38 40
ENDBRANCH 35 38
ENDBRANCH 32 34
ENDBRANCH 29 32
ENDBRANCH 26 28
ENDBRANCH 23 26
ENDBRANCH 1 22
TORSDOF 13
ENDMDL
MODEL 2
USER: ADFR SOLUTION from run 77
USER: SCORE 10.519817 LL:  -2.977 LR:  -8.993 RR:   0.000 FEB:  -5.115
USER: RMSD 9.789242
USER: SEED 76
USER: STATUS no improvement in best in 2 clusters for 5 generations
USER: GENES 15
USER: genes 0 Translation |==|  0.85996 0.46334 0.56874
USER: genes 1 Rotation |==|  0.69438 0.78332 0.58325 0.85358
USER: genes 2 Torsion [CB]-CA--N-[C] |==|  0.15445
USER: genes 3 Torsion [N]-C--CA-[N] |==|  0.08333
USER: genes 4 Torsion [C]-CA--N-[C] |==|  0.63567
USER: genes 5 Torsion [N]-C--CA-[N] |==|  0.41619
USER: genes 6 Torsion [C]-CA--N-[C] |==|  0.62748
USER: genes 7 Torsion [N]-C--CA-[N] |==|  0.48608
USER: genes 8 Torsion [N]-CA--C-[N] |==|  0.10004
USER: genes 9 Torsion [C]-N--CA-[CB] |==|  0.82716
USER: genes 10 Torsion [N]-CA--C-[N] |==|  0.13447
USER: genes 11 Torsion [C]-N--CA-[CB] |==|  0.84430
USER: genes 12 Torsion [N]-CA--C-[N] |==|  0.37574
USER: genes 13 Torsion [C]-N--CA-[C] |==|  0.50841
USER: genes 14 Torsion [N]-CA--C-[O] |==|  0.02514
ROOT
ATOM      1  CA  ALA E  11       6.879  22.969   2.431  1.00 85.35 LIG 0.17  C 
ATOM      2  CB  ALA E  11       7.780  22.278   3.457  1.00 80.46 LIG 0.04  C 
ENDROOT
BRANCH 1 3
ATOM      3  N   ALA E  11       7.011  24.418   2.543  1.00 87.15 LIG-0.35  N 
ATOM      4  C   ALA E  10       8.211  24.996   2.445  1.00 62.15 LIG 0.24  C 
ATOM      5 O    ALA E  10       9.208  24.384   2.060  1.00 65.72 LIG-0.27  OA
ATOM      6 H    ALA E  11       6.274  24.841   2.672  1.00 87.15 LIG 0.16  HD
BRANCH 4 7
ATOM      7  CA  ALA E  10       8.315  26.469   2.825  1.00 66.45 LIG 0.17  C 
ATOM      8  CB  ALA E  10       9.728  26.793   3.310  1.00 58.63 LIG 0.04  C 
BRANCH 7 9
ATOM      9  N   ALA E  10       7.347  26.837   3.848  1.00 75.43 LIG-0.35  N 
ATOM     10  C   ALA E   9       6.559  27.905   3.749  1.00 82.21 LIG 0.24  C 
ATOM     11 O    ALA E   9       6.599  28.697   2.801  1.00 73.75 LIG-0.27  OA
ATOM     12 H    ALA E  10       7.333  26.301   4.521  1.00 75.43 LIG 0.16  HD
BRANCH 10 13
ATOM     13  CA  ALA E   9       5.594  28.133   4.905  1.00 87.65 LIG 0.17  C 
ATOM     14  CB  ALA E   9       4.283  27.383   4.681  1.00 72.21 LIG 0.04  C 
BRANCH 13 15
ATOM     15  N   ALA E   9       5.372  29.569   5.026  1.00 84.24 LIG-0.35  N 
ATOM     16 H    ALA E   9       5.220  29.966   4.277  1.00 84.24 LIG 0.16  HD
ATOM     17  C   ALA E   8       5.405  30.195   6.194  1.00 61.40 LIG 0.26  C 
ATOM     18 O    ALA E   8       5.530  29.600   7.263  1.00 66.21 LIG-0.27  OA
BRANCH 17 19
ATOM     19  CA  ALA E   8       5.245  31.711   6.153  1.00 67.03 LIG 0.40  C 
ATOM     20  N   ALA E   8       5.180  32.272   7.536  1.00 60.26 LIG 0.61  N 
ATOM     21  CB  ALA E   8       6.389  32.352   5.375  1.00 64.64 LIG 0.06  C 
ENDBRANCH 17 19
ENDBRANCH 13 15
ENDBRANCH 10 13
ENDBRANCH 7 9
ENDBRANCH 4 7
ENDBRANCH 1 3
BRANCH 1 22
ATOM     22  C   ALA E  11       5.433  22.524   2.614  1.00 81.78 LIG 0.24  C 
ATOM     23  N   ALA E  12       4.480  23.317   2.129  1.00 82.91 LIG-0.35  N 
ATOM     24 H    ALA E  12       4.620  24.001   1.626  1.00 82.91 LIG 0.16  HD
ATOM     25 O    ALA E  11       5.169  21.470   3.205  1.00 89.30 LIG-0.27  OA
BRANCH 23 26
ATOM     26  CA  ALA E  12       3.081  23.055   2.437  1.00 61.10 LIG 0.17  C 
ATOM     27  CB  ALA E  12       2.648  21.687   1.887  1.00 65.27 LIG 0.04  C 
BRANCH 26 28
ATOM     28  C   ALA E  12       2.844  23.124   3.937  1.00 54.59 LIG 0.24  C 
ATOM     29  N   ALA E  13       3.353  24.201   4.534  1.00 64.78 LIG-0.35  N 
ATOM     30 H    ALA E  13       3.731  24.848   4.112  1.00 64.78 LIG 0.16  HD
ATOM     31 O    ALA E  12       2.193  22.256   4.526  1.00 69.11 LIG-0.27  OA
BRANCH 29 32
ATOM     32  CA  ALA E  13       3.310  24.376   5.977  1.00 54.23 LIG 0.17  C 
ATOM     33  CB  ALA E  13       1.865  24.286   6.471  1.00 56.27 LIG 0.04  C 
BRANCH 32 34
ATOM     34  C   ALA E  13       4.132  23.333   6.712  1.00 65.29 LIG 0.24  C 
ATOM     35  N   ALA E  14       4.898  23.801   7.691  1.00 85.74 LIG-0.35  N 
ATOM     36 H    ALA E  14       4.964  24.636   7.883  1.00 85.74 LIG 0.16  HD
ATOM     37 O    ALA E  13       4.033  22.133   6.444  1.00 75.52 LIG-0.27  OA
BRANCH 35 38
ATOM     38  CA  ALA E  14       5.702  22.936   8.535  1.00 94.46 LIG 0.16  C 
ATOM     39  CB  ALA E  14       6.707  22.179   7.697  1.00106.12 LIG 0.04  C 
BRANCH 38 40
ATOM     40  C   ALA E  14       6.410  23.754   9.610  1.00 99.07 LIG 0.22  C 
ATOM     41 O    ALA E  14       6.135  24.941   9.781  1.00120.33 LIG-0.29  OA
ENDBRANCH 38 40
ENDBRANCH 35 38
ENDBRANCH 32 34
ENDBRANCH 29 32
ENDBRANCH 26 28
ENDBRANCH 23 26
ENDBRANCH 1 22
TORSDOF 13
ENDMDL
MODEL 3
USER: ADFR SOLUTION from run 72
USER: SCORE 9.252923 LL:  -2.837 LR:  -8.866 RR:   0.000 FEB:  -4.988
USER: RMSD 8.512198
USER: SEED 71
USER: STATUS no improvement in best in 25 clusters for 5 generations
USER: GENES 15
USER: genes 0 Translation |==|  0.79260 0.48949 0.82601
USER: genes 1 Rotation |==|  0.56884 0.43122 0.87828 0.81215
USER: genes 2 Torsion [CB]-CA--N-[C] |==|  0.79747
USER: genes 3 Torsion [N]-C--CA-[N] |==|  0.97906
USER: genes 4 Torsion [C]-CA--N-[C] |==|  0.18227
USER: genes 5 Torsion [N]-C--CA-[N] |==|  0.63924
USER: genes 6 Torsion [C]-CA--N-[C] |==|  0.70862
USER: genes 7 Torsion [N]-C--CA-[N] |==|  0.31694
USER: genes 8 Torsion [N]-CA--C-[N] |==|  0.06768
USER: genes 9 Torsion [C]-N--CA-[CB] |==|  0.81530
USER: genes 10 Torsion [N]-CA--C-[N] |==|  0.26677
USER: genes 11 Torsion [C]-N--CA-[CB] |==|  0.82542
USER: genes 12 Torsion [N]-CA--C-[N] |==|  0.45555
USER: genes 13 Torsion [C]-N--CA-[C] |==|  0.72556
USER: genes 14 Torsion [N]-CA--C-[O] |==|  0.27861
ROOT
ATOM      1  CA  ALA E  11       5.363  23.440   7.062  1.00 85.35 LIG 0.17  C 
ATOM      2  CB  ALA E  11       5.077  22.112   7.766  1.00 80.46 LIG 0.04  C 
ENDROOT
BRANCH 1 3
ATOM      3  N   ALA E  11       4.155  24.255   7.019  1.00 87.15 LIG-0.35  N 
ATOM      4  C   ALA E  10       3.153  23.936   6.196  1.00 62.15 LIG 0.24  C 
ATOM      5 O    ALA E  10       3.107  22.858   5.601  1.00 65.72 LIG-0.27  OA
ATOM      6 H    ALA E  11       4.152  24.931   7.552  1.00 87.15 LIG 0.16  HD
BRANCH 4 7
ATOM      7  CA  ALA E  10       2.040  24.962   6.010  1.00 66.45 LIG 0.17  C 
ATOM      8  CB  ALA E  10       2.020  25.467   4.568  1.00 58.63 LIG 0.04  C 
BRANCH 7 9
ATOM      9  N   ALA E  10       2.177  26.085   6.924  1.00 75.43 LIG-0.35  N 
ATOM     10  C   ALA E   9       3.193  26.945   6.869  1.00 82.21 LIG 0.24  C 
ATOM     11 O    ALA E   9       4.125  26.848   6.063  1.00 73.75 LIG-0.27  OA
ATOM     12 H    ALA E  10       1.543  26.142   7.502  1.00 75.43 LIG 0.16  HD
BRANCH 10 13
ATOM     13  CA  ALA E   9       3.172  28.071   7.894  1.00 87.65 LIG 0.17  C 
ATOM     14  CB  ALA E   9       1.859  28.077   8.675  1.00 72.21 LIG 0.04  C 
BRANCH 13 15
ATOM     15  N   ALA E   9       3.376  29.327   7.184  1.00 84.24 LIG-0.35  N 
ATOM     16 H    ALA E   9       2.687  29.599   6.746  1.00 84.24 LIG 0.16  HD
ATOM     17  C   ALA E   8       4.528  29.982   7.219  1.00 61.40 LIG 0.26  C 
ATOM     18 O    ALA E   8       5.471  29.629   7.924  1.00 66.21 LIG-0.27  OA
BRANCH 17 19
ATOM     19  CA  ALA E   8       4.621  31.234   6.353  1.00 67.03 LIG 0.40  C 
ATOM     20  N   ALA E   8       4.759  32.454   7.203  1.00 60.26 LIG 0.61  N 
ATOM     21  CB  ALA E   8       5.790  31.130   5.380  1.00 64.64 LIG 0.06  C 
ENDBRANCH 17 19
ENDBRANCH 13 15
ENDBRANCH 10 13
ENDBRANCH 7 9
ENDBRANCH 4 7
ENDBRANCH 1 3
BRANCH 1 22
ATOM     22  C   ALA E  11       5.917  23.187   5.665  1.00 81.78 LIG 0.24  C 
ATOM     23  N   ALA E  12       5.607  24.065   4.713  1.00 82.91 LIG-0.35  N 
ATOM     24 H    ALA E  12       5.213  24.818   4.850  1.00 82.91 LIG 0.16  HD
ATOM     25 O    ALA E  11       6.616  22.193   5.435  1.00 89.30 LIG-0.27  OA
BRANCH 23 26
ATOM     26  CA  ALA E  12       5.936  23.785   3.322  1.00 61.10 LIG 0.17  C 
ATOM     27  CB  ALA E  12       7.458  23.764   3.116  1.00 65.27 LIG 0.04  C 
BRANCH 26 28
ATOM     28  C   ALA E  12       5.321  22.465   2.885  1.00 54.59 LIG 0.24  C 
ATOM     29  N   ALA E  13       4.151  22.575   2.256  1.00 64.78 LIG-0.35  N 
ATOM     30 H    ALA E  13       3.789  23.327   2.048  1.00 64.78 LIG 0.16  HD
ATOM     31 O    ALA E  12       5.900  21.392   3.074  1.00 69.11 LIG-0.27  OA
BRANCH 29 32
ATOM     32  CA  ALA E  13       3.375  21.410   1.862  1.00 54.23 LIG 0.17  C 
ATOM     33  CB  ALA E  13       4.160  20.579   0.847  1.00 56.27 LIG 0.04  C 
BRANCH 32 34
ATOM     34  C   ALA E  13       3.027  20.520   3.041  1.00 65.29 LIG 0.24  C 
ATOM     35  N   ALA E  14       2.059  19.637   2.820  1.00 85.74 LIG-0.35  N 
ATOM     36 H    ALA E  14       1.625  19.586   2.080  1.00 85.74 LIG 0.16  HD
ATOM     37 O    ALA E  13       3.653  20.586   4.102  1.00 75.52 LIG-0.27  OA
BRANCH 35 38
ATOM     38  CA  ALA E  14       1.642  18.669   3.817  1.00 94.46 LIG 0.16  C 
ATOM     39  CB  ALA E  14       0.135  18.541   3.819  1.00106.12 LIG 0.04  C 
BRANCH 38 40
ATOM     40  C   ALA E  14       2.292  17.317   3.548  1.00 99.07 LIG 0.22  C 
ATOM     41 O    ALA E  14       3.280  16.954   4.186  1.00120.33 LIG-0.29  OA
ENDBRANCH 38 40
ENDBRANCH 35 38
ENDBRANCH 32 34
ENDBRANCH 29 32
ENDBRANCH 26 28
ENDBRANCH 23 26
ENDBRANCH 1 22
TORSDOF 13
ENDMDL
MODEL 4
USER: ADFR SOLUTION from run 130
USER: SCORE 9.379767 LL:  -3.050 LR:  -8.320 RR:   0.000 FEB:  -4.442
USER: RMSD 7.879721
USER: SEED 129
USER: STATUS no improvement in best in 21 clusters for 5 generations
USER: GENES 15
USER: genes 0 Translation |==|  0.80459 0.47458 0.82792
USER: genes 1 Rotation |==|  0.54875 0.44716 0.80962 0.88596
USER: genes 2 Torsion [CB]-CA--N-[C] |==|  0.82085
USER: genes 3 Torsion [N]-C--CA-[N] |==|  0.94211
USER: genes 4 Torsion [C]-CA--N-[C] |==|  0.68432
USER: genes 5 Torsion [N]-C--CA-[N] |==|  0.23725
USER: genes 6 Torsion [C]-CA--N-[C] |==|  0.71977
USER: genes 7 Torsion [N]-C--CA-[N] |==|  0.20199
USER: genes 8 Torsion [N]-CA--C-[N] |==|  0.08421
USER: genes 9 Torsion [C]-N--CA-[CB] |==|  0.82692
USER: genes 10 Torsion [N]-CA--C-[N] |==|  0.29037
USER: genes 11 Torsion [C]-N--CA-[CB] |==|  0.84943
USER: genes 12 Torsion [N]-CA--C-[N] |==|  0.35963
USER: genes 13 Torsion [C]-N--CA-[C] |==|  0.17427
USER: genes 14 Torsion [N]-CA--C-[O] |==|  0.57367
ROOT
ATOM      1  CA  ALA E  11       5.633  23.171   7.097  1.00 85.35 LIG 0.17  C 
ATOM      2  CB  ALA E  11       4.912  22.129   7.953  1.00 80.46 LIG 0.04  C 
ENDROOT
BRANCH 1 3
ATOM      3  N   ALA E  11       4.833  24.388   7.007  1.00 87.15 LIG-0.35  N 
ATOM      4  C   ALA E  10       3.643  24.371   6.401  1.00 62.15 LIG 0.24  C 
ATOM      5 O    ALA E  10       3.082  23.323   6.080  1.00 65.72 LIG-0.27  OA
ATOM      6 H    ALA E  11       5.188  25.084   7.367  1.00 87.15 LIG 0.16  HD
BRANCH 4 7
ATOM      7  CA  ALA E  10       2.980  25.714   6.115  1.00 66.45 LIG 0.17  C 
ATOM      8  CB  ALA E  10       3.157  26.090   4.645  1.00 58.63 LIG 0.04  C 
BRANCH 7 9
ATOM      9  N   ALA E  10       3.507  26.773   6.962  1.00 75.43 LIG-0.35  N 
ATOM     10  C   ALA E   9       2.778  27.391   7.889  1.00 82.21 LIG 0.24  C 
ATOM     11 O    ALA E   9       1.584  27.146   8.091  1.00 73.75 LIG-0.27  OA
ATOM     12 H    ALA E  10       4.332  26.963   6.807  1.00 75.43 LIG 0.16  HD
BRANCH 10 13
ATOM     13  CA  ALA E   9       3.493  28.467   8.695  1.00 87.65 LIG 0.17  C 
ATOM     14  CB  ALA E   9       2.876  28.613  10.084  1.00 72.21 LIG 0.04  C 
BRANCH 13 15
ATOM     15  N   ALA E   9       3.417  29.714   7.944  1.00 84.24 LIG-0.35  N 
ATOM     16 H    ALA E   9       2.661  30.119   8.011  1.00 84.24 LIG 0.16  HD
ATOM     17  C   ALA E   8       4.433  30.171   7.225  1.00 61.40 LIG 0.26  C 
ATOM     18 O    ALA E   8       5.536  29.629   7.215  1.00 66.21 LIG-0.27  OA
BRANCH 17 19
ATOM     19  CA  ALA E   8       4.174  31.441   6.421  1.00 67.03 LIG 0.40  C 
ATOM     20  N   ALA E   8       4.097  32.629   7.323  1.00 60.26 LIG 0.61  N 
ATOM     21  CB  ALA E   8       5.260  31.642   5.369  1.00 64.64 LIG 0.06  C 
ENDBRANCH 17 19
ENDBRANCH 13 15
ENDBRANCH 10 13
ENDBRANCH 7 9
ENDBRANCH 4 7
ENDBRANCH 1 3
BRANCH 1 22
ATOM     22  C   ALA E  11       5.938  22.601   5.717  1.00 81.78 LIG 0.24  C 
ATOM     23  N   ALA E  12       6.039  23.461   4.705  1.00 82.91 LIG-0.35  N 
ATOM     24 H    ALA E  12       6.055  24.317   4.789  1.00 82.91 LIG 0.16  HD
ATOM     25 O    ALA E  11       6.072  21.382   5.555  1.00 89.30 LIG-0.27  OA
BRANCH 23 26
ATOM     26  CA  ALA E  12       6.134  22.973   3.335  1.00 61.10 LIG 0.17  C 
ATOM     27  CB  ALA E  12       7.403  22.130   3.144  1.00 65.27 LIG 0.04  C 
BRANCH 26 28
ATOM     28  C   ALA E  12       4.899  22.165   2.971  1.00 54.59 LIG 0.24  C 
ATOM     29  N   ALA E  13       4.033  22.795   2.176  1.00 64.78 LIG-0.35  N 
ATOM     30 H    ALA E  13       4.176  23.571   1.834  1.00 64.78 LIG 0.16  HD
ATOM     31 O    ALA E  12       4.751  21.004   3.362  1.00 69.11 LIG-0.27  OA
BRANCH 29 32
ATOM     32  CA  ALA E  13       2.752  22.210   1.814  1.00 54.23 LIG 0.17  C 
ATOM     33  CB  ALA E  13       2.964  20.820   1.213  1.00 56.27 LIG 0.04  C 
BRANCH 32 34
ATOM     34  C   ALA E  13       1.818  22.079   3.004  1.00 65.29 LIG 0.24  C 
ATOM     35  N   ALA E  14       0.598  22.572   2.824  1.00 85.74 LIG-0.35  N 
ATOM     36 H    ALA E  14       0.350  22.973   2.105  1.00 85.74 LIG 0.16  HD
ATOM     37 O    ALA E  13       2.169  21.497   4.033  1.00 75.52 LIG-0.27  OA
BRANCH 35 38
ATOM     38  CA  ALA E  14      -0.440  22.477   3.834  1.00 94.46 LIG 0.16  C 
ATOM     39  CB  ALA E  14      -0.719  21.027   4.160  1.00106.12 LIG 0.04  C 
BRANCH 38 40
ATOM     40  C   ALA E  14      -0.028  23.237   5.090  1.00 99.07 LIG 0.22  C 
ATOM     41 O    ALA E  14      -0.472  22.920   6.193  1.00120.33 LIG-0.29  OA
ENDBRANCH 38 40
ENDBRANCH 35 38
ENDBRANCH 32 34
ENDBRANCH 29 32
ENDBRANCH 26 28
ENDBRANCH 23 26
ENDBRANCH 1 22
TORSDOF 13
ENDMDL
MODEL 5
USER: ADFR SOLUTION from run 157
USER: SCORE 10.392558 LL:  -3.963 LR:  -8.226 RR:   0.000 FEB:  -4.349
USER: RMSD 8.700008
USER: SEED 156
USER: STATUS no improvement in best in 13 clusters for 5 generations
USER: GENES 15
USER: genes 0 Translation |==|  0.62329 0.52032 0.74632
USER: genes 1 Rotation |==|  0.35149 0.13551 0.68362 0.74774
USER: genes 2 Torsion [CB]-CA--N-[C] |==|  0.82848
USER: genes 3 Torsion [N]-C--CA-[N] |==|  0.05777
USER: genes 4 Torsion [C]-CA--N-[C] |==|  0.14966
USER: genes 5 Torsion [N]-C--CA-[N] |==|  0.86173
USER: genes 6 Torsion [C]-CA--N-[C] |==|  0.79451
USER: genes 7 Torsion [N]-C--CA-[N] |==|  0.35642
USER: genes 8 Torsion [N]-CA--C-[N] |==|  0.13379
USER: genes 9 Torsion [C]-N--CA-[CB] |==|  0.78048
USER: genes 10 Torsion [N]-CA--C-[N] |==|  0.16074
USER: genes 11 Torsion [C]-N--CA-[CB] |==|  0.79076
USER: genes 12 Torsion [N]-CA--C-[N] |==|  0.20633
USER: genes 13 Torsion [C]-N--CA-[C] |==|  0.18350
USER: genes 14 Torsion [N]-CA--C-[O] |==|  0.99742
ROOT
ATOM      1  CA  ALA E  11       1.554  23.995   5.628  1.00 85.35 LIG 0.17  C 
ATOM      2  CB  ALA E  11       0.806  23.290   4.495  1.00 80.46 LIG 0.04  C 
ENDROOT
BRANCH 1 3
ATOM      3  N   ALA E  11       1.683  25.418   5.335  1.00 87.15 LIG-0.35  N 
ATOM      4  C   ALA E  10       2.356  25.828   4.257  1.00 62.15 LIG 0.24  C 
ATOM      5 O    ALA E  10       2.715  25.053   3.370  1.00 65.72 LIG-0.27  OA
ATOM      6 H    ALA E  11       1.299  25.942   5.899  1.00 87.15 LIG 0.16  HD
BRANCH 4 7
ATOM      7  CA  ALA E  10       2.673  27.316   4.149  1.00 66.45 LIG 0.17  C 
ATOM      8  CB  ALA E  10       4.051  27.520   3.520  1.00 58.63 LIG 0.04  C 
BRANCH 7 9
ATOM      9  N   ALA E  10       2.619  27.979   5.443  1.00 75.43 LIG-0.35  N 
ATOM     10  C   ALA E   9       3.309  27.562   6.502  1.00 82.21 LIG 0.24  C 
ATOM     11 O    ALA E   9       4.030  26.557   6.492  1.00 73.75 LIG-0.27  OA
ATOM     12 H    ALA E  10       2.100  28.665   5.459  1.00 75.43 LIG 0.16  HD
BRANCH 10 13
ATOM     13  CA  ALA E   9       3.146  28.383   7.774  1.00 87.65 LIG 0.17  C 
ATOM     14  CB  ALA E   9       1.772  28.153   8.401  1.00 72.21 LIG 0.04  C 
BRANCH 13 15
ATOM     15  N   ALA E   9       3.348  29.785   7.431  1.00 84.24 LIG-0.35  N 
ATOM     16 H    ALA E   9       2.624  30.250   7.413  1.00 84.24 LIG 0.16  HD
ATOM     17  C   ALA E   8       4.548  30.285   7.171  1.00 61.40 LIG 0.26  C 
ATOM     18 O    ALA E   8       5.581  29.629   7.292  1.00 66.21 LIG-0.27  OA
BRANCH 17 19
ATOM     19  CA  ALA E   8       4.592  31.747   6.738  1.00 67.03 LIG 0.40  C 
ATOM     20  N   ALA E   8       5.568  32.513   7.569  1.00 60.26 LIG 0.61  N 
ATOM     21  CB  ALA E   8       4.948  31.860   5.260  1.00 64.64 LIG 0.06  C 
ENDBRANCH 17 19
ENDBRANCH 13 15
ENDBRANCH 10 13
ENDBRANCH 7 9
ENDBRANCH 4 7
ENDBRANCH 1 3
BRANCH 1 22
ATOM     22  C   ALA E  11       2.915  23.344   5.846  1.00 81.78 LIG 0.24  C 
ATOM     23  N   ALA E  12       3.764  23.957   6.668  1.00 82.91 LIG-0.35  N 
ATOM     24 H    ALA E  12       3.565  24.629   7.168  1.00 82.91 LIG 0.16  HD
ATOM     25 O    ALA E  11       3.210  22.293   5.265  1.00 89.30 LIG-0.27  OA
BRANCH 23 26
ATOM     26  CA  ALA E  12       5.144  23.500   6.770  1.00 61.10 LIG 0.17  C 
ATOM     27  CB  ALA E  12       5.240  22.253   7.662  1.00 65.27 LIG 0.04  C 
BRANCH 26 28
ATOM     28  C   ALA E  12       5.714  23.213   5.390  1.00 54.59 LIG 0.24  C 
ATOM     29  N   ALA E  13       5.688  24.246   4.549  1.00 64.78 LIG-0.35  N 
ATOM     30 H    ALA E  13       5.434  25.038   4.771  1.00 64.78 LIG 0.16  HD
ATOM     31 O    ALA E  12       6.192  22.111   5.109  1.00 69.11 LIG-0.27  OA
BRANCH 29 32
ATOM     32  CA  ALA E  13       6.097  24.120   3.159  1.00 54.23 LIG 0.17  C 
ATOM     33  CB  ALA E  13       7.621  24.042   3.068  1.00 56.27 LIG 0.04  C 
BRANCH 32 34
ATOM     34  C   ALA E  13       5.515  22.885   2.495  1.00 65.29 LIG 0.24  C 
ATOM     35  N   ALA E  14       4.222  22.958   2.197  1.00 85.74 LIG-0.35  N 
ATOM     36 H    ALA E  14       3.728  23.632   2.393  1.00 85.74 LIG 0.16  HD
ATOM     37 O    ALA E  13       6.224  21.918   2.204  1.00 75.52 LIG-0.27  OA
BRANCH 35 38
ATOM     38  CA  ALA E  14       3.519  21.892   1.505  1.00 94.46 LIG 0.16  C 
ATOM     39  CB  ALA E  14       4.200  21.587   0.191  1.00106.12 LIG 0.04  C 
BRANCH 38 40
ATOM     40  C   ALA E  14       3.457  20.644   2.378  1.00 99.07 LIG 0.22  C 
ATOM     41 O    ALA E  14       3.977  20.629   3.494  1.00120.33 LIG-0.29  OA
ENDBRANCH 38 40
ENDBRANCH 35 38
ENDBRANCH 32 34
ENDBRANCH 29 32
ENDBRANCH 26 28
ENDBRANCH 23 26
ENDBRANCH 1 22
TORSDOF 13
ENDMDL
MODEL 6
USER: ADFR SOLUTION from run 131
USER: SCORE 9.163882 LL:  -2.563 LR:  -8.203 RR:   0.000 FEB:  -4.326
USER: RMSD 7.292017
USER: SEED 130
USER: STATUS no improvement in best in 19 clusters for 5 generations
USER: GENES 15
USER: genes 0 Translation |==|  0.80021 0.45785 0.71849
USER: genes 1 Rotation |==|  0.62711 0.65785 0.75470 0.87955
USER: genes 2 Torsion [CB]-CA--N-[C] |==|  0.84944
USER: genes 3 Torsion [N]-C--CA-[N] |==|  0.76085
USER: genes 4 Torsion [C]-CA--N-[C] |==|  0.56698
USER: genes 5 Torsion [N]-C--CA-[N] |==|  0.32728
USER: genes 6 Torsion [C]-CA--N-[C] |==|  0.80085
USER: genes 7 Torsion [N]-C--CA-[N] |==|  0.25319
USER: genes 8 Torsion [N]-CA--C-[N] |==|  0.95712
USER: genes 9 Torsion [C]-N--CA-[CB] |==|  0.12375
USER: genes 10 Torsion [N]-CA--C-[N] |==|  0.08631
USER: genes 11 Torsion [C]-N--CA-[CB] |==|  0.85197
USER: genes 12 Torsion [N]-CA--C-[N] |==|  0.37427
USER: genes 13 Torsion [C]-N--CA-[C] |==|  0.17262
USER: genes 14 Torsion [N]-CA--C-[O] |==|  0.80486
ROOT
ATOM      1  CA  ALA E  11       5.535  22.870   5.127  1.00 85.35 LIG 0.17  C 
ATOM      2  CB  ALA E  11       5.826  22.146   6.443  1.00 80.46 LIG 0.04  C 
ENDROOT
BRANCH 1 3
ATOM      3  N   ALA E  11       4.872  24.143   5.390  1.00 87.15 LIG-0.35  N 
ATOM      4  C   ALA E  10       3.758  24.186   6.125  1.00 62.15 LIG 0.24  C 
ATOM      5 O    ALA E  10       3.359  23.217   6.772  1.00 65.72 LIG-0.27  OA
ATOM      6 H    ALA E  11       5.253  24.831   5.041  1.00 87.15 LIG 0.16  HD
BRANCH 4 7
ATOM      7  CA  ALA E  10       2.979  25.495   6.147  1.00 66.45 LIG 0.17  C 
ATOM      8  CB  ALA E  10       3.030  26.167   4.776  1.00 58.63 LIG 0.04  C 
BRANCH 7 9
ATOM      9  N   ALA E  10       3.480  26.410   7.162  1.00 75.43 LIG-0.35  N 
ATOM     10  C   ALA E   9       2.736  27.374   7.700  1.00 82.21 LIG 0.24  C 
ATOM     11 O    ALA E   9       1.568  27.601   7.365  1.00 73.75 LIG-0.27  OA
ATOM     12 H    ALA E  10       4.300  26.271   7.381  1.00 75.43 LIG 0.16  HD
BRANCH 10 13
ATOM     13  CA  ALA E   9       3.416  28.232   8.759  1.00 87.65 LIG 0.17  C 
ATOM     14  CB  ALA E   9       2.686  28.132  10.097  1.00 72.21 LIG 0.04  C 
BRANCH 13 15
ATOM     15  N   ALA E   9       3.448  29.605   8.271  1.00 84.24 LIG-0.35  N 
ATOM     16 H    ALA E   9       2.909  30.136   8.679  1.00 84.24 LIG 0.16  HD
ATOM     17  C   ALA E   8       4.244  29.986   7.282  1.00 61.40 LIG 0.26  C 
ATOM     18 O    ALA E   8       5.075  29.237   6.772  1.00 66.21 LIG-0.27  OA
BRANCH 17 19
ATOM     19  CA  ALA E   8       4.101  31.433   6.818  1.00 67.03 LIG 0.40  C 
ATOM     20  N   ALA E   8       5.039  32.321   7.569  1.00 60.26 LIG 0.61  N 
ATOM     21  CB  ALA E   8       4.351  31.544   5.318  1.00 64.64 LIG 0.06  C 
ENDBRANCH 17 19
ENDBRANCH 13 15
ENDBRANCH 10 13
ENDBRANCH 7 9
ENDBRANCH 4 7
ENDBRANCH 1 3
BRANCH 1 22
ATOM     22  C   ALA E  11       4.699  21.985   4.211  1.00 81.78 LIG 0.24  C 
ATOM     23  N   ALA E  12       3.418  22.309   4.044  1.00 82.91 LIG-0.35  N 
ATOM     24 H    ALA E  12       3.056  23.038   4.324  1.00 82.91 LIG 0.16  HD
ATOM     25 O    ALA E  11       5.201  20.997   3.660  1.00 89.30 LIG-0.27  OA
BRANCH 23 26
ATOM     26  CA  ALA E  12       2.517  21.402   3.345  1.00 61.10 LIG 0.17  C 
ATOM     27  CB  ALA E  12       2.724  19.956   3.819  1.00 65.27 LIG 0.04  C 
BRANCH 26 28
ATOM     28  C   ALA E  12       1.071  21.826   3.547  1.00 54.59 LIG 0.24  C 
ATOM     29  N   ALA E  13       0.889  23.138   3.694  1.00 64.78 LIG-0.35  N 
ATOM     30 H    ALA E  13       1.519  23.719   3.619  1.00 64.78 LIG 0.16  HD
ATOM     31 O    ALA E  12       0.152  21.003   3.532  1.00 69.11 LIG-0.27  OA
BRANCH 29 32
ATOM     32  CA  ALA E  13      -0.414  23.707   4.000  1.00 54.23 LIG 0.17  C 
ATOM     33  CB  ALA E  13      -1.447  23.219   2.984  1.00 56.27 LIG 0.04  C 
BRANCH 32 34
ATOM     34  C   ALA E  13      -0.897  23.333   5.390  1.00 65.29 LIG 0.24  C 
ATOM     35  N   ALA E  14      -1.407  24.333   6.100  1.00 85.74 LIG-0.35  N 
ATOM     36 H    ALA E  14      -1.435  25.146   5.823  1.00 85.74 LIG 0.16  HD
ATOM     37 O    ALA E  13      -0.865  22.166   5.788  1.00 75.52 LIG-0.27  OA
BRANCH 35 38
ATOM     38  CA  ALA E  14      -1.971  24.142   7.425  1.00 94.46 LIG 0.16  C 
ATOM     39  CB  ALA E  14      -3.131  23.175   7.362  1.00106.12 LIG 0.04  C 
BRANCH 38 40
ATOM     40  C   ALA E  14      -0.903  23.635   8.387  1.00 99.07 LIG 0.22  C 
ATOM     41 O    ALA E  14      -0.455  22.493   8.286  1.00120.33 LIG-0.29  OA
ENDBRANCH 38 40
ENDBRANCH 35 38
ENDBRANCH 32 34
ENDBRANCH 29 32
ENDBRANCH 26 28
ENDBRANCH 23 26
ENDBRANCH 1 22
TORSDOF 13
ENDMDL
MODEL 7
USER: ADFR SOLUTION from run 167
USER: SCORE 9.016998 LL:  -2.734 LR:  -8.185 RR:   0.000 FEB:  -4.307
USER: RMSD 9.082718
USER: SEED 166
USER: STATUS no improvement in best in 49 clusters for 5 generations
USER: GENES 15
USER: genes 0 Translation |==|  0.65108 0.56443 0.79404
USER: genes 1 Rotation |==|  0.29525 0.28362 0.74883 0.81518
USER: genes 2 Torsion [CB]-CA--N-[C] |==|  0.52060
USER: genes 3 Torsion [N]-C--CA-[N] |==|  0.29567
USER: genes 4 Torsion [C]-CA--N-[C] |==|  0.59555
USER: genes 5 Torsion [N]-C--CA-[N] |==|  0.89472
USER: genes 6 Torsion [C]-CA--N-[C] |==|  0.86037
USER: genes 7 Torsion [N]-C--CA-[N] |==|  0.22877
USER: genes 8 Torsion [N]-CA--C-[N] |==|  0.24736
USER: genes 9 Torsion [C]-N--CA-[CB] |==|  0.75539
USER: genes 10 Torsion [N]-CA--C-[N] |==|  0.17557
USER: genes 11 Torsion [C]-N--CA-[CB] |==|  0.77556
USER: genes 12 Torsion [N]-CA--C-[N] |==|  0.17800
USER: genes 13 Torsion [C]-N--CA-[C] |==|  0.18913
USER: genes 14 Torsion [N]-CA--C-[O] |==|  0.93046
ROOT
ATOM      1  CA  ALA E  11       2.179  24.789   6.487  1.00 85.35 LIG 0.17  C 
ATOM      2  CB  ALA E  11       0.837  24.103   6.225  1.00 80.46 LIG 0.04  C 
ENDROOT
BRANCH 1 3
ATOM      3  N   ALA E  11       2.394  25.858   5.518  1.00 87.15 LIG-0.35  N 
ATOM      4  C   ALA E  10       3.566  26.496   5.464  1.00 62.15 LIG 0.24  C 
ATOM      5 O    ALA E  10       4.564  26.092   6.063  1.00 65.72 LIG-0.27  OA
ATOM      6 H    ALA E  11       1.721  26.028   5.009  1.00 87.15 LIG 0.16  HD
BRANCH 4 7
ATOM      7  CA  ALA E  10       3.640  27.762   4.618  1.00 66.45 LIG 0.17  C 
ATOM      8  CB  ALA E  10       4.854  27.711   3.691  1.00 58.63 LIG 0.04  C 
BRANCH 7 9
ATOM      9  N   ALA E  10       3.698  28.962   5.439  1.00 75.43 LIG-0.35  N 
ATOM     10  C   ALA E   9       3.131  30.112   5.082  1.00 82.21 LIG 0.24  C 
ATOM     11 O    ALA E   9       2.535  30.275   4.012  1.00 73.75 LIG-0.27  OA
ATOM     12 H    ALA E  10       4.132  28.859   6.174  1.00 75.43 LIG 0.16  HD
BRANCH 10 13
ATOM     13  CA  ALA E   9       3.277  31.264   6.068  1.00 87.65 LIG 0.17  C 
ATOM     14  CB  ALA E   9       4.604  31.993   5.866  1.00 72.21 LIG 0.04  C 
BRANCH 13 15
ATOM     15  N   ALA E   9       3.168  30.718   7.414  1.00 84.24 LIG-0.35  N 
ATOM     16 H    ALA E   9       3.802  30.959   7.944  1.00 84.24 LIG 0.16  HD
ATOM     17  C   ALA E   8       2.173  29.921   7.777  1.00 61.40 LIG 0.26  C 
ATOM     18 O    ALA E   8       1.226  29.662   7.038  1.00 66.21 LIG-0.27  OA
BRANCH 17 19
ATOM     19  CA  ALA E   8       2.242  29.354   9.192  1.00 67.03 LIG 0.40  C 
ATOM     20  N   ALA E   8       1.721  30.344  10.182  1.00 60.26 LIG 0.61  N 
ATOM     21  CB  ALA E   8       1.463  28.048   9.287  1.00 64.64 LIG 0.06  C 
ENDBRANCH 17 19
ENDBRANCH 13 15
ENDBRANCH 10 13
ENDBRANCH 7 9
ENDBRANCH 4 7
ENDBRANCH 1 3
BRANCH 1 22
ATOM     22  C   ALA E  11       3.309  23.767   6.450  1.00 81.78 LIG 0.24  C 
ATOM     23  N   ALA E  12       4.362  23.986   7.237  1.00 82.91 LIG-0.35  N 
ATOM     24 H    ALA E  12       4.403  24.597   7.841  1.00 82.91 LIG 0.16  HD
ATOM     25 O    ALA E  11       3.244  22.783   5.704  1.00 89.30 LIG-0.27  OA
BRANCH 23 26
ATOM     26  CA  ALA E  12       5.556  23.162   7.110  1.00 61.10 LIG 0.17  C 
ATOM     27  CB  ALA E  12       5.450  21.910   7.993  1.00 65.27 LIG 0.04  C 
BRANCH 26 28
ATOM     28  C   ALA E  12       5.782  22.771   5.658  1.00 54.59 LIG 0.24  C 
ATOM     29  N   ALA E  13       6.015  23.792   4.834  1.00 64.78 LIG-0.35  N 
ATOM     30 H    ALA E  13       6.099  24.607   5.096  1.00 64.78 LIG 0.16  HD
ATOM     31 O    ALA E  12       5.783  21.589   5.303  1.00 69.11 LIG-0.27  OA
BRANCH 29 32
ATOM     32  CA  ALA E  13       6.149  23.610   3.398  1.00 54.23 LIG 0.17  C 
ATOM     33  CB  ALA E  13       7.560  23.125   3.063  1.00 56.27 LIG 0.04  C 
BRANCH 32 34
ATOM     34  C   ALA E  13       5.154  22.604   2.847  1.00 65.29 LIG 0.24  C 
ATOM     35  N   ALA E  14       3.877  22.951   2.956  1.00 85.74 LIG-0.35  N 
ATOM     36 H    ALA E  14       3.613  23.672   3.342  1.00 85.74 LIG 0.16  HD
ATOM     37 O    ALA E  13       5.530  21.572   2.285  1.00 75.52 LIG-0.27  OA
BRANCH 35 38
ATOM     38  CA  ALA E  14       2.797  22.136   2.428  1.00 94.46 LIG 0.16  C 
ATOM     39  CB  ALA E  14       3.031  21.850   0.962  1.00106.12 LIG 0.04  C 
BRANCH 38 40
ATOM     40  C   ALA E  14       2.682  20.835   3.215  1.00 99.07 LIG 0.22  C 
ATOM     41 O    ALA E  14       3.653  20.372   3.813  1.00120.33 LIG-0.29  OA
ENDBRANCH 38 40
ENDBRANCH 35 38
ENDBRANCH 32 34
ENDBRANCH 29 32
ENDBRANCH 26 28
ENDBRANCH 23 26
ENDBRANCH 1 22
TORSDOF 13
ENDMDL
MODEL 8
USER: ADFR SOLUTION from run 89
USER: SCORE 9.352685 LL:  -2.572 LR:  -8.120 RR:   0.000 FEB:  -4.242
USER: RMSD 8.711239
USER: SEED 88
USER: STATUS no improvement in best in 43 clusters for 5 generations
USER: GENES 15
USER: genes 0 Translation |==|  0.77844 0.48565 0.60793
USER: genes 1 Rotation |==|  0.66023 0.76101 0.82142 0.72998
USER: genes 2 Torsion [CB]-CA--N-[C] |==|  0.81237
USER: genes 3 Torsion [N]-C--CA-[N] |==|  0.93942
USER: genes 4 Torsion [C]-CA--N-[C] |==|  0.84049
USER: genes 5 Torsion [N]-C--CA-[N] |==|  0.35379
USER: genes 6 Torsion [C]-CA--N-[C] |==|  0.86549
USER: genes 7 Torsion [N]-C--CA-[N] |==|  0.40419
USER: genes 8 Torsion [N]-CA--C-[N] |==|  0.08835
USER: genes 9 Torsion [C]-N--CA-[CB] |==|  0.83869
USER: genes 10 Torsion [N]-CA--C-[N] |==|  0.41653
USER: genes 11 Torsion [C]-N--CA-[CB] |==|  0.49444
USER: genes 12 Torsion [N]-CA--C-[N] |==|  0.45925
USER: genes 13 Torsion [C]-N--CA-[C] |==|  0.47321
USER: genes 14 Torsion [N]-CA--C-[O] |==|  0.68472
ROOT
ATOM      1  CA  ALA E  11       5.045  23.371   3.137  1.00 85.35 LIG 0.17  C 
ATOM      2  CB  ALA E  11       6.267  22.967   3.964  1.00 80.46 LIG 0.04  C 
ENDROOT
BRANCH 1 3
ATOM      3  N   ALA E  11       4.076  24.063   3.979  1.00 87.15 LIG-0.35  N 
ATOM      4  C   ALA E  10       3.430  23.407   4.946  1.00 62.15 LIG 0.24  C 
ATOM      5 O    ALA E  10       3.757  22.275   5.306  1.00 65.72 LIG-0.27  OA
ATOM      6 H    ALA E  11       3.967  24.897   3.798  1.00 87.15 LIG 0.16  HD
BRANCH 4 7
ATOM      7  CA  ALA E  10       2.254  24.113   5.613  1.00 66.45 LIG 0.17  C 
ATOM      8  CB  ALA E  10       0.934  23.594   5.046  1.00 58.63 LIG 0.04  C 
BRANCH 7 9
ATOM      9  N   ALA E  10       2.325  25.558   5.453  1.00 75.43 LIG-0.35  N 
ATOM     10  C   ALA E   9       3.364  26.283   5.863  1.00 82.21 LIG 0.24  C 
ATOM     11 O    ALA E   9       4.343  25.802   6.444  1.00 73.75 LIG-0.27  OA
ATOM     12 H    ALA E  10       1.635  25.899   5.070  1.00 75.43 LIG 0.16  HD
BRANCH 10 13
ATOM     13  CA  ALA E   9       3.279  27.781   5.603  1.00 87.65 LIG 0.17  C 
ATOM     14  CB  ALA E   9       4.278  28.209   4.532  1.00 72.21 LIG 0.04  C 
BRANCH 13 15
ATOM     15  N   ALA E   9       3.522  28.468   6.865  1.00 84.24 LIG-0.35  N 
ATOM     16 H    ALA E   9       4.098  29.106   6.813  1.00 84.24 LIG 0.16  HD
ATOM     17  C   ALA E   8       2.904  28.129   7.988  1.00 61.40 LIG 0.26  C 
ATOM     18 O    ALA E   8       2.016  27.279   8.026  1.00 66.21 LIG-0.27  OA
BRANCH 17 19
ATOM     19  CA  ALA E   8       3.328  28.879   9.247  1.00 67.03 LIG 0.40  C 
ATOM     20  N   ALA E   8       2.163  29.077  10.160  1.00 60.26 LIG 0.61  N 
ATOM     21  CB  ALA E   8       4.446  28.131   9.966  1.00 64.64 LIG 0.06  C 
ENDBRANCH 17 19
ENDBRANCH 13 15
ENDBRANCH 10 13
ENDBRANCH 7 9
ENDBRANCH 4 7
ENDBRANCH 1 3
BRANCH 1 22
ATOM     22  C   ALA E  11       4.431  22.146   2.471  1.00 81.78 LIG 0.24  C 
ATOM     23  N   ALA E  12       3.136  22.196   2.166  1.00 82.91 LIG-0.35  N 
ATOM     24 H    ALA E  12       2.648  22.903   2.215  1.00 82.91 LIG 0.16  HD
ATOM     25 O    ALA E  11       5.119  21.144   2.239  1.00 89.30 LIG-0.27  OA
BRANCH 23 26
ATOM     26  CA  ALA E  12       2.443  20.998   1.710  1.00 61.10 LIG 0.17  C 
ATOM     27  CB  ALA E  12       3.110  20.429   0.449  1.00 65.27 LIG 0.04  C 
BRANCH 26 28
ATOM     28  C   ALA E  12       2.408  19.950   2.811  1.00 54.59 LIG 0.24  C 
ATOM     29  N   ALA E  13       1.348  19.144   2.781  1.00 64.78 LIG-0.35  N 
ATOM     30 H    ALA E  13       0.754  19.157   2.159  1.00 64.78 LIG 0.16  HD
ATOM     31 O    ALA E  12       3.323  19.851   3.633  1.00 69.11 LIG-0.27  OA
BRANCH 29 32
ATOM     32  CA  ALA E  13       1.102  18.154   3.818  1.00 54.23 LIG 0.17  C 
ATOM     33  CB  ALA E  13      -0.209  17.419   3.538  1.00 56.27 LIG 0.04  C 
BRANCH 32 34
ATOM     34  C   ALA E  13       2.215  17.126   3.913  1.00 65.29 LIG 0.24  C 
ATOM     35  N   ALA E  14       2.211  16.387   5.017  1.00 85.74 LIG-0.35  N 
ATOM     36 H    ALA E  14       1.649  16.495   5.658  1.00 85.74 LIG 0.16  HD
ATOM     37 O    ALA E  13       3.018  16.963   2.991  1.00 75.52 LIG-0.27  OA
BRANCH 35 38
ATOM     38  CA  ALA E  14       3.166  15.318   5.244  1.00 94.46 LIG 0.16  C 
ATOM     39  CB  ALA E  14       4.568  15.799   4.946  1.00106.12 LIG 0.04  C 
BRANCH 38 40
ATOM     40  C   ALA E  14       3.067  14.815   6.680  1.00 99.07 LIG 0.22  C 
ATOM     41 O    ALA E  14       3.997  14.979   7.471  1.00120.33 LIG-0.29  OA
ENDBRANCH 38 40
ENDBRANCH 35 38
ENDBRANCH 32 34
ENDBRANCH 29 32
ENDBRANCH 26 28
ENDBRANCH 23 26
ENDBRANCH 1 22
TORSDOF 13
ENDMDL
MODEL 9
USER: ADFR SOLUTION from run 113
USER: SCORE 9.430063 LL:  -3.601 LR:  -8.019 RR:   0.000 FEB:  -4.141
USER: RMSD 9.882922
USER: SEED 112
USER: STATUS no improvement in best in 11 clusters for 5 generations
USER: GENES 15
USER: genes 0 Translation |==|  0.87170 0.71043 0.58631
USER: genes 1 Rotation |==|  0.49613 0.78836 0.86962 0.67383
USER: genes 2 Torsion [CB]-CA--N-[C] |==|  0.78875
USER: genes 3 Torsion [N]-C--CA-[N] |==|  0.74468
USER: genes 4 Torsion [C]-CA--N-[C] |==|  0.79238
USER: genes 5 Torsion [N]-C--CA-[N] |==|  0.88826
USER: genes 6 Torsion [C]-CA--N-[C] |==|  0.76254
USER: genes 7 Torsion [N]-C--CA-[N] |==|  0.42375
USER: genes 8 Torsion [N]-CA--C-[N] |==|  0.24245
USER: genes 9 Torsion [C]-N--CA-[CB] |==|  0.82727
USER: genes 10 Torsion [N]-CA--C-[N] |==|  0.05528
USER: genes 11 Torsion [C]-N--CA-[CB] |==|  0.81208
USER: genes 12 Torsion [N]-CA--C-[N] |==|  0.34444
USER: genes 13 Torsion [C]-N--CA-[C] |==|  0.52590
USER: genes 14 Torsion [N]-CA--C-[O] |==|  0.05018
ROOT
ATOM      1  CA  ALA E  11       7.143  27.417   2.748  1.00 85.35 LIG 0.17  C 
ATOM      2  CB  ALA E  11       7.999  27.906   3.917  1.00 80.46 LIG 0.04  C 
ENDROOT
BRANCH 1 3
ATOM      3  N   ALA E  11       5.730  27.459   3.108  1.00 87.15 LIG-0.35  N 
ATOM      4  C   ALA E  10       5.211  26.529   3.914  1.00 62.15 LIG 0.24  C 
ATOM      5 O    ALA E  10       5.912  25.736   4.543  1.00 65.72 LIG-0.27  OA
ATOM      6 H    ALA E  11       5.286  28.111   2.765  1.00 87.15 LIG 0.16  HD
BRANCH 4 7
ATOM      7  CA  ALA E  10       3.692  26.478   4.042  1.00 66.45 LIG 0.17  C 
ATOM      8  CB  ALA E  10       3.034  26.936   2.742  1.00 58.63 LIG 0.04  C 
BRANCH 7 9
ATOM      9  N   ALA E  10       3.212  27.289   5.150  1.00 75.43 LIG-0.35  N 
ATOM     10  C   ALA E   9       3.333  26.922   6.424  1.00 82.21 LIG 0.24  C 
ATOM     11 O    ALA E   9       3.832  25.848   6.779  1.00 73.75 LIG-0.27  OA
ATOM     12 H    ALA E  10       2.842  28.027   4.906  1.00 75.43 LIG 0.16  HD
BRANCH 10 13
ATOM     13  CA  ALA E   9       2.787  27.899   7.457  1.00 87.65 LIG 0.17  C 
ATOM     14  CB  ALA E   9       1.278  27.734   7.623  1.00 72.21 LIG 0.04  C 
BRANCH 13 15
ATOM     15  N   ALA E   9       3.131  29.247   7.025  1.00 84.24 LIG-0.35  N 
ATOM     16 H    ALA E   9       2.514  29.640   6.573  1.00 84.24 LIG 0.16  HD
ATOM     17  C   ALA E   8       4.299  29.806   7.311  1.00 61.40 LIG 0.26  C 
ATOM     18 O    ALA E   8       5.133  29.268   8.037  1.00 66.21 LIG-0.27  OA
BRANCH 17 19
ATOM     19  CA  ALA E   8       4.552  31.187   6.714  1.00 67.03 LIG 0.40  C 
ATOM     20  N   ALA E   8       5.497  31.965   7.569  1.00 60.26 LIG 0.61  N 
ATOM     21  CB  ALA E   8       5.095  31.067   5.294  1.00 64.64 LIG 0.06  C 
ENDBRANCH 17 19
ENDBRANCH 13 15
ENDBRANCH 10 13
ENDBRANCH 7 9
ENDBRANCH 4 7
ENDBRANCH 1 3
BRANCH 1 22
ATOM     22  C   ALA E  11       7.572  26.015   2.331  1.00 81.78 LIG 0.24  C 
ATOM     23  N   ALA E  12       7.415  25.679   1.052  1.00 82.91 LIG-0.35  N 
ATOM     24 H    ALA E  12       7.195  26.226   0.425  1.00 82.91 LIG 0.16  HD
ATOM     25 O    ALA E  11       8.035  25.225   3.162  1.00 89.30 LIG-0.27  OA
BRANCH 23 26
ATOM     26  CA  ALA E  12       7.619  24.301   0.625  1.00 61.10 LIG 0.17  C 
ATOM     27  CB  ALA E  12       9.068  23.861   0.881  1.00 65.27 LIG 0.04  C 
BRANCH 26 28
ATOM     28  C   ALA E  12       6.648  23.374   1.338  1.00 54.59 LIG 0.24  C 
ATOM     29  N   ALA E  13       5.575  23.976   1.852  1.00 64.78 LIG-0.35  N 
ATOM     30 H    ALA E  13       5.397  24.810   1.743  1.00 64.78 LIG 0.16  HD
ATOM     31 O    ALA E  12       6.841  22.156   1.389  1.00 69.11 LIG-0.27  OA
BRANCH 29 32
ATOM     32  CA  ALA E  13       4.598  23.258   2.655  1.00 54.23 LIG 0.17  C 
ATOM     33  CB  ALA E  13       3.847  22.250   1.784  1.00 56.27 LIG 0.04  C 
BRANCH 32 34
ATOM     34  C   ALA E  13       5.237  22.509   3.810  1.00 65.29 LIG 0.24  C 
ATOM     35  N   ALA E  14       4.759  22.808   5.013  1.00 85.74 LIG-0.35  N 
ATOM     36 H    ALA E  14       4.158  23.407   5.149  1.00 85.74 LIG 0.16  HD
ATOM     37 O    ALA E  13       6.093  21.642   3.618  1.00 75.52 LIG-0.27  OA
BRANCH 35 38
ATOM     38  CA  ALA E  14       5.212  22.143   6.222  1.00 94.46 LIG 0.16  C 
ATOM     39  CB  ALA E  14       6.655  22.498   6.500  1.00106.12 LIG 0.04  C 
BRANCH 38 40
ATOM     40  C   ALA E  14       4.329  22.531   7.402  1.00 99.07 LIG 0.22  C 
ATOM     41 O    ALA E  14       3.215  23.023   7.221  1.00120.33 LIG-0.29  OA
ENDBRANCH 38 40
ENDBRANCH 35 38
ENDBRANCH 32 34
ENDBRANCH 29 32
ENDBRANCH 26 28
ENDBRANCH 23 26
ENDBRANCH 1 22
TORSDOF 13
ENDMDL
MODEL 10
USER: ADFR SOLUTION from run 16
USER: SCORE 9.612628 LL:  -2.820 LR:  -8.002 RR:   0.000 FEB:  -4.124
USER: RMSD 8.556295
USER: SEED 17197
USER: STATUS no improvement in best in 40 clusters for 5 generations
USER: GENES 15
USER: genes 0 Translation |==|  0.82452 0.45487 0.71235
USER: genes 1 Rotation |==|  0.58001 0.36786 0.88719 0.77608
USER: genes 2 Torsion [CB]-CA--N-[C] |==|  0.10585
USER: genes 3 Torsion [N]-C--CA-[N] |==|  0.86876
USER: genes 4 Torsion [C]-CA--N-[C] |==|  0.88667
USER: genes 5 Torsion [N]-C--CA-[N] |==|  0.40251
USER: genes 6 Torsion [C]-CA--N-[C] |==|  0.82569
USER: genes 7 Torsion [N]-C--CA-[N] |==|  0.40462
USER: genes 8 Torsion [N]-CA--C-[N] |==|  0.15895
USER: genes 9 Torsion [C]-N--CA-[CB] |==|  0.79130
USER: genes 10 Torsion [N]-CA--C-[N] |==|  0.17048
USER: genes 11 Torsion [C]-N--CA-[CB] |==|  0.87038
USER: genes 12 Torsion [N]-CA--C-[N] |==|  0.35002
USER: genes 13 Torsion [C]-N--CA-[C] |==|  0.20182
USER: genes 14 Torsion [N]-CA--C-[O] |==|  0.89949
ROOT
ATOM      1  CA  ALA E  11       6.082  22.817   5.016  1.00 85.35 LIG 0.17  C 
ATOM      2  CB  ALA E  11       5.863  21.340   5.350  1.00 80.46 LIG 0.04  C 
ENDROOT
BRANCH 1 3
ATOM      3  N   ALA E  11       4.802  23.514   4.965  1.00 87.15 LIG-0.35  N 
ATOM      4  C   ALA E  10       3.833  23.213   5.833  1.00 62.15 LIG 0.24  C 
ATOM      5 O    ALA E  10       4.030  22.504   6.821  1.00 65.72 LIG-0.27  OA
ATOM      6 H    ALA E  11       4.737  24.111   4.349  1.00 87.15 LIG 0.16  HD
BRANCH 4 7
ATOM      7  CA  ALA E  10       2.445  23.786   5.567  1.00 66.45 LIG 0.17  C 
ATOM      8  CB  ALA E  10       1.767  23.026   4.428  1.00 58.63 LIG 0.04  C 
BRANCH 7 9
ATOM      9  N   ALA E  10       2.494  25.206   5.251  1.00 75.43 LIG-0.35  N 
ATOM     10  C   ALA E   9       3.289  26.063   5.887  1.00 82.21 LIG 0.24  C 
ATOM     11 O    ALA E   9       4.030  25.740   6.822  1.00 73.75 LIG-0.27  OA
ATOM     12 H    ALA E  10       1.962  25.438   4.616  1.00 75.43 LIG 0.16  HD
BRANCH 10 13
ATOM     13  CA  ALA E   9       3.223  27.511   5.418  1.00 87.65 LIG 0.17  C 
ATOM     14  CB  ALA E   9       4.279  27.790   4.351  1.00 72.21 LIG 0.04  C 
BRANCH 13 15
ATOM     15  N   ALA E   9       3.403  28.367   6.583  1.00 84.24 LIG-0.35  N 
ATOM     16 H    ALA E   9       4.106  28.862   6.551  1.00 84.24 LIG 0.16  HD
ATOM     17  C   ALA E   8       2.549  28.372   7.598  1.00 61.40 LIG 0.26  C 
ATOM     18 O    ALA E   8       1.502  27.729   7.587  1.00 66.21 LIG-0.27  OA
BRANCH 17 19
ATOM     19  CA  ALA E   8       2.918  29.253   8.787  1.00 67.03 LIG 0.40  C 
ATOM     20  N   ALA E   8       1.692  29.837   9.411  1.00 60.26 LIG 0.61  N 
ATOM     21  CB  ALA E   8       3.712  28.460   9.819  1.00 64.64 LIG 0.06  C 
ENDBRANCH 17 19
ENDBRANCH 13 15
ENDBRANCH 10 13
ENDBRANCH 7 9
ENDBRANCH 4 7
ENDBRANCH 1 3
BRANCH 1 22
ATOM     22  C   ALA E  11       6.845  22.954   3.705  1.00 81.78 LIG 0.24  C 
ATOM     23  N   ALA E  12       7.113  24.186   3.275  1.00 82.91 LIG-0.35  N 
ATOM     24 H    ALA E  12       6.985  24.903   3.733  1.00 82.91 LIG 0.16  HD
ATOM     25 O    ALA E  11       7.187  21.950   3.067  1.00 89.30 LIG-0.27  OA
BRANCH 23 26
ATOM     26  CA  ALA E  12       7.662  24.394   1.942  1.00 61.10 LIG 0.17  C 
ATOM     27  CB  ALA E  12       9.149  24.009   1.900  1.00 65.27 LIG 0.04  C 
BRANCH 26 28
ATOM     28  C   ALA E  12       6.878  23.598   0.912  1.00 54.59 LIG 0.24  C 
ATOM     29  N   ALA E  13       5.590  23.930   0.812  1.00 64.78 LIG-0.35  N 
ATOM     30 H    ALA E  13       5.230  24.583   1.241  1.00 64.78 LIG 0.16  HD
ATOM     31 O    ALA E  12       7.422  22.744   0.207  1.00 69.11 LIG-0.27  OA
BRANCH 29 32
ATOM     32  CA  ALA E  13       4.670  23.202  -0.047  1.00 54.23 LIG 0.17  C 
ATOM     33  CB  ALA E  13       5.300  22.988  -1.424  1.00 56.27 LIG 0.04  C 
BRANCH 32 34
ATOM     34  C   ALA E  13       4.295  21.846   0.523  1.00 65.29 LIG 0.24  C 
ATOM     35  N   ALA E  14       2.992  21.621   0.639  1.00 85.74 LIG-0.35  N 
ATOM     36 H    ALA E  14       2.391  22.204   0.446  1.00 85.74 LIG 0.16  HD
ATOM     37 O    ALA E  13       5.155  21.004   0.794  1.00 75.52 LIG-0.27  OA
BRANCH 35 38
ATOM     38  CA  ALA E  14       2.456  20.356   1.109  1.00 94.46 LIG 0.16  C 
ATOM     39  CB  ALA E  14       3.090  19.210   0.354  1.00106.12 LIG 0.04  C 
BRANCH 38 40
ATOM     40  C   ALA E  14       2.691  20.205   2.607  1.00 99.07 LIG 0.22  C 
ATOM     41 O    ALA E  14       3.721  20.629   3.130  1.00120.33 LIG-0.29  OA
ENDBRANCH 38 40
ENDBRANCH 35 38
ENDBRANCH 32 34
ENDBRANCH 29 32
ENDBRANCH 26 28
ENDBRANCH 23 26
ENDBRANCH 1 22
TORSDOF 13
ENDMDL
MODEL 11
USER: ADFR SOLUTION from run 173
USER: SCORE 9.128957 LL:  -2.784 LR:  -7.993 RR:   0.000 FEB:  -4.115
USER: RMSD 8.369972
USER: SEED 172
USER: STATUS no improvement in best in 24 clusters for 5 generations
USER: GENES 15
USER: genes 0 Translation |==|  0.84862 0.47403 0.62366
USER: genes 1 Rotation |==|  0.80706 0.69479 0.79077 0.68228
USER: genes 2 Torsion [CB]-CA--N-[C] |==|  0.80555
USER: genes 3 Torsion [N]-C--CA-[N] |==|  0.22881
USER: genes 4 Torsion [C]-CA--N-[C] |==|  0.78344
USER: genes 5 Torsion [N]-C--CA-[N] |==|  0.41211
USER: genes 6 Torsion [C]-CA--N-[C] |==|  0.85984
USER: genes 7 Torsion [N]-C--CA-[N] |==|  0.40270
USER: genes 8 Torsion [N]-CA--C-[N] |==|  0.10800
USER: genes 9 Torsion [C]-N--CA-[CB] |==|  0.84376
USER: genes 10 Torsion [N]-CA--C-[N] |==|  0.46179
USER: genes 11 Torsion [C]-N--CA-[CB] |==|  0.50751
USER: genes 12 Torsion [N]-CA--C-[N] |==|  0.48689
USER: genes 13 Torsion [C]-N--CA-[C] |==|  0.20807
USER: genes 14 Torsion [N]-CA--C-[O] |==|  0.64440
ROOT
ATOM      1  CA  ALA E  11       6.624  23.162   3.420  1.00 85.35 LIG 0.17  C 
ATOM      2  CB  ALA E  11       7.776  22.155   3.422  1.00 80.46 LIG 0.04  C 
ENDROOT
BRANCH 1 3
ATOM      3  N   ALA E  11       6.306  23.564   4.786  1.00 87.15 LIG-0.35  N 
ATOM      4  C   ALA E  10       5.733  22.700   5.628  1.00 62.15 LIG 0.24  C 
ATOM      5 O    ALA E  10       5.635  21.499   5.375  1.00 65.72 LIG-0.27  OA
ATOM      6 H    ALA E  11       6.515  24.374   4.985  1.00 87.15 LIG 0.16  HD
BRANCH 4 7
ATOM      7  CA  ALA E  10       5.195  23.252   6.944  1.00 66.45 LIG 0.17  C 
ATOM      8  CB  ALA E  10       5.154  22.152   8.003  1.00 58.63 LIG 0.04  C 
BRANCH 7 9
ATOM      9  N   ALA E  10       3.871  23.835   6.788  1.00 75.43 LIG-0.35  N 
ATOM     10  C   ALA E   9       3.667  25.041   6.263  1.00 82.21 LIG 0.24  C 
ATOM     11 O    ALA E   9       4.581  25.786   5.892  1.00 73.75 LIG-0.27  OA
ATOM     12 H    ALA E  10       3.234  23.329   7.067  1.00 75.43 LIG 0.16  HD
BRANCH 10 13
ATOM     13  CA  ALA E   9       2.216  25.491   6.162  1.00 87.65 LIG 0.17  C 
ATOM     14  CB  ALA E   9       1.598  25.056   4.835  1.00 72.21 LIG 0.04  C 
BRANCH 13 15
ATOM     15  N   ALA E   9       2.184  26.940   6.315  1.00 84.24 LIG-0.35  N 
ATOM     16 H    ALA E   9       1.741  27.349   5.701  1.00 84.24 LIG 0.16  HD
ATOM     17  C   ALA E   8       2.790  27.560   7.318  1.00 61.40 LIG 0.26  C 
ATOM     18 O    ALA E   8       3.339  26.956   8.237  1.00 66.21 LIG-0.27  OA
BRANCH 17 19
ATOM     19  CA  ALA E   8       2.746  29.085   7.295  1.00 67.03 LIG 0.40  C 
ATOM     20  N   ALA E   8       2.648  29.629   8.683  1.00 60.26 LIG 0.61  N 
ATOM     21  CB  ALA E   8       3.975  29.647   6.589  1.00 64.64 LIG 0.06  C 
ENDBRANCH 17 19
ENDBRANCH 13 15
ENDBRANCH 10 13
ENDBRANCH 7 9
ENDBRANCH 4 7
ENDBRANCH 1 3
BRANCH 1 22
ATOM     22  C   ALA E  11       5.409  22.571   2.715  1.00 81.78 LIG 0.24  C 
ATOM     23  N   ALA E  12       4.227  23.139   2.946  1.00 82.91 LIG-0.35  N 
ATOM     24 H    ALA E  12       4.114  23.878   3.372  1.00 82.91 LIG 0.16  HD
ATOM     25 O    ALA E  11       5.529  21.592   1.968  1.00 89.30 LIG-0.27  OA
BRANCH 23 26
ATOM     26  CA  ALA E  12       3.005  22.511   2.464  1.00 61.10 LIG 0.17  C 
ATOM     27  CB  ALA E  12       3.069  22.288   0.945  1.00 65.27 LIG 0.04  C 
BRANCH 26 28
ATOM     28  C   ALA E  12       2.762  21.195   3.184  1.00 54.59 LIG 0.24  C 
ATOM     29  N   ALA E  13       1.539  20.689   3.027  1.00 64.78 LIG-0.35  N 
ATOM     30 H    ALA E  13       0.942  21.032   2.511  1.00 64.78 LIG 0.16  HD
ATOM     31 O    ALA E  12       3.657  20.638   3.826  1.00 69.11 LIG-0.27  OA
BRANCH 29 32
ATOM     32  CA  ALA E  13       1.102  19.493   3.729  1.00 54.23 LIG 0.17  C 
ATOM     33  CB  ALA E  13      -0.317  19.122   3.296  1.00 56.27 LIG 0.04  C 
BRANCH 32 34
ATOM     34  C   ALA E  13       2.008  18.304   3.464  1.00 65.29 LIG 0.24  C 
ATOM     35  N   ALA E  14       1.719  17.206   4.154  1.00 85.74 LIG-0.35  N 
ATOM     36 H    ALA E  14       1.092  17.166   4.739  1.00 85.74 LIG 0.16  HD
ATOM     37 O    ALA E  13       2.905  18.355   2.618  1.00 75.52 LIG-0.27  OA
BRANCH 35 38
ATOM     38  CA  ALA E  14       2.444  15.960   3.980  1.00 94.46 LIG 0.16  C 
ATOM     39  CB  ALA E  14       2.584  15.640   2.509  1.00106.12 LIG 0.04  C 
BRANCH 38 40
ATOM     40  C   ALA E  14       3.815  16.048   4.640  1.00 99.07 LIG 0.22  C 
ATOM     41 O    ALA E  14       4.836  15.763   4.014  1.00120.33 LIG-0.29  OA
ENDBRANCH 38 40
ENDBRANCH 35 38
ENDBRANCH 32 34
ENDBRANCH 29 32
ENDBRANCH 26 28
ENDBRANCH 23 26
ENDBRANCH 1 22
TORSDOF 13
ENDMDL
MODEL 12
USER: ADFR SOLUTION from run 50
USER: SCORE 8.100360 LL:  -2.531 LR:  -7.987 RR:   0.000 FEB:  -4.109
USER: RMSD 8.412101
USER: SEED 49
USER: STATUS no improvement in best in 22 clusters for 5 generations
USER: GENES 15
USER: genes 0 Translation |==|  0.80022 0.47963 0.83732
USER: genes 1 Rotation |==|  0.54746 0.48862 0.88079 0.82034
USER: genes 2 Torsion [CB]-CA--N-[C] |==|  0.76838
USER: genes 3 Torsion [N]-C--CA-[N] |==|  0.96793
USER: genes 4 Torsion [C]-CA--N-[C] |==|  0.19195
USER: genes 5 Torsion [N]-C--CA-[N] |==|  0.63367
USER: genes 6 Torsion [C]-CA--N-[C] |==|  0.69252
USER: genes 7 Torsion [N]-C--CA-[N] |==|  0.36346
USER: genes 8 Torsion [N]-CA--C-[N] |==|  0.10133
USER: genes 9 Torsion [C]-N--CA-[CB] |==|  0.83286
USER: genes 10 Torsion [N]-CA--C-[N] |==|  0.39310
USER: genes 11 Torsion [C]-N--CA-[CB] |==|  0.23333
USER: genes 12 Torsion [N]-CA--C-[N] |==|  0.09600
USER: genes 13 Torsion [C]-N--CA-[C] |==|  0.75258
USER: genes 14 Torsion [N]-CA--C-[O] |==|  0.01501
ROOT
ATOM      1  CA  ALA E  11       5.535  23.262   7.266  1.00 85.35 LIG 0.17  C 
ATOM      2  CB  ALA E  11       5.321  22.136   8.279  1.00 80.46 LIG 0.04  C 
ENDROOT
BRANCH 1 3
ATOM      3  N   ALA E  11       4.318  24.056   7.134  1.00 87.15 LIG-0.35  N 
ATOM      4  C   ALA E  10       3.336  23.657   6.321  1.00 62.15 LIG 0.24  C 
ATOM      5 O    ALA E  10       3.315  22.534   5.815  1.00 65.72 LIG-0.27  OA
ATOM      6 H    ALA E  11       4.297  24.772   7.610  1.00 87.15 LIG 0.16  HD
BRANCH 4 7
ATOM      7  CA  ALA E  10       2.216  24.649   6.031  1.00 66.45 LIG 0.17  C 
ATOM      8  CB  ALA E  10       2.279  25.112   4.576  1.00 58.63 LIG 0.04  C 
BRANCH 7 9
ATOM      9  N   ALA E  10       2.267  25.803   6.917  1.00 75.43 LIG-0.35  N 
ATOM     10  C   ALA E   9       3.229  26.721   6.856  1.00 82.21 LIG 0.24  C 
ATOM     11 O    ALA E   9       4.180  26.661   6.069  1.00 73.75 LIG-0.27  OA
ATOM     12 H    ALA E  10       1.620  25.836   7.482  1.00 75.43 LIG 0.16  HD
BRANCH 10 13
ATOM     13  CA  ALA E   9       3.121  27.870   7.850  1.00 87.65 LIG 0.17  C 
ATOM     14  CB  ALA E   9       1.776  27.845   8.572  1.00 72.21 LIG 0.04  C 
BRANCH 13 15
ATOM     15  N   ALA E   9       3.310  29.115   7.117  1.00 84.24 LIG-0.35  N 
ATOM     16 H    ALA E   9       2.664  29.310   6.582  1.00 84.24 LIG 0.16  HD
ATOM     17  C   ALA E   8       4.388  29.872   7.270  1.00 61.40 LIG 0.26  C 
ATOM     18 O    ALA E   8       5.256  29.629   8.106  1.00 66.21 LIG-0.27  OA
BRANCH 17 19
ATOM     19  CA  ALA E   8       4.487  31.099   6.369  1.00 67.03 LIG 0.40  C 
ATOM     20  N   ALA E   8       4.813  32.316   7.170  1.00 60.26 LIG 0.61  N 
ATOM     21  CB  ALA E   8       5.533  30.883   5.281  1.00 64.64 LIG 0.06  C 
ENDBRANCH 17 19
ENDBRANCH 13 15
ENDBRANCH 10 13
ENDBRANCH 7 9
ENDBRANCH 4 7
ENDBRANCH 1 3
BRANCH 1 22
ATOM     22  C   ALA E  11       5.976  22.689   5.925  1.00 81.78 LIG 0.24  C 
ATOM     23  N   ALA E  12       5.798  23.446   4.844  1.00 82.91 LIG-0.35  N 
ATOM     24 H    ALA E  12       5.557  24.272   4.859  1.00 82.91 LIG 0.16  HD
ATOM     25 O    ALA E  11       6.468  21.556   5.855  1.00 89.30 LIG-0.27  OA
BRANCH 23 26
ATOM     26  CA  ALA E  12       6.014  22.890   3.515  1.00 61.10 LIG 0.17  C 
ATOM     27  CB  ALA E  12       7.462  22.402   3.357  1.00 65.27 LIG 0.04  C 
BRANCH 26 28
ATOM     28  C   ALA E  12       5.038  21.755   3.248  1.00 54.59 LIG 0.24  C 
ATOM     29  N   ALA E  13       4.564  21.708   2.003  1.00 64.78 LIG-0.35  N 
ATOM     30 H    ALA E  13       4.826  22.229   1.371  1.00 64.78 LIG 0.16  HD
ATOM     31 O    ALA E  12       4.754  20.931   4.121  1.00 69.11 LIG-0.27  OA
BRANCH 29 32
ATOM     32  CA  ALA E  13       3.543  20.753   1.602  1.00 54.23 LIG 0.17  C 
ATOM     33  CB  ALA E  13       2.156  21.293   1.950  1.00 56.27 LIG 0.04  C 
BRANCH 32 34
ATOM     34  C   ALA E  13       3.581  20.456   0.113  1.00 65.29 LIG 0.24  C 
ATOM     35  N   ALA E  14       4.790  20.457  -0.435  1.00 85.74 LIG-0.35  N 
ATOM     36 H    ALA E  14       5.507  20.647  -0.001  1.00 85.74 LIG 0.16  HD
ATOM     37 O    ALA E  13       2.554  20.176  -0.511  1.00 75.52 LIG-0.27  OA
BRANCH 35 38
ATOM     38  CA  ALA E  14       5.016  20.134  -1.832  1.00 94.46 LIG 0.16  C 
ATOM     39  CB  ALA E  14       6.205  20.904  -2.359  1.00106.12 LIG 0.04  C 
BRANCH 38 40
ATOM     40  C   ALA E  14       5.231  18.634  -2.002  1.00 99.07 LIG 0.22  C 
ATOM     41 O    ALA E  14       5.104  17.868  -1.047  1.00120.33 LIG-0.29  OA
ENDBRANCH 38 40
ENDBRANCH 35 38
ENDBRANCH 32 34
ENDBRANCH 29 32
ENDBRANCH 26 28
ENDBRANCH 23 26
ENDBRANCH 1 22
TORSDOF 13
ENDMDL
MODEL 13
USER: ADFR SOLUTION from run 131
USER: SCORE 10.153442 LL:  -4.134 LR:  -7.895 RR:   0.000 FEB:  -4.017
USER: RMSD 9.041977
USER: SEED 130
USER: STATUS no improvement in best in 19 clusters for 5 generations
USER: GENES 15
USER: genes 0 Translation |==|  0.85625 0.48024 0.53232
USER: genes 1 Rotation |==|  0.70220 0.79112 0.60389 0.83700
USER: genes 2 Torsion [CB]-CA--N-[C] |==|  0.83511
USER: genes 3 Torsion [N]-C--CA-[N] |==|  0.40686
USER: genes 4 Torsion [C]-CA--N-[C] |==|  0.56367
USER: genes 5 Torsion [N]-C--CA-[N] |==|  0.39808
USER: genes 6 Torsion [C]-CA--N-[C] |==|  0.77813
USER: genes 7 Torsion [N]-C--CA-[N] |==|  0.53974
USER: genes 8 Torsion [N]-CA--C-[N] |==|  0.11573
USER: genes 9 Torsion [C]-N--CA-[CB] |==|  0.83889
USER: genes 10 Torsion [N]-CA--C-[N] |==|  0.19342
USER: genes 11 Torsion [C]-N--CA-[CB] |==|  0.86706
USER: genes 12 Torsion [N]-CA--C-[N] |==|  0.84568
USER: genes 13 Torsion [C]-N--CA-[C] |==|  0.59121
USER: genes 14 Torsion [N]-CA--C-[O] |==|  0.91807
ROOT
ATOM      1  CA  ALA E  11       6.796  23.273   1.776  1.00 85.35 LIG 0.17  C 
ATOM      2  CB  ALA E  11       7.773  22.554   2.707  1.00 80.46 LIG 0.04  C 
ENDROOT
BRANCH 1 3
ATOM      3  N   ALA E  11       6.841  24.712   2.014  1.00 87.15 LIG-0.35  N 
ATOM      4  C   ALA E  10       6.554  25.206   3.221  1.00 62.15 LIG 0.24  C 
ATOM      5 O    ALA E  10       6.442  24.490   4.217  1.00 65.72 LIG-0.27  OA
ATOM      6 H    ALA E  11       7.061  25.187   1.332  1.00 87.15 LIG 0.16  HD
BRANCH 4 7
ATOM      7  CA  ALA E  10       6.367  26.715   3.338  1.00 66.45 LIG 0.17  C 
ATOM      8  CB  ALA E  10       7.696  27.390   3.672  1.00 58.63 LIG 0.04  C 
BRANCH 7 9
ATOM      9  N   ALA E  10       5.371  27.064   4.340  1.00 75.43 LIG-0.35  N 
ATOM     10  C   ALA E   9       4.712  28.221   4.336  1.00 82.21 LIG 0.24  C 
ATOM     11 O    ALA E   9       4.908  29.113   3.503  1.00 73.75 LIG-0.27  OA
ATOM     12 H    ALA E  10       5.249  26.455   4.935  1.00 75.43 LIG 0.16  HD
BRANCH 10 13
ATOM     13  CA  ALA E   9       3.695  28.416   5.452  1.00 87.65 LIG 0.17  C 
ATOM     14  CB  ALA E   9       2.296  28.004   4.997  1.00 72.21 LIG 0.04  C 
BRANCH 13 15
ATOM     15  N   ALA E   9       3.734  29.816   5.854  1.00 84.24 LIG-0.35  N 
ATOM     16 H    ALA E   9       3.102  30.295   5.521  1.00 84.24 LIG 0.16  HD
ATOM     17  C   ALA E   8       4.669  30.295   6.663  1.00 61.40 LIG 0.26  C 
ATOM     18 O    ALA E   8       5.508  29.579   7.205  1.00 66.21 LIG-0.27  OA
BRANCH 17 19
ATOM     19  CA  ALA E   8       4.634  31.798   6.922  1.00 67.03 LIG 0.40  C 
ATOM     20  N   ALA E   8       5.910  32.254   7.549  1.00 60.26 LIG 0.61  N 
ATOM     21  CB  ALA E   8       4.376  32.560   5.627  1.00 64.64 LIG 0.06  C 
ENDBRANCH 17 19
ENDBRANCH 13 15
ENDBRANCH 10 13
ENDBRANCH 7 9
ENDBRANCH 4 7
ENDBRANCH 1 3
BRANCH 1 22
ATOM     22  C   ALA E  11       5.388  22.721   1.961  1.00 81.78 LIG 0.24  C 
ATOM     23  N   ALA E  12       4.377  23.438   1.474  1.00 82.91 LIG-0.35  N 
ATOM     24 H    ALA E  12       4.465  24.129   0.969  1.00 82.91 LIG 0.16  HD
ATOM     25 O    ALA E  11       5.204  21.651   2.555  1.00 89.30 LIG-0.27  OA
BRANCH 23 26
ATOM     26  CA  ALA E  12       3.002  23.071   1.784  1.00 61.10 LIG 0.17  C 
ATOM     27  CB  ALA E  12       2.706  21.634   1.331  1.00 65.27 LIG 0.04  C 
BRANCH 26 28
ATOM     28  C   ALA E  12       2.731  23.226   3.272  1.00 54.59 LIG 0.24  C 
ATOM     29  N   ALA E  13       2.704  24.486   3.706  1.00 64.78 LIG-0.35  N 
ATOM     30 H    ALA E  13       2.767  25.171   3.190  1.00 64.78 LIG 0.16  HD
ATOM     31 O    ALA E  12       2.518  22.247   3.992  1.00 69.11 LIG-0.27  OA
BRANCH 29 32
ATOM     32  CA  ALA E  13       2.562  24.813   5.116  1.00 54.23 LIG 0.17  C 
ATOM     33  CB  ALA E  13       1.415  24.006   5.726  1.00 56.27 LIG 0.04  C 
BRANCH 32 34
ATOM     34  C   ALA E  13       3.824  24.523   5.908  1.00 65.29 LIG 0.24  C 
ATOM     35  N   ALA E  14       4.277  23.277   5.817  1.00 85.74 LIG-0.35  N 
ATOM     36 H    ALA E  14       3.875  22.658   5.377  1.00 85.74 LIG 0.16  HD
ATOM     37 O    ALA E  13       4.408  25.411   6.533  1.00 75.52 LIG-0.27  OA
BRANCH 35 38
ATOM     38  CA  ALA E  14       5.504  22.843   6.460  1.00 94.46 LIG 0.16  C 
ATOM     39  CB  ALA E  14       5.208  22.324   7.849  1.00106.12 LIG 0.04  C 
BRANCH 38 40
ATOM     40  C   ALA E  14       6.189  21.769   5.623  1.00 99.07 LIG 0.22  C 
ATOM     41 O    ALA E  14       5.532  21.010   4.910  1.00120.33 LIG-0.29  OA
ENDBRANCH 38 40
ENDBRANCH 35 38
ENDBRANCH 32 34
ENDBRANCH 29 32
ENDBRANCH 26 28
ENDBRANCH 23 26
ENDBRANCH 1 22
TORSDOF 13
ENDMDL
MODEL 14
USER: ADFR SOLUTION from run 32
USER: SCORE 8.880685 LL:  -2.655 LR:  -7.859 RR:   0.000 FEB:  -3.982
USER: RMSD 8.484712
USER: SEED 31
USER: STATUS no improvement in best in 34 clusters for 5 generations
USER: GENES 15
USER: genes 0 Translation |==|  0.81172 0.47517 0.71221
USER: genes 1 Rotation |==|  0.64421 0.64180 0.82112 0.82555
USER: genes 2 Torsion [CB]-CA--N-[C] |==|  0.84539
USER: genes 3 Torsion [N]-C--CA-[N] |==|  0.08665
USER: genes 4 Torsion [C]-CA--N-[C] |==|  0.79303
USER: genes 5 Torsion [N]-C--CA-[N] |==|  0.41727
USER: genes 6 Torsion [C]-CA--N-[C] |==|  0.83056
USER: genes 7 Torsion [N]-C--CA-[N] |==|  0.51310
USER: genes 8 Torsion [N]-CA--C-[N] |==|  0.02461
USER: genes 9 Torsion [C]-N--CA-[CB] |==|  0.85101
USER: genes 10 Torsion [N]-CA--C-[N] |==|  0.40455
USER: genes 11 Torsion [C]-N--CA-[CB] |==|  0.51667
USER: genes 12 Torsion [N]-CA--C-[N] |==|  0.41169
USER: genes 13 Torsion [C]-N--CA-[C] |==|  0.18568
USER: genes 14 Torsion [N]-CA--C-[O] |==|  0.69336
ROOT
ATOM      1  CA  ALA E  11       5.794  23.182   5.014  1.00 85.35 LIG 0.17  C 
ATOM      2  CB  ALA E  11       6.293  22.289   6.152  1.00 80.46 LIG 0.04  C 
ENDROOT
BRANCH 1 3
ATOM      3  N   ALA E  11       4.816  24.139   5.519  1.00 87.15 LIG-0.35  N 
ATOM      4  C   ALA E  10       3.730  23.716   6.172  1.00 62.15 LIG 0.24  C 
ATOM      5 O    ALA E  10       3.603  22.551   6.552  1.00 65.72 LIG-0.27  OA
ATOM      6 H    ALA E  11       5.000  24.965   5.363  1.00 87.15 LIG 0.16  HD
BRANCH 4 7
ATOM      7  CA  ALA E  10       2.630  24.735   6.443  1.00 66.45 LIG 0.17  C 
ATOM      8  CB  ALA E  10       1.278  24.035   6.575  1.00 58.63 LIG 0.04  C 
BRANCH 7 9
ATOM      9  N   ALA E  10       2.559  25.750   5.403  1.00 75.43 LIG-0.35  N 
ATOM     10  C   ALA E   9       3.449  26.734   5.287  1.00 82.21 LIG 0.24  C 
ATOM     11 O    ALA E   9       4.393  26.894   6.070  1.00 73.75 LIG-0.27  OA
ATOM     12 H    ALA E  10       1.890  25.656   4.871  1.00 75.43 LIG 0.16  HD
BRANCH 10 13
ATOM     13  CA  ALA E   9       3.231  27.701   4.132  1.00 87.65 LIG 0.17  C 
ATOM     14  CB  ALA E   9       3.900  27.192   2.857  1.00 72.21 LIG 0.04  C 
BRANCH 13 15
ATOM     15  N   ALA E   9       3.759  29.000   4.530  1.00 84.24 LIG-0.35  N 
ATOM     16 H    ALA E   9       4.398  29.288   4.030  1.00 84.24 LIG 0.16  HD
ATOM     17  C   ALA E   8       3.286  29.668   5.572  1.00 61.40 LIG 0.26  C 
ATOM     18 O    ALA E   8       2.312  29.288   6.218  1.00 66.21 LIG-0.27  OA
BRANCH 17 19
ATOM     19  CA  ALA E   8       3.999  30.971   5.921  1.00 67.03 LIG 0.40  C 
ATOM     20  N   ALA E   8       3.441  31.558   7.176  1.00 60.26 LIG 0.61  N 
ATOM     21  CB  ALA E   8       5.500  30.741   6.064  1.00 64.64 LIG 0.06  C 
ENDBRANCH 17 19
ENDBRANCH 13 15
ENDBRANCH 10 13
ENDBRANCH 7 9
ENDBRANCH 4 7
ENDBRANCH 1 3
BRANCH 1 22
ATOM     22  C   ALA E  11       5.213  22.330   3.892  1.00 81.78 LIG 0.24  C 
ATOM     23  N   ALA E  12       4.019  22.676   3.413  1.00 82.91 LIG-0.35  N 
ATOM     24 H    ALA E  12       3.603  23.403   3.611  1.00 82.91 LIG 0.16  HD
ATOM     25 O    ALA E  11       5.832  21.351   3.460  1.00 89.30 LIG-0.27  OA
BRANCH 23 26
ATOM     26  CA  ALA E  12       3.321  21.799   2.482  1.00 61.10 LIG 0.17  C 
ATOM     27  CB  ALA E  12       4.217  21.452   1.284  1.00 65.27 LIG 0.04  C 
BRANCH 26 28
ATOM     28  C   ALA E  12       2.862  20.532   3.186  1.00 54.59 LIG 0.24  C 
ATOM     29  N   ALA E  13       1.703  20.039   2.749  1.00 64.78 LIG-0.35  N 
ATOM     30 H    ALA E  13       1.269  20.361   2.080  1.00 64.78 LIG 0.16  HD
ATOM     31 O    ALA E  12       3.546  20.000   4.064  1.00 69.11 LIG-0.27  OA
BRANCH 29 32
ATOM     32  CA  ALA E  13       1.066  18.894   3.379  1.00 54.23 LIG 0.17  C 
ATOM     33  CB  ALA E  13      -0.163  18.471   2.572  1.00 56.27 LIG 0.04  C 
BRANCH 32 34
ATOM     34  C   ALA E  13       1.998  17.701   3.490  1.00 65.29 LIG 0.24  C 
ATOM     35  N   ALA E  14       1.796  16.921   4.546  1.00 85.74 LIG-0.35  N 
ATOM     36 H    ALA E  14       1.210  17.085   5.153  1.00 85.74 LIG 0.16  HD
ATOM     37 O    ALA E  13       2.835  17.457   2.618  1.00 75.52 LIG-0.27  OA
BRANCH 35 38
ATOM     38  CA  ALA E  14       2.556  15.705   4.777  1.00 94.46 LIG 0.16  C 
ATOM     39  CB  ALA E  14       2.448  14.789   3.579  1.00106.12 LIG 0.04  C 
BRANCH 38 40
ATOM     40  C   ALA E  14       4.015  16.039   5.065  1.00 99.07 LIG 0.22  C 
ATOM     41 O    ALA E  14       4.898  15.762   4.252  1.00120.33 LIG-0.29  OA
ENDBRANCH 38 40
ENDBRANCH 35 38
ENDBRANCH 32 34
ENDBRANCH 29 32
ENDBRANCH 26 28
ENDBRANCH 23 26
ENDBRANCH 1 22
TORSDOF 13
ENDMDL
MODEL 15
USER: ADFR SOLUTION from run 172
USER: SCORE 8.949558 LL:  -2.679 LR:  -7.842 RR:   0.000 FEB:  -3.964
USER: RMSD 8.665857
USER: SEED 171
USER: STATUS no improvement in best in 36 clusters for 5 generations
USER: GENES 15
USER: genes 0 Translation |==|  0.82022 0.47951 0.71118
USER: genes 1 Rotation |==|  0.55910 0.35589 0.81130 0.85893
USER: genes 2 Torsion [CB]-CA--N-[C] |==|  0.17157
USER: genes 3 Torsion [N]-C--CA-[N] |==|  0.62402
USER: genes 4 Torsion [C]-CA--N-[C] |==|  0.63036
USER: genes 5 Torsion [N]-C--CA-[N] |==|  0.21636
USER: genes 6 Torsion [C]-CA--N-[C] |==|  0.78606
USER: genes 7 Torsion [N]-C--CA-[N] |==|  0.32455
USER: genes 8 Torsion [N]-CA--C-[N] |==|  0.08760
USER: genes 9 Torsion [C]-N--CA-[CB] |==|  0.79330
USER: genes 10 Torsion [N]-CA--C-[N] |==|  0.17452
USER: genes 11 Torsion [C]-N--CA-[CB] |==|  0.85554
USER: genes 12 Torsion [N]-CA--C-[N] |==|  0.39970
USER: genes 13 Torsion [C]-N--CA-[C] |==|  0.18242
USER: genes 14 Torsion [N]-CA--C-[O] |==|  0.82472
ROOT
ATOM      1  CA  ALA E  11       5.985  23.260   4.995  1.00 85.35 LIG 0.17  C 
ATOM      2  CB  ALA E  11       5.149  22.023   5.328  1.00 80.46 LIG 0.04  C 
ENDROOT
BRANCH 1 3
ATOM      3  N   ALA E  11       5.145  24.453   5.011  1.00 87.15 LIG-0.35  N 
ATOM      4  C   ALA E  10       4.525  24.828   6.132  1.00 62.15 LIG 0.24  C 
ATOM      5 O    ALA E  10       4.784  24.327   7.227  1.00 65.72 LIG-0.27  OA
ATOM      6 H    ALA E  11       5.092  24.870   4.260  1.00 87.15 LIG 0.16  HD
BRANCH 4 7
ATOM      7  CA  ALA E  10       3.467  25.920   6.021  1.00 66.45 LIG 0.17  C 
ATOM      8  CB  ALA E  10       3.547  26.599   4.654  1.00 58.63 LIG 0.04  C 
BRANCH 7 9
ATOM      9  N   ALA E  10       3.599  26.916   7.074  1.00 75.43 LIG-0.35  N 
ATOM     10  C   ALA E   9       2.567  27.355   7.790  1.00 82.21 LIG 0.24  C 
ATOM     11 O    ALA E   9       1.402  26.984   7.605  1.00 73.75 LIG-0.27  OA
ATOM     12 H    ALA E  10       4.405  27.194   7.189  1.00 75.43 LIG 0.16  HD
BRANCH 10 13
ATOM     13  CA  ALA E   9       2.887  28.388   8.862  1.00 87.65 LIG 0.17  C 
ATOM     14  CB  ALA E   9       1.784  28.444   9.917  1.00 72.21 LIG 0.04  C 
BRANCH 13 15
ATOM     15  N   ALA E   9       3.062  29.677   8.204  1.00 84.24 LIG-0.35  N 
ATOM     16 H    ALA E   9       2.389  30.207   8.286  1.00 84.24 LIG 0.16  HD
ATOM     17  C   ALA E   8       4.166  29.990   7.541  1.00 61.40 LIG 0.26  C 
ATOM     18 O    ALA E   8       5.154  29.259   7.513  1.00 66.21 LIG-0.27  OA
BRANCH 17 19
ATOM     19  CA  ALA E   8       4.167  31.338   6.828  1.00 67.03 LIG 0.40  C 
ATOM     20  N   ALA E   8       5.215  32.236   7.399  1.00 60.26 LIG 0.61  N 
ATOM     21  CB  ALA E   8       4.385  31.154   5.330  1.00 64.64 LIG 0.06  C 
ENDBRANCH 17 19
ENDBRANCH 13 15
ENDBRANCH 10 13
ENDBRANCH 7 9
ENDBRANCH 4 7
ENDBRANCH 1 3
BRANCH 1 22
ATOM     22  C   ALA E  11       6.678  23.082   3.650  1.00 81.78 LIG 0.24  C 
ATOM     23  N   ALA E  12       6.993  24.184   2.970  1.00 82.91 LIG-0.35  N 
ATOM     24 H    ALA E  12       6.936  24.984   3.281  1.00 82.91 LIG 0.16  HD
ATOM     25 O    ALA E  11       6.921  21.951   3.212  1.00 89.30 LIG-0.27  OA
BRANCH 23 26
ATOM     26  CA  ALA E  12       7.476  24.086   1.600  1.00 61.10 LIG 0.17  C 
ATOM     27  CB  ALA E  12       8.926  23.579   1.567  1.00 65.27 LIG 0.04  C 
BRANCH 26 28
ATOM     28  C   ALA E  12       6.576  23.174   0.781  1.00 54.59 LIG 0.24  C 
ATOM     29  N   ALA E  13       5.319  23.601   0.650  1.00 64.78 LIG-0.35  N 
ATOM     30 H    ALA E  13       5.039  24.359   0.943  1.00 64.78 LIG 0.16  HD
ATOM     31 O    ALA E  12       7.009  22.145   0.256  1.00 69.11 LIG-0.27  OA
BRANCH 29 32
ATOM     32  CA  ALA E  13       4.299  22.803  -0.011  1.00 54.23 LIG 0.17  C 
ATOM     33  CB  ALA E  13       4.794  22.360  -1.388  1.00 56.27 LIG 0.04  C 
BRANCH 32 34
ATOM     34  C   ALA E  13       3.927  21.564   0.784  1.00 65.29 LIG 0.24  C 
ATOM     35  N   ALA E  14       2.645  21.219   0.729  1.00 85.74 LIG-0.35  N 
ATOM     36 H    ALA E  14       2.050  21.675   0.309  1.00 85.74 LIG 0.16  HD
ATOM     37 O    ALA E  13       4.781  20.904   1.380  1.00 75.52 LIG-0.27  OA
BRANCH 35 38
ATOM     38  CA  ALA E  14       2.128  20.029   1.379  1.00 94.46 LIG 0.16  C 
ATOM     39  CB  ALA E  14       2.870  18.805   0.892  1.00106.12 LIG 0.04  C 
BRANCH 38 40
ATOM     40  C   ALA E  14       2.247  20.159   2.894  1.00 99.07 LIG 0.22  C 
ATOM     41 O    ALA E  14       3.349  20.254   3.433  1.00120.33 LIG-0.29  OA
ENDBRANCH 38 40
ENDBRANCH 35 38
ENDBRANCH 32 34
ENDBRANCH 29 32
ENDBRANCH 26 28
ENDBRANCH 23 26
ENDBRANCH 1 22
TORSDOF 13
ENDMDL
MODEL 16
USER: ADFR SOLUTION from run 150
USER: SCORE 9.116098 LL:  -3.059 LR:  -7.822 RR:   0.000 FEB:  -3.944
USER: RMSD 9.025260
USER: SEED 149
USER: STATUS no improvement in best in 25 clusters for 5 generations
USER: GENES 15
USER: genes 0 Translation |==|  0.88878 0.52684 0.52553
USER: genes 1 Rotation |==|  0.71792 0.85514 0.66664 0.72050
USER: genes 2 Torsion [CB]-CA--N-[C] |==|  0.13546
USER: genes 3 Torsion [N]-C--CA-[N] |==|  0.99650
USER: genes 4 Torsion [C]-CA--N-[C] |==|  0.70494
USER: genes 5 Torsion [N]-C--CA-[N] |==|  0.37499
USER: genes 6 Torsion [C]-CA--N-[C] |==|  0.77417
USER: genes 7 Torsion [N]-C--CA-[N] |==|  0.56875
USER: genes 8 Torsion [N]-CA--C-[N] |==|  0.20461
USER: genes 9 Torsion [C]-N--CA-[CB] |==|  0.77187
USER: genes 10 Torsion [N]-CA--C-[N] |==|  0.20674
USER: genes 11 Torsion [C]-N--CA-[CB] |==|  0.19990
USER: genes 12 Torsion [N]-CA--C-[N] |==|  0.18266
USER: genes 13 Torsion [C]-N--CA-[C] |==|  0.61713
USER: genes 14 Torsion [N]-CA--C-[O] |==|  0.98817
ROOT
ATOM      1  CA  ALA E  11       7.527  24.112   1.654  1.00 85.35 LIG 0.17  C 
ATOM      2  CB  ALA E  11       8.944  23.605   1.932  1.00 80.46 LIG 0.04  C 
ENDROOT
BRANCH 1 3
ATOM      3  N   ALA E  11       7.286  25.353   2.382  1.00 87.15 LIG-0.35  N 
ATOM      4  C   ALA E  10       8.173  26.350   2.330  1.00 62.15 LIG 0.24  C 
ATOM      5 O    ALA E  10       9.107  26.360   1.527  1.00 65.72 LIG-0.27  OA
ATOM      6 H    ALA E  11       6.551  25.376   2.827  1.00 87.15 LIG 0.16  HD
BRANCH 4 7
ATOM      7  CA  ALA E  10       7.992  27.505   3.308  1.00 66.45 LIG 0.17  C 
ATOM      8  CB  ALA E  10       9.234  27.660   4.183  1.00 58.63 LIG 0.04  C 
BRANCH 7 9
ATOM      9  N   ALA E  10       6.817  27.328   4.148  1.00 75.43 LIG-0.35  N 
ATOM     10  C   ALA E   9       5.697  28.029   3.986  1.00 82.21 LIG 0.24  C 
ATOM     11 O    ALA E   9       5.564  28.914   3.134  1.00 73.75 LIG-0.27  OA
ATOM     12 H    ALA E  10       6.913  26.729   4.758  1.00 75.43 LIG 0.16  HD
BRANCH 10 13
ATOM     13  CA  ALA E   9       4.559  27.705   4.945  1.00 87.65 LIG 0.17  C 
ATOM     14  CB  ALA E   9       3.499  26.841   4.266  1.00 72.21 LIG 0.04  C 
BRANCH 13 15
ATOM     15  N   ALA E   9       3.999  28.964   5.418  1.00 84.24 LIG-0.35  N 
ATOM     16 H    ALA E   9       3.285  29.209   5.004  1.00 84.24 LIG 0.16  HD
ATOM     17  C   ALA E   8       4.552  29.662   6.400  1.00 61.40 LIG 0.26  C 
ATOM     18 O    ALA E   8       5.518  29.254   7.042  1.00 66.21 LIG-0.27  OA
BRANCH 17 19
ATOM     19  CA  ALA E   8       3.905  31.005   6.723  1.00 67.03 LIG 0.40  C 
ATOM     20  N   ALA E   8       4.892  31.925   7.365  1.00 60.26 LIG 0.61  N 
ATOM     21  CB  ALA E   8       3.328  31.641   5.463  1.00 64.64 LIG 0.06  C 
ENDBRANCH 17 19
ENDBRANCH 13 15
ENDBRANCH 10 13
ENDBRANCH 7 9
ENDBRANCH 4 7
ENDBRANCH 1 3
BRANCH 1 22
ATOM     22  C   ALA E  11       6.504  23.043   2.016  1.00 81.78 LIG 0.24  C 
ATOM     23  N   ALA E  12       5.270  23.185   1.535  1.00 82.91 LIG-0.35  N 
ATOM     24 H    ALA E  12       5.037  23.770   0.948  1.00 82.91 LIG 0.16  HD
ATOM     25 O    ALA E  11       6.817  22.092   2.742  1.00 89.30 LIG-0.27  OA
BRANCH 23 26
ATOM     26  CA  ALA E  12       4.198  22.314   1.997  1.00 61.10 LIG 0.17  C 
ATOM     27  CB  ALA E  12       4.224  20.973   1.248  1.00 65.27 LIG 0.04  C 
BRANCH 26 28
ATOM     28  C   ALA E  12       4.305  22.087   3.496  1.00 54.59 LIG 0.24  C 
ATOM     29  N   ALA E  13       3.932  23.125   4.246  1.00 64.78 LIG-0.35  N 
ATOM     30 H    ALA E  13       3.595  23.848   3.927  1.00 64.78 LIG 0.16  HD
ATOM     31 O    ALA E  12       4.673  21.004   3.959  1.00 69.11 LIG-0.27  OA
BRANCH 29 32
ATOM     32  CA  ALA E  13       4.068  23.118   5.694  1.00 54.23 LIG 0.17  C 
ATOM     33  CB  ALA E  13       5.543  23.239   6.080  1.00 56.27 LIG 0.04  C 
BRANCH 32 34
ATOM     34  C   ALA E  13       3.307  24.255   6.352  1.00 65.29 LIG 0.24  C 
ATOM     35  N   ALA E  14       1.985  24.195   6.235  1.00 85.74 LIG-0.35  N 
ATOM     36 H    ALA E  14       1.576  23.584   5.790  1.00 85.74 LIG 0.16  HD
ATOM     37 O    ALA E  13       3.891  25.129   6.997  1.00 75.52 LIG-0.27  OA
BRANCH 35 38
ATOM     38  CA  ALA E  14       1.101  25.166   6.853  1.00 94.46 LIG 0.16  C 
ATOM     39  CB  ALA E  14       0.657  26.190   5.834  1.00106.12 LIG 0.04  C 
BRANCH 38 40
ATOM     40  C   ALA E  14      -0.106  24.467   7.469  1.00 99.07 LIG 0.22  C 
ATOM     41 O    ALA E  14      -0.268  23.254   7.334  1.00120.33 LIG-0.29  OA
ENDBRANCH 38 40
ENDBRANCH 35 38
ENDBRANCH 32 34
ENDBRANCH 29 32
ENDBRANCH 26 28
ENDBRANCH 23 26
ENDBRANCH 1 22
TORSDOF 13
ENDMDL
MODEL 17
USER: ADFR SOLUTION from run 177
USER: SCORE 9.491439 LL:  -3.328 LR:  -7.795 RR:   0.000 FEB:  -3.917
USER: RMSD 9.078191
USER: SEED 176
USER: STATUS no improvement in best in 23 clusters for 5 generations
USER: GENES 15
USER: genes 0 Translation |==|  0.86466 0.55482 0.54291
USER: genes 1 Rotation |==|  0.54964 0.72860 0.75632 0.85997
USER: genes 2 Torsion [CB]-CA--N-[C] |==|  0.13485
USER: genes 3 Torsion [N]-C--CA-[N] |==|  0.31393
USER: genes 4 Torsion [C]-CA--N-[C] |==|  0.80799
USER: genes 5 Torsion [N]-C--CA-[N] |==|  0.06635
USER: genes 6 Torsion [C]-CA--N-[C] |==|  0.65677
USER: genes 7 Torsion [N]-C--CA-[N] |==|  0.49134
USER: genes 8 Torsion [N]-CA--C-[N] |==|  0.10251
USER: genes 9 Torsion [C]-N--CA-[CB] |==|  0.78065
USER: genes 10 Torsion [N]-CA--C-[N] |==|  0.17236
USER: genes 11 Torsion [C]-N--CA-[CB] |==|  0.83333
USER: genes 12 Torsion [N]-CA--C-[N] |==|  0.28124
USER: genes 13 Torsion [C]-N--CA-[C] |==|  0.50927
USER: genes 14 Torsion [N]-CA--C-[O] |==|  0.90833
ROOT
ATOM      1  CA  ALA E  11       6.985  24.616   1.966  1.00 85.35 LIG 0.17  C 
ATOM      2  CB  ALA E  11       7.483  24.483   3.407  1.00 80.46 LIG 0.04  C 
ENDROOT
BRANCH 1 3
ATOM      3  N   ALA E  11       6.065  25.743   1.856  1.00 87.15 LIG-0.35  N 
ATOM      4  C   ALA E  10       6.390  26.933   2.367  1.00 62.15 LIG 0.24  C 
ATOM      5 O    ALA E  10       7.528  27.192   2.761  1.00 65.72 LIG-0.27  OA
ATOM      6 H    ALA E  11       5.328  25.572   1.447  1.00 87.15 LIG 0.16  HD
BRANCH 4 7
ATOM      7  CA  ALA E  10       5.293  27.988   2.448  1.00 66.45 LIG 0.17  C 
ATOM      8  CB  ALA E  10       5.726  29.262   1.724  1.00 58.63 LIG 0.04  C 
BRANCH 7 9
ATOM      9  N   ALA E  10       4.939  28.301   3.825  1.00 75.43 LIG-0.35  N 
ATOM     10  C   ALA E   9       4.309  27.443   4.624  1.00 82.21 LIG 0.24  C 
ATOM     11 O    ALA E   9       3.939  26.320   4.262  1.00 73.75 LIG-0.27  OA
ATOM     12 H    ALA E  10       5.174  29.090   4.073  1.00 75.43 LIG 0.16  HD
BRANCH 10 13
ATOM     13  CA  ALA E   9       4.028  27.929   6.040  1.00 87.65 LIG 0.17  C 
ATOM     14  CB  ALA E   9       2.713  27.358   6.565  1.00 72.21 LIG 0.04  C 
BRANCH 13 15
ATOM     15  N   ALA E   9       4.005  29.386   6.016  1.00 84.24 LIG-0.35  N 
ATOM     16 H    ALA E   9       3.439  29.720   5.461  1.00 84.24 LIG 0.16  HD
ATOM     17  C   ALA E   8       4.794  30.120   6.789  1.00 61.40 LIG 0.26  C 
ATOM     18 O    ALA E   8       5.530  29.629   7.643  1.00 66.21 LIG-0.27  OA
BRANCH 17 19
ATOM     19  CA  ALA E   8       4.723  31.630   6.588  1.00 67.03 LIG 0.40  C 
ATOM     20  N   ALA E   8       5.602  32.335   7.569  1.00 60.26 LIG 0.61  N 
ATOM     21  CB  ALA E   8       5.113  32.002   5.162  1.00 64.64 LIG 0.06  C 
ENDBRANCH 17 19
ENDBRANCH 13 15
ENDBRANCH 10 13
ENDBRANCH 7 9
ENDBRANCH 4 7
ENDBRANCH 1 3
BRANCH 1 22
ATOM     22  C   ALA E  11       6.333  23.316   1.511  1.00 81.78 LIG 0.24  C 
ATOM     23  N   ALA E  12       5.495  23.377   0.478  1.00 82.91 LIG-0.35  N 
ATOM     24 H    ALA E  12       5.380  24.070  -0.019  1.00 82.91 LIG 0.16  HD
ATOM     25 O    ALA E  11       6.571  22.253   2.098  1.00 89.30 LIG-0.27  OA
BRANCH 23 26
ATOM     26  CA  ALA E  12       4.691  22.218   0.116  1.00 61.10 LIG 0.17  C 
ATOM     27  CB  ALA E  12       5.529  21.198  -0.671  1.00 65.27 LIG 0.04  C 
BRANCH 26 28
ATOM     28  C   ALA E  12       4.097  21.573   1.357  1.00 54.59 LIG 0.24  C 
ATOM     29  N   ALA E  13       3.267  22.353   2.049  1.00 64.78 LIG-0.35  N 
ATOM     30 H    ALA E  13       3.025  23.138   1.794  1.00 64.78 LIG 0.16  HD
ATOM     31 O    ALA E  12       4.349  20.403   1.658  1.00 69.11 LIG-0.27  OA
BRANCH 29 32
ATOM     32  CA  ALA E  13       2.691  21.934   3.317  1.00 54.23 LIG 0.17  C 
ATOM     33  CB  ALA E  13       1.865  20.663   3.120  1.00 56.27 LIG 0.04  C 
BRANCH 32 34
ATOM     34  C   ALA E  13       3.749  21.658   4.370  1.00 65.29 LIG 0.24  C 
ATOM     35  N   ALA E  14       3.923  22.624   5.265  1.00 85.74 LIG-0.35  N 
ATOM     36 H    ALA E  14       3.503  23.373   5.242  1.00 85.74 LIG 0.16  HD
ATOM     37 O    ALA E  13       4.348  20.581   4.411  1.00 75.52 LIG-0.27  OA
BRANCH 35 38
ATOM     38  CA  ALA E  14       4.850  22.502   6.377  1.00 94.46 LIG 0.16  C 
ATOM     39  CB  ALA E  14       6.258  22.313   5.861  1.00106.12 LIG 0.04  C 
BRANCH 38 40
ATOM     40  C   ALA E  14       4.768  23.733   7.272  1.00 99.07 LIG 0.22  C 
ATOM     41 O    ALA E  14       4.523  24.842   6.798  1.00120.33 LIG-0.29  OA
ENDBRANCH 38 40
ENDBRANCH 35 38
ENDBRANCH 32 34
ENDBRANCH 29 32
ENDBRANCH 26 28
ENDBRANCH 23 26
ENDBRANCH 1 22
TORSDOF 13
ENDMDL
MODEL 18
USER: ADFR SOLUTION from run 113
USER: SCORE 9.526021 LL:  -3.497 LR:  -7.777 RR:   0.000 FEB:  -3.899
USER: RMSD 9.364773
USER: SEED 112
USER: STATUS no improvement in best in 11 clusters for 5 generations
USER: GENES 15
USER: genes 0 Translation |==|  0.86425 0.63935 0.56061
USER: genes 1 Rotation |==|  0.57294 0.77127 0.83282 0.74560
USER: genes 2 Torsion [CB]-CA--N-[C] |==|  0.82212
USER: genes 3 Torsion [N]-C--CA-[N] |==|  0.81139
USER: genes 4 Torsion [C]-CA--N-[C] |==|  0.78242
USER: genes 5 Torsion [N]-C--CA-[N] |==|  0.42567
USER: genes 6 Torsion [C]-CA--N-[C] |==|  0.82385
USER: genes 7 Torsion [N]-C--CA-[N] |==|  0.38844
USER: genes 8 Torsion [N]-CA--C-[N] |==|  0.15850
USER: genes 9 Torsion [C]-N--CA-[CB] |==|  0.81979
USER: genes 10 Torsion [N]-CA--C-[N] |==|  0.19779
USER: genes 11 Torsion [C]-N--CA-[CB] |==|  0.76096
USER: genes 12 Torsion [N]-CA--C-[N] |==|  0.27220
USER: genes 13 Torsion [C]-N--CA-[C] |==|  0.51000
USER: genes 14 Torsion [N]-CA--C-[O] |==|  0.92582
ROOT
ATOM      1  CA  ALA E  11       6.976  26.137   2.285  1.00 85.35 LIG 0.17  C 
ATOM      2  CB  ALA E  11       7.981  26.118   3.438  1.00 80.46 LIG 0.04  C 
ENDROOT
BRANCH 1 3
ATOM      3  N   ALA E  11       5.725  26.750   2.720  1.00 87.15 LIG-0.35  N 
ATOM      4  C   ALA E  10       4.988  26.176   3.674  1.00 62.15 LIG 0.24  C 
ATOM      5 O    ALA E  10       5.408  25.244   4.361  1.00 65.72 LIG-0.27  OA
ATOM      6 H    ALA E  11       5.521  27.483   2.320  1.00 87.15 LIG 0.16  HD
BRANCH 4 7
ATOM      7  CA  ALA E  10       3.581  26.719   3.899  1.00 66.45 LIG 0.17  C 
ATOM      8  CB  ALA E  10       2.790  26.702   2.591  1.00 58.63 LIG 0.04  C 
BRANCH 7 9
ATOM      9  N   ALA E  10       3.599  28.068   4.446  1.00 75.43 LIG-0.35  N 
ATOM     10  C   ALA E   9       3.837  28.326   5.730  1.00 82.21 LIG 0.24  C 
ATOM     11 O    ALA E   9       4.030  27.447   6.577  1.00 73.75 LIG-0.27  OA
ATOM     12 H    ALA E  10       3.441  28.680   3.863  1.00 75.43 LIG 0.16  HD
BRANCH 10 13
ATOM     13  CA  ALA E   9       3.832  29.796   6.128  1.00 87.65 LIG 0.17  C 
ATOM     14  CB  ALA E   9       5.191  30.440   5.866  1.00 72.21 LIG 0.04  C 
BRANCH 13 15
ATOM     15  N   ALA E   9       3.467  29.876   7.537  1.00 84.24 LIG-0.35  N 
ATOM     16 H    ALA E   9       4.084  30.200   8.042  1.00 84.24 LIG 0.16  HD
ATOM     17  C   ALA E   8       2.284  29.481   7.986  1.00 61.40 LIG 0.26  C 
ATOM     18 O    ALA E   8       1.381  29.110   7.240  1.00 66.21 LIG-0.27  OA
BRANCH 17 19
ATOM     19  CA  ALA E   8       2.080  29.541   9.497  1.00 67.03 LIG 0.40  C 
ATOM     20  N   ALA E   8       0.707  30.029   9.824  1.00 60.26 LIG 0.61  N 
ATOM     21  CB  ALA E   8       2.322  28.174  10.127  1.00 64.64 LIG 0.06  C 
ENDBRANCH 17 19
ENDBRANCH 13 15
ENDBRANCH 10 13
ENDBRANCH 7 9
ENDBRANCH 4 7
ENDBRANCH 1 3
BRANCH 1 22
ATOM     22  C   ALA E  11       6.752  24.726   1.756  1.00 81.78 LIG 0.24  C 
ATOM     23  N   ALA E  12       5.893  24.575   0.749  1.00 82.91 LIG-0.35  N 
ATOM     24 H    ALA E  12       5.541  25.223   0.305  1.00 82.91 LIG 0.16  HD
ATOM     25 O    ALA E  11       7.342  23.763   2.261  1.00 89.30 LIG-0.27  OA
BRANCH 23 26
ATOM     26  CA  ALA E  12       5.485  23.242   0.327  1.00 61.10 LIG 0.17  C 
ATOM     27  CB  ALA E  12       6.680  22.461  -0.241  1.00 65.27 LIG 0.04  C 
BRANCH 26 28
ATOM     28  C   ALA E  12       4.857  22.485   1.486  1.00 54.59 LIG 0.24  C 
ATOM     29  N   ALA E  13       3.652  22.923   1.852  1.00 64.78 LIG-0.35  N 
ATOM     30 H    ALA E  13       3.221  23.540   1.436  1.00 64.78 LIG 0.16  HD
ATOM     31 O    ALA E  12       5.422  21.518   2.004  1.00 69.11 LIG-0.27  OA
BRANCH 29 32
ATOM     32  CA  ALA E  13       2.953  22.382   3.006  1.00 54.23 LIG 0.17  C 
ATOM     33  CB  ALA E  13       2.163  21.136   2.603  1.00 56.27 LIG 0.04  C 
BRANCH 32 34
ATOM     34  C   ALA E  13       3.899  22.004   4.132  1.00 65.29 LIG 0.24  C 
ATOM     35  N   ALA E  14       4.022  22.909   5.097  1.00 85.74 LIG-0.35  N 
ATOM     36 H    ALA E  14       3.631  23.674   5.082  1.00 85.74 LIG 0.16  HD
ATOM     37 O    ALA E  13       4.456  20.904   4.160  1.00 75.52 LIG-0.27  OA
BRANCH 35 38
ATOM     38  CA  ALA E  14       4.838  22.686   6.277  1.00 94.46 LIG 0.16  C 
ATOM     39  CB  ALA E  14       6.282  22.480   5.880  1.00106.12 LIG 0.04  C 
BRANCH 38 40
ATOM     40  C   ALA E  14       4.710  23.862   7.239  1.00 99.07 LIG 0.22  C 
ATOM     41 O    ALA E  14       4.429  24.987   6.825  1.00120.33 LIG-0.29  OA
ENDBRANCH 38 40
ENDBRANCH 35 38
ENDBRANCH 32 34
ENDBRANCH 29 32
ENDBRANCH 26 28
ENDBRANCH 23 26
ENDBRANCH 1 22
TORSDOF 13
ENDMDL
MODEL 19
USER: ADFR SOLUTION from run 137
USER: SCORE 9.080528 LL:  -3.215 LR:  -7.751 RR:   0.000 FEB:  -3.873
USER: RMSD 8.280508
USER: SEED 136
USER: STATUS no improvement in best in 27 clusters for 5 generations
USER: GENES 15
USER: genes 0 Translation |==|  0.81664 0.47769 0.70468
USER: genes 1 Rotation |==|  0.62440 0.58421 0.87081 0.79989
USER: genes 2 Torsion [CB]-CA--N-[C] |==|  0.82739
USER: genes 3 Torsion [N]-C--CA-[N] |==|  0.01915
USER: genes 4 Torsion [C]-CA--N-[C] |==|  0.80373
USER: genes 5 Torsion [N]-C--CA-[N] |==|  0.39815
USER: genes 6 Torsion [C]-CA--N-[C] |==|  0.78984
USER: genes 7 Torsion [N]-C--CA-[N] |==|  0.29251
USER: genes 8 Torsion [N]-CA--C-[N] |==|  0.12559
USER: genes 9 Torsion [C]-N--CA-[CB] |==|  0.81624
USER: genes 10 Torsion [N]-CA--C-[N] |==|  0.18955
USER: genes 11 Torsion [C]-N--CA-[CB] |==|  0.79442
USER: genes 12 Torsion [N]-CA--C-[N] |==|  0.54963
USER: genes 13 Torsion [C]-N--CA-[C] |==|  0.76366
USER: genes 14 Torsion [N]-CA--C-[O] |==|  0.37450
ROOT
ATOM      1  CA  ALA E  11       5.904  23.227   4.878  1.00 85.35 LIG 0.17  C 
ATOM      2  CB  ALA E  11       6.296  22.200   5.942  1.00 80.46 LIG 0.04  C 
ENDROOT
BRANCH 1 3
ATOM      3  N   ALA E  11       4.693  23.933   5.283  1.00 87.15 LIG-0.35  N 
ATOM      4  C   ALA E  10       3.548  23.267   5.453  1.00 62.15 LIG 0.24  C 
ATOM      5 O    ALA E  10       3.500  22.036   5.481  1.00 65.72 LIG-0.27  OA
ATOM      6 H    ALA E  11       4.786  24.780   5.396  1.00 87.15 LIG 0.16  HD
BRANCH 4 7
ATOM      7  CA  ALA E  10       2.275  24.087   5.621  1.00 66.45 LIG 0.17  C 
ATOM      8  CB  ALA E  10       1.193  23.590   4.663  1.00 58.63 LIG 0.04  C 
BRANCH 7 9
ATOM      9  N   ALA E  10       2.509  25.507   5.405  1.00 75.43 LIG-0.35  N 
ATOM     10  C   ALA E   9       3.196  26.267   6.255  1.00 82.21 LIG 0.24  C 
ATOM     11 O    ALA E   9       3.667  25.845   7.318  1.00 73.75 LIG-0.27  OA
ATOM     12 H    ALA E  10       2.163  25.809   4.677  1.00 75.43 LIG 0.16  HD
BRANCH 10 13
ATOM     13  CA  ALA E   9       3.358  27.730   5.866  1.00 87.65 LIG 0.17  C 
ATOM     14  CB  ALA E   9       4.674  27.957   5.125  1.00 72.21 LIG 0.04  C 
BRANCH 13 15
ATOM     15  N   ALA E   9       3.287  28.528   7.083  1.00 84.24 LIG-0.35  N 
ATOM     16 H    ALA E   9       4.048  28.821   7.356  1.00 84.24 LIG 0.16  HD
ATOM     17  C   ALA E   8       2.141  28.772   7.704  1.00 61.40 LIG 0.26  C 
ATOM     18 O    ALA E   8       1.052  28.425   7.249  1.00 66.21 LIG-0.27  OA
BRANCH 17 19
ATOM     19  CA  ALA E   8       2.234  29.545   9.015  1.00 67.03 LIG 0.40  C 
ATOM     20  N   ALA E   8       1.780  30.956   8.829  1.00 60.26 LIG 0.61  N 
ATOM     21  CB  ALA E   8       1.411  28.862  10.102  1.00 64.64 LIG 0.06  C 
ENDBRANCH 17 19
ENDBRANCH 13 15
ENDBRANCH 10 13
ENDBRANCH 7 9
ENDBRANCH 4 7
ENDBRANCH 1 3
BRANCH 1 22
ATOM     22  C   ALA E  11       5.729  22.547   3.526  1.00 81.78 LIG 0.24  C 
ATOM     23  N   ALA E  12       5.152  23.250   2.554  1.00 82.91 LIG-0.35  N 
ATOM     24 H    ALA E  12       4.973  24.091   2.598  1.00 82.91 LIG 0.16  HD
ATOM     25 O    ALA E  11       6.101  21.379   3.356  1.00 89.30 LIG-0.27  OA
BRANCH 23 26
ATOM     26  CA  ALA E  12       4.777  22.603   1.304  1.00 61.10 LIG 0.17  C 
ATOM     27  CB  ALA E  12       6.023  22.135   0.538  1.00 65.27 LIG 0.04  C 
BRANCH 26 28
ATOM     28  C   ALA E  12       3.844  21.432   1.569  1.00 54.59 LIG 0.24  C 
ATOM     29  N   ALA E  13       2.636  21.771   2.018  1.00 64.78 LIG-0.35  N 
ATOM     30 H    ALA E  13       2.365  22.584   2.095  1.00 64.78 LIG 0.16  HD
ATOM     31 O    ALA E  12       4.190  20.270   1.341  1.00 69.11 LIG-0.27  OA
BRANCH 29 32
ATOM     32  CA  ALA E  13       1.655  20.776   2.421  1.00 54.23 LIG 0.17  C 
ATOM     33  CB  ALA E  13       1.069  20.090   1.187  1.00 56.27 LIG 0.04  C 
BRANCH 32 34
ATOM     34  C   ALA E  13       2.251  19.709   3.323  1.00 65.29 LIG 0.24  C 
ATOM     35  N   ALA E  14       1.539  18.592   3.426  1.00 85.74 LIG-0.35  N 
ATOM     36 H    ALA E  14       0.775  18.480   3.047  1.00 85.74 LIG 0.16  HD
ATOM     37 O    ALA E  13       3.349  19.864   3.861  1.00 75.52 LIG-0.27  OA
BRANCH 35 38
ATOM     38  CA  ALA E  14       1.988  17.447   4.197  1.00 94.46 LIG 0.16  C 
ATOM     39  CB  ALA E  14       0.800  16.654   4.692  1.00106.12 LIG 0.04  C 
BRANCH 38 40
ATOM     40  C   ALA E  14       2.905  16.568   3.354  1.00 99.07 LIG 0.22  C 
ATOM     41 O    ALA E  14       3.958  16.129   3.817  1.00120.33 LIG-0.29  OA
ENDBRANCH 38 40
ENDBRANCH 35 38
ENDBRANCH 32 34
ENDBRANCH 29 32
ENDBRANCH 26 28
ENDBRANCH 23 26
ENDBRANCH 1 22
TORSDOF 13
ENDMDL
MODEL 20
USER: ADFR SOLUTION from run 107
USER: SCORE 8.359161 LL:  -2.847 LR:  -7.726 RR:   0.000 FEB:  -3.848
USER: RMSD 10.419063
USER: SEED 106
USER: STATUS no improvement in best in 40 clusters for 5 generations
USER: GENES 15
USER: genes 0 Translation |==|  0.81022 0.46809 0.81288
USER: genes 1 Rotation |==|  0.55024 0.48535 0.79875 0.89750
USER: genes 2 Torsion [CB]-CA--N-[C] |==|  0.79772
USER: genes 3 Torsion [N]-C--CA-[N] |==|  0.91008
USER: genes 4 Torsion [C]-CA--N-[C] |==|  0.67894
USER: genes 5 Torsion [N]-C--CA-[N] |==|  0.25602
USER: genes 6 Torsion [C]-CA--N-[C] |==|  0.74817
USER: genes 7 Torsion [N]-C--CA-[N] |==|  0.10252
USER: genes 8 Torsion [N]-CA--C-[N] |==|  0.15634
USER: genes 9 Torsion [C]-N--CA-[CB] |==|  0.18889
USER: genes 10 Torsion [N]-CA--C-[N] |==|  0.18191
USER: genes 11 Torsion [C]-N--CA-[CB] |==|  0.82426
USER: genes 12 Torsion [N]-CA--C-[N] |==|  0.14919
USER: genes 13 Torsion [C]-N--CA-[C] |==|  0.67386
USER: genes 14 Torsion [N]-CA--C-[O] |==|  0.76193
ROOT
ATOM      1  CA  ALA E  11       5.760  23.055   6.826  1.00 85.35 LIG 0.17  C 
ATOM      2  CB  ALA E  11       5.117  22.129   7.861  1.00 80.46 LIG 0.04  C 
ENDROOT
BRANCH 1 3
ATOM      3  N   ALA E  11       5.005  24.299   6.728  1.00 87.15 LIG-0.35  N 
ATOM      4  C   ALA E  10       3.810  24.319   6.132  1.00 62.15 LIG 0.24  C 
ATOM      5 O    ALA E  10       3.208  23.289   5.828  1.00 65.72 LIG-0.27  OA
ATOM      6 H    ALA E  11       5.389  24.986   7.076  1.00 87.15 LIG 0.16  HD
BRANCH 4 7
ATOM      7  CA  ALA E  10       3.195  25.682   5.833  1.00 66.45 LIG 0.17  C 
ATOM      8  CB  ALA E  10       3.616  26.162   4.445  1.00 58.63 LIG 0.04  C 
BRANCH 7 9
ATOM      9  N   ALA E  10       3.563  26.676   6.831  1.00 75.43 LIG-0.35  N 
ATOM     10  C   ALA E   9       2.678  27.256   7.637  1.00 82.21 LIG 0.24  C 
ATOM     11 O    ALA E   9       1.463  27.031   7.591  1.00 73.75 LIG-0.27  OA
ATOM     12 H    ALA E  10       4.405  26.852   6.850  1.00 75.43 LIG 0.16  HD
BRANCH 10 13
ATOM     13  CA  ALA E   9       3.239  28.264   8.632  1.00 87.65 LIG 0.17  C 
ATOM     14  CB  ALA E   9       2.465  28.224   9.948  1.00 72.21 LIG 0.04  C 
BRANCH 13 15
ATOM     15  N   ALA E   9       3.176  29.583   8.016  1.00 84.24 LIG-0.35  N 
ATOM     16 H    ALA E   9       2.438  30.003   8.158  1.00 84.24 LIG 0.16  HD
ATOM     17  C   ALA E   8       4.176  30.080   7.301  1.00 61.40 LIG 0.26  C 
ATOM     18 O    ALA E   8       5.258  29.508   7.186  1.00 66.21 LIG-0.27  OA
BRANCH 17 19
ATOM     19  CA  ALA E   8       3.930  31.434   6.643  1.00 67.03 LIG 0.40  C 
ATOM     20  N   ALA E   8       3.112  32.311   7.533  1.00 60.26 LIG 0.61  N 
ATOM     21  CB  ALA E   8       5.251  32.112   6.297  1.00 64.64 LIG 0.06  C 
ENDBRANCH 17 19
ENDBRANCH 13 15
ENDBRANCH 10 13
ENDBRANCH 7 9
ENDBRANCH 4 7
ENDBRANCH 1 3
BRANCH 1 22
ATOM     22  C   ALA E  11       5.856  22.352   5.477  1.00 81.78 LIG 0.24  C 
ATOM     23  N   ALA E  12       6.377  23.038   4.462  1.00 82.91 LIG-0.35  N 
ATOM     24 H    ALA E  12       6.762  23.805   4.535  1.00 82.91 LIG 0.16  HD
ATOM     25 O    ALA E  11       5.450  21.191   5.342  1.00 89.30 LIG-0.27  OA
BRANCH 23 26
ATOM     26  CA  ALA E  12       6.320  22.502   3.109  1.00 61.10 LIG 0.17  C 
ATOM     27  CB  ALA E  12       4.872  22.471   2.596  1.00 65.27 LIG 0.04  C 
BRANCH 26 28
ATOM     28  C   ALA E  12       7.197  23.320   2.174  1.00 54.59 LIG 0.24  C 
ATOM     29  N   ALA E  13       8.503  23.259   2.439  1.00 64.78 LIG-0.35  N 
ATOM     30 H    ALA E  13       8.845  22.753   3.044  1.00 64.78 LIG 0.16  HD
ATOM     31 O    ALA E  12       6.718  23.950   1.228  1.00 69.11 LIG-0.27  OA
BRANCH 29 32
ATOM     32  CA  ALA E  13       9.475  24.060   1.711  1.00 54.23 LIG 0.17  C 
ATOM     33  CB  ALA E  13       9.479  23.662   0.235  1.00 56.27 LIG 0.04  C 
BRANCH 32 34
ATOM     34  C   ALA E  13       9.186  25.547   1.805  1.00 65.29 LIG 0.24  C 
ATOM     35  N   ALA E  14       9.057  26.024   3.038  1.00 85.74 LIG-0.35  N 
ATOM     36 H    ALA E  14       9.093  25.532   3.742  1.00 85.74 LIG 0.16  HD
ATOM     37 O    ALA E  13       9.141  26.257   0.797  1.00 75.52 LIG-0.27  OA
BRANCH 35 38
ATOM     38  CA  ALA E  14       8.839  27.432   3.313  1.00 94.46 LIG 0.16  C 
ATOM     39  CB  ALA E  14       7.535  27.622   4.054  1.00106.12 LIG 0.04  C 
BRANCH 38 40
ATOM     40  C   ALA E  14      10.001  28.000   4.120  1.00 99.07 LIG 0.22  C 
ATOM     41 O    ALA E  14      10.018  27.913   5.348  1.00120.33 LIG-0.29  OA
ENDBRANCH 38 40
ENDBRANCH 35 38
ENDBRANCH 32 34
ENDBRANCH 29 32
ENDBRANCH 26 28
ENDBRANCH 23 26
ENDBRANCH 1 22
TORSDOF 13
ENDMDL
MODEL 21
USER: ADFR SOLUTION from run 43
USER: SCORE 9.626376 LL:  -3.381 LR:  -7.684 RR:   0.000 FEB:  -3.806
USER: RMSD 9.564194
USER: SEED 42
USER: STATUS no improvement in best in 17 clusters for 5 generations
USER: GENES 15
USER: genes 0 Translation |==|  0.75001 0.43014 0.45396
USER: genes 1 Rotation |==|  0.83354 0.86895 0.45912 0.53087
USER: genes 2 Torsion [CB]-CA--N-[C] |==|  0.82186
USER: genes 3 Torsion [N]-C--CA-[N] |==|  0.12592
USER: genes 4 Torsion [C]-CA--N-[C] |==|  0.18271
USER: genes 5 Torsion [N]-C--CA-[N] |==|  0.91476
USER: genes 6 Torsion [C]-CA--N-[C] |==|  0.81593
USER: genes 7 Torsion [N]-C--CA-[N] |==|  0.56793
USER: genes 8 Torsion [N]-CA--C-[N] |==|  0.29812
USER: genes 9 Torsion [C]-N--CA-[CB] |==|  0.81489
USER: genes 10 Torsion [N]-CA--C-[N] |==|  0.26910
USER: genes 11 Torsion [C]-N--CA-[CB] |==|  0.50556
USER: genes 12 Torsion [N]-CA--C-[N] |==|  0.45504
USER: genes 13 Torsion [C]-N--CA-[C] |==|  0.61141
USER: genes 14 Torsion [N]-CA--C-[O] |==|  0.01568
ROOT
ATOM      1  CA  ALA E  11       4.405  22.371   0.365  1.00 85.35 LIG 0.17  C 
ATOM      2  CB  ALA E  11       4.970  21.326  -0.598  1.00 80.46 LIG 0.04  C 
ENDROOT
BRANCH 1 3
ATOM      3  N   ALA E  11       5.350  23.472   0.522  1.00 87.15 LIG-0.35  N 
ATOM      4  C   ALA E  10       6.548  23.260   1.074  1.00 62.15 LIG 0.24  C 
ATOM      5 O    ALA E  10       6.987  22.129   1.283  1.00 65.72 LIG-0.27  OA
ATOM      6 H    ALA E  11       5.072  24.234   0.237  1.00 87.15 LIG 0.16  HD
BRANCH 4 7
ATOM      7  CA  ALA E  10       7.379  24.484   1.444  1.00 66.45 LIG 0.17  C 
ATOM      8  CB  ALA E  10       8.562  24.077   2.321  1.00 58.63 LIG 0.04  C 
BRANCH 7 9
ATOM      9  N   ALA E  10       6.584  25.495   2.126  1.00 75.43 LIG-0.35  N 
ATOM     10  C   ALA E   9       6.047  25.305   3.329  1.00 82.21 LIG 0.24  C 
ATOM     11 O    ALA E   9       6.144  24.246   3.959  1.00 73.75 LIG-0.27  OA
ATOM     12 H    ALA E  10       6.495  26.225   1.680  1.00 75.43 LIG 0.16  HD
BRANCH 10 13
ATOM     13  CA  ALA E   9       5.257  26.475   3.901  1.00 87.65 LIG 0.17  C 
ATOM     14  CB  ALA E   9       3.779  26.370   3.533  1.00 72.21 LIG 0.04  C 
BRANCH 13 15
ATOM     15  N   ALA E   9       5.847  27.706   3.392  1.00 84.24 LIG-0.35  N 
ATOM     16 H    ALA E   9       5.334  28.150   2.863  1.00 84.24 LIG 0.16  HD
ATOM     17  C   ALA E   8       7.071  28.095   3.722  1.00 61.40 LIG 0.26  C 
ATOM     18 O    ALA E   8       7.756  27.499   4.551  1.00 66.21 LIG-0.27  OA
BRANCH 17 19
ATOM     19  CA  ALA E   8       7.587  29.358   3.039  1.00 67.03 LIG 0.40  C 
ATOM     20  N   ALA E   8       9.080  29.368   3.010  1.00 60.26 LIG 0.61  N 
ATOM     21  CB  ALA E   8       7.027  29.471   1.625  1.00 64.64 LIG 0.06  C 
ENDBRANCH 17 19
ENDBRANCH 13 15
ENDBRANCH 10 13
ENDBRANCH 7 9
ENDBRANCH 4 7
ENDBRANCH 1 3
BRANCH 1 22
ATOM     22  C   ALA E  11       4.070  21.728   1.705  1.00 81.78 LIG 0.24  C 
ATOM     23  N   ALA E  12       2.861  21.961   2.214  1.00 82.91 LIG-0.35  N 
ATOM     24 H    ALA E  12       2.221  22.353   1.794  1.00 82.91 LIG 0.16  HD
ATOM     25 O    ALA E  11       4.903  21.028   2.293  1.00 89.30 LIG-0.27  OA
BRANCH 23 26
ATOM     26  CA  ALA E  12       2.544  21.542   3.572  1.00 61.10 LIG 0.17  C 
ATOM     27  CB  ALA E  12       2.536  20.010   3.682  1.00 65.27 LIG 0.04  C 
BRANCH 26 28
ATOM     28  C   ALA E  12       3.535  22.140   4.559  1.00 54.59 LIG 0.24  C 
ATOM     29  N   ALA E  13       3.119  23.254   5.161  1.00 64.78 LIG-0.35  N 
ATOM     30 H    ALA E  13       2.332  23.587   5.061  1.00 64.78 LIG 0.16  HD
ATOM     31 O    ALA E  12       4.616  21.595   4.795  1.00 69.11 LIG-0.27  OA
BRANCH 29 32
ATOM     32  CA  ALA E  13       3.978  24.015   6.054  1.00 54.23 LIG 0.17  C 
ATOM     33  CB  ALA E  13       3.211  25.207   6.627  1.00 56.27 LIG 0.04  C 
BRANCH 32 34
ATOM     34  C   ALA E  13       4.495  23.179   7.211  1.00 65.29 LIG 0.24  C 
ATOM     35  N   ALA E  14       5.530  23.694   7.865  1.00 85.74 LIG-0.35  N 
ATOM     36 H    ALA E  14       5.916  24.428   7.639  1.00 85.74 LIG 0.16  HD
ATOM     37 O    ALA E  13       3.938  22.129   7.543  1.00 75.52 LIG-0.27  OA
BRANCH 35 38
ATOM     38  CA  ALA E  14       6.111  23.057   9.034  1.00 94.46 LIG 0.16  C 
ATOM     39  CB  ALA E  14       7.329  22.254   8.637  1.00106.12 LIG 0.04  C 
BRANCH 38 40
ATOM     40  C   ALA E  14       6.478  24.104  10.079  1.00 99.07 LIG 0.22  C 
ATOM     41 O    ALA E  14       6.180  25.288   9.918  1.00120.33 LIG-0.29  OA
ENDBRANCH 38 40
ENDBRANCH 35 38
ENDBRANCH 32 34
ENDBRANCH 29 32
ENDBRANCH 26 28
ENDBRANCH 23 26
ENDBRANCH 1 22
TORSDOF 13
ENDMDL
MODEL 22
USER: ADFR SOLUTION from run 14
USER: SCORE 9.505377 LL:  -3.793 LR:  -7.679 RR:   0.000 FEB:  -3.801
USER: RMSD 9.016285
USER: SEED 739501
USER: STATUS no improvement in best in 20 clusters for 5 generations
USER: GENES 15
USER: genes 0 Translation |==|  0.87588 0.54678 0.53953
USER: genes 1 Rotation |==|  0.72177 0.78780 0.81592 0.63484
USER: genes 2 Torsion [CB]-CA--N-[C] |==|  0.50000
USER: genes 3 Torsion [N]-C--CA-[N] |==|  0.27619
USER: genes 4 Torsion [C]-CA--N-[C] |==|  0.78789
USER: genes 5 Torsion [N]-C--CA-[N] |==|  0.12019
USER: genes 6 Torsion [C]-CA--N-[C] |==|  0.18177
USER: genes 7 Torsion [N]-C--CA-[N] |==|  0.42723
USER: genes 8 Torsion [N]-CA--C-[N] |==|  0.29208
USER: genes 9 Torsion [C]-N--CA-[CB] |==|  0.78588
USER: genes 10 Torsion [N]-CA--C-[N] |==|  0.18265
USER: genes 11 Torsion [C]-N--CA-[CB] |==|  0.79965
USER: genes 12 Torsion [N]-CA--C-[N] |==|  0.17803
USER: genes 13 Torsion [C]-N--CA-[C] |==|  0.68679
USER: genes 14 Torsion [N]-CA--C-[O] |==|  0.14208
ROOT
ATOM      1  CA  ALA E  11       7.237  24.471   1.906  1.00 85.35 LIG 0.17  C 
ATOM      2  CB  ALA E  11       8.727  24.182   2.102  1.00 80.46 LIG 0.04  C 
ENDROOT
BRANCH 1 3
ATOM      3  N   ALA E  11       6.635  24.883   3.169  1.00 87.15 LIG-0.35  N 
ATOM      4  C   ALA E  10       5.336  25.186   3.231  1.00 62.15 LIG 0.24  C 
ATOM      5 O    ALA E  10       4.558  24.944   2.308  1.00 65.72 LIG-0.27  OA
ATOM      6 H    ALA E  11       7.175  24.909   3.838  1.00 87.15 LIG 0.16  HD
BRANCH 4 7
ATOM      7  CA  ALA E  10       4.829  25.852   4.506  1.00 66.45 LIG 0.17  C 
ATOM      8  CB  ALA E  10       3.486  25.253   4.920  1.00 58.63 LIG 0.04  C 
BRANCH 7 9
ATOM      9  N   ALA E  10       4.699  27.293   4.352  1.00 75.43 LIG-0.35  N 
ATOM     10  C   ALA E   9       5.741  28.122   4.366  1.00 82.21 LIG 0.24  C 
ATOM     11 O    ALA E   9       6.905  27.748   4.544  1.00 73.75 LIG-0.27  OA
ATOM     12 H    ALA E  10       3.887  27.559   4.251  1.00 75.43 LIG 0.16  HD
BRANCH 10 13
ATOM     13  CA  ALA E   9       5.424  29.599   4.178  1.00 87.65 LIG 0.17  C 
ATOM     14  CB  ALA E   9       6.619  30.469   4.559  1.00 72.21 LIG 0.04  C 
BRANCH 13 15
ATOM     15  N   ALA E   9       4.255  29.914   4.989  1.00 84.24 LIG-0.35  N 
ATOM     16 H    ALA E   9       3.561  30.139   4.534  1.00 84.24 LIG 0.16  HD
ATOM     17  C   ALA E   8       4.276  29.855   6.314  1.00 61.40 LIG 0.26  C 
ATOM     18 O    ALA E   8       5.247  29.442   6.945  1.00 66.21 LIG-0.27  OA
BRANCH 17 19
ATOM     19  CA  ALA E   8       3.005  30.301   7.030  1.00 67.03 LIG 0.40  C 
ATOM     20  N   ALA E   8       2.889  29.633   8.362  1.00 60.26 LIG 0.61  N 
ATOM     21  CB  ALA E   8       2.982  31.817   7.192  1.00 64.64 LIG 0.06  C 
ENDBRANCH 17 19
ENDBRANCH 13 15
ENDBRANCH 10 13
ENDBRANCH 7 9
ENDBRANCH 4 7
ENDBRANCH 1 3
BRANCH 1 22
ATOM     22  C   ALA E  11       6.535  23.250   1.324  1.00 81.78 LIG 0.24  C 
ATOM     23  N   ALA E  12       5.726  23.444   0.284  1.00 82.91 LIG-0.35  N 
ATOM     24 H    ALA E  12       5.656  24.182  -0.151  1.00 82.91 LIG 0.16  HD
ATOM     25 O    ALA E  11       6.709  22.129   1.818  1.00 89.30 LIG-0.27  OA
BRANCH 23 26
ATOM     26  CA  ALA E  12       4.877  22.362  -0.196  1.00 61.10 LIG 0.17  C 
ATOM     27  CB  ALA E  12       5.693  21.350  -1.014  1.00 65.27 LIG 0.04  C 
BRANCH 26 28
ATOM     28  C   ALA E  12       4.187  21.669   0.969  1.00 54.59 LIG 0.24  C 
ATOM     29  N   ALA E  13       3.311  22.427   1.630  1.00 64.78 LIG-0.35  N 
ATOM     30 H    ALA E  13       3.093  23.224   1.391  1.00 64.78 LIG 0.16  HD
ATOM     31 O    ALA E  12       4.409  20.486   1.237  1.00 69.11 LIG-0.27  OA
BRANCH 29 32
ATOM     32  CA  ALA E  13       2.639  21.959   2.832  1.00 54.23 LIG 0.17  C 
ATOM     33  CB  ALA E  13       1.597  20.901   2.469  1.00 56.27 LIG 0.04  C 
BRANCH 32 34
ATOM     34  C   ALA E  13       3.604  21.355   3.837  1.00 65.29 LIG 0.24  C 
ATOM     35  N   ALA E  14       4.499  22.198   4.340  1.00 85.74 LIG-0.35  N 
ATOM     36 H    ALA E  14       4.566  23.019   4.097  1.00 85.74 LIG 0.16  HD
ATOM     37 O    ALA E  13       3.505  20.179   4.193  1.00 75.52 LIG-0.27  OA
BRANCH 35 38
ATOM     38  CA  ALA E  14       5.458  21.804   5.357  1.00 94.46 LIG 0.16  C 
ATOM     39  CB  ALA E  14       6.864  22.108   4.892  1.00106.12 LIG 0.04  C 
BRANCH 38 40
ATOM     40  C   ALA E  14       5.161  22.520   6.669  1.00 99.07 LIG 0.22  C 
ATOM     41 O    ALA E  14       4.030  22.504   7.154  1.00120.33 LIG-0.29  OA
ENDBRANCH 38 40
ENDBRANCH 35 38
ENDBRANCH 32 34
ENDBRANCH 29 32
ENDBRANCH 26 28
ENDBRANCH 23 26
ENDBRANCH 1 22
TORSDOF 13
ENDMDL
MODEL 23
USER: ADFR SOLUTION from run 93
USER: SCORE 8.635169 LL:  -3.217 LR:  -7.507 RR:   0.000 FEB:  -3.629
USER: RMSD 8.704301
USER: SEED 92
USER: STATUS no improvement in best in 36 clusters for 5 generations
USER: GENES 15
USER: genes 0 Translation |==|  0.80880 0.47784 0.82724
USER: genes 1 Rotation |==|  0.56107 0.45927 0.82319 0.87438
USER: genes 2 Torsion [CB]-CA--N-[C] |==|  0.82130
USER: genes 3 Torsion [N]-C--CA-[N] |==|  0.96264
USER: genes 4 Torsion [C]-CA--N-[C] |==|  0.65793
USER: genes 5 Torsion [N]-C--CA-[N] |==|  0.39518
USER: genes 6 Torsion [C]-CA--N-[C] |==|  0.84162
USER: genes 7 Torsion [N]-C--CA-[N] |==|  0.51824
USER: genes 8 Torsion [N]-CA--C-[N] |==|  0.12580
USER: genes 9 Torsion [C]-N--CA-[CB] |==|  0.80333
USER: genes 10 Torsion [N]-CA--C-[N] |==|  0.11918
USER: genes 11 Torsion [C]-N--CA-[CB] |==|  0.80556
USER: genes 12 Torsion [N]-CA--C-[N] |==|  0.52098
USER: genes 13 Torsion [C]-N--CA-[C] |==|  0.80823
USER: genes 14 Torsion [N]-CA--C-[O] |==|  0.39840
ROOT
ATOM      1  CA  ALA E  11       5.728  23.230   7.084  1.00 85.35 LIG 0.17  C 
ATOM      2  CB  ALA E  11       5.144  22.129   7.971  1.00 80.46 LIG 0.04  C 
ENDROOT
BRANCH 1 3
ATOM      3  N   ALA E  11       4.829  24.379   7.052  1.00 87.15 LIG-0.35  N 
ATOM      4  C   ALA E  10       3.610  24.268   6.518  1.00 62.15 LIG 0.24  C 
ATOM      5 O    ALA E  10       3.117  23.178   6.223  1.00 65.72 LIG-0.27  OA
ATOM      6 H    ALA E  11       5.148  25.100   7.396  1.00 87.15 LIG 0.16  HD
BRANCH 4 7
ATOM      7  CA  ALA E  10       2.825  25.553   6.282  1.00 66.45 LIG 0.17  C 
ATOM      8  CB  ALA E  10       2.728  25.849   4.786  1.00 58.63 LIG 0.04  C 
BRANCH 7 9
ATOM      9  N   ALA E  10       3.420  26.689   6.971  1.00 75.43 LIG-0.35  N 
ATOM     10  C   ALA E   9       2.754  27.436   7.848  1.00 82.21 LIG 0.24  C 
ATOM     11 O    ALA E   9       1.564  27.256   8.131  1.00 73.75 LIG-0.27  OA
ATOM     12 H    ALA E  10       4.242  26.832   6.758  1.00 75.43 LIG 0.16  HD
BRANCH 10 13
ATOM     13  CA  ALA E   9       3.535  28.577   8.485  1.00 87.65 LIG 0.17  C 
ATOM     14  CB  ALA E   9       4.118  28.156   9.833  1.00 72.21 LIG 0.04  C 
BRANCH 13 15
ATOM     15  N   ALA E   9       2.633  29.713   8.626  1.00 84.24 LIG-0.35  N 
ATOM     16 H    ALA E   9       2.555  30.003   9.432  1.00 84.24 LIG 0.16  HD
ATOM     17  C   ALA E   8       1.996  30.244   7.592  1.00 61.40 LIG 0.26  C 
ATOM     18 O    ALA E   8       2.190  29.879   6.434  1.00 66.21 LIG-0.27  OA
BRANCH 17 19
ATOM     19  CA  ALA E   8       1.016  31.370   7.907  1.00 67.03 LIG 0.40  C 
ATOM     20  N   ALA E   8       0.256  31.765   6.683  1.00 60.26 LIG 0.61  N 
ATOM     21  CB  ALA E   8       0.057  30.954   9.016  1.00 64.64 LIG 0.06  C 
ENDBRANCH 17 19
ENDBRANCH 13 15
ENDBRANCH 10 13
ENDBRANCH 7 9
ENDBRANCH 4 7
ENDBRANCH 1 3
BRANCH 1 22
ATOM     22  C   ALA E  11       5.997  22.692   5.684  1.00 81.78 LIG 0.24  C 
ATOM     23  N   ALA E  12       6.273  23.578   4.728  1.00 82.91 LIG-0.35  N 
ATOM     24 H    ALA E  12       6.419  24.415   4.863  1.00 82.91 LIG 0.16  HD
ATOM     25 O    ALA E  11       5.946  21.478   5.456  1.00 89.30 LIG-0.27  OA
BRANCH 23 26
ATOM     26  CA  ALA E  12       6.347  23.154   3.336  1.00 61.10 LIG 0.17  C 
ATOM     27  CB  ALA E  12       7.600  22.299   3.093  1.00 65.27 LIG 0.04  C 
BRANCH 26 28
ATOM     28  C   ALA E  12       5.095  22.386   2.946  1.00 54.59 LIG 0.24  C 
ATOM     29  N   ALA E  13       3.954  22.914   3.388  1.00 64.78 LIG-0.35  N 
ATOM     30 H    ALA E  13       3.906  23.664   3.807  1.00 64.78 LIG 0.16  HD
ATOM     31 O    ALA E  12       5.155  21.375   2.240  1.00 69.11 LIG-0.27  OA
BRANCH 29 32
ATOM     32  CA  ALA E  13       2.673  22.255   3.196  1.00 54.23 LIG 0.17  C 
ATOM     33  CB  ALA E  13       2.281  22.295   1.718  1.00 56.27 LIG 0.04  C 
BRANCH 32 34
ATOM     34  C   ALA E  13       2.695  20.805   3.645  1.00 65.29 LIG 0.24  C 
ATOM     35  N   ALA E  14       1.605  20.104   3.352  1.00 85.74 LIG-0.35  N 
ATOM     36 H    ALA E  14       0.913  20.441   2.970  1.00 85.74 LIG 0.16  HD
ATOM     37 O    ALA E  13       3.689  20.316   4.187  1.00 75.52 LIG-0.27  OA
BRANCH 35 38
ATOM     38  CA  ALA E  14       1.481  18.689   3.654  1.00 94.46 LIG 0.16  C 
ATOM     39  CB  ALA E  14       0.050  18.240   3.464  1.00106.12 LIG 0.04  C 
BRANCH 38 40
ATOM     40  C   ALA E  14       2.419  17.875   2.771  1.00 99.07 LIG 0.22  C 
ATOM     41 O    ALA E  14       2.990  16.877   3.211  1.00120.33 LIG-0.29  OA
ENDBRANCH 38 40
ENDBRANCH 35 38
ENDBRANCH 32 34
ENDBRANCH 29 32
ENDBRANCH 26 28
ENDBRANCH 23 26
ENDBRANCH 1 22
TORSDOF 13
ENDMDL
MODEL 24
USER: ADFR SOLUTION from run 142
USER: SCORE 8.352593 LL:  -2.462 LR:  -7.511 RR:   0.000 FEB:  -3.633
USER: RMSD 8.717353
USER: SEED 141
USER: STATUS no improvement in best in 29 clusters for 5 generations
USER: GENES 15
USER: genes 0 Translation |==|  0.79764 0.41925 0.64398
USER: genes 1 Rotation |==|  0.61946 0.77573 0.63608 0.87574
USER: genes 2 Torsion [CB]-CA--N-[C] |==|  0.18623
USER: genes 3 Torsion [N]-C--CA-[N] |==|  0.12256
USER: genes 4 Torsion [C]-CA--N-[C] |==|  0.54067
USER: genes 5 Torsion [N]-C--CA-[N] |==|  0.46638
USER: genes 6 Torsion [C]-CA--N-[C] |==|  0.78760
USER: genes 7 Torsion [N]-C--CA-[N] |==|  0.54775
USER: genes 8 Torsion [N]-CA--C-[N] |==|  0.09893
USER: genes 9 Torsion [C]-N--CA-[CB] |==|  0.50651
USER: genes 10 Torsion [N]-CA--C-[N] |==|  0.42306
USER: genes 11 Torsion [C]-N--CA-[CB] |==|  0.85723
USER: genes 12 Torsion [N]-CA--C-[N] |==|  0.43889
USER: genes 13 Torsion [C]-N--CA-[C] |==|  0.18949
USER: genes 14 Torsion [N]-CA--C-[O] |==|  0.05670
ROOT
ATOM      1  CA  ALA E  11       5.477  22.175   3.786  1.00 85.35 LIG 0.17  C 
ATOM      2  CB  ALA E  11       6.287  21.881   5.050  1.00 80.46 LIG 0.04  C 
ENDROOT
BRANCH 1 3
ATOM      3  N   ALA E  11       5.178  23.601   3.702  1.00 87.15 LIG-0.35  N 
ATOM      4  C   ALA E  10       6.158  24.487   3.510  1.00 62.15 LIG 0.24  C 
ATOM      5 O    ALA E  10       7.300  24.148   3.195  1.00 65.72 LIG-0.27  OA
ATOM      6 H    ALA E  11       4.346  23.804   3.785  1.00 87.15 LIG 0.16  HD
BRANCH 4 7
ATOM      7  CA  ALA E  10       5.819  25.962   3.690  1.00 66.45 LIG 0.17  C 
ATOM      8  CB  ALA E  10       7.098  26.796   3.759  1.00 58.63 LIG 0.04  C 
BRANCH 7 9
ATOM      9  N   ALA E  10       5.015  26.195   4.880  1.00 75.43 LIG-0.35  N 
ATOM     10  C   ALA E   9       4.361  27.332   5.103  1.00 82.21 LIG 0.24  C 
ATOM     11 O    ALA E   9       4.404  28.304   4.340  1.00 73.75 LIG-0.27  OA
ATOM     12 H    ALA E  10       5.002  25.529   5.426  1.00 75.43 LIG 0.16  HD
BRANCH 10 13
ATOM     13  CA  ALA E   9       3.556  27.400   6.394  1.00 87.65 LIG 0.17  C 
ATOM     14  CB  ALA E   9       2.342  26.476   6.332  1.00 72.21 LIG 0.04  C 
BRANCH 13 15
ATOM     15  N   ALA E   9       3.160  28.787   6.603  1.00 84.24 LIG-0.35  N 
ATOM     16 H    ALA E   9       2.337  28.950   6.415  1.00 84.24 LIG 0.16  HD
ATOM     17  C   ALA E   8       4.007  29.706   7.045  1.00 61.40 LIG 0.26  C 
ATOM     18 O    ALA E   8       5.153  29.438   7.399  1.00 66.21 LIG-0.27  OA
BRANCH 17 19
ATOM     19  CA  ALA E   8       3.473  31.133   7.127  1.00 67.03 LIG 0.40  C 
ATOM     20  N   ALA E   8       4.598  32.111   7.230  1.00 60.26 LIG 0.61  N 
ATOM     21  CB  ALA E   8       2.601  31.452   5.918  1.00 64.64 LIG 0.06  C 
ENDBRANCH 17 19
ENDBRANCH 13 15
ENDBRANCH 10 13
ENDBRANCH 7 9
ENDBRANCH 4 7
ENDBRANCH 1 3
BRANCH 1 22
ATOM     22  C   ALA E  11       4.206  21.336   3.766  1.00 81.78 LIG 0.24  C 
ATOM     23  N   ALA E  12       3.197  21.764   3.009  1.00 82.91 LIG-0.35  N 
ATOM     24 H    ALA E  12       3.248  22.414   2.447  1.00 82.91 LIG 0.16  HD
ATOM     25 O    ALA E  11       4.122  20.304   4.444  1.00 89.30 LIG-0.27  OA
BRANCH 23 26
ATOM     26  CA  ALA E  12       1.893  21.122   3.094  1.00 61.10 LIG 0.17  C 
ATOM     27  CB  ALA E  12       0.912  21.747   2.089  1.00 65.27 LIG 0.04  C 
BRANCH 26 28
ATOM     28  C   ALA E  12       2.017  19.626   2.855  1.00 54.59 LIG 0.24  C 
ATOM     29  N   ALA E  13       1.081  18.886   3.448  1.00 64.78 LIG-0.35  N 
ATOM     30 H    ALA E  13       0.415  19.215   3.881  1.00 64.78 LIG 0.16  HD
ATOM     31 O    ALA E  12       2.903  19.162   2.131  1.00 69.11 LIG-0.27  OA
BRANCH 29 32
ATOM     32  CA  ALA E  13       1.109  17.432   3.412  1.00 54.23 LIG 0.17  C 
ATOM     33  CB  ALA E  13       1.265  16.949   1.969  1.00 56.27 LIG 0.04  C 
BRANCH 32 34
ATOM     34  C   ALA E  13       2.247  16.854   4.234  1.00 65.29 LIG 0.24  C 
ATOM     35  N   ALA E  14       2.082  15.595   4.623  1.00 85.74 LIG-0.35  N 
ATOM     36 H    ALA E  14       1.372  15.138   4.461  1.00 85.74 LIG 0.16  HD
ATOM     37 O    ALA E  13       3.270  17.505   4.461  1.00 75.52 LIG-0.27  OA
BRANCH 35 38
ATOM     38  CA  ALA E  14       3.096  14.867   5.364  1.00 94.46 LIG 0.16  C 
ATOM     39  CB  ALA E  14       4.414  14.911   4.624  1.00106.12 LIG 0.04  C 
BRANCH 38 40
ATOM     40  C   ALA E  14       3.249  15.450   6.765  1.00 99.07 LIG 0.22  C 
ATOM     41 O    ALA E  14       2.354  16.129   7.266  1.00120.33 LIG-0.29  OA
ENDBRANCH 38 40
ENDBRANCH 35 38
ENDBRANCH 32 34
ENDBRANCH 29 32
ENDBRANCH 26 28
ENDBRANCH 23 26
ENDBRANCH 1 22
TORSDOF 13
ENDMDL
MODEL 25
USER: ADFR SOLUTION from run 39
USER: SCORE 9.040428 LL:  -3.121 LR:  -7.498 RR:   0.000 FEB:  -3.621
USER: RMSD 8.328862
USER: SEED 38
USER: STATUS no improvement in best in 40 clusters for 5 generations
USER: GENES 15
USER: genes 0 Translation |==|  0.77985 0.50199 0.80283
USER: genes 1 Rotation |==|  0.54516 0.47277 0.93158 0.74690
USER: genes 2 Torsion [CB]-CA--N-[C] |==|  0.78913
USER: genes 3 Torsion [N]-C--CA-[N] |==|  0.92492
USER: genes 4 Torsion [C]-CA--N-[C] |==|  0.71339
USER: genes 5 Torsion [N]-C--CA-[N] |==|  0.99482
USER: genes 6 Torsion [C]-CA--N-[C] |==|  0.60917
USER: genes 7 Torsion [N]-C--CA-[N] |==|  0.51394
USER: genes 8 Torsion [N]-CA--C-[N] |==|  0.15879
USER: genes 9 Torsion [C]-N--CA-[CB] |==|  0.80758
USER: genes 10 Torsion [N]-CA--C-[N] |==|  0.21840
USER: genes 11 Torsion [C]-N--CA-[CB] |==|  0.83203
USER: genes 12 Torsion [N]-CA--C-[N] |==|  0.40843
USER: genes 13 Torsion [C]-N--CA-[C] |==|  0.79048
USER: genes 14 Torsion [N]-CA--C-[O] |==|  0.37468
ROOT
ATOM      1  CA  ALA E  11       5.077  23.665   6.645  1.00 85.35 LIG 0.17  C 
ATOM      2  CB  ALA E  11       5.203  22.458   7.577  1.00 80.46 LIG 0.04  C 
ENDROOT
BRANCH 1 3
ATOM      3  N   ALA E  11       3.671  24.006   6.453  1.00 87.15 LIG-0.35  N 
ATOM      4  C   ALA E  10       2.900  23.267   5.651  1.00 62.15 LIG 0.24  C 
ATOM      5 O    ALA E  10       3.264  22.176   5.209  1.00 65.72 LIG-0.27  OA
ATOM      6 H    ALA E  11       3.402  24.697   6.887  1.00 87.15 LIG 0.16  HD
BRANCH 4 7
ATOM      7  CA  ALA E  10       1.526  23.819   5.291  1.00 66.45 LIG 0.17  C 
ATOM      8  CB  ALA E  10       1.581  24.550   3.950  1.00 58.63 LIG 0.04  C 
BRANCH 7 9
ATOM      9  N   ALA E  10       1.012  24.713   6.318  1.00 75.43 LIG-0.35  N 
ATOM     10  C   ALA E   9       0.076  24.350   7.192  1.00 82.21 LIG 0.24  C 
ATOM     11 O    ALA E   9      -0.465  23.239   7.190  1.00 73.75 LIG-0.27  OA
ATOM     12 H    ALA E  10       1.369  25.495   6.308  1.00 75.43 LIG 0.16  HD
BRANCH 10 13
ATOM     13  CA  ALA E   9      -0.336  25.407   8.209  1.00 87.65 LIG 0.17  C 
ATOM     14  CB  ALA E   9      -1.826  25.722   8.100  1.00 72.21 LIG 0.04  C 
BRANCH 13 15
ATOM     15  N   ALA E   9       0.478  26.593   7.976  1.00 84.24 LIG-0.35  N 
ATOM     16 H    ALA E   9       0.614  26.769   7.145  1.00 84.24 LIG 0.16  HD
ATOM     17  C   ALA E   8       0.959  27.329   8.969  1.00 61.40 LIG 0.26  C 
ATOM     18 O    ALA E   8       0.677  27.120  10.147  1.00 66.21 LIG-0.27  OA
BRANCH 17 19
ATOM     19  CA  ALA E   8       1.869  28.487   8.573  1.00 67.03 LIG 0.40  C 
ATOM     20  N   ALA E   8       2.434  29.152   9.785  1.00 60.26 LIG 0.61  N 
ATOM     21  CB  ALA E   8       2.991  28.002   7.662  1.00 64.64 LIG 0.06  C 
ENDBRANCH 17 19
ENDBRANCH 13 15
ENDBRANCH 10 13
ENDBRANCH 7 9
ENDBRANCH 4 7
ENDBRANCH 1 3
BRANCH 1 22
ATOM     22  C   ALA E  11       5.769  23.381   5.318  1.00 81.78 LIG 0.24  C 
ATOM     23  N   ALA E  12       5.743  24.340   4.393  1.00 82.91 LIG-0.35  N 
ATOM     24 H    ALA E  12       5.464  25.142   4.528  1.00 82.91 LIG 0.16  HD
ATOM     25 O    ALA E  11       6.320  22.292   5.115  1.00 89.30 LIG-0.27  OA
BRANCH 23 26
ATOM     26  CA  ALA E  12       6.211  24.067   3.041  1.00 61.10 LIG 0.17  C 
ATOM     27  CB  ALA E  12       7.733  23.860   3.022  1.00 65.27 LIG 0.04  C 
BRANCH 26 28
ATOM     28  C   ALA E  12       5.503  22.850   2.467  1.00 54.59 LIG 0.24  C 
ATOM     29  N   ALA E  13       4.267  23.081   2.023  1.00 64.78 LIG-0.35  N 
ATOM     30 H    ALA E  13       3.908  23.862   1.995  1.00 64.78 LIG 0.16  HD
ATOM     31 O    ALA E  12       6.064  21.754   2.394  1.00 69.11 LIG-0.27  OA
BRANCH 29 32
ATOM     32  CA  ALA E  13       3.409  22.012   1.539  1.00 54.23 LIG 0.17  C 
ATOM     33  CB  ALA E  13       4.060  21.323   0.340  1.00 56.27 LIG 0.04  C 
BRANCH 32 34
ATOM     34  C   ALA E  13       3.135  20.964   2.602  1.00 65.29 LIG 0.24  C 
ATOM     35  N   ALA E  14       1.937  20.392   2.539  1.00 85.74 LIG-0.35  N 
ATOM     36 H    ALA E  14       1.335  20.615   1.968  1.00 85.74 LIG 0.16  HD
ATOM     37 O    ALA E  13       3.999  20.636   3.418  1.00 75.52 LIG-0.27  OA
BRANCH 35 38
ATOM     38  CA  ALA E  14       1.531  19.328   3.439  1.00 94.46 LIG 0.16  C 
ATOM     39  CB  ALA E  14       0.026  19.184   3.428  1.00106.12 LIG 0.04  C 
BRANCH 38 40
ATOM     40  C   ALA E  14       2.197  18.016   3.043  1.00 99.07 LIG 0.22  C 
ATOM     41 O    ALA E  14       2.708  17.286   3.893  1.00120.33 LIG-0.29  OA
ENDBRANCH 38 40
ENDBRANCH 35 38
ENDBRANCH 32 34
ENDBRANCH 29 32
ENDBRANCH 26 28
ENDBRANCH 23 26
ENDBRANCH 1 22
TORSDOF 13
ENDMDL
MODEL 26
USER: ADFR SOLUTION from run 149
USER: SCORE 8.026794 LL:  -3.033 LR:  -7.487 RR:   0.000 FEB:  -3.609
USER: RMSD 7.836220
USER: SEED 148
USER: STATUS no improvement in best in 21 clusters for 5 generations
USER: GENES 15
USER: genes 0 Translation |==|  0.72545 0.57457 0.77205
USER: genes 1 Rotation |==|  0.35332 0.44653 0.74090 0.90938
USER: genes 2 Torsion [CB]-CA--N-[C] |==|  0.43920
USER: genes 3 Torsion [N]-C--CA-[N] |==|  0.15876
USER: genes 4 Torsion [C]-CA--N-[C] |==|  0.15909
USER: genes 5 Torsion [N]-C--CA-[N] |==|  0.38541
USER: genes 6 Torsion [C]-CA--N-[C] |==|  0.80745
USER: genes 7 Torsion [N]-C--CA-[N] |==|  0.44669
USER: genes 8 Torsion [N]-CA--C-[N] |==|  0.10633
USER: genes 9 Torsion [C]-N--CA-[CB] |==|  0.80179
USER: genes 10 Torsion [N]-CA--C-[N] |==|  0.15182
USER: genes 11 Torsion [C]-N--CA-[CB] |==|  0.84444
USER: genes 12 Torsion [N]-CA--C-[N] |==|  0.37101
USER: genes 13 Torsion [C]-N--CA-[C] |==|  0.17302
USER: genes 14 Torsion [N]-CA--C-[O] |==|  0.63435
ROOT
ATOM      1  CA  ALA E  11       3.853  24.971   6.091  1.00 85.35 LIG 0.17  C 
ATOM      2  CB  ALA E  11       2.513  24.832   6.817  1.00 80.46 LIG 0.04  C 
ENDROOT
BRANCH 1 3
ATOM      3  N   ALA E  11       3.762  26.005   5.065  1.00 87.15 LIG-0.35  N 
ATOM      4  C   ALA E  10       4.865  26.605   4.612  1.00 62.15 LIG 0.24  C 
ATOM      5 O    ALA E  10       5.995  26.190   4.871  1.00 65.72 LIG-0.27  OA
ATOM      6 H    ALA E  11       2.964  26.180   4.795  1.00 87.15 LIG 0.16  HD
BRANCH 4 7
ATOM      7  CA  ALA E  10       4.686  27.843   3.740  1.00 66.45 LIG 0.17  C 
ATOM      8  CB  ALA E  10       6.046  28.398   3.320  1.00 58.63 LIG 0.04  C 
BRANCH 7 9
ATOM      9  N   ALA E  10       3.919  28.879   4.417  1.00 75.43 LIG-0.35  N 
ATOM     10  C   ALA E   9       4.280  29.400   5.588  1.00 82.21 LIG 0.24  C 
ATOM     11 O    ALA E   9       5.276  29.030   6.221  1.00 73.75 LIG-0.27  OA
ATOM     12 H    ALA E  10       3.212  29.122   3.991  1.00 75.43 LIG 0.16  HD
BRANCH 10 13
ATOM     13  CA  ALA E   9       3.369  30.484   6.147  1.00 87.65 LIG 0.17  C 
ATOM     14  CB  ALA E   9       3.928  31.875   5.854  1.00 72.21 LIG 0.04  C 
BRANCH 13 15
ATOM     15  N   ALA E   9       3.229  30.257   7.580  1.00 84.24 LIG-0.35  N 
ATOM     16 H    ALA E   9       3.615  30.850   8.070  1.00 84.24 LIG 0.16  HD
ATOM     17  C   ALA E   8       2.564  29.221   8.072  1.00 61.40 LIG 0.26  C 
ATOM     18 O    ALA E   8       1.940  28.435   7.362  1.00 66.21 LIG-0.27  OA
BRANCH 17 19
ATOM     19  CA  ALA E   8       2.581  29.065   9.589  1.00 67.03 LIG 0.40  C 
ATOM     20  N   ALA E   8       1.461  28.185  10.041  1.00 60.26 LIG 0.61  N 
ATOM     21  CB  ALA E   8       3.919  28.504  10.057  1.00 64.64 LIG 0.06  C 
ENDBRANCH 17 19
ENDBRANCH 13 15
ENDBRANCH 10 13
ENDBRANCH 7 9
ENDBRANCH 4 7
ENDBRANCH 1 3
BRANCH 1 22
ATOM     22  C   ALA E  11       4.274  23.632   5.499  1.00 81.78 LIG 0.24  C 
ATOM     23  N   ALA E  12       5.185  23.649   4.528  1.00 82.91 LIG-0.35  N 
ATOM     24 H    ALA E  12       5.632  24.343   4.287  1.00 82.91 LIG 0.16  HD
ATOM     25 O    ALA E  11       3.770  22.578   5.905  1.00 89.30 LIG-0.27  OA
BRANCH 23 26
ATOM     26  CA  ALA E  12       5.488  22.432   3.786  1.00 61.10 LIG 0.17  C 
ATOM     27  CB  ALA E  12       6.262  21.437   4.664  1.00 65.27 LIG 0.04  C 
BRANCH 26 28
ATOM     28  C   ALA E  12       4.211  21.796   3.261  1.00 54.59 LIG 0.24  C 
ATOM     29  N   ALA E  13       3.446  22.604   2.527  1.00 64.78 LIG-0.35  N 
ATOM     30 H    ALA E  13       3.671  23.403   2.303  1.00 64.78 LIG 0.16  HD
ATOM     31 O    ALA E  12       3.946  20.611   3.479  1.00 69.11 LIG-0.27  OA
BRANCH 29 32
ATOM     32  CA  ALA E  13       2.142  22.192   2.033  1.00 54.23 LIG 0.17  C 
ATOM     33  CB  ALA E  13       2.275  20.907   1.215  1.00 56.27 LIG 0.04  C 
BRANCH 32 34
ATOM     34  C   ALA E  13       1.150  21.943   3.155  1.00 65.29 LIG 0.24  C 
ATOM     35  N   ALA E  14      -0.050  22.485   2.982  1.00 85.74 LIG-0.35  N 
ATOM     36 H    ALA E  14      -0.255  22.977   2.308  1.00 85.74 LIG 0.16  HD
ATOM     37 O    ALA E  13       1.439  21.232   4.121  1.00 75.52 LIG-0.27  OA
BRANCH 35 38
ATOM     38  CA  ALA E  14      -1.137  22.297   3.927  1.00 94.46 LIG 0.16  C 
ATOM     39  CB  ALA E  14      -1.468  20.827   4.052  1.00106.12 LIG 0.04  C 
BRANCH 38 40
ATOM     40  C   ALA E  14      -0.765  22.880   5.286  1.00 99.07 LIG 0.22  C 
ATOM     41 O    ALA E  14      -0.928  22.228   6.317  1.00120.33 LIG-0.29  OA
ENDBRANCH 38 40
ENDBRANCH 35 38
ENDBRANCH 32 34
ENDBRANCH 29 32
ENDBRANCH 26 28
ENDBRANCH 23 26
ENDBRANCH 1 22
TORSDOF 13
ENDMDL
MODEL 27
USER: ADFR SOLUTION from run 92
USER: SCORE 9.728532 LL:  -3.461 LR:  -7.485 RR:   0.000 FEB:  -3.607
USER: RMSD 8.268962
USER: SEED 91
USER: STATUS no improvement in best in 30 clusters for 5 generations
USER: GENES 15
USER: genes 0 Translation |==|  0.78592 0.49169 0.81184
USER: genes 1 Rotation |==|  0.56373 0.44598 0.90657 0.77879
USER: genes 2 Torsion [CB]-CA--N-[C] |==|  0.79396
USER: genes 3 Torsion [N]-C--CA-[N] |==|  0.06898
USER: genes 4 Torsion [C]-CA--N-[C] |==|  0.15157
USER: genes 5 Torsion [N]-C--CA-[N] |==|  0.07404
USER: genes 6 Torsion [C]-CA--N-[C] |==|  0.15113
USER: genes 7 Torsion [N]-C--CA-[N] |==|  0.71275
USER: genes 8 Torsion [N]-CA--C-[N] |==|  0.13994
USER: genes 9 Torsion [C]-N--CA-[CB] |==|  0.78889
USER: genes 10 Torsion [N]-CA--C-[N] |==|  0.23740
USER: genes 11 Torsion [C]-N--CA-[CB] |==|  0.84416
USER: genes 12 Torsion [N]-CA--C-[N] |==|  0.39061
USER: genes 13 Torsion [C]-N--CA-[C] |==|  0.81673
USER: genes 14 Torsion [N]-CA--C-[O] |==|  0.28245
ROOT
ATOM      1  CA  ALA E  11       5.213  23.479   6.807  1.00 85.35 LIG 0.17  C 
ATOM      2  CB  ALA E  11       5.153  22.162   7.582  1.00 80.46 LIG 0.04  C 
ENDROOT
BRANCH 1 3
ATOM      3  N   ALA E  11       3.881  24.066   6.710  1.00 87.15 LIG-0.35  N 
ATOM      4  C   ALA E  10       2.973  23.546   5.879  1.00 62.15 LIG 0.24  C 
ATOM      5 O    ALA E  10       3.134  22.458   5.324  1.00 65.72 LIG-0.27  OA
ATOM      6 H    ALA E  11       3.745  24.747   7.217  1.00 87.15 LIG 0.16  HD
BRANCH 4 7
ATOM      7  CA  ALA E  10       1.702  24.351   5.633  1.00 66.45 LIG 0.17  C 
ATOM      8  CB  ALA E  10       1.199  24.126   4.208  1.00 58.63 LIG 0.04  C 
BRANCH 7 9
ATOM      9  N   ALA E  10       1.905  25.773   5.864  1.00 75.43 LIG-0.35  N 
ATOM     10  C   ALA E   9       2.861  26.477   5.263  1.00 82.21 LIG 0.24  C 
ATOM     11 O    ALA E   9       3.682  25.982   4.482  1.00 73.75 LIG-0.27  OA
ATOM     12 H    ALA E  10       1.350  26.116   6.425  1.00 75.43 LIG 0.16  HD
BRANCH 10 13
ATOM     13  CA  ALA E   9       2.922  27.958   5.611  1.00 87.65 LIG 0.17  C 
ATOM     14  CB  ALA E   9       4.355  28.480   5.537  1.00 72.21 LIG 0.04  C 
BRANCH 13 15
ATOM     15  N   ALA E   9       2.361  28.128   6.945  1.00 84.24 LIG-0.35  N 
ATOM     16 H    ALA E   9       1.722  28.702   6.987  1.00 84.24 LIG 0.16  HD
ATOM     17  C   ALA E   8       2.807  27.449   7.993  1.00 61.40 LIG 0.26  C 
ATOM     18 O    ALA E   8       3.656  26.564   7.899  1.00 66.21 LIG-0.27  OA
BRANCH 17 19
ATOM     19  CA  ALA E   8       2.184  27.800   9.341  1.00 67.03 LIG 0.40  C 
ATOM     20  N   ALA E   8       3.118  28.639  10.150  1.00 60.26 LIG 0.61  N 
ATOM     21  CB  ALA E   8       0.855  28.520   9.148  1.00 64.64 LIG 0.06  C 
ENDBRANCH 17 19
ENDBRANCH 13 15
ENDBRANCH 10 13
ENDBRANCH 7 9
ENDBRANCH 4 7
ENDBRANCH 1 3
BRANCH 1 22
ATOM     22  C   ALA E  11       5.826  23.254   5.430  1.00 81.78 LIG 0.24  C 
ATOM     23  N   ALA E  12       5.819  24.279   4.579  1.00 82.91 LIG-0.35  N 
ATOM     24 H    ALA E  12       5.595  25.084   4.784  1.00 82.91 LIG 0.16  HD
ATOM     25 O    ALA E  11       6.299  22.153   5.124  1.00 89.30 LIG-0.27  OA
BRANCH 23 26
ATOM     26  CA  ALA E  12       6.207  24.080   3.189  1.00 61.10 LIG 0.17  C 
ATOM     27  CB  ALA E  12       7.733  23.953   3.063  1.00 65.27 LIG 0.04  C 
BRANCH 26 28
ATOM     28  C   ALA E  12       5.522  22.850   2.615  1.00 54.59 LIG 0.24  C 
ATOM     29  N   ALA E  13       4.300  23.067   2.131  1.00 64.78 LIG-0.35  N 
ATOM     30 H    ALA E  13       3.937  23.845   2.079  1.00 64.78 LIG 0.16  HD
ATOM     31 O    ALA E  12       6.091  21.756   2.577  1.00 69.11 LIG-0.27  OA
BRANCH 29 32
ATOM     32  CA  ALA E  13       3.462  21.985   1.639  1.00 54.23 LIG 0.17  C 
ATOM     33  CB  ALA E  13       4.197  21.211   0.544  1.00 56.27 LIG 0.04  C 
BRANCH 32 34
ATOM     34  C   ALA E  13       3.074  21.009   2.736  1.00 65.29 LIG 0.24  C 
ATOM     35  N   ALA E  14       1.826  20.558   2.678  1.00 85.74 LIG-0.35  N 
ATOM     36 H    ALA E  14       1.254  20.818   2.091  1.00 85.74 LIG 0.16  HD
ATOM     37 O    ALA E  13       3.893  20.627   3.574  1.00 75.52 LIG-0.27  OA
BRANCH 35 38
ATOM     38  CA  ALA E  14       1.306  19.574   3.610  1.00 94.46 LIG 0.16  C 
ATOM     39  CB  ALA E  14      -0.185  19.414   3.420  1.00106.12 LIG 0.04  C 
BRANCH 38 40
ATOM     40  C   ALA E  14       2.016  18.238   3.420  1.00 99.07 LIG 0.22  C 
ATOM     41 O    ALA E  14       2.906  17.882   4.194  1.00120.33 LIG-0.29  OA
ENDBRANCH 38 40
ENDBRANCH 35 38
ENDBRANCH 32 34
ENDBRANCH 29 32
ENDBRANCH 26 28
ENDBRANCH 23 26
ENDBRANCH 1 22
TORSDOF 13
ENDMDL
MODEL 28
USER: ADFR SOLUTION from run 149
USER: SCORE 8.769374 LL:  -3.073 LR:  -7.483 RR:   0.000 FEB:  -3.605
USER: RMSD 10.018088
USER: SEED 148
USER: STATUS no improvement in best in 21 clusters for 5 generations
USER: GENES 15
USER: genes 0 Translation |==|  0.81804 0.45380 0.70150
USER: genes 1 Rotation |==|  0.59603 0.34134 0.88543 0.75894
USER: genes 2 Torsion [CB]-CA--N-[C] |==|  0.13927
USER: genes 3 Torsion [N]-C--CA-[N] |==|  0.84476
USER: genes 4 Torsion [C]-CA--N-[C] |==|  0.89794
USER: genes 5 Torsion [N]-C--CA-[N] |==|  0.42221
USER: genes 6 Torsion [C]-CA--N-[C] |==|  0.82963
USER: genes 7 Torsion [N]-C--CA-[N] |==|  0.42513
USER: genes 8 Torsion [N]-CA--C-[N] |==|  0.11933
USER: genes 9 Torsion [C]-N--CA-[CB] |==|  0.15398
USER: genes 10 Torsion [N]-CA--C-[N] |==|  0.08783
USER: genes 11 Torsion [C]-N--CA-[CB] |==|  0.16274
USER: genes 12 Torsion [N]-CA--C-[N] |==|  0.53679
USER: genes 13 Torsion [C]-N--CA-[C] |==|  0.80511
USER: genes 14 Torsion [N]-CA--C-[O] |==|  0.24622
ROOT
ATOM      1  CA  ALA E  11       5.936  22.797   4.821  1.00 85.35 LIG 0.17  C 
ATOM      2  CB  ALA E  11       5.785  21.281   4.954  1.00 80.46 LIG 0.04  C 
ENDROOT
BRANCH 1 3
ATOM      3  N   ALA E  11       4.624  23.435   4.823  1.00 87.15 LIG-0.35  N 
ATOM      4  C   ALA E  10       3.732  23.142   5.774  1.00 62.15 LIG 0.24  C 
ATOM      5 O    ALA E  10       4.030  22.500   6.782  1.00 65.72 LIG-0.27  OA
ATOM      6 H    ALA E  11       4.488  23.991   4.182  1.00 87.15 LIG 0.16  HD
BRANCH 4 7
ATOM      7  CA  ALA E  10       2.304  23.637   5.576  1.00 66.45 LIG 0.17  C 
ATOM      8  CB  ALA E  10       1.656  22.928   4.388  1.00 58.63 LIG 0.04  C 
BRANCH 7 9
ATOM      9  N   ALA E  10       2.250  25.078   5.379  1.00 75.43 LIG-0.35  N 
ATOM     10  C   ALA E   9       3.052  25.928   6.016  1.00 82.21 LIG 0.24  C 
ATOM     11 O    ALA E   9       3.890  25.575   6.854  1.00 73.75 LIG-0.27  OA
ATOM     12 H    ALA E  10       1.652  25.329   4.814  1.00 75.43 LIG 0.16  HD
BRANCH 10 13
ATOM     13  CA  ALA E   9       2.869  27.401   5.680  1.00 87.65 LIG 0.17  C 
ATOM     14  CB  ALA E   9       3.679  27.787   4.444  1.00 72.21 LIG 0.04  C 
BRANCH 13 15
ATOM     15  N   ALA E   9       3.271  28.180   6.844  1.00 84.24 LIG-0.35  N 
ATOM     16 H    ALA E   9       3.932  28.711   6.701  1.00 84.24 LIG 0.16  HD
ATOM     17  C   ALA E   8       2.661  28.068   8.016  1.00 61.40 LIG 0.26  C 
ATOM     18 O    ALA E   8       1.659  27.375   8.180  1.00 66.21 LIG-0.27  OA
BRANCH 17 19
ATOM     19  CA  ALA E   8       3.251  28.879   9.166  1.00 67.03 LIG 0.40  C 
ATOM     20  N   ALA E   8       2.200  29.201  10.177  1.00 60.26 LIG 0.61  N 
ATOM     21  CB  ALA E   8       4.404  28.126   9.819  1.00 64.64 LIG 0.06  C 
ENDBRANCH 17 19
ENDBRANCH 13 15
ENDBRANCH 10 13
ENDBRANCH 7 9
ENDBRANCH 4 7
ENDBRANCH 1 3
BRANCH 1 22
ATOM     22  C   ALA E  11       6.721  23.141   3.561  1.00 81.78 LIG 0.24  C 
ATOM     23  N   ALA E  12       6.690  24.405   3.143  1.00 82.91 LIG-0.35  N 
ATOM     24 H    ALA E  12       6.354  25.060   3.588  1.00 82.91 LIG 0.16  HD
ATOM     25 O    ALA E  11       7.349  22.266   2.953  1.00 89.30 LIG-0.27  OA
BRANCH 23 26
ATOM     26  CA  ALA E  12       7.252  24.762   1.847  1.00 61.10 LIG 0.17  C 
ATOM     27  CB  ALA E  12       6.618  23.923   0.728  1.00 65.27 LIG 0.04  C 
BRANCH 26 28
ATOM     28  C   ALA E  12       7.061  26.245   1.574  1.00 54.59 LIG 0.24  C 
ATOM     29  N   ALA E  13       7.075  27.020   2.659  1.00 64.78 LIG-0.35  N 
ATOM     30 H    ALA E  13       7.242  26.730   3.451  1.00 64.78 LIG 0.16  HD
ATOM     31 O    ALA E  12       6.942  26.678   0.424  1.00 69.11 LIG-0.27  OA
BRANCH 29 32
ATOM     32  CA  ALA E  13       6.803  28.447   2.592  1.00 54.23 LIG 0.17  C 
ATOM     33  CB  ALA E  13       5.414  28.686   1.999  1.00 56.27 LIG 0.04  C 
BRANCH 32 34
ATOM     34  C   ALA E  13       6.861  29.112   3.955  1.00 65.29 LIG 0.24  C 
ATOM     35  N   ALA E  14       6.360  30.341   4.008  1.00 85.74 LIG-0.35  N 
ATOM     36 H    ALA E  14       6.054  30.758   3.322  1.00 85.74 LIG 0.16  HD
ATOM     37 O    ALA E  13       7.291  28.513   4.944  1.00 75.52 LIG-0.27  OA
BRANCH 35 38
ATOM     38  CA  ALA E  14       6.280  31.100   5.243  1.00 94.46 LIG 0.16  C 
ATOM     39  CB  ALA E  14       5.957  32.546   4.945  1.00106.12 LIG 0.04  C 
BRANCH 38 40
ATOM     40  C   ALA E  14       5.229  30.497   6.169  1.00 99.07 LIG 0.22  C 
ATOM     41 O    ALA E  14       5.527  29.607   6.965  1.00120.33 LIG-0.29  OA
ENDBRANCH 38 40
ENDBRANCH 35 38
ENDBRANCH 32 34
ENDBRANCH 29 32
ENDBRANCH 26 28
ENDBRANCH 23 26
ENDBRANCH 1 22
TORSDOF 13
ENDMDL
MODEL 29
USER: ADFR SOLUTION from run 141
USER: SCORE 8.450847 LL:  -2.380 LR:  -7.480 RR:   0.000 FEB:  -3.602
USER: RMSD 8.450975
USER: SEED 140
USER: STATUS no improvement in best in 21 clusters for 5 generations
USER: GENES 15
USER: genes 0 Translation |==|  0.81402 0.48665 0.72015
USER: genes 1 Rotation |==|  0.57467 0.47038 0.87086 0.82559
USER: genes 2 Torsion [CB]-CA--N-[C] |==|  0.15556
USER: genes 3 Torsion [N]-C--CA-[N] |==|  0.74516
USER: genes 4 Torsion [C]-CA--N-[C] |==|  0.77380
USER: genes 5 Torsion [N]-C--CA-[N] |==|  0.42529
USER: genes 6 Torsion [C]-CA--N-[C] |==|  0.78596
USER: genes 7 Torsion [N]-C--CA-[N] |==|  0.20950
USER: genes 8 Torsion [N]-CA--C-[N] |==|  0.06186
USER: genes 9 Torsion [C]-N--CA-[CB] |==|  0.83137
USER: genes 10 Torsion [N]-CA--C-[N] |==|  0.38570
USER: genes 11 Torsion [C]-N--CA-[CB] |==|  0.74017
USER: genes 12 Torsion [N]-CA--C-[N] |==|  0.18733
USER: genes 13 Torsion [C]-N--CA-[C] |==|  0.15686
USER: genes 14 Torsion [N]-CA--C-[O] |==|  0.07703
ROOT
ATOM      1  CA  ALA E  11       5.845  23.389   5.157  1.00 85.35 LIG 0.17  C 
ATOM      2  CB  ALA E  11       5.616  22.155   6.032  1.00 80.46 LIG 0.04  C 
ENDROOT
BRANCH 1 3
ATOM      3  N   ALA E  11       4.664  24.244   5.176  1.00 87.15 LIG-0.35  N 
ATOM      4  C   ALA E  10       4.175  24.695   6.334  1.00 62.15 LIG 0.24  C 
ATOM      5 O    ALA E  10       4.792  24.590   7.395  1.00 65.72 LIG-0.27  OA
ATOM      6 H    ALA E  11       4.330  24.421   4.403  1.00 87.15 LIG 0.16  HD
BRANCH 4 7
ATOM      7  CA  ALA E  10       2.804  25.362   6.308  1.00 66.45 LIG 0.17  C 
ATOM      8  CB  ALA E  10       1.940  24.756   5.203  1.00 58.63 LIG 0.04  C 
BRANCH 7 9
ATOM      9  N   ALA E  10       2.903  26.802   6.121  1.00 75.43 LIG-0.35  N 
ATOM     10  C   ALA E   9       3.165  27.646   7.117  1.00 82.21 LIG 0.24  C 
ATOM     11 O    ALA E   9       3.313  27.289   8.291  1.00 73.75 LIG-0.27  OA
ATOM     12 H    ALA E  10       2.777  27.056   5.309  1.00 75.43 LIG 0.16  HD
BRANCH 10 13
ATOM     13  CA  ALA E   9       3.246  29.119   6.741  1.00 87.65 LIG 0.17  C 
ATOM     14  CB  ALA E   9       4.639  29.478   6.229  1.00 72.21 LIG 0.04  C 
BRANCH 13 15
ATOM     15  N   ALA E   9       2.894  29.902   7.919  1.00 84.24 LIG-0.35  N 
ATOM     16 H    ALA E   9       3.567  30.252   8.323  1.00 84.24 LIG 0.16  HD
ATOM     17  C   ALA E   8       1.639  30.052   8.320  1.00 61.40 LIG 0.26  C 
ATOM     18 O    ALA E   8       0.681  29.624   7.679  1.00 66.21 LIG-0.27  OA
BRANCH 17 19
ATOM     19  CA  ALA E   8       1.432  30.822   9.621  1.00 67.03 LIG 0.40  C 
ATOM     20  N   ALA E   8       1.624  32.287   9.402  1.00 60.26 LIG 0.61  N 
ATOM     21  CB  ALA E   8       0.047  30.548  10.194  1.00 64.64 LIG 0.06  C 
ENDBRANCH 17 19
ENDBRANCH 13 15
ENDBRANCH 10 13
ENDBRANCH 7 9
ENDBRANCH 4 7
ENDBRANCH 1 3
BRANCH 1 22
ATOM     22  C   ALA E  11       6.208  22.969   3.738  1.00 81.78 LIG 0.24  C 
ATOM     23  N   ALA E  12       5.766  23.731   2.739  1.00 82.91 LIG-0.35  N 
ATOM     24 H    ALA E  12       5.388  24.498   2.838  1.00 82.91 LIG 0.16  HD
ATOM     25 O    ALA E  11       6.877  21.948   3.534  1.00 89.30 LIG-0.27  OA
BRANCH 23 26
ATOM     26  CA  ALA E  12       5.907  23.287   1.359  1.00 61.10 LIG 0.17  C 
ATOM     27  CB  ALA E  12       7.387  23.090   0.999  1.00 65.27 LIG 0.04  C 
BRANCH 26 28
ATOM     28  C   ALA E  12       5.129  22.000   1.132  1.00 54.59 LIG 0.24  C 
ATOM     29  N   ALA E  13       4.469  21.944  -0.025  1.00 64.78 LIG-0.35  N 
ATOM     30 H    ALA E  13       4.520  22.549  -0.635  1.00 64.78 LIG 0.16  HD
ATOM     31 O    ALA E  12       5.154  21.079   1.953  1.00 69.11 LIG-0.27  OA
BRANCH 29 32
ATOM     32  CA  ALA E  13       3.592  20.833  -0.359  1.00 54.23 LIG 0.17  C 
ATOM     33  CB  ALA E  13       4.364  19.779  -1.154  1.00 56.27 LIG 0.04  C 
BRANCH 32 34
ATOM     34  C   ALA E  13       3.005  20.168   0.873  1.00 65.29 LIG 0.24  C 
ATOM     35  N   ALA E  14       2.149  20.911   1.564  1.00 85.74 LIG-0.35  N 
ATOM     36 H    ALA E  14       1.958  21.725   1.364  1.00 85.74 LIG 0.16  HD
ATOM     37 O    ALA E  13       3.270  18.998   1.158  1.00 75.52 LIG-0.27  OA
BRANCH 35 38
ATOM     38  CA  ALA E  14       1.448  20.412   2.734  1.00 94.46 LIG 0.16  C 
ATOM     39  CB  ALA E  14       0.495  19.308   2.338  1.00106.12 LIG 0.04  C 
BRANCH 38 40
ATOM     40  C   ALA E  14       2.444  19.912   3.775  1.00 99.07 LIG 0.22  C 
ATOM     41 O    ALA E  14       3.580  20.383   3.838  1.00120.33 LIG-0.29  OA
ENDBRANCH 38 40
ENDBRANCH 35 38
ENDBRANCH 32 34
ENDBRANCH 29 32
ENDBRANCH 26 28
ENDBRANCH 23 26
ENDBRANCH 1 22
TORSDOF 13
ENDMDL
MODEL 30
USER: ADFR SOLUTION from run 113
USER: SCORE 8.897001 LL:  -3.934 LR:  -7.454 RR:   0.000 FEB:  -3.576
USER: RMSD 8.942051
USER: SEED 112
USER: STATUS no improvement in best in 11 clusters for 5 generations
USER: GENES 15
USER: genes 0 Translation |==|  0.84700 0.69364 0.60305
USER: genes 1 Rotation |==|  0.53231 0.78710 0.85496 0.70132
USER: genes 2 Torsion [CB]-CA--N-[C] |==|  0.81667
USER: genes 3 Torsion [N]-C--CA-[N] |==|  0.70029
USER: genes 4 Torsion [C]-CA--N-[C] |==|  0.82099
USER: genes 5 Torsion [N]-C--CA-[N] |==|  0.90816
USER: genes 6 Torsion [C]-CA--N-[C] |==|  0.82677
USER: genes 7 Torsion [N]-C--CA-[N] |==|  0.37532
USER: genes 8 Torsion [N]-CA--C-[N] |==|  0.11933
USER: genes 9 Torsion [C]-N--CA-[CB] |==|  0.82073
USER: genes 10 Torsion [N]-CA--C-[N] |==|  0.15484
USER: genes 11 Torsion [C]-N--CA-[CB] |==|  0.16212
USER: genes 12 Torsion [N]-CA--C-[N] |==|  0.10690
USER: genes 13 Torsion [C]-N--CA-[C] |==|  0.62929
USER: genes 14 Torsion [N]-CA--C-[O] |==|  0.09610
ROOT
ATOM      1  CA  ALA E  11       6.588  27.115   3.049  1.00 85.35 LIG 0.17  C 
ATOM      2  CB  ALA E  11       7.564  27.409   4.189  1.00 80.46 LIG 0.04  C 
ENDROOT
BRANCH 1 3
ATOM      3  N   ALA E  11       5.222  27.407   3.470  1.00 87.15 LIG-0.35  N 
ATOM      4  C   ALA E  10       4.642  26.684   4.432  1.00 62.15 LIG 0.24  C 
ATOM      5 O    ALA E  10       5.275  25.896   5.136  1.00 65.72 LIG-0.27  OA
ATOM      6 H    ALA E  11       4.845  28.060   3.057  1.00 87.15 LIG 0.16  HD
BRANCH 4 7
ATOM      7  CA  ALA E  10       3.144  26.866   4.644  1.00 66.45 LIG 0.17  C 
ATOM      8  CB  ALA E  10       2.524  27.596   3.453  1.00 58.63 LIG 0.04  C 
BRANCH 7 9
ATOM      9  N   ALA E  10       2.852  27.591   5.872  1.00 75.43 LIG-0.35  N 
ATOM     10  C   ALA E   9       3.143  27.116   7.081  1.00 82.21 LIG 0.24  C 
ATOM     11 O    ALA E   9       3.655  26.007   7.272  1.00 73.75 LIG-0.27  OA
ATOM     12 H    ALA E  10       2.474  28.353   5.744  1.00 75.43 LIG 0.16  HD
BRANCH 10 13
ATOM     13  CA  ALA E   9       2.780  28.012   8.257  1.00 87.65 LIG 0.17  C 
ATOM     14  CB  ALA E   9       1.358  27.734   8.740  1.00 72.21 LIG 0.04  C 
BRANCH 13 15
ATOM     15  N   ALA E   9       2.937  29.396   7.831  1.00 84.24 LIG-0.35  N 
ATOM     16 H    ALA E   9       2.209  29.854   7.846  1.00 84.24 LIG 0.16  HD
ATOM     17  C   ALA E   8       4.107  29.893   7.454  1.00 61.40 LIG 0.26  C 
ATOM     18 O    ALA E   8       5.155  29.254   7.528  1.00 66.21 LIG-0.27  OA
BRANCH 17 19
ATOM     19  CA  ALA E   8       4.099  31.332   6.947  1.00 67.03 LIG 0.40  C 
ATOM     20  N   ALA E   8       5.232  32.106   7.539  1.00 60.26 LIG 0.61  N 
ATOM     21  CB  ALA E   8       4.172  31.366   5.425  1.00 64.64 LIG 0.06  C 
ENDBRANCH 17 19
ENDBRANCH 13 15
ENDBRANCH 10 13
ENDBRANCH 7 9
ENDBRANCH 4 7
ENDBRANCH 1 3
BRANCH 1 22
ATOM     22  C   ALA E  11       6.733  25.669   2.590  1.00 81.78 LIG 0.24  C 
ATOM     23  N   ALA E  12       5.770  25.169   1.818  1.00 82.91 LIG-0.35  N 
ATOM     24 H    ALA E  12       5.132  25.629   1.471  1.00 82.91 LIG 0.16  HD
ATOM     25 O    ALA E  11       7.709  24.993   2.939  1.00 89.30 LIG-0.27  OA
BRANCH 23 26
ATOM     26  CA  ALA E  12       5.745  23.746   1.507  1.00 61.10 LIG 0.17  C 
ATOM     27  CB  ALA E  12       6.975  23.349   0.676  1.00 65.27 LIG 0.04  C 
BRANCH 26 28
ATOM     28  C   ALA E  12       5.676  22.922   2.782  1.00 54.59 LIG 0.24  C 
ATOM     29  N   ALA E  13       4.653  23.217   3.583  1.00 64.78 LIG-0.35  N 
ATOM     30 H    ALA E  13       4.034  23.779   3.381  1.00 64.78 LIG 0.16  HD
ATOM     31 O    ALA E  12       6.495  22.028   3.016  1.00 69.11 LIG-0.27  OA
BRANCH 29 32
ATOM     32  CA  ALA E  13       4.493  22.600   4.890  1.00 54.23 LIG 0.17  C 
ATOM     33  CB  ALA E  13       5.722  22.882   5.755  1.00 56.27 LIG 0.04  C 
BRANCH 32 34
ATOM     34  C   ALA E  13       3.266  23.108   5.625  1.00 65.29 LIG 0.24  C 
ATOM     35  N   ALA E  14       2.196  23.315   4.865  1.00 85.74 LIG-0.35  N 
ATOM     36 H    ALA E  14       2.192  23.209   4.012  1.00 85.74 LIG 0.16  HD
ATOM     37 O    ALA E  13       3.265  23.252   6.850  1.00 75.52 LIG-0.27  OA
BRANCH 35 38
ATOM     38  CA  ALA E  14       0.920  23.742   5.412  1.00 94.46 LIG 0.16  C 
ATOM     39  CB  ALA E  14       0.696  25.209   5.123  1.00106.12 LIG 0.04  C 
BRANCH 38 40
ATOM     40  C   ALA E  14      -0.213  22.903   4.831  1.00 99.07 LIG 0.22  C 
ATOM     41 O    ALA E  14      -0.044  21.712   4.569  1.00120.33 LIG-0.29  OA
ENDBRANCH 38 40
ENDBRANCH 35 38
ENDBRANCH 32 34
ENDBRANCH 29 32
ENDBRANCH 26 28
ENDBRANCH 23 26
ENDBRANCH 1 22
TORSDOF 13
ENDMDL
MODEL 31
USER: ADFR SOLUTION from run 97
USER: SCORE 8.235888 LL:  -2.564 LR:  -7.417 RR:   0.000 FEB:  -3.539
USER: RMSD 8.962205
USER: SEED 96
USER: STATUS no improvement in best in 12 clusters for 5 generations
USER: GENES 15
USER: genes 0 Translation |==|  0.65557 0.52336 0.78396
USER: genes 1 Rotation |==|  0.39432 0.08386 0.54763 0.75178
USER: genes 2 Torsion [CB]-CA--N-[C] |==|  0.13957
USER: genes 3 Torsion [N]-C--CA-[N] |==|  0.20959
USER: genes 4 Torsion [C]-CA--N-[C] |==|  0.84109
USER: genes 5 Torsion [N]-C--CA-[N] |==|  0.12379
USER: genes 6 Torsion [C]-CA--N-[C] |==|  0.16466
USER: genes 7 Torsion [N]-C--CA-[N] |==|  0.34446
USER: genes 8 Torsion [N]-CA--C-[N] |==|  0.02963
USER: genes 9 Torsion [C]-N--CA-[CB] |==|  0.76405
USER: genes 10 Torsion [N]-CA--C-[N] |==|  0.12275
USER: genes 11 Torsion [C]-N--CA-[CB] |==|  0.84072
USER: genes 12 Torsion [N]-CA--C-[N] |==|  0.39916
USER: genes 13 Torsion [C]-N--CA-[C] |==|  0.69073
USER: genes 14 Torsion [N]-CA--C-[O] |==|  0.05317
ROOT
ATOM      1  CA  ALA E  11       2.280  24.049   6.305  1.00 85.35 LIG 0.17  C 
ATOM      2  CB  ALA E  11       1.759  24.160   4.871  1.00 80.46 LIG 0.04  C 
ENDROOT
BRANCH 1 3
ATOM      3  N   ALA E  11       2.512  25.379   6.859  1.00 87.15 LIG-0.35  N 
ATOM      4  C   ALA E  10       1.562  26.316   6.787  1.00 62.15 LIG 0.24  C 
ATOM      5 O    ALA E  10       0.406  26.057   6.449  1.00 65.72 LIG-0.27  OA
ATOM      6 H    ALA E  11       3.284  25.494   7.220  1.00 87.15 LIG 0.16  HD
BRANCH 4 7
ATOM      7  CA  ALA E  10       1.954  27.745   7.146  1.00 66.45 LIG 0.17  C 
ATOM      8  CB  ALA E  10       0.709  28.578   7.444  1.00 58.63 LIG 0.04  C 
BRANCH 7 9
ATOM      9  N   ALA E  10       2.729  28.378   6.090  1.00 75.43 LIG-0.35  N 
ATOM     10  C   ALA E   9       3.870  27.873   5.625  1.00 82.21 LIG 0.24  C 
ATOM     11 O    ALA E   9       4.390  26.843   6.068  1.00 73.75 LIG-0.27  OA
ATOM     12 H    ALA E  10       2.382  29.108   5.795  1.00 75.43 LIG 0.16  HD
BRANCH 10 13
ATOM     13  CA  ALA E   9       4.544  28.659   4.508  1.00 87.65 LIG 0.17  C 
ATOM     14  CB  ALA E   9       5.974  28.175   4.282  1.00 72.21 LIG 0.04  C 
BRANCH 13 15
ATOM     15  N   ALA E   9       4.510  30.071   4.870  1.00 84.24 LIG-0.35  N 
ATOM     16 H    ALA E   9       4.097  30.569   4.304  1.00 84.24 LIG 0.16  HD
ATOM     17  C   ALA E   8       5.072  30.531   5.979  1.00 61.40 LIG 0.26  C 
ATOM     18 O    ALA E   8       5.576  29.794   6.824  1.00 66.21 LIG-0.27  OA
BRANCH 17 19
ATOM     19  CA  ALA E   8       5.035  32.043   6.179  1.00 67.03 LIG 0.40  C 
ATOM     20  N   ALA E   8       4.388  32.387   7.480  1.00 60.26 LIG 0.61  N 
ATOM     21  CB  ALA E   8       6.441  32.629   6.113  1.00 64.64 LIG 0.06  C 
ENDBRANCH 17 19
ENDBRANCH 13 15
ENDBRANCH 10 13
ENDBRANCH 7 9
ENDBRANCH 4 7
ENDBRANCH 1 3
BRANCH 1 22
ATOM     22  C   ALA E  11       3.545  23.201   6.342  1.00 81.78 LIG 0.24  C 
ATOM     23  N   ALA E  12       4.579  23.668   7.040  1.00 82.91 LIG-0.35  N 
ATOM     24 H    ALA E  12       4.549  24.354   7.559  1.00 82.91 LIG 0.16  HD
ATOM     25 O    ALA E  11       3.601  22.127   5.731  1.00 89.30 LIG-0.27  OA
BRANCH 23 26
ATOM     26  CA  ALA E  12       5.876  23.011   6.959  1.00 61.10 LIG 0.17  C 
ATOM     27  CB  ALA E  12       5.953  21.835   7.945  1.00 65.27 LIG 0.04  C 
BRANCH 26 28
ATOM     28  C   ALA E  12       6.144  22.533   5.541  1.00 54.59 LIG 0.24  C 
ATOM     29  N   ALA E  13       5.838  23.414   4.588  1.00 64.78 LIG-0.35  N 
ATOM     30 H    ALA E  13       5.571  24.216   4.747  1.00 64.78 LIG 0.16  HD
ATOM     31 O    ALA E  12       6.642  21.427   5.318  1.00 69.11 LIG-0.27  OA
BRANCH 29 32
ATOM     32  CA  ALA E  13       5.932  23.085   3.175  1.00 54.23 LIG 0.17  C 
ATOM     33  CB  ALA E  13       7.355  22.638   2.836  1.00 56.27 LIG 0.04  C 
BRANCH 32 34
ATOM     34  C   ALA E  13       4.975  21.978   2.773  1.00 65.29 LIG 0.24  C 
ATOM     35  N   ALA E  14       4.438  22.104   1.564  1.00 85.74 LIG-0.35  N 
ATOM     36 H    ALA E  14       4.582  22.777   1.049  1.00 85.74 LIG 0.16  HD
ATOM     37 O    ALA E  13       4.772  21.007   3.506  1.00 75.52 LIG-0.27  OA
BRANCH 35 38
ATOM     38  CA  ALA E  14       3.549  21.106   0.996  1.00 94.46 LIG 0.16  C 
ATOM     39  CB  ALA E  14       2.258  21.753   0.551  1.00106.12 LIG 0.04  C 
BRANCH 38 40
ATOM     40  C   ALA E  14       4.224  20.399  -0.173  1.00 99.07 LIG 0.22  C 
ATOM     41 O    ALA E  14       5.448  20.429  -0.306  1.00120.33 LIG-0.29  OA
ENDBRANCH 38 40
ENDBRANCH 35 38
ENDBRANCH 32 34
ENDBRANCH 29 32
ENDBRANCH 26 28
ENDBRANCH 23 26
ENDBRANCH 1 22
TORSDOF 13
ENDMDL
MODEL 32
USER: ADFR SOLUTION from run 83
USER: SCORE 9.231090 LL:  -2.872 LR:  -7.415 RR:   0.000 FEB:  -3.537
USER: RMSD 8.575968
USER: SEED 82
USER: STATUS no improvement in best in 27 clusters for 5 generations
USER: GENES 15
USER: genes 0 Translation |==|  0.68565 0.57585 0.80187
USER: genes 1 Rotation |==|  0.32865 0.24501 0.66201 0.85969
USER: genes 2 Torsion [CB]-CA--N-[C] |==|  0.84024
USER: genes 3 Torsion [N]-C--CA-[N] |==|  0.89480
USER: genes 4 Torsion [C]-CA--N-[C] |==|  0.76721
USER: genes 5 Torsion [N]-C--CA-[N] |==|  0.86779
USER: genes 6 Torsion [C]-CA--N-[C] |==|  0.81377
USER: genes 7 Torsion [N]-C--CA-[N] |==|  0.43163
USER: genes 8 Torsion [N]-CA--C-[N] |==|  0.97394
USER: genes 9 Torsion [C]-N--CA-[CB] |==|  0.85548
USER: genes 10 Torsion [N]-CA--C-[N] |==|  0.98253
USER: genes 11 Torsion [C]-N--CA-[CB] |==|  0.84305
USER: genes 12 Torsion [N]-CA--C-[N] |==|  0.45933
USER: genes 13 Torsion [C]-N--CA-[C] |==|  0.83181
USER: genes 14 Torsion [N]-CA--C-[O] |==|  0.31834
ROOT
ATOM      1  CA  ALA E  11       2.957  24.994   6.628  1.00 85.35 LIG 0.17  C 
ATOM      2  CB  ALA E  11       1.566  24.736   6.046  1.00 80.46 LIG 0.04  C 
ENDROOT
BRANCH 1 3
ATOM      3  N   ALA E  11       3.467  26.278   6.158  1.00 87.15 LIG-0.35  N 
ATOM      4  C   ALA E  10       3.586  26.519   4.850  1.00 62.15 LIG 0.24  C 
ATOM      5 O    ALA E  10       3.095  25.780   3.996  1.00 65.72 LIG-0.27  OA
ATOM      6 H    ALA E  11       3.674  26.837   6.778  1.00 87.15 LIG 0.16  HD
BRANCH 4 7
ATOM      7  CA  ALA E  10       4.360  27.765   4.431  1.00 66.45 LIG 0.17  C 
ATOM      8  CB  ALA E  10       5.858  27.467   4.381  1.00 58.63 LIG 0.04  C 
BRANCH 7 9
ATOM      9  N   ALA E  10       4.109  28.886   5.324  1.00 75.43 LIG-0.35  N 
ATOM     10  C   ALA E   9       3.058  29.693   5.198  1.00 82.21 LIG 0.24  C 
ATOM     11 O    ALA E   9       2.220  29.584   4.296  1.00 73.75 LIG-0.27  OA
ATOM     12 H    ALA E  10       4.704  28.980   5.939  1.00 75.43 LIG 0.16  HD
BRANCH 10 13
ATOM     13  CA  ALA E   9       2.943  30.809   6.228  1.00 87.65 LIG 0.17  C 
ATOM     14  CB  ALA E   9       3.949  31.922   5.944  1.00 72.21 LIG 0.04  C 
BRANCH 13 15
ATOM     15  N   ALA E   9       3.152  30.225   7.546  1.00 84.24 LIG-0.35  N 
ATOM     16 H    ALA E   9       3.873  30.484   7.936  1.00 84.24 LIG 0.16  HD
ATOM     17  C   ALA E   8       2.295  29.368   8.086  1.00 61.40 LIG 0.26  C 
ATOM     18 O    ALA E   8       1.223  29.080   7.557  1.00 66.21 LIG-0.27  OA
BRANCH 17 19
ATOM     19  CA  ALA E   8       2.692  28.771   9.432  1.00 67.03 LIG 0.40  C 
ATOM     20  N   ALA E   8       1.483  28.335  10.193  1.00 60.26 LIG 0.61  N 
ATOM     21  CB  ALA E   8       3.650  27.601   9.239  1.00 64.64 LIG 0.06  C 
ENDBRANCH 17 19
ENDBRANCH 13 15
ENDBRANCH 10 13
ENDBRANCH 7 9
ENDBRANCH 4 7
ENDBRANCH 1 3
BRANCH 1 22
ATOM     22  C   ALA E  11       3.900  23.853   6.267  1.00 81.78 LIG 0.24  C 
ATOM     23  N   ALA E  12       4.910  24.126   5.443  1.00 82.91 LIG-0.35  N 
ATOM     24 H    ALA E  12       5.133  24.917   5.188  1.00 82.91 LIG 0.16  HD
ATOM     25 O    ALA E  11       3.715  22.717   6.721  1.00 89.30 LIG-0.27  OA
BRANCH 23 26
ATOM     26  CA  ALA E  12       5.729  23.049   4.904  1.00 61.10 LIG 0.17  C 
ATOM     27  CB  ALA E  12       6.249  22.144   6.032  1.00 65.27 LIG 0.04  C 
BRANCH 26 28
ATOM     28  C   ALA E  12       4.940  22.235   3.891  1.00 54.59 LIG 0.24  C 
ATOM     29  N   ALA E  13       3.652  22.565   3.790  1.00 64.78 LIG-0.35  N 
ATOM     30 H    ALA E  13       3.294  23.226   4.209  1.00 64.78 LIG 0.16  HD
ATOM     31 O    ALA E  12       5.482  21.369   3.200  1.00 69.11 LIG-0.27  OA
BRANCH 29 32
ATOM     32  CA  ALA E  13       2.729  21.823   2.947  1.00 54.23 LIG 0.17  C 
ATOM     33  CB  ALA E  13       3.244  21.794   1.508  1.00 56.27 LIG 0.04  C 
BRANCH 32 34
ATOM     34  C   ALA E  13       2.542  20.391   3.416  1.00 65.29 LIG 0.24  C 
ATOM     35  N   ALA E  14       1.501  19.754   2.890  1.00 85.74 LIG-0.35  N 
ATOM     36 H    ALA E  14       0.943  20.123   2.351  1.00 85.74 LIG 0.16  HD
ATOM     37 O    ALA E  13       3.346  19.856   4.183  1.00 75.52 LIG-0.27  OA
BRANCH 35 38
ATOM     38  CA  ALA E  14       1.209  18.361   3.180  1.00 94.46 LIG 0.16  C 
ATOM     39  CB  ALA E  14      -0.071  17.944   2.492  1.00106.12 LIG 0.04  C 
BRANCH 38 40
ATOM     40  C   ALA E  14       2.367  17.474   2.739  1.00 99.07 LIG 0.22  C 
ATOM     41 O    ALA E  14       3.031  16.848   3.565  1.00120.33 LIG-0.29  OA
ENDBRANCH 38 40
ENDBRANCH 35 38
ENDBRANCH 32 34
ENDBRANCH 29 32
ENDBRANCH 26 28
ENDBRANCH 23 26
ENDBRANCH 1 22
TORSDOF 13
ENDMDL
MODEL 33
USER: ADFR SOLUTION from run 144
USER: SCORE 7.590391 LL:  -2.932 LR:  -7.413 RR:   0.000 FEB:  -3.535
USER: RMSD 8.499029
USER: SEED 143
USER: STATUS no improvement in best in 19 clusters for 5 generations
USER: GENES 15
USER: genes 0 Translation |==|  0.82006 0.46368 0.72016
USER: genes 1 Rotation |==|  0.62465 0.62416 0.79396 0.86419
USER: genes 2 Torsion [CB]-CA--N-[C] |==|  0.85887
USER: genes 3 Torsion [N]-C--CA-[N] |==|  0.01123
USER: genes 4 Torsion [C]-CA--N-[C] |==|  0.66261
USER: genes 5 Torsion [N]-C--CA-[N] |==|  0.43972
USER: genes 6 Torsion [C]-CA--N-[C] |==|  0.20371
USER: genes 7 Torsion [N]-C--CA-[N] |==|  0.63238
USER: genes 8 Torsion [N]-CA--C-[N] |==|  0.89286
USER: genes 9 Torsion [C]-N--CA-[CB] |==|  0.47983
USER: genes 10 Torsion [N]-CA--C-[N] |==|  0.31878
USER: genes 11 Torsion [C]-N--CA-[CB] |==|  0.86107
USER: genes 12 Torsion [N]-CA--C-[N] |==|  0.97079
USER: genes 13 Torsion [C]-N--CA-[C] |==|  0.72360
USER: genes 14 Torsion [N]-CA--C-[O] |==|  0.77784
ROOT
ATOM      1  CA  ALA E  11       5.981  22.975   5.157  1.00 85.35 LIG 0.17  C 
ATOM      2  CB  ALA E  11       6.202  22.119   6.405  1.00 80.46 LIG 0.04  C 
ENDROOT
BRANCH 1 3
ATOM      3  N   ALA E  11       5.136  24.120   5.477  1.00 87.15 LIG-0.35  N 
ATOM      4  C   ALA E  10       3.976  23.947   6.116  1.00 62.15 LIG 0.24  C 
ATOM      5 O    ALA E  10       3.665  22.875   6.637  1.00 65.72 LIG-0.27  OA
ATOM      6 H    ALA E  11       5.445  24.883   5.225  1.00 87.15 LIG 0.16  HD
BRANCH 4 7
ATOM      7  CA  ALA E  10       3.028  25.138   6.190  1.00 66.45 LIG 0.17  C 
ATOM      8  CB  ALA E  10       1.645  24.748   5.671  1.00 58.63 LIG 0.04  C 
BRANCH 7 9
ATOM      9  N   ALA E  10       3.530  26.281   5.442  1.00 75.43 LIG-0.35  N 
ATOM     10  C   ALA E   9       3.760  27.468   5.999  1.00 82.21 LIG 0.24  C 
ATOM     11 O    ALA E   9       3.537  27.717   7.190  1.00 73.75 LIG-0.27  OA
ATOM     12 H    ALA E  10       3.665  26.118   4.608  1.00 75.43 LIG 0.16  HD
BRANCH 10 13
ATOM     13  CA  ALA E   9       4.298  28.549   5.073  1.00 87.65 LIG 0.17  C 
ATOM     14  CB  ALA E   9       5.797  28.373   4.837  1.00 72.21 LIG 0.04  C 
BRANCH 13 15
ATOM     15  N   ALA E   9       4.002  29.843   5.674  1.00 84.24 LIG-0.35  N 
ATOM     16 H    ALA E   9       3.370  30.277   5.283  1.00 84.24 LIG 0.16  HD
ATOM     17  C   ALA E   8       4.657  30.300   6.732  1.00 61.40 LIG 0.26  C 
ATOM     18 O    ALA E   8       5.492  29.629   7.336  1.00 66.21 LIG-0.27  OA
BRANCH 17 19
ATOM     19  CA  ALA E   8       4.298  31.709   7.194  1.00 67.03 LIG 0.40  C 
ATOM     20  N   ALA E   8       5.533  32.516   7.431  1.00 60.26 LIG 0.61  N 
ATOM     21  CB  ALA E   8       3.402  32.398   6.171  1.00 64.64 LIG 0.06  C 
ENDBRANCH 17 19
ENDBRANCH 13 15
ENDBRANCH 10 13
ENDBRANCH 7 9
ENDBRANCH 4 7
ENDBRANCH 1 3
BRANCH 1 22
ATOM     22  C   ALA E  11       5.380  22.132   4.039  1.00 81.78 LIG 0.24  C 
ATOM     23  N   ALA E  12       4.058  21.965   4.038  1.00 82.91 LIG-0.35  N 
ATOM     24 H    ALA E  12       3.511  22.385   4.553  1.00 82.91 LIG 0.16  HD
ATOM     25 O    ALA E  11       6.104  21.618   3.179  1.00 89.30 LIG-0.27  OA
BRANCH 23 26
ATOM     26  CA  ALA E  12       3.440  21.018   3.120  1.00 61.10 LIG 0.17  C 
ATOM     27  CB  ALA E  12       1.941  20.866   3.423  1.00 65.27 LIG 0.04  C 
BRANCH 26 28
ATOM     28  C   ALA E  12       3.649  21.457   1.680  1.00 54.59 LIG 0.24  C 
ATOM     29  N   ALA E  13       4.407  20.638   0.951  1.00 64.78 LIG-0.35  N 
ATOM     30 H    ALA E  13       4.707  19.884   1.236  1.00 64.78 LIG 0.16  HD
ATOM     31 O    ALA E  12       3.116  22.477   1.234  1.00 69.11 LIG-0.27  OA
BRANCH 29 32
ATOM     32  CA  ALA E  13       4.794  20.956  -0.414  1.00 54.23 LIG 0.17  C 
ATOM     33  CB  ALA E  13       3.564  21.363  -1.225  1.00 56.27 LIG 0.04  C 
BRANCH 32 34
ATOM     34  C   ALA E  13       5.805  22.087  -0.480  1.00 65.29 LIG 0.24  C 
ATOM     35  N   ALA E  14       6.003  22.738   0.660  1.00 85.74 LIG-0.35  N 
ATOM     36 H    ALA E  14       5.571  22.569   1.384  1.00 85.74 LIG 0.16  HD
ATOM     37 O    ALA E  13       6.433  22.326  -1.514  1.00 75.52 LIG-0.27  OA
BRANCH 35 38
ATOM     38  CA  ALA E  14       6.978  23.806   0.792  1.00 94.46 LIG 0.16  C 
ATOM     39  CB  ALA E  14       6.401  24.939   1.609  1.00106.12 LIG 0.04  C 
BRANCH 38 40
ATOM     40  C   ALA E  14       8.257  23.280   1.434  1.00 99.07 LIG 0.22  C 
ATOM     41 O    ALA E  14       8.332  23.124   2.653  1.00120.33 LIG-0.29  OA
ENDBRANCH 38 40
ENDBRANCH 35 38
ENDBRANCH 32 34
ENDBRANCH 29 32
ENDBRANCH 26 28
ENDBRANCH 23 26
ENDBRANCH 1 22
TORSDOF 13
ENDMDL
MODEL 34
USER: ADFR SOLUTION from run 12
USER: SCORE 8.812671 LL:  -2.720 LR:  -7.401 RR:   0.000 FEB:  -3.524
USER: RMSD 8.973703
USER: SEED 846510
USER: STATUS no improvement in best in 28 clusters for 5 generations
USER: GENES 15
USER: genes 0 Translation |==|  0.81224 0.47479 0.69320
USER: genes 1 Rotation |==|  0.61513 0.66448 0.80285 0.84347
USER: genes 2 Torsion [CB]-CA--N-[C] |==|  0.83863
USER: genes 3 Torsion [N]-C--CA-[N] |==|  0.42606
USER: genes 4 Torsion [C]-CA--N-[C] |==|  0.84114
USER: genes 5 Torsion [N]-C--CA-[N] |==|  0.01514
USER: genes 6 Torsion [C]-CA--N-[C] |==|  0.72257
USER: genes 7 Torsion [N]-C--CA-[N] |==|  0.13966
USER: genes 8 Torsion [N]-CA--C-[N] |==|  0.03333
USER: genes 9 Torsion [C]-N--CA-[CB] |==|  0.83243
USER: genes 10 Torsion [N]-CA--C-[N] |==|  0.42067
USER: genes 11 Torsion [C]-N--CA-[CB] |==|  0.49507
USER: genes 12 Torsion [N]-CA--C-[N] |==|  0.41720
USER: genes 13 Torsion [C]-N--CA-[C] |==|  0.45762
USER: genes 14 Torsion [N]-CA--C-[O] |==|  0.93265
ROOT
ATOM      1  CA  ALA E  11       5.805  23.175   4.672  1.00 85.35 LIG 0.17  C 
ATOM      2  CB  ALA E  11       6.259  22.480   5.956  1.00 80.46 LIG 0.04  C 
ENDROOT
BRANCH 1 3
ATOM      3  N   ALA E  11       4.857  24.238   4.985  1.00 87.15 LIG-0.35  N 
ATOM      4  C   ALA E  10       3.725  23.963   5.639  1.00 62.15 LIG 0.24  C 
ATOM      5 O    ALA E  10       3.525  22.874   6.179  1.00 65.72 LIG-0.27  OA
ATOM      6 H    ALA E  11       5.088  25.023   4.719  1.00 87.15 LIG 0.16  HD
BRANCH 4 7
ATOM      7  CA  ALA E  10       2.667  25.058   5.707  1.00 66.45 LIG 0.17  C 
ATOM      8  CB  ALA E  10       2.966  26.016   6.858  1.00 58.63 LIG 0.04  C 
BRANCH 7 9
ATOM      9  N   ALA E  10       1.327  24.510   5.858  1.00 75.43 LIG-0.35  N 
ATOM     10  C   ALA E   9       0.795  23.646   4.996  1.00 82.21 LIG 0.24  C 
ATOM     11 O    ALA E   9       1.375  23.256   3.976  1.00 73.75 LIG-0.27  OA
ATOM     12 H    ALA E  10       0.911  24.797   6.554  1.00 75.43 LIG 0.16  HD
BRANCH 10 13
ATOM     13  CA  ALA E   9      -0.614  23.164   5.315  1.00 87.65 LIG 0.17  C 
ATOM     14  CB  ALA E   9      -1.541  23.348   4.115  1.00 72.21 LIG 0.04  C 
BRANCH 13 15
ATOM     15  N   ALA E   9      -1.090  23.907   6.475  1.00 84.24 LIG-0.35  N 
ATOM     16 H    ALA E   9      -1.379  24.696   6.292  1.00 84.24 LIG 0.16  HD
ATOM     17  C   ALA E   8      -1.072  23.397   7.698  1.00 61.40 LIG 0.26  C 
ATOM     18 O    ALA E   8      -0.744  22.235   7.929  1.00 66.21 LIG-0.27  OA
BRANCH 17 19
ATOM     19  CA  ALA E   8      -1.516  24.326   8.824  1.00 67.03 LIG 0.40  C 
ATOM     20  N   ALA E   8      -2.826  24.964   8.495  1.00 60.26 LIG 0.61  N 
ATOM     21  CB  ALA E   8      -1.613  23.566  10.142  1.00 64.64 LIG 0.06  C 
ENDBRANCH 17 19
ENDBRANCH 13 15
ENDBRANCH 10 13
ENDBRANCH 7 9
ENDBRANCH 4 7
ENDBRANCH 1 3
BRANCH 1 22
ATOM     22  C   ALA E  11       5.208  22.160   3.705  1.00 81.78 LIG 0.24  C 
ATOM     23  N   ALA E  12       4.065  22.483   3.103  1.00 82.91 LIG-0.35  N 
ATOM     24 H    ALA E  12       3.698  23.261   3.133  1.00 82.91 LIG 0.16  HD
ATOM     25 O    ALA E  11       5.768  21.075   3.506  1.00 89.30 LIG-0.27  OA
BRANCH 23 26
ATOM     26  CA  ALA E  12       3.340  21.489   2.323  1.00 61.10 LIG 0.17  C 
ATOM     27  CB  ALA E  12       4.203  20.975   1.161  1.00 65.27 LIG 0.04  C 
BRANCH 26 28
ATOM     28  C   ALA E  12       2.898  20.335   3.208  1.00 54.59 LIG 0.24  C 
ATOM     29  N   ALA E  13       1.790  19.714   2.804  1.00 64.78 LIG-0.35  N 
ATOM     30 H    ALA E  13       1.382  19.895   2.069  1.00 64.78 LIG 0.16  HD
ATOM     31 O    ALA E  12       3.553  19.996   4.197  1.00 69.11 LIG-0.27  OA
BRANCH 29 32
ATOM     32  CA  ALA E  13       1.169  18.658   3.587  1.00 54.23 LIG 0.17  C 
ATOM     33  CB  ALA E  13      -0.103  18.172   2.892  1.00 56.27 LIG 0.04  C 
BRANCH 32 34
ATOM     34  C   ALA E  13       2.089  17.467   3.786  1.00 65.29 LIG 0.24  C 
ATOM     35  N   ALA E  14       1.902  16.787   4.912  1.00 85.74 LIG-0.35  N 
ATOM     36 H    ALA E  14       1.331  17.014   5.513  1.00 85.74 LIG 0.16  HD
ATOM     37 O    ALA E  13       2.904  17.134   2.922  1.00 75.52 LIG-0.27  OA
BRANCH 35 38
ATOM     38  CA  ALA E  14       2.652  15.587   5.234  1.00 94.46 LIG 0.16  C 
ATOM     39  CB  ALA E  14       4.110  15.773   4.878  1.00106.12 LIG 0.04  C 
BRANCH 38 40
ATOM     40  C   ALA E  14       2.502  15.250   6.713  1.00 99.07 LIG 0.22  C 
ATOM     41 O    ALA E  14       2.222  16.124   7.534  1.00120.33 LIG-0.29  OA
ENDBRANCH 38 40
ENDBRANCH 35 38
ENDBRANCH 32 34
ENDBRANCH 29 32
ENDBRANCH 26 28
ENDBRANCH 23 26
ENDBRANCH 1 22
TORSDOF 13
ENDMDL
MODEL 35
USER: ADFR SOLUTION from run 21
USER: SCORE 7.968553 LL:  -2.643 LR:  -7.354 RR:   0.000 FEB:  -3.476
USER: RMSD 9.856206
USER: SEED 20
USER: STATUS no improvement in best in 67 clusters for 5 generations
USER: GENES 15
USER: genes 0 Translation |==|  0.74383 0.43472 0.72016
USER: genes 1 Rotation |==|  0.51669 0.82641 0.29182 0.81598
USER: genes 2 Torsion [CB]-CA--N-[C] |==|  0.27771
USER: genes 3 Torsion [N]-C--CA-[N] |==|  0.12939
USER: genes 4 Torsion [C]-CA--N-[C] |==|  0.13145
USER: genes 5 Torsion [N]-C--CA-[N] |==|  0.87443
USER: genes 6 Torsion [C]-CA--N-[C] |==|  0.82216
USER: genes 7 Torsion [N]-C--CA-[N] |==|  0.24139
USER: genes 8 Torsion [N]-CA--C-[N] |==|  0.03713
USER: genes 9 Torsion [C]-N--CA-[CB] |==|  0.83560
USER: genes 10 Torsion [N]-CA--C-[N] |==|  0.50546
USER: genes 11 Torsion [C]-N--CA-[CB] |==|  0.83373
USER: genes 12 Torsion [N]-CA--C-[N] |==|  0.44653
USER: genes 13 Torsion [C]-N--CA-[C] |==|  0.77646
USER: genes 14 Torsion [N]-CA--C-[O] |==|  0.05132
ROOT
ATOM      1  CA  ALA E  11       4.266  22.454   5.157  1.00 85.35 LIG 0.17  C 
ATOM      2  CB  ALA E  11       5.639  22.534   5.828  1.00 80.46 LIG 0.04  C 
ENDROOT
BRANCH 1 3
ATOM      3  N   ALA E  11       4.357  22.906   3.773  1.00 87.15 LIG-0.35  N 
ATOM      4  C   ALA E  10       4.428  22.021   2.776  1.00 62.15 LIG 0.24  C 
ATOM      5 O    ALA E  10       4.218  20.819   2.946  1.00 65.72 LIG-0.27  OA
ATOM      6 H    ALA E  11       4.359  23.760   3.668  1.00 87.15 LIG 0.16  HD
BRANCH 4 7
ATOM      7  CA  ALA E  10       4.779  22.548   1.389  1.00 66.45 LIG 0.17  C 
ATOM      8  CB  ALA E  10       5.079  21.389   0.440  1.00 58.63 LIG 0.04  C 
BRANCH 7 9
ATOM      9  N   ALA E  10       5.912  23.460   1.425  1.00 75.43 LIG-0.35  N 
ATOM     10  C   ALA E   9       7.039  23.193   2.082  1.00 82.21 LIG 0.24  C 
ATOM     11 O    ALA E   9       7.212  22.165   2.746  1.00 73.75 LIG-0.27  OA
ATOM     12 H    ALA E  10       5.786  24.188   0.983  1.00 75.43 LIG 0.16  HD
BRANCH 10 13
ATOM     13  CA  ALA E   9       8.128  24.253   2.002  1.00 87.65 LIG 0.17  C 
ATOM     14  CB  ALA E   9       7.818  25.428   2.927  1.00 72.21 LIG 0.04  C 
BRANCH 13 15
ATOM     15  N   ALA E   9       8.236  24.682   0.613  1.00 84.24 LIG-0.35  N 
ATOM     16 H    ALA E   9       8.031  25.507   0.483  1.00 84.24 LIG 0.16  HD
ATOM     17  C   ALA E   8       8.617  23.860  -0.355  1.00 61.40 LIG 0.26  C 
ATOM     18 O    ALA E   8       8.996  22.710  -0.139  1.00 66.21 LIG-0.27  OA
BRANCH 17 19
ATOM     19  CA  ALA E   8       8.594  24.426  -1.771  1.00 67.03 LIG 0.40  C 
ATOM     20  N   ALA E   8       9.879  25.120  -2.082  1.00 60.26 LIG 0.61  N 
ATOM     21  CB  ALA E   8       8.327  23.321  -2.787  1.00 64.64 LIG 0.06  C 
ENDBRANCH 17 19
ENDBRANCH 13 15
ENDBRANCH 10 13
ENDBRANCH 7 9
ENDBRANCH 4 7
ENDBRANCH 1 3
BRANCH 1 22
ATOM     22  C   ALA E  11       3.246  23.267   5.944  1.00 81.78 LIG 0.24  C 
ATOM     23  N   ALA E  12       2.412  24.042   5.254  1.00 82.91 LIG-0.35  N 
ATOM     24 H    ALA E  12       2.333  24.035   4.397  1.00 82.91 LIG 0.16  HD
ATOM     25 O    ALA E  11       3.213  23.209   7.180  1.00 89.30 LIG-0.27  OA
BRANCH 23 26
ATOM     26  CA  ALA E  12       1.548  24.989   5.946  1.00 61.10 LIG 0.17  C 
ATOM     27  CB  ALA E  12       0.627  24.262   6.937  1.00 65.27 LIG 0.04  C 
BRANCH 26 28
ATOM     28  C   ALA E  12       2.377  26.041   6.664  1.00 54.59 LIG 0.24  C 
ATOM     29  N   ALA E  13       1.670  26.930   7.362  1.00 64.78 LIG-0.35  N 
ATOM     30 H    ALA E  13       0.816  26.888   7.462  1.00 64.78 LIG 0.16  HD
ATOM     31 O    ALA E  12       3.610  26.029   6.621  1.00 69.11 LIG-0.27  OA
BRANCH 29 32
ATOM     32  CA  ALA E  13       2.293  28.064   8.024  1.00 54.23 LIG 0.17  C 
ATOM     33  CB  ALA E  13       3.317  27.573   9.048  1.00 56.27 LIG 0.04  C 
BRANCH 32 34
ATOM     34  C   ALA E  13       3.000  28.987   7.048  1.00 65.29 LIG 0.24  C 
ATOM     35  N   ALA E  14       3.239  30.214   7.499  1.00 85.74 LIG-0.35  N 
ATOM     36 H    ALA E  14       2.985  30.492   8.271  1.00 85.74 LIG 0.16  HD
ATOM     37 O    ALA E  13       3.373  28.588   5.942  1.00 75.52 LIG-0.27  OA
BRANCH 35 38
ATOM     38  CA  ALA E  14       3.958  31.206   6.721  1.00 94.46 LIG 0.16  C 
ATOM     39  CB  ALA E  14       3.607  32.597   7.200  1.00106.12 LIG 0.04  C 
BRANCH 38 40
ATOM     40  C   ALA E  14       5.461  30.970   6.821  1.00 99.07 LIG 0.22  C 
ATOM     41 O    ALA E  14       5.905  29.883   7.191  1.00120.33 LIG-0.29  OA
ENDBRANCH 38 40
ENDBRANCH 35 38
ENDBRANCH 32 34
ENDBRANCH 29 32
ENDBRANCH 26 28
ENDBRANCH 23 26
ENDBRANCH 1 22
TORSDOF 13
ENDMDL
MODEL 36
USER: ADFR SOLUTION from run 86
USER: SCORE 8.563077 LL:  -2.451 LR:  -7.350 RR:   0.000 FEB:  -3.473
USER: RMSD 10.165813
USER: SEED 85
USER: STATUS no improvement in best in 25 clusters for 5 generations
USER: GENES 15
USER: genes 0 Translation |==|  0.78374 0.42723 0.74181
USER: genes 1 Rotation |==|  0.53660 0.77602 0.30058 0.86428
USER: genes 2 Torsion [CB]-CA--N-[C] |==|  0.15804
USER: genes 3 Torsion [N]-C--CA-[N] |==|  0.87850
USER: genes 4 Torsion [C]-CA--N-[C] |==|  0.88318
USER: genes 5 Torsion [N]-C--CA-[N] |==|  0.40506
USER: genes 6 Torsion [C]-CA--N-[C] |==|  0.79990
USER: genes 7 Torsion [N]-C--CA-[N] |==|  0.38110
USER: genes 8 Torsion [N]-CA--C-[N] |==|  0.01963
USER: genes 9 Torsion [C]-N--CA-[CB] |==|  0.84892
USER: genes 10 Torsion [N]-CA--C-[N] |==|  0.48685
USER: genes 11 Torsion [C]-N--CA-[CB] |==|  0.84656
USER: genes 12 Torsion [N]-CA--C-[N] |==|  0.41111
USER: genes 13 Torsion [C]-N--CA-[C] |==|  0.80757
USER: genes 14 Torsion [N]-CA--C-[O] |==|  0.05809
ROOT
ATOM      1  CA  ALA E  11       5.164  22.319   5.547  1.00 85.35 LIG 0.17  C 
ATOM      2  CB  ALA E  11       6.284  22.469   6.578  1.00 80.46 LIG 0.04  C 
ENDROOT
BRANCH 1 3
ATOM      3  N   ALA E  11       5.627  22.760   4.235  1.00 87.15 LIG-0.35  N 
ATOM      4  C   ALA E  10       6.705  22.204   3.677  1.00 62.15 LIG 0.24  C 
ATOM      5 O    ALA E  10       7.227  21.183   4.126  1.00 65.72 LIG-0.27  OA
ATOM      6 H    ALA E  11       5.158  23.385   3.875  1.00 87.15 LIG 0.16  HD
BRANCH 4 7
ATOM      7  CA  ALA E  10       7.285  22.879   2.439  1.00 66.45 LIG 0.17  C 
ATOM      8  CB  ALA E  10       8.118  24.096   2.838  1.00 58.63 LIG 0.04  C 
BRANCH 7 9
ATOM      9  N   ALA E  10       6.246  23.280   1.501  1.00 75.43 LIG-0.35  N 
ATOM     10  C   ALA E   9       5.200  22.512   1.206  1.00 82.21 LIG 0.24  C 
ATOM     11 O    ALA E   9       5.033  21.379   1.672  1.00 73.75 LIG-0.27  OA
ATOM     12 H    ALA E  10       6.371  24.058   1.157  1.00 75.43 LIG 0.16  HD
BRANCH 10 13
ATOM     13  CA  ALA E   9       4.201  23.093   0.214  1.00 87.65 LIG 0.17  C 
ATOM     14  CB  ALA E   9       3.087  23.847   0.937  1.00 72.21 LIG 0.04  C 
BRANCH 13 15
ATOM     15  N   ALA E   9       3.671  21.995  -0.584  1.00 84.24 LIG-0.35  N 
ATOM     16 H    ALA E   9       2.856  21.790  -0.403  1.00 84.24 LIG 0.16  HD
ATOM     17  C   ALA E   8       4.396  21.376  -1.506  1.00 61.40 LIG 0.26  C 
ATOM     18 O    ALA E   8       5.527  21.742  -1.819  1.00 66.21 LIG-0.27  OA
BRANCH 17 19
ATOM     19  CA  ALA E   8       3.736  20.187  -2.198  1.00 67.03 LIG 0.40  C 
ATOM     20  N   ALA E   8       4.002  20.218  -3.667  1.00 60.26 LIG 0.61  N 
ATOM     21  CB  ALA E   8       4.229  18.875  -1.596  1.00 64.64 LIG 0.06  C 
ENDBRANCH 17 19
ENDBRANCH 13 15
ENDBRANCH 10 13
ENDBRANCH 7 9
ENDBRANCH 4 7
ENDBRANCH 1 3
BRANCH 1 22
ATOM     22  C   ALA E  11       3.929  23.093   5.992  1.00 81.78 LIG 0.24  C 
ATOM     23  N   ALA E  12       3.372  23.921   5.111  1.00 82.91 LIG-0.35  N 
ATOM     24 H    ALA E  12       3.588  23.970   4.280  1.00 82.91 LIG 0.16  HD
ATOM     25 O    ALA E  11       3.480  22.956   7.137  1.00 89.30 LIG-0.27  OA
BRANCH 23 26
ATOM     26  CA  ALA E  12       2.315  24.832   5.529  1.00 61.10 LIG 0.17  C 
ATOM     27  CB  ALA E  12       1.171  24.064   6.209  1.00 65.27 LIG 0.04  C 
BRANCH 26 28
ATOM     28  C   ALA E  12       2.867  25.898   6.461  1.00 54.59 LIG 0.24  C 
ATOM     29  N   ALA E  13       1.991  26.837   6.817  1.00 64.78 LIG-0.35  N 
ATOM     30 H    ALA E  13       1.159  26.822   6.600  1.00 64.78 LIG 0.16  HD
ATOM     31 O    ALA E  12       4.030  25.853   6.872  1.00 69.11 LIG-0.27  OA
BRANCH 29 32
ATOM     32  CA  ALA E  13       2.376  27.988   7.619  1.00 54.23 LIG 0.17  C 
ATOM     33  CB  ALA E  13       3.040  27.522   8.915  1.00 56.27 LIG 0.04  C 
BRANCH 32 34
ATOM     34  C   ALA E  13       3.343  28.904   6.890  1.00 65.29 LIG 0.24  C 
ATOM     35  N   ALA E  14       3.238  30.193   7.190  1.00 85.74 LIG-0.35  N 
ATOM     36 H    ALA E  14       2.645  30.508   7.727  1.00 85.74 LIG 0.16  HD
ATOM     37 O    ALA E  13       4.199  28.454   6.124  1.00 75.52 LIG-0.27  OA
BRANCH 35 38
ATOM     38  CA  ALA E  14       4.122  31.201   6.632  1.00 94.46 LIG 0.16  C 
ATOM     39  CB  ALA E  14       3.588  32.583   6.928  1.00106.12 LIG 0.04  C 
BRANCH 38 40
ATOM     40  C   ALA E  14       5.530  31.039   7.194  1.00 99.07 LIG 0.22  C 
ATOM     41 O    ALA E  14       5.895  29.970   7.682  1.00120.33 LIG-0.29  OA
ENDBRANCH 38 40
ENDBRANCH 35 38
ENDBRANCH 32 34
ENDBRANCH 29 32
ENDBRANCH 26 28
ENDBRANCH 23 26
ENDBRANCH 1 22
TORSDOF 13
ENDMDL
MODEL 37
USER: ADFR SOLUTION from run 47
USER: SCORE 8.679474 LL:  -3.283 LR:  -7.337 RR:   0.000 FEB:  -3.459
USER: RMSD 10.035986
USER: SEED 46
USER: STATUS no improvement in best in 22 clusters for 5 generations
USER: GENES 15
USER: genes 0 Translation |==|  0.77854 0.43391 0.70321
USER: genes 1 Rotation |==|  0.56134 0.25997 0.75614 0.85074
USER: genes 2 Torsion [CB]-CA--N-[C] |==|  0.16773
USER: genes 3 Torsion [N]-C--CA-[N] |==|  0.72743
USER: genes 4 Torsion [C]-CA--N-[C] |==|  0.56843
USER: genes 5 Torsion [N]-C--CA-[N] |==|  0.31859
USER: genes 6 Torsion [C]-CA--N-[C] |==|  0.66647
USER: genes 7 Torsion [N]-C--CA-[N] |==|  0.40875
USER: genes 8 Torsion [N]-CA--C-[N] |==|  0.06810
USER: genes 9 Torsion [C]-N--CA-[CB] |==|  0.16665
USER: genes 10 Torsion [N]-CA--C-[N] |==|  0.16954
USER: genes 11 Torsion [C]-N--CA-[CB] |==|  0.85414
USER: genes 12 Torsion [N]-CA--C-[N] |==|  0.94604
USER: genes 13 Torsion [C]-N--CA-[C] |==|  0.72122
USER: genes 14 Torsion [N]-CA--C-[O] |==|  0.94316
ROOT
ATOM      1  CA  ALA E  11       5.047  22.439   4.852  1.00 85.35 LIG 0.17  C 
ATOM      2  CB  ALA E  11       3.991  21.370   4.569  1.00 80.46 LIG 0.04  C 
ENDROOT
BRANCH 1 3
ATOM      3  N   ALA E  11       4.407  23.731   5.073  1.00 87.15 LIG-0.35  N 
ATOM      4  C   ALA E  10       3.538  23.892   6.075  1.00 62.15 LIG 0.24  C 
ATOM      5 O    ALA E  10       3.392  23.050   6.962  1.00 65.72 LIG-0.27  OA
ATOM      6 H    ALA E  11       4.634  24.350   4.520  1.00 87.15 LIG 0.16  HD
BRANCH 4 7
ATOM      7  CA  ALA E  10       2.716  25.175   6.095  1.00 66.45 LIG 0.17  C 
ATOM      8  CB  ALA E  10       2.598  25.752   4.685  1.00 58.63 LIG 0.04  C 
BRANCH 7 9
ATOM      9  N   ALA E  10       3.285  26.173   6.989  1.00 75.43 LIG-0.35  N 
ATOM     10  C   ALA E   9       2.563  27.141   7.548  1.00 82.21 LIG 0.24  C 
ATOM     11 O    ALA E   9       1.357  27.303   7.334  1.00 73.75 LIG-0.27  OA
ATOM     12 H    ALA E  10       4.130  26.078   7.122  1.00 75.43 LIG 0.16  HD
BRANCH 10 13
ATOM     13  CA  ALA E   9       3.318  28.091   8.470  1.00 87.65 LIG 0.17  C 
ATOM     14  CB  ALA E   9       2.697  28.110   9.865  1.00 72.21 LIG 0.04  C 
BRANCH 13 15
ATOM     15  N   ALA E   9       3.300  29.415   7.860  1.00 84.24 LIG-0.35  N 
ATOM     16 H    ALA E   9       2.511  29.734   7.737  1.00 84.24 LIG 0.16  HD
ATOM     17  C   ALA E   8       4.411  30.058   7.530  1.00 61.40 LIG 0.26  C 
ATOM     18 O    ALA E   8       5.531  29.629   7.799  1.00 66.21 LIG-0.27  OA
BRANCH 17 19
ATOM     19  CA  ALA E   8       4.232  31.395   6.818  1.00 67.03 LIG 0.40  C 
ATOM     20  N   ALA E   8       5.329  32.339   7.187  1.00 60.26 LIG 0.61  N 
ATOM     21  CB  ALA E   8       4.187  31.197   5.307  1.00 64.64 LIG 0.06  C 
ENDBRANCH 17 19
ENDBRANCH 13 15
ENDBRANCH 10 13
ENDBRANCH 7 9
ENDBRANCH 4 7
ENDBRANCH 1 3
BRANCH 1 22
ATOM     22  C   ALA E  11       6.053  22.503   3.709  1.00 81.78 LIG 0.24  C 
ATOM     23  N   ALA E  12       6.584  23.691   3.422  1.00 82.91 LIG-0.35  N 
ATOM     24 H    ALA E  12       6.487  24.399   3.901  1.00 82.91 LIG 0.16  HD
ATOM     25 O    ALA E  11       6.346  21.485   3.070  1.00 89.30 LIG-0.27  OA
BRANCH 23 26
ATOM     26  CA  ALA E  12       7.396  23.861   2.226  1.00 61.10 LIG 0.17  C 
ATOM     27  CB  ALA E  12       6.584  23.531   0.964  1.00 65.27 LIG 0.04  C 
BRANCH 26 28
ATOM     28  C   ALA E  12       7.944  25.277   2.150  1.00 54.59 LIG 0.24  C 
ATOM     29  N   ALA E  13       8.734  25.625   3.166  1.00 64.78 LIG-0.35  N 
ATOM     30 H    ALA E  13       8.978  25.085   3.789  1.00 64.78 LIG 0.16  HD
ATOM     31 O    ALA E  12       7.693  26.014   1.193  1.00 69.11 LIG-0.27  OA
BRANCH 29 32
ATOM     32  CA  ALA E  13       9.259  26.974   3.308  1.00 54.23 LIG 0.17  C 
ATOM     33  CB  ALA E  13       9.951  27.404   2.014  1.00 56.27 LIG 0.04  C 
BRANCH 32 34
ATOM     34  C   ALA E  13       8.175  27.987   3.629  1.00 65.29 LIG 0.24  C 
ATOM     35  N   ALA E  14       6.937  27.604   3.338  1.00 85.74 LIG-0.35  N 
ATOM     36 H    ALA E  14       6.749  26.855   2.961  1.00 85.74 LIG 0.16  HD
ATOM     37 O    ALA E  13       8.441  29.058   4.179  1.00 75.52 LIG-0.27  OA
BRANCH 35 38
ATOM     38  CA  ALA E  14       5.775  28.422   3.635  1.00 94.46 LIG 0.16  C 
ATOM     39  CB  ALA E  14       4.812  28.400   2.470  1.00106.12 LIG 0.04  C 
BRANCH 38 40
ATOM     40  C   ALA E  14       5.091  27.931   4.905  1.00 99.07 LIG 0.22  C 
ATOM     41 O    ALA E  14       5.277  26.786   5.319  1.00120.33 LIG-0.29  OA
ENDBRANCH 38 40
ENDBRANCH 35 38
ENDBRANCH 32 34
ENDBRANCH 29 32
ENDBRANCH 26 28
ENDBRANCH 23 26
ENDBRANCH 1 22
TORSDOF 13
ENDMDL
MODEL 38
USER: ADFR SOLUTION from run 35
USER: SCORE 9.197956 LL:  -3.359 LR:  -7.333 RR:   0.000 FEB:  -3.455
USER: RMSD 8.609174
USER: SEED 34
USER: STATUS no improvement in best in 6 clusters for 5 generations
USER: GENES 15
USER: genes 0 Translation |==|  0.88684 0.57490 0.55649
USER: genes 1 Rotation |==|  0.51607 0.89693 0.67027 0.75140
USER: genes 2 Torsion [CB]-CA--N-[C] |==|  0.84440
USER: genes 3 Torsion [N]-C--CA-[N] |==|  0.50349
USER: genes 4 Torsion [C]-CA--N-[C] |==|  0.81509
USER: genes 5 Torsion [N]-C--CA-[N] |==|  0.00907
USER: genes 6 Torsion [C]-CA--N-[C] |==|  0.70926
USER: genes 7 Torsion [N]-C--CA-[N] |==|  0.37247
USER: genes 8 Torsion [N]-CA--C-[N] |==|  0.98722
USER: genes 9 Torsion [C]-N--CA-[CB] |==|  0.19286
USER: genes 10 Torsion [N]-CA--C-[N] |==|  0.00948
USER: genes 11 Torsion [C]-N--CA-[CB] |==|  0.81736
USER: genes 12 Torsion [N]-CA--C-[N] |==|  0.45457
USER: genes 13 Torsion [C]-N--CA-[C] |==|  0.79097
USER: genes 14 Torsion [N]-CA--C-[O] |==|  0.94140
ROOT
ATOM      1  CA  ALA E  11       7.484  24.977   2.211  1.00 85.35 LIG 0.17  C 
ATOM      2  CB  ALA E  11       8.713  25.593   2.882  1.00 80.46 LIG 0.04  C 
ENDROOT
BRANCH 1 3
ATOM      3  N   ALA E  11       6.393  25.945   2.177  1.00 87.15 LIG-0.35  N 
ATOM      4  C   ALA E  10       5.957  26.511   3.306  1.00 62.15 LIG 0.24  C 
ATOM      5 O    ALA E  10       6.565  26.409   4.372  1.00 65.72 LIG-0.27  OA
ATOM      6 H    ALA E  11       6.074  26.107   1.395  1.00 87.15 LIG 0.16  HD
BRANCH 4 7
ATOM      7  CA  ALA E  10       4.658  27.307   3.238  1.00 66.45 LIG 0.17  C 
ATOM      8  CB  ALA E  10       4.763  28.405   2.181  1.00 58.63 LIG 0.04  C 
BRANCH 7 9
ATOM      9  N   ALA E  10       4.311  27.893   4.524  1.00 75.43 LIG-0.35  N 
ATOM     10  C   ALA E   9       3.974  27.165   5.586  1.00 82.21 LIG 0.24  C 
ATOM     11 O    ALA E   9       3.892  25.932   5.568  1.00 73.75 LIG-0.27  OA
ATOM     12 H    ALA E  10       4.344  28.753   4.534  1.00 75.43 LIG 0.16  HD
BRANCH 10 13
ATOM     13  CA  ALA E   9       3.654  27.941   6.856  1.00 87.65 LIG 0.17  C 
ATOM     14  CB  ALA E   9       2.277  27.564   7.398  1.00 72.21 LIG 0.04  C 
BRANCH 13 15
ATOM     15  N   ALA E   9       3.733  29.363   6.544  1.00 84.24 LIG-0.35  N 
ATOM     16 H    ALA E   9       3.063  29.662   6.095  1.00 84.24 LIG 0.16  HD
ATOM     17  C   ALA E   8       4.755  30.116   6.925  1.00 61.40 LIG 0.26  C 
ATOM     18 O    ALA E   8       5.658  29.696   7.645  1.00 66.21 LIG-0.27  OA
BRANCH 17 19
ATOM     19  CA  ALA E   8       4.742  31.565   6.447  1.00 67.03 LIG 0.40  C 
ATOM     20  N   ALA E   8       5.073  32.493   7.569  1.00 60.26 LIG 0.61  N 
ATOM     21  CB  ALA E   8       5.719  31.758   5.292  1.00 64.64 LIG 0.06  C 
ENDBRANCH 17 19
ENDBRANCH 13 15
ENDBRANCH 10 13
ENDBRANCH 7 9
ENDBRANCH 4 7
ENDBRANCH 1 3
BRANCH 1 22
ATOM     22  C   ALA E  11       7.074  23.699   2.932  1.00 81.78 LIG 0.24  C 
ATOM     23  N   ALA E  12       5.868  23.670   3.495  1.00 82.91 LIG-0.35  N 
ATOM     24 H    ALA E  12       5.263  24.273   3.389  1.00 82.91 LIG 0.16  HD
ATOM     25 O    ALA E  11       7.848  22.736   2.994  1.00 89.30 LIG-0.27  OA
BRANCH 23 26
ATOM     26  CA  ALA E  12       5.489  22.562   4.361  1.00 61.10 LIG 0.17  C 
ATOM     27  CB  ALA E  12       6.281  22.604   5.677  1.00 65.27 LIG 0.04  C 
BRANCH 26 28
ATOM     28  C   ALA E  12       3.995  22.589   4.639  1.00 54.59 LIG 0.24  C 
ATOM     29  N   ALA E  13       3.325  23.547   3.999  1.00 64.78 LIG-0.35  N 
ATOM     30 H    ALA E  13       3.681  24.075   3.421  1.00 64.78 LIG 0.16  HD
ATOM     31 O    ALA E  12       3.462  21.753   5.374  1.00 69.11 LIG-0.27  OA
BRANCH 29 32
ATOM     32  CA  ALA E  13       1.908  23.783   4.228  1.00 54.23 LIG 0.17  C 
ATOM     33  CB  ALA E  13       1.094  22.581   3.747  1.00 56.27 LIG 0.04  C 
BRANCH 32 34
ATOM     34  C   ALA E  13       1.591  24.019   5.694  1.00 65.29 LIG 0.24  C 
ATOM     35  N   ALA E  14       0.405  24.568   5.936  1.00 85.74 LIG-0.35  N 
ATOM     36 H    ALA E  14      -0.139  24.812   5.317  1.00 85.74 LIG 0.16  HD
ATOM     37 O    ALA E  13       2.366  23.662   6.584  1.00 75.52 LIG-0.27  OA
BRANCH 35 38
ATOM     38  CA  ALA E  14      -0.085  24.808   7.281  1.00 94.46 LIG 0.16  C 
ATOM     39  CB  ALA E  14      -1.222  25.803   7.250  1.00106.12 LIG 0.04  C 
BRANCH 38 40
ATOM     40  C   ALA E  14      -0.535  23.500   7.922  1.00 99.07 LIG 0.22  C 
ATOM     41 O    ALA E  14      -0.825  22.525   7.228  1.00120.33 LIG-0.29  OA
ENDBRANCH 38 40
ENDBRANCH 35 38
ENDBRANCH 32 34
ENDBRANCH 29 32
ENDBRANCH 26 28
ENDBRANCH 23 26
ENDBRANCH 1 22
TORSDOF 13
ENDMDL
MODEL 39
USER: ADFR SOLUTION from run 21
USER: SCORE 7.926780 LL:  -3.481 LR:  -7.329 RR:   0.000 FEB:  -3.451
USER: RMSD 10.220763
USER: SEED 20
USER: STATUS no improvement in best in 67 clusters for 5 generations
USER: GENES 15
USER: genes 0 Translation |==|  0.82048 0.73887 0.61286
USER: genes 1 Rotation |==|  0.42924 0.83535 0.86057 0.55025
USER: genes 2 Torsion [CB]-CA--N-[C] |==|  0.23395
USER: genes 3 Torsion [N]-C--CA-[N] |==|  0.20668
USER: genes 4 Torsion [C]-CA--N-[C] |==|  0.77236
USER: genes 5 Torsion [N]-C--CA-[N] |==|  0.85598
USER: genes 6 Torsion [C]-CA--N-[C] |==|  0.85158
USER: genes 7 Torsion [N]-C--CA-[N] |==|  0.56020
USER: genes 8 Torsion [N]-CA--C-[N] |==|  0.40556
USER: genes 9 Torsion [C]-N--CA-[CB] |==|  0.81062
USER: genes 10 Torsion [N]-CA--C-[N] |==|  0.09890
USER: genes 11 Torsion [C]-N--CA-[CB] |==|  0.80915
USER: genes 12 Torsion [N]-CA--C-[N] |==|  0.08505
USER: genes 13 Torsion [C]-N--CA-[C] |==|  0.18585
USER: genes 14 Torsion [N]-CA--C-[O] |==|  0.87113
ROOT
ATOM      1  CA  ALA E  11       5.991  27.929   3.226  1.00 85.35 LIG 0.17  C 
ATOM      2  CB  ALA E  11       6.575  29.069   4.062  1.00 80.46 LIG 0.04  C 
ENDROOT
BRANCH 1 3
ATOM      3  N   ALA E  11       4.783  27.411   3.858  1.00 87.15 LIG-0.35  N 
ATOM      4  C   ALA E  10       3.604  28.003   3.650  1.00 62.15 LIG 0.24  C 
ATOM      5 O    ALA E  10       3.441  28.859   2.780  1.00 65.72 LIG-0.27  OA
ATOM      6 H    ALA E  11       4.900  26.719   4.355  1.00 87.15 LIG 0.16  HD
BRANCH 4 7
ATOM      7  CA  ALA E  10       2.437  27.578   4.534  1.00 66.45 LIG 0.17  C 
ATOM      8  CB  ALA E  10       1.112  28.015   3.911  1.00 58.63 LIG 0.04  C 
BRANCH 7 9
ATOM      9  N   ALA E  10       2.549  28.118   5.881  1.00 75.43 LIG-0.35  N 
ATOM     10  C   ALA E   9       3.303  27.559   6.825  1.00 82.21 LIG 0.24  C 
ATOM     11 O    ALA E   9       3.947  26.518   6.656  1.00 73.75 LIG-0.27  OA
ATOM     12 H    ALA E  10       2.084  28.830   6.009  1.00 75.43 LIG 0.16  HD
BRANCH 10 13
ATOM     13  CA  ALA E   9       3.316  28.264   8.175  1.00 87.65 LIG 0.17  C 
ATOM     14  CB  ALA E   9       1.976  28.105   8.889  1.00 72.21 LIG 0.04  C 
BRANCH 13 15
ATOM     15  N   ALA E   9       3.634  29.668   7.944  1.00 84.24 LIG-0.35  N 
ATOM     16 H    ALA E   9       3.067  30.218   8.286  1.00 84.24 LIG 0.16  HD
ATOM     17  C   ALA E   8       4.706  30.049   7.263  1.00 61.40 LIG 0.26  C 
ATOM     18 O    ALA E   8       5.554  29.255   6.862  1.00 66.21 LIG-0.27  OA
BRANCH 17 19
ATOM     19  CA  ALA E   8       4.858  31.548   7.025  1.00 67.03 LIG 0.40  C 
ATOM     20  N   ALA E   8       5.753  31.808   5.858  1.00 60.26 LIG 0.61  N 
ATOM     21  CB  ALA E   8       3.496  32.198   6.805  1.00 64.64 LIG 0.06  C 
ENDBRANCH 17 19
ENDBRANCH 13 15
ENDBRANCH 10 13
ENDBRANCH 7 9
ENDBRANCH 4 7
ENDBRANCH 1 3
BRANCH 1 22
ATOM     22  C   ALA E  11       7.031  26.833   3.027  1.00 81.78 LIG 0.24  C 
ATOM     23  N   ALA E  12       7.805  26.909   1.945  1.00 82.91 LIG-0.35  N 
ATOM     24 H    ALA E  12       7.837  27.583   1.412  1.00 82.91 LIG 0.16  HD
ATOM     25 O    ALA E  11       7.134  25.907   3.841  1.00 89.30 LIG-0.27  OA
BRANCH 23 26
ATOM     26  CA  ALA E  12       8.680  25.800   1.592  1.00 61.10 LIG 0.17  C 
ATOM     27  CB  ALA E  12       9.811  25.649   2.621  1.00 65.27 LIG 0.04  C 
BRANCH 26 28
ATOM     28  C   ALA E  12       7.887  24.508   1.481  1.00 54.59 LIG 0.24  C 
ATOM     29  N   ALA E  13       6.657  24.649   0.985  1.00 64.78 LIG-0.35  N 
ATOM     30 H    ALA E  13       6.345  25.392   0.686  1.00 64.78 LIG 0.16  HD
ATOM     31 O    ALA E  12       8.379  23.421   1.796  1.00 69.11 LIG-0.27  OA
BRANCH 29 32
ATOM     32  CA  ALA E  13       5.725  23.536   0.907  1.00 54.23 LIG 0.17  C 
ATOM     33  CB  ALA E  13       6.207  22.522  -0.132  1.00 56.27 LIG 0.04  C 
BRANCH 32 34
ATOM     34  C   ALA E  13       5.567  22.819   2.236  1.00 65.29 LIG 0.24  C 
ATOM     35  N   ALA E  14       5.720  23.581   3.313  1.00 85.74 LIG-0.35  N 
ATOM     36 H    ALA E  14       5.931  24.413   3.278  1.00 85.74 LIG 0.16  HD
ATOM     37 O    ALA E  13       5.256  21.626   2.288  1.00 75.52 LIG-0.27  OA
BRANCH 35 38
ATOM     38  CA  ALA E  14       5.543  23.072   4.661  1.00 94.46 LIG 0.16  C 
ATOM     39  CB  ALA E  14       4.174  22.447   4.806  1.00106.12 LIG 0.04  C 
BRANCH 38 40
ATOM     40  C   ALA E  14       6.632  22.059   4.992  1.00 99.07 LIG 0.22  C 
ATOM     41 O    ALA E  14       6.929  21.169   4.195  1.00120.33 LIG-0.29  OA
ENDBRANCH 38 40
ENDBRANCH 35 38
ENDBRANCH 32 34
ENDBRANCH 29 32
ENDBRANCH 26 28
ENDBRANCH 23 26
ENDBRANCH 1 22
TORSDOF 13
ENDMDL
MODEL 40
USER: ADFR SOLUTION from run 175
USER: SCORE 10.243216 LL:  -4.135 LR:  -7.316 RR:   0.000 FEB:  -3.438
USER: RMSD 8.961857
USER: SEED 174
USER: STATUS no improvement in best in 8 clusters for 5 generations
USER: GENES 15
USER: genes 0 Translation |==|  0.87535 0.54388 0.52418
USER: genes 1 Rotation |==|  0.65368 0.79166 0.75715 0.77421
USER: genes 2 Torsion [CB]-CA--N-[C] |==|  0.81863
USER: genes 3 Torsion [N]-C--CA-[N] |==|  0.46604
USER: genes 4 Torsion [C]-CA--N-[C] |==|  0.54896
USER: genes 5 Torsion [N]-C--CA-[N] |==|  0.36864
USER: genes 6 Torsion [C]-CA--N-[C] |==|  0.80000
USER: genes 7 Torsion [N]-C--CA-[N] |==|  0.43810
USER: genes 8 Torsion [N]-CA--C-[N] |==|  0.18477
USER: genes 9 Torsion [C]-N--CA-[CB] |==|  0.78678
USER: genes 10 Torsion [N]-CA--C-[N] |==|  0.16812
USER: genes 11 Torsion [C]-N--CA-[CB] |==|  0.82546
USER: genes 12 Torsion [N]-CA--C-[N] |==|  0.33783
USER: genes 13 Torsion [C]-N--CA-[C] |==|  0.48346
USER: genes 14 Torsion [N]-CA--C-[O] |==|  0.93750
ROOT
ATOM      1  CA  ALA E  11       7.225  24.419   1.629  1.00 85.35 LIG 0.17  C 
ATOM      2  CB  ALA E  11       8.403  24.045   2.531  1.00 80.46 LIG 0.04  C 
ENDROOT
BRANCH 1 3
ATOM      3  N   ALA E  11       6.437  25.480   2.247  1.00 87.15 LIG-0.35  N 
ATOM      4  C   ALA E  10       5.778  25.255   3.387  1.00 62.15 LIG 0.24  C 
ATOM      5 O    ALA E  10       5.960  24.243   4.065  1.00 65.72 LIG-0.27  OA
ATOM      6 H    ALA E  11       6.440  26.229   1.824  1.00 87.15 LIG 0.16  HD
BRANCH 4 7
ATOM      7  CA  ALA E  10       4.775  26.311   3.839  1.00 66.45 LIG 0.17  C 
ATOM      8  CB  ALA E  10       5.502  27.581   4.278  1.00 58.63 LIG 0.04  C 
BRANCH 7 9
ATOM      9  N   ALA E  10       3.928  25.829   4.920  1.00 75.43 LIG-0.35  N 
ATOM     10  C   ALA E   9       2.778  26.409   5.254  1.00 82.21 LIG 0.24  C 
ATOM     11 O    ALA E   9       2.342  27.425   4.702  1.00 73.75 LIG-0.27  OA
ATOM     12 H    ALA E  10       4.240  25.135   5.322  1.00 75.43 LIG 0.16  HD
BRANCH 10 13
ATOM     13  CA  ALA E   9       2.012  25.765   6.402  1.00 87.65 LIG 0.17  C 
ATOM     14  CB  ALA E   9       0.807  24.981   5.885  1.00 72.21 LIG 0.04  C 
BRANCH 13 15
ATOM     15  N   ALA E   9       1.606  26.822   7.319  1.00 84.24 LIG-0.35  N 
ATOM     16 H    ALA E   9       0.764  26.997   7.305  1.00 84.24 LIG 0.16  HD
ATOM     17  C   ALA E   8       2.472  27.451   8.102  1.00 61.40 LIG 0.26  C 
ATOM     18 O    ALA E   8       3.655  27.127   8.180  1.00 66.21 LIG-0.27  OA
BRANCH 17 19
ATOM     19  CA  ALA E   8       1.915  28.597   8.942  1.00 67.03 LIG 0.40  C 
ATOM     20  N   ALA E   8       2.790  28.857  10.124  1.00 60.26 LIG 0.61  N 
ATOM     21  CB  ALA E   8       1.770  29.860   8.100  1.00 64.64 LIG 0.06  C 
ENDBRANCH 17 19
ENDBRANCH 13 15
ENDBRANCH 10 13
ENDBRANCH 7 9
ENDBRANCH 4 7
ENDBRANCH 1 3
BRANCH 1 22
ATOM     22  C   ALA E  11       6.374  23.190   1.336  1.00 81.78 LIG 0.24  C 
ATOM     23  N   ALA E  12       5.419  23.308   0.415  1.00 82.91 LIG-0.35  N 
ATOM     24 H    ALA E  12       5.319  23.989  -0.102  1.00 82.91 LIG 0.16  HD
ATOM     25 O    ALA E  11       6.566  22.131   1.946  1.00 89.30 LIG-0.27  OA
BRANCH 23 26
ATOM     26  CA  ALA E  12       4.448  22.240   0.225  1.00 61.10 LIG 0.17  C 
ATOM     27  CB  ALA E  12       5.068  21.072  -0.556  1.00 65.27 LIG 0.04  C 
BRANCH 26 28
ATOM     28  C   ALA E  12       3.913  21.761   1.565  1.00 54.59 LIG 0.24  C 
ATOM     29  N   ALA E  13       3.289  22.694   2.284  1.00 64.78 LIG-0.35  N 
ATOM     30 H    ALA E  13       3.135  23.491   2.001  1.00 64.78 LIG 0.16  HD
ATOM     31 O    ALA E  12       4.027  20.584   1.919  1.00 69.11 LIG-0.27  OA
BRANCH 29 32
ATOM     32  CA  ALA E  13       2.809  22.436   3.632  1.00 54.23 LIG 0.17  C 
ATOM     33  CB  ALA E  13       1.740  21.343   3.605  1.00 56.27 LIG 0.04  C 
BRANCH 32 34
ATOM     34  C   ALA E  13       3.920  21.995   4.568  1.00 65.29 LIG 0.24  C 
ATOM     35  N   ALA E  14       4.097  22.760   5.638  1.00 85.74 LIG-0.35  N 
ATOM     36 H    ALA E  14       3.649  23.479   5.787  1.00 85.74 LIG 0.16  HD
ATOM     37 O    ALA E  13       4.559  20.960   4.362  1.00 75.52 LIG-0.27  OA
BRANCH 35 38
ATOM     38  CA  ALA E  14       5.073  22.452   6.668  1.00 94.46 LIG 0.16  C 
ATOM     39  CB  ALA E  14       6.429  22.213   6.043  1.00106.12 LIG 0.04  C 
BRANCH 38 40
ATOM     40  C   ALA E  14       5.145  23.584   7.686  1.00 99.07 LIG 0.22  C 
ATOM     41 O    ALA E  14       4.780  24.722   7.391  1.00120.33 LIG-0.29  OA
ENDBRANCH 38 40
ENDBRANCH 35 38
ENDBRANCH 32 34
ENDBRANCH 29 32
ENDBRANCH 26 28
ENDBRANCH 23 26
ENDBRANCH 1 22
TORSDOF 13
ENDMDL
MODEL 41
USER: ADFR SOLUTION from run 49
USER: SCORE 8.791486 LL:  -3.075 LR:  -7.308 RR:   0.000 FEB:  -3.430
USER: RMSD 9.562550
USER: SEED 48
USER: STATUS no improvement in best in 37 clusters for 5 generations
USER: GENES 15
USER: genes 0 Translation |==|  0.76478 0.44055 0.71854
USER: genes 1 Rotation |==|  0.63211 0.80619 0.34095 0.83689
USER: genes 2 Torsion [CB]-CA--N-[C] |==|  0.18773
USER: genes 3 Torsion [N]-C--CA-[N] |==|  0.04261
USER: genes 4 Torsion [C]-CA--N-[C] |==|  0.77846
USER: genes 5 Torsion [N]-C--CA-[N] |==|  0.14918
USER: genes 6 Torsion [C]-CA--N-[C] |==|  0.63639
USER: genes 7 Torsion [N]-C--CA-[N] |==|  0.48204
USER: genes 8 Torsion [N]-CA--C-[N] |==|  0.09611
USER: genes 9 Torsion [C]-N--CA-[CB] |==|  0.85532
USER: genes 10 Torsion [N]-CA--C-[N] |==|  0.47737
USER: genes 11 Torsion [C]-N--CA-[CB] |==|  0.84257
USER: genes 12 Torsion [N]-CA--C-[N] |==|  0.46667
USER: genes 13 Torsion [C]-N--CA-[C] |==|  0.74728
USER: genes 14 Torsion [N]-CA--C-[O] |==|  0.04532
ROOT
ATOM      1  CA  ALA E  11       4.738  22.559   5.128  1.00 85.35 LIG 0.17  C 
ATOM      2  CB  ALA E  11       5.823  22.126   6.115  1.00 80.46 LIG 0.04  C 
ENDROOT
BRANCH 1 3
ATOM      3  N   ALA E  11       5.306  23.438   4.112  1.00 87.15 LIG-0.35  N 
ATOM      4  C   ALA E  10       6.181  22.964   3.221  1.00 62.15 LIG 0.24  C 
ATOM      5 O    ALA E  10       6.391  21.758   3.081  1.00 65.72 LIG-0.27  OA
ATOM      6 H    ALA E  11       5.034  24.253   4.142  1.00 87.15 LIG 0.16  HD
BRANCH 4 7
ATOM      7  CA  ALA E  10       6.928  23.976   2.360  1.00 66.45 LIG 0.17  C 
ATOM      8  CB  ALA E  10       8.399  23.583   2.233  1.00 58.63 LIG 0.04  C 
BRANCH 7 9
ATOM      9  N   ALA E  10       6.823  25.326   2.893  1.00 75.43 LIG-0.35  N 
ATOM     10  C   ALA E   9       5.752  26.096   2.715  1.00 82.21 LIG 0.24  C 
ATOM     11 O    ALA E   9       4.766  25.749   2.055  1.00 73.75 LIG-0.27  OA
ATOM     12 H    ALA E  10       7.518  25.580   3.333  1.00 75.43 LIG 0.16  HD
BRANCH 10 13
ATOM     13  CA  ALA E   9       5.806  27.477   3.354  1.00 87.65 LIG 0.17  C 
ATOM     14  CB  ALA E   9       4.565  28.294   2.999  1.00 72.21 LIG 0.04  C 
BRANCH 13 15
ATOM     15  N   ALA E   9       7.025  28.134   2.899  1.00 84.24 LIG-0.35  N 
ATOM     16 H    ALA E   9       7.144  28.103   2.047  1.00 84.24 LIG 0.16  HD
ATOM     17  C   ALA E   8       7.867  28.724   3.736  1.00 61.40 LIG 0.26  C 
ATOM     18 O    ALA E   8       7.635  28.841   4.938  1.00 66.21 LIG-0.27  OA
BRANCH 17 19
ATOM     19  CA  ALA E   8       9.145  29.289   3.124  1.00 67.03 LIG 0.40  C 
ATOM     20  N   ALA E   8       9.922  30.056   4.142  1.00 60.26 LIG 0.61  N 
ATOM     21  CB  ALA E   8       9.998  28.171   2.535  1.00 64.64 LIG 0.06  C 
ENDBRANCH 17 19
ENDBRANCH 13 15
ENDBRANCH 10 13
ENDBRANCH 7 9
ENDBRANCH 4 7
ENDBRANCH 1 3
BRANCH 1 22
ATOM     22  C   ALA E  11       3.588  23.231   5.868  1.00 81.78 LIG 0.24  C 
ATOM     23  N   ALA E  12       2.810  24.059   5.174  1.00 82.91 LIG-0.35  N 
ATOM     24 H    ALA E  12       2.839  24.157   4.319  1.00 82.91 LIG 0.16  HD
ATOM     25 O    ALA E  11       3.404  23.017   7.073  1.00 89.30 LIG-0.27  OA
BRANCH 23 26
ATOM     26  CA  ALA E  12       1.820  24.881   5.857  1.00 61.10 LIG 0.17  C 
ATOM     27  CB  ALA E  12       0.930  24.020   6.765  1.00 65.27 LIG 0.04  C 
BRANCH 26 28
ATOM     28  C   ALA E  12       2.501  25.975   6.663  1.00 54.59 LIG 0.24  C 
ATOM     29  N   ALA E  13       1.675  26.881   7.186  1.00 64.78 LIG-0.35  N 
ATOM     30 H    ALA E  13       0.817  26.831   7.136  1.00 64.78 LIG 0.16  HD
ATOM     31 O    ALA E  12       3.723  25.980   6.838  1.00 69.11 LIG-0.27  OA
BRANCH 29 32
ATOM     32  CA  ALA E  13       2.163  28.052   7.897  1.00 54.23 LIG 0.17  C 
ATOM     33  CB  ALA E  13       3.058  27.621   9.060  1.00 56.27 LIG 0.04  C 
BRANCH 32 34
ATOM     34  C   ALA E  13       2.959  28.983   7.001  1.00 65.29 LIG 0.24  C 
ATOM     35  N   ALA E  14       3.219  30.180   7.516  1.00 85.74 LIG-0.35  N 
ATOM     36 H    ALA E  14       2.933  30.438   8.284  1.00 85.74 LIG 0.16  HD
ATOM     37 O    ALA E  13       3.378  28.613   5.902  1.00 75.52 LIG-0.27  OA
BRANCH 35 38
ATOM     38  CA  ALA E  14       4.020  31.172   6.821  1.00 94.46 LIG 0.16  C 
ATOM     39  CB  ALA E  14       3.521  32.562   7.146  1.00106.12 LIG 0.04  C 
BRANCH 38 40
ATOM     40  C   ALA E  14       5.489  31.029   7.202  1.00 99.07 LIG 0.22  C 
ATOM     41 O    ALA E  14       5.902  30.004   7.746  1.00120.33 LIG-0.29  OA
ENDBRANCH 38 40
ENDBRANCH 35 38
ENDBRANCH 32 34
ENDBRANCH 29 32
ENDBRANCH 26 28
ENDBRANCH 23 26
ENDBRANCH 1 22
TORSDOF 13
ENDMDL
MODEL 42
USER: ADFR SOLUTION from run 33
USER: SCORE 9.057391 LL:  -3.502 LR:  -7.233 RR:   0.000 FEB:  -3.356
USER: RMSD 9.543904
USER: SEED 32
USER: STATUS no improvement in best in 37 clusters for 5 generations
USER: GENES 15
USER: genes 0 Translation |==|  0.78358 0.43421 0.75064
USER: genes 1 Rotation |==|  0.55257 0.78660 0.31209 0.86026
USER: genes 2 Torsion [CB]-CA--N-[C] |==|  0.17693
USER: genes 3 Torsion [N]-C--CA-[N] |==|  0.85230
USER: genes 4 Torsion [C]-CA--N-[C] |==|  0.86396
USER: genes 5 Torsion [N]-C--CA-[N] |==|  0.88951
USER: genes 6 Torsion [C]-CA--N-[C] |==|  0.82465
USER: genes 7 Torsion [N]-C--CA-[N] |==|  0.39505
USER: genes 8 Torsion [N]-CA--C-[N] |==|  0.05633
USER: genes 9 Torsion [C]-N--CA-[CB] |==|  0.85000
USER: genes 10 Torsion [N]-CA--C-[N] |==|  0.52051
USER: genes 11 Torsion [C]-N--CA-[CB] |==|  0.82454
USER: genes 12 Torsion [N]-CA--C-[N] |==|  0.49314
USER: genes 13 Torsion [C]-N--CA-[C] |==|  0.75588
USER: genes 14 Torsion [N]-CA--C-[O] |==|  0.99659
ROOT
ATOM      1  CA  ALA E  11       5.161  22.445   5.705  1.00 85.35 LIG 0.17  C 
ATOM      2  CB  ALA E  11       6.292  22.497   6.734  1.00 80.46 LIG 0.04  C 
ENDROOT
BRANCH 1 3
ATOM      3  N   ALA E  11       5.612  23.000   4.434  1.00 87.15 LIG-0.35  N 
ATOM      4  C   ALA E  10       6.595  22.409   3.750  1.00 62.15 LIG 0.24  C 
ATOM      5 O    ALA E  10       7.017  21.289   4.038  1.00 65.72 LIG-0.27  OA
ATOM      6 H    ALA E  11       5.201  23.712   4.182  1.00 87.15 LIG 0.16  HD
BRANCH 4 7
ATOM      7  CA  ALA E  10       7.191  23.173   2.573  1.00 66.45 LIG 0.17  C 
ATOM      8  CB  ALA E  10       7.989  24.378   3.071  1.00 58.63 LIG 0.04  C 
BRANCH 7 9
ATOM      9  N   ALA E  10       6.169  23.613   1.635  1.00 75.43 LIG-0.35  N 
ATOM     10  C   ALA E   9       5.224  22.804   1.160  1.00 82.21 LIG 0.24  C 
ATOM     11 O    ALA E   9       5.149  21.603   1.445  1.00 73.75 LIG-0.27  OA
ATOM     12 H    ALA E  10       6.232  24.442   1.417  1.00 75.43 LIG 0.16  HD
BRANCH 10 13
ATOM     13  CA  ALA E   9       4.226  23.434   0.198  1.00 87.65 LIG 0.17  C 
ATOM     14  CB  ALA E   9       4.788  23.483  -1.221  1.00 72.21 LIG 0.04  C 
BRANCH 13 15
ATOM     15  N   ALA E   9       3.907  24.767   0.692  1.00 84.24 LIG-0.35  N 
ATOM     16 H    ALA E   9       4.140  25.404   0.162  1.00 84.24 LIG 0.16  HD
ATOM     17  C   ALA E   8       3.311  24.967   1.860  1.00 61.40 LIG 0.26  C 
ATOM     18 O    ALA E   8       2.901  24.045   2.562  1.00 66.21 LIG-0.27  OA
BRANCH 17 19
ATOM     19  CA  ALA E   8       3.125  26.420   2.284  1.00 67.03 LIG 0.40  C 
ATOM     20  N   ALA E   8       1.812  26.604   2.972  1.00 60.26 LIG 0.61  N 
ATOM     21  CB  ALA E   8       4.267  26.866   3.191  1.00 64.64 LIG 0.06  C 
ENDBRANCH 17 19
ENDBRANCH 13 15
ENDBRANCH 10 13
ENDBRANCH 7 9
ENDBRANCH 4 7
ENDBRANCH 1 3
BRANCH 1 22
ATOM     22  C   ALA E  11       3.935  23.181   6.233  1.00 81.78 LIG 0.24  C 
ATOM     23  N   ALA E  12       3.214  23.881   5.358  1.00 82.91 LIG-0.35  N 
ATOM     24 H    ALA E  12       3.324  23.859   4.505  1.00 82.91 LIG 0.16  HD
ATOM     25 O    ALA E  11       3.639  23.132   7.433  1.00 89.30 LIG-0.27  OA
BRANCH 23 26
ATOM     26  CA  ALA E  12       2.151  24.761   5.822  1.00 61.10 LIG 0.17  C 
ATOM     27  CB  ALA E  12       1.164  23.998   6.718  1.00 65.27 LIG 0.04  C 
BRANCH 26 28
ATOM     28  C   ALA E  12       2.732  25.953   6.566  1.00 54.59 LIG 0.24  C 
ATOM     29  N   ALA E  13       1.831  26.733   7.161  1.00 64.78 LIG-0.35  N 
ATOM     30 H    ALA E  13       0.989  26.557   7.188  1.00 64.78 LIG 0.16  HD
ATOM     31 O    ALA E  12       3.950  26.138   6.632  1.00 69.11 LIG-0.27  OA
BRANCH 29 32
ATOM     32  CA  ALA E  13       2.202  27.971   7.828  1.00 54.23 LIG 0.17  C 
ATOM     33  CB  ALA E  13       3.126  27.671   9.009  1.00 56.27 LIG 0.04  C 
BRANCH 32 34
ATOM     34  C   ALA E  13       2.914  28.938   6.899  1.00 65.29 LIG 0.24  C 
ATOM     35  N   ALA E  14       3.234  30.110   7.437  1.00 85.74 LIG-0.35  N 
ATOM     36 H    ALA E  14       3.027  30.335   8.240  1.00 85.74 LIG 0.16  HD
ATOM     37 O    ALA E  13       3.219  28.615   5.748  1.00 75.52 LIG-0.27  OA
BRANCH 35 38
ATOM     38  CA  ALA E  14       3.970  31.129   6.710  1.00 94.46 LIG 0.16  C 
ATOM     39  CB  ALA E  14       3.572  32.504   7.196  1.00106.12 LIG 0.04  C 
BRANCH 38 40
ATOM     40  C   ALA E  14       5.470  30.917   6.874  1.00 99.07 LIG 0.22  C 
ATOM     41 O    ALA E  14       5.905  29.996   7.567  1.00120.33 LIG-0.29  OA
ENDBRANCH 38 40
ENDBRANCH 35 38
ENDBRANCH 32 34
ENDBRANCH 29 32
ENDBRANCH 26 28
ENDBRANCH 23 26
ENDBRANCH 1 22
TORSDOF 13
ENDMDL
MODEL 43
USER: ADFR SOLUTION from run 23
USER: SCORE 8.328273 LL:  -2.626 LR:  -7.221 RR:   0.000 FEB:  -3.343
USER: RMSD 9.829759
USER: SEED 22
USER: STATUS no improvement in best in 37 clusters for 5 generations
USER: GENES 15
USER: genes 0 Translation |==|  0.81674 0.41567 0.82107
USER: genes 1 Rotation |==|  0.48531 0.70341 0.19820 0.84253
USER: genes 2 Torsion [CB]-CA--N-[C] |==|  0.73769
USER: genes 3 Torsion [N]-C--CA-[N] |==|  0.30916
USER: genes 4 Torsion [C]-CA--N-[C] |==|  0.83291
USER: genes 5 Torsion [N]-C--CA-[N] |==|  0.08333
USER: genes 6 Torsion [C]-CA--N-[C] |==|  0.18866
USER: genes 7 Torsion [N]-C--CA-[N] |==|  0.23324
USER: genes 8 Torsion [N]-CA--C-[N] |==|  0.14105
USER: genes 9 Torsion [C]-N--CA-[CB] |==|  0.78805
USER: genes 10 Torsion [N]-CA--C-[N] |==|  0.23451
USER: genes 11 Torsion [C]-N--CA-[CB] |==|  0.54519
USER: genes 12 Torsion [N]-CA--C-[N] |==|  0.41275
USER: genes 13 Torsion [C]-N--CA-[C] |==|  0.18374
USER: genes 14 Torsion [N]-CA--C-[O] |==|  0.16999
ROOT
ATOM      1  CA  ALA E  11       5.907  22.111   6.973  1.00 85.35 LIG 0.17  C 
ATOM      2  CB  ALA E  11       7.038  22.481   7.934  1.00 80.46 LIG 0.04  C 
ENDROOT
BRANCH 1 3
ATOM      3  N   ALA E  11       6.452  21.766   5.665  1.00 87.15 LIG-0.35  N 
ATOM      4  C   ALA E  10       6.539  22.689   4.704  1.00 62.15 LIG 0.24  C 
ATOM      5 O    ALA E  10       6.364  23.888   4.925  1.00 65.72 LIG-0.27  OA
ATOM      6 H    ALA E  11       6.701  20.947   5.579  1.00 87.15 LIG 0.16  HD
BRANCH 4 7
ATOM      7  CA  ALA E  10       6.870  22.210   3.295  1.00 66.45 LIG 0.17  C 
ATOM      8  CB  ALA E  10       8.081  22.966   2.749  1.00 58.63 LIG 0.04  C 
BRANCH 7 9
ATOM      9  N   ALA E  10       5.743  22.364   2.388  1.00 75.43 LIG-0.35  N 
ATOM     10  C   ALA E   9       4.570  21.764   2.580  1.00 82.21 LIG 0.24  C 
ATOM     11 O    ALA E   9       4.343  20.998   3.523  1.00 73.75 LIG-0.27  OA
ATOM     12 H    ALA E  10       5.905  22.878   1.718  1.00 75.43 LIG 0.16  HD
BRANCH 10 13
ATOM     13  CA  ALA E   9       3.495  22.047   1.539  1.00 87.65 LIG 0.17  C 
ATOM     14  CB  ALA E   9       2.513  20.883   1.436  1.00 72.21 LIG 0.04  C 
BRANCH 13 15
ATOM     15  N   ALA E   9       4.159  22.299   0.267  1.00 84.24 LIG-0.35  N 
ATOM     16 H    ALA E   9       4.090  23.110  -0.011  1.00 84.24 LIG 0.16  HD
ATOM     17  C   ALA E   8       4.808  21.350  -0.394  1.00 61.40 LIG 0.26  C 
ATOM     18 O    ALA E   8       4.977  20.221   0.061  1.00 66.21 LIG-0.27  OA
BRANCH 17 19
ATOM     19  CA  ALA E   8       5.375  21.741  -1.756  1.00 67.03 LIG 0.40  C 
ATOM     20  N   ALA E   8       6.705  22.403  -1.603  1.00 60.26 LIG 0.61  N 
ATOM     21  CB  ALA E   8       5.490  20.519  -2.660  1.00 64.64 LIG 0.06  C 
ENDBRANCH 17 19
ENDBRANCH 13 15
ENDBRANCH 10 13
ENDBRANCH 7 9
ENDBRANCH 4 7
ENDBRANCH 1 3
BRANCH 1 22
ATOM     22  C   ALA E  11       4.902  23.253   6.876  1.00 81.78 LIG 0.24  C 
ATOM     23  N   ALA E  12       3.927  23.139   5.976  1.00 82.91 LIG-0.35  N 
ATOM     24 H    ALA E  12       3.758  22.426   5.525  1.00 82.91 LIG 0.16  HD
ATOM     25 O    ALA E  11       5.008  24.248   7.603  1.00 89.30 LIG-0.27  OA
BRANCH 23 26
ATOM     26  CA  ALA E  12       3.054  24.271   5.694  1.00 61.10 LIG 0.17  C 
ATOM     27  CB  ALA E  12       2.023  24.455   6.817  1.00 65.27 LIG 0.04  C 
BRANCH 26 28
ATOM     28  C   ALA E  12       3.870  25.540   5.508  1.00 54.59 LIG 0.24  C 
ATOM     29  N   ALA E  13       4.353  25.717   4.278  1.00 64.78 LIG-0.35  N 
ATOM     30 H    ALA E  13       4.174  25.200   3.615  1.00 64.78 LIG 0.16  HD
ATOM     31 O    ALA E  12       4.024  26.346   6.429  1.00 69.11 LIG-0.27  OA
BRANCH 29 32
ATOM     32  CA  ALA E  13       5.240  26.822   3.950  1.00 54.23 LIG 0.17  C 
ATOM     33  CB  ALA E  13       5.303  27.008   2.434  1.00 56.27 LIG 0.04  C 
BRANCH 32 34
ATOM     34  C   ALA E  13       4.789  28.131   4.573  1.00 65.29 LIG 0.24  C 
ATOM     35  N   ALA E  14       5.765  28.974   4.891  1.00 85.74 LIG-0.35  N 
ATOM     36 H    ALA E  14       6.599  28.792   4.792  1.00 85.74 LIG 0.16  HD
ATOM     37 O    ALA E  13       3.592  28.399   4.708  1.00 75.52 LIG-0.27  OA
BRANCH 35 38
ATOM     38  CA  ALA E  14       5.511  30.294   5.439  1.00 94.46 LIG 0.16  C 
ATOM     39  CB  ALA E  14       4.611  31.078   4.512  1.00106.12 LIG 0.04  C 
BRANCH 38 40
ATOM     40  C   ALA E  14       4.884  30.180   6.824  1.00 99.07 LIG 0.22  C 
ATOM     41 O    ALA E  14       5.486  29.629   7.745  1.00120.33 LIG-0.29  OA
ENDBRANCH 38 40
ENDBRANCH 35 38
ENDBRANCH 32 34
ENDBRANCH 29 32
ENDBRANCH 26 28
ENDBRANCH 23 26
ENDBRANCH 1 22
TORSDOF 13
ENDMDL
MODEL 44
USER: ADFR SOLUTION from run 101
USER: SCORE 8.631915 LL:  -3.462 LR:  -7.209 RR:   0.000 FEB:  -3.331
USER: RMSD 8.515917
USER: SEED 100
USER: STATUS no improvement in best in 30 clusters for 5 generations
USER: GENES 15
USER: genes 0 Translation |==|  0.81518 0.47916 0.83184
USER: genes 1 Rotation |==|  0.57426 0.47256 0.84049 0.85749
USER: genes 2 Torsion [CB]-CA--N-[C] |==|  0.81585
USER: genes 3 Torsion [N]-C--CA-[N] |==|  0.09923
USER: genes 4 Torsion [C]-CA--N-[C] |==|  0.16093
USER: genes 5 Torsion [N]-C--CA-[N] |==|  0.01863
USER: genes 6 Torsion [C]-CA--N-[C] |==|  0.69913
USER: genes 7 Torsion [N]-C--CA-[N] |==|  0.29024
USER: genes 8 Torsion [N]-CA--C-[N] |==|  0.15039
USER: genes 9 Torsion [C]-N--CA-[CB] |==|  0.80330
USER: genes 10 Torsion [N]-CA--C-[N] |==|  0.09107
USER: genes 11 Torsion [C]-N--CA-[CB] |==|  0.77881
USER: genes 12 Torsion [N]-CA--C-[N] |==|  0.54993
USER: genes 13 Torsion [C]-N--CA-[C] |==|  0.12542
USER: genes 14 Torsion [N]-CA--C-[O] |==|  0.58853
ROOT
ATOM      1  CA  ALA E  11       5.871  23.254   7.167  1.00 85.35 LIG 0.17  C 
ATOM      2  CB  ALA E  11       5.461  22.093   8.075  1.00 80.46 LIG 0.04  C 
ENDROOT
BRANCH 1 3
ATOM      3  N   ALA E  11       4.856  24.300   7.201  1.00 87.15 LIG-0.35  N 
ATOM      4  C   ALA E  10       3.637  24.075   6.704  1.00 62.15 LIG 0.24  C 
ATOM      5 O    ALA E  10       3.251  22.948   6.390  1.00 65.72 LIG-0.27  OA
ATOM      6 H    ALA E  11       5.109  25.042   7.557  1.00 87.15 LIG 0.16  HD
BRANCH 4 7
ATOM      7  CA  ALA E  10       2.713  25.276   6.534  1.00 66.45 LIG 0.17  C 
ATOM      8  CB  ALA E  10       1.628  24.970   5.503  1.00 58.63 LIG 0.04  C 
BRANCH 7 9
ATOM      9  N   ALA E  10       3.442  26.473   6.141  1.00 75.43 LIG-0.35  N 
ATOM     10  C   ALA E   9       4.188  26.538   5.041  1.00 82.21 LIG 0.24  C 
ATOM     11 O    ALA E   9       4.357  25.583   4.274  1.00 73.75 LIG-0.27  OA
ATOM     12 H    ALA E  10       3.346  27.132   6.685  1.00 75.43 LIG 0.16  HD
BRANCH 10 13
ATOM     13  CA  ALA E   9       4.871  27.873   4.774  1.00 87.65 LIG 0.17  C 
ATOM     14  CB  ALA E   9       6.362  27.682   4.505  1.00 72.21 LIG 0.04  C 
BRANCH 13 15
ATOM     15  N   ALA E   9       4.644  28.731   5.929  1.00 84.24 LIG-0.35  N 
ATOM     16 H    ALA E   9       5.085  28.501   6.631  1.00 84.24 LIG 0.16  HD
ATOM     17  C   ALA E   8       3.824  29.773   5.887  1.00 61.40 LIG 0.26  C 
ATOM     18 O    ALA E   8       3.274  30.144   4.853  1.00 66.21 LIG-0.27  OA
BRANCH 17 19
ATOM     19  CA  ALA E   8       3.617  30.523   7.199  1.00 67.03 LIG 0.40  C 
ATOM     20  N   ALA E   8       4.372  31.813   7.194  1.00 60.26 LIG 0.61  N 
ATOM     21  CB  ALA E   8       2.134  30.777   7.446  1.00 64.64 LIG 0.06  C 
ENDBRANCH 17 19
ENDBRANCH 13 15
ENDBRANCH 10 13
ENDBRANCH 7 9
ENDBRANCH 4 7
ENDBRANCH 1 3
BRANCH 1 22
ATOM     22  C   ALA E  11       6.111  22.754   5.748  1.00 81.78 LIG 0.24  C 
ATOM     23  N   ALA E  12       6.413  23.660   4.820  1.00 82.91 LIG-0.35  N 
ATOM     24 H    ALA E  12       6.590  24.487   4.981  1.00 82.91 LIG 0.16  HD
ATOM     25 O    ALA E  11       6.014  21.551   5.479  1.00 89.30 LIG-0.27  OA
BRANCH 23 26
ATOM     26  CA  ALA E  12       6.462  23.282   3.414  1.00 61.10 LIG 0.17  C 
ATOM     27  CB  ALA E  12       7.681  22.391   3.132  1.00 65.27 LIG 0.04  C 
BRANCH 26 28
ATOM     28  C   ALA E  12       5.180  22.573   3.008  1.00 54.59 LIG 0.24  C 
ATOM     29  N   ALA E  13       4.085  22.993   3.641  1.00 64.78 LIG-0.35  N 
ATOM     30 H    ALA E  13       4.074  23.655   4.190  1.00 64.78 LIG 0.16  HD
ATOM     31 O    ALA E  12       5.174  21.706   2.130  1.00 69.11 LIG-0.27  OA
BRANCH 29 32
ATOM     32  CA  ALA E  13       2.792  22.355   3.452  1.00 54.23 LIG 0.17  C 
ATOM     33  CB  ALA E  13       2.155  22.842   2.149  1.00 56.27 LIG 0.04  C 
BRANCH 32 34
ATOM     34  C   ALA E  13       2.895  20.841   3.396  1.00 65.29 LIG 0.24  C 
ATOM     35  N   ALA E  14       1.849  20.221   2.864  1.00 85.74 LIG-0.35  N 
ATOM     36 H    ALA E  14       1.139  20.628   2.600  1.00 85.74 LIG 0.16  HD
ATOM     37 O    ALA E  13       3.915  20.254   3.767  1.00 75.52 LIG-0.27  OA
BRANCH 35 38
ATOM     38  CA  ALA E  14       1.805  18.781   2.678  1.00 94.46 LIG 0.16  C 
ATOM     39  CB  ALA E  14       2.632  18.387   1.476  1.00106.12 LIG 0.04  C 
BRANCH 38 40
ATOM     40  C   ALA E  14       2.307  18.070   3.929  1.00 99.07 LIG 0.22  C 
ATOM     41 O    ALA E  14       2.896  16.992   3.848  1.00120.33 LIG-0.29  OA
ENDBRANCH 38 40
ENDBRANCH 35 38
ENDBRANCH 32 34
ENDBRANCH 29 32
ENDBRANCH 26 28
ENDBRANCH 23 26
ENDBRANCH 1 22
TORSDOF 13
ENDMDL
MODEL 45
USER: ADFR SOLUTION from run 25
USER: SCORE 8.745398 LL:  -3.049 LR:  -7.196 RR:   0.000 FEB:  -3.318
USER: RMSD 9.748208
USER: SEED 24
USER: STATUS no improvement in best in 45 clusters for 5 generations
USER: GENES 15
USER: genes 0 Translation |==|  0.65971 0.42188 0.66497
USER: genes 1 Rotation |==|  0.47378 0.04750 0.60128 0.68521
USER: genes 2 Torsion [CB]-CA--N-[C] |==|  0.83327
USER: genes 3 Torsion [N]-C--CA-[N] |==|  0.46725
USER: genes 4 Torsion [C]-CA--N-[C] |==|  0.80655
USER: genes 5 Torsion [N]-C--CA-[N] |==|  0.16585
USER: genes 6 Torsion [C]-CA--N-[C] |==|  0.18769
USER: genes 7 Torsion [N]-C--CA-[N] |==|  0.38129
USER: genes 8 Torsion [N]-CA--C-[N] |==|  0.00467
USER: genes 9 Torsion [C]-N--CA-[CB] |==|  0.79011
USER: genes 10 Torsion [N]-CA--C-[N] |==|  0.25794
USER: genes 11 Torsion [C]-N--CA-[CB] |==|  0.17905
USER: genes 12 Torsion [N]-CA--C-[N] |==|  0.11013
USER: genes 13 Torsion [C]-N--CA-[C] |==|  0.51786
USER: genes 14 Torsion [N]-CA--C-[O] |==|  0.85033
ROOT
ATOM      1  CA  ALA E  11       2.374  22.223   4.163  1.00 85.35 LIG 0.17  C 
ATOM      2  CB  ALA E  11       2.191  22.085   2.651  1.00 80.46 LIG 0.04  C 
ENDROOT
BRANCH 1 3
ATOM      3  N   ALA E  11       1.909  23.532   4.608  1.00 87.15 LIG-0.35  N 
ATOM      4  C   ALA E  10       2.467  24.646   4.128  1.00 62.15 LIG 0.24  C 
ATOM      5 O    ALA E  10       3.234  24.636   3.164  1.00 65.72 LIG-0.27  OA
ATOM      6 H    ALA E  11       1.270  23.516   5.183  1.00 87.15 LIG 0.16  HD
BRANCH 4 7
ATOM      7  CA  ALA E  10       2.121  25.961   4.817  1.00 66.45 LIG 0.17  C 
ATOM      8  CB  ALA E  10       0.662  26.331   4.552  1.00 58.63 LIG 0.04  C 
BRANCH 7 9
ATOM      9  N   ALA E  10       2.990  27.047   4.387  1.00 75.43 LIG-0.35  N 
ATOM     10  C   ALA E   9       4.279  27.114   4.711  1.00 82.21 LIG 0.24  C 
ATOM     11 O    ALA E   9       4.846  26.284   5.430  1.00 73.75 LIG-0.27  OA
ATOM     12 H    ALA E  10       2.593  27.639   3.906  1.00 75.43 LIG 0.16  HD
BRANCH 10 13
ATOM     13  CA  ALA E   9       5.044  28.312   4.164  1.00 87.65 LIG 0.17  C 
ATOM     14  CB  ALA E   9       6.518  28.248   4.559  1.00 72.21 LIG 0.04  C 
BRANCH 13 15
ATOM     15  N   ALA E   9       4.408  29.520   4.674  1.00 84.24 LIG-0.35  N 
ATOM     16 H    ALA E   9       4.018  29.994   4.070  1.00 84.24 LIG 0.16  HD
ATOM     17  C   ALA E   8       4.435  29.848   5.958  1.00 61.40 LIG 0.26  C 
ATOM     18 O    ALA E   8       4.914  29.114   6.820  1.00 66.21 LIG-0.27  OA
BRANCH 17 19
ATOM     19  CA  ALA E   8       3.805  31.187   6.328  1.00 67.03 LIG 0.40  C 
ATOM     20  N   ALA E   8       2.985  31.058   7.569  1.00 60.26 LIG 0.61  N 
ATOM     21  CB  ALA E   8       4.878  32.255   6.509  1.00 64.64 LIG 0.06  C 
ENDBRANCH 17 19
ENDBRANCH 13 15
ENDBRANCH 10 13
ENDBRANCH 7 9
ENDBRANCH 4 7
ENDBRANCH 1 3
BRANCH 1 22
ATOM     22  C   ALA E  11       3.831  21.989   4.542  1.00 81.78 LIG 0.24  C 
ATOM     23  N   ALA E  12       4.450  22.949   5.227  1.00 82.91 LIG-0.35  N 
ATOM     24 H    ALA E  12       4.061  23.638   5.566  1.00 82.91 LIG 0.16  HD
ATOM     25 O    ALA E  11       4.409  20.948   4.208  1.00 89.30 LIG-0.27  OA
BRANCH 23 26
ATOM     26  CA  ALA E  12       5.887  22.880   5.451  1.00 61.10 LIG 0.17  C 
ATOM     27  CB  ALA E  12       6.221  21.842   6.534  1.00 65.27 LIG 0.04  C 
BRANCH 26 28
ATOM     28  C   ALA E  12       6.613  22.548   4.157  1.00 54.59 LIG 0.24  C 
ATOM     29  N   ALA E  13       7.028  23.608   3.462  1.00 64.78 LIG-0.35  N 
ATOM     30 H    ALA E  13       6.958  24.419   3.740  1.00 64.78 LIG 0.16  HD
ATOM     31 O    ALA E  12       6.823  21.381   3.817  1.00 69.11 LIG-0.27  OA
BRANCH 29 32
ATOM     32  CA  ALA E  13       7.646  23.478   2.153  1.00 54.23 LIG 0.17  C 
ATOM     33  CB  ALA E  13       6.639  22.905   1.154  1.00 56.27 LIG 0.04  C 
BRANCH 32 34
ATOM     34  C   ALA E  13       8.149  24.806   1.615  1.00 65.29 LIG 0.24  C 
ATOM     35  N   ALA E  14       8.718  25.602   2.514  1.00 85.74 LIG-0.35  N 
ATOM     36 H    ALA E  14       8.771  25.411   3.350  1.00 85.74 LIG 0.16  HD
ATOM     37 O    ALA E  13       8.082  25.079   0.415  1.00 75.52 LIG-0.27  OA
BRANCH 35 38
ATOM     38  CA  ALA E  14       9.307  26.882   2.163  1.00 94.46 LIG 0.16  C 
ATOM     39  CB  ALA E  14       8.241  27.821   1.646  1.00106.12 LIG 0.04  C 
BRANCH 38 40
ATOM     40  C   ALA E  14      10.016  27.488   3.369  1.00 99.07 LIG 0.22  C 
ATOM     41 O    ALA E  14       9.423  27.639   4.437  1.00120.33 LIG-0.29  OA
ENDBRANCH 38 40
ENDBRANCH 35 38
ENDBRANCH 32 34
ENDBRANCH 29 32
ENDBRANCH 26 28
ENDBRANCH 23 26
ENDBRANCH 1 22
TORSDOF 13
ENDMDL
MODEL 46
USER: ADFR SOLUTION from run 60
USER: SCORE 8.963530 LL:  -3.409 LR:  -7.184 RR:   0.000 FEB:  -3.306
USER: RMSD 8.780846
USER: SEED 59
USER: STATUS no improvement in best in 9 clusters for 5 generations
USER: GENES 15
USER: genes 0 Translation |==|  0.65913 0.46297 0.66935
USER: genes 1 Rotation |==|  0.36938 0.11840 0.69213 0.72450
USER: genes 2 Torsion [CB]-CA--N-[C] |==|  0.77778
USER: genes 3 Torsion [N]-C--CA-[N] |==|  0.09218
USER: genes 4 Torsion [C]-CA--N-[C] |==|  0.17423
USER: genes 5 Torsion [N]-C--CA-[N] |==|  0.83178
USER: genes 6 Torsion [C]-CA--N-[C] |==|  0.73812
USER: genes 7 Torsion [N]-C--CA-[N] |==|  0.39803
USER: genes 8 Torsion [N]-CA--C-[N] |==|  0.10075
USER: genes 9 Torsion [C]-N--CA-[CB] |==|  0.81174
USER: genes 10 Torsion [N]-CA--C-[N] |==|  0.19886
USER: genes 11 Torsion [C]-N--CA-[CB] |==|  0.82683
USER: genes 12 Torsion [N]-CA--C-[N] |==|  0.41442
USER: genes 13 Torsion [C]-N--CA-[C] |==|  0.81156
USER: genes 14 Torsion [N]-CA--C-[O] |==|  0.28095
ROOT
ATOM      1  CA  ALA E  11       2.360  22.962   4.242  1.00 85.35 LIG 0.17  C 
ATOM      2  CB  ALA E  11       1.779  22.185   3.060  1.00 80.46 LIG 0.04  C 
ENDROOT
BRANCH 1 3
ATOM      3  N   ALA E  11       2.331  24.394   3.965  1.00 87.15 LIG-0.35  N 
ATOM      4  C   ALA E  10       3.268  24.953   3.194  1.00 62.15 LIG 0.24  C 
ATOM      5 O    ALA E  10       4.060  24.283   2.530  1.00 65.72 LIG-0.27  OA
ATOM      6 H    ALA E  11       1.680  24.822   4.329  1.00 87.15 LIG 0.16  HD
BRANCH 4 7
ATOM      7  CA  ALA E  10       3.332  26.475   3.155  1.00 66.45 LIG 0.17  C 
ATOM      8  CB  ALA E  10       4.734  26.938   2.762  1.00 58.63 LIG 0.04  C 
BRANCH 7 9
ATOM      9  N   ALA E  10       2.956  27.069   4.429  1.00 75.43 LIG-0.35  N 
ATOM     10  C   ALA E   9       3.639  26.867   5.553  1.00 82.21 LIG 0.24  C 
ATOM     11 O    ALA E   9       4.631  26.132   5.625  1.00 73.75 LIG-0.27  OA
ATOM     12 H    ALA E  10       2.252  27.562   4.388  1.00 75.43 LIG 0.16  HD
BRANCH 10 13
ATOM     13  CA  ALA E   9       3.113  27.577   6.793  1.00 87.65 LIG 0.17  C 
ATOM     14  CB  ALA E   9       1.701  27.107   7.137  1.00 72.21 LIG 0.04  C 
BRANCH 13 15
ATOM     15  N   ALA E   9       3.149  29.011   6.538  1.00 84.24 LIG-0.35  N 
ATOM     16 H    ALA E   9       2.453  29.314   6.133  1.00 84.24 LIG 0.16  HD
ATOM     17  C   ALA E   8       4.174  29.770   6.903  1.00 61.40 LIG 0.26  C 
ATOM     18 O    ALA E   8       5.117  29.339   7.563  1.00 66.21 LIG-0.27  OA
BRANCH 17 19
ATOM     19  CA  ALA E   8       4.111  31.236   6.487  1.00 67.03 LIG 0.40  C 
ATOM     20  N   ALA E   8       4.685  32.111   7.552  1.00 60.26 LIG 0.61  N 
ATOM     21  CB  ALA E   8       4.845  31.453   5.168  1.00 64.64 LIG 0.06  C 
ENDBRANCH 17 19
ENDBRANCH 13 15
ENDBRANCH 10 13
ENDBRANCH 7 9
ENDBRANCH 4 7
ENDBRANCH 1 3
BRANCH 1 22
ATOM     22  C   ALA E  11       3.774  22.482   4.546  1.00 81.78 LIG 0.24  C 
ATOM     23  N   ALA E  12       4.570  23.304   5.228  1.00 82.91 LIG-0.35  N 
ATOM     24 H    ALA E  12       4.313  24.034   5.603  1.00 82.91 LIG 0.16  HD
ATOM     25 O    ALA E  11       4.159  21.372   4.157  1.00 89.30 LIG-0.27  OA
BRANCH 23 26
ATOM     26  CA  ALA E  12       5.984  22.993   5.383  1.00 61.10 LIG 0.17  C 
ATOM     27  CB  ALA E  12       6.176  21.755   6.271  1.00 65.27 LIG 0.04  C 
BRANCH 26 28
ATOM     28  C   ALA E  12       6.635  22.780   4.026  1.00 54.59 LIG 0.24  C 
ATOM     29  N   ALA E  13       6.791  23.888   3.301  1.00 64.78 LIG-0.35  N 
ATOM     30 H    ALA E  13       6.604  24.677   3.588  1.00 64.78 LIG 0.16  HD
ATOM     31 O    ALA E  12       7.016  21.664   3.663  1.00 69.11 LIG-0.27  OA
BRANCH 29 32
ATOM     32  CA  ALA E  13       7.300  23.854   1.939  1.00 54.23 LIG 0.17  C 
ATOM     33  CB  ALA E  13       8.725  23.299   1.928  1.00 56.27 LIG 0.04  C 
BRANCH 32 34
ATOM     34  C   ALA E  13       6.446  22.995   1.024  1.00 65.29 LIG 0.24  C 
ATOM     35  N   ALA E  14       6.414  23.380  -0.247  1.00 85.74 LIG-0.35  N 
ATOM     36 H    ALA E  14       6.811  24.083  -0.540  1.00 85.74 LIG 0.16  HD
ATOM     37 O    ALA E  13       5.880  21.980   1.438  1.00 75.52 LIG-0.27  OA
BRANCH 35 38
ATOM     38  CA  ALA E  14       5.697  22.640  -1.270  1.00 94.46 LIG 0.16  C 
ATOM     39  CB  ALA E  14       5.635  23.445  -2.548  1.00106.12 LIG 0.04  C 
BRANCH 38 40
ATOM     40  C   ALA E  14       6.367  21.293  -1.518  1.00 99.07 LIG 0.22  C 
ATOM     41 O    ALA E  14       5.906  20.261  -1.031  1.00120.33 LIG-0.29  OA
ENDBRANCH 38 40
ENDBRANCH 35 38
ENDBRANCH 32 34
ENDBRANCH 29 32
ENDBRANCH 26 28
ENDBRANCH 23 26
ENDBRANCH 1 22
TORSDOF 13
ENDMDL
MODEL 47
USER: ADFR SOLUTION from run 127
USER: SCORE 8.162540 LL:  -2.912 LR:  -7.155 RR:   0.000 FEB:  -3.277
USER: RMSD 8.540476
USER: SEED 126
USER: STATUS no improvement in best in 36 clusters for 5 generations
USER: GENES 15
USER: genes 0 Translation |==|  0.81299 0.46858 0.71229
USER: genes 1 Rotation |==|  0.62126 0.64251 0.81330 0.84180
USER: genes 2 Torsion [CB]-CA--N-[C] |==|  0.85809
USER: genes 3 Torsion [N]-C--CA-[N] |==|  0.04586
USER: genes 4 Torsion [C]-CA--N-[C] |==|  0.74430
USER: genes 5 Torsion [N]-C--CA-[N] |==|  0.81667
USER: genes 6 Torsion [C]-CA--N-[C] |==|  0.83200
USER: genes 7 Torsion [N]-C--CA-[N] |==|  0.30874
USER: genes 8 Torsion [N]-CA--C-[N] |==|  0.02207
USER: genes 9 Torsion [C]-N--CA-[CB] |==|  0.84342
USER: genes 10 Torsion [N]-CA--C-[N] |==|  0.41237
USER: genes 11 Torsion [C]-N--CA-[CB] |==|  0.51350
USER: genes 12 Torsion [N]-CA--C-[N] |==|  0.37888
USER: genes 13 Torsion [C]-N--CA-[C] |==|  0.48091
USER: genes 14 Torsion [N]-CA--C-[O] |==|  0.00168
ROOT
ATOM      1  CA  ALA E  11       5.822  23.064   5.015  1.00 85.35 LIG 0.17  C 
ATOM      2  CB  ALA E  11       6.212  22.262   6.258  1.00 80.46 LIG 0.04  C 
ENDROOT
BRANCH 1 3
ATOM      3  N   ALA E  11       4.851  24.094   5.367  1.00 87.15 LIG-0.35  N 
ATOM      4  C   ALA E  10       3.753  23.779   6.059  1.00 62.15 LIG 0.24  C 
ATOM      5 O    ALA E  10       3.606  22.682   6.599  1.00 65.72 LIG-0.27  OA
ATOM      6 H    ALA E  11       5.047  24.886   5.097  1.00 87.15 LIG 0.16  HD
BRANCH 4 7
ATOM      7  CA  ALA E  10       2.662  24.839   6.169  1.00 66.45 LIG 0.17  C 
ATOM      8  CB  ALA E  10       1.283  24.199   6.016  1.00 58.63 LIG 0.04  C 
BRANCH 7 9
ATOM      9  N   ALA E  10       2.827  25.894   5.181  1.00 75.43 LIG-0.35  N 
ATOM     10  C   ALA E   9       3.508  27.013   5.422  1.00 82.21 LIG 0.24  C 
ATOM     11 O    ALA E   9       4.030  27.271   6.512  1.00 73.75 LIG-0.27  OA
ATOM     12 H    ALA E  10       2.445  25.728   4.429  1.00 75.43 LIG 0.16  HD
BRANCH 10 13
ATOM     13  CA  ALA E   9       3.592  28.006   4.270  1.00 87.65 LIG 0.17  C 
ATOM     14  CB  ALA E   9       2.200  28.401   3.784  1.00 72.21 LIG 0.04  C 
BRANCH 13 15
ATOM     15  N   ALA E   9       4.375  27.391   3.205  1.00 84.24 LIG-0.35  N 
ATOM     16 H    ALA E   9       3.948  27.298   2.464  1.00 84.24 LIG 0.16  HD
ATOM     17  C   ALA E   8       5.633  27.012   3.379  1.00 61.40 LIG 0.26  C 
ATOM     18 O    ALA E   8       6.258  27.237   4.414  1.00 66.21 LIG-0.27  OA
BRANCH 17 19
ATOM     19  CA  ALA E   8       6.294  26.301   2.202  1.00 67.03 LIG 0.40  C 
ATOM     20  N   ALA E   8       7.357  27.158   1.597  1.00 60.26 LIG 0.61  N 
ATOM     21  CB  ALA E   8       6.877  24.962   2.642  1.00 64.64 LIG 0.06  C 
ENDBRANCH 17 19
ENDBRANCH 13 15
ENDBRANCH 10 13
ENDBRANCH 7 9
ENDBRANCH 4 7
ENDBRANCH 1 3
BRANCH 1 22
ATOM     22  C   ALA E  11       5.283  22.133   3.935  1.00 81.78 LIG 0.24  C 
ATOM     23  N   ALA E  12       4.128  22.463   3.361  1.00 82.91 LIG-0.35  N 
ATOM     24 H    ALA E  12       3.721  23.212   3.474  1.00 82.91 LIG 0.16  HD
ATOM     25 O    ALA E  11       5.900  21.108   3.623  1.00 89.30 LIG-0.27  OA
BRANCH 23 26
ATOM     26  CA  ALA E  12       3.460  21.526   2.467  1.00 61.10 LIG 0.17  C 
ATOM     27  CB  ALA E  12       4.391  21.113   1.317  1.00 65.27 LIG 0.04  C 
BRANCH 26 28
ATOM     28  C   ALA E  12       2.989  20.301   3.234  1.00 54.59 LIG 0.24  C 
ATOM     29  N   ALA E  13       1.877  19.739   2.760  1.00 64.78 LIG-0.35  N 
ATOM     30 H    ALA E  13       1.481  19.995   2.041  1.00 64.78 LIG 0.16  HD
ATOM     31 O    ALA E  12       3.625  19.859   4.195  1.00 69.11 LIG-0.27  OA
BRANCH 29 32
ATOM     32  CA  ALA E  13       1.229  18.624   3.432  1.00 54.23 LIG 0.17  C 
ATOM     33  CB  ALA E  13       0.054  18.120   2.594  1.00 56.27 LIG 0.04  C 
BRANCH 32 34
ATOM     34  C   ALA E  13       2.177  17.463   3.673  1.00 65.29 LIG 0.24  C 
ATOM     35  N   ALA E  14       2.095  16.904   4.875  1.00 85.74 LIG-0.35  N 
ATOM     36 H    ALA E  14       1.576  17.191   5.497  1.00 85.74 LIG 0.16  HD
ATOM     37 O    ALA E  13       2.917  17.044   2.780  1.00 75.52 LIG-0.27  OA
BRANCH 35 38
ATOM     38  CA  ALA E  14       2.885  15.746   5.253  1.00 94.46 LIG 0.16  C 
ATOM     39  CB  ALA E  14       4.344  15.984   4.937  1.00106.12 LIG 0.04  C 
BRANCH 38 40
ATOM     40  C   ALA E  14       2.701  15.441   6.736  1.00 99.07 LIG 0.22  C 
ATOM     41 O    ALA E  14       1.957  16.130   7.433  1.00120.33 LIG-0.29  OA
ENDBRANCH 38 40
ENDBRANCH 35 38
ENDBRANCH 32 34
ENDBRANCH 29 32
ENDBRANCH 26 28
ENDBRANCH 23 26
ENDBRANCH 1 22
TORSDOF 13
ENDMDL
MODEL 48
USER: ADFR SOLUTION from run 142
USER: SCORE 8.603600 LL:  -2.465 LR:  -7.152 RR:   0.000 FEB:  -3.274
USER: RMSD 9.313143
USER: SEED 141
USER: STATUS no improvement in best in 29 clusters for 5 generations
USER: GENES 15
USER: genes 0 Translation |==|  0.81800 0.43675 0.70441
USER: genes 1 Rotation |==|  0.58349 0.32495 0.86627 0.77970
USER: genes 2 Torsion [CB]-CA--N-[C] |==|  0.14878
USER: genes 3 Torsion [N]-C--CA-[N] |==|  0.84445
USER: genes 4 Torsion [C]-CA--N-[C] |==|  0.87419
USER: genes 5 Torsion [N]-C--CA-[N] |==|  0.40046
USER: genes 6 Torsion [C]-CA--N-[C] |==|  0.82340
USER: genes 7 Torsion [N]-C--CA-[N] |==|  0.48198
USER: genes 8 Torsion [N]-CA--C-[N] |==|  0.07542
USER: genes 9 Torsion [C]-N--CA-[CB] |==|  0.83668
USER: genes 10 Torsion [N]-CA--C-[N] |==|  0.42410
USER: genes 11 Torsion [C]-N--CA-[CB] |==|  0.50596
USER: genes 12 Torsion [N]-CA--C-[N] |==|  0.47179
USER: genes 13 Torsion [C]-N--CA-[C] |==|  0.17203
USER: genes 14 Torsion [N]-CA--C-[O] |==|  0.06027
ROOT
ATOM      1  CA  ALA E  11       5.935  22.491   4.873  1.00 85.35 LIG 0.17  C 
ATOM      2  CB  ALA E  11       5.582  21.004   4.949  1.00 80.46 LIG 0.04  C 
ENDROOT
BRANCH 1 3
ATOM      3  N   ALA E  11       4.718  23.295   4.859  1.00 87.15 LIG-0.35  N 
ATOM      4  C   ALA E  10       3.795  23.141   5.812  1.00 62.15 LIG 0.24  C 
ATOM      5 O    ALA E  10       4.006  22.485   6.833  1.00 65.72 LIG-0.27  OA
ATOM      6 H    ALA E  11       4.658  23.853   4.207  1.00 87.15 LIG 0.16  HD
BRANCH 4 7
ATOM      7  CA  ALA E  10       2.445  23.817   5.601  1.00 66.45 LIG 0.17  C 
ATOM      8  CB  ALA E  10       1.711  23.179   4.422  1.00 58.63 LIG 0.04  C 
BRANCH 7 9
ATOM      9  N   ALA E  10       2.582  25.249   5.379  1.00 75.43 LIG-0.35  N 
ATOM     10  C   ALA E   9       3.371  26.025   6.119  1.00 82.21 LIG 0.24  C 
ATOM     11 O    ALA E   9       4.030  25.609   7.078  1.00 73.75 LIG-0.27  OA
ATOM     12 H    ALA E  10       2.106  25.546   4.727  1.00 75.43 LIG 0.16  HD
BRANCH 10 13
ATOM     13  CA  ALA E   9       3.405  27.499   5.740  1.00 87.65 LIG 0.17  C 
ATOM     14  CB  ALA E   9       4.555  27.792   4.778  1.00 72.21 LIG 0.04  C 
BRANCH 13 15
ATOM     15  N   ALA E   9       3.527  28.275   6.967  1.00 84.24 LIG-0.35  N 
ATOM     16 H    ALA E   9       4.256  28.728   7.026  1.00 84.24 LIG 0.16  HD
ATOM     17  C   ALA E   8       2.588  28.272   7.903  1.00 61.40 LIG 0.26  C 
ATOM     18 O    ALA E   8       1.511  27.695   7.763  1.00 66.21 LIG-0.27  OA
BRANCH 17 19
ATOM     19  CA  ALA E   8       2.896  29.060   9.173  1.00 67.03 LIG 0.40  C 
ATOM     20  N   ALA E   8       1.702  29.103  10.069  1.00 60.26 LIG 0.61  N 
ATOM     21  CB  ALA E   8       4.088  28.454   9.905  1.00 64.64 LIG 0.06  C 
ENDBRANCH 17 19
ENDBRANCH 13 15
ENDBRANCH 10 13
ENDBRANCH 7 9
ENDBRANCH 4 7
ENDBRANCH 1 3
BRANCH 1 22
ATOM     22  C   ALA E  11       6.801  22.765   3.650  1.00 81.78 LIG 0.24  C 
ATOM     23  N   ALA E  12       6.698  23.966   3.082  1.00 82.91 LIG-0.35  N 
ATOM     24 H    ALA E  12       6.267  24.631   3.416  1.00 82.91 LIG 0.16  HD
ATOM     25 O    ALA E  11       7.556  21.893   3.204  1.00 89.30 LIG-0.27  OA
BRANCH 23 26
ATOM     26  CA  ALA E  12       7.345  24.229   1.803  1.00 61.10 LIG 0.17  C 
ATOM     27  CB  ALA E  12       8.860  23.994   1.900  1.00 65.27 LIG 0.04  C 
BRANCH 26 28
ATOM     28  C   ALA E  12       6.741  23.359   0.712  1.00 54.59 LIG 0.24  C 
ATOM     29  N   ALA E  13       6.814  23.873  -0.516  1.00 64.78 LIG-0.35  N 
ATOM     30 H    ALA E  13       7.223  24.606  -0.704  1.00 64.78 LIG 0.16  HD
ATOM     31 O    ALA E  12       6.262  22.251   0.964  1.00 69.11 LIG-0.27  OA
BRANCH 29 32
ATOM     32  CA  ALA E  13       6.195  23.225  -1.662  1.00 54.23 LIG 0.17  C 
ATOM     33  CB  ALA E  13       6.493  24.019  -2.934  1.00 56.27 LIG 0.04  C 
BRANCH 32 34
ATOM     34  C   ALA E  13       6.689  21.803  -1.859  1.00 65.29 LIG 0.24  C 
ATOM     35  N   ALA E  14       6.015  21.088  -2.752  1.00 85.74 LIG-0.35  N 
ATOM     36 H    ALA E  14       5.323  21.381  -3.170  1.00 85.74 LIG 0.16  HD
ATOM     37 O    ALA E  13       7.686  21.382  -1.267  1.00 75.52 LIG-0.27  OA
BRANCH 35 38
ATOM     38  CA  ALA E  14       6.387  19.731  -3.109  1.00 94.46 LIG 0.16  C 
ATOM     39  CB  ALA E  14       7.785  19.710  -3.684  1.00106.12 LIG 0.04  C 
BRANCH 38 40
ATOM     40  C   ALA E  14       6.296  18.819  -1.891  1.00 99.07 LIG 0.22  C 
ATOM     41 O    ALA E  14       5.595  19.124  -0.926  1.00120.33 LIG-0.29  OA
ENDBRANCH 38 40
ENDBRANCH 35 38
ENDBRANCH 32 34
ENDBRANCH 29 32
ENDBRANCH 26 28
ENDBRANCH 23 26
ENDBRANCH 1 22
TORSDOF 13
ENDMDL
MODEL 49
USER: ADFR SOLUTION from run 200
USER: SCORE 8.625793 LL:  -2.813 LR:  -7.143 RR:   0.000 FEB:  -3.266
USER: RMSD 7.258283
USER: SEED 199
USER: STATUS no improvement in best in 50 clusters for 5 generations
USER: GENES 15
USER: genes 0 Translation |==|  0.81730 0.48096 0.71364
USER: genes 1 Rotation |==|  0.63420 0.59160 0.86707 0.79809
USER: genes 2 Torsion [CB]-CA--N-[C] |==|  0.82348
USER: genes 3 Torsion [N]-C--CA-[N] |==|  0.03118
USER: genes 4 Torsion [C]-CA--N-[C] |==|  0.79264
USER: genes 5 Torsion [N]-C--CA-[N] |==|  0.38915
USER: genes 6 Torsion [C]-CA--N-[C] |==|  0.82965
USER: genes 7 Torsion [N]-C--CA-[N] |==|  0.24145
USER: genes 8 Torsion [N]-CA--C-[N] |==|  0.08175
USER: genes 9 Torsion [C]-N--CA-[CB] |==|  0.85180
USER: genes 10 Torsion [N]-CA--C-[N] |==|  0.41560
USER: genes 11 Torsion [C]-N--CA-[CB] |==|  0.83544
USER: genes 12 Torsion [N]-CA--C-[N] |==|  0.31667
USER: genes 13 Torsion [C]-N--CA-[C] |==|  0.16692
USER: genes 14 Torsion [N]-CA--C-[O] |==|  0.67948
ROOT
ATOM      1  CA  ALA E  11       5.919  23.286   5.039  1.00 85.35 LIG 0.17  C 
ATOM      2  CB  ALA E  11       6.362  22.257   6.081  1.00 80.46 LIG 0.04  C 
ENDROOT
BRANCH 1 3
ATOM      3  N   ALA E  11       4.733  23.995   5.507  1.00 87.15 LIG-0.35  N 
ATOM      4  C   ALA E  10       3.589  23.336   5.709  1.00 62.15 LIG 0.24  C 
ATOM      5 O    ALA E  10       3.528  22.106   5.712  1.00 65.72 LIG-0.27  OA
ATOM      6 H    ALA E  11       4.839  24.839   5.634  1.00 87.15 LIG 0.16  HD
BRANCH 4 7
ATOM      7  CA  ALA E  10       2.331  24.166   5.944  1.00 66.45 LIG 0.17  C 
ATOM      8  CB  ALA E  10       1.176  23.631   5.098  1.00 58.63 LIG 0.04  C 
BRANCH 7 9
ATOM      9  N   ALA E  10       2.546  25.575   5.651  1.00 75.43 LIG-0.35  N 
ATOM     10  C   ALA E   9       3.234  26.386   6.451  1.00 82.21 LIG 0.24  C 
ATOM     11 O    ALA E   9       3.723  26.026   7.528  1.00 73.75 LIG-0.27  OA
ATOM     12 H    ALA E  10       2.187  25.834   4.913  1.00 75.43 LIG 0.16  HD
BRANCH 10 13
ATOM     13  CA  ALA E   9       3.373  27.828   5.983  1.00 87.65 LIG 0.17  C 
ATOM     14  CB  ALA E   9       4.712  28.051   5.284  1.00 72.21 LIG 0.04  C 
BRANCH 13 15
ATOM     15  N   ALA E   9       3.229  28.693   7.148  1.00 84.24 LIG-0.35  N 
ATOM     16 H    ALA E   9       3.923  29.173   7.317  1.00 84.24 LIG 0.16  HD
ATOM     17  C   ALA E   8       2.120  28.725   7.874  1.00 61.40 LIG 0.26  C 
ATOM     18 O    ALA E   8       1.106  28.103   7.565  1.00 66.21 LIG-0.27  OA
BRANCH 17 19
ATOM     19  CA  ALA E   8       2.150  29.610   9.116  1.00 67.03 LIG 0.40  C 
ATOM     20  N   ALA E   8       1.767  31.013   8.772  1.00 60.26 LIG 0.61  N 
ATOM     21  CB  ALA E   8       1.226  29.056  10.194  1.00 64.64 LIG 0.06  C 
ENDBRANCH 17 19
ENDBRANCH 13 15
ENDBRANCH 10 13
ENDBRANCH 7 9
ENDBRANCH 4 7
ENDBRANCH 1 3
BRANCH 1 22
ATOM     22  C   ALA E  11       5.672  22.607   3.698  1.00 81.78 LIG 0.24  C 
ATOM     23  N   ALA E  12       4.784  23.169   2.879  1.00 82.91 LIG-0.35  N 
ATOM     24 H    ALA E  12       4.424  23.941   3.002  1.00 82.91 LIG 0.16  HD
ATOM     25 O    ALA E  11       6.270  21.567   3.399  1.00 89.30 LIG-0.27  OA
BRANCH 23 26
ATOM     26  CA  ALA E  12       4.356  22.473   1.673  1.00 61.10 LIG 0.17  C 
ATOM     27  CB  ALA E  12       5.568  22.050   0.829  1.00 65.27 LIG 0.04  C 
BRANCH 26 28
ATOM     28  C   ALA E  12       3.508  21.262   2.029  1.00 54.59 LIG 0.24  C 
ATOM     29  N   ALA E  13       2.583  20.942   1.124  1.00 64.78 LIG-0.35  N 
ATOM     30 H    ALA E  13       2.501  21.338   0.365  1.00 64.78 LIG 0.16  HD
ATOM     31 O    ALA E  12       3.707  20.619   3.064  1.00 69.11 LIG-0.27  OA
BRANCH 29 32
ATOM     32  CA  ALA E  13       1.618  19.879   1.350  1.00 54.23 LIG 0.17  C 
ATOM     33  CB  ALA E  13       2.346  18.554   1.584  1.00 56.27 LIG 0.04  C 
BRANCH 32 34
ATOM     34  C   ALA E  13       0.726  20.151   2.548  1.00 65.29 LIG 0.24  C 
ATOM     35  N   ALA E  14      -0.558  20.343   2.267  1.00 85.74 LIG-0.35  N 
ATOM     36 H    ALA E  14      -0.872  20.354   1.467  1.00 85.74 LIG 0.16  HD
ATOM     37 O    ALA E  13       1.171  20.129   3.698  1.00 75.52 LIG-0.27  OA
BRANCH 35 38
ATOM     38  CA  ALA E  14      -1.560  20.556   3.296  1.00 94.46 LIG 0.16  C 
ATOM     39  CB  ALA E  14      -1.651  19.342   4.192  1.00106.12 LIG 0.04  C 
BRANCH 38 40
ATOM     40  C   ALA E  14      -1.226  21.800   4.112  1.00 99.07 LIG 0.22  C 
ATOM     41 O    ALA E  14      -0.950  21.714   5.308  1.00120.33 LIG-0.29  OA
ENDBRANCH 38 40
ENDBRANCH 35 38
ENDBRANCH 32 34
ENDBRANCH 29 32
ENDBRANCH 26 28
ENDBRANCH 23 26
ENDBRANCH 1 22
TORSDOF 13
ENDMDL
MODEL 50
USER: ADFR SOLUTION from run 165
USER: SCORE 7.705739 LL:  -3.039 LR:  -7.130 RR:   0.000 FEB:  -3.252
USER: RMSD 8.594201
USER: SEED 164
USER: STATUS no improvement in best in 31 clusters for 5 generations
USER: GENES 15
USER: genes 0 Translation |==|  0.66945 0.43067 0.66785
USER: genes 1 Rotation |==|  0.46513 0.09455 0.59193 0.77557
USER: genes 2 Torsion [CB]-CA--N-[C] |==|  0.44926
USER: genes 3 Torsion [N]-C--CA-[N] |==|  0.87454
USER: genes 4 Torsion [C]-CA--N-[C] |==|  0.84691
USER: genes 5 Torsion [N]-C--CA-[N] |==|  0.13481
USER: genes 6 Torsion [C]-CA--N-[C] |==|  0.18498
USER: genes 7 Torsion [N]-C--CA-[N] |==|  0.63071
USER: genes 8 Torsion [N]-CA--C-[N] |==|  0.03701
USER: genes 9 Torsion [C]-N--CA-[CB] |==|  0.84419
USER: genes 10 Torsion [N]-CA--C-[N] |==|  0.31691
USER: genes 11 Torsion [C]-N--CA-[CB] |==|  0.84469
USER: genes 12 Torsion [N]-CA--C-[N] |==|  0.37913
USER: genes 13 Torsion [C]-N--CA-[C] |==|  0.17570
USER: genes 14 Torsion [N]-CA--C-[O] |==|  0.20350
ROOT
ATOM      1  CA  ALA E  11       2.593  22.381   4.215  1.00 85.35 LIG 0.17  C 
ATOM      2  CB  ALA E  11       1.834  22.308   2.889  1.00 80.46 LIG 0.04  C 
ENDROOT
BRANCH 1 3
ATOM      3  N   ALA E  11       2.501  23.726   4.773  1.00 87.15 LIG-0.35  N 
ATOM      4  C   ALA E  10       2.761  23.941   6.065  1.00 62.15 LIG 0.24  C 
ATOM      5 O    ALA E  10       3.277  23.085   6.784  1.00 65.72 LIG-0.27  OA
ATOM      6 H    ALA E  11       2.273  24.338   4.212  1.00 87.15 LIG 0.16  HD
BRANCH 4 7
ATOM      7  CA  ALA E  10       2.399  25.306   6.638  1.00 66.45 LIG 0.17  C 
ATOM      8  CB  ALA E  10       0.895  25.393   6.895  1.00 58.63 LIG 0.04  C 
BRANCH 7 9
ATOM      9  N   ALA E  10       2.812  26.392   5.762  1.00 75.43 LIG-0.35  N 
ATOM     10  C   ALA E   9       4.065  26.544   5.337  1.00 82.21 LIG 0.24  C 
ATOM     11 O    ALA E   9       4.993  25.801   5.674  1.00 73.75 LIG-0.27  OA
ATOM     12 H    ALA E  10       2.173  26.925   5.545  1.00 75.43 LIG 0.16  HD
BRANCH 10 13
ATOM     13  CA  ALA E   9       4.319  27.728   4.413  1.00 87.65 LIG 0.17  C 
ATOM     14  CB  ALA E   9       5.814  27.927   4.177  1.00 72.21 LIG 0.04  C 
BRANCH 13 15
ATOM     15  N   ALA E   9       3.713  28.907   5.019  1.00 84.24 LIG-0.35  N 
ATOM     16 H    ALA E   9       3.048  29.227   4.578  1.00 84.24 LIG 0.16  HD
ATOM     17  C   ALA E   8       4.161  29.430   6.152  1.00 61.40 LIG 0.26  C 
ATOM     18 O    ALA E   8       5.052  28.908   6.819  1.00 66.21 LIG-0.27  OA
BRANCH 17 19
ATOM     19  CA  ALA E   8       3.485  30.717   6.616  1.00 67.03 LIG 0.40  C 
ATOM     20  N   ALA E   8       4.504  31.733   7.017  1.00 60.26 LIG 0.61  N 
ATOM     21  CB  ALA E   8       2.581  31.274   5.522  1.00 64.64 LIG 0.06  C 
ENDBRANCH 17 19
ENDBRANCH 13 15
ENDBRANCH 10 13
ENDBRANCH 7 9
ENDBRANCH 4 7
ENDBRANCH 1 3
BRANCH 1 22
ATOM     22  C   ALA E  11       4.043  21.957   4.017  1.00 81.78 LIG 0.24  C 
ATOM     23  N   ALA E  12       4.985  22.695   4.602  1.00 82.91 LIG-0.35  N 
ATOM     24 H    ALA E  12       4.832  23.323   5.170  1.00 82.91 LIG 0.16  HD
ATOM     25 O    ALA E  11       4.321  20.969   3.326  1.00 89.30 LIG-0.27  OA
BRANCH 23 26
ATOM     26  CA  ALA E  12       6.390  22.465   4.297  1.00 61.10 LIG 0.17  C 
ATOM     27  CB  ALA E  12       6.775  21.003   4.569  1.00 65.27 LIG 0.04  C 
BRANCH 26 28
ATOM     28  C   ALA E  12       6.690  22.833   2.853  1.00 54.59 LIG 0.24  C 
ATOM     29  N   ALA E  13       7.509  23.874   2.700  1.00 64.78 LIG-0.35  N 
ATOM     30 H    ALA E  13       7.898  24.276   3.353  1.00 64.78 LIG 0.16  HD
ATOM     31 O    ALA E  12       6.229  22.180   1.913  1.00 69.11 LIG-0.27  OA
BRANCH 29 32
ATOM     32  CA  ALA E  13       7.818  24.426   1.391  1.00 54.23 LIG 0.17  C 
ATOM     33  CB  ALA E  13       8.379  23.331   0.482  1.00 56.27 LIG 0.04  C 
BRANCH 32 34
ATOM     34  C   ALA E  13       6.601  25.031   0.715  1.00 65.29 LIG 0.24  C 
ATOM     35  N   ALA E  14       6.806  26.202   0.122  1.00 85.74 LIG-0.35  N 
ATOM     36 H    ALA E  14       7.557  26.619   0.143  1.00 85.74 LIG 0.16  HD
ATOM     37 O    ALA E  13       5.524  24.432   0.677  1.00 75.52 LIG-0.27  OA
BRANCH 35 38
ATOM     38  CA  ALA E  14       5.768  26.893  -0.622  1.00 94.46 LIG 0.16  C 
ATOM     39  CB  ALA E  14       5.276  26.025  -1.757  1.00106.12 LIG 0.04  C 
BRANCH 38 40
ATOM     40  C   ALA E  14       4.615  27.270   0.301  1.00 99.07 LIG 0.22  C 
ATOM     41 O    ALA E  14       4.733  28.186   1.116  1.00120.33 LIG-0.29  OA
ENDBRANCH 38 40
ENDBRANCH 35 38
ENDBRANCH 32 34
ENDBRANCH 29 32
ENDBRANCH 26 28
ENDBRANCH 23 26
ENDBRANCH 1 22
TORSDOF 13
ENDMDL
MODEL 51
USER: ADFR SOLUTION from run 33
USER: SCORE 7.972297 LL:  -2.337 LR:  -7.124 RR:   0.000 FEB:  -3.246
USER: RMSD 7.915008
USER: SEED 32
USER: STATUS no improvement in best in 37 clusters for 5 generations
USER: GENES 15
USER: genes 0 Translation |==|  0.76466 0.47299 0.71898
USER: genes 1 Rotation |==|  0.59558 0.65443 0.84993 0.80751
USER: genes 2 Torsion [CB]-CA--N-[C] |==|  0.22217
USER: genes 3 Torsion [N]-C--CA-[N] |==|  0.44064
USER: genes 4 Torsion [C]-CA--N-[C] |==|  0.53505
USER: genes 5 Torsion [N]-C--CA-[N] |==|  0.15051
USER: genes 6 Torsion [C]-CA--N-[C] |==|  0.15420
USER: genes 7 Torsion [N]-C--CA-[N] |==|  0.78035
USER: genes 8 Torsion [N]-CA--C-[N] |==|  0.08606
USER: genes 9 Torsion [C]-N--CA-[CB] |==|  0.81135
USER: genes 10 Torsion [N]-CA--C-[N] |==|  0.51175
USER: genes 11 Torsion [C]-N--CA-[CB] |==|  0.83823
USER: genes 12 Torsion [N]-CA--C-[N] |==|  0.41868
USER: genes 13 Torsion [C]-N--CA-[C] |==|  0.74321
USER: genes 14 Torsion [N]-CA--C-[O] |==|  0.03586
ROOT
ATOM      1  CA  ALA E  11       4.735  23.143   5.136  1.00 85.35 LIG 0.17  C 
ATOM      2  CB  ALA E  11       5.257  22.477   6.410  1.00 80.46 LIG 0.04  C 
ENDROOT
BRANCH 1 3
ATOM      3  N   ALA E  11       3.546  23.935   5.434  1.00 87.15 LIG-0.35  N 
ATOM      4  C   ALA E  10       3.663  25.152   5.969  1.00 62.15 LIG 0.24  C 
ATOM      5 O    ALA E  10       4.743  25.738   6.045  1.00 65.72 LIG-0.27  OA
ATOM      6 H    ALA E  11       2.799  23.556   5.239  1.00 87.15 LIG 0.16  HD
BRANCH 4 7
ATOM      7  CA  ALA E  10       2.393  25.816   6.492  1.00 66.45 LIG 0.17  C 
ATOM      8  CB  ALA E  10       1.584  26.400   5.335  1.00 58.63 LIG 0.04  C 
BRANCH 7 9
ATOM      9  N   ALA E  10       2.685  26.858   7.465  1.00 75.43 LIG-0.35  N 
ATOM     10  C   ALA E   9       1.753  27.410   8.238  1.00 82.21 LIG 0.24  C 
ATOM     11 O    ALA E   9       0.555  27.113   8.179  1.00 73.75 LIG-0.27  OA
ATOM     12 H    ALA E  10       3.515  27.085   7.492  1.00 75.43 LIG 0.16  HD
BRANCH 10 13
ATOM     13  CA  ALA E   9       2.236  28.478   9.211  1.00 87.65 LIG 0.17  C 
ATOM     14  CB  ALA E   9       1.066  29.090   9.978  1.00 72.21 LIG 0.04  C 
BRANCH 13 15
ATOM     15  N   ALA E   9       2.958  29.487   8.445  1.00 84.24 LIG-0.35  N 
ATOM     16 H    ALA E   9       3.760  29.630   8.721  1.00 84.24 LIG 0.16  HD
ATOM     17  C   ALA E   8       2.412  30.120   7.416  1.00 61.40 LIG 0.26  C 
ATOM     18 O    ALA E   8       1.299  29.837   6.976  1.00 66.21 LIG-0.27  OA
BRANCH 17 19
ATOM     19  CA  ALA E   8       3.257  31.214   6.771  1.00 67.03 LIG 0.40  C 
ATOM     20  N   ALA E   8       3.199  32.469   7.578  1.00 60.26 LIG 0.61  N 
ATOM     21  CB  ALA E   8       4.700  30.753   6.607  1.00 64.64 LIG 0.06  C 
ENDBRANCH 17 19
ENDBRANCH 13 15
ENDBRANCH 10 13
ENDBRANCH 7 9
ENDBRANCH 4 7
ENDBRANCH 1 3
BRANCH 1 22
ATOM     22  C   ALA E  11       4.453  22.092   4.069  1.00 81.78 LIG 0.24  C 
ATOM     23  N   ALA E  12       3.534  22.381   3.149  1.00 82.91 LIG-0.35  N 
ATOM     24 H    ALA E  12       3.170  23.154   3.046  1.00 82.91 LIG 0.16  HD
ATOM     25 O    ALA E  11       5.053  21.010   4.077  1.00 89.30 LIG-0.27  OA
BRANCH 23 26
ATOM     26  CA  ALA E  12       3.076  21.354   2.223  1.00 61.10 LIG 0.17  C 
ATOM     27  CB  ALA E  12       4.200  20.954   1.254  1.00 65.27 LIG 0.04  C 
BRANCH 26 28
ATOM     28  C   ALA E  12       2.571  20.138   2.982  1.00 54.59 LIG 0.24  C 
ATOM     29  N   ALA E  13       2.212  19.109   2.214  1.00 64.78 LIG-0.35  N 
ATOM     30 H    ALA E  13       2.313  19.093   1.360  1.00 64.78 LIG 0.16  HD
ATOM     31 O    ALA E  12       2.541  20.116   4.215  1.00 69.11 LIG-0.27  OA
BRANCH 29 32
ATOM     32  CA  ALA E  13       1.609  17.907   2.767  1.00 54.23 LIG 0.17  C 
ATOM     33  CB  ALA E  13       2.547  17.281   3.800  1.00 56.27 LIG 0.04  C 
BRANCH 32 34
ATOM     34  C   ALA E  13       0.276  18.184   3.438  1.00 65.29 LIG 0.24  C 
ATOM     35  N   ALA E  14      -0.588  17.175   3.419  1.00 85.74 LIG-0.35  N 
ATOM     36 H    ALA E  14      -0.434  16.426   3.027  1.00 85.74 LIG 0.16  HD
ATOM     37 O    ALA E  13       0.055  19.255   4.009  1.00 75.52 LIG-0.27  OA
BRANCH 35 38
ATOM     38  CA  ALA E  14      -1.886  17.246   4.066  1.00 94.46 LIG 0.16  C 
ATOM     39  CB  ALA E  14      -2.909  16.474   3.264  1.00106.12 LIG 0.04  C 
BRANCH 38 40
ATOM     40  C   ALA E  14      -1.800  16.702   5.488  1.00 99.07 LIG 0.22  C 
ATOM     41 O    ALA E  14      -0.708  16.504   6.022  1.00120.33 LIG-0.29  OA
ENDBRANCH 38 40
ENDBRANCH 35 38
ENDBRANCH 32 34
ENDBRANCH 29 32
ENDBRANCH 26 28
ENDBRANCH 23 26
ENDBRANCH 1 22
TORSDOF 13
ENDMDL
MODEL 52
USER: ADFR SOLUTION from run 113
USER: SCORE 8.954593 LL:  -3.820 LR:  -7.124 RR:   0.000 FEB:  -3.246
USER: RMSD 9.264283
USER: SEED 112
USER: STATUS no improvement in best in 11 clusters for 5 generations
USER: GENES 15
USER: genes 0 Translation |==|  0.86882 0.64785 0.55369
USER: genes 1 Rotation |==|  0.55448 0.82834 0.78839 0.73676
USER: genes 2 Torsion [CB]-CA--N-[C] |==|  0.78609
USER: genes 3 Torsion [N]-C--CA-[N] |==|  0.77929
USER: genes 4 Torsion [C]-CA--N-[C] |==|  0.78275
USER: genes 5 Torsion [N]-C--CA-[N] |==|  0.43097
USER: genes 6 Torsion [C]-CA--N-[C] |==|  0.82422
USER: genes 7 Torsion [N]-C--CA-[N] |==|  0.39357
USER: genes 8 Torsion [N]-CA--C-[N] |==|  0.11667
USER: genes 9 Torsion [C]-N--CA-[CB] |==|  0.80862
USER: genes 10 Torsion [N]-CA--C-[N] |==|  0.15780
USER: genes 11 Torsion [C]-N--CA-[CB] |==|  0.13183
USER: genes 12 Torsion [N]-CA--C-[N] |==|  0.16789
USER: genes 13 Torsion [C]-N--CA-[C] |==|  0.66124
USER: genes 14 Torsion [N]-CA--C-[O] |==|  0.94125
ROOT
ATOM      1  CA  ALA E  11       7.078  26.290   2.160  1.00 85.35 LIG 0.17  C 
ATOM      2  CB  ALA E  11       8.200  26.585   3.158  1.00 80.46 LIG 0.04  C 
ENDROOT
BRANCH 1 3
ATOM      3  N   ALA E  11       5.866  27.007   2.542  1.00 87.15 LIG-0.35  N 
ATOM      4  C   ALA E  10       5.106  26.561   3.546  1.00 62.15 LIG 0.24  C 
ATOM      5 O    ALA E  10       5.481  25.672   4.312  1.00 65.72 LIG-0.27  OA
ATOM      6 H    ALA E  11       5.699  27.711   2.079  1.00 87.15 LIG 0.16  HD
BRANCH 4 7
ATOM      7  CA  ALA E  10       3.732  27.198   3.725  1.00 66.45 LIG 0.17  C 
ATOM      8  CB  ALA E  10       3.045  27.366   2.371  1.00 58.63 LIG 0.04  C 
BRANCH 7 9
ATOM      9  N   ALA E  10       3.812  28.484   4.400  1.00 75.43 LIG-0.35  N 
ATOM     10  C   ALA E   9       3.973  28.604   5.716  1.00 82.21 LIG 0.24  C 
ATOM     11 O    ALA E   9       4.035  27.638   6.486  1.00 73.75 LIG-0.27  OA
ATOM     12 H    ALA E  10       3.746  29.159   3.871  1.00 75.43 LIG 0.16  HD
BRANCH 10 13
ATOM     13  CA  ALA E   9       4.051  30.026   6.255  1.00 87.65 LIG 0.17  C 
ATOM     14  CB  ALA E   9       5.461  30.593   6.104  1.00 72.21 LIG 0.04  C 
BRANCH 13 15
ATOM     15  N   ALA E   9       3.633  30.000   7.650  1.00 84.24 LIG-0.35  N 
ATOM     16 H    ALA E   9       4.247  30.231   8.206  1.00 84.24 LIG 0.16  HD
ATOM     17  C   ALA E   8       2.408  29.648   8.017  1.00 61.40 LIG 0.26  C 
ATOM     18 O    ALA E   8       1.515  29.411   7.206  1.00 66.21 LIG-0.27  OA
BRANCH 17 19
ATOM     19  CA  ALA E   8       2.144  29.580   9.518  1.00 67.03 LIG 0.40  C 
ATOM     20  N   ALA E   8       0.776  30.088   9.836  1.00 60.26 LIG 0.61  N 
ATOM     21  CB  ALA E   8       2.314  28.154  10.030  1.00 64.64 LIG 0.06  C 
ENDBRANCH 17 19
ENDBRANCH 13 15
ENDBRANCH 10 13
ENDBRANCH 7 9
ENDBRANCH 4 7
ENDBRANCH 1 3
BRANCH 1 22
ATOM     22  C   ALA E  11       6.835  24.789   2.069  1.00 81.78 LIG 0.24  C 
ATOM     23  N   ALA E  12       5.703  24.384   1.496  1.00 82.91 LIG-0.35  N 
ATOM     24 H    ALA E  12       5.154  24.898   1.078  1.00 82.91 LIG 0.16  HD
ATOM     25 O    ALA E  11       7.660  23.988   2.526  1.00 89.30 LIG-0.27  OA
BRANCH 23 26
ATOM     26  CA  ALA E  12       5.315  22.980   1.550  1.00 61.10 LIG 0.17  C 
ATOM     27  CB  ALA E  12       6.259  22.122   0.695  1.00 65.27 LIG 0.04  C 
BRANCH 26 28
ATOM     28  C   ALA E  12       5.303  22.486   2.988  1.00 54.59 LIG 0.24  C 
ATOM     29  N   ALA E  13       4.512  23.176   3.809  1.00 64.78 LIG-0.35  N 
ATOM     30 H    ALA E  13       3.994  23.812   3.551  1.00 64.78 LIG 0.16  HD
ATOM     31 O    ALA E  12       5.953  21.495   3.333  1.00 69.11 LIG-0.27  OA
BRANCH 29 32
ATOM     32  CA  ALA E  13       4.459  22.906   5.237  1.00 54.23 LIG 0.17  C 
ATOM     33  CB  ALA E  13       5.877  22.802   5.802  1.00 56.27 LIG 0.04  C 
BRANCH 32 34
ATOM     34  C   ALA E  13       3.718  23.987   6.004  1.00 65.29 LIG 0.24  C 
ATOM     35  N   ALA E  14       2.450  24.162   5.652  1.00 85.74 LIG-0.35  N 
ATOM     36 H    ALA E  14       2.070  23.730   5.014  1.00 85.74 LIG 0.16  HD
ATOM     37 O    ALA E  13       4.257  24.603   6.927  1.00 75.52 LIG-0.27  OA
BRANCH 35 38
ATOM     38  CA  ALA E  14       1.577  25.110   6.322  1.00 94.46 LIG 0.16  C 
ATOM     39  CB  ALA E  14       1.157  26.199   5.361  1.00106.12 LIG 0.04  C 
BRANCH 38 40
ATOM     40  C   ALA E  14       0.355  24.397   6.889  1.00 99.07 LIG 0.22  C 
ATOM     41 O    ALA E  14       0.002  23.303   6.447  1.00120.33 LIG-0.29  OA
ENDBRANCH 38 40
ENDBRANCH 35 38
ENDBRANCH 32 34
ENDBRANCH 29 32
ENDBRANCH 26 28
ENDBRANCH 23 26
ENDBRANCH 1 22
TORSDOF 13
ENDMDL
MODEL 53
USER: ADFR SOLUTION from run 165
USER: SCORE 9.307607 LL:  -3.481 LR:  -7.095 RR:   0.000 FEB:  -3.217
USER: RMSD 7.598090
USER: SEED 164
USER: STATUS no improvement in best in 31 clusters for 5 generations
USER: GENES 15
USER: genes 0 Translation |==|  0.82062 0.41193 0.66021
USER: genes 1 Rotation |==|  0.80329 0.61574 0.69924 0.82392
USER: genes 2 Torsion [CB]-CA--N-[C] |==|  0.79399
USER: genes 3 Torsion [N]-C--CA-[N] |==|  0.36011
USER: genes 4 Torsion [C]-CA--N-[C] |==|  0.71165
USER: genes 5 Torsion [N]-C--CA-[N] |==|  0.19771
USER: genes 6 Torsion [C]-CA--N-[C] |==|  0.14343
USER: genes 7 Torsion [N]-C--CA-[N] |==|  0.63267
USER: genes 8 Torsion [N]-CA--C-[N] |==|  0.13093
USER: genes 9 Torsion [C]-N--CA-[CB] |==|  0.84220
USER: genes 10 Torsion [N]-CA--C-[N] |==|  0.39697
USER: genes 11 Torsion [C]-N--CA-[CB] |==|  0.84330
USER: genes 12 Torsion [N]-CA--C-[N] |==|  0.40380
USER: genes 13 Torsion [C]-N--CA-[C] |==|  0.80580
USER: genes 14 Torsion [N]-CA--C-[O] |==|  0.01967
ROOT
ATOM      1  CA  ALA E  11       5.994  22.044   4.078  1.00 85.35 LIG 0.17  C 
ATOM      2  CB  ALA E  11       6.265  20.624   4.579  1.00 80.46 LIG 0.04  C 
ENDROOT
BRANCH 1 3
ATOM      3  N   ALA E  11       5.983  22.978   5.198  1.00 87.15 LIG-0.35  N 
ATOM      4  C   ALA E  10       4.948  23.010   6.041  1.00 62.15 LIG 0.24  C 
ATOM      5 O    ALA E  10       4.073  22.143   6.043  1.00 65.72 LIG-0.27  OA
ATOM      6 H    ALA E  11       6.678  23.481   5.259  1.00 87.15 LIG 0.16  HD
BRANCH 4 7
ATOM      7  CA  ALA E  10       4.878  24.171   7.027  1.00 66.45 LIG 0.17  C 
ATOM      8  CB  ALA E  10       5.198  23.688   8.441  1.00 58.63 LIG 0.04  C 
BRANCH 7 9
ATOM      9  N   ALA E  10       3.576  24.820   7.011  1.00 75.43 LIG-0.35  N 
ATOM     10  C   ALA E   9       3.357  25.992   6.417  1.00 82.21 LIG 0.24  C 
ATOM     11 O    ALA E   9       4.242  26.648   5.857  1.00 73.75 LIG-0.27  OA
ATOM     12 H    ALA E  10       2.963  24.378   7.421  1.00 75.43 LIG 0.16  HD
BRANCH 10 13
ATOM     13  CA  ALA E   9       1.930  26.520   6.485  1.00 87.65 LIG 0.17  C 
ATOM     14  CB  ALA E   9       1.725  27.673   5.506  1.00 72.21 LIG 0.04  C 
BRANCH 13 15
ATOM     15  N   ALA E   9       1.671  26.934   7.858  1.00 84.24 LIG-0.35  N 
ATOM     16 H    ALA E   9       0.954  26.602   8.197  1.00 84.24 LIG 0.16  HD
ATOM     17  C   ALA E   8       2.480  27.754   8.516  1.00 61.40 LIG 0.26  C 
ATOM     18 O    ALA E   8       3.549  28.146   8.051  1.00 66.21 LIG-0.27  OA
BRANCH 17 19
ATOM     19  CA  ALA E   8       2.031  28.171   9.913  1.00 67.03 LIG 0.40  C 
ATOM     20  N   ALA E   8       2.155  29.649  10.087  1.00 60.26 LIG 0.61  N 
ATOM     21  CB  ALA E   8       0.597  27.723  10.172  1.00 64.64 LIG 0.06  C 
ENDBRANCH 17 19
ENDBRANCH 13 15
ENDBRANCH 10 13
ENDBRANCH 7 9
ENDBRANCH 4 7
ENDBRANCH 1 3
BRANCH 1 22
ATOM     22  C   ALA E  11       4.684  22.088   3.302  1.00 81.78 LIG 0.24  C 
ATOM     23  N   ALA E  12       4.201  23.286   2.978  1.00 82.91 LIG-0.35  N 
ATOM     24 H    ALA E  12       4.625  24.028   3.077  1.00 82.91 LIG 0.16  HD
ATOM     25 O    ALA E  11       4.095  21.043   3.000  1.00 89.30 LIG-0.27  OA
BRANCH 23 26
ATOM     26  CA  ALA E  12       2.864  23.410   2.413  1.00 61.10 LIG 0.17  C 
ATOM     27  CB  ALA E  12       2.731  22.562   1.138  1.00 65.27 LIG 0.04  C 
BRANCH 26 28
ATOM     28  C   ALA E  12       1.813  23.003   3.433  1.00 54.59 LIG 0.24  C 
ATOM     29  N   ALA E  13       0.695  23.727   3.402  1.00 64.78 LIG-0.35  N 
ATOM     30 H    ALA E  13       0.536  24.336   2.816  1.00 64.78 LIG 0.16  HD
ATOM     31 O    ALA E  12       1.991  22.048   4.194  1.00 69.11 LIG-0.27  OA
BRANCH 29 32
ATOM     32  CA  ALA E  13      -0.371  23.543   4.375  1.00 54.23 LIG 0.17  C 
ATOM     33  CB  ALA E  13      -0.839  22.088   4.367  1.00 56.27 LIG 0.04  C 
BRANCH 32 34
ATOM     34  C   ALA E  13       0.066  23.896   5.785  1.00 65.29 LIG 0.24  C 
ATOM     35  N   ALA E  14      -0.873  24.442   6.549  1.00 85.74 LIG-0.35  N 
ATOM     36 H    ALA E  14      -1.665  24.624   6.270  1.00 85.74 LIG 0.16  HD
ATOM     37 O    ALA E  13       1.199  23.629   6.192  1.00 75.52 LIG-0.27  OA
BRANCH 35 38
ATOM     38  CA  ALA E  14      -0.647  24.786   7.942  1.00 94.46 LIG 0.16  C 
ATOM     39  CB  ALA E  14      -1.776  25.650   8.455  1.00106.12 LIG 0.04  C 
BRANCH 38 40
ATOM     40  C   ALA E  14      -0.514  23.522   8.785  1.00 99.07 LIG 0.22  C 
ATOM     41 O    ALA E  14      -0.472  22.412   8.254  1.00120.33 LIG-0.29  OA
ENDBRANCH 38 40
ENDBRANCH 35 38
ENDBRANCH 32 34
ENDBRANCH 29 32
ENDBRANCH 26 28
ENDBRANCH 23 26
ENDBRANCH 1 22
TORSDOF 13
ENDMDL
MODEL 54
USER: ADFR SOLUTION from run 78
USER: SCORE 8.620642 LL:  -2.893 LR:  -7.077 RR:   0.000 FEB:  -3.199
USER: RMSD 9.911513
USER: SEED 77
USER: STATUS no improvement in best in 39 clusters for 5 generations
USER: GENES 15
USER: genes 0 Translation |==|  0.81092 0.41578 0.82232
USER: genes 1 Rotation |==|  0.48450 0.69856 0.19682 0.84412
USER: genes 2 Torsion [CB]-CA--N-[C] |==|  0.74096
USER: genes 3 Torsion [N]-C--CA-[N] |==|  0.30000
USER: genes 4 Torsion [C]-CA--N-[C] |==|  0.84234
USER: genes 5 Torsion [N]-C--CA-[N] |==|  0.42708
USER: genes 6 Torsion [C]-CA--N-[C] |==|  0.80256
USER: genes 7 Torsion [N]-C--CA-[N] |==|  0.41060
USER: genes 8 Torsion [N]-CA--C-[N] |==|  0.13395
USER: genes 9 Torsion [C]-N--CA-[CB] |==|  0.79306
USER: genes 10 Torsion [N]-CA--C-[N] |==|  0.24688
USER: genes 11 Torsion [C]-N--CA-[CB] |==|  0.54036
USER: genes 12 Torsion [N]-CA--C-[N] |==|  0.41734
USER: genes 13 Torsion [C]-N--CA-[C] |==|  0.18668
USER: genes 14 Torsion [N]-CA--C-[O] |==|  0.16693
ROOT
ATOM      1  CA  ALA E  11       5.776  22.113   6.996  1.00 85.35 LIG 0.17  C 
ATOM      2  CB  ALA E  11       6.893  22.501   7.966  1.00 80.46 LIG 0.04  C 
ENDROOT
BRANCH 1 3
ATOM      3  N   ALA E  11       6.340  21.748   5.701  1.00 87.15 LIG-0.35  N 
ATOM      4  C   ALA E  10       6.460  22.662   4.734  1.00 62.15 LIG 0.24  C 
ATOM      5 O    ALA E  10       6.301  23.865   4.942  1.00 65.72 LIG-0.27  OA
ATOM      6 H    ALA E  11       6.577  20.924   5.626  1.00 87.15 LIG 0.16  HD
BRANCH 4 7
ATOM      7  CA  ALA E  10       6.811  22.166   3.336  1.00 66.45 LIG 0.17  C 
ATOM      8  CB  ALA E  10       7.993  22.954   2.774  1.00 58.63 LIG 0.04  C 
BRANCH 7 9
ATOM      9  N   ALA E  10       5.679  22.260   2.426  1.00 75.43 LIG-0.35  N 
ATOM     10  C   ALA E   9       4.507  21.674   2.663  1.00 82.21 LIG 0.24  C 
ATOM     11 O    ALA E   9       4.285  20.973   3.656  1.00 73.75 LIG-0.27  OA
ATOM     12 H    ALA E  10       5.838  22.727   1.722  1.00 75.43 LIG 0.16  HD
BRANCH 10 13
ATOM     13  CA  ALA E   9       3.428  21.887   1.610  1.00 87.65 LIG 0.17  C 
ATOM     14  CB  ALA E   9       2.696  23.208   1.835  1.00 72.21 LIG 0.04  C 
BRANCH 13 15
ATOM     15  N   ALA E   9       2.514  20.754   1.670  1.00 84.24 LIG-0.35  N 
ATOM     16 H    ALA E   9       1.740  20.944   1.995  1.00 84.24 LIG 0.16  HD
ATOM     17  C   ALA E   8       2.858  19.543   1.257  1.00 61.40 LIG 0.26  C 
ATOM     18 O    ALA E   8       3.934  19.309   0.708  1.00 66.21 LIG-0.27  OA
BRANCH 17 19
ATOM     19  CA  ALA E   8       1.828  18.438   1.467  1.00 67.03 LIG 0.40  C 
ATOM     20  N   ALA E   8       1.918  17.419   0.378  1.00 60.26 LIG 0.61  N 
ATOM     21  CB  ALA E   8       2.017  17.778   2.828  1.00 64.64 LIG 0.06  C 
ENDBRANCH 17 19
ENDBRANCH 13 15
ENDBRANCH 10 13
ENDBRANCH 7 9
ENDBRANCH 4 7
ENDBRANCH 1 3
BRANCH 1 22
ATOM     22  C   ALA E  11       4.771  23.251   6.866  1.00 81.78 LIG 0.24  C 
ATOM     23  N   ALA E  12       3.840  23.145   5.919  1.00 82.91 LIG-0.35  N 
ATOM     24 H    ALA E  12       3.696  22.437   5.451  1.00 82.91 LIG 0.16  HD
ATOM     25 O    ALA E  11       4.836  24.236   7.611  1.00 89.30 LIG-0.27  OA
BRANCH 23 26
ATOM     26  CA  ALA E  12       2.975  24.276   5.612  1.00 61.10 LIG 0.17  C 
ATOM     27  CB  ALA E  12       1.918  24.467   6.710  1.00 65.27 LIG 0.04  C 
BRANCH 26 28
ATOM     28  C   ALA E  12       3.796  25.543   5.437  1.00 54.59 LIG 0.24  C 
ATOM     29  N   ALA E  13       4.230  25.761   4.196  1.00 64.78 LIG-0.35  N 
ATOM     30 H    ALA E  13       4.018  25.270   3.522  1.00 64.78 LIG 0.16  HD
ATOM     31 O    ALA E  12       3.998  26.314   6.379  1.00 69.11 LIG-0.27  OA
BRANCH 29 32
ATOM     32  CA  ALA E  13       5.114  26.869   3.871  1.00 54.23 LIG 0.17  C 
ATOM     33  CB  ALA E  13       5.150  27.082   2.357  1.00 56.27 LIG 0.04  C 
BRANCH 32 34
ATOM     34  C   ALA E  13       4.680  28.168   4.526  1.00 65.29 LIG 0.24  C 
ATOM     35  N   ALA E  14       5.662  29.016   4.809  1.00 85.74 LIG-0.35  N 
ATOM     36 H    ALA E  14       6.493  28.842   4.672  1.00 85.74 LIG 0.16  HD
ATOM     37 O    ALA E  13       3.488  28.423   4.715  1.00 75.52 LIG-0.27  OA
BRANCH 35 38
ATOM     38  CA  ALA E  14       5.421  30.328   5.381  1.00 94.46 LIG 0.16  C 
ATOM     39  CB  ALA E  14       4.454  31.103   4.515  1.00106.12 LIG 0.04  C 
BRANCH 38 40
ATOM     40  C   ALA E  14       4.880  30.197   6.800  1.00 99.07 LIG 0.22  C 
ATOM     41 O    ALA E  14       5.537  29.632   7.675  1.00120.33 LIG-0.29  OA
ENDBRANCH 38 40
ENDBRANCH 35 38
ENDBRANCH 32 34
ENDBRANCH 29 32
ENDBRANCH 26 28
ENDBRANCH 23 26
ENDBRANCH 1 22
TORSDOF 13
ENDMDL
MODEL 55
USER: ADFR SOLUTION from run 163
USER: SCORE 8.874148 LL:  -3.343 LR:  -7.082 RR:   0.000 FEB:  -3.205
USER: RMSD 9.448980
USER: SEED 162
USER: STATUS no improvement in best in 29 clusters for 5 generations
USER: GENES 15
USER: genes 0 Translation |==|  0.81451 0.41653 0.82321
USER: genes 1 Rotation |==|  0.48385 0.69964 0.19343 0.84044
USER: genes 2 Torsion [CB]-CA--N-[C] |==|  0.74035
USER: genes 3 Torsion [N]-C--CA-[N] |==|  0.28889
USER: genes 4 Torsion [C]-CA--N-[C] |==|  0.84720
USER: genes 5 Torsion [N]-C--CA-[N] |==|  0.88260
USER: genes 6 Torsion [C]-CA--N-[C] |==|  0.76858
USER: genes 7 Torsion [N]-C--CA-[N] |==|  0.15277
USER: genes 8 Torsion [N]-CA--C-[N] |==|  0.13993
USER: genes 9 Torsion [C]-N--CA-[CB] |==|  0.77942
USER: genes 10 Torsion [N]-CA--C-[N] |==|  0.21779
USER: genes 11 Torsion [C]-N--CA-[CB] |==|  0.53937
USER: genes 12 Torsion [N]-CA--C-[N] |==|  0.42336
USER: genes 13 Torsion [C]-N--CA-[C] |==|  0.20409
USER: genes 14 Torsion [N]-CA--C-[O] |==|  0.08265
ROOT
ATOM      1  CA  ALA E  11       5.856  22.127   7.012  1.00 85.35 LIG 0.17  C 
ATOM      2  CB  ALA E  11       6.990  22.500   7.969  1.00 80.46 LIG 0.04  C 
ENDROOT
BRANCH 1 3
ATOM      3  N   ALA E  11       6.401  21.745   5.713  1.00 87.15 LIG-0.35  N 
ATOM      4  C   ALA E  10       6.523  22.651   4.740  1.00 62.15 LIG 0.24  C 
ATOM      5 O    ALA E  10       6.384  23.858   4.941  1.00 65.72 LIG-0.27  OA
ATOM      6 H    ALA E  11       6.626  20.918   5.641  1.00 87.15 LIG 0.16  HD
BRANCH 4 7
ATOM      7  CA  ALA E  10       6.852  22.142   3.341  1.00 66.45 LIG 0.17  C 
ATOM      8  CB  ALA E  10       7.973  22.974   2.722  1.00 58.63 LIG 0.04  C 
BRANCH 7 9
ATOM      9  N   ALA E  10       5.687  22.158   2.468  1.00 75.43 LIG-0.35  N 
ATOM     10  C   ALA E   9       4.544  21.549   2.773  1.00 82.21 LIG 0.24  C 
ATOM     11 O    ALA E   9       4.378  20.888   3.805  1.00 73.75 LIG-0.27  OA
ATOM     12 H    ALA E  10       5.807  22.597   1.738  1.00 75.43 LIG 0.16  HD
BRANCH 10 13
ATOM     13  CA  ALA E   9       3.422  21.679   1.751  1.00 87.65 LIG 0.17  C 
ATOM     14  CB  ALA E   9       3.613  20.696   0.599  1.00 72.21 LIG 0.04  C 
BRANCH 13 15
ATOM     15  N   ALA E   9       3.406  23.058   1.279  1.00 84.24 LIG-0.35  N 
ATOM     16 H    ALA E   9       3.829  23.181   0.540  1.00 84.24 LIG 0.16  HD
ATOM     17  C   ALA E   8       2.788  24.027   1.940  1.00 61.40 LIG 0.26  C 
ATOM     18 O    ALA E   8       2.110  23.817   2.944  1.00 66.21 LIG-0.27  OA
BRANCH 17 19
ATOM     19  CA  ALA E   8       2.934  25.434   1.371  1.00 67.03 LIG 0.40  C 
ATOM     20  N   ALA E   8       2.502  25.472  -0.059  1.00 60.26 LIG 0.61  N 
ATOM     21  CB  ALA E   8       2.130  26.434   2.195  1.00 64.64 LIG 0.06  C 
ENDBRANCH 17 19
ENDBRANCH 13 15
ENDBRANCH 10 13
ENDBRANCH 7 9
ENDBRANCH 4 7
ENDBRANCH 1 3
BRANCH 1 22
ATOM     22  C   ALA E  11       4.870  23.281   6.886  1.00 81.78 LIG 0.24  C 
ATOM     23  N   ALA E  12       3.902  23.167   5.979  1.00 82.91 LIG-0.35  N 
ATOM     24 H    ALA E  12       3.726  22.449   5.538  1.00 82.91 LIG 0.16  HD
ATOM     25 O    ALA E  11       4.984  24.286   7.598  1.00 89.30 LIG-0.27  OA
BRANCH 23 26
ATOM     26  CA  ALA E  12       3.048  24.306   5.671  1.00 61.10 LIG 0.17  C 
ATOM     27  CB  ALA E  12       1.961  24.478   6.742  1.00 65.27 LIG 0.04  C 
BRANCH 26 28
ATOM     28  C   ALA E  12       3.876  25.575   5.546  1.00 54.59 LIG 0.24  C 
ATOM     29  N   ALA E  13       4.525  25.707   4.389  1.00 64.78 LIG-0.35  N 
ATOM     30 H    ALA E  13       4.442  25.161   3.730  1.00 64.78 LIG 0.16  HD
ATOM     31 O    ALA E  12       3.899  26.420   6.446  1.00 69.11 LIG-0.27  OA
BRANCH 29 32
ATOM     32  CA  ALA E  13       5.444  26.806   4.142  1.00 54.23 LIG 0.17  C 
ATOM     33  CB  ALA E  13       5.758  26.898   2.648  1.00 56.27 LIG 0.04  C 
BRANCH 32 34
ATOM     34  C   ALA E  13       4.884  28.143   4.595  1.00 65.29 LIG 0.24  C 
ATOM     35  N   ALA E  14       5.791  29.050   4.940  1.00 85.74 LIG-0.35  N 
ATOM     36 H    ALA E  14       6.637  28.896   4.947  1.00 85.74 LIG 0.16  HD
ATOM     37 O    ALA E  13       3.672  28.370   4.578  1.00 75.52 LIG-0.27  OA
BRANCH 35 38
ATOM     38  CA  ALA E  14       5.435  30.399   5.340  1.00 94.46 LIG 0.16  C 
ATOM     39  CB  ALA E  14       4.470  31.000   4.342  1.00106.12 LIG 0.04  C 
BRANCH 38 40
ATOM     40  C   ALA E  14       4.825  30.394   6.737  1.00 99.07 LIG 0.22  C 
ATOM     41 O    ALA E  14       5.154  29.545   7.565  1.00120.33 LIG-0.29  OA
ENDBRANCH 38 40
ENDBRANCH 35 38
ENDBRANCH 32 34
ENDBRANCH 29 32
ENDBRANCH 26 28
ENDBRANCH 23 26
ENDBRANCH 1 22
TORSDOF 13
ENDMDL
MODEL 56
USER: ADFR SOLUTION from run 156
USER: SCORE 8.557311 LL:  -3.590 LR:  -7.081 RR:   0.000 FEB:  -3.203
USER: RMSD 10.157064
USER: SEED 155
USER: STATUS no improvement in best in 31 clusters for 5 generations
USER: GENES 15
USER: genes 0 Translation |==|  0.86339 0.40151 0.68992
USER: genes 1 Rotation |==|  0.78398 0.39686 0.70269 0.84298
USER: genes 2 Torsion [CB]-CA--N-[C] |==|  0.80975
USER: genes 3 Torsion [N]-C--CA-[N] |==|  0.46900
USER: genes 4 Torsion [C]-CA--N-[C] |==|  0.77509
USER: genes 5 Torsion [N]-C--CA-[N] |==|  0.18329
USER: genes 6 Torsion [C]-CA--N-[C] |==|  0.16101
USER: genes 7 Torsion [N]-C--CA-[N] |==|  0.63138
USER: genes 8 Torsion [N]-CA--C-[N] |==|  0.10203
USER: genes 9 Torsion [C]-N--CA-[CB] |==|  0.19253
USER: genes 10 Torsion [N]-CA--C-[N] |==|  0.98725
USER: genes 11 Torsion [C]-N--CA-[CB] |==|  0.80000
USER: genes 12 Torsion [N]-CA--C-[N] |==|  0.24418
USER: genes 13 Torsion [C]-N--CA-[C] |==|  0.56919
USER: genes 14 Torsion [N]-CA--C-[O] |==|  0.95364
ROOT
ATOM      1  CA  ALA E  11       6.956  21.856   4.613  1.00 85.35 LIG 0.17  C 
ATOM      2  CB  ALA E  11       6.248  20.501   4.569  1.00 80.46 LIG 0.04  C 
ENDROOT
BRANCH 1 3
ATOM      3  N   ALA E  11       6.618  22.560   5.845  1.00 87.15 LIG-0.35  N 
ATOM      4  C   ALA E  10       5.378  23.016   6.043  1.00 62.15 LIG 0.24  C 
ATOM      5 O    ALA E  10       4.435  22.698   5.318  1.00 65.72 LIG-0.27  OA
ATOM      6 H    ALA E  11       7.265  22.647   6.404  1.00 87.15 LIG 0.16  HD
BRANCH 4 7
ATOM      7  CA  ALA E  10       5.155  23.959   7.220  1.00 66.45 LIG 0.17  C 
ATOM      8  CB  ALA E  10       5.327  23.210   8.541  1.00 58.63 LIG 0.04  C 
BRANCH 7 9
ATOM      9  N   ALA E  10       3.842  24.584   7.176  1.00 75.43 LIG-0.35  N 
ATOM     10  C   ALA E   9       3.568  25.643   6.417  1.00 82.21 LIG 0.24  C 
ATOM     11 O    ALA E   9       4.408  26.210   5.709  1.00 73.75 LIG-0.27  OA
ATOM     12 H    ALA E  10       3.261  24.207   7.685  1.00 75.43 LIG 0.16  HD
BRANCH 10 13
ATOM     13  CA  ALA E   9       2.137  26.160   6.482  1.00 87.65 LIG 0.17  C 
ATOM     14  CB  ALA E   9       1.894  27.234   5.423  1.00 72.21 LIG 0.04  C 
BRANCH 13 15
ATOM     15  N   ALA E   9       1.907  26.675   7.826  1.00 84.24 LIG-0.35  N 
ATOM     16 H    ALA E   9       1.253  26.299   8.239  1.00 84.24 LIG 0.16  HD
ATOM     17  C   ALA E   8       2.650  27.639   8.352  1.00 61.40 LIG 0.26  C 
ATOM     18 O    ALA E   8       3.639  28.099   7.785  1.00 66.21 LIG-0.27  OA
BRANCH 17 19
ATOM     19  CA  ALA E   8       2.233  28.136   9.732  1.00 67.03 LIG 0.40  C 
ATOM     20  N   ALA E   8       2.204  29.629   9.768  1.00 60.26 LIG 0.61  N 
ATOM     21  CB  ALA E   8       0.871  27.569  10.120  1.00 64.64 LIG 0.06  C 
ENDBRANCH 17 19
ENDBRANCH 13 15
ENDBRANCH 10 13
ENDBRANCH 7 9
ENDBRANCH 4 7
ENDBRANCH 1 3
BRANCH 1 22
ATOM     22  C   ALA E  11       6.596  22.679   3.382  1.00 81.78 LIG 0.24  C 
ATOM     23  N   ALA E  12       6.769  23.998   3.452  1.00 82.91 LIG-0.35  N 
ATOM     24 H    ALA E  12       7.170  24.406   4.095  1.00 82.91 LIG 0.16  HD
ATOM     25 O    ALA E  11       6.149  22.132   2.367  1.00 89.30 LIG-0.27  OA
BRANCH 23 26
ATOM     26  CA  ALA E  12       6.266  24.861   2.392  1.00 61.10 LIG 0.17  C 
ATOM     27  CB  ALA E  12       4.730  24.896   2.401  1.00 65.27 LIG 0.04  C 
BRANCH 26 28
ATOM     28  C   ALA E  12       6.830  26.265   2.535  1.00 54.59 LIG 0.24  C 
ATOM     29  N   ALA E  13       7.575  26.460   3.623  1.00 64.78 LIG-0.35  N 
ATOM     30 H    ALA E  13       7.785  25.836   4.177  1.00 64.78 LIG 0.16  HD
ATOM     31 O    ALA E  12       6.632  27.129   1.677  1.00 69.11 LIG-0.27  OA
BRANCH 29 32
ATOM     32  CA  ALA E  13       8.107  27.768   3.971  1.00 54.23 LIG 0.17  C 
ATOM     33  CB  ALA E  13       9.234  28.146   3.009  1.00 56.27 LIG 0.04  C 
BRANCH 32 34
ATOM     34  C   ALA E  13       7.049  28.856   3.917  1.00 65.29 LIG 0.24  C 
ATOM     35  N   ALA E  14       6.360  29.033   5.039  1.00 85.74 LIG-0.35  N 
ATOM     36 H    ALA E  14       6.467  28.550   5.742  1.00 85.74 LIG 0.16  HD
ATOM     37 O    ALA E  13       6.899  29.556   2.912  1.00 75.52 LIG-0.27  OA
BRANCH 35 38
ATOM     38  CA  ALA E  14       5.353  30.069   5.182  1.00 94.46 LIG 0.16  C 
ATOM     39  CB  ALA E  14       4.039  29.602   4.599  1.00106.12 LIG 0.04  C 
BRANCH 38 40
ATOM     40  C   ALA E  14       5.184  30.443   6.650  1.00 99.07 LIG 0.22  C 
ATOM     41 O    ALA E  14       5.606  29.706   7.541  1.00120.33 LIG-0.29  OA
ENDBRANCH 38 40
ENDBRANCH 35 38
ENDBRANCH 32 34
ENDBRANCH 29 32
ENDBRANCH 26 28
ENDBRANCH 23 26
ENDBRANCH 1 22
TORSDOF 13
ENDMDL
MODEL 57
USER: ADFR SOLUTION from run 167
USER: SCORE 7.808057 LL:  -2.561 LR:  -7.083 RR:   0.000 FEB:  -3.206
USER: RMSD 9.933879
USER: SEED 166
USER: STATUS no improvement in best in 49 clusters for 5 generations
USER: GENES 15
USER: genes 0 Translation |==|  0.65532 0.55681 0.79258
USER: genes 1 Rotation |==|  0.29010 0.28368 0.74291 0.81645
USER: genes 2 Torsion [CB]-CA--N-[C] |==|  0.52159
USER: genes 3 Torsion [N]-C--CA-[N] |==|  0.29087
USER: genes 4 Torsion [C]-CA--N-[C] |==|  0.60170
USER: genes 5 Torsion [N]-C--CA-[N] |==|  0.89112
USER: genes 6 Torsion [C]-CA--N-[C] |==|  0.85566
USER: genes 7 Torsion [N]-C--CA-[N] |==|  0.23318
USER: genes 8 Torsion [N]-CA--C-[N] |==|  0.23907
USER: genes 9 Torsion [C]-N--CA-[CB] |==|  0.75175
USER: genes 10 Torsion [N]-CA--C-[N] |==|  0.19107
USER: genes 11 Torsion [C]-N--CA-[CB] |==|  0.17566
USER: genes 12 Torsion [N]-CA--C-[N] |==|  0.10050
USER: genes 13 Torsion [C]-N--CA-[C] |==|  0.77645
USER: genes 14 Torsion [N]-CA--C-[O] |==|  0.93847
ROOT
ATOM      1  CA  ALA E  11       2.275  24.652   6.460  1.00 85.35 LIG 0.17  C 
ATOM      2  CB  ALA E  11       0.920  24.001   6.176  1.00 80.46 LIG 0.04  C 
ENDROOT
BRANCH 1 3
ATOM      3  N   ALA E  11       2.534  25.714   5.495  1.00 87.15 LIG-0.35  N 
ATOM      4  C   ALA E  10       3.726  26.315   5.456  1.00 62.15 LIG 0.24  C 
ATOM      5 O    ALA E  10       4.703  25.882   6.069  1.00 65.72 LIG-0.27  OA
ATOM      6 H    ALA E  11       1.874  25.905   4.977  1.00 87.15 LIG 0.16  HD
BRANCH 4 7
ATOM      7  CA  ALA E  10       3.850  27.579   4.612  1.00 66.45 LIG 0.17  C 
ATOM      8  CB  ALA E  10       5.098  27.509   3.732  1.00 58.63 LIG 0.04  C 
BRANCH 7 9
ATOM      9  N   ALA E  10       3.893  28.780   5.433  1.00 75.43 LIG-0.35  N 
ATOM     10  C   ALA E   9       3.319  29.925   5.072  1.00 82.21 LIG 0.24  C 
ATOM     11 O    ALA E   9       2.729  30.083   3.998  1.00 73.75 LIG-0.27  OA
ATOM     12 H    ALA E  10       4.324  28.680   6.171  1.00 75.43 LIG 0.16  HD
BRANCH 10 13
ATOM     13  CA  ALA E   9       3.450  31.079   6.058  1.00 87.65 LIG 0.17  C 
ATOM     14  CB  ALA E   9       4.786  31.798   5.886  1.00 72.21 LIG 0.04  C 
BRANCH 13 15
ATOM     15  N   ALA E   9       3.306  30.537   7.403  1.00 84.24 LIG-0.35  N 
ATOM     16 H    ALA E   9       3.942  30.756   7.940  1.00 84.24 LIG 0.16  HD
ATOM     17  C   ALA E   8       2.280  29.774   7.754  1.00 61.40 LIG 0.26  C 
ATOM     18 O    ALA E   8       1.334  29.547   7.002  1.00 66.21 LIG-0.27  OA
BRANCH 17 19
ATOM     19  CA  ALA E   8       2.313  29.205   9.169  1.00 67.03 LIG 0.40  C 
ATOM     20  N   ALA E   8       1.777  30.199  10.148  1.00 60.26 LIG 0.61  N 
ATOM     21  CB  ALA E   8       1.520  27.905   9.245  1.00 64.64 LIG 0.06  C 
ENDBRANCH 17 19
ENDBRANCH 13 15
ENDBRANCH 10 13
ENDBRANCH 7 9
ENDBRANCH 4 7
ENDBRANCH 1 3
BRANCH 1 22
ATOM     22  C   ALA E  11       3.378  23.601   6.445  1.00 81.78 LIG 0.24  C 
ATOM     23  N   ALA E  12       4.450  23.822   7.204  1.00 82.91 LIG-0.35  N 
ATOM     24 H    ALA E  12       4.517  24.455   7.783  1.00 82.91 LIG 0.16  HD
ATOM     25 O    ALA E  11       3.274  22.590   5.739  1.00 89.30 LIG-0.27  OA
BRANCH 23 26
ATOM     26  CA  ALA E  12       5.620  22.963   7.088  1.00 61.10 LIG 0.17  C 
ATOM     27  CB  ALA E  12       5.514  21.766   8.045  1.00 65.27 LIG 0.04  C 
BRANCH 26 28
ATOM     28  C   ALA E  12       5.791  22.484   5.656  1.00 54.59 LIG 0.24  C 
ATOM     29  N   ALA E  13       6.136  23.434   4.786  1.00 64.78 LIG-0.35  N 
ATOM     30 H    ALA E  13       6.315  24.245   5.011  1.00 64.78 LIG 0.16  HD
ATOM     31 O    ALA E  12       5.653  21.296   5.354  1.00 69.11 LIG-0.27  OA
BRANCH 29 32
ATOM     32  CA  ALA E  13       6.240  23.174   3.360  1.00 54.23 LIG 0.17  C 
ATOM     33  CB  ALA E  13       4.873  22.778   2.800  1.00 56.27 LIG 0.04  C 
BRANCH 32 34
ATOM     34  C   ALA E  13       6.741  24.380   2.586  1.00 65.29 LIG 0.24  C 
ATOM     35  N   ALA E  14       7.653  25.115   3.211  1.00 85.74 LIG-0.35  N 
ATOM     36 H    ALA E  14       7.924  24.956   4.011  1.00 85.74 LIG 0.16  HD
ATOM     37 O    ALA E  13       6.361  24.607   1.434  1.00 75.52 LIG-0.27  OA
BRANCH 35 38
ATOM     38  CA  ALA E  14       8.284  26.269   2.594  1.00 94.46 LIG 0.16  C 
ATOM     39  CB  ALA E  14       8.817  27.201   3.658  1.00106.12 LIG 0.04  C 
BRANCH 38 40
ATOM     40  C   ALA E  14       9.406  25.824   1.663  1.00 99.07 LIG 0.22  C 
ATOM     41 O    ALA E  14       9.942  24.724   1.802  1.00120.33 LIG-0.29  OA
ENDBRANCH 38 40
ENDBRANCH 35 38
ENDBRANCH 32 34
ENDBRANCH 29 32
ENDBRANCH 26 28
ENDBRANCH 23 26
ENDBRANCH 1 22
TORSDOF 13
ENDMDL
MODEL 58
USER: ADFR SOLUTION from run 119
USER: SCORE 8.438086 LL:  -3.151 LR:  -7.066 RR:   0.000 FEB:  -3.188
USER: RMSD 9.702013
USER: SEED 118
USER: STATUS no improvement in best in 39 clusters for 5 generations
USER: GENES 15
USER: genes 0 Translation |==|  0.82395 0.38621 0.74205
USER: genes 1 Rotation |==|  0.47526 0.65098 0.36135 0.95538
USER: genes 2 Torsion [CB]-CA--N-[C] |==|  0.78667
USER: genes 3 Torsion [N]-C--CA-[N] |==|  0.33401
USER: genes 4 Torsion [C]-CA--N-[C] |==|  0.85554
USER: genes 5 Torsion [N]-C--CA-[N] |==|  0.45280
USER: genes 6 Torsion [C]-CA--N-[C] |==|  0.81954
USER: genes 7 Torsion [N]-C--CA-[N] |==|  0.27942
USER: genes 8 Torsion [N]-CA--C-[N] |==|  0.18186
USER: genes 9 Torsion [C]-N--CA-[CB] |==|  0.23113
USER: genes 10 Torsion [N]-CA--C-[N] |==|  0.09432
USER: genes 11 Torsion [C]-N--CA-[CB] |==|  0.13726
USER: genes 12 Torsion [N]-CA--C-[N] |==|  0.21111
USER: genes 13 Torsion [C]-N--CA-[C] |==|  0.48356
USER: genes 14 Torsion [N]-CA--C-[O] |==|  0.93072
ROOT
ATOM      1  CA  ALA E  11       6.069  21.581   5.551  1.00 85.35 LIG 0.17  C 
ATOM      2  CB  ALA E  11       6.380  22.384   6.815  1.00 80.46 LIG 0.04  C 
ENDROOT
BRANCH 1 3
ATOM      3  N   ALA E  11       6.962  21.981   4.469  1.00 87.15 LIG-0.35  N 
ATOM      4  C   ALA E  10       6.756  23.125   3.811  1.00 62.15 LIG 0.24  C 
ATOM      5 O    ALA E  10       5.955  23.975   4.202  1.00 65.72 LIG-0.27  OA
ATOM      6 H    ALA E  11       7.605  21.433   4.306  1.00 87.15 LIG 0.16  HD
BRANCH 4 7
ATOM      7  CA  ALA E  10       7.559  23.358   2.536  1.00 66.45 LIG 0.17  C 
ATOM      8  CB  ALA E  10       8.466  24.577   2.696  1.00 58.63 LIG 0.04  C 
BRANCH 7 9
ATOM      9  N   ALA E  10       6.699  23.532   1.375  1.00 75.43 LIG-0.35  N 
ATOM     10  C   ALA E   9       5.737  22.672   1.050  1.00 82.21 LIG 0.24  C 
ATOM     11 O    ALA E   9       5.509  21.634   1.681  1.00 73.75 LIG-0.27  OA
ATOM     12 H    ALA E  10       6.870  24.242   0.920  1.00 75.43 LIG 0.16  HD
BRANCH 10 13
ATOM     13  CA  ALA E   9       4.922  23.016  -0.189  1.00 87.65 LIG 0.17  C 
ATOM     14  CB  ALA E   9       3.945  24.155   0.096  1.00 72.21 LIG 0.04  C 
BRANCH 13 15
ATOM     15  N   ALA E   9       4.225  21.810  -0.617  1.00 84.24 LIG-0.35  N 
ATOM     16 H    ALA E   9       3.367  21.861  -0.560  1.00 84.24 LIG 0.16  HD
ATOM     17  C   ALA E   8       4.869  20.736  -1.052  1.00 61.40 LIG 0.26  C 
ATOM     18 O    ALA E   8       6.087  20.713  -1.215  1.00 66.21 LIG-0.27  OA
BRANCH 17 19
ATOM     19  CA  ALA E   8       4.009  19.518  -1.377  1.00 67.03 LIG 0.40  C 
ATOM     20  N   ALA E   8       3.787  19.409  -2.850  1.00 60.26 LIG 0.61  N 
ATOM     21  CB  ALA E   8       4.656  18.245  -0.842  1.00 64.64 LIG 0.06  C 
ENDBRANCH 17 19
ENDBRANCH 13 15
ENDBRANCH 10 13
ENDBRANCH 7 9
ENDBRANCH 4 7
ENDBRANCH 1 3
BRANCH 1 22
ATOM     22  C   ALA E  11       4.606  21.756   5.161  1.00 81.78 LIG 0.24  C 
ATOM     23  N   ALA E  12       4.136  20.991   4.178  1.00 82.91 LIG-0.35  N 
ATOM     24 H    ALA E  12       4.562  20.332   3.823  1.00 82.91 LIG 0.16  HD
ATOM     25 O    ALA E  11       3.897  22.591   5.736  1.00 89.30 LIG-0.27  OA
BRANCH 23 26
ATOM     26  CA  ALA E  12       2.812  21.240   3.624  1.00 61.10 LIG 0.17  C 
ATOM     27  CB  ALA E  12       2.865  22.349   2.563  1.00 65.27 LIG 0.04  C 
BRANCH 26 28
ATOM     28  C   ALA E  12       2.234  19.965   3.032  1.00 54.59 LIG 0.24  C 
ATOM     29  N   ALA E  13       2.575  18.846   3.672  1.00 64.78 LIG-0.35  N 
ATOM     30 H    ALA E  13       3.030  18.833   4.402  1.00 64.78 LIG 0.16  HD
ATOM     31 O    ALA E  12       1.478  19.993   2.057  1.00 69.11 LIG-0.27  OA
BRANCH 29 32
ATOM     32  CA  ALA E  13       2.196  17.531   3.182  1.00 54.23 LIG 0.17  C 
ATOM     33  CB  ALA E  13       2.550  17.404   1.700  1.00 56.27 LIG 0.04  C 
BRANCH 32 34
ATOM     34  C   ALA E  13       2.890  16.411   3.936  1.00 65.29 LIG 0.24  C 
ATOM     35  N   ALA E  14       2.406  16.157   5.147  1.00 85.74 LIG-0.35  N 
ATOM     36 H    ALA E  14       1.770  16.609   5.507  1.00 85.74 LIG 0.16  HD
ATOM     37 O    ALA E  13       3.797  15.754   3.418  1.00 75.52 LIG-0.27  OA
BRANCH 35 38
ATOM     38  CA  ALA E  14       2.910  15.080   5.980  1.00 94.46 LIG 0.16  C 
ATOM     39  CB  ALA E  14       4.414  15.174   6.097  1.00106.12 LIG 0.04  C 
BRANCH 38 40
ATOM     40  C   ALA E  14       2.262  15.131   7.360  1.00 99.07 LIG 0.22  C 
ATOM     41 O    ALA E  14       1.816  16.187   7.808  1.00120.33 LIG-0.29  OA
ENDBRANCH 38 40
ENDBRANCH 35 38
ENDBRANCH 32 34
ENDBRANCH 29 32
ENDBRANCH 26 28
ENDBRANCH 23 26
ENDBRANCH 1 22
TORSDOF 13
ENDMDL
MODEL 59
USER: ADFR SOLUTION from run 119
USER: SCORE 8.514202 LL:  -3.175 LR:  -7.069 RR:   0.000 FEB:  -3.191
USER: RMSD 9.148153
USER: SEED 118
USER: STATUS no improvement in best in 39 clusters for 5 generations
USER: GENES 15
USER: genes 0 Translation |==|  0.81837 0.38975 0.75079
USER: genes 1 Rotation |==|  0.46181 0.64651 0.35992 0.95547
USER: genes 2 Torsion [CB]-CA--N-[C] |==|  0.78315
USER: genes 3 Torsion [N]-C--CA-[N] |==|  0.33915
USER: genes 4 Torsion [C]-CA--N-[C] |==|  0.85214
USER: genes 5 Torsion [N]-C--CA-[N] |==|  0.94254
USER: genes 6 Torsion [C]-CA--N-[C] |==|  0.81242
USER: genes 7 Torsion [N]-C--CA-[N] |==|  0.27663
USER: genes 8 Torsion [N]-CA--C-[N] |==|  0.16347
USER: genes 9 Torsion [C]-N--CA-[CB] |==|  0.23810
USER: genes 10 Torsion [N]-CA--C-[N] |==|  0.09634
USER: genes 11 Torsion [C]-N--CA-[CB] |==|  0.14063
USER: genes 12 Torsion [N]-CA--C-[N] |==|  0.20000
USER: genes 13 Torsion [C]-N--CA-[C] |==|  0.48270
USER: genes 14 Torsion [N]-CA--C-[O] |==|  0.93257
ROOT
ATOM      1  CA  ALA E  11       5.943  21.644   5.708  1.00 85.35 LIG 0.17  C 
ATOM      2  CB  ALA E  11       6.242  22.521   6.926  1.00 80.46 LIG 0.04  C 
ENDROOT
BRANCH 1 3
ATOM      3  N   ALA E  11       6.834  21.995   4.607  1.00 87.15 LIG-0.35  N 
ATOM      4  C   ALA E  10       6.601  23.084   3.870  1.00 62.15 LIG 0.24  C 
ATOM      5 O    ALA E  10       5.773  23.936   4.196  1.00 65.72 LIG-0.27  OA
ATOM      6 H    ALA E  11       7.493  21.455   4.487  1.00 87.15 LIG 0.16  HD
BRANCH 4 7
ATOM      7  CA  ALA E  10       7.408  23.251   2.587  1.00 66.45 LIG 0.17  C 
ATOM      8  CB  ALA E  10       8.313  24.479   2.686  1.00 58.63 LIG 0.04  C 
BRANCH 7 9
ATOM      9  N   ALA E  10       6.551  23.364   1.416  1.00 75.43 LIG-0.35  N 
ATOM     10  C   ALA E   9       5.607  22.473   1.120  1.00 82.21 LIG 0.24  C 
ATOM     11 O    ALA E   9       5.395  21.457   1.791  1.00 73.75 LIG-0.27  OA
ATOM     12 H    ALA E  10       6.712  24.058   0.934  1.00 75.43 LIG 0.16  HD
BRANCH 10 13
ATOM     13  CA  ALA E   9       4.793  22.753  -0.136  1.00 87.65 LIG 0.17  C 
ATOM     14  CB  ALA E   9       5.268  21.888  -1.301  1.00 72.21 LIG 0.04  C 
BRANCH 13 15
ATOM     15  N   ALA E   9       4.916  24.173  -0.442  1.00 84.24 LIG-0.35  N 
ATOM     16 H    ALA E   9       5.352  24.341  -1.164  1.00 84.24 LIG 0.16  HD
ATOM     17  C   ALA E   8       4.395  25.113   0.335  1.00 61.40 LIG 0.26  C 
ATOM     18 O    ALA E   8       3.695  24.854   1.312  1.00 66.21 LIG-0.27  OA
BRANCH 17 19
ATOM     19  CA  ALA E   8       4.683  26.557  -0.064  1.00 67.03 LIG 0.40  C 
ATOM     20  N   ALA E   8       3.520  27.142  -0.797  1.00 60.26 LIG 0.61  N 
ATOM     21  CB  ALA E   8       5.016  27.398   1.163  1.00 64.64 LIG 0.06  C 
ENDBRANCH 17 19
ENDBRANCH 13 15
ENDBRANCH 10 13
ENDBRANCH 7 9
ENDBRANCH 4 7
ENDBRANCH 1 3
BRANCH 1 22
ATOM     22  C   ALA E  11       4.480  21.780   5.307  1.00 81.78 LIG 0.24  C 
ATOM     23  N   ALA E  12       4.054  21.052   4.276  1.00 82.91 LIG-0.35  N 
ATOM     24 H    ALA E  12       4.512  20.432   3.892  1.00 82.91 LIG 0.16  HD
ATOM     25 O    ALA E  11       3.729  22.551   5.917  1.00 89.30 LIG-0.27  OA
BRANCH 23 26
ATOM     26  CA  ALA E  12       2.728  21.276   3.718  1.00 61.10 LIG 0.17  C 
ATOM     27  CB  ALA E  12       2.759  22.403   2.674  1.00 65.27 LIG 0.04  C 
BRANCH 26 28
ATOM     28  C   ALA E  12       2.186  19.996   3.102  1.00 54.59 LIG 0.24  C 
ATOM     29  N   ALA E  13       2.538  18.878   3.736  1.00 64.78 LIG-0.35  N 
ATOM     30 H    ALA E  13       2.982  18.866   4.473  1.00 64.78 LIG 0.16  HD
ATOM     31 O    ALA E  12       1.446  20.020   2.114  1.00 69.11 LIG-0.27  OA
BRANCH 29 32
ATOM     32  CA  ALA E  13       2.195  17.560   3.226  1.00 54.23 LIG 0.17  C 
ATOM     33  CB  ALA E  13       2.604  17.447   1.757  1.00 56.27 LIG 0.04  C 
BRANCH 32 34
ATOM     34  C   ALA E  13       2.876  16.445   3.998  1.00 65.29 LIG 0.24  C 
ATOM     35  N   ALA E  14       2.405  16.233   5.222  1.00 85.74 LIG-0.35  N 
ATOM     36 H    ALA E  14       1.785  16.709   5.580  1.00 85.74 LIG 0.16  HD
ATOM     37 O    ALA E  13       3.760  15.755   3.484  1.00 75.52 LIG-0.27  OA
BRANCH 35 38
ATOM     38  CA  ALA E  14       2.898  15.168   6.076  1.00 94.46 LIG 0.16  C 
ATOM     39  CB  ALA E  14       4.406  15.226   6.162  1.00106.12 LIG 0.04  C 
BRANCH 38 40
ATOM     40  C   ALA E  14       2.278  15.273   7.465  1.00 99.07 LIG 0.22  C 
ATOM     41 O    ALA E  14       1.857  16.349   7.888  1.00120.33 LIG-0.29  OA
ENDBRANCH 38 40
ENDBRANCH 35 38
ENDBRANCH 32 34
ENDBRANCH 29 32
ENDBRANCH 26 28
ENDBRANCH 23 26
ENDBRANCH 1 22
TORSDOF 13
ENDMDL
MODEL 60
USER: ADFR SOLUTION from run 148
USER: SCORE 8.427619 LL:  -2.888 LR:  -7.056 RR:   0.000 FEB:  -3.178
USER: RMSD 8.328336
USER: SEED 147
USER: STATUS no improvement in best in 25 clusters for 5 generations
USER: GENES 15
USER: genes 0 Translation |==|  0.67778 0.55154 0.79215
USER: genes 1 Rotation |==|  0.34127 0.20401 0.66187 0.83316
USER: genes 2 Torsion [CB]-CA--N-[C] |==|  0.83473
USER: genes 3 Torsion [N]-C--CA-[N] |==|  0.93864
USER: genes 4 Torsion [C]-CA--N-[C] |==|  0.84779
USER: genes 5 Torsion [N]-C--CA-[N] |==|  0.09051
USER: genes 6 Torsion [C]-CA--N-[C] |==|  0.16157
USER: genes 7 Torsion [N]-C--CA-[N] |==|  0.98413
USER: genes 8 Torsion [N]-CA--C-[N] |==|  0.99964
USER: genes 9 Torsion [C]-N--CA-[CB] |==|  0.83843
USER: genes 10 Torsion [N]-CA--C-[N] |==|  0.08084
USER: genes 11 Torsion [C]-N--CA-[CB] |==|  0.83958
USER: genes 12 Torsion [N]-CA--C-[N] |==|  0.40741
USER: genes 13 Torsion [C]-N--CA-[C] |==|  0.16183
USER: genes 14 Torsion [N]-CA--C-[O] |==|  0.07264
ROOT
ATOM      1  CA  ALA E  11       2.780  24.557   6.453  1.00 85.35 LIG 0.17  C 
ATOM      2  CB  ALA E  11       1.535  24.182   5.647  1.00 80.46 LIG 0.04  C 
ENDROOT
BRANCH 1 3
ATOM      3  N   ALA E  11       3.199  25.915   6.126  1.00 87.15 LIG-0.35  N 
ATOM      4  C   ALA E  10       3.523  26.240   4.872  1.00 62.15 LIG 0.24  C 
ATOM      5 O    ALA E  10       3.296  25.493   3.919  1.00 65.72 LIG-0.27  OA
ATOM      6 H    ALA E  11       3.214  26.461   6.791  1.00 87.15 LIG 0.16  HD
BRANCH 4 7
ATOM      7  CA  ALA E  10       4.194  27.590   4.645  1.00 66.45 LIG 0.17  C 
ATOM      8  CB  ALA E  10       5.703  27.412   4.482  1.00 58.63 LIG 0.04  C 
BRANCH 7 9
ATOM      9  N   ALA E  10       3.922  28.522   5.729  1.00 75.43 LIG-0.35  N 
ATOM     10  C   ALA E   9       2.690  28.833   6.126  1.00 82.21 LIG 0.24  C 
ATOM     11 O    ALA E   9       1.669  28.387   5.591  1.00 73.75 LIG-0.27  OA
ATOM     12 H    ALA E  10       4.630  28.852   6.088  1.00 75.43 LIG 0.16  HD
BRANCH 10 13
ATOM     13  CA  ALA E   9       2.589  29.816   7.284  1.00 87.65 LIG 0.17  C 
ATOM     14  CB  ALA E   9       1.254  30.557   7.259  1.00 72.21 LIG 0.04  C 
BRANCH 13 15
ATOM     15  N   ALA E   9       3.712  30.739   7.189  1.00 84.24 LIG-0.35  N 
ATOM     16 H    ALA E   9       4.219  30.750   7.884  1.00 84.24 LIG 0.16  HD
ATOM     17  C   ALA E   8       3.923  31.490   6.117  1.00 61.40 LIG 0.26  C 
ATOM     18 O    ALA E   8       3.245  31.395   5.095  1.00 66.21 LIG-0.27  OA
BRANCH 17 19
ATOM     19  CA  ALA E   8       5.086  32.474   6.199  1.00 67.03 LIG 0.40  C 
ATOM     20  N   ALA E   8       5.680  32.475   7.569  1.00 60.26 LIG 0.61  N 
ATOM     21  CB  ALA E   8       6.149  32.137   5.159  1.00 64.64 LIG 0.06  C 
ENDBRANCH 17 19
ENDBRANCH 13 15
ENDBRANCH 10 13
ENDBRANCH 7 9
ENDBRANCH 4 7
ENDBRANCH 1 3
BRANCH 1 22
ATOM     22  C   ALA E  11       3.896  23.552   6.196  1.00 81.78 LIG 0.24  C 
ATOM     23  N   ALA E  12       5.051  24.022   5.728  1.00 82.91 LIG-0.35  N 
ATOM     24 H    ALA E  12       5.250  24.856   5.664  1.00 82.91 LIG 0.16  HD
ATOM     25 O    ALA E  11       3.719  22.346   6.408  1.00 89.30 LIG-0.27  OA
BRANCH 23 26
ATOM     26  CA  ALA E  12       6.088  23.103   5.278  1.00 61.10 LIG 0.17  C 
ATOM     27  CB  ALA E  12       6.497  22.147   6.408  1.00 65.27 LIG 0.04  C 
BRANCH 26 28
ATOM     28  C   ALA E  12       5.615  22.319   4.064  1.00 54.59 LIG 0.24  C 
ATOM     29  N   ALA E  13       4.731  22.957   3.296  1.00 64.78 LIG-0.35  N 
ATOM     30 H    ALA E  13       4.486  23.771   3.426  1.00 64.78 LIG 0.16  HD
ATOM     31 O    ALA E  12       6.060  21.197   3.809  1.00 69.11 LIG-0.27  OA
BRANCH 29 32
ATOM     32  CA  ALA E  13       4.097  22.318   2.155  1.00 54.23 LIG 0.17  C 
ATOM     33  CB  ALA E  13       5.161  21.830   1.171  1.00 56.27 LIG 0.04  C 
BRANCH 32 34
ATOM     34  C   ALA E  13       3.240  21.131   2.559  1.00 65.29 LIG 0.24  C 
ATOM     35  N   ALA E  14       2.159  20.933   1.814  1.00 85.74 LIG-0.35  N 
ATOM     36 H    ALA E  14       1.925  21.451   1.169  1.00 85.74 LIG 0.16  HD
ATOM     37 O    ALA E  13       3.576  20.380   3.478  1.00 75.52 LIG-0.27  OA
BRANCH 35 38
ATOM     38  CA  ALA E  14       1.261  19.810   2.021  1.00 94.46 LIG 0.16  C 
ATOM     39  CB  ALA E  14       1.984  18.510   1.751  1.00106.12 LIG 0.04  C 
BRANCH 38 40
ATOM     40  C   ALA E  14       0.707  19.830   3.441  1.00 99.07 LIG 0.22  C 
ATOM     41 O    ALA E  14       0.617  20.886   4.068  1.00120.33 LIG-0.29  OA
ENDBRANCH 38 40
ENDBRANCH 35 38
ENDBRANCH 32 34
ENDBRANCH 29 32
ENDBRANCH 26 28
ENDBRANCH 23 26
ENDBRANCH 1 22
TORSDOF 13
ENDMDL
