MODEL 1
USER: ADFR SOLUTION from run 80
USER: SCORE 23.479405 LL:  -4.116 LR: -21.127 RR:   0.000 FEB: -11.283
USER: RMSD 3.888484
USER: SEED 79
USER: STATUS no improvement in best in 3 clusters for 5 generations
USER: GENES 35
USER: genes 0 Translation |==|  0.46203 0.37936 0.42708
USER: genes 1 Rotation |==|  0.34750 0.31065 0.56589 0.93191
USER: genes 2 Torsion [C]-CA--N-[C] |==|  0.70205
USER: genes 3 Torsion [N]-C--CA-[N] |==|  0.53725
USER: genes 4 Torsion [C]-CA--N-[C] |==|  0.81111
USER: genes 5 Torsion [N]-C--CA-[N] |==|  0.65832
USER: genes 6 Torsion [C]-CA--CB-[CG] |==|  0.37696
USER: genes 7 Torsion [CA]-CB--CG-[CD] |==|  0.98597
USER: genes 8 Torsion [CB]-CG--CD-[CE] |==|  0.75831
USER: genes 9 Torsion [CG]-CD--CE-[NZ] |==|  0.41597
USER: genes 10 Torsion [CD]-CE--NZ-[HZ2] |==|  0.13102
USER: genes 11 Torsion [C]-CA--N-[C] |==|  0.16835
USER: genes 12 Torsion [N]-C--CA-[N] |==|  0.93577
USER: genes 13 Torsion [C]-CA--CB-[OG] |==|  0.40457
USER: genes 14 Torsion [CA]-CB--OG-[HG] |==|  0.32816
USER: genes 15 Torsion [C]-CA--N-[H2] |==|  0.96285
USER: genes 16 Torsion [C]-CA--CB-[CG] |==|  0.38719
USER: genes 17 Torsion [CA]-CB--CG-[SD] |==|  0.02418
USER: genes 18 Torsion [CB]-CG--SD-[CE] |==|  0.50571
USER: genes 19 Torsion [N]-CA--CB-[CG] |==|  0.65194
USER: genes 20 Torsion [CA]-CB--CG-[CD] |==|  0.89866
USER: genes 21 Torsion [CB]-CG--CD-[OE2] |==|  0.75112
USER: genes 22 Torsion [N]-CA--C-[N] |==|  0.01034
USER: genes 23 Torsion [C]-N--CA-[CB] |==|  0.53529
USER: genes 24 Torsion [N]-CA--C-[N] |==|  0.40387
USER: genes 25 Torsion [C]-N--CA-[C] |==|  0.80962
USER: genes 26 Torsion [N]-CA--CB-[CG2] |==|  0.62183
USER: genes 27 Torsion [N]-CA--C-[N] |==|  0.42220
USER: genes 28 Torsion [C]-N--CA-[C] |==|  0.71328
USER: genes 29 Torsion [N]-CA--C-[O] |==|  0.68635
USER: genes 30 Torsion [N]-CA--CB-[CG] |==|  0.88042
USER: genes 31 Torsion [CA]-CB--CG-[OD1] |==|  0.22415
USER: genes 32 Torsion [N]-CA--CB-[CG] |==|  0.23845
USER: genes 33 Torsion [CA]-CB--CG-[CD] |==|  0.73750
USER: genes 34 Torsion [CB]-CG--CD-[OE2] |==|  0.01519
ROOT
ATOM      1  CA  GLU c   4      19.124  22.571  68.612  1.00 41.78 LIG 0.18  C 
ENDROOT
BRANCH 1 2
ATOM      2  N   GLU c   4      18.266  22.783  69.758  1.00 36.98 LIG-0.35  N 
ATOM      3 H    GLU c   4      17.435  22.882  69.564  1.00 36.98 LIG 0.16  HD
ATOM      4  C   MET c   3      18.742  22.819  70.990  1.00 39.25 LIG 0.24  C 
ATOM      5 O    MET c   3      19.949  22.779  71.229  1.00 33.30 LIG-0.27  OA
BRANCH 4 6
ATOM      6  CA  MET c   3      17.702  22.885  72.129  1.00 43.32 LIG 0.18  C 
BRANCH 6 7
ATOM      7  N   MET c   3      18.214  23.230  73.468  1.00 44.06 LIG-0.35  N 
ATOM      8 H    MET c   3      17.942  24.001  73.735  1.00 44.06 LIG 0.16  HD
ATOM      9  C   LYS c   2      19.012  22.465  74.220  1.00 50.87 LIG 0.24  C 
ATOM     10 O    LYS c   2      19.543  21.412  73.828  1.00 41.81 LIG-0.27  OA
BRANCH 9 11
ATOM     11  CA  LYS c   2      19.261  22.995  75.650  1.00 52.27 LIG 0.18  C 
BRANCH 11 12
ATOM     12  CB  LYS c   2      18.486  24.314  75.869  1.00 56.87 LIG 0.04  C 
BRANCH 12 13
ATOM     13  CG  LYS c   2      17.763  24.400  77.197  1.00 55.18 LIG 0.00  C 
BRANCH 13 14
ATOM     14  CD  LYS c   2      17.883  23.091  77.947  1.00 56.62 LIG 0.03  C 
BRANCH 14 15
ATOM     15  CE  LYS c   2      16.789  22.129  77.553  1.00 60.10 LIG 0.23  C 
BRANCH 15 16
ATOM     16  NZ  LYS c   2      17.325  20.751  77.691  1.00 62.98 LIG-0.08  N 
ATOM     17 HZ2  LYS c   2      17.737  20.671  78.475  1.00 62.98 LIG 0.27  HD
ATOM     18 HZ3  LYS c   2      16.656  20.167  77.647  1.00 62.98 LIG 0.27  HD
ATOM     19 HZ1  LYS c   2      17.904  20.591  77.034  1.00 62.98 LIG 0.27  HD
ENDBRANCH 15 16
ENDBRANCH 14 15
ENDBRANCH 13 14
ENDBRANCH 12 13
ENDBRANCH 11 12
BRANCH 11 20
ATOM     20  N   LYS c   2      20.688  23.186  75.945  1.00 43.42 LIG-0.35  N 
ATOM     21 H    LYS c   2      20.967  22.707  76.603  1.00 43.42 LIG 0.16  HD
ATOM     22  C   SER c   1      21.485  24.017  75.267  1.00 43.78 LIG 0.25  C 
ATOM     23 O    SER c   1      21.110  24.761  74.360  1.00 50.72 LIG-0.27  OA
BRANCH 22 24
ATOM     24  CA  SER c   1      22.948  24.012  75.668  1.00 42.10 LIG 0.30  C 
BRANCH 24 25
ATOM     25  CB  SER c   1      23.739  23.125  74.698  1.00 37.65 LIG 0.21  C 
BRANCH 25 26
ATOM     26 OG   SER c   1      25.045  23.612  74.465  1.00 37.04 LIG-0.40  OA
ATOM     27 HG   SER c   1      25.607  23.044  74.727  1.00 37.04 LIG 0.21  HD
ENDBRANCH 25 26
ENDBRANCH 24 25
BRANCH 24 28
ATOM     28  N   SER c   1      23.009  23.501  77.075  1.00 43.63 LIG-0.06  N 
ATOM     29 H2   SER c   1      22.191  23.500  77.426  1.00 43.63 LIG 0.28  HD
ATOM     30 H3   SER c   1      23.333  22.672  77.076  1.00 43.63 LIG 0.28  HD
ATOM     31 H1   SER c   1      23.539  24.027  77.559  1.00 43.63 LIG 0.28  HD
ENDBRANCH 24 28
ENDBRANCH 22 24
ENDBRANCH 11 20
ENDBRANCH 9 11
ENDBRANCH 6 7
BRANCH 6 32
ATOM     32  CB  MET c   3      16.627  23.918  71.781  1.00 42.03 LIG 0.04  C 
BRANCH 32 33
ATOM     33  CG  MET c   3      15.202  23.556  72.114  1.00 44.17 LIG 0.08  C 
BRANCH 33 34
ATOM     34 SD   MET c   3      15.035  22.062  73.092  1.00 39.95 LIG-0.17  SA
ATOM     35  CE  MET c   3      13.260  22.084  73.124  1.00 32.62 LIG 0.09  C 
ENDBRANCH 33 34
ENDBRANCH 32 33
ENDBRANCH 6 32
ENDBRANCH 4 6
ENDBRANCH 1 2
BRANCH 1 36
ATOM     36  CB  GLU c   4      18.558  21.410  67.752  1.00 53.02 LIG 0.04  C 
BRANCH 36 37
ATOM     37  CG  GLU c   4      19.513  20.246  67.449  1.00 67.39 LIG 0.12  C 
BRANCH 37 38
ATOM     38  CD  GLU c   4      20.956  20.703  67.225  1.00 71.96 LIG 0.17  C 
ATOM     39 OE2  GLU c   4      21.333  21.009  66.061  1.00 61.28 LIG-0.65  OA
ATOM     40 OE1  GLU c   4      21.716  20.754  68.223  1.00 68.78 LIG-0.65  OA
ENDBRANCH 37 38
ENDBRANCH 36 37
ENDBRANCH 1 36
BRANCH 1 41
ATOM     41  C   GLU c   4      19.291  23.875  67.816  1.00 40.98 LIG 0.24  C 
ATOM     42 O    GLU c   4      19.946  23.873  66.772  1.00 47.04 LIG-0.27  OA
ATOM     43  N   GLU c   5      18.720  24.981  68.306  1.00 35.89 LIG-0.35  N 
ATOM     44 H    GLU c   5      18.173  24.980  68.969  1.00 35.89 LIG 0.16  HD
BRANCH 43 45
ATOM     45  CA  GLU c   5      18.982  26.322  67.742  1.00 35.53 LIG 0.18  C 
BRANCH 45 46
ATOM     46  C   GLU c   5      20.468  26.563  67.520  1.00 33.86 LIG 0.24  C 
ATOM     47 O    GLU c   5      21.292  26.143  68.322  1.00 26.34 LIG-0.27  OA
ATOM     48  N   VAL c   6      20.789  27.303  66.459  1.00 31.71 LIG-0.35  N 
ATOM     49 H    VAL c   6      20.217  27.571  65.876  1.00 31.71 LIG 0.16  HD
BRANCH 48 50
ATOM     50  CA  VAL c   6      22.173  27.733  66.188  1.00 31.16 LIG 0.18  C 
BRANCH 50 51
ATOM     51  CB  VAL c   6      22.363  28.208  64.710  1.00 25.00 LIG 0.01  C 
ATOM     52  CG1 VAL c   6      22.373  29.715  64.682  1.00 20.51 LIG 0.01  C 
ATOM     53  CG2 VAL c   6      23.645  27.683  64.046  1.00 20.94 LIG 0.01  C 
ENDBRANCH 50 51
BRANCH 50 54
ATOM     54  C   VAL c   6      22.651  28.759  67.233  1.00 33.11 LIG 0.24  C 
ATOM     55 O    VAL c   6      21.836  29.472  67.810  1.00 31.28 LIG-0.27  OA
ATOM     56  N   ASP c   7      23.970  28.801  67.478  1.00 31.84 LIG-0.34  N 
ATOM     57 H    ASP c   7      24.539  28.329  67.038  1.00 31.84 LIG 0.16  HD
BRANCH 56 58
ATOM     58  CA  ASP c   7      24.590  29.642  68.508  1.00 33.25 LIG 0.20  C 
BRANCH 58 59
ATOM     59  C   ASP c   7      25.275  30.893  67.940  1.00 36.36 LIG 0.20  C 
ATOM     60 OXT  ASP c   7      24.602  31.781  67.415  1.00 36.21 LIG-0.65  OA
ATOM     61 O    ASP c   7      26.516  31.059  67.976  1.00 30.31 LIG-0.65  OA
ENDBRANCH 58 59
BRANCH 58 62
ATOM     62  CB  ASP c   7      25.614  28.811  69.287  1.00 37.10 LIG 0.15  C 
BRANCH 62 63
ATOM     63  CG  ASP c   7      25.103  27.447  69.615  1.00 37.44 LIG 0.17  C 
ATOM     64 OD1  ASP c   7      25.144  26.556  68.744  1.00 43.19 LIG-0.65  OA
ATOM     65 OD2  ASP c   7      24.643  27.251  70.747  1.00 52.04 LIG-0.65  OA
ENDBRANCH 62 63
ENDBRANCH 58 62
ENDBRANCH 56 58
ENDBRANCH 50 54
ENDBRANCH 48 50
ENDBRANCH 45 46
BRANCH 45 66
ATOM     66  CB  GLU c   5      18.460  27.423  68.671  1.00 40.99 LIG 0.04  C 
BRANCH 66 67
ATOM     67  CG  GLU c   5      19.439  27.841  69.769  1.00 49.45 LIG 0.12  C 
BRANCH 67 68
ATOM     68  CD  GLU c   5      19.200  27.101  71.073  1.00 57.05 LIG 0.17  C 
ATOM     69 OE2  GLU c   5      18.348  26.196  71.097  1.00 42.85 LIG-0.65  OA
ATOM     70 OE1  GLU c   5      19.883  27.417  72.073  1.00 67.91 LIG-0.65  OA
ENDBRANCH 67 68
ENDBRANCH 66 67
ENDBRANCH 45 66
ENDBRANCH 43 45
ENDBRANCH 1 41
TORSDOF 33
ENDMDL
MODEL 2
USER: ADFR SOLUTION from run 7
USER: SCORE 21.072258 LL:  -5.094 LR: -20.138 RR:   0.000 FEB: -10.294
USER: RMSD 8.894661
USER: SEED 52113
USER: STATUS no improvement in best in 5 clusters for 5 generations
USER: GENES 35
USER: genes 0 Translation |==|  0.64910 0.63607 0.27005
USER: genes 1 Rotation |==|  0.76188 0.31812 0.21474 0.75878
USER: genes 2 Torsion [C]-CA--N-[C] |==|  0.10921
USER: genes 3 Torsion [N]-C--CA-[N] |==|  0.24327
USER: genes 4 Torsion [C]-CA--N-[C] |==|  0.89352
USER: genes 5 Torsion [N]-C--CA-[N] |==|  0.19023
USER: genes 6 Torsion [C]-CA--CB-[CG] |==|  0.80727
USER: genes 7 Torsion [CA]-CB--CG-[CD] |==|  0.66190
USER: genes 8 Torsion [CB]-CG--CD-[CE] |==|  0.25809
USER: genes 9 Torsion [CG]-CD--CE-[NZ] |==|  0.23549
USER: genes 10 Torsion [CD]-CE--NZ-[HZ2] |==|  0.63733
USER: genes 11 Torsion [C]-CA--N-[C] |==|  0.76942
USER: genes 12 Torsion [N]-C--CA-[N] |==|  0.84963
USER: genes 13 Torsion [C]-CA--CB-[OG] |==|  0.68402
USER: genes 14 Torsion [CA]-CB--OG-[HG] |==|  0.84771
USER: genes 15 Torsion [C]-CA--N-[H2] |==|  0.79671
USER: genes 16 Torsion [C]-CA--CB-[CG] |==|  0.22699
USER: genes 17 Torsion [CA]-CB--CG-[SD] |==|  0.10329
USER: genes 18 Torsion [CB]-CG--SD-[CE] |==|  0.20107
USER: genes 19 Torsion [N]-CA--CB-[CG] |==|  0.13730
USER: genes 20 Torsion [CA]-CB--CG-[CD] |==|  0.70655
USER: genes 21 Torsion [CB]-CG--CD-[OE2] |==|  0.11844
USER: genes 22 Torsion [N]-CA--C-[N] |==|  0.62587
USER: genes 23 Torsion [C]-N--CA-[CB] |==|  0.39612
USER: genes 24 Torsion [N]-CA--C-[N] |==|  0.97775
USER: genes 25 Torsion [C]-N--CA-[C] |==|  0.75409
USER: genes 26 Torsion [N]-CA--CB-[CG2] |==|  0.19814
USER: genes 27 Torsion [N]-CA--C-[N] |==|  0.21987
USER: genes 28 Torsion [C]-N--CA-[C] |==|  0.50864
USER: genes 29 Torsion [N]-CA--C-[O] |==|  0.99129
USER: genes 30 Torsion [N]-CA--CB-[CG] |==|  0.20724
USER: genes 31 Torsion [CA]-CB--CG-[OD1] |==|  0.77802
USER: genes 32 Torsion [N]-CA--CB-[CG] |==|  0.59921
USER: genes 33 Torsion [CA]-CB--CG-[CD] |==|  0.20619
USER: genes 34 Torsion [CB]-CG--CD-[OE2] |==|  0.41747
ROOT
ATOM      1  CA  GLU c   4      23.193  28.540  65.197  1.00 41.78 LIG 0.18  C 
ENDROOT
BRANCH 1 2
ATOM      2  N   GLU c   4      21.800  28.314  64.873  1.00 36.98 LIG-0.35  N 
ATOM      3 H    GLU c   4      21.659  28.088  64.056  1.00 36.98 LIG 0.16  HD
ATOM      4  C   MET c   3      20.843  28.450  65.774  1.00 39.25 LIG 0.24  C 
ATOM      5 O    MET c   3      21.064  28.876  66.908  1.00 33.30 LIG-0.27  OA
BRANCH 4 6
ATOM      6  CA  MET c   3      19.425  28.019  65.343  1.00 43.32 LIG 0.18  C 
BRANCH 6 7
ATOM      7  N   MET c   3      19.078  26.600  65.547  1.00 44.06 LIG-0.35  N 
ATOM      8 H    MET c   3      18.264  26.495  65.806  1.00 44.06 LIG 0.16  HD
ATOM      9  C   LYS c   2      19.899  25.562  65.363  1.00 50.87 LIG 0.24  C 
ATOM     10 O    LYS c   2      21.115  25.666  65.126  1.00 41.81 LIG-0.27  OA
BRANCH 9 11
ATOM     11  CA  LYS c   2      19.229  24.174  65.487  1.00 52.27 LIG 0.18  C 
BRANCH 11 12
ATOM     12  CB  LYS c   2      20.308  23.070  65.562  1.00 56.87 LIG 0.04  C 
BRANCH 12 13
ATOM     13  CG  LYS c   2      21.072  22.857  64.272  1.00 55.18 LIG 0.00  C 
BRANCH 13 14
ATOM     14  CD  LYS c   2      20.924  21.426  63.803  1.00 56.62 LIG 0.03  C 
BRANCH 14 15
ATOM     15  CE  LYS c   2      19.770  21.280  62.840  1.00 60.10 LIG 0.23  C 
BRANCH 15 16
ATOM     16  NZ  LYS c   2      20.265  21.626  61.484  1.00 62.98 LIG-0.08  N 
ATOM     17 HZ2  LYS c   2      19.710  22.208  61.105  1.00 62.98 LIG 0.27  HD
ATOM     18 HZ3  LYS c   2      21.076  21.987  61.547  1.00 62.98 LIG 0.27  HD
ATOM     19 HZ1  LYS c   2      20.307  20.889  60.986  1.00 62.98 LIG 0.27  HD
ENDBRANCH 15 16
ENDBRANCH 14 15
ENDBRANCH 13 14
ENDBRANCH 12 13
ENDBRANCH 11 12
BRANCH 11 20
ATOM     20  N   LYS c   2      18.289  23.898  64.391  1.00 43.42 LIG-0.35  N 
ATOM     21 H    LYS c   2      18.634  23.430  63.757  1.00 43.42 LIG 0.16  HD
ATOM     22  C   SER c   1      17.023  24.325  64.370  1.00 43.78 LIG 0.25  C 
ATOM     23 O    SER c   1      16.514  25.045  65.229  1.00 50.72 LIG-0.27  OA
BRANCH 22 24
ATOM     24  CA  SER c   1      16.186  23.865  63.192  1.00 42.10 LIG 0.30  C 
BRANCH 24 25
ATOM     25  CB  SER c   1      15.967  22.349  63.283  1.00 37.65 LIG 0.21  C 
BRANCH 25 26
ATOM     26 OG   SER c   1      16.604  21.648  62.234  1.00 37.04 LIG-0.40  OA
ATOM     27 HG   SER c   1      16.352  21.959  61.495  1.00 37.04 LIG 0.21  HD
ENDBRANCH 25 26
ENDBRANCH 24 25
BRANCH 24 28
ATOM     28  N   SER c   1      16.934  24.251  61.953  1.00 43.63 LIG-0.06  N 
ATOM     29 H2   SER c   1      16.880  25.132  61.836  1.00 43.63 LIG 0.28  HD
ATOM     30 H3   SER c   1      17.788  24.015  62.035  1.00 43.63 LIG 0.28  HD
ATOM     31 H1   SER c   1      16.578  23.837  61.250  1.00 43.63 LIG 0.28  HD
ENDBRANCH 24 28
ENDBRANCH 22 24
ENDBRANCH 11 20
ENDBRANCH 9 11
ENDBRANCH 6 7
BRANCH 6 32
ATOM     32  CB  MET c   3      18.385  28.848  66.104  1.00 42.03 LIG 0.04  C 
BRANCH 32 33
ATOM     33  CG  MET c   3      18.083  30.221  65.564  1.00 44.17 LIG 0.08  C 
BRANCH 33 34
ATOM     34 SD   MET c   3      18.079  30.321  63.773  1.00 39.95 LIG-0.17  SA
ATOM     35  CE  MET c   3      16.551  29.441  63.563  1.00 32.62 LIG 0.09  C 
ENDBRANCH 33 34
ENDBRANCH 32 33
ENDBRANCH 6 32
ENDBRANCH 4 6
ENDBRANCH 1 2
BRANCH 1 36
ATOM     36  CB  GLU c   4      23.516  30.051  65.057  1.00 53.02 LIG 0.04  C 
BRANCH 36 37
ATOM     37  CG  GLU c   4      22.560  31.029  65.754  1.00 67.39 LIG 0.12  C 
BRANCH 37 38
ATOM     38  CD  GLU c   4      21.637  31.759  64.776  1.00 71.96 LIG 0.17  C 
ATOM     39 OE2  GLU c   4      21.102  31.113  63.834  1.00 61.28 LIG-0.65  OA
ATOM     40 OE1  GLU c   4      21.450  32.988  64.952  1.00 68.78 LIG-0.65  OA
ENDBRANCH 37 38
ENDBRANCH 36 37
ENDBRANCH 1 36
BRANCH 1 41
ATOM     41  C   GLU c   4      23.517  27.988  66.593  1.00 40.98 LIG 0.24  C 
ATOM     42 O    GLU c   4      23.100  26.876  66.923  1.00 47.04 LIG-0.27  OA
ATOM     43  N   GLU c   5      24.239  28.758  67.415  1.00 35.89 LIG-0.35  N 
ATOM     44 H    GLU c   5      24.627  29.484  67.168  1.00 35.89 LIG 0.16  HD
BRANCH 43 45
ATOM     45  CA  GLU c   5      24.436  28.426  68.842  1.00 35.53 LIG 0.18  C 
BRANCH 45 46
ATOM     46  C   GLU c   5      23.451  29.163  69.737  1.00 33.86 LIG 0.24  C 
ATOM     47 O    GLU c   5      23.332  28.855  70.916  1.00 26.34 LIG-0.27  OA
ATOM     48  N   VAL c   6      22.702  30.091  69.143  1.00 31.71 LIG-0.35  N 
ATOM     49 H    VAL c   6      22.805  30.334  68.324  1.00 31.71 LIG 0.16  HD
BRANCH 48 50
ATOM     50  CA  VAL c   6      21.613  30.795  69.846  1.00 31.16 LIG 0.18  C 
BRANCH 50 51
ATOM     51  CB  VAL c   6      21.510  32.296  69.420  1.00 25.00 LIG 0.01  C 
ATOM     52  CG1 VAL c   6      22.876  32.925  69.528  1.00 20.51 LIG 0.01  C 
ATOM     53  CG2 VAL c   6      20.971  32.503  67.996  1.00 20.94 LIG 0.01  C 
ENDBRANCH 50 51
BRANCH 50 54
ATOM     54  C   VAL c   6      20.284  30.025  69.724  1.00 33.11 LIG 0.24  C 
ATOM     55 O    VAL c   6      19.448  30.372  68.896  1.00 31.28 LIG-0.27  OA
ATOM     56  N   ASP c   7      20.121  28.971  70.539  1.00 31.84 LIG-0.34  N 
ATOM     57 H    ASP c   7      20.692  28.760  71.147  1.00 31.84 LIG 0.16  HD
BRANCH 56 58
ATOM     58  CA  ASP c   7      18.967  28.066  70.494  1.00 33.25 LIG 0.20  C 
BRANCH 58 59
ATOM     59  C   ASP c   7      18.995  26.988  71.587  1.00 36.36 LIG 0.20  C 
ATOM     60 OXT  ASP c   7      18.053  26.204  71.704  1.00 36.21 LIG-0.65  OA
ATOM     61 O    ASP c   7      19.946  26.868  72.392  1.00 30.31 LIG-0.65  OA
ENDBRANCH 58 59
BRANCH 58 62
ATOM     62  CB  ASP c   7      18.909  27.394  69.119  1.00 37.10 LIG 0.15  C 
BRANCH 62 63
ATOM     63  CG  ASP c   7      19.950  26.334  68.962  1.00 37.44 LIG 0.17  C 
ATOM     64 OD1  ASP c   7      21.120  26.667  68.690  1.00 43.19 LIG-0.65  OA
ATOM     65 OD2  ASP c   7      19.607  25.153  69.099  1.00 52.04 LIG-0.65  OA
ENDBRANCH 62 63
ENDBRANCH 58 62
ENDBRANCH 56 58
ENDBRANCH 50 54
ENDBRANCH 48 50
ENDBRANCH 45 46
BRANCH 45 66
ATOM     66  CB  GLU c   5      25.853  28.786  69.302  1.00 40.99 LIG 0.04  C 
BRANCH 66 67
ATOM     67  CG  GLU c   5      26.452  27.816  70.322  1.00 49.45 LIG 0.12  C 
BRANCH 67 68
ATOM     68  CD  GLU c   5      26.875  26.501  69.693  1.00 57.05 LIG 0.17  C 
ATOM     69 OE2  GLU c   5      27.825  25.878  70.198  1.00 42.85 LIG-0.65  OA
ATOM     70 OE1  GLU c   5      26.240  26.082  68.699  1.00 67.91 LIG-0.65  OA
ENDBRANCH 67 68
ENDBRANCH 66 67
ENDBRANCH 45 66
ENDBRANCH 43 45
ENDBRANCH 1 41
TORSDOF 33
ENDMDL
MODEL 3
USER: ADFR SOLUTION from run 19
USER: SCORE 21.742763 LL:  -3.869 LR: -19.851 RR:   0.000 FEB: -10.007
USER: RMSD 8.808443
USER: SEED 18
USER: STATUS searching
USER: GENES 35
USER: genes 0 Translation |==|  0.64386 0.67981 0.29566
USER: genes 1 Rotation |==|  0.58913 0.29646 0.28679 0.89391
USER: genes 2 Torsion [C]-CA--N-[C] |==|  0.76078
USER: genes 3 Torsion [N]-C--CA-[N] |==|  0.36825
USER: genes 4 Torsion [C]-CA--N-[C] |==|  0.89444
USER: genes 5 Torsion [N]-C--CA-[N] |==|  0.33263
USER: genes 6 Torsion [C]-CA--CB-[CG] |==|  0.58273
USER: genes 7 Torsion [CA]-CB--CG-[CD] |==|  0.33068
USER: genes 8 Torsion [CB]-CG--CD-[CE] |==|  0.56686
USER: genes 9 Torsion [CG]-CD--CE-[NZ] |==|  0.33413
USER: genes 10 Torsion [CD]-CE--NZ-[HZ2] |==|  0.38630
USER: genes 11 Torsion [C]-CA--N-[C] |==|  0.74834
USER: genes 12 Torsion [N]-C--CA-[N] |==|  0.91733
USER: genes 13 Torsion [C]-CA--CB-[OG] |==|  0.73661
USER: genes 14 Torsion [CA]-CB--OG-[HG] |==|  0.77851
USER: genes 15 Torsion [C]-CA--N-[H2] |==|  0.88395
USER: genes 16 Torsion [C]-CA--CB-[CG] |==|  0.57577
USER: genes 17 Torsion [CA]-CB--CG-[SD] |==|  0.22403
USER: genes 18 Torsion [CB]-CG--SD-[CE] |==|  0.47742
USER: genes 19 Torsion [N]-CA--CB-[CG] |==|  0.02027
USER: genes 20 Torsion [CA]-CB--CG-[CD] |==|  0.21367
USER: genes 21 Torsion [CB]-CG--CD-[OE2] |==|  0.70168
USER: genes 22 Torsion [N]-CA--C-[N] |==|  0.13333
USER: genes 23 Torsion [C]-N--CA-[CB] |==|  0.21103
USER: genes 24 Torsion [N]-CA--C-[N] |==|  0.50825
USER: genes 25 Torsion [C]-N--CA-[C] |==|  0.82706
USER: genes 26 Torsion [N]-CA--CB-[CG2] |==|  0.02894
USER: genes 27 Torsion [N]-CA--C-[N] |==|  0.91204
USER: genes 28 Torsion [C]-N--CA-[C] |==|  0.79672
USER: genes 29 Torsion [N]-CA--C-[O] |==|  0.27791
USER: genes 30 Torsion [N]-CA--CB-[CG] |==|  0.77777
USER: genes 31 Torsion [CA]-CB--CG-[OD1] |==|  0.23318
USER: genes 32 Torsion [N]-CA--CB-[CG] |==|  0.73630
USER: genes 33 Torsion [CA]-CB--CG-[CD] |==|  0.90073
USER: genes 34 Torsion [CB]-CG--CD-[OE2] |==|  0.75830
ROOT
ATOM      1  CA  GLU c   4      23.079  29.557  65.754  1.00 41.78 LIG 0.18  C 
ENDROOT
BRANCH 1 2
ATOM      2  N   GLU c   4      21.788  29.185  66.291  1.00 36.98 LIG-0.35  N 
ATOM      3 H    GLU c   4      21.173  29.775  66.175  1.00 36.98 LIG 0.16  HD
ATOM      4  C   MET c   3      21.592  28.031  66.904  1.00 39.25 LIG 0.24  C 
ATOM      5 O    MET c   3      22.514  27.252  67.147  1.00 33.30 LIG-0.27  OA
BRANCH 4 6
ATOM      6  CA  MET c   3      20.134  27.689  67.280  1.00 43.32 LIG 0.18  C 
BRANCH 6 7
ATOM      7  N   MET c   3      19.666  26.333  66.935  1.00 44.06 LIG-0.35  N 
ATOM      8 H    MET c   3      19.151  26.000  67.538  1.00 44.06 LIG 0.16  HD
ATOM      9  C   LYS c   2      19.980  25.659  65.824  1.00 50.87 LIG 0.24  C 
ATOM     10 O    LYS c   2      20.825  26.035  64.993  1.00 41.81 LIG-0.27  OA
BRANCH 9 11
ATOM     11  CA  LYS c   2      19.219  24.327  65.636  1.00 52.27 LIG 0.18  C 
BRANCH 11 12
ATOM     12  CB  LYS c   2      20.211  23.142  65.660  1.00 56.87 LIG 0.04  C 
BRANCH 12 13
ATOM     13  CG  LYS c   2      19.780  21.952  64.829  1.00 55.18 LIG 0.00  C 
BRANCH 13 14
ATOM     14  CD  LYS c   2      20.792  21.676  63.738  1.00 56.62 LIG 0.03  C 
BRANCH 14 15
ATOM     15  CE  LYS c   2      20.166  20.937  62.581  1.00 60.10 LIG 0.23  C 
BRANCH 15 16
ATOM     16  NZ  LYS c   2      20.326  21.776  61.367  1.00 62.98 LIG-0.08  N 
ATOM     17 HZ2  LYS c   2      20.541  21.260  60.675  1.00 62.98 LIG 0.27  HD
ATOM     18 HZ3  LYS c   2      19.561  22.198  61.195  1.00 62.98 LIG 0.27  HD
ATOM     19 HZ1  LYS c   2      20.971  22.375  61.502  1.00 62.98 LIG 0.27  HD
ENDBRANCH 15 16
ENDBRANCH 14 15
ENDBRANCH 13 14
ENDBRANCH 12 13
ENDBRANCH 11 12
BRANCH 11 20
ATOM     20  N   LYS c   2      18.418  24.299  64.405  1.00 43.42 LIG-0.35  N 
ATOM     21 H    LYS c   2      18.851  24.003  63.723  1.00 43.42 LIG 0.16  HD
ATOM     22  C   SER c   1      17.142  24.690  64.336  1.00 43.78 LIG 0.25  C 
ATOM     23 O    SER c   1      16.508  25.173  65.275  1.00 50.72 LIG-0.27  OA
BRANCH 22 24
ATOM     24  CA  SER c   1      16.461  24.507  62.994  1.00 42.10 LIG 0.30  C 
BRANCH 24 25
ATOM     25  CB  SER c   1      15.768  23.139  62.957  1.00 37.65 LIG 0.21  C 
BRANCH 25 26
ATOM     26 OG   SER c   1      16.575  22.141  62.364  1.00 37.04 LIG-0.40  OA
ATOM     27 HG   SER c   1      16.537  22.210  61.528  1.00 37.04 LIG 0.21  HD
ENDBRANCH 25 26
ENDBRANCH 24 25
BRANCH 24 28
ATOM     28  N   SER c   1      17.526  24.626  61.948  1.00 43.63 LIG-0.06  N 
ATOM     29 H2   SER c   1      18.075  25.295  62.158  1.00 43.63 LIG 0.28  HD
ATOM     30 H3   SER c   1      17.988  23.866  61.906  1.00 43.63 LIG 0.28  HD
ATOM     31 H1   SER c   1      17.150  24.788  61.158  1.00 43.63 LIG 0.28  HD
ENDBRANCH 24 28
ENDBRANCH 22 24
ENDBRANCH 11 20
ENDBRANCH 9 11
ENDBRANCH 6 7
BRANCH 6 32
ATOM     32  CB  MET c   3      19.942  27.857  68.790  1.00 42.03 LIG 0.04  C 
BRANCH 32 33
ATOM     33  CG  MET c   3      18.873  27.015  69.437  1.00 44.17 LIG 0.08  C 
BRANCH 33 34
ATOM     34 SD   MET c   3      19.377  25.330  69.784  1.00 39.95 LIG-0.17  SA
ATOM     35  CE  MET c   3      17.924  24.911  70.714  1.00 32.62 LIG 0.09  C 
ENDBRANCH 33 34
ENDBRANCH 32 33
ENDBRANCH 6 32
ENDBRANCH 4 6
ENDBRANCH 1 2
BRANCH 1 36
ATOM     36  CB  GLU c   4      22.878  30.463  64.510  1.00 53.02 LIG 0.04  C 
BRANCH 36 37
ATOM     37  CG  GLU c   4      21.442  30.915  64.211  1.00 67.39 LIG 0.12  C 
BRANCH 37 38
ATOM     38  CD  GLU c   4      20.969  32.043  65.130  1.00 71.96 LIG 0.17  C 
ATOM     39 OE2  GLU c   4      20.122  31.792  66.030  1.00 61.28 LIG-0.65  OA
ATOM     40 OE1  GLU c   4      21.450  33.189  64.947  1.00 68.78 LIG-0.65  OA
ENDBRANCH 37 38
ENDBRANCH 36 37
ENDBRANCH 1 36
BRANCH 1 41
ATOM     41  C   GLU c   4      23.943  30.218  66.839  1.00 40.98 LIG 0.24  C 
ATOM     42 O    GLU c   4      24.540  31.267  66.589  1.00 47.04 LIG-0.27  OA
ATOM     43  N   GLU c   5      24.025  29.609  68.026  1.00 35.89 LIG-0.35  N 
ATOM     44 H    GLU c   5      23.535  28.940  68.253  1.00 35.89 LIG 0.16  HD
BRANCH 43 45
ATOM     45  CA  GLU c   5      24.980  30.037  69.070  1.00 35.53 LIG 0.18  C 
BRANCH 45 46
ATOM     46  C   GLU c   5      25.168  28.968  70.138  1.00 33.86 LIG 0.24  C 
ATOM     47 O    GLU c   5      24.558  27.910  70.072  1.00 26.34 LIG-0.27  OA
ATOM     48  N   VAL c   6      25.967  29.292  71.155  1.00 31.71 LIG-0.35  N 
ATOM     49 H    VAL c   6      26.423  30.020  71.189  1.00 31.71 LIG 0.16  HD
BRANCH 48 50
ATOM     50  CA  VAL c   6      26.142  28.417  72.329  1.00 31.16 LIG 0.18  C 
BRANCH 50 51
ATOM     51  CB  VAL c   6      27.320  28.888  73.244  1.00 25.00 LIG 0.01  C 
ATOM     52  CG1 VAL c   6      28.432  27.874  73.162  1.00 20.51 LIG 0.01  C 
ATOM     53  CG2 VAL c   6      27.874  30.274  72.881  1.00 20.94 LIG 0.01  C 
ENDBRANCH 50 51
BRANCH 50 54
ATOM     54  C   VAL c   6      24.812  28.227  73.083  1.00 33.11 LIG 0.24  C 
ATOM     55 O    VAL c   6      24.593  27.182  73.687  1.00 31.28 LIG-0.27  OA
ATOM     56  N   ASP c   7      23.950  29.256  73.055  1.00 31.84 LIG-0.34  N 
ATOM     57 H    ASP c   7      24.092  29.968  72.593  1.00 31.84 LIG 0.16  HD
BRANCH 56 58
ATOM     58  CA  ASP c   7      22.684  29.291  73.795  1.00 33.25 LIG 0.20  C 
BRANCH 58 59
ATOM     59  C   ASP c   7      21.605  28.377  73.198  1.00 36.36 LIG 0.20  C 
ATOM     60 OXT  ASP c   7      20.951  28.749  72.224  1.00 36.21 LIG-0.65  OA
ATOM     61 O    ASP c   7      21.343  27.246  73.667  1.00 30.31 LIG-0.65  OA
ENDBRANCH 58 59
BRANCH 58 62
ATOM     62  CB  ASP c   7      22.165  30.731  73.837  1.00 37.10 LIG 0.15  C 
BRANCH 62 63
ATOM     63  CG  ASP c   7      22.847  31.549  74.884  1.00 37.44 LIG 0.17  C 
ATOM     64 OD1  ASP c   7      23.941  32.083  74.621  1.00 43.19 LIG-0.65  OA
ATOM     65 OD2  ASP c   7      22.299  31.658  75.989  1.00 52.04 LIG-0.65  OA
ENDBRANCH 62 63
ENDBRANCH 58 62
ENDBRANCH 56 58
ENDBRANCH 50 54
ENDBRANCH 48 50
ENDBRANCH 45 46
BRANCH 45 66
ATOM     66  CB  GLU c   5      24.504  31.317  69.764  1.00 40.99 LIG 0.04  C 
BRANCH 66 67
ATOM     67  CG  GLU c   5      25.089  32.606  69.182  1.00 49.45 LIG 0.12  C 
BRANCH 67 68
ATOM     68  CD  GLU c   5      26.525  32.435  68.722  1.00 57.05 LIG 0.17  C 
ATOM     69 OE2  GLU c   5      27.439  32.602  69.548  1.00 42.85 LIG-0.65  OA
ATOM     70 OE1  GLU c   5      26.736  32.115  67.530  1.00 67.91 LIG-0.65  OA
ENDBRANCH 67 68
ENDBRANCH 66 67
ENDBRANCH 45 66
ENDBRANCH 43 45
ENDBRANCH 1 41
TORSDOF 33
ENDMDL
MODEL 4
USER: ADFR SOLUTION from run 164
USER: SCORE 20.767525 LL:  -3.259 LR: -19.754 RR:   0.000 FEB:  -9.910
USER: RMSD 7.897613
USER: SEED 163
USER: STATUS no improvement in best in 2 clusters for 5 generations
USER: GENES 35
USER: genes 0 Translation |==|  0.59272 0.63420 0.32293
USER: genes 1 Rotation |==|  0.60677 0.24922 0.34556 0.88969
USER: genes 2 Torsion [C]-CA--N-[C] |==|  0.78320
USER: genes 3 Torsion [N]-C--CA-[N] |==|  0.25198
USER: genes 4 Torsion [C]-CA--N-[C] |==|  0.17436
USER: genes 5 Torsion [N]-C--CA-[N] |==|  0.04637
USER: genes 6 Torsion [C]-CA--CB-[CG] |==|  0.48883
USER: genes 7 Torsion [CA]-CB--CG-[CD] |==|  0.35232
USER: genes 8 Torsion [CB]-CG--CD-[CE] |==|  0.56860
USER: genes 9 Torsion [CG]-CD--CE-[NZ] |==|  0.04870
USER: genes 10 Torsion [CD]-CE--NZ-[HZ2] |==|  0.15323
USER: genes 11 Torsion [C]-CA--N-[C] |==|  0.69956
USER: genes 12 Torsion [N]-C--CA-[N] |==|  0.07567
USER: genes 13 Torsion [C]-CA--CB-[OG] |==|  0.61433
USER: genes 14 Torsion [CA]-CB--OG-[HG] |==|  0.19008
USER: genes 15 Torsion [C]-CA--N-[H2] |==|  0.45866
USER: genes 16 Torsion [C]-CA--CB-[CG] |==|  0.52882
USER: genes 17 Torsion [CA]-CB--CG-[SD] |==|  0.62735
USER: genes 18 Torsion [CB]-CG--SD-[CE] |==|  0.12215
USER: genes 19 Torsion [N]-CA--CB-[CG] |==|  0.35139
USER: genes 20 Torsion [CA]-CB--CG-[CD] |==|  0.67684
USER: genes 21 Torsion [CB]-CG--CD-[OE2] |==|  0.44484
USER: genes 22 Torsion [N]-CA--C-[N] |==|  0.80492
USER: genes 23 Torsion [C]-N--CA-[CB] |==|  0.76507
USER: genes 24 Torsion [N]-CA--C-[N] |==|  0.14444
USER: genes 25 Torsion [C]-N--CA-[C] |==|  0.15777
USER: genes 26 Torsion [N]-CA--CB-[CG2] |==|  0.20628
USER: genes 27 Torsion [N]-CA--C-[N] |==|  0.13800
USER: genes 28 Torsion [C]-N--CA-[C] |==|  0.47225
USER: genes 29 Torsion [N]-CA--C-[O] |==|  0.80418
USER: genes 30 Torsion [N]-CA--CB-[CG] |==|  0.51041
USER: genes 31 Torsion [CA]-CB--CG-[OD1] |==|  0.09933
USER: genes 32 Torsion [N]-CA--CB-[CG] |==|  0.17229
USER: genes 33 Torsion [CA]-CB--CG-[CD] |==|  0.62581
USER: genes 34 Torsion [CB]-CG--CD-[OE2] |==|  0.60200
ROOT
ATOM      1  CA  GLU c   4      21.967  28.496  66.347  1.00 41.78 LIG 0.18  C 
ENDROOT
BRANCH 1 2
ATOM      2  N   GLU c   4      20.660  27.946  66.639  1.00 36.98 LIG-0.35  N 
ATOM      3 H    GLU c   4      20.013  28.334  66.227  1.00 36.98 LIG 0.16  HD
ATOM      4  C   MET c   3      20.499  26.935  67.474  1.00 39.25 LIG 0.24  C 
ATOM      5 O    MET c   3      21.431  26.469  68.129  1.00 33.30 LIG-0.27  OA
BRANCH 4 6
ATOM      6  CA  MET c   3      19.078  26.339  67.568  1.00 43.32 LIG 0.18  C 
BRANCH 6 7
ATOM      7  N   MET c   3      18.768  25.227  66.649  1.00 44.06 LIG-0.35  N 
ATOM      8 H    MET c   3      18.136  25.423  66.099  1.00 44.06 LIG 0.16  HD
ATOM      9  C   LYS c   2      19.372  24.035  66.636  1.00 50.87 LIG 0.24  C 
ATOM     10 O    LYS c   2      20.188  23.655  67.492  1.00 41.81 LIG-0.27  OA
BRANCH 9 11
ATOM     11  CA  LYS c   2      18.967  23.116  65.461  1.00 52.27 LIG 0.18  C 
BRANCH 11 12
ATOM     12  CB  LYS c   2      20.205  22.362  64.926  1.00 56.87 LIG 0.04  C 
BRANCH 12 13
ATOM     13  CG  LYS c   2      19.901  21.360  63.833  1.00 55.18 LIG 0.00  C 
BRANCH 13 14
ATOM     14  CD  LYS c   2      20.774  21.618  62.624  1.00 56.62 LIG 0.03  C 
BRANCH 14 15
ATOM     15  CE  LYS c   2      20.136  21.090  61.362  1.00 60.10 LIG 0.23  C 
BRANCH 15 16
ATOM     16  NZ  LYS c   2      18.693  20.876  61.640  1.00 62.98 LIG-0.08  N 
ATOM     17 HZ2  LYS c   2      18.334  21.631  61.943  1.00 62.98 LIG 0.27  HD
ATOM     18 HZ3  LYS c   2      18.280  20.631  60.890  1.00 62.98 LIG 0.27  HD
ATOM     19 HZ1  LYS c   2      18.600  20.236  62.252  1.00 62.98 LIG 0.27  HD
ENDBRANCH 15 16
ENDBRANCH 14 15
ENDBRANCH 13 14
ENDBRANCH 12 13
ENDBRANCH 11 12
BRANCH 11 20
ATOM     20  N   LYS c   2      18.302  23.845  64.371  1.00 43.42 LIG-0.35  N 
ATOM     21 H    LYS c   2      18.838  24.346  63.921  1.00 43.42 LIG 0.16  HD
ATOM     22  C   SER c   1      16.998  23.750  64.097  1.00 43.78 LIG 0.25  C 
ATOM     23 O    SER c   1      16.192  23.092  64.754  1.00 50.72 LIG-0.27  OA
BRANCH 22 24
ATOM     24  CA  SER c   1      16.517  24.517  62.880  1.00 42.10 LIG 0.30  C 
BRANCH 24 25
ATOM     25  CB  SER c   1      15.338  23.771  62.241  1.00 37.65 LIG 0.21  C 
BRANCH 25 26
ATOM     26 OG   SER c   1      15.406  23.763  60.830  1.00 37.04 LIG-0.40  OA
ATOM     27 HG   SER c   1      16.053  23.286  60.583  1.00 37.04 LIG 0.21  HD
ENDBRANCH 25 26
ENDBRANCH 24 25
BRANCH 24 28
ATOM     28  N   SER c   1      17.684  24.627  61.948  1.00 43.63 LIG-0.06  N 
ATOM     29 H2   SER c   1      17.398  24.874  61.142  1.00 43.63 LIG 0.28  HD
ATOM     30 H3   SER c   1      18.255  25.235  62.258  1.00 43.63 LIG 0.28  HD
ATOM     31 H1   SER c   1      18.093  23.838  61.889  1.00 43.63 LIG 0.28  HD
ENDBRANCH 24 28
ENDBRANCH 22 24
ENDBRANCH 11 20
ENDBRANCH 9 11
ENDBRANCH 6 7
BRANCH 6 32
ATOM     32  CB  MET c   3      18.832  25.825  68.990  1.00 42.03 LIG 0.04  C 
BRANCH 32 33
ATOM     33  CG  MET c   3      17.593  24.996  69.209  1.00 44.17 LIG 0.08  C 
BRANCH 33 34
ATOM     34 SD   MET c   3      16.651  25.455  70.663  1.00 39.95 LIG-0.17  SA
ATOM     35  CE  MET c   3      16.760  27.205  70.385  1.00 32.62 LIG 0.09  C 
ENDBRANCH 33 34
ENDBRANCH 32 33
ENDBRANCH 6 32
ENDBRANCH 4 6
ENDBRANCH 1 2
BRANCH 1 36
ATOM     36  CB  GLU c   4      21.924  29.225  64.978  1.00 53.02 LIG 0.04  C 
BRANCH 36 37
ATOM     37  CG  GLU c   4      22.412  30.681  64.955  1.00 67.39 LIG 0.12  C 
BRANCH 37 38
ATOM     38  CD  GLU c   4      21.309  31.673  64.582  1.00 71.96 LIG 0.17  C 
ATOM     39 OE2  GLU c   4      21.447  32.890  64.882  1.00 61.28 LIG-0.65  OA
ATOM     40 OE1  GLU c   4      20.298  31.228  63.985  1.00 68.78 LIG-0.65  OA
ENDBRANCH 37 38
ENDBRANCH 36 37
ENDBRANCH 1 36
BRANCH 1 41
ATOM     41  C   GLU c   4      22.436  29.407  67.492  1.00 40.98 LIG 0.24  C 
ATOM     42 O    GLU c   4      23.354  29.039  68.227  1.00 47.04 LIG-0.27  OA
ATOM     43  N   GLU c   5      21.806  30.576  67.656  1.00 35.89 LIG-0.35  N 
ATOM     44 H    GLU c   5      21.242  30.895  67.092  1.00 35.89 LIG 0.16  HD
BRANCH 43 45
ATOM     45  CA  GLU c   5      22.029  31.435  68.837  1.00 35.53 LIG 0.18  C 
BRANCH 45 46
ATOM     46  C   GLU c   5      23.478  31.393  69.304  1.00 33.86 LIG 0.24  C 
ATOM     47 O    GLU c   5      23.745  31.210  70.484  1.00 26.34 LIG-0.27  OA
ATOM     48  N   VAL c   6      24.400  31.633  68.372  1.00 31.71 LIG-0.35  N 
ATOM     49 H    VAL c   6      24.219  31.729  67.536  1.00 31.71 LIG 0.16  HD
BRANCH 48 50
ATOM     50  CA  VAL c   6      25.833  31.758  68.695  1.00 31.16 LIG 0.18  C 
BRANCH 50 51
ATOM     51  CB  VAL c   6      26.152  33.087  69.454  1.00 25.00 LIG 0.01  C 
ATOM     52  CG1 VAL c   6      25.487  34.230  68.730  1.00 20.51 LIG 0.01  C 
ATOM     53  CG2 VAL c   6      25.699  33.089  70.922  1.00 20.94 LIG 0.01  C 
ENDBRANCH 50 51
BRANCH 50 54
ATOM     54  C   VAL c   6      26.353  30.497  69.411  1.00 33.11 LIG 0.24  C 
ATOM     55 O    VAL c   6      26.979  30.601  70.461  1.00 31.28 LIG-0.27  OA
ATOM     56  N   ASP c   7      26.063  29.316  68.840  1.00 31.84 LIG-0.34  N 
ATOM     57 H    ASP c   7      25.662  29.253  68.081  1.00 31.84 LIG 0.16  HD
BRANCH 56 58
ATOM     58  CA  ASP c   7      26.390  28.014  69.431  1.00 33.25 LIG 0.20  C 
BRANCH 58 59
ATOM     59  C   ASP c   7      25.738  26.833  68.698  1.00 36.36 LIG 0.20  C 
ATOM     60 OXT  ASP c   7      26.429  26.067  68.026  1.00 36.21 LIG-0.65  OA
ATOM     61 O    ASP c   7      24.507  26.607  68.743  1.00 30.31 LIG-0.65  OA
ENDBRANCH 58 59
BRANCH 58 62
ATOM     62  CB  ASP c   7      25.955  28.005  70.899  1.00 37.10 LIG 0.15  C 
BRANCH 62 63
ATOM     63  CG  ASP c   7      26.337  26.739  71.594  1.00 37.44 LIG 0.17  C 
ATOM     64 OD1  ASP c   7      27.411  26.182  71.298  1.00 43.19 LIG-0.65  OA
ATOM     65 OD2  ASP c   7      25.559  26.280  72.441  1.00 52.04 LIG-0.65  OA
ENDBRANCH 62 63
ENDBRANCH 58 62
ENDBRANCH 56 58
ENDBRANCH 50 54
ENDBRANCH 48 50
ENDBRANCH 45 46
BRANCH 45 66
ATOM     66  CB  GLU c   5      21.144  31.002  70.011  1.00 40.99 LIG 0.04  C 
BRANCH 66 67
ATOM     67  CG  GLU c   5      21.413  29.583  70.515  1.00 49.45 LIG 0.12  C 
BRANCH 67 68
ATOM     68  CD  GLU c   5      20.135  28.798  70.748  1.00 57.05 LIG 0.17  C 
ATOM     69 OE2  GLU c   5      20.085  28.013  71.711  1.00 42.85 LIG-0.65  OA
ATOM     70 OE1  GLU c   5      19.171  28.982  69.970  1.00 67.91 LIG-0.65  OA
ENDBRANCH 67 68
ENDBRANCH 66 67
ENDBRANCH 45 66
ENDBRANCH 43 45
ENDBRANCH 1 41
TORSDOF 33
ENDMDL
MODEL 5
USER: ADFR SOLUTION from run 49
USER: SCORE 21.908694 LL:  -3.915 LR: -19.737 RR:   0.000 FEB:  -9.893
USER: RMSD 8.743443
USER: SEED 48
USER: STATUS 1 or 2 clusters left
USER: GENES 35
USER: genes 0 Translation |==|  0.62258 0.62918 0.27290
USER: genes 1 Rotation |==|  0.66604 0.37308 0.23450 0.86855
USER: genes 2 Torsion [C]-CA--N-[C] |==|  0.71897
USER: genes 3 Torsion [N]-C--CA-[N] |==|  0.26111
USER: genes 4 Torsion [C]-CA--N-[C] |==|  0.72780
USER: genes 5 Torsion [N]-C--CA-[N] |==|  0.09765
USER: genes 6 Torsion [C]-CA--CB-[CG] |==|  0.29026
USER: genes 7 Torsion [CA]-CB--CG-[CD] |==|  0.24661
USER: genes 8 Torsion [CB]-CG--CD-[CE] |==|  0.69272
USER: genes 9 Torsion [CG]-CD--CE-[NZ] |==|  0.91044
USER: genes 10 Torsion [CD]-CE--NZ-[HZ2] |==|  0.52316
USER: genes 11 Torsion [C]-CA--N-[C] |==|  0.62232
USER: genes 12 Torsion [N]-C--CA-[N] |==|  0.49058
USER: genes 13 Torsion [C]-CA--CB-[OG] |==|  0.89707
USER: genes 14 Torsion [CA]-CB--OG-[HG] |==|  0.85773
USER: genes 15 Torsion [C]-CA--N-[H2] |==|  0.97935
USER: genes 16 Torsion [C]-CA--CB-[CG] |==|  0.63583
USER: genes 17 Torsion [CA]-CB--CG-[SD] |==|  0.36554
USER: genes 18 Torsion [CB]-CG--SD-[CE] |==|  0.89288
USER: genes 19 Torsion [N]-CA--CB-[CG] |==|  0.13607
USER: genes 20 Torsion [CA]-CB--CG-[CD] |==|  0.52879
USER: genes 21 Torsion [CB]-CG--CD-[OE2] |==|  0.17564
USER: genes 22 Torsion [N]-CA--C-[N] |==|  0.68503
USER: genes 23 Torsion [C]-N--CA-[CB] |==|  0.58108
USER: genes 24 Torsion [N]-CA--C-[N] |==|  0.39706
USER: genes 25 Torsion [C]-N--CA-[C] |==|  0.76968
USER: genes 26 Torsion [N]-CA--CB-[CG2] |==|  0.88233
USER: genes 27 Torsion [N]-CA--C-[N] |==|  0.39454
USER: genes 28 Torsion [C]-N--CA-[C] |==|  0.53898
USER: genes 29 Torsion [N]-CA--C-[O] |==|  0.49595
USER: genes 30 Torsion [N]-CA--CB-[CG] |==|  0.11211
USER: genes 31 Torsion [CA]-CB--CG-[OD1] |==|  0.22605
USER: genes 32 Torsion [N]-CA--CB-[CG] |==|  0.56961
USER: genes 33 Torsion [CA]-CB--CG-[CD] |==|  0.19702
USER: genes 34 Torsion [CB]-CG--CD-[OE2] |==|  0.99539
ROOT
ATOM      1  CA  GLU c   4      22.616  28.380  65.259  1.00 41.78 LIG 0.18  C 
ENDROOT
BRANCH 1 2
ATOM      2  N   GLU c   4      21.365  27.804  65.702  1.00 36.98 LIG-0.35  N 
ATOM      3 H    GLU c   4      20.854  28.351  66.126  1.00 36.98 LIG 0.16  HD
ATOM      4  C   MET c   3      21.054  26.542  65.466  1.00 39.25 LIG 0.24  C 
ATOM      5 O    MET c   3      21.848  25.755  64.950  1.00 33.30 LIG-0.27  OA
BRANCH 4 6
ATOM      6  CA  MET c   3      19.623  26.102  65.845  1.00 43.32 LIG 0.18  C 
BRANCH 6 7
ATOM      7  N   MET c   3      18.612  26.157  64.774  1.00 44.06 LIG-0.35  N 
ATOM      8 H    MET c   3      18.637  25.467  64.262  1.00 44.06 LIG 0.16  HD
ATOM      9  C   LYS c   2      17.734  27.147  64.580  1.00 50.87 LIG 0.24  C 
ATOM     10 O    LYS c   2      17.746  28.223  65.201  1.00 41.81 LIG-0.27  OA
BRANCH 9 11
ATOM     11  CA  LYS c   2      16.677  26.873  63.486  1.00 52.27 LIG 0.18  C 
BRANCH 11 12
ATOM     12  CB  LYS c   2      15.447  27.783  63.697  1.00 56.87 LIG 0.04  C 
BRANCH 12 13
ATOM     13  CG  LYS c   2      15.358  28.946  62.731  1.00 55.18 LIG 0.00  C 
BRANCH 13 14
ATOM     14  CD  LYS c   2      14.604  28.538  61.484  1.00 56.62 LIG 0.03  C 
BRANCH 14 15
ATOM     15  CE  LYS c   2      15.520  28.466  60.287  1.00 60.10 LIG 0.23  C 
BRANCH 15 16
ATOM     16  NZ  LYS c   2      16.577  29.494  60.463  1.00 62.98 LIG-0.08  N 
ATOM     17 HZ2  LYS c   2      17.058  29.556  59.717  1.00 62.98 LIG 0.27  HD
ATOM     18 HZ3  LYS c   2      16.200  30.281  60.638  1.00 62.98 LIG 0.27  HD
ATOM     19 HZ1  LYS c   2      17.107  29.262  61.140  1.00 62.98 LIG 0.27  HD
ENDBRANCH 15 16
ENDBRANCH 14 15
ENDBRANCH 13 14
ENDBRANCH 12 13
ENDBRANCH 11 12
BRANCH 11 20
ATOM     20  N   LYS c   2      16.267  25.462  63.433  1.00 43.42 LIG-0.35  N 
ATOM     21 H    LYS c   2      16.126  25.119  64.209  1.00 43.42 LIG 0.16  HD
ATOM     22  C   SER c   1      16.124  24.770  62.299  1.00 43.78 LIG 0.25  C 
ATOM     23 O    SER c   1      16.373  25.208  61.176  1.00 50.72 LIG-0.27  OA
BRANCH 22 24
ATOM     24  CA  SER c   1      15.611  23.350  62.448  1.00 42.10 LIG 0.30  C 
BRANCH 24 25
ATOM     25  CB  SER c   1      16.609  22.532  63.279  1.00 37.65 LIG 0.21  C 
BRANCH 25 26
ATOM     26 OG   SER c   1      17.951  22.879  63.004  1.00 37.04 LIG-0.40  OA
ATOM     27 HG   SER c   1      18.083  22.855  62.174  1.00 37.04 LIG 0.21  HD
ENDBRANCH 25 26
ENDBRANCH 24 25
BRANCH 24 28
ATOM     28  N   SER c   1      15.451  22.801  61.063  1.00 43.63 LIG-0.06  N 
ATOM     29 H2   SER c   1      15.583  23.450  60.469  1.00 43.63 LIG 0.28  HD
ATOM     30 H3   SER c   1      16.045  22.152  60.930  1.00 43.63 LIG 0.28  HD
ATOM     31 H1   SER c   1      14.628  22.474  60.967  1.00 43.63 LIG 0.28  HD
ENDBRANCH 24 28
ENDBRANCH 22 24
ENDBRANCH 11 20
ENDBRANCH 9 11
ENDBRANCH 6 7
BRANCH 6 32
ATOM     32  CB  MET c   3      19.651  24.659  66.359  1.00 42.03 LIG 0.04  C 
BRANCH 32 33
ATOM     33  CG  MET c   3      18.643  23.707  65.769  1.00 44.17 LIG 0.08  C 
BRANCH 33 34
ATOM     34 SD   MET c   3      19.340  22.147  65.225  1.00 39.95 LIG-0.17  SA
ATOM     35  CE  MET c   3      20.838  22.849  64.582  1.00 32.62 LIG 0.09  C 
ENDBRANCH 33 34
ENDBRANCH 32 33
ENDBRANCH 6 32
ENDBRANCH 4 6
ENDBRANCH 1 2
BRANCH 1 36
ATOM     36  CB  GLU c   4      22.344  29.759  64.602  1.00 53.02 LIG 0.04  C 
BRANCH 36 37
ATOM     37  CG  GLU c   4      21.457  30.735  65.389  1.00 67.39 LIG 0.12  C 
BRANCH 37 38
ATOM     38  CD  GLU c   4      21.039  31.955  64.565  1.00 71.96 LIG 0.17  C 
ATOM     39 OE2  GLU c   4      20.324  31.791  63.539  1.00 61.28 LIG-0.65  OA
ATOM     40 OE1  GLU c   4      21.432  33.084  64.949  1.00 68.78 LIG-0.65  OA
ENDBRANCH 37 38
ENDBRANCH 36 37
ENDBRANCH 1 36
BRANCH 1 41
ATOM     41  C   GLU c   4      23.614  28.461  66.424  1.00 40.98 LIG 0.24  C 
ATOM     42 O    GLU c   4      24.044  27.424  66.933  1.00 47.04 LIG-0.27  OA
ATOM     43  N   GLU c   5      23.969  29.676  66.856  1.00 35.89 LIG-0.35  N 
ATOM     44 H    GLU c   5      23.766  30.404  66.447  1.00 35.89 LIG 0.16  HD
BRANCH 43 45
ATOM     45  CA  GLU c   5      24.755  29.878  68.092  1.00 35.53 LIG 0.18  C 
BRANCH 45 46
ATOM     46  C   GLU c   5      24.482  28.789  69.121  1.00 33.86 LIG 0.24  C 
ATOM     47 O    GLU c   5      23.345  28.371  69.296  1.00 26.34 LIG-0.27  OA
ATOM     48  N   VAL c   6      25.529  28.390  69.842  1.00 31.71 LIG-0.35  N 
ATOM     49 H    VAL c   6      26.334  28.656  69.699  1.00 31.71 LIG 0.16  HD
BRANCH 48 50
ATOM     50  CA  VAL c   6      25.398  27.443  70.964  1.00 31.16 LIG 0.18  C 
BRANCH 50 51
ATOM     51  CB  VAL c   6      26.673  26.552  71.135  1.00 25.00 LIG 0.01  C 
ATOM     52  CG1 VAL c   6      26.330  25.379  72.017  1.00 20.51 LIG 0.01  C 
ATOM     53  CG2 VAL c   6      27.252  26.034  69.810  1.00 20.94 LIG 0.01  C 
ENDBRANCH 50 51
BRANCH 50 54
ATOM     54  C   VAL c   6      24.973  28.167  72.255  1.00 33.11 LIG 0.24  C 
ATOM     55 O    VAL c   6      25.405  29.289  72.501  1.00 31.28 LIG-0.27  OA
ATOM     56  N   ASP c   7      24.108  27.520  73.053  1.00 31.84 LIG-0.34  N 
ATOM     57 H    ASP c   7      23.843  26.716  72.896  1.00 31.84 LIG 0.16  HD
BRANCH 56 58
ATOM     58  CA  ASP c   7      23.519  28.095  74.268  1.00 33.25 LIG 0.20  C 
BRANCH 58 59
ATOM     59  C   ASP c   7      22.844  27.052  75.169  1.00 36.36 LIG 0.20  C 
ATOM     60 OXT  ASP c   7      22.805  25.871  74.824  1.00 36.21 LIG-0.65  OA
ATOM     61 O    ASP c   7      22.310  27.349  76.262  1.00 30.31 LIG-0.65  OA
ENDBRANCH 58 59
BRANCH 58 62
ATOM     62  CB  ASP c   7      22.497  29.165  73.873  1.00 37.10 LIG 0.15  C 
BRANCH 62 63
ATOM     63  CG  ASP c   7      21.678  28.758  72.693  1.00 37.44 LIG 0.17  C 
ATOM     64 OD1  ASP c   7      20.703  28.001  72.861  1.00 43.19 LIG-0.65  OA
ATOM     65 OD2  ASP c   7      22.009  29.182  71.578  1.00 52.04 LIG-0.65  OA
ENDBRANCH 62 63
ENDBRANCH 58 62
ENDBRANCH 56 58
ENDBRANCH 50 54
ENDBRANCH 48 50
ENDBRANCH 45 46
BRANCH 45 66
ATOM     66  CB  GLU c   5      24.430  31.229  68.739  1.00 40.99 LIG 0.04  C 
BRANCH 66 67
ATOM     67  CG  GLU c   5      25.549  31.794  69.616  1.00 49.45 LIG 0.12  C 
BRANCH 67 68
ATOM     68  CD  GLU c   5      26.741  32.267  68.804  1.00 57.05 LIG 0.17  C 
ATOM     69 OE2  GLU c   5      26.713  32.129  67.568  1.00 42.85 LIG-0.65  OA
ATOM     70 OE1  GLU c   5      27.702  32.796  69.407  1.00 67.91 LIG-0.65  OA
ENDBRANCH 67 68
ENDBRANCH 66 67
ENDBRANCH 45 66
ENDBRANCH 43 45
ENDBRANCH 1 41
TORSDOF 33
ENDMDL
MODEL 6
USER: ADFR SOLUTION from run 164
USER: SCORE 21.798917 LL:  -3.967 LR: -19.740 RR:   0.000 FEB:  -9.896
USER: RMSD 7.826205
USER: SEED 163
USER: STATUS no improvement in best in 2 clusters for 5 generations
USER: GENES 35
USER: genes 0 Translation |==|  0.55669 0.64112 0.35338
USER: genes 1 Rotation |==|  0.62575 0.24218 0.40693 0.89881
USER: genes 2 Torsion [C]-CA--N-[C] |==|  0.72760
USER: genes 3 Torsion [N]-C--CA-[N] |==|  0.26357
USER: genes 4 Torsion [C]-CA--N-[C] |==|  0.17707
USER: genes 5 Torsion [N]-C--CA-[N] |==|  0.05837
USER: genes 6 Torsion [C]-CA--CB-[CG] |==|  0.43852
USER: genes 7 Torsion [CA]-CB--CG-[CD] |==|  0.34049
USER: genes 8 Torsion [CB]-CG--CD-[CE] |==|  0.59345
USER: genes 9 Torsion [CG]-CD--CE-[NZ] |==|  0.09810
USER: genes 10 Torsion [CD]-CE--NZ-[HZ2] |==|  0.15132
USER: genes 11 Torsion [C]-CA--N-[C] |==|  0.69118
USER: genes 12 Torsion [N]-C--CA-[N] |==|  0.10125
USER: genes 13 Torsion [C]-CA--CB-[OG] |==|  0.64222
USER: genes 14 Torsion [CA]-CB--OG-[HG] |==|  0.21039
USER: genes 15 Torsion [C]-CA--N-[H2] |==|  0.45284
USER: genes 16 Torsion [C]-CA--CB-[CG] |==|  0.52217
USER: genes 17 Torsion [CA]-CB--CG-[SD] |==|  0.63297
USER: genes 18 Torsion [CB]-CG--SD-[CE] |==|  0.10768
USER: genes 19 Torsion [N]-CA--CB-[CG] |==|  0.43438
USER: genes 20 Torsion [CA]-CB--CG-[CD] |==|  0.66575
USER: genes 21 Torsion [CB]-CG--CD-[OE2] |==|  0.45108
USER: genes 22 Torsion [N]-CA--C-[N] |==|  0.98596
USER: genes 23 Torsion [C]-N--CA-[CB] |==|  0.52028
USER: genes 24 Torsion [N]-CA--C-[N] |==|  0.42640
USER: genes 25 Torsion [C]-N--CA-[C] |==|  0.16180
USER: genes 26 Torsion [N]-CA--CB-[CG2] |==|  0.22748
USER: genes 27 Torsion [N]-CA--C-[N] |==|  0.05157
USER: genes 28 Torsion [C]-N--CA-[C] |==|  0.66087
USER: genes 29 Torsion [N]-CA--C-[O] |==|  0.72406
USER: genes 30 Torsion [N]-CA--CB-[CG] |==|  0.84002
USER: genes 31 Torsion [CA]-CB--CG-[OD1] |==|  0.94077
USER: genes 32 Torsion [N]-CA--CB-[CG] |==|  0.26143
USER: genes 33 Torsion [CA]-CB--CG-[CD] |==|  0.79613
USER: genes 34 Torsion [CB]-CG--CD-[OE2] |==|  0.47126
ROOT
ATOM      1  CA  GLU c   4      21.183  28.657  67.009  1.00 41.78 LIG 0.18  C 
ENDROOT
BRANCH 1 2
ATOM      2  N   GLU c   4      20.017  27.836  67.258  1.00 36.98 LIG-0.35  N 
ATOM      3 H    GLU c   4      19.278  28.182  66.987  1.00 36.98 LIG 0.16  HD
ATOM      4  C   MET c   3      20.105  26.660  67.853  1.00 39.25 LIG 0.24  C 
ATOM      5 O    MET c   3      21.162  26.239  68.324  1.00 33.30 LIG-0.27  OA
BRANCH 4 6
ATOM      6  CA  MET c   3      18.813  25.817  67.907  1.00 43.32 LIG 0.18  C 
BRANCH 6 7
ATOM      7  N   MET c   3      18.633  24.818  66.836  1.00 44.06 LIG-0.35  N 
ATOM      8 H    MET c   3      17.951  24.988  66.341  1.00 44.06 LIG 0.16  HD
ATOM      9  C   LYS c   2      19.416  23.756  66.622  1.00 50.87 LIG 0.24  C 
ATOM     10 O    LYS c   2      20.325  23.391  67.386  1.00 41.81 LIG-0.27  OA
BRANCH 9 11
ATOM     11  CA  LYS c   2      19.099  22.967  65.330  1.00 52.27 LIG 0.18  C 
BRANCH 11 12
ATOM     12  CB  LYS c   2      20.404  22.421  64.710  1.00 56.87 LIG 0.04  C 
BRANCH 12 13
ATOM     13  CG  LYS c   2      20.208  21.236  63.788  1.00 55.18 LIG 0.00  C 
BRANCH 13 14
ATOM     14  CD  LYS c   2      20.762  21.540  62.413  1.00 56.62 LIG 0.03  C 
BRANCH 14 15
ATOM     15  CE  LYS c   2      19.950  20.868  61.333  1.00 60.10 LIG 0.23  C 
BRANCH 15 16
ATOM     16  NZ  LYS c   2      18.529  20.876  61.763  1.00 62.98 LIG-0.08  N 
ATOM     17 HZ2  LYS c   2      18.281  21.709  61.953  1.00 62.98 LIG 0.27  HD
ATOM     18 HZ3  LYS c   2      18.019  20.558  61.107  1.00 62.98 LIG 0.27  HD
ATOM     19 HZ1  LYS c   2      18.435  20.366  62.486  1.00 62.98 LIG 0.27  HD
ENDBRANCH 15 16
ENDBRANCH 14 15
ENDBRANCH 13 14
ENDBRANCH 12 13
ENDBRANCH 11 12
BRANCH 11 20
ATOM     20  N   LYS c   2      18.359  23.767  64.343  1.00 43.42 LIG-0.35  N 
ATOM     21 H    LYS c   2      18.827  24.401  63.999  1.00 43.42 LIG 0.16  HD
ATOM     22  C   SER c   1      17.086  23.541  64.006  1.00 43.78 LIG 0.25  C 
ATOM     23 O    SER c   1      16.368  22.683  64.519  1.00 50.72 LIG-0.27  OA
BRANCH 22 24
ATOM     24  CA  SER c   1      16.523  24.422  62.907  1.00 42.10 LIG 0.30  C 
BRANCH 24 25
ATOM     25  CB  SER c   1      15.318  23.725  62.262  1.00 37.65 LIG 0.21  C 
BRANCH 25 26
ATOM     26 OG   SER c   1      15.418  23.669  60.853  1.00 37.04 LIG-0.40  OA
ATOM     27 HG   SER c   1      15.972  23.075  60.635  1.00 37.04 LIG 0.21  HD
ENDBRANCH 25 26
ENDBRANCH 24 25
BRANCH 24 28
ATOM     28  N   SER c   1      17.632  24.651  61.926  1.00 43.63 LIG-0.06  N 
ATOM     29 H2   SER c   1      17.292  24.947  61.158  1.00 43.63 LIG 0.28  HD
ATOM     30 H3   SER c   1      18.197  25.256  62.252  1.00 43.63 LIG 0.28  HD
ATOM     31 H1   SER c   1      18.065  23.887  61.783  1.00 43.63 LIG 0.28  HD
ENDBRANCH 24 28
ENDBRANCH 22 24
ENDBRANCH 11 20
ENDBRANCH 9 11
ENDBRANCH 6 7
BRANCH 6 32
ATOM     32  CB  MET c   3      18.750  25.062  69.238  1.00 42.03 LIG 0.04  C 
BRANCH 32 33
ATOM     33  CG  MET c   3      17.650  24.043  69.391  1.00 44.17 LIG 0.08  C 
BRANCH 33 34
ATOM     34 SD   MET c   3      16.739  24.174  70.930  1.00 39.95 LIG-0.17  SA
ATOM     35  CE  MET c   3      16.732  25.949  70.967  1.00 32.62 LIG 0.09  C 
ENDBRANCH 33 34
ENDBRANCH 32 33
ENDBRANCH 6 32
ENDBRANCH 4 6
ENDBRANCH 1 2
BRANCH 1 36
ATOM     36  CB  GLU c   4      21.095  29.257  65.581  1.00 53.02 LIG 0.04  C 
BRANCH 36 37
ATOM     37  CG  GLU c   4      21.889  30.546  65.323  1.00 67.39 LIG 0.12  C 
BRANCH 37 38
ATOM     38  CD  GLU c   4      21.002  31.714  64.887  1.00 71.96 LIG 0.17  C 
ATOM     39 OE2  GLU c   4      21.449  32.891  64.965  1.00 61.28 LIG-0.65  OA
ATOM     40 OE1  GLU c   4      19.850  31.449  64.466  1.00 68.78 LIG-0.65  OA
ENDBRANCH 37 38
ENDBRANCH 36 37
ENDBRANCH 1 36
BRANCH 1 41
ATOM     41  C   GLU c   4      21.328  29.731  68.098  1.00 40.98 LIG 0.24  C 
ATOM     42 O    GLU c   4      22.324  30.456  68.112  1.00 47.04 LIG-0.27  OA
ATOM     43  N   GLU c   5      20.356  29.826  69.012  1.00 35.89 LIG-0.35  N 
ATOM     44 H    GLU c   5      19.608  29.406  68.956  1.00 35.89 LIG 0.16  HD
BRANCH 43 45
ATOM     45  CA  GLU c   5      20.482  30.675  70.216  1.00 35.53 LIG 0.18  C 
BRANCH 45 46
ATOM     46  C   GLU c   5      21.766  30.385  70.981  1.00 33.86 LIG 0.24  C 
ATOM     47 O    GLU c   5      22.264  29.267  70.957  1.00 26.34 LIG-0.27  OA
ATOM     48  N   VAL c   6      22.251  31.388  71.711  1.00 31.71 LIG-0.35  N 
ATOM     49 H    VAL c   6      21.923  32.183  71.705  1.00 31.71 LIG 0.16  HD
BRANCH 48 50
ATOM     50  CA  VAL c   6      23.409  31.222  72.609  1.00 31.16 LIG 0.18  C 
BRANCH 50 51
ATOM     51  CB  VAL c   6      23.064  30.346  73.858  1.00 25.00 LIG 0.01  C 
ATOM     52  CG1 VAL c   6      21.685  30.713  74.342  1.00 20.51 LIG 0.01  C 
ATOM     53  CG2 VAL c   6      23.118  28.834  73.592  1.00 20.94 LIG 0.01  C 
ENDBRANCH 50 51
BRANCH 50 54
ATOM     54  C   VAL c   6      24.647  30.733  71.834  1.00 33.11 LIG 0.24  C 
ATOM     55 O    VAL c   6      25.576  30.200  72.433  1.00 31.28 LIG-0.27  OA
ATOM     56  N   ASP c   7      24.630  30.902  70.502  1.00 31.84 LIG-0.34  N 
ATOM     57 H    ASP c   7      23.995  31.316  70.094  1.00 31.84 LIG 0.16  HD
BRANCH 56 58
ATOM     58  CA  ASP c   7      25.674  30.411  69.596  1.00 33.25 LIG 0.20  C 
BRANCH 58 59
ATOM     59  C   ASP c   7      26.326  31.521  68.760  1.00 36.36 LIG 0.20  C 
ATOM     60 OXT  ASP c   7      27.200  32.233  69.255  1.00 36.21 LIG-0.65  OA
ATOM     61 O    ASP c   7      26.002  31.751  67.573  1.00 30.31 LIG-0.65  OA
ENDBRANCH 58 59
BRANCH 58 62
ATOM     62  CB  ASP c   7      25.074  29.356  68.662  1.00 37.10 LIG 0.15  C 
BRANCH 62 63
ATOM     63  CG  ASP c   7      24.465  28.217  69.412  1.00 37.44 LIG 0.17  C 
ATOM     64 OD1  ASP c   7      24.824  28.000  70.585  1.00 43.19 LIG-0.65  OA
ATOM     65 OD2  ASP c   7      23.626  27.516  68.831  1.00 52.04 LIG-0.65  OA
ENDBRANCH 62 63
ENDBRANCH 58 62
ENDBRANCH 56 58
ENDBRANCH 50 54
ENDBRANCH 48 50
ENDBRANCH 45 46
BRANCH 45 66
ATOM     66  CB  GLU c   5      19.305  30.456  71.172  1.00 40.99 LIG 0.04  C 
BRANCH 66 67
ATOM     67  CG  GLU c   5      19.565  29.421  72.268  1.00 49.45 LIG 0.12  C 
BRANCH 67 68
ATOM     68  CD  GLU c   5      19.560  27.999  71.737  1.00 57.05 LIG 0.17  C 
ATOM     69 OE2  GLU c   5      19.950  27.083  72.482  1.00 42.85 LIG-0.65  OA
ATOM     70 OE1  GLU c   5      19.147  27.798  70.572  1.00 67.91 LIG-0.65  OA
ENDBRANCH 67 68
ENDBRANCH 66 67
ENDBRANCH 45 66
ENDBRANCH 43 45
ENDBRANCH 1 41
TORSDOF 33
ENDMDL
MODEL 7
USER: ADFR SOLUTION from run 122
USER: SCORE 21.819381 LL:  -4.454 LR: -19.667 RR:   0.000 FEB:  -9.823
USER: RMSD 8.439077
USER: SEED 121
USER: STATUS 1 or 2 clusters left
USER: GENES 35
USER: genes 0 Translation |==|  0.59850 0.61268 0.29035
USER: genes 1 Rotation |==|  0.68038 0.35982 0.26769 0.87927
USER: genes 2 Torsion [C]-CA--N-[C] |==|  0.68604
USER: genes 3 Torsion [N]-C--CA-[N] |==|  0.38154
USER: genes 4 Torsion [C]-CA--N-[C] |==|  0.55174
USER: genes 5 Torsion [N]-C--CA-[N] |==|  0.04134
USER: genes 6 Torsion [C]-CA--CB-[CG] |==|  0.44244
USER: genes 7 Torsion [CA]-CB--CG-[CD] |==|  0.28746
USER: genes 8 Torsion [CB]-CG--CD-[CE] |==|  0.70945
USER: genes 9 Torsion [CG]-CD--CE-[NZ] |==|  0.90345
USER: genes 10 Torsion [CD]-CE--NZ-[HZ2] |==|  0.86114
USER: genes 11 Torsion [C]-CA--N-[C] |==|  0.19805
USER: genes 12 Torsion [N]-C--CA-[N] |==|  0.97312
USER: genes 13 Torsion [C]-CA--CB-[OG] |==|  0.13235
USER: genes 14 Torsion [CA]-CB--OG-[HG] |==|  0.86397
USER: genes 15 Torsion [C]-CA--N-[H2] |==|  0.41802
USER: genes 16 Torsion [C]-CA--CB-[CG] |==|  0.67629
USER: genes 17 Torsion [CA]-CB--CG-[SD] |==|  0.33601
USER: genes 18 Torsion [CB]-CG--SD-[CE] |==|  0.22384
USER: genes 19 Torsion [N]-CA--CB-[CG] |==|  0.22289
USER: genes 20 Torsion [CA]-CB--CG-[CD] |==|  0.47384
USER: genes 21 Torsion [CB]-CG--CD-[OE2] |==|  0.57114
USER: genes 22 Torsion [N]-CA--C-[N] |==|  0.60232
USER: genes 23 Torsion [C]-N--CA-[CB] |==|  0.56899
USER: genes 24 Torsion [N]-CA--C-[N] |==|  0.79554
USER: genes 25 Torsion [C]-N--CA-[C] |==|  0.69672
USER: genes 26 Torsion [N]-CA--CB-[CG2] |==|  0.92168
USER: genes 27 Torsion [N]-CA--C-[N] |==|  0.07768
USER: genes 28 Torsion [C]-N--CA-[C] |==|  0.17865
USER: genes 29 Torsion [N]-CA--C-[O] |==|  0.32163
USER: genes 30 Torsion [N]-CA--CB-[CG] |==|  0.89999
USER: genes 31 Torsion [CA]-CB--CG-[OD1] |==|  0.35896
USER: genes 32 Torsion [N]-CA--CB-[CG] |==|  0.54417
USER: genes 33 Torsion [CA]-CB--CG-[CD] |==|  0.27977
USER: genes 34 Torsion [CB]-CG--CD-[OE2] |==|  0.50958
ROOT
ATOM      1  CA  GLU c   4      22.092  27.996  65.638  1.00 41.78 LIG 0.18  C 
ENDROOT
BRANCH 1 2
ATOM      2  N   GLU c   4      20.876  27.288  65.976  1.00 36.98 LIG-0.35  N 
ATOM      3 H    GLU c   4      20.330  27.737  66.465  1.00 36.98 LIG 0.16  HD
ATOM      4  C   MET c   3      20.646  26.056  65.559  1.00 39.25 LIG 0.24  C 
ATOM      5 O    MET c   3      21.491  25.400  64.948  1.00 33.30 LIG-0.27  OA
BRANCH 4 6
ATOM      6  CA  MET c   3      19.243  25.480  65.850  1.00 43.32 LIG 0.18  C 
BRANCH 6 7
ATOM      7  N   MET c   3      18.603  24.723  64.758  1.00 44.06 LIG-0.35  N 
ATOM      8 H    MET c   3      19.168  24.462  64.164  1.00 44.06 LIG 0.16  HD
ATOM      9  C   LYS c   2      17.298  24.450  64.659  1.00 50.87 LIG 0.24  C 
ATOM     10 O    LYS c   2      16.426  24.919  65.410  1.00 41.81 LIG-0.27  OA
BRANCH 9 11
ATOM     11  CA  LYS c   2      16.920  23.498  63.501  1.00 52.27 LIG 0.18  C 
BRANCH 11 12
ATOM     12  CB  LYS c   2      15.857  22.482  63.976  1.00 56.87 LIG 0.04  C 
BRANCH 12 13
ATOM     13  CG  LYS c   2      15.062  21.842  62.857  1.00 55.18 LIG 0.00  C 
BRANCH 13 14
ATOM     14  CD  LYS c   2      15.547  20.431  62.607  1.00 56.62 LIG 0.03  C 
BRANCH 14 15
ATOM     15  CE  LYS c   2      16.381  20.350  61.352  1.00 60.10 LIG 0.23  C 
BRANCH 15 16
ATOM     16  NZ  LYS c   2      15.821  21.313  60.372  1.00 62.98 LIG-0.08  N 
ATOM     17 HZ2  LYS c   2      14.942  21.190  60.304  1.00 62.98 LIG 0.27  HD
ATOM     18 HZ3  LYS c   2      15.983  22.144  60.646  1.00 62.98 LIG 0.27  HD
ATOM     19 HZ1  LYS c   2      16.201  21.183  59.577  1.00 62.98 LIG 0.27  HD
ENDBRANCH 15 16
ENDBRANCH 14 15
ENDBRANCH 13 14
ENDBRANCH 12 13
ENDBRANCH 11 12
BRANCH 11 20
ATOM     20  N   LYS c   2      18.084  22.796  62.940  1.00 43.42 LIG-0.35  N 
ATOM     21 H    LYS c   2      18.301  23.072  62.155  1.00 43.42 LIG 0.16  HD
ATOM     22  C   SER c   1      18.746  21.825  63.575  1.00 43.78 LIG 0.25  C 
ATOM     23 O    SER c   1      18.429  21.365  64.672  1.00 50.72 LIG-0.27  OA
BRANCH 22 24
ATOM     24  CA  SER c   1      19.972  21.282  62.866  1.00 42.10 LIG 0.30  C 
BRANCH 24 25
ATOM     25  CB  SER c   1      21.231  21.681  63.646  1.00 37.65 LIG 0.21  C 
BRANCH 25 26
ATOM     26 OG   SER c   1      21.112  21.422  65.031  1.00 37.04 LIG-0.40  OA
ATOM     27 HG   SER c   1      20.384  21.732  65.312  1.00 37.04 LIG 0.21  HD
ENDBRANCH 25 26
ENDBRANCH 24 25
BRANCH 24 28
ATOM     28  N   SER c   1      19.962  21.857  61.483  1.00 43.63 LIG-0.06  N 
ATOM     29 H2   SER c   1      20.798  21.937  61.188  1.00 43.63 LIG 0.28  HD
ATOM     30 H3   SER c   1      19.507  21.318  60.940  1.00 43.63 LIG 0.28  HD
ATOM     31 H1   SER c   1      19.575  22.659  61.497  1.00 43.63 LIG 0.28  HD
ENDBRANCH 24 28
ENDBRANCH 22 24
ENDBRANCH 11 20
ENDBRANCH 9 11
ENDBRANCH 6 7
BRANCH 6 32
ATOM     32  CB  MET c   3      19.315  24.544  67.060  1.00 42.03 LIG 0.04  C 
BRANCH 32 33
ATOM     33  CG  MET c   3      18.987  23.093  66.818  1.00 44.17 LIG 0.08  C 
BRANCH 33 34
ATOM     34 SD   MET c   3      20.315  21.963  67.234  1.00 39.95 LIG-0.17  SA
ATOM     35  CE  MET c   3      19.983  21.951  68.978  1.00 32.62 LIG 0.09  C 
ENDBRANCH 33 34
ENDBRANCH 32 33
ENDBRANCH 6 32
ENDBRANCH 4 6
ENDBRANCH 1 2
BRANCH 1 36
ATOM     36  CB  GLU c   4      21.733  29.314  64.903  1.00 53.02 LIG 0.04  C 
BRANCH 36 37
ATOM     37  CG  GLU c   4      21.300  30.498  65.781  1.00 67.39 LIG 0.12  C 
BRANCH 37 38
ATOM     38  CD  GLU c   4      21.189  31.809  65.000  1.00 71.96 LIG 0.17  C 
ATOM     39 OE2  GLU c   4      21.326  32.904  65.610  1.00 61.28 LIG-0.65  OA
ATOM     40 OE1  GLU c   4      20.960  31.739  63.767  1.00 68.78 LIG-0.65  OA
ENDBRANCH 37 38
ENDBRANCH 36 37
ENDBRANCH 1 36
BRANCH 1 41
ATOM     41  C   GLU c   4      22.947  28.228  66.894  1.00 40.98 LIG 0.24  C 
ATOM     42 O    GLU c   4      22.983  27.367  67.775  1.00 47.04 LIG-0.27  OA
ATOM     43  N   GLU c   5      23.617  29.382  66.987  1.00 35.89 LIG-0.35  N 
ATOM     44 H    GLU c   5      23.690  29.943  66.340  1.00 35.89 LIG 0.16  HD
BRANCH 43 45
ATOM     45  CA  GLU c   5      24.300  29.801  68.229  1.00 35.53 LIG 0.18  C 
BRANCH 45 46
ATOM     46  C   GLU c   5      23.546  29.350  69.471  1.00 33.86 LIG 0.24  C 
ATOM     47 O    GLU c   5      23.936  28.388  70.120  1.00 26.34 LIG-0.27  OA
ATOM     48  N   VAL c   6      22.425  30.016  69.749  1.00 31.71 LIG-0.35  N 
ATOM     49 H    VAL c   6      22.165  30.712  69.316  1.00 31.71 LIG 0.16  HD
BRANCH 48 50
ATOM     50  CA  VAL c   6      21.518  29.612  70.839  1.00 31.16 LIG 0.18  C 
BRANCH 50 51
ATOM     51  CB  VAL c   6      21.303  30.758  71.881  1.00 25.00 LIG 0.01  C 
ATOM     52  CG1 VAL c   6      21.038  30.142  73.231  1.00 20.51 LIG 0.01  C 
ATOM     53  CG2 VAL c   6      22.489  31.728  71.994  1.00 20.94 LIG 0.01  C 
ENDBRANCH 50 51
BRANCH 50 54
ATOM     54  C   VAL c   6      20.206  29.028  70.282  1.00 33.11 LIG 0.24  C 
ATOM     55 O    VAL c   6      19.166  29.131  70.925  1.00 31.28 LIG-0.27  OA
ATOM     56  N   ASP c   7      20.271  28.442  69.076  1.00 31.84 LIG-0.34  N 
ATOM     57 H    ASP c   7      21.011  28.335  68.651  1.00 31.84 LIG 0.16  HD
BRANCH 56 58
ATOM     58  CA  ASP c   7      19.107  27.922  68.349  1.00 33.25 LIG 0.20  C 
BRANCH 58 59
ATOM     59  C   ASP c   7      18.103  29.012  67.948  1.00 36.36 LIG 0.20  C 
ATOM     60 OXT  ASP c   7      17.499  29.643  68.816  1.00 36.21 LIG-0.65  OA
ATOM     61 O    ASP c   7      17.854  29.295  66.754  1.00 30.31 LIG-0.65  OA
ENDBRANCH 58 59
BRANCH 58 62
ATOM     62  CB  ASP c   7      18.401  26.874  69.214  1.00 37.10 LIG 0.15  C 
BRANCH 62 63
ATOM     63  CG  ASP c   7      19.364  26.059  70.013  1.00 37.44 LIG 0.17  C 
ATOM     64 OD1  ASP c   7      19.180  25.928  71.239  1.00 43.19 LIG-0.65  OA
ATOM     65 OD2  ASP c   7      20.325  25.546  69.425  1.00 52.04 LIG-0.65  OA
ENDBRANCH 62 63
ENDBRANCH 58 62
ENDBRANCH 56 58
ENDBRANCH 50 54
ENDBRANCH 48 50
ENDBRANCH 45 46
BRANCH 45 66
ATOM     66  CB  GLU c   5      24.444  31.326  68.293  1.00 40.99 LIG 0.04  C 
BRANCH 66 67
ATOM     67  CG  GLU c   5      25.456  31.822  69.326  1.00 49.45 LIG 0.12  C 
BRANCH 67 68
ATOM     68  CD  GLU c   5      26.785  32.203  68.701  1.00 57.05 LIG 0.17  C 
ATOM     69 OE2  GLU c   5      27.715  32.560  69.446  1.00 42.85 LIG-0.65  OA
ATOM     70 OE1  GLU c   5      26.904  32.126  67.456  1.00 67.91 LIG-0.65  OA
ENDBRANCH 67 68
ENDBRANCH 66 67
ENDBRANCH 45 66
ENDBRANCH 43 45
ENDBRANCH 1 41
TORSDOF 33
ENDMDL
MODEL 8
USER: ADFR SOLUTION from run 85
USER: SCORE 22.324691 LL:  -3.638 LR: -19.618 RR:   0.000 FEB:  -9.774
USER: RMSD 8.983914
USER: SEED 84
USER: STATUS no improvement in best in 4 clusters for 5 generations
USER: GENES 35
USER: genes 0 Translation |==|  0.62955 0.66088 0.35890
USER: genes 1 Rotation |==|  0.66287 0.32307 0.22627 0.84240
USER: genes 2 Torsion [C]-CA--N-[C] |==|  0.81526
USER: genes 3 Torsion [N]-C--CA-[N] |==|  0.34517
USER: genes 4 Torsion [C]-CA--N-[C] |==|  0.86667
USER: genes 5 Torsion [N]-C--CA-[N] |==|  0.37595
USER: genes 6 Torsion [C]-CA--CB-[CG] |==|  0.58716
USER: genes 7 Torsion [CA]-CB--CG-[CD] |==|  0.34714
USER: genes 8 Torsion [CB]-CG--CD-[CE] |==|  0.47939
USER: genes 9 Torsion [CG]-CD--CE-[NZ] |==|  0.28932
USER: genes 10 Torsion [CD]-CE--NZ-[HZ2] |==|  0.52629
USER: genes 11 Torsion [C]-CA--N-[C] |==|  0.62129
USER: genes 12 Torsion [N]-C--CA-[N] |==|  0.37752
USER: genes 13 Torsion [C]-CA--CB-[OG] |==|  0.74601
USER: genes 14 Torsion [CA]-CB--OG-[HG] |==|  0.19985
USER: genes 15 Torsion [C]-CA--N-[H2] |==|  0.58169
USER: genes 16 Torsion [C]-CA--CB-[CG] |==|  0.61007
USER: genes 17 Torsion [CA]-CB--CG-[SD] |==|  0.24933
USER: genes 18 Torsion [CB]-CG--SD-[CE] |==|  0.23923
USER: genes 19 Torsion [N]-CA--CB-[CG] |==|  0.90326
USER: genes 20 Torsion [CA]-CB--CG-[CD] |==|  0.35462
USER: genes 21 Torsion [CB]-CG--CD-[OE2] |==|  0.74712
USER: genes 22 Torsion [N]-CA--C-[N] |==|  0.47203
USER: genes 23 Torsion [C]-N--CA-[CB] |==|  0.84806
USER: genes 24 Torsion [N]-CA--C-[N] |==|  0.43793
USER: genes 25 Torsion [C]-N--CA-[C] |==|  0.83085
USER: genes 26 Torsion [N]-CA--CB-[CG2] |==|  0.48314
USER: genes 27 Torsion [N]-CA--C-[N] |==|  0.91688
USER: genes 28 Torsion [C]-N--CA-[C] |==|  0.20304
USER: genes 29 Torsion [N]-CA--C-[O] |==|  0.91716
USER: genes 30 Torsion [N]-CA--CB-[CG] |==|  0.80023
USER: genes 31 Torsion [CA]-CB--CG-[OD1] |==|  0.05155
USER: genes 32 Torsion [N]-CA--CB-[CG] |==|  0.84651
USER: genes 33 Torsion [CA]-CB--CG-[CD] |==|  0.84087
USER: genes 34 Torsion [CB]-CG--CD-[OE2] |==|  0.28864
ROOT
ATOM      1  CA  GLU c   4      22.768  29.116  67.129  1.00 41.78 LIG 0.18  C 
ENDROOT
BRANCH 1 2
ATOM      2  N   GLU c   4      21.390  28.764  67.400  1.00 36.98 LIG-0.35  N 
ATOM      3 H    GLU c   4      20.827  29.395  67.243  1.00 36.98 LIG 0.16  HD
ATOM      4  C   MET c   3      21.050  27.570  67.849  1.00 39.25 LIG 0.24  C 
ATOM      5 O    MET c   3      21.887  26.723  68.163  1.00 33.30 LIG-0.27  OA
BRANCH 4 6
ATOM      6  CA  MET c   3      19.537  27.271  67.937  1.00 43.32 LIG 0.18  C 
BRANCH 6 7
ATOM      7  N   MET c   3      19.060  26.076  67.217  1.00 44.06 LIG-0.35  N 
ATOM      8 H    MET c   3      18.550  25.582  67.703  1.00 44.06 LIG 0.16  HD
ATOM      9  C   LYS c   2      19.358  25.755  65.954  1.00 50.87 LIG 0.24  C 
ATOM     10 O    LYS c   2      20.195  26.356  65.259  1.00 41.81 LIG-0.27  OA
BRANCH 9 11
ATOM     11  CA  LYS c   2      18.589  24.536  65.395  1.00 52.27 LIG 0.18  C 
BRANCH 11 12
ATOM     12  CB  LYS c   2      19.490  23.281  65.426  1.00 56.87 LIG 0.04  C 
BRANCH 12 13
ATOM     13  CG  LYS c   2      19.215  22.289  64.316  1.00 55.18 LIG 0.00  C 
BRANCH 13 14
ATOM     14  CD  LYS c   2      20.483  22.000  63.542  1.00 56.62 LIG 0.03  C 
BRANCH 14 15
ATOM     15  CE  LYS c   2      20.278  20.883  62.548  1.00 60.10 LIG 0.23  C 
BRANCH 15 16
ATOM     16  NZ  LYS c   2      20.173  21.490  61.198  1.00 62.98 LIG-0.08  N 
ATOM     17 HZ2  LYS c   2      19.917  20.872  60.613  1.00 62.98 LIG 0.27  HD
ATOM     18 HZ3  LYS c   2      19.575  22.149  61.214  1.00 62.98 LIG 0.27  HD
ATOM     19 HZ1  LYS c   2      20.966  21.816  60.957  1.00 62.98 LIG 0.27  HD
ENDBRANCH 15 16
ENDBRANCH 14 15
ENDBRANCH 13 14
ENDBRANCH 12 13
ENDBRANCH 11 12
BRANCH 11 20
ATOM     20  N   LYS c   2      18.075  24.763  64.037  1.00 43.42 LIG-0.35  N 
ATOM     21 H    LYS c   2      18.644  25.144  63.516  1.00 43.42 LIG 0.16  HD
ATOM     22  C   SER c   1      16.848  24.417  63.637  1.00 43.78 LIG 0.25  C 
ATOM     23 O    SER c   1      15.987  23.926  64.367  1.00 50.72 LIG-0.27  OA
BRANCH 22 24
ATOM     24  CA  SER c   1      16.533  24.658  62.173  1.00 42.10 LIG 0.30  C 
BRANCH 24 25
ATOM     25  CB  SER c   1      15.668  25.919  62.039  1.00 37.65 LIG 0.21  C 
BRANCH 25 26
ATOM     26 OG   SER c   1      14.285  25.630  62.071  1.00 37.04 LIG-0.40  OA
ATOM     27 HG   SER c   1      14.062  25.415  62.852  1.00 37.04 LIG 0.21  HD
ENDBRANCH 25 26
ENDBRANCH 24 25
BRANCH 24 28
ATOM     28  N   SER c   1      15.825  23.436  61.675  1.00 43.63 LIG-0.06  N 
ATOM     29 H2   SER c   1      15.992  23.328  60.808  1.00 43.63 LIG 0.28  HD
ATOM     30 H3   SER c   1      16.113  22.723  62.123  1.00 43.63 LIG 0.28  HD
ATOM     31 H1   SER c   1      14.948  23.529  61.799  1.00 43.63 LIG 0.28  HD
ENDBRANCH 24 28
ENDBRANCH 22 24
ENDBRANCH 11 20
ENDBRANCH 9 11
ENDBRANCH 6 7
BRANCH 6 32
ATOM     32  CB  MET c   3      19.134  27.100  69.404  1.00 42.03 LIG 0.04  C 
BRANCH 32 33
ATOM     33  CG  MET c   3      18.138  26.013  69.713  1.00 44.17 LIG 0.08  C 
BRANCH 33 34
ATOM     34 SD   MET c   3      18.880  24.420  70.071  1.00 39.95 LIG-0.17  SA
ATOM     35  CE  MET c   3      19.131  24.739  71.799  1.00 32.62 LIG 0.09  C 
ENDBRANCH 33 34
ENDBRANCH 32 33
ENDBRANCH 6 32
ENDBRANCH 4 6
ENDBRANCH 1 2
BRANCH 1 36
ATOM     36  CB  GLU c   4      22.813  30.461  66.355  1.00 53.02 LIG 0.04  C 
BRANCH 36 37
ATOM     37  CG  GLU c   4      21.675  30.722  65.358  1.00 67.39 LIG 0.12  C 
BRANCH 37 38
ATOM     38  CD  GLU c   4      20.987  32.070  65.580  1.00 71.96 LIG 0.17  C 
ATOM     39 OE2  GLU c   4      19.985  32.133  66.343  1.00 61.28 LIG-0.65  OA
ATOM     40 OE1  GLU c   4      21.454  33.072  64.985  1.00 68.78 LIG-0.65  OA
ENDBRANCH 37 38
ENDBRANCH 36 37
ENDBRANCH 1 36
BRANCH 1 41
ATOM     41  C   GLU c   4      23.580  29.152  68.432  1.00 40.98 LIG 0.24  C 
ATOM     42 O    GLU c   4      22.997  29.097  69.517  1.00 47.04 LIG-0.27  OA
ATOM     43  N   GLU c   5      24.910  29.259  68.335  1.00 35.89 LIG-0.35  N 
ATOM     44 H    GLU c   5      25.339  29.190  67.594  1.00 35.89 LIG 0.16  HD
BRANCH 43 45
ATOM     45  CA  GLU c   5      25.771  29.508  69.510  1.00 35.53 LIG 0.18  C 
BRANCH 45 46
ATOM     46  C   GLU c   5      25.752  28.338  70.485  1.00 33.86 LIG 0.24  C 
ATOM     47 O    GLU c   5      24.789  27.584  70.532  1.00 26.34 LIG-0.27  OA
ATOM     48  N   VAL c   6      26.799  28.243  71.305  1.00 31.71 LIG-0.35  N 
ATOM     49 H    VAL c   6      27.492  28.750  71.253  1.00 31.71 LIG 0.16  HD
BRANCH 48 50
ATOM     50  CA  VAL c   6      26.862  27.246  72.390  1.00 31.16 LIG 0.18  C 
BRANCH 50 51
ATOM     51  CB  VAL c   6      28.277  27.186  73.052  1.00 25.00 LIG 0.01  C 
ATOM     52  CG1 VAL c   6      28.686  28.581  73.450  1.00 20.51 LIG 0.01  C 
ATOM     53  CG2 VAL c   6      28.350  26.269  74.283  1.00 20.94 LIG 0.01  C 
ENDBRANCH 50 51
BRANCH 50 54
ATOM     54  C   VAL c   6      25.715  27.451  73.398  1.00 33.11 LIG 0.24  C 
ATOM     55 O    VAL c   6      25.273  26.495  74.027  1.00 31.28 LIG-0.27  OA
ATOM     56  N   ASP c   7      25.266  28.707  73.555  1.00 31.84 LIG-0.34  N 
ATOM     57 H    ASP c   7      25.552  29.364  73.079  1.00 31.84 LIG 0.16  HD
BRANCH 56 58
ATOM     58  CA  ASP c   7      24.253  29.102  74.539  1.00 33.25 LIG 0.20  C 
BRANCH 58 59
ATOM     59  C   ASP c   7      24.777  29.112  75.982  1.00 36.36 LIG 0.20  C 
ATOM     60 OXT  ASP c   7      24.305  29.898  76.804  1.00 36.21 LIG-0.65  OA
ATOM     61 O    ASP c   7      25.688  28.349  76.375  1.00 30.31 LIG-0.65  OA
ENDBRANCH 58 59
BRANCH 58 62
ATOM     62  CB  ASP c   7      23.057  28.151  74.439  1.00 37.10 LIG 0.15  C 
BRANCH 62 63
ATOM     63  CG  ASP c   7      22.257  28.376  73.198  1.00 37.44 LIG 0.17  C 
ATOM     64 OD1  ASP c   7      22.772  28.994  72.246  1.00 43.19 LIG-0.65  OA
ATOM     65 OD2  ASP c   7      21.097  27.946  73.164  1.00 52.04 LIG-0.65  OA
ENDBRANCH 62 63
ENDBRANCH 58 62
ENDBRANCH 56 58
ENDBRANCH 50 54
ENDBRANCH 48 50
ENDBRANCH 45 46
BRANCH 45 66
ATOM     66  CB  GLU c   5      25.322  30.761  70.270  1.00 40.99 LIG 0.04  C 
BRANCH 66 67
ATOM     67  CG  GLU c   5      25.246  32.025  69.413  1.00 49.45 LIG 0.12  C 
BRANCH 67 68
ATOM     68  CD  GLU c   5      26.568  32.354  68.744  1.00 57.05 LIG 0.17  C 
ATOM     69 OE2  GLU c   5      26.700  32.109  67.532  1.00 42.85 LIG-0.65  OA
ATOM     70 OE1  GLU c   5      27.474  32.876  69.433  1.00 67.91 LIG-0.65  OA
ENDBRANCH 67 68
ENDBRANCH 66 67
ENDBRANCH 45 66
ENDBRANCH 43 45
ENDBRANCH 1 41
TORSDOF 33
ENDMDL
MODEL 9
USER: ADFR SOLUTION from run 171
USER: SCORE 22.354422 LL:  -5.740 LR: -19.559 RR:   0.000 FEB:  -9.715
USER: RMSD 8.678773
USER: SEED 170
USER: STATUS no improvement in best in 2 clusters for 5 generations
USER: GENES 35
USER: genes 0 Translation |==|  0.60310 0.61343 0.27956
USER: genes 1 Rotation |==|  0.68545 0.34003 0.25799 0.86256
USER: genes 2 Torsion [C]-CA--N-[C] |==|  0.71111
USER: genes 3 Torsion [N]-C--CA-[N] |==|  0.29121
USER: genes 4 Torsion [C]-CA--N-[C] |==|  0.67584
USER: genes 5 Torsion [N]-C--CA-[N] |==|  0.08972
USER: genes 6 Torsion [C]-CA--CB-[CG] |==|  0.19942
USER: genes 7 Torsion [CA]-CB--CG-[CD] |==|  0.24143
USER: genes 8 Torsion [CB]-CG--CD-[CE] |==|  0.73749
USER: genes 9 Torsion [CG]-CD--CE-[NZ] |==|  0.79974
USER: genes 10 Torsion [CD]-CE--NZ-[HZ2] |==|  0.47069
USER: genes 11 Torsion [C]-CA--N-[C] |==|  0.16663
USER: genes 12 Torsion [N]-C--CA-[N] |==|  0.85683
USER: genes 13 Torsion [C]-CA--CB-[OG] |==|  0.66665
USER: genes 14 Torsion [CA]-CB--OG-[HG] |==|  0.24485
USER: genes 15 Torsion [C]-CA--N-[H2] |==|  0.69047
USER: genes 16 Torsion [C]-CA--CB-[CG] |==|  0.80137
USER: genes 17 Torsion [CA]-CB--CG-[SD] |==|  0.41293
USER: genes 18 Torsion [CB]-CG--SD-[CE] |==|  0.50459
USER: genes 19 Torsion [N]-CA--CB-[CG] |==|  0.18330
USER: genes 20 Torsion [CA]-CB--CG-[CD] |==|  0.49765
USER: genes 21 Torsion [CB]-CG--CD-[OE2] |==|  0.62872
USER: genes 22 Torsion [N]-CA--C-[N] |==|  0.61492
USER: genes 23 Torsion [C]-N--CA-[CB] |==|  0.50728
USER: genes 24 Torsion [N]-CA--C-[N] |==|  0.83173
USER: genes 25 Torsion [C]-N--CA-[C] |==|  0.84680
USER: genes 26 Torsion [N]-CA--CB-[CG2] |==|  0.44492
USER: genes 27 Torsion [N]-CA--C-[N] |==|  0.82531
USER: genes 28 Torsion [C]-N--CA-[C] |==|  0.78903
USER: genes 29 Torsion [N]-CA--C-[O] |==|  0.36432
USER: genes 30 Torsion [N]-CA--CB-[CG] |==|  0.94489
USER: genes 31 Torsion [CA]-CB--CG-[OD1] |==|  0.77864
USER: genes 32 Torsion [N]-CA--CB-[CG] |==|  0.58270
USER: genes 33 Torsion [CA]-CB--CG-[CD] |==|  0.47706
USER: genes 34 Torsion [CB]-CG--CD-[OE2] |==|  0.53227
ROOT
ATOM      1  CA  GLU c   4      22.192  28.013  65.403  1.00 41.78 LIG 0.18  C 
ENDROOT
BRANCH 1 2
ATOM      2  N   GLU c   4      20.900  27.406  65.640  1.00 36.98 LIG-0.35  N 
ATOM      3 H    GLU c   4      20.318  27.936  65.986  1.00 36.98 LIG 0.16  HD
ATOM      4  C   MET c   3      20.657  26.142  65.342  1.00 39.25 LIG 0.24  C 
ATOM      5 O    MET c   3      21.539  25.379  64.945  1.00 33.30 LIG-0.27  OA
BRANCH 4 6
ATOM      6  CA  MET c   3      19.195  25.668  65.488  1.00 43.32 LIG 0.18  C 
BRANCH 6 7
ATOM      7  N   MET c   3      18.434  25.486  64.238  1.00 44.06 LIG-0.35  N 
ATOM      8 H    MET c   3      18.767  24.870  63.738  1.00 44.06 LIG 0.16  HD
ATOM      9  C   LYS c   2      17.346  26.175  63.879  1.00 50.87 LIG 0.24  C 
ATOM     10 O    LYS c   2      16.909  27.161  64.495  1.00 41.81 LIG-0.27  OA
BRANCH 9 11
ATOM     11  CA  LYS c   2      16.649  25.666  62.597  1.00 52.27 LIG 0.18  C 
BRANCH 11 12
ATOM     12  CB  LYS c   2      15.162  26.086  62.600  1.00 56.87 LIG 0.04  C 
BRANCH 12 13
ATOM     13  CG  LYS c   2      14.931  27.565  62.369  1.00 55.18 LIG 0.00  C 
BRANCH 13 14
ATOM     14  CD  LYS c   2      14.859  27.862  60.887  1.00 56.62 LIG 0.03  C 
BRANCH 14 15
ATOM     15  CE  LYS c   2      16.202  28.289  60.347  1.00 60.10 LIG 0.23  C 
BRANCH 15 16
ATOM     16  NZ  LYS c   2      16.480  29.657  60.852  1.00 62.98 LIG-0.08  N 
ATOM     17 HZ2  LYS c   2      17.325  29.872  60.677  1.00 62.98 LIG 0.27  HD
ATOM     18 HZ3  LYS c   2      15.937  30.238  60.452  1.00 62.98 LIG 0.27  HD
ATOM     19 HZ1  LYS c   2      16.344  29.682  61.732  1.00 62.98 LIG 0.27  HD
ENDBRANCH 15 16
ENDBRANCH 14 15
ENDBRANCH 13 14
ENDBRANCH 12 13
ENDBRANCH 11 12
BRANCH 11 20
ATOM     20  N   LYS c   2      16.770  24.212  62.423  1.00 43.42 LIG-0.35  N 
ATOM     21 H    LYS c   2      17.171  23.988  61.696  1.00 43.42 LIG 0.16  HD
ATOM     22  C   SER c   1      16.306  23.315  63.299  1.00 43.78 LIG 0.25  C 
ATOM     23 O    SER c   1      15.676  23.596  64.319  1.00 50.72 LIG-0.27  OA
BRANCH 22 24
ATOM     24  CA  SER c   1      16.602  21.862  62.983  1.00 42.10 LIG 0.30  C 
BRANCH 24 25
ATOM     25  CB  SER c   1      18.102  21.596  63.164  1.00 37.65 LIG 0.21  C 
BRANCH 25 26
ATOM     26 OG   SER c   1      18.719  21.151  61.972  1.00 37.04 LIG-0.40  OA
ATOM     27 HG   SER c   1      18.975  21.814  61.525  1.00 37.04 LIG 0.21  HD
ENDBRANCH 25 26
ENDBRANCH 24 25
BRANCH 24 28
ATOM     28  N   SER c   1      16.155  21.626  61.573  1.00 43.63 LIG-0.06  N 
ATOM     29 H2   SER c   1      15.447  21.086  61.572  1.00 43.63 LIG 0.28  HD
ATOM     30 H3   SER c   1      15.936  22.402  61.197  1.00 43.63 LIG 0.28  HD
ATOM     31 H1   SER c   1      16.816  21.249  61.111  1.00 43.63 LIG 0.28  HD
ENDBRANCH 24 28
ENDBRANCH 22 24
ENDBRANCH 11 20
ENDBRANCH 9 11
ENDBRANCH 6 7
BRANCH 6 32
ATOM     32  CB  MET c   3      19.163  24.328  66.230  1.00 42.03 LIG 0.04  C 
BRANCH 32 33
ATOM     33  CG  MET c   3      19.664  23.122  65.478  1.00 44.17 LIG 0.08  C 
BRANCH 33 34
ATOM     34 SD   MET c   3      20.427  21.876  66.517  1.00 39.95 LIG-0.17  SA
ATOM     35  CE  MET c   3      20.849  20.784  65.182  1.00 32.62 LIG 0.09  C 
ENDBRANCH 33 34
ENDBRANCH 32 33
ENDBRANCH 6 32
ENDBRANCH 4 6
ENDBRANCH 1 2
BRANCH 1 36
ATOM     36  CB  GLU c   4      21.999  29.365  64.666  1.00 53.02 LIG 0.04  C 
BRANCH 36 37
ATOM     37  CG  GLU c   4      21.285  30.480  65.444  1.00 67.39 LIG 0.12  C 
BRANCH 37 38
ATOM     38  CD  GLU c   4      21.160  31.778  64.644  1.00 71.96 LIG 0.17  C 
ATOM     39 OE2  GLU c   4      21.451  32.873  65.197  1.00 61.28 LIG-0.65  OA
ATOM     40 OE1  GLU c   4      20.765  31.697  63.455  1.00 68.78 LIG-0.65  OA
ENDBRANCH 37 38
ENDBRANCH 36 37
ENDBRANCH 1 36
BRANCH 1 41
ATOM     41  C   GLU c   4      22.967  28.160  66.722  1.00 40.98 LIG 0.24  C 
ATOM     42 O    GLU c   4      22.933  27.251  67.555  1.00 47.04 LIG-0.27  OA
ATOM     43  N   GLU c   5      23.647  29.294  66.923  1.00 35.89 LIG-0.35  N 
ATOM     44 H    GLU c   5      23.770  29.888  66.314  1.00 35.89 LIG 0.16  HD
BRANCH 43 45
ATOM     45  CA  GLU c   5      24.255  29.632  68.227  1.00 35.53 LIG 0.18  C 
BRANCH 45 46
ATOM     46  C   GLU c   5      23.225  29.635  69.348  1.00 33.86 LIG 0.24  C 
ATOM     47 O    GLU c   5      23.306  28.833  70.268  1.00 26.34 LIG-0.27  OA
ATOM     48  N   VAL c   6      22.222  30.504  69.219  1.00 31.71 LIG-0.35  N 
ATOM     49 H    VAL c   6      22.179  31.091  68.592  1.00 31.71 LIG 0.16  HD
BRANCH 48 50
ATOM     50  CA  VAL c   6      21.081  30.535  70.152  1.00 31.16 LIG 0.18  C 
BRANCH 50 51
ATOM     51  CB  VAL c   6      20.090  31.702  69.831  1.00 25.00 LIG 0.01  C 
ATOM     52  CG1 VAL c   6      19.978  31.845  68.335  1.00 20.51 LIG 0.01  C 
ATOM     53  CG2 VAL c   6      18.687  31.508  70.425  1.00 20.94 LIG 0.01  C 
ENDBRANCH 50 51
BRANCH 50 54
ATOM     54  C   VAL c   6      20.402  29.155  70.243  1.00 33.11 LIG 0.24  C 
ATOM     55 O    VAL c   6      20.368  28.557  71.314  1.00 31.28 LIG-0.27  OA
ATOM     56  N   ASP c   7      19.846  28.680  69.116  1.00 31.84 LIG-0.34  N 
ATOM     57 H    ASP c   7      19.912  29.085  68.360  1.00 31.84 LIG 0.16  HD
BRANCH 56 58
ATOM     58  CA  ASP c   7      19.075  27.434  69.040  1.00 33.25 LIG 0.20  C 
BRANCH 58 59
ATOM     59  C   ASP c   7      19.950  26.173  69.071  1.00 36.36 LIG 0.20  C 
ATOM     60 OXT  ASP c   7      20.923  26.080  68.323  1.00 36.21 LIG-0.65  OA
ATOM     61 O    ASP c   7      19.715  25.207  69.832  1.00 30.31 LIG-0.65  OA
ENDBRANCH 58 59
BRANCH 58 62
ATOM     62  CB  ASP c   7      18.236  27.440  67.759  1.00 37.10 LIG 0.15  C 
BRANCH 62 63
ATOM     63  CG  ASP c   7      18.050  28.817  67.211  1.00 37.44 LIG 0.17  C 
ATOM     64 OD1  ASP c   7      17.189  29.562  67.717  1.00 43.19 LIG-0.65  OA
ATOM     65 OD2  ASP c   7      18.757  29.167  66.257  1.00 52.04 LIG-0.65  OA
ENDBRANCH 62 63
ENDBRANCH 58 62
ENDBRANCH 56 58
ENDBRANCH 50 54
ENDBRANCH 48 50
ENDBRANCH 45 46
BRANCH 45 66
ATOM     66  CB  GLU c   5      24.914  31.015  68.188  1.00 40.99 LIG 0.04  C 
BRANCH 66 67
ATOM     67  CG  GLU c   5      26.112  31.170  69.126  1.00 49.45 LIG 0.12  C 
BRANCH 67 68
ATOM     68  CD  GLU c   5      26.852  32.477  68.910  1.00 57.05 LIG 0.17  C 
ATOM     69 OE2  GLU c   5      27.963  32.630  69.449  1.00 42.85 LIG-0.65  OA
ATOM     70 OE1  GLU c   5      26.325  33.350  68.183  1.00 67.91 LIG-0.65  OA
ENDBRANCH 67 68
ENDBRANCH 66 67
ENDBRANCH 45 66
ENDBRANCH 43 45
ENDBRANCH 1 41
TORSDOF 33
ENDMDL
MODEL 10
USER: ADFR SOLUTION from run 43
USER: SCORE 21.082897 LL:  -4.666 LR: -19.505 RR:   0.000 FEB:  -9.661
USER: RMSD 8.930856
USER: SEED 42
USER: STATUS no improvement in best in 4 clusters for 5 generations
USER: GENES 35
USER: genes 0 Translation |==|  0.62535 0.61859 0.30130
USER: genes 1 Rotation |==|  0.71514 0.33263 0.22892 0.81972
USER: genes 2 Torsion [C]-CA--N-[C] |==|  0.71465
USER: genes 3 Torsion [N]-C--CA-[N] |==|  0.48677
USER: genes 4 Torsion [C]-CA--N-[C] |==|  0.16715
USER: genes 5 Torsion [N]-C--CA-[N] |==|  0.97423
USER: genes 6 Torsion [C]-CA--CB-[CG] |==|  0.60396
USER: genes 7 Torsion [CA]-CB--CG-[CD] |==|  0.73161
USER: genes 8 Torsion [CB]-CG--CD-[CE] |==|  0.25917
USER: genes 9 Torsion [CG]-CD--CE-[NZ] |==|  0.24215
USER: genes 10 Torsion [CD]-CE--NZ-[HZ2] |==|  0.03042
USER: genes 11 Torsion [C]-CA--N-[C] |==|  0.79203
USER: genes 12 Torsion [N]-C--CA-[N] |==|  0.23260
USER: genes 13 Torsion [C]-CA--CB-[OG] |==|  0.43179
USER: genes 14 Torsion [CA]-CB--OG-[HG] |==|  0.71368
USER: genes 15 Torsion [C]-CA--N-[H2] |==|  0.01611
USER: genes 16 Torsion [C]-CA--CB-[CG] |==|  0.50763
USER: genes 17 Torsion [CA]-CB--CG-[SD] |==|  0.76636
USER: genes 18 Torsion [CB]-CG--SD-[CE] |==|  0.21966
USER: genes 19 Torsion [N]-CA--CB-[CG] |==|  0.09317
USER: genes 20 Torsion [CA]-CB--CG-[CD] |==|  0.56037
USER: genes 21 Torsion [CB]-CG--CD-[OE2] |==|  0.68024
USER: genes 22 Torsion [N]-CA--C-[N] |==|  0.58526
USER: genes 23 Torsion [C]-N--CA-[CB] |==|  0.45555
USER: genes 24 Torsion [N]-CA--C-[N] |==|  0.89245
USER: genes 25 Torsion [C]-N--CA-[C] |==|  0.72395
USER: genes 26 Torsion [N]-CA--CB-[CG2] |==|  0.13651
USER: genes 27 Torsion [N]-CA--C-[N] |==|  0.97644
USER: genes 28 Torsion [C]-N--CA-[C] |==|  0.14523
USER: genes 29 Torsion [N]-CA--C-[O] |==|  0.10081
USER: genes 30 Torsion [N]-CA--CB-[CG] |==|  0.90486
USER: genes 31 Torsion [CA]-CB--CG-[OD1] |==|  0.78611
USER: genes 32 Torsion [N]-CA--CB-[CG] |==|  0.29312
USER: genes 33 Torsion [CA]-CB--CG-[CD] |==|  0.63547
USER: genes 34 Torsion [CB]-CG--CD-[OE2] |==|  0.13936
ROOT
ATOM      1  CA  GLU c   4      22.676  28.133  65.876  1.00 41.78 LIG 0.18  C 
ENDROOT
BRANCH 1 2
ATOM      2  N   GLU c   4      21.298  27.692  65.899  1.00 36.98 LIG-0.35  N 
ATOM      3 H    GLU c   4      20.756  28.245  66.272  1.00 36.98 LIG 0.16  HD
ATOM      4  C   MET c   3      20.927  26.533  65.385  1.00 39.25 LIG 0.24  C 
ATOM      5 O    MET c   3      21.740  25.716  64.952  1.00 33.30 LIG-0.27  OA
BRANCH 4 6
ATOM      6  CA  MET c   3      19.408  26.260  65.326  1.00 43.32 LIG 0.18  C 
BRANCH 6 7
ATOM      7  N   MET c   3      18.989  25.016  64.655  1.00 44.06 LIG-0.35  N 
ATOM      8 H    MET c   3      18.480  25.164  63.977  1.00 44.06 LIG 0.16  HD
ATOM      9  C   LYS c   2      19.335  23.777  65.020  1.00 50.87 LIG 0.24  C 
ATOM     10 O    LYS c   2      19.950  23.503  66.065  1.00 41.81 LIG-0.27  OA
BRANCH 9 11
ATOM     11  CA  LYS c   2      18.893  22.664  64.042  1.00 52.27 LIG 0.18  C 
BRANCH 11 12
ATOM     12  CB  LYS c   2      20.132  21.995  63.406  1.00 56.87 LIG 0.04  C 
BRANCH 12 13
ATOM     13  CG  LYS c   2      19.957  21.616  61.951  1.00 55.18 LIG 0.00  C 
BRANCH 13 14
ATOM     14  CD  LYS c   2      19.564  20.160  61.829  1.00 56.62 LIG 0.03  C 
BRANCH 14 15
ATOM     15  CE  LYS c   2      18.064  19.999  61.773  1.00 60.10 LIG 0.23  C 
BRANCH 15 16
ATOM     16  NZ  LYS c   2      17.648  20.126  60.353  1.00 62.98 LIG-0.08  N 
ATOM     17 HZ2  LYS c   2      18.367  20.109  59.830  1.00 62.98 LIG 0.27  HD
ATOM     18 HZ3  LYS c   2      17.111  19.449  60.140  1.00 62.98 LIG 0.27  HD
ATOM     19 HZ1  LYS c   2      17.215  20.896  60.239  1.00 62.98 LIG 0.27  HD
ENDBRANCH 15 16
ENDBRANCH 14 15
ENDBRANCH 13 14
ENDBRANCH 12 13
ENDBRANCH 11 12
BRANCH 11 20
ATOM     20  N   LYS c   2      17.983  23.155  62.997  1.00 43.42 LIG-0.35  N 
ATOM     21 H    LYS c   2      18.360  23.234  62.228  1.00 43.42 LIG 0.16  HD
ATOM     22  C   SER c   1      16.698  23.452  63.207  1.00 43.78 LIG 0.25  C 
ATOM     23 O    SER c   1      16.140  23.408  64.304  1.00 50.72 LIG-0.27  OA
BRANCH 22 24
ATOM     24  CA  SER c   1      15.902  23.863  61.983  1.00 42.10 LIG 0.30  C 
BRANCH 24 25
ATOM     25  CB  SER c   1      14.720  24.741  62.416  1.00 37.65 LIG 0.21  C 
BRANCH 25 26
ATOM     26 OG   SER c   1      14.275  25.595  61.381  1.00 37.04 LIG-0.40  OA
ATOM     27 HG   SER c   1      14.553  26.375  61.523  1.00 37.04 LIG 0.21  HD
ENDBRANCH 25 26
ENDBRANCH 24 25
BRANCH 24 28
ATOM     28  N   SER c   1      15.450  22.601  61.316  1.00 43.63 LIG-0.06  N 
ATOM     29 H2   SER c   1      15.671  21.902  61.822  1.00 43.63 LIG 0.28  HD
ATOM     30 H3   SER c   1      14.567  22.621  61.209  1.00 43.63 LIG 0.28  HD
ATOM     31 H1   SER c   1      15.843  22.528  60.521  1.00 43.63 LIG 0.28  HD
ENDBRANCH 24 28
ENDBRANCH 22 24
ENDBRANCH 11 20
ENDBRANCH 9 11
ENDBRANCH 6 7
BRANCH 6 32
ATOM     32  CB  MET c   3      18.841  26.214  66.748  1.00 42.03 LIG 0.04  C 
BRANCH 32 33
ATOM     33  CG  MET c   3      17.376  25.892  66.886  1.00 44.17 LIG 0.08  C 
BRANCH 33 34
ATOM     34 SD   MET c   3      16.293  27.309  66.695  1.00 39.95 LIG-0.17  SA
ATOM     35  CE  MET c   3      16.366  27.334  64.921  1.00 32.62 LIG 0.09  C 
ENDBRANCH 33 34
ENDBRANCH 32 33
ENDBRANCH 6 32
ENDBRANCH 4 6
ENDBRANCH 1 2
BRANCH 1 36
ATOM     36  CB  GLU c   4      22.739  29.602  65.378  1.00 53.02 LIG 0.04  C 
BRANCH 36 37
ATOM     37  CG  GLU c   4      21.562  30.511  65.761  1.00 67.39 LIG 0.12  C 
BRANCH 37 38
ATOM     38  CD  GLU c   4      21.421  31.722  64.837  1.00 71.96 LIG 0.17  C 
ATOM     39 OE2  GLU c   4      21.594  32.880  65.307  1.00 61.28 LIG-0.65  OA
ATOM     40 OE1  GLU c   4      21.133  31.511  63.634  1.00 68.78 LIG-0.65  OA
ENDBRANCH 37 38
ENDBRANCH 36 37
ENDBRANCH 1 36
BRANCH 1 41
ATOM     41  C   GLU c   4      23.325  27.945  67.256  1.00 40.98 LIG 0.24  C 
ATOM     42 O    GLU c   4      22.940  27.033  67.992  1.00 47.04 LIG-0.27  OA
ATOM     43  N   GLU c   5      24.286  28.802  67.615  1.00 35.89 LIG-0.35  N 
ATOM     44 H    GLU c   5      24.640  29.372  67.078  1.00 35.89 LIG 0.16  HD
BRANCH 43 45
ATOM     45  CA  GLU c   5      24.835  28.847  68.987  1.00 35.53 LIG 0.18  C 
BRANCH 45 46
ATOM     46  C   GLU c   5      23.875  29.518  69.959  1.00 33.86 LIG 0.24  C 
ATOM     47 O    GLU c   5      23.697  29.054  71.078  1.00 26.34 LIG-0.27  OA
ATOM     48  N   VAL c   6      23.211  30.575  69.491  1.00 31.71 LIG-0.35  N 
ATOM     49 H    VAL c   6      23.357  30.924  68.718  1.00 31.71 LIG 0.16  HD
BRANCH 48 50
ATOM     50  CA  VAL c   6      22.152  31.247  70.265  1.00 31.16 LIG 0.18  C 
BRANCH 50 51
ATOM     51  CB  VAL c   6      22.330  32.801  70.280  1.00 25.00 LIG 0.01  C 
ATOM     52  CG1 VAL c   6      23.494  33.147  71.174  1.00 20.51 LIG 0.01  C 
ATOM     53  CG2 VAL c   6      22.563  33.414  68.891  1.00 20.94 LIG 0.01  C 
ENDBRANCH 50 51
BRANCH 50 54
ATOM     54  C   VAL c   6      20.754  30.790  69.808  1.00 33.11 LIG 0.24  C 
ATOM     55 O    VAL c   6      19.758  31.144  70.431  1.00 31.28 LIG-0.27  OA
ATOM     56  N   ASP c   7      20.700  30.025  68.706  1.00 31.84 LIG-0.34  N 
ATOM     57 H    ASP c   7      21.405  29.745  68.300  1.00 31.84 LIG 0.16  HD
BRANCH 56 58
ATOM     58  CA  ASP c   7      19.454  29.582  68.071  1.00 33.25 LIG 0.20  C 
BRANCH 58 59
ATOM     59  C   ASP c   7      18.480  30.731  67.775  1.00 36.36 LIG 0.20  C 
ATOM     60 OXT  ASP c   7      17.266  30.554  67.883  1.00 36.21 LIG-0.65  OA
ATOM     61 O    ASP c   7      18.864  31.865  67.412  1.00 30.31 LIG-0.65  OA
ENDBRANCH 58 59
BRANCH 58 62
ATOM     62  CB  ASP c   7      18.768  28.553  68.975  1.00 37.10 LIG 0.15  C 
BRANCH 62 63
ATOM     63  CG  ASP c   7      19.749  27.700  69.708  1.00 37.44 LIG 0.17  C 
ATOM     64 OD1  ASP c   7      20.325  26.776  69.101  1.00 43.19 LIG-0.65  OA
ATOM     65 OD2  ASP c   7      19.950  27.937  70.906  1.00 52.04 LIG-0.65  OA
ENDBRANCH 62 63
ENDBRANCH 58 62
ENDBRANCH 56 58
ENDBRANCH 50 54
ENDBRANCH 48 50
ENDBRANCH 45 46
BRANCH 45 66
ATOM     66  CB  GLU c   5      26.160  29.615  69.028  1.00 40.99 LIG 0.04  C 
BRANCH 66 67
ATOM     67  CG  GLU c   5      26.061  31.013  69.642  1.00 49.45 LIG 0.12  C 
BRANCH 67 68
ATOM     68  CD  GLU c   5      26.724  32.073  68.781  1.00 57.05 LIG 0.17  C 
ATOM     69 OE2  GLU c   5      26.435  32.126  67.573  1.00 42.85 LIG-0.65  OA
ATOM     70 OE1  GLU c   5      27.525  32.868  69.324  1.00 67.91 LIG-0.65  OA
ENDBRANCH 67 68
ENDBRANCH 66 67
ENDBRANCH 45 66
ENDBRANCH 43 45
ENDBRANCH 1 41
TORSDOF 33
ENDMDL
MODEL 11
USER: ADFR SOLUTION from run 43
USER: SCORE 20.975200 LL:  -4.629 LR: -19.443 RR:   0.000 FEB:  -9.600
USER: RMSD 9.007949
USER: SEED 42
USER: STATUS no improvement in best in 4 clusters for 5 generations
USER: GENES 35
USER: genes 0 Translation |==|  0.62653 0.61843 0.30242
USER: genes 1 Rotation |==|  0.71710 0.33502 0.22622 0.81733
USER: genes 2 Torsion [C]-CA--N-[C] |==|  0.71660
USER: genes 3 Torsion [N]-C--CA-[N] |==|  0.48795
USER: genes 4 Torsion [C]-CA--N-[C] |==|  0.16714
USER: genes 5 Torsion [N]-C--CA-[N] |==|  0.97588
USER: genes 6 Torsion [C]-CA--CB-[CG] |==|  0.60409
USER: genes 7 Torsion [CA]-CB--CG-[CD] |==|  0.73044
USER: genes 8 Torsion [CB]-CG--CD-[CE] |==|  0.25983
USER: genes 9 Torsion [CG]-CD--CE-[NZ] |==|  0.24268
USER: genes 10 Torsion [CD]-CE--NZ-[HZ2] |==|  0.02802
USER: genes 11 Torsion [C]-CA--N-[C] |==|  0.79843
USER: genes 12 Torsion [N]-C--CA-[N] |==|  0.23068
USER: genes 13 Torsion [C]-CA--CB-[OG] |==|  0.42433
USER: genes 14 Torsion [CA]-CB--OG-[HG] |==|  0.71538
USER: genes 15 Torsion [C]-CA--N-[H2] |==|  0.36553
USER: genes 16 Torsion [C]-CA--CB-[CG] |==|  0.97617
USER: genes 17 Torsion [CA]-CB--CG-[SD] |==|  0.66714
USER: genes 18 Torsion [CB]-CG--SD-[CE] |==|  0.93722
USER: genes 19 Torsion [N]-CA--CB-[CG] |==|  0.09394
USER: genes 20 Torsion [CA]-CB--CG-[CD] |==|  0.56863
USER: genes 21 Torsion [CB]-CG--CD-[OE2] |==|  0.67110
USER: genes 22 Torsion [N]-CA--C-[N] |==|  0.57159
USER: genes 23 Torsion [C]-N--CA-[CB] |==|  0.49103
USER: genes 24 Torsion [N]-CA--C-[N] |==|  0.91474
USER: genes 25 Torsion [C]-N--CA-[C] |==|  0.78299
USER: genes 26 Torsion [N]-CA--CB-[CG2] |==|  0.56467
USER: genes 27 Torsion [N]-CA--C-[N] |==|  0.47068
USER: genes 28 Torsion [C]-N--CA-[C] |==|  0.17517
USER: genes 29 Torsion [N]-CA--C-[O] |==|  0.07544
USER: genes 30 Torsion [N]-CA--CB-[CG] |==|  0.88202
USER: genes 31 Torsion [CA]-CB--CG-[OD1] |==|  0.84578
USER: genes 32 Torsion [N]-CA--CB-[CG] |==|  0.25759
USER: genes 33 Torsion [CA]-CB--CG-[CD] |==|  0.60055
USER: genes 34 Torsion [CB]-CG--CD-[OE2] |==|  0.16227
ROOT
ATOM      1  CA  GLU c   4      22.702  28.130  65.901  1.00 41.78 LIG 0.18  C 
ENDROOT
BRANCH 1 2
ATOM      2  N   GLU c   4      21.322  27.695  65.920  1.00 36.98 LIG-0.35  N 
ATOM      3 H    GLU c   4      20.782  28.249  66.297  1.00 36.98 LIG 0.16  HD
ATOM      4  C   MET c   3      20.944  26.542  65.399  1.00 39.25 LIG 0.24  C 
ATOM      5 O    MET c   3      21.753  25.723  64.961  1.00 33.30 LIG-0.27  OA
BRANCH 4 6
ATOM      6  CA  MET c   3      19.425  26.276  65.338  1.00 43.32 LIG 0.18  C 
BRANCH 6 7
ATOM      7  N   MET c   3      19.000  25.034  64.667  1.00 44.06 LIG-0.35  N 
ATOM      8 H    MET c   3      18.492  25.184  63.988  1.00 44.06 LIG 0.16  HD
ATOM      9  C   LYS c   2      19.338  23.794  65.034  1.00 50.87 LIG 0.24  C 
ATOM     10 O    LYS c   2      19.950  23.517  66.080  1.00 41.81 LIG-0.27  OA
BRANCH 9 11
ATOM     11  CA  LYS c   2      18.892  22.683  64.057  1.00 52.27 LIG 0.18  C 
BRANCH 11 12
ATOM     12  CB  LYS c   2      20.128  21.996  63.435  1.00 56.87 LIG 0.04  C 
BRANCH 12 13
ATOM     13  CG  LYS c   2      19.963  21.614  61.979  1.00 55.18 LIG 0.00  C 
BRANCH 13 14
ATOM     14  CD  LYS c   2      19.563  20.160  61.858  1.00 56.62 LIG 0.03  C 
BRANCH 14 15
ATOM     15  CE  LYS c   2      18.063  20.006  61.785  1.00 60.10 LIG 0.23  C 
BRANCH 15 16
ATOM     16  NZ  LYS c   2      17.664  20.126  60.360  1.00 62.98 LIG-0.08  N 
ATOM     17 HZ2  LYS c   2      18.390  20.114  59.846  1.00 62.98 LIG 0.27  HD
ATOM     18 HZ3  LYS c   2      17.136  19.444  60.141  1.00 62.98 LIG 0.27  HD
ATOM     19 HZ1  LYS c   2      17.227  20.892  60.237  1.00 62.98 LIG 0.27  HD
ENDBRANCH 15 16
ENDBRANCH 14 15
ENDBRANCH 13 14
ENDBRANCH 12 13
ENDBRANCH 11 12
BRANCH 11 20
ATOM     20  N   LYS c   2      17.998  23.180  63.001  1.00 43.42 LIG-0.35  N 
ATOM     21 H    LYS c   2      18.373  23.222  62.229  1.00 43.42 LIG 0.16  HD
ATOM     22  C   SER c   1      16.726  23.535  63.208  1.00 43.78 LIG 0.25  C 
ATOM     23 O    SER c   1      16.173  23.545  64.308  1.00 50.72 LIG-0.27  OA
BRANCH 22 24
ATOM     24  CA  SER c   1      15.942  23.943  61.976  1.00 42.10 LIG 0.30  C 
BRANCH 24 25
ATOM     25  CB  SER c   1      14.788  24.866  62.389  1.00 37.65 LIG 0.21  C 
BRANCH 25 26
ATOM     26 OG   SER c   1      14.409  25.752  61.355  1.00 37.04 LIG-0.40  OA
ATOM     27 HG   SER c   1      14.723  26.515  61.511  1.00 37.04 LIG 0.21  HD
ENDBRANCH 25 26
ENDBRANCH 24 25
BRANCH 24 28
ATOM     28  N   SER c   1      15.450  22.681  61.337  1.00 43.63 LIG-0.06  N 
ATOM     29 H2   SER c   1      14.583  22.759  61.154  1.00 43.63 LIG 0.28  HD
ATOM     30 H3   SER c   1      15.900  22.534  60.584  1.00 43.63 LIG 0.28  HD
ATOM     31 H1   SER c   1      15.574  21.998  61.895  1.00 43.63 LIG 0.28  HD
ENDBRANCH 24 28
ENDBRANCH 22 24
ENDBRANCH 11 20
ENDBRANCH 9 11
ENDBRANCH 6 7
BRANCH 6 32
ATOM     32  CB  MET c   3      18.855  26.235  66.759  1.00 42.03 LIG 0.04  C 
BRANCH 32 33
ATOM     33  CG  MET c   3      19.849  26.248  67.891  1.00 44.17 LIG 0.08  C 
BRANCH 33 34
ATOM     34 SD   MET c   3      19.768  24.808  68.955  1.00 39.95 LIG-0.17  SA
ATOM     35  CE  MET c   3      18.093  24.389  68.538  1.00 32.62 LIG 0.09  C 
ENDBRANCH 33 34
ENDBRANCH 32 33
ENDBRANCH 6 32
ENDBRANCH 4 6
ENDBRANCH 1 2
BRANCH 1 36
ATOM     36  CB  GLU c   4      22.771  29.606  65.429  1.00 53.02 LIG 0.04  C 
BRANCH 36 37
ATOM     37  CG  GLU c   4      21.604  30.517  65.837  1.00 67.39 LIG 0.12  C 
BRANCH 37 38
ATOM     38  CD  GLU c   4      21.419  31.707  64.894  1.00 71.96 LIG 0.17  C 
ATOM     39 OE2  GLU c   4      21.540  32.877  65.346  1.00 61.28 LIG-0.65  OA
ATOM     40 OE1  GLU c   4      21.148  31.465  63.692  1.00 68.78 LIG-0.65  OA
ENDBRANCH 37 38
ENDBRANCH 36 37
ENDBRANCH 1 36
BRANCH 1 41
ATOM     41  C   GLU c   4      23.354  27.913  67.275  1.00 40.98 LIG 0.24  C 
ATOM     42 O    GLU c   4      22.908  27.049  68.033  1.00 47.04 LIG-0.27  OA
ATOM     43  N   GLU c   5      24.388  28.694  67.604  1.00 35.89 LIG-0.35  N 
ATOM     44 H    GLU c   5      24.779  29.223  67.051  1.00 35.89 LIG 0.16  HD
BRANCH 43 45
ATOM     45  CA  GLU c   5      24.959  28.718  68.967  1.00 35.53 LIG 0.18  C 
BRANCH 45 46
ATOM     46  C   GLU c   5      23.948  29.201  69.997  1.00 33.86 LIG 0.24  C 
ATOM     47 O    GLU c   5      23.953  28.746  71.133  1.00 26.34 LIG-0.27  OA
ATOM     48  N   VAL c   6      23.041  30.076  69.562  1.00 31.71 LIG-0.35  N 
ATOM     49 H    VAL c   6      23.054  30.422  68.774  1.00 31.71 LIG 0.16  HD
BRANCH 48 50
ATOM     50  CA  VAL c   6      21.919  30.532  70.402  1.00 31.16 LIG 0.18  C 
BRANCH 50 51
ATOM     51  CB  VAL c   6      21.416  31.955  69.990  1.00 25.00 LIG 0.01  C 
ATOM     52  CG1 VAL c   6      20.495  31.818  68.804  1.00 20.51 LIG 0.01  C 
ATOM     53  CG2 VAL c   6      20.684  32.706  71.112  1.00 20.94 LIG 0.01  C 
ENDBRANCH 50 51
BRANCH 50 54
ATOM     54  C   VAL c   6      20.801  29.474  70.459  1.00 33.11 LIG 0.24  C 
ATOM     55 O    VAL c   6      20.842  28.497  69.717  1.00 31.28 LIG-0.27  OA
ATOM     56  N   ASP c   7      19.827  29.673  71.361  1.00 31.84 LIG-0.34  N 
ATOM     57 H    ASP c   7      19.782  30.382  71.847  1.00 31.84 LIG 0.16  HD
BRANCH 56 58
ATOM     58  CA  ASP c   7      18.740  28.723  71.623  1.00 33.25 LIG 0.20  C 
BRANCH 58 59
ATOM     59  C   ASP c   7      19.229  27.375  72.171  1.00 36.36 LIG 0.20  C 
ATOM     60 OXT  ASP c   7      18.565  26.356  71.982  1.00 36.21 LIG-0.65  OA
ATOM     61 O    ASP c   7      20.291  27.257  72.823  1.00 30.31 LIG-0.65  OA
ENDBRANCH 58 59
BRANCH 58 62
ATOM     62  CB  ASP c   7      17.952  28.492  70.330  1.00 37.10 LIG 0.15  C 
BRANCH 62 63
ATOM     63  CG  ASP c   7      17.712  29.760  69.579  1.00 37.44 LIG 0.17  C 
ATOM     64 OD1  ASP c   7      17.148  30.710  70.154  1.00 43.19 LIG-0.65  OA
ATOM     65 OD2  ASP c   7      18.077  29.817  68.397  1.00 52.04 LIG-0.65  OA
ENDBRANCH 62 63
ENDBRANCH 58 62
ENDBRANCH 56 58
ENDBRANCH 50 54
ENDBRANCH 48 50
ENDBRANCH 45 46
BRANCH 45 66
ATOM     66  CB  GLU c   5      26.181  29.641  69.039  1.00 40.99 LIG 0.04  C 
BRANCH 66 67
ATOM     67  CG  GLU c   5      25.864  31.076  69.461  1.00 49.45 LIG 0.12  C 
BRANCH 67 68
ATOM     68  CD  GLU c   5      26.730  32.097  68.743  1.00 57.05 LIG 0.17  C 
ATOM     69 OE2  GLU c   5      26.700  32.135  67.501  1.00 42.85 LIG-0.65  OA
ATOM     70 OE1  GLU c   5      27.430  32.875  69.430  1.00 67.91 LIG-0.65  OA
ENDBRANCH 67 68
ENDBRANCH 66 67
ENDBRANCH 45 66
ENDBRANCH 43 45
ENDBRANCH 1 41
TORSDOF 33
ENDMDL
MODEL 12
USER: ADFR SOLUTION from run 115
USER: SCORE 21.987406 LL:  -3.879 LR: -19.342 RR:   0.000 FEB:  -9.498
USER: RMSD 8.767723
USER: SEED 114
USER: STATUS searching
USER: GENES 35
USER: genes 0 Translation |==|  0.62719 0.65781 0.27919
USER: genes 1 Rotation |==|  0.68588 0.26635 0.29238 0.84315
USER: genes 2 Torsion [C]-CA--N-[C] |==|  0.83091
USER: genes 3 Torsion [N]-C--CA-[N] |==|  0.46665
USER: genes 4 Torsion [C]-CA--N-[C] |==|  0.81959
USER: genes 5 Torsion [N]-C--CA-[N] |==|  0.21563
USER: genes 6 Torsion [C]-CA--CB-[CG] |==|  0.71679
USER: genes 7 Torsion [CA]-CB--CG-[CD] |==|  0.27204
USER: genes 8 Torsion [CB]-CG--CD-[CE] |==|  0.56685
USER: genes 9 Torsion [CG]-CD--CE-[NZ] |==|  0.36759
USER: genes 10 Torsion [CD]-CE--NZ-[HZ2] |==|  0.40270
USER: genes 11 Torsion [C]-CA--N-[C] |==|  0.11754
USER: genes 12 Torsion [N]-C--CA-[N] |==|  0.48944
USER: genes 13 Torsion [C]-CA--CB-[OG] |==|  0.81455
USER: genes 14 Torsion [CA]-CB--OG-[HG] |==|  0.56159
USER: genes 15 Torsion [C]-CA--N-[H2] |==|  0.60114
USER: genes 16 Torsion [C]-CA--CB-[CG] |==|  0.43685
USER: genes 17 Torsion [CA]-CB--CG-[SD] |==|  0.80051
USER: genes 18 Torsion [CB]-CG--SD-[CE] |==|  0.89484
USER: genes 19 Torsion [N]-CA--CB-[CG] |==|  0.06428
USER: genes 20 Torsion [CA]-CB--CG-[CD] |==|  0.23419
USER: genes 21 Torsion [CB]-CG--CD-[OE2] |==|  0.26477
USER: genes 22 Torsion [N]-CA--C-[N] |==|  0.43279
USER: genes 23 Torsion [C]-N--CA-[CB] |==|  0.86425
USER: genes 24 Torsion [N]-CA--C-[N] |==|  0.35757
USER: genes 25 Torsion [C]-N--CA-[C] |==|  0.77673
USER: genes 26 Torsion [N]-CA--CB-[CG2] |==|  0.89408
USER: genes 27 Torsion [N]-CA--C-[N] |==|  0.35699
USER: genes 28 Torsion [C]-N--CA-[C] |==|  0.64583
USER: genes 29 Torsion [N]-CA--C-[O] |==|  0.57358
USER: genes 30 Torsion [N]-CA--CB-[CG] |==|  0.06034
USER: genes 31 Torsion [CA]-CB--CG-[OD1] |==|  0.72638
USER: genes 32 Torsion [N]-CA--CB-[CG] |==|  0.60140
USER: genes 33 Torsion [CA]-CB--CG-[CD] |==|  0.14506
USER: genes 34 Torsion [CB]-CG--CD-[OE2] |==|  0.56257
ROOT
ATOM      1  CA  GLU c   4      22.716  29.045  65.395  1.00 41.78 LIG 0.18  C 
ENDROOT
BRANCH 1 2
ATOM      2  N   GLU c   4      21.371  28.514  65.334  1.00 36.98 LIG-0.35  N 
ATOM      3 H    GLU c   4      20.829  28.980  64.857  1.00 36.98 LIG 0.16  HD
ATOM      4  C   MET c   3      21.028  27.405  65.965  1.00 39.25 LIG 0.24  C 
ATOM      5 O    MET c   3      21.799  26.816  66.724  1.00 33.30 LIG-0.27  OA
BRANCH 4 6
ATOM      6  CA  MET c   3      19.612  26.860  65.681  1.00 43.32 LIG 0.18  C 
BRANCH 6 7
ATOM      7  N   MET c   3      19.324  25.495  66.159  1.00 44.06 LIG-0.35  N 
ATOM      8 H    MET c   3      18.718  25.483  66.770  1.00 44.06 LIG 0.16  HD
ATOM      9  C   LYS c   2      19.910  24.376  65.724  1.00 50.87 LIG 0.24  C 
ATOM     10 O    LYS c   2      20.881  24.351  64.949  1.00 41.81 LIG-0.27  OA
BRANCH 9 11
ATOM     11  CA  LYS c   2      19.301  23.067  66.276  1.00 52.27 LIG 0.18  C 
BRANCH 11 12
ATOM     12  CB  LYS c   2      20.327  21.917  66.165  1.00 56.87 LIG 0.04  C 
BRANCH 12 13
ATOM     13  CG  LYS c   2      20.082  20.973  65.007  1.00 55.18 LIG 0.00  C 
BRANCH 13 14
ATOM     14  CD  LYS c   2      20.962  21.341  63.833  1.00 56.62 LIG 0.03  C 
BRANCH 14 15
ATOM     15  CE  LYS c   2      20.374  20.854  62.531  1.00 60.10 LIG 0.23  C 
BRANCH 15 16
ATOM     16  NZ  LYS c   2      20.421  21.979  61.563  1.00 62.98 LIG-0.08  N 
ATOM     17 HZ2  LYS c   2      20.579  21.662  60.747  1.00 62.98 LIG 0.27  HD
ATOM     18 HZ3  LYS c   2      19.641  22.408  61.569  1.00 62.98 LIG 0.27  HD
ATOM     19 HZ1  LYS c   2      21.071  22.541  61.794  1.00 62.98 LIG 0.27  HD
ENDBRANCH 15 16
ENDBRANCH 14 15
ENDBRANCH 13 14
ENDBRANCH 12 13
ENDBRANCH 11 12
BRANCH 11 20
ATOM     20  N   LYS c   2      18.045  22.698  65.608  1.00 43.42 LIG-0.35  N 
ATOM     21 H    LYS c   2      17.440  22.417  66.150  1.00 43.42 LIG 0.16  HD
ATOM     22  C   SER c   1      17.849  22.786  64.289  1.00 43.78 LIG 0.25  C 
ATOM     23 O    SER c   1      18.709  23.127  63.476  1.00 50.72 LIG-0.27  OA
BRANCH 22 24
ATOM     24  CA  SER c   1      16.457  22.439  63.798  1.00 42.10 LIG 0.30  C 
BRANCH 24 25
ATOM     25  CB  SER c   1      16.150  20.973  64.132  1.00 37.65 LIG 0.21  C 
BRANCH 25 26
ATOM     26 OG   SER c   1      16.965  20.073  63.407  1.00 37.04 LIG-0.40  OA
ATOM     27 HG   SER c   1      16.590  19.322  63.372  1.00 37.04 LIG 0.21  HD
ENDBRANCH 25 26
ENDBRANCH 24 25
BRANCH 24 28
ATOM     28  N   SER c   1      16.441  22.695  62.323  1.00 43.63 LIG-0.06  N 
ATOM     29 H2   SER c   1      15.646  23.018  62.086  1.00 43.63 LIG 0.28  HD
ATOM     30 H3   SER c   1      17.074  23.285  62.117  1.00 43.63 LIG 0.28  HD
ATOM     31 H1   SER c   1      16.593  21.933  61.887  1.00 43.63 LIG 0.28  HD
ENDBRANCH 24 28
ENDBRANCH 22 24
ENDBRANCH 11 20
ENDBRANCH 9 11
ENDBRANCH 6 7
BRANCH 6 32
ATOM     32  CB  MET c   3      18.571  27.786  66.316  1.00 42.03 LIG 0.04  C 
BRANCH 32 33
ATOM     33  CG  MET c   3      17.181  27.746  65.736  1.00 44.17 LIG 0.08  C 
BRANCH 33 34
ATOM     34 SD   MET c   3      17.042  28.497  64.114  1.00 39.95 LIG-0.17  SA
ATOM     35  CE  MET c   3      18.171  29.825  64.449  1.00 32.62 LIG 0.09  C 
ENDBRANCH 33 34
ENDBRANCH 32 33
ENDBRANCH 6 32
ENDBRANCH 4 6
ENDBRANCH 1 2
BRANCH 1 36
ATOM     36  CB  GLU c   4      22.833  30.264  64.443  1.00 53.02 LIG 0.04  C 
BRANCH 36 37
ATOM     37  CG  GLU c   4      21.527  30.993  64.091  1.00 67.39 LIG 0.12  C 
BRANCH 37 38
ATOM     38  CD  GLU c   4      21.124  32.032  65.139  1.00 71.96 LIG 0.17  C 
ATOM     39 OE2  GLU c   4      21.451  33.238  64.969  1.00 61.28 LIG-0.65  OA
ATOM     40 OE1  GLU c   4      20.479  31.634  66.140  1.00 68.78 LIG-0.65  OA
ENDBRANCH 37 38
ENDBRANCH 36 37
ENDBRANCH 1 36
BRANCH 1 41
ATOM     41  C   GLU c   4      23.095  29.384  66.845  1.00 40.98 LIG 0.24  C 
ATOM     42 O    GLU c   4      22.209  29.636  67.665  1.00 47.04 LIG-0.27  OA
ATOM     43  N   GLU c   5      24.394  29.407  67.161  1.00 35.89 LIG-0.35  N 
ATOM     44 H    GLU c   5      25.016  29.130  66.636  1.00 35.89 LIG 0.16  HD
BRANCH 43 45
ATOM     45  CA  GLU c   5      24.884  29.916  68.459  1.00 35.53 LIG 0.18  C 
BRANCH 45 46
ATOM     46  C   GLU c   5      24.551  28.968  69.602  1.00 33.86 LIG 0.24  C 
ATOM     47 O    GLU c   5      23.397  28.609  69.796  1.00 26.34 LIG-0.27  OA
ATOM     48  N   VAL c   6      25.568  28.624  70.393  1.00 31.71 LIG-0.35  N 
ATOM     49 H    VAL c   6      26.385  28.847  70.241  1.00 31.71 LIG 0.16  HD
BRANCH 48 50
ATOM     50  CA  VAL c   6      25.380  27.822  71.616  1.00 31.16 LIG 0.18  C 
BRANCH 50 51
ATOM     51  CB  VAL c   6      26.643  26.968  71.959  1.00 25.00 LIG 0.01  C 
ATOM     52  CG1 VAL c   6      26.235  25.847  72.880  1.00 20.51 LIG 0.01  C 
ATOM     53  CG2 VAL c   6      27.349  26.377  70.729  1.00 20.94 LIG 0.01  C 
ENDBRANCH 50 51
BRANCH 50 54
ATOM     54  C   VAL c   6      24.890  28.699  72.784  1.00 33.11 LIG 0.24  C 
ATOM     55 O    VAL c   6      25.479  29.739  73.061  1.00 31.28 LIG-0.27  OA
ATOM     56  N   ASP c   7      23.798  28.274  73.440  1.00 31.84 LIG-0.34  N 
ATOM     57 H    ASP c   7      23.416  27.522  73.269  1.00 31.84 LIG 0.16  HD
BRANCH 56 58
ATOM     58  CA  ASP c   7      23.135  29.027  74.510  1.00 33.25 LIG 0.20  C 
BRANCH 58 59
ATOM     59  C   ASP c   7      22.930  28.210  75.793  1.00 36.36 LIG 0.20  C 
ATOM     60 OXT  ASP c   7      23.681  27.269  76.051  1.00 36.21 LIG-0.65  OA
ATOM     61 O    ASP c   7      22.011  28.451  76.609  1.00 30.31 LIG-0.65  OA
ENDBRANCH 58 59
BRANCH 58 62
ATOM     62  CB  ASP c   7      21.779  29.530  74.005  1.00 37.10 LIG 0.15  C 
BRANCH 62 63
ATOM     63  CG  ASP c   7      21.276  28.733  72.847  1.00 37.44 LIG 0.17  C 
ATOM     64 OD1  ASP c   7      21.439  29.170  71.691  1.00 43.19 LIG-0.65  OA
ATOM     65 OD2  ASP c   7      20.700  27.663  73.079  1.00 52.04 LIG-0.65  OA
ENDBRANCH 62 63
ENDBRANCH 58 62
ENDBRANCH 56 58
ENDBRANCH 50 54
ENDBRANCH 48 50
ENDBRANCH 45 46
BRANCH 45 66
ATOM     66  CB  GLU c   5      24.268  31.281  68.786  1.00 40.99 LIG 0.04  C 
BRANCH 66 67
ATOM     67  CG  GLU c   5      25.216  32.248  69.497  1.00 49.45 LIG 0.12  C 
BRANCH 67 68
ATOM     68  CD  GLU c   5      26.536  32.409  68.766  1.00 57.05 LIG 0.17  C 
ATOM     69 OE2  GLU c   5      27.528  32.800  69.407  1.00 42.85 LIG-0.65  OA
ATOM     70 OE1  GLU c   5      26.584  32.126  67.547  1.00 67.91 LIG-0.65  OA
ENDBRANCH 67 68
ENDBRANCH 66 67
ENDBRANCH 45 66
ENDBRANCH 43 45
ENDBRANCH 1 41
TORSDOF 33
ENDMDL
MODEL 13
USER: ADFR SOLUTION from run 43
USER: SCORE 20.156940 LL:  -4.112 LR: -19.312 RR:   0.000 FEB:  -9.468
USER: RMSD 8.688284
USER: SEED 42
USER: STATUS no improvement in best in 4 clusters for 5 generations
USER: GENES 35
USER: genes 0 Translation |==|  0.62318 0.62135 0.30176
USER: genes 1 Rotation |==|  0.70397 0.32101 0.23841 0.82853
USER: genes 2 Torsion [C]-CA--N-[C] |==|  0.70543
USER: genes 3 Torsion [N]-C--CA-[N] |==|  0.48054
USER: genes 4 Torsion [C]-CA--N-[C] |==|  0.16683
USER: genes 5 Torsion [N]-C--CA-[N] |==|  0.98287
USER: genes 6 Torsion [C]-CA--CB-[CG] |==|  0.60472
USER: genes 7 Torsion [CA]-CB--CG-[CD] |==|  0.72536
USER: genes 8 Torsion [CB]-CG--CD-[CE] |==|  0.25898
USER: genes 9 Torsion [CG]-CD--CE-[NZ] |==|  0.24160
USER: genes 10 Torsion [CD]-CE--NZ-[HZ2] |==|  0.02789
USER: genes 11 Torsion [C]-CA--N-[C] |==|  0.79987
USER: genes 12 Torsion [N]-C--CA-[N] |==|  0.23131
USER: genes 13 Torsion [C]-CA--CB-[OG] |==|  0.42955
USER: genes 14 Torsion [CA]-CB--OG-[HG] |==|  0.71370
USER: genes 15 Torsion [C]-CA--N-[H2] |==|  0.02392
USER: genes 16 Torsion [C]-CA--CB-[CG] |==|  0.97571
USER: genes 17 Torsion [CA]-CB--CG-[SD] |==|  0.66644
USER: genes 18 Torsion [CB]-CG--SD-[CE] |==|  0.93798
USER: genes 19 Torsion [N]-CA--CB-[CG] |==|  0.10349
USER: genes 20 Torsion [CA]-CB--CG-[CD] |==|  0.56006
USER: genes 21 Torsion [CB]-CG--CD-[OE2] |==|  0.65496
USER: genes 22 Torsion [N]-CA--C-[N] |==|  0.60945
USER: genes 23 Torsion [C]-N--CA-[CB] |==|  0.33616
USER: genes 24 Torsion [N]-CA--C-[N] |==|  0.89088
USER: genes 25 Torsion [C]-N--CA-[C] |==|  0.80629
USER: genes 26 Torsion [N]-CA--CB-[CG2] |==|  0.77332
USER: genes 27 Torsion [N]-CA--C-[N] |==|  0.88000
USER: genes 28 Torsion [C]-N--CA-[C] |==|  0.13079
USER: genes 29 Torsion [N]-CA--C-[O] |==|  0.14047
USER: genes 30 Torsion [N]-CA--CB-[CG] |==|  0.85125
USER: genes 31 Torsion [CA]-CB--CG-[OD1] |==|  0.39725
USER: genes 32 Torsion [N]-CA--CB-[CG] |==|  0.70756
USER: genes 33 Torsion [CA]-CB--CG-[CD] |==|  0.00883
USER: genes 34 Torsion [CB]-CG--CD-[OE2] |==|  0.32055
ROOT
ATOM      1  CA  GLU c   4      22.629  28.197  65.886  1.00 41.78 LIG 0.18  C 
ENDROOT
BRANCH 1 2
ATOM      2  N   GLU c   4      21.254  27.747  65.932  1.00 36.98 LIG-0.35  N 
ATOM      3 H    GLU c   4      20.711  28.307  66.294  1.00 36.98 LIG 0.16  HD
ATOM      4  C   MET c   3      20.887  26.573  65.452  1.00 39.25 LIG 0.24  C 
ATOM      5 O    MET c   3      21.703  25.750  65.034  1.00 33.30 LIG-0.27  OA
BRANCH 4 6
ATOM      6  CA  MET c   3      19.371  26.287  65.412  1.00 43.32 LIG 0.18  C 
BRANCH 6 7
ATOM      7  N   MET c   3      18.952  25.048  64.732  1.00 44.06 LIG-0.35  N 
ATOM      8 H    MET c   3      18.430  25.199  64.065  1.00 44.06 LIG 0.16  HD
ATOM      9  C   LYS c   2      19.315  23.808  65.076  1.00 50.87 LIG 0.24  C 
ATOM     10 O    LYS c   2      19.949  23.526  66.107  1.00 41.81 LIG-0.27  OA
BRANCH 9 11
ATOM     11  CA  LYS c   2      18.866  22.704  64.092  1.00 52.27 LIG 0.18  C 
BRANCH 11 12
ATOM     12  CB  LYS c   2      20.102  22.001  63.486  1.00 56.87 LIG 0.04  C 
BRANCH 12 13
ATOM     13  CG  LYS c   2      19.953  21.628  62.026  1.00 55.18 LIG 0.00  C 
BRANCH 13 14
ATOM     14  CD  LYS c   2      19.577  20.168  61.891  1.00 56.62 LIG 0.03  C 
BRANCH 14 15
ATOM     15  CE  LYS c   2      18.080  19.991  61.814  1.00 60.10 LIG 0.23  C 
BRANCH 15 16
ATOM     16  NZ  LYS c   2      17.680  20.126  60.391  1.00 62.98 LIG-0.08  N 
ATOM     17 HZ2  LYS c   2      18.407  20.135  59.878  1.00 62.98 LIG 0.27  HD
ATOM     18 HZ3  LYS c   2      17.164  19.438  60.161  1.00 62.98 LIG 0.27  HD
ATOM     19 HZ1  LYS c   2      17.230  20.885  60.279  1.00 62.98 LIG 0.27  HD
ENDBRANCH 15 16
ENDBRANCH 14 15
ENDBRANCH 13 14
ENDBRANCH 12 13
ENDBRANCH 11 12
BRANCH 11 20
ATOM     20  N   LYS c   2      17.993  23.213  63.025  1.00 43.42 LIG-0.35  N 
ATOM     21 H    LYS c   2      18.377  23.244  62.256  1.00 43.42 LIG 0.16  HD
ATOM     22  C   SER c   1      16.727  23.594  63.217  1.00 43.78 LIG 0.25  C 
ATOM     23 O    SER c   1      16.163  23.620  64.311  1.00 50.72 LIG-0.27  OA
BRANCH 22 24
ATOM     24  CA  SER c   1      15.963  24.012  61.975  1.00 42.10 LIG 0.30  C 
BRANCH 24 25
ATOM     25  CB  SER c   1      14.827  24.964  62.372  1.00 37.65 LIG 0.21  C 
BRANCH 25 26
ATOM     26 OG   SER c   1      14.449  25.823  61.315  1.00 37.04 LIG-0.40  OA
ATOM     27 HG   SER c   1      14.769  26.589  61.448  1.00 37.04 LIG 0.21  HD
ENDBRANCH 25 26
ENDBRANCH 24 25
BRANCH 24 28
ATOM     28  N   SER c   1      15.448  22.757  61.341  1.00 43.63 LIG-0.06  N 
ATOM     29 H2   SER c   1      15.591  22.068  61.886  1.00 43.63 LIG 0.28  HD
ATOM     30 H3   SER c   1      14.575  22.838  61.188  1.00 43.63 LIG 0.28  HD
ATOM     31 H1   SER c   1      15.872  22.618  60.570  1.00 43.63 LIG 0.28  HD
ENDBRANCH 24 28
ENDBRANCH 22 24
ENDBRANCH 11 20
ENDBRANCH 9 11
ENDBRANCH 6 7
BRANCH 6 32
ATOM     32  CB  MET c   3      18.825  26.220  66.842  1.00 42.03 LIG 0.04  C 
BRANCH 32 33
ATOM     33  CG  MET c   3      19.838  26.228  67.957  1.00 44.17 LIG 0.08  C 
BRANCH 33 34
ATOM     34 SD   MET c   3      19.785  24.775  69.007  1.00 39.95 LIG-0.17  SA
ATOM     35  CE  MET c   3      18.110  24.343  68.606  1.00 32.62 LIG 0.09  C 
ENDBRANCH 33 34
ENDBRANCH 32 33
ENDBRANCH 6 32
ENDBRANCH 4 6
ENDBRANCH 1 2
BRANCH 1 36
ATOM     36  CB  GLU c   4      22.685  29.621  65.271  1.00 53.02 LIG 0.04  C 
BRANCH 36 37
ATOM     37  CG  GLU c   4      21.541  30.577  65.638  1.00 67.39 LIG 0.12  C 
BRANCH 37 38
ATOM     38  CD  GLU c   4      21.371  31.716  64.631  1.00 71.96 LIG 0.17  C 
ATOM     39 OE2  GLU c   4      21.412  32.909  65.036  1.00 61.28 LIG-0.65  OA
ATOM     40 OE1  GLU c   4      21.193  31.410  63.426  1.00 68.78 LIG-0.65  OA
ENDBRANCH 37 38
ENDBRANCH 36 37
ENDBRANCH 1 36
BRANCH 1 41
ATOM     41  C   GLU c   4      23.265  28.127  67.283  1.00 40.98 LIG 0.24  C 
ATOM     42 O    GLU c   4      22.999  27.182  68.028  1.00 47.04 LIG-0.27  OA
ATOM     43  N   GLU c   5      24.083  29.121  67.646  1.00 35.89 LIG-0.35  N 
ATOM     44 H    GLU c   5      24.363  29.728  67.105  1.00 35.89 LIG 0.16  HD
BRANCH 43 45
ATOM     45  CA  GLU c   5      24.586  29.268  69.028  1.00 35.53 LIG 0.18  C 
BRANCH 45 46
ATOM     46  C   GLU c   5      24.136  30.578  69.659  1.00 33.86 LIG 0.24  C 
ATOM     47 O    GLU c   5      23.741  30.606  70.817  1.00 26.34 LIG-0.27  OA
ATOM     48  N   VAL c   6      24.137  31.644  68.859  1.00 31.71 LIG-0.35  N 
ATOM     49 H    VAL c   6      24.444  31.635  68.055  1.00 31.71 LIG 0.16  HD
BRANCH 48 50
ATOM     50  CA  VAL c   6      23.603  32.951  69.285  1.00 31.16 LIG 0.18  C 
BRANCH 50 51
ATOM     51  CB  VAL c   6      24.115  34.119  68.380  1.00 25.00 LIG 0.01  C 
ATOM     52  CG1 VAL c   6      23.140  35.264  68.470  1.00 20.51 LIG 0.01  C 
ATOM     53  CG2 VAL c   6      25.519  34.622  68.748  1.00 20.94 LIG 0.01  C 
ENDBRANCH 50 51
BRANCH 50 54
ATOM     54  C   VAL c   6      22.070  32.904  69.427  1.00 33.11 LIG 0.24  C 
ATOM     55 O    VAL c   6      21.525  33.451  70.381  1.00 31.28 LIG-0.27  OA
ATOM     56  N   ASP c   7      21.393  32.269  68.457  1.00 31.84 LIG-0.34  N 
ATOM     57 H    ASP c   7      21.785  31.851  67.815  1.00 31.84 LIG 0.16  HD
BRANCH 56 58
ATOM     58  CA  ASP c   7      19.929  32.212  68.376  1.00 33.25 LIG 0.20  C 
BRANCH 58 59
ATOM     59  C   ASP c   7      19.255  33.576  68.581  1.00 36.36 LIG 0.20  C 
ATOM     60 OXT  ASP c   7      18.332  33.692  69.387  1.00 36.21 LIG-0.65  OA
ATOM     61 O    ASP c   7      19.598  34.600  67.948  1.00 30.31 LIG-0.65  OA
ENDBRANCH 58 59
BRANCH 58 62
ATOM     62  CB  ASP c   7      19.407  31.223  69.423  1.00 37.10 LIG 0.15  C 
BRANCH 62 63
ATOM     63  CG  ASP c   7      20.056  29.884  69.310  1.00 37.44 LIG 0.17  C 
ATOM     64 OD1  ASP c   7      20.314  29.243  70.348  1.00 43.19 LIG-0.65  OA
ATOM     65 OD2  ASP c   7      20.328  29.459  68.180  1.00 52.04 LIG-0.65  OA
ENDBRANCH 62 63
ENDBRANCH 58 62
ENDBRANCH 56 58
ENDBRANCH 50 54
ENDBRANCH 48 50
ENDBRANCH 45 46
BRANCH 45 66
ATOM     66  CB  GLU c   5      26.117  29.229  69.066  1.00 40.99 LIG 0.04  C 
BRANCH 66 67
ATOM     67  CG  GLU c   5      26.703  27.921  69.602  1.00 49.45 LIG 0.12  C 
BRANCH 67 68
ATOM     68  CD  GLU c   5      25.632  26.892  69.917  1.00 57.05 LIG 0.17  C 
ATOM     69 OE2  GLU c   5      25.606  25.838  69.257  1.00 42.85 LIG-0.65  OA
ATOM     70 OE1  GLU c   5      24.824  27.134  70.842  1.00 67.91 LIG-0.65  OA
ENDBRANCH 67 68
ENDBRANCH 66 67
ENDBRANCH 45 66
ENDBRANCH 43 45
ENDBRANCH 1 41
TORSDOF 33
ENDMDL
MODEL 14
USER: ADFR SOLUTION from run 193
USER: SCORE 21.044467 LL:  -4.610 LR: -19.142 RR:   0.000 FEB:  -9.298
USER: RMSD 6.375980
USER: SEED 192
USER: STATUS searching
USER: GENES 35
USER: genes 0 Translation |==|  0.52286 0.38664 0.51879
USER: genes 1 Rotation |==|  0.45400 0.43473 0.77853 0.90749
USER: genes 2 Torsion [C]-CA--N-[C] |==|  0.20965
USER: genes 3 Torsion [N]-C--CA-[N] |==|  0.97778
USER: genes 4 Torsion [C]-CA--N-[C] |==|  0.82193
USER: genes 5 Torsion [N]-C--CA-[N] |==|  0.20499
USER: genes 6 Torsion [C]-CA--CB-[CG] |==|  0.60676
USER: genes 7 Torsion [CA]-CB--CG-[CD] |==|  0.57556
USER: genes 8 Torsion [CB]-CG--CD-[CE] |==|  0.49099
USER: genes 9 Torsion [CG]-CD--CE-[NZ] |==|  0.48202
USER: genes 10 Torsion [CD]-CE--NZ-[HZ2] |==|  0.63927
USER: genes 11 Torsion [C]-CA--N-[C] |==|  0.61276
USER: genes 12 Torsion [N]-C--CA-[N] |==|  0.79200
USER: genes 13 Torsion [C]-CA--CB-[OG] |==|  0.66792
USER: genes 14 Torsion [CA]-CB--OG-[HG] |==|  0.20523
USER: genes 15 Torsion [C]-CA--N-[H2] |==|  0.97937
USER: genes 16 Torsion [C]-CA--CB-[CG] |==|  0.36070
USER: genes 17 Torsion [CA]-CB--CG-[SD] |==|  0.68642
USER: genes 18 Torsion [CB]-CG--SD-[CE] |==|  0.01391
USER: genes 19 Torsion [N]-CA--CB-[CG] |==|  0.66031
USER: genes 20 Torsion [CA]-CB--CG-[CD] |==|  0.68795
USER: genes 21 Torsion [CB]-CG--CD-[OE2] |==|  0.78537
USER: genes 22 Torsion [N]-CA--C-[N] |==|  0.04773
USER: genes 23 Torsion [C]-N--CA-[CB] |==|  0.53184
USER: genes 24 Torsion [N]-CA--C-[N] |==|  0.82057
USER: genes 25 Torsion [C]-N--CA-[C] |==|  0.67166
USER: genes 26 Torsion [N]-CA--CB-[CG2] |==|  0.19030
USER: genes 27 Torsion [N]-CA--C-[N] |==|  0.58736
USER: genes 28 Torsion [C]-N--CA-[C] |==|  0.83954
USER: genes 29 Torsion [N]-CA--C-[O] |==|  0.38239
USER: genes 30 Torsion [N]-CA--CB-[CG] |==|  0.74789
USER: genes 31 Torsion [CA]-CB--CG-[OD1] |==|  0.87193
USER: genes 32 Torsion [N]-CA--CB-[CG] |==|  0.99651
USER: genes 33 Torsion [CA]-CB--CG-[CD] |==|  0.20926
USER: genes 34 Torsion [CB]-CG--CD-[OE2] |==|  0.08531
ROOT
ATOM      1  CA  GLU c   4      20.447  22.740  70.607  1.00 41.78 LIG 0.18  C 
ENDROOT
BRANCH 1 2
ATOM      2  N   GLU c   4      20.581  22.706  72.047  1.00 36.98 LIG-0.35  N 
ATOM      3 H    GLU c   4      21.186  23.231  72.359  1.00 36.98 LIG 0.16  HD
ATOM      4  C   MET c   3      19.827  21.926  72.801  1.00 39.25 LIG 0.24  C 
ATOM      5 O    MET c   3      19.041  21.108  72.320  1.00 33.30 LIG-0.27  OA
BRANCH 4 6
ATOM      6  CA  MET c   3      19.955  22.108  74.328  1.00 43.32 LIG 0.18  C 
BRANCH 6 7
ATOM      7  N   MET c   3      21.033  23.000  74.796  1.00 44.06 LIG-0.35  N 
ATOM      8 H    MET c   3      20.730  23.697  75.200  1.00 44.06 LIG 0.16  HD
ATOM      9  C   LYS c   2      22.343  22.793  74.633  1.00 50.87 LIG 0.24  C 
ATOM     10 O    LYS c   2      22.826  21.881  73.941  1.00 41.81 LIG-0.27  OA
BRANCH 9 11
ATOM     11  CA  LYS c   2      23.256  23.802  75.368  1.00 52.27 LIG 0.18  C 
BRANCH 11 12
ATOM     12  CB  LYS c   2      24.683  23.751  74.778  1.00 56.87 LIG 0.04  C 
BRANCH 12 13
ATOM     13  CG  LYS c   2      25.787  23.888  75.806  1.00 55.18 LIG 0.00  C 
BRANCH 13 14
ATOM     14  CD  LYS c   2      27.026  24.483  75.171  1.00 56.62 LIG 0.03  C 
BRANCH 14 15
ATOM     15  CE  LYS c   2      28.115  24.702  76.193  1.00 60.10 LIG 0.23  C 
BRANCH 15 16
ATOM     16  NZ  LYS c   2      29.336  25.135  75.468  1.00 62.98 LIG-0.08  N 
ATOM     17 HZ2  LYS c   2      30.027  24.638  75.728  1.00 62.98 LIG 0.27  HD
ATOM     18 HZ3  LYS c   2      29.213  25.035  74.593  1.00 62.98 LIG 0.27  HD
ATOM     19 HZ1  LYS c   2      29.501  25.991  75.649  1.00 62.98 LIG 0.27  HD
ENDBRANCH 15 16
ENDBRANCH 14 15
ENDBRANCH 13 14
ENDBRANCH 12 13
ENDBRANCH 11 12
BRANCH 11 20
ATOM     20  N   LYS c   2      23.294  23.580  76.820  1.00 43.42 LIG-0.35  N 
ATOM     21 H    LYS c   2      23.325  22.748  77.037  1.00 43.42 LIG 0.16  HD
ATOM     22  C   SER c   1      23.283  24.564  77.725  1.00 43.78 LIG 0.25  C 
ATOM     23 O    SER c   1      23.181  25.761  77.455  1.00 50.72 LIG-0.27  OA
BRANCH 22 24
ATOM     24  CA  SER c   1      23.413  24.136  79.174  1.00 42.10 LIG 0.30  C 
BRANCH 24 25
ATOM     25  CB  SER c   1      24.554  23.118  79.304  1.00 37.65 LIG 0.21  C 
BRANCH 25 26
ATOM     26 OG   SER c   1      24.110  21.871  79.800  1.00 37.04 LIG-0.40  OA
ATOM     27 HG   SER c   1      23.686  21.465  79.198  1.00 37.04 LIG 0.21  HD
ENDBRANCH 25 26
ENDBRANCH 24 25
BRANCH 24 28
ATOM     28  N   SER c   1      22.092  23.555  79.574  1.00 43.63 LIG-0.06  N 
ATOM     29 H2   SER c   1      21.501  23.685  78.922  1.00 43.63 LIG 0.28  HD
ATOM     30 H3   SER c   1      22.184  22.681  79.720  1.00 43.63 LIG 0.28  HD
ATOM     31 H1   SER c   1      21.806  23.951  80.318  1.00 43.63 LIG 0.28  HD
ENDBRANCH 24 28
ENDBRANCH 22 24
ENDBRANCH 11 20
ENDBRANCH 9 11
ENDBRANCH 6 7
BRANCH 6 32
ATOM     32  CB  MET c   3      18.642  22.660  74.890  1.00 42.03 LIG 0.04  C 
BRANCH 32 33
ATOM     33  CG  MET c   3      18.054  21.940  76.076  1.00 44.17 LIG 0.08  C 
BRANCH 33 34
ATOM     34 SD   MET c   3      16.506  21.103  75.732  1.00 39.95 LIG-0.17  SA
ATOM     35  CE  MET c   3      16.514  21.451  73.991  1.00 32.62 LIG 0.09  C 
ENDBRANCH 33 34
ENDBRANCH 32 33
ENDBRANCH 6 32
ENDBRANCH 4 6
ENDBRANCH 1 2
BRANCH 1 36
ATOM     36  CB  GLU c   4      20.454  21.290  70.054  1.00 53.02 LIG 0.04  C 
BRANCH 36 37
ATOM     37  CG  GLU c   4      21.538  20.950  69.021  1.00 67.39 LIG 0.12  C 
BRANCH 37 38
ATOM     38  CD  GLU c   4      20.968  20.681  67.627  1.00 71.96 LIG 0.17  C 
ATOM     39 OE2  GLU c   4      20.417  19.571  67.390  1.00 61.28 LIG-0.65  OA
ATOM     40 OE1  GLU c   4      21.075  21.587  66.765  1.00 68.78 LIG-0.65  OA
ENDBRANCH 37 38
ENDBRANCH 36 37
ENDBRANCH 1 36
BRANCH 1 41
ATOM     41  C   GLU c   4      19.191  23.526  70.201  1.00 40.98 LIG 0.24  C 
ATOM     42 O    GLU c   4      18.742  23.413  69.059  1.00 47.04 LIG-0.27  OA
ATOM     43  N   GLU c   5      18.635  24.327  71.117  1.00 35.89 LIG-0.35  N 
ATOM     44 H    GLU c   5      18.867  24.337  71.944  1.00 35.89 LIG 0.16  HD
BRANCH 43 45
ATOM     45  CA  GLU c   5      17.556  25.281  70.783  1.00 35.53 LIG 0.18  C 
BRANCH 45 46
ATOM     46  C   GLU c   5      17.886  26.098  69.542  1.00 33.86 LIG 0.24  C 
ATOM     47 O    GLU c   5      17.248  25.943  68.509  1.00 26.34 LIG-0.27  OA
ATOM     48  N   VAL c   6      18.933  26.917  69.641  1.00 31.71 LIG-0.35  N 
ATOM     49 H    VAL c   6      19.362  27.053  70.374  1.00 31.71 LIG 0.16  HD
BRANCH 48 50
ATOM     50  CA  VAL c   6      19.456  27.671  68.488  1.00 31.16 LIG 0.18  C 
BRANCH 50 51
ATOM     51  CB  VAL c   6      19.254  29.213  68.653  1.00 25.00 LIG 0.01  C 
ATOM     52  CG1 VAL c   6      17.800  29.483  68.943  1.00 20.51 LIG 0.01  C 
ATOM     53  CG2 VAL c   6      20.114  29.839  69.762  1.00 20.94 LIG 0.01  C 
ENDBRANCH 50 51
BRANCH 50 54
ATOM     54  C   VAL c   6      20.909  27.268  68.173  1.00 33.11 LIG 0.24  C 
ATOM     55 O    VAL c   6      21.284  26.118  68.374  1.00 31.28 LIG-0.27  OA
ATOM     56  N   ASP c   7      21.702  28.222  67.659  1.00 31.84 LIG-0.34  N 
ATOM     57 H    ASP c   7      21.444  29.037  67.561  1.00 31.84 LIG 0.16  HD
BRANCH 56 58
ATOM     58  CA  ASP c   7      23.079  27.994  67.208  1.00 33.25 LIG 0.20  C 
BRANCH 58 59
ATOM     59  C   ASP c   7      23.993  27.432  68.306  1.00 36.36 LIG 0.20  C 
ATOM     60 OXT  ASP c   7      23.938  27.888  69.448  1.00 36.21 LIG-0.65  OA
ATOM     61 O    ASP c   7      24.819  26.515  68.094  1.00 30.31 LIG-0.65  OA
ENDBRANCH 58 59
BRANCH 58 62
ATOM     62  CB  ASP c   7      23.662  29.310  66.686  1.00 37.10 LIG 0.15  C 
BRANCH 62 63
ATOM     63  CG  ASP c   7      23.430  29.491  65.222  1.00 37.44 LIG 0.17  C 
ATOM     64 OD1  ASP c   7      23.655  28.540  64.448  1.00 43.19 LIG-0.65  OA
ATOM     65 OD2  ASP c   7      23.027  30.592  64.825  1.00 52.04 LIG-0.65  OA
ENDBRANCH 62 63
ENDBRANCH 58 62
ENDBRANCH 56 58
ENDBRANCH 50 54
ENDBRANCH 48 50
ENDBRANCH 45 46
BRANCH 45 66
ATOM     66  CB  GLU c   5      17.305  26.258  71.937  1.00 40.99 LIG 0.04  C 
BRANCH 66 67
ATOM     67  CG  GLU c   5      18.182  26.021  73.167  1.00 49.45 LIG 0.12  C 
BRANCH 67 68
ATOM     68  CD  GLU c   5      19.609  26.498  72.963  1.00 57.05 LIG 0.17  C 
ATOM     69 OE2  GLU c   5      19.812  27.467  72.210  1.00 42.85 LIG-0.65  OA
ATOM     70 OE1  GLU c   5      20.529  25.909  73.574  1.00 67.91 LIG-0.65  OA
ENDBRANCH 67 68
ENDBRANCH 66 67
ENDBRANCH 45 66
ENDBRANCH 43 45
ENDBRANCH 1 41
TORSDOF 33
ENDMDL
