MODEL 1
USER: ADFR SOLUTION from run 141
USER: SCORE 13.244816 LL:  -1.768 LR: -12.756 RR:   0.000 FEB:  -8.878
USER: RMSD 10.449815
USER: SEED 140
USER: STATUS no improvement in best 8 clusters for 5 generations
USER: GENES 15
USER: genes 0 Translation |==|  0.74954 0.32034 0.50519
USER: genes 1 Rotation |==|  0.11227 0.81460 0.51103 0.52385
USER: genes 2 Torsion [CB]-CA--N-[C] |==|  0.15564
USER: genes 3 Torsion [N]-C--CA-[N] |==|  0.35144
USER: genes 4 Torsion [C]-CA--CB-[CG] |==|  0.87612
USER: genes 5 Torsion [CA]-CB--CG-[CD] |==|  0.27613
USER: genes 6 Torsion [CB]-CG--CD-[OE1] |==|  0.00921
USER: genes 7 Torsion [C]-CA--N-[H3] |==|  0.43295
USER: genes 8 Torsion [N]-CA--C-[N] |==|  0.34262
USER: genes 9 Torsion [C]-N--CA-[CB] |==|  0.21691
USER: genes 10 Torsion [N]-CA--CB-[CG] |==|  0.07082
USER: genes 11 Torsion [CA]-CB--CG-[CD1] |==|  0.30701
USER: genes 12 Torsion [N]-CA--C-[O] |==|  0.69785
USER: genes 13 Torsion [N]-CA--CB-[CG] |==|  0.42598
USER: genes 14 Torsion [CA]-CB--CG-[OD2] |==|  0.75620
ROOT
ATOM      1  CA  ASP C 507      15.936  19.980   4.546  1.00 33.68 LIG 0.19  C 
ENDROOT
BRANCH 1 2
ATOM      2  N   ASP C 507      15.850  21.333   5.081  1.00 35.05 LIG-0.34  N 
ATOM      3  C   GLU C 506      14.840  22.145   4.795  1.00 36.98 LIG 0.25  C 
ATOM      4 O    GLU C 506      13.925  21.837   4.024  1.00 35.33 LIG-0.27  OA
ATOM      5 H    ASP C 507      16.507  21.550   5.592  1.00 35.05 LIG 0.16  HD
BRANCH 3 6
ATOM      6  CA  GLU C 506      14.899  23.532   5.432  1.00 38.62 LIG 0.28  C 
BRANCH 6 7
ATOM      7  CB  GLU C 506      13.815  23.689   6.501  1.00 41.41 LIG 0.05  C 
BRANCH 7 8
ATOM      8  CG  GLU C 506      12.455  23.168   6.082  1.00 54.63 LIG 0.12  C 
BRANCH 8 9
ATOM      9  CD  GLU C 506      12.155  21.784   6.625  1.00 71.07 LIG 0.17  C 
ATOM     10 OE1  GLU C 506      12.988  21.245   7.390  1.00 74.77 LIG-0.65  OA
ATOM     11 OE2  GLU C 506      11.075  21.245   6.294  1.00 73.38 LIG-0.65  OA
ENDBRANCH 8 9
ENDBRANCH 7 8
ENDBRANCH 6 7
BRANCH 6 12
ATOM     12  N   GLU C 506      14.763  24.585   4.390  1.00 38.98 LIG-0.07  N 
ATOM     13 H3   GLU C 506      14.453  25.332   4.761  1.00 38.98 LIG 0.28  HD
ATOM     14 H2   GLU C 506      14.196  24.310   3.762  1.00 38.98 LIG 0.28  HD
ATOM     15 H1   GLU C 506      15.558  24.744   4.023  1.00 38.98 LIG 0.28  HD
ENDBRANCH 6 12
ENDBRANCH 3 6
ENDBRANCH 1 2
BRANCH 1 16
ATOM     16  C   ASP C 507      17.226  19.342   5.030  1.00 33.47 LIG 0.24  C 
ATOM     17 O    ASP C 507      18.313  19.895   4.843  1.00 34.83 LIG-0.27  OA
ATOM     18  N   LEU C 508      17.086  18.198   5.694  1.00 31.65 LIG-0.34  N 
ATOM     19 H    LEU C 508      16.327  17.817   5.832  1.00 31.65 LIG 0.16  HD
BRANCH 18 20
ATOM     20  CA  LEU C 508      18.222  17.482   6.252  1.00 32.20 LIG 0.18  C 
BRANCH 20 21
ATOM     21  CB  LEU C 508      18.656  18.160   7.544  1.00 32.28 LIG 0.04  C 
BRANCH 21 22
ATOM     22  CG  LEU C 508      17.469  18.901   8.148  1.00 33.09 LIG-0.02  C 
ATOM     23  CD1 LEU C 508      17.018  18.224   9.407  1.00 32.61 LIG 0.01  C 
ATOM     24  CD2 LEU C 508      17.834  20.362   8.367  1.00 34.13 LIG 0.01  C 
ENDBRANCH 21 22
ENDBRANCH 20 21
BRANCH 20 25
ATOM     25  C   LEU C 508      17.935  16.013   6.504  1.00 33.63 LIG 0.20  C 
ATOM     26 O    LEU C 508      17.825  15.629   7.688  0.50 32.81 LIG-0.65  OA
ATOM     27 OXT  LEU C 508      17.824  15.259   5.515  0.50 35.17 LIG-0.65  OA
ENDBRANCH 20 25
ENDBRANCH 18 20
ENDBRANCH 1 16
BRANCH 1 28
ATOM     28  CB  ASP C 507      15.872  20.024   3.021  1.00 31.02 LIG 0.15  C 
BRANCH 28 29
ATOM     29  CG  ASP C 507      16.574  18.839   2.390  1.00 34.22 LIG 0.17  C 
ATOM     30 OD2  ASP C 507      17.801  18.908   2.150  1.00 32.29 LIG-0.65  OA
ATOM     31 OD1  ASP C 507      15.880  17.849   2.093  1.00 33.73 LIG-0.65  OA
ENDBRANCH 28 29
ENDBRANCH 1 28
TORSDOF 13
ENDMDL
MODEL 2
USER: ADFR SOLUTION from run 95
USER: SCORE 13.099575 LL:  -1.779 LR: -12.550 RR:   0.000 FEB:  -8.672
USER: RMSD 6.152851
USER: SEED 94
USER: STATUS no improvement in best 20 clusters for 5 generations
USER: GENES 15
USER: genes 0 Translation |==|  0.53587 0.51862 0.57357
USER: genes 1 Rotation |==|  0.35565 0.35198 0.04490 0.51172
USER: genes 2 Torsion [CB]-CA--N-[C] |==|  0.16318
USER: genes 3 Torsion [N]-C--CA-[N] |==|  0.35232
USER: genes 4 Torsion [C]-CA--CB-[CG] |==|  0.87088
USER: genes 5 Torsion [CA]-CB--CG-[CD] |==|  0.30943
USER: genes 6 Torsion [CB]-CG--CD-[OE1] |==|  0.53672
USER: genes 7 Torsion [C]-CA--N-[H3] |==|  0.41564
USER: genes 8 Torsion [N]-CA--C-[N] |==|  0.34233
USER: genes 9 Torsion [C]-N--CA-[CB] |==|  0.20826
USER: genes 10 Torsion [N]-CA--CB-[CG] |==|  0.08321
USER: genes 11 Torsion [CA]-CB--CG-[CD1] |==|  0.32426
USER: genes 12 Torsion [N]-CA--C-[O] |==|  0.20935
USER: genes 13 Torsion [N]-CA--CB-[CG] |==|  0.41463
USER: genes 14 Torsion [CA]-CB--CG-[OD2] |==|  0.23752
ROOT
ATOM      1  CA  ASP C 507       9.526  25.929   6.597  1.00 33.68 LIG 0.19  C 
ENDROOT
BRANCH 1 2
ATOM      2  N   ASP C 507      10.429  25.710   5.475  1.00 35.05 LIG-0.34  N 
ATOM      3  C   GLU C 506      11.568  25.039   5.603  1.00 36.98 LIG 0.25  C 
ATOM      4 O    GLU C 506      11.969  24.591   6.682  1.00 35.33 LIG-0.27  OA
ATOM      5 H    ASP C 507      10.158  26.051   4.734  1.00 35.05 LIG 0.16  HD
BRANCH 3 6
ATOM      6  CA  GLU C 506      12.405  24.900   4.333  1.00 38.62 LIG 0.28  C 
BRANCH 6 7
ATOM      7  CB  GLU C 506      12.406  23.453   3.834  1.00 41.41 LIG 0.05  C 
BRANCH 7 8
ATOM      8  CG  GLU C 506      12.660  22.427   4.921  1.00 54.63 LIG 0.12  C 
BRANCH 8 9
ATOM      9  CD  GLU C 506      11.445  21.573   5.228  1.00 71.07 LIG 0.17  C 
ATOM     10 OE1  GLU C 506      11.450  20.870   6.265  1.00 74.77 LIG-0.65  OA
ATOM     11 OE2  GLU C 506      10.478  21.620   4.434  1.00 73.38 LIG-0.65  OA
ENDBRANCH 8 9
ENDBRANCH 7 8
ENDBRANCH 6 7
BRANCH 6 12
ATOM     12  N   GLU C 506      13.796  25.370   4.577  1.00 38.98 LIG-0.07  N 
ATOM     13 H3   GLU C 506      14.358  24.917   4.057  1.00 38.98 LIG 0.28  HD
ATOM     14 H2   GLU C 506      14.009  25.236   5.430  1.00 38.98 LIG 0.28  HD
ATOM     15 H1   GLU C 506      13.853  26.238   4.389  1.00 38.98 LIG 0.28  HD
ENDBRANCH 6 12
ENDBRANCH 3 6
ENDBRANCH 1 2
BRANCH 1 16
ATOM     16  C   ASP C 507       8.315  26.704   6.108  1.00 33.47 LIG 0.24  C 
ATOM     17 O    ASP C 507       8.450  27.777   5.515  1.00 34.83 LIG-0.27  OA
ATOM     18  N   LEU C 508       7.138  26.123   6.322  1.00 31.65 LIG-0.34  N 
ATOM     19 H    LEU C 508       7.045  25.370   6.728  1.00 31.65 LIG 0.16  HD
BRANCH 18 20
ATOM     20  CA  LEU C 508       5.887  26.722   5.882  1.00 32.20 LIG 0.18  C 
BRANCH 20 21
ATOM     21  CB  LEU C 508       5.753  26.550   4.376  1.00 32.28 LIG 0.04  C 
BRANCH 21 22
ATOM     22  CG  LEU C 508       6.469  25.274   3.947  1.00 33.09 LIG-0.02  C 
ATOM     23  CD1 LEU C 508       5.491  24.297   3.369  1.00 32.61 LIG 0.01  C 
ATOM     24  CD2 LEU C 508       7.595  25.617   2.983  1.00 34.13 LIG 0.01  C 
ENDBRANCH 21 22
ENDBRANCH 20 21
BRANCH 20 25
ATOM     25  C   LEU C 508       4.672  26.145   6.585  1.00 33.63 LIG 0.20  C 
ATOM     26 O    LEU C 508       4.453  26.495   7.765  0.50 32.81 LIG-0.65  OA
ATOM     27 OXT  LEU C 508       3.950  25.349   5.950  0.50 35.17 LIG-0.65  OA
ENDBRANCH 20 25
ENDBRANCH 18 20
ENDBRANCH 1 16
BRANCH 1 28
ATOM     28  CB  ASP C 507      10.257  26.677   7.709  1.00 31.02 LIG 0.15  C 
BRANCH 28 29
ATOM     29  CG  ASP C 507       9.321  27.561   8.508  1.00 34.22 LIG 0.17  C 
ATOM     30 OD2  ASP C 507       8.681  27.070   9.465  1.00 32.29 LIG-0.65  OA
ATOM     31 OD1  ASP C 507       9.195  28.745   8.144  1.00 33.73 LIG-0.65  OA
ENDBRANCH 28 29
ENDBRANCH 1 28
TORSDOF 13
ENDMDL
MODEL 3
USER: ADFR SOLUTION from run 12
USER: SCORE 13.646712 LL:  -1.343 LR: -12.525 RR:   0.000 FEB:  -8.647
USER: RMSD 7.982933
USER: SEED 69962
USER: STATUS no improvement in best 7 clusters for 5 generations
USER: GENES 15
USER: genes 0 Translation |==|  0.75079 0.39418 0.59567
USER: genes 1 Rotation |==|  0.57655 0.41560 0.26964 0.92889
USER: genes 2 Torsion [CB]-CA--N-[C] |==|  0.77082
USER: genes 3 Torsion [N]-C--CA-[N] |==|  0.15496
USER: genes 4 Torsion [C]-CA--CB-[CG] |==|  0.16968
USER: genes 5 Torsion [CA]-CB--CG-[CD] |==|  0.69959
USER: genes 6 Torsion [CB]-CG--CD-[OE1] |==|  0.87690
USER: genes 7 Torsion [C]-CA--N-[H3] |==|  0.19845
USER: genes 8 Torsion [N]-CA--C-[N] |==|  0.22176
USER: genes 9 Torsion [C]-N--CA-[CB] |==|  0.27206
USER: genes 10 Torsion [N]-CA--CB-[CG] |==|  0.63978
USER: genes 11 Torsion [CA]-CB--CG-[CD1] |==|  0.75219
USER: genes 12 Torsion [N]-CA--C-[O] |==|  0.57839
USER: genes 13 Torsion [N]-CA--CB-[CG] |==|  0.48687
USER: genes 14 Torsion [CA]-CB--CG-[OD2] |==|  0.61981
ROOT
ATOM      1  CA  ASP C 507      15.974  22.195   7.260  1.00 33.68 LIG 0.19  C 
ENDROOT
BRANCH 1 2
ATOM      2  N   ASP C 507      15.267  23.290   6.608  1.00 35.05 LIG-0.34  N 
ATOM      3  C   GLU C 506      14.074  23.129   6.048  1.00 36.98 LIG 0.25  C 
ATOM      4 O    GLU C 506      13.495  22.038   5.996  1.00 35.33 LIG-0.27  OA
ATOM      5 H    ASP C 507      15.690  24.039   6.622  1.00 35.05 LIG 0.16  HD
BRANCH 3 6
ATOM      6  CA  GLU C 506      13.469  24.374   5.402  1.00 38.62 LIG 0.28  C 
BRANCH 6 7
ATOM      7  CB  GLU C 506      12.114  24.054   4.764  1.00 41.41 LIG 0.05  C 
BRANCH 7 8
ATOM      8  CG  GLU C 506      11.072  23.560   5.748  1.00 54.63 LIG 0.12  C 
BRANCH 8 9
ATOM      9  CD  GLU C 506      10.769  22.081   5.600  1.00 71.07 LIG 0.17  C 
ATOM     10 OE1  GLU C 506      10.615  21.611   4.449  1.00 74.77 LIG-0.65  OA
ATOM     11 OE2  GLU C 506      10.700  21.388   6.640  1.00 73.38 LIG-0.65  OA
ENDBRANCH 8 9
ENDBRANCH 7 8
ENDBRANCH 6 7
BRANCH 6 12
ATOM     12  N   GLU C 506      14.403  24.937   4.390  1.00 38.98 LIG-0.07  N 
ATOM     13 H3   GLU C 506      14.431  24.402   3.680  1.00 38.98 LIG 0.28  HD
ATOM     14 H2   GLU C 506      15.217  25.004   4.742  1.00 38.98 LIG 0.28  HD
ATOM     15 H1   GLU C 506      14.120  25.744   4.142  1.00 38.98 LIG 0.28  HD
ENDBRANCH 6 12
ENDBRANCH 3 6
ENDBRANCH 1 2
BRANCH 1 16
ATOM     16  C   ASP C 507      15.779  20.930   6.443  1.00 33.47 LIG 0.24  C 
ATOM     17 O    ASP C 507      14.917  20.105   6.753  1.00 34.83 LIG-0.27  OA
ATOM     18  N   LEU C 508      16.558  20.815   5.371  1.00 31.65 LIG-0.34  N 
ATOM     19 H    LEU C 508      17.153  21.396   5.149  1.00 31.65 LIG 0.16  HD
BRANCH 18 20
ATOM     20  CA  LEU C 508      16.469  19.679   4.467  1.00 32.20 LIG 0.18  C 
BRANCH 20 21
ATOM     21  CB  LEU C 508      15.615  20.061   3.266  1.00 32.28 LIG 0.04  C 
BRANCH 21 22
ATOM     22  CG  LEU C 508      14.546  18.995   3.047  1.00 33.09 LIG-0.02  C 
ATOM     23  CD1 LEU C 508      15.062  17.918   2.141  1.00 32.61 LIG 0.01  C 
ATOM     24  CD2 LEU C 508      14.076  18.457   4.390  1.00 34.13 LIG 0.01  C 
ENDBRANCH 21 22
ENDBRANCH 20 21
BRANCH 20 25
ATOM     25  C   LEU C 508      17.825  19.177   4.005  1.00 33.63 LIG 0.20  C 
ATOM     26 O    LEU C 508      17.898  18.620   2.889  0.50 32.81 LIG-0.65  OA
ATOM     27 OXT  LEU C 508      18.801  19.344   4.765  0.50 35.17 LIG-0.65  OA
ENDBRANCH 20 25
ENDBRANCH 18 20
ENDBRANCH 1 16
BRANCH 1 28
ATOM     28  CB  ASP C 507      15.457  22.024   8.686  1.00 31.02 LIG 0.15  C 
BRANCH 28 29
ATOM     29  CG  ASP C 507      16.076  20.825   9.374  1.00 34.22 LIG 0.17  C 
ATOM     30 OD2  ASP C 507      15.351  20.066  10.057  1.00 32.29 LIG-0.65  OA
ATOM     31 OD1  ASP C 507      17.306  20.668   9.264  1.00 33.73 LIG-0.65  OA
ENDBRANCH 28 29
ENDBRANCH 1 28
TORSDOF 13
ENDMDL
MODEL 4
USER: ADFR SOLUTION from run 28
USER: SCORE 12.925464 LL:  -1.754 LR: -12.253 RR:   0.000 FEB:  -8.375
USER: RMSD 10.133688
USER: SEED 27
USER: STATUS no improvement in best 13 clusters for 5 generations
USER: GENES 15
USER: genes 0 Translation |==|  0.74835 0.32247 0.51010
USER: genes 1 Rotation |==|  0.10095 0.79913 0.49608 0.53555
USER: genes 2 Torsion [CB]-CA--N-[C] |==|  0.14571
USER: genes 3 Torsion [N]-C--CA-[N] |==|  0.33768
USER: genes 4 Torsion [C]-CA--CB-[CG] |==|  0.84981
USER: genes 5 Torsion [CA]-CB--CG-[CD] |==|  0.28952
USER: genes 6 Torsion [CB]-CG--CD-[OE1] |==|  0.12843
USER: genes 7 Torsion [C]-CA--N-[H3] |==|  0.80561
USER: genes 8 Torsion [N]-CA--C-[N] |==|  0.25856
USER: genes 9 Torsion [C]-N--CA-[CB] |==|  0.84717
USER: genes 10 Torsion [N]-CA--CB-[CG] |==|  0.84028
USER: genes 11 Torsion [CA]-CB--CG-[CD1] |==|  0.34306
USER: genes 12 Torsion [N]-CA--C-[O] |==|  0.99603
USER: genes 13 Torsion [N]-CA--CB-[CG] |==|  0.48434
USER: genes 14 Torsion [CA]-CB--CG-[OD2] |==|  0.19153
ROOT
ATOM      1  CA  ASP C 507      15.901  20.044   4.693  1.00 33.68 LIG 0.19  C 
ENDROOT
BRANCH 1 2
ATOM      2  N   ASP C 507      15.675  21.386   5.213  1.00 35.05 LIG-0.34  N 
ATOM      3  C   GLU C 506      14.673  22.149   4.792  1.00 36.98 LIG 0.25  C 
ATOM      4 O    GLU C 506      13.889  21.803   3.902  1.00 35.33 LIG-0.27  OA
ATOM      5 H    ASP C 507      16.243  21.632   5.810  1.00 35.05 LIG 0.16  HD
BRANCH 3 6
ATOM      6  CA  GLU C 506      14.576  23.533   5.433  1.00 38.62 LIG 0.28  C 
BRANCH 6 7
ATOM      7  CB  GLU C 506      13.286  23.669   6.246  1.00 41.41 LIG 0.05  C 
BRANCH 7 8
ATOM      8  CG  GLU C 506      12.028  23.346   5.464  1.00 54.63 LIG 0.12  C 
BRANCH 8 9
ATOM      9  CD  GLU C 506      11.444  21.990   5.809  1.00 71.07 LIG 0.17  C 
ATOM     10 OE1  GLU C 506      11.334  21.672   7.016  1.00 74.77 LIG-0.65  OA
ATOM     11 OE2  GLU C 506      11.083  21.249   4.867  1.00 73.38 LIG-0.65  OA
ENDBRANCH 8 9
ENDBRANCH 7 8
ENDBRANCH 6 7
BRANCH 6 12
ATOM     12  N   GLU C 506      14.651  24.592   4.390  1.00 38.98 LIG-0.07  N 
ATOM     13 H3   GLU C 506      15.475  24.622   4.056  1.00 38.98 LIG 0.28  HD
ATOM     14 H2   GLU C 506      14.450  25.380   4.752  1.00 38.98 LIG 0.28  HD
ATOM     15 H1   GLU C 506      14.073  24.408   3.739  1.00 38.98 LIG 0.28  HD
ENDBRANCH 6 12
ENDBRANCH 3 6
ENDBRANCH 1 2
BRANCH 1 16
ATOM     16  C   ASP C 507      17.191  19.501   5.281  1.00 33.47 LIG 0.24  C 
ATOM     17 O    ASP C 507      18.280  19.765   4.767  1.00 34.83 LIG-0.27  OA
ATOM     18  N   LEU C 508      17.056  18.781   6.391  1.00 31.65 LIG-0.34  N 
ATOM     19 H    LEU C 508      16.297  18.604   6.756  1.00 31.65 LIG 0.16  HD
BRANCH 18 20
ATOM     20  CA  LEU C 508      18.199  18.220   7.096  1.00 32.20 LIG 0.18  C 
BRANCH 20 21
ATOM     21  CB  LEU C 508      19.016  17.374   6.129  1.00 32.28 LIG 0.04  C 
BRANCH 21 22
ATOM     22  CG  LEU C 508      18.128  16.284   5.538  1.00 33.09 LIG-0.02  C 
ATOM     23  CD1 LEU C 508      18.129  16.367   4.041  1.00 32.61 LIG 0.01  C 
ATOM     24  CD2 LEU C 508      18.576  14.923   6.050  1.00 34.13 LIG 0.01  C 
ENDBRANCH 21 22
ENDBRANCH 20 21
BRANCH 20 25
ATOM     25  C   LEU C 508      19.079  19.276   7.738  1.00 33.63 LIG 0.20  C 
ATOM     26 O    LEU C 508      18.767  20.476   7.584  0.50 32.81 LIG-0.65  OA
ATOM     27 OXT  LEU C 508      20.074  18.894   8.389  0.50 35.17 LIG-0.65  OA
ENDBRANCH 20 25
ENDBRANCH 18 20
ENDBRANCH 1 16
BRANCH 1 28
ATOM     28  CB  ASP C 507      15.956  20.084   3.168  1.00 31.02 LIG 0.15  C 
BRANCH 28 29
ATOM     29  CG  ASP C 507      16.325  18.739   2.578  1.00 34.22 LIG 0.17  C 
ATOM     30 OD2  ASP C 507      15.512  17.790   2.657  1.00 32.29 LIG-0.65  OA
ATOM     31 OD1  ASP C 507      17.455  18.622   2.070  1.00 33.73 LIG-0.65  OA
ENDBRANCH 28 29
ENDBRANCH 1 28
TORSDOF 13
ENDMDL
MODEL 5
USER: ADFR SOLUTION from run 32
USER: SCORE 13.766413 LL:  -2.187 LR: -12.228 RR:   0.000 FEB:  -8.350
USER: RMSD 7.094265
USER: SEED 31
USER: STATUS no improvement in best 7 clusters for 5 generations
USER: GENES 15
USER: genes 0 Translation |==|  0.55509 0.44009 0.46248
USER: genes 1 Rotation |==|  0.41702 0.12059 0.80819 0.56468
USER: genes 2 Torsion [CB]-CA--N-[C] |==|  0.52786
USER: genes 3 Torsion [N]-C--CA-[N] |==|  0.45442
USER: genes 4 Torsion [C]-CA--CB-[CG] |==|  0.96688
USER: genes 5 Torsion [CA]-CB--CG-[CD] |==|  0.26959
USER: genes 6 Torsion [CB]-CG--CD-[OE1] |==|  0.97479
USER: genes 7 Torsion [C]-CA--N-[H3] |==|  0.30298
USER: genes 8 Torsion [N]-CA--C-[N] |==|  0.28890
USER: genes 9 Torsion [C]-N--CA-[CB] |==|  0.18520
USER: genes 10 Torsion [N]-CA--CB-[CG] |==|  0.57121
USER: genes 11 Torsion [CA]-CB--CG-[CD1] |==|  0.25028
USER: genes 12 Torsion [N]-CA--C-[O] |==|  0.00064
USER: genes 13 Torsion [N]-CA--CB-[CG] |==|  0.63807
USER: genes 14 Torsion [CA]-CB--CG-[OD2] |==|  0.85973
ROOT
ATOM      1  CA  ASP C 507      10.103  23.573   3.264  1.00 33.68 LIG 0.19  C 
ENDROOT
BRANCH 1 2
ATOM      2  N   ASP C 507      11.504  23.317   3.569  1.00 35.05 LIG-0.34  N 
ATOM      3  C   GLU C 506      12.278  24.223   4.156  1.00 36.98 LIG 0.25  C 
ATOM      4 O    GLU C 506      11.886  25.359   4.445  1.00 35.33 LIG-0.27  OA
ATOM      5 H    ASP C 507      11.778  22.536   3.336  1.00 35.05 LIG 0.16  HD
BRANCH 3 6
ATOM      6  CA  GLU C 506      13.726  23.802   4.403  1.00 38.62 LIG 0.28  C 
BRANCH 6 7
ATOM      7  CB  GLU C 506      13.814  22.796   5.553  1.00 41.41 LIG 0.05  C 
BRANCH 7 8
ATOM      8  CG  GLU C 506      12.535  22.665   6.356  1.00 54.63 LIG 0.12  C 
BRANCH 8 9
ATOM      9  CD  GLU C 506      11.679  21.490   5.924  1.00 71.07 LIG 0.17  C 
ATOM     10 OE1  GLU C 506      11.991  20.870   4.882  1.00 74.77 LIG-0.65  OA
ATOM     11 OE2  GLU C 506      10.700  21.182   6.641  1.00 73.38 LIG-0.65  OA
ENDBRANCH 8 9
ENDBRANCH 7 8
ENDBRANCH 6 7
BRANCH 6 12
ATOM     12  N   GLU C 506      14.569  24.995   4.685  1.00 38.98 LIG-0.07  N 
ATOM     13 H3   GLU C 506      14.804  24.997   5.544  1.00 38.98 LIG 0.28  HD
ATOM     14 H2   GLU C 506      14.109  25.734   4.503  1.00 38.98 LIG 0.28  HD
ATOM     15 H1   GLU C 506      15.300  24.968   4.179  1.00 38.98 LIG 0.28  HD
ENDBRANCH 6 12
ENDBRANCH 3 6
ENDBRANCH 1 2
BRANCH 1 16
ATOM     16  C   ASP C 507       9.434  24.164   4.492  1.00 33.47 LIG 0.24  C 
ATOM     17 O    ASP C 507       9.173  23.459   5.470  1.00 34.83 LIG-0.27  OA
ATOM     18  N   LEU C 508       9.204  25.473   4.446  1.00 31.65 LIG-0.34  N 
ATOM     19 H    LEU C 508       9.394  25.967   3.767  1.00 31.65 LIG 0.16  HD
BRANCH 18 20
ATOM     20  CA  LEU C 508       8.602  26.195   5.556  1.00 32.20 LIG 0.18  C 
BRANCH 20 21
ATOM     21  CB  LEU C 508       9.561  26.186   6.738  1.00 32.28 LIG 0.04  C 
BRANCH 21 22
ATOM     22  CG  LEU C 508       8.770  26.338   8.033  1.00 33.09 LIG-0.02  C 
ATOM     23  CD1 LEU C 508       8.380  24.993   8.565  1.00 32.61 LIG 0.01  C 
ATOM     24  CD2 LEU C 508       9.576  27.154   9.033  1.00 34.13 LIG 0.01  C 
ENDBRANCH 21 22
ENDBRANCH 20 21
BRANCH 20 25
ATOM     25  C   LEU C 508       8.219  27.620   5.203  1.00 33.63 LIG 0.20  C 
ATOM     26 O    LEU C 508       8.445  28.019   4.041  0.50 32.81 LIG-0.65  OA
ATOM     27 OXT  LEU C 508       7.699  28.325   6.092  0.50 35.17 LIG-0.65  OA
ENDBRANCH 20 25
ENDBRANCH 18 20
ENDBRANCH 1 16
BRANCH 1 28
ATOM     28  CB  ASP C 507       9.425  22.276   2.828  1.00 31.02 LIG 0.15  C 
BRANCH 28 29
ATOM     29  CG  ASP C 507       8.649  22.448   1.539  1.00 34.22 LIG 0.17  C 
ATOM     30 OD2  ASP C 507       7.837  23.395   1.432  1.00 32.29 LIG-0.65  OA
ATOM     31 OD1  ASP C 507       8.823  21.600   0.644  1.00 33.73 LIG-0.65  OA
ENDBRANCH 28 29
ENDBRANCH 1 28
TORSDOF 13
ENDMDL
MODEL 6
USER: ADFR SOLUTION from run 106
USER: SCORE 13.421447 LL:  -1.517 LR: -12.149 RR:   0.000 FEB:  -8.272
USER: RMSD 10.364306
USER: SEED 105
USER: STATUS no improvement in best 10 clusters for 5 generations
USER: GENES 15
USER: genes 0 Translation |==|  0.75975 0.32950 0.52319
USER: genes 1 Rotation |==|  0.07697 0.76555 0.48045 0.51212
USER: genes 2 Torsion [CB]-CA--N-[C] |==|  0.14752
USER: genes 3 Torsion [N]-C--CA-[N] |==|  0.27693
USER: genes 4 Torsion [C]-CA--CB-[CG] |==|  0.13773
USER: genes 5 Torsion [CA]-CB--CG-[CD] |==|  0.69799
USER: genes 6 Torsion [CB]-CG--CD-[OE1] |==|  0.90427
USER: genes 7 Torsion [C]-CA--N-[H3] |==|  0.20019
USER: genes 8 Torsion [N]-CA--C-[N] |==|  0.16110
USER: genes 9 Torsion [C]-N--CA-[CB] |==|  0.35908
USER: genes 10 Torsion [N]-CA--CB-[CG] |==|  0.65418
USER: genes 11 Torsion [CA]-CB--CG-[CD1] |==|  0.18514
USER: genes 12 Torsion [N]-CA--C-[O] |==|  0.48107
USER: genes 13 Torsion [N]-CA--CB-[CG] |==|  0.50176
USER: genes 14 Torsion [CA]-CB--CG-[OD2] |==|  0.67636
ROOT
ATOM      1  CA  ASP C 507      16.243  20.255   5.086  1.00 33.68 LIG 0.19  C 
ENDROOT
BRANCH 1 2
ATOM      2  N   ASP C 507      15.800  21.596   5.443  1.00 35.05 LIG-0.34  N 
ATOM      3  C   GLU C 506      14.690  22.130   4.950  1.00 36.98 LIG 0.25  C 
ATOM      4 O    GLU C 506      13.974  21.555   4.123  1.00 35.33 LIG-0.27  OA
ATOM      5 H    ASP C 507      16.320  22.002   5.995  1.00 35.05 LIG 0.16  HD
BRANCH 3 6
ATOM      6  CA  GLU C 506      14.367  23.548   5.420  1.00 38.62 LIG 0.28  C 
BRANCH 6 7
ATOM      7  CB  GLU C 506      12.877  23.691   5.740  1.00 41.41 LIG 0.05  C 
BRANCH 7 8
ATOM      8  CG  GLU C 506      12.333  22.602   6.643  1.00 54.63 LIG 0.12  C 
BRANCH 8 9
ATOM      9  CD  GLU C 506      11.416  21.634   5.920  1.00 71.07 LIG 0.17  C 
ATOM     10 OE1  GLU C 506      10.684  22.071   5.002  1.00 74.77 LIG-0.65  OA
ATOM     11 OE2  GLU C 506      11.442  20.431   6.265  1.00 73.38 LIG-0.65  OA
ENDBRANCH 8 9
ENDBRANCH 7 8
ENDBRANCH 6 7
BRANCH 6 12
ATOM     12  N   GLU C 506      14.779  24.540   4.390  1.00 38.98 LIG-0.07  N 
ATOM     13 H3   GLU C 506      14.225  24.494   3.695  1.00 38.98 LIG 0.28  HD
ATOM     14 H2   GLU C 506      15.607  24.361   4.120  1.00 38.98 LIG 0.28  HD
ATOM     15 H1   GLU C 506      14.750  25.358   4.738  1.00 38.98 LIG 0.28  HD
ENDBRANCH 6 12
ENDBRANCH 3 6
ENDBRANCH 1 2
BRANCH 1 16
ATOM     16  C   ASP C 507      17.595  19.998   5.726  1.00 33.47 LIG 0.24  C 
ATOM     17 O    ASP C 507      18.584  19.747   5.033  1.00 34.83 LIG-0.27  OA
ATOM     18  N   LEU C 508      17.633  20.110   7.051  1.00 31.65 LIG-0.34  N 
ATOM     19 H    LEU C 508      16.945  20.294   7.534  1.00 31.65 LIG 0.16  HD
BRANCH 18 20
ATOM     20  CA  LEU C 508      18.861  19.928   7.810  1.00 32.20 LIG 0.18  C 
BRANCH 20 21
ATOM     21  CB  LEU C 508      19.052  21.115   8.744  1.00 32.28 LIG 0.04  C 
BRANCH 21 22
ATOM     22  CG  LEU C 508      20.414  21.748   8.485  1.00 33.09 LIG-0.02  C 
ATOM     23  CD1 LEU C 508      20.450  22.365   7.119  1.00 32.61 LIG 0.01  C 
ATOM     24  CD2 LEU C 508      20.734  22.747   9.588  1.00 34.13 LIG 0.01  C 
ENDBRANCH 21 22
ENDBRANCH 20 21
BRANCH 20 25
ATOM     25  C   LEU C 508      18.888  18.632   8.598  1.00 33.63 LIG 0.20  C 
ATOM     26 O    LEU C 508      19.949  18.319   9.179  0.50 32.81 LIG-0.65  OA
ATOM     27 OXT  LEU C 508      17.849  17.941   8.625  0.50 35.17 LIG-0.65  OA
ENDBRANCH 20 25
ENDBRANCH 18 20
ENDBRANCH 1 16
BRANCH 1 28
ATOM     28  CB  ASP C 507      16.309  20.121   3.567  1.00 31.02 LIG 0.15  C 
BRANCH 28 29
ATOM     29  CG  ASP C 507      16.750  18.737   3.138  1.00 34.22 LIG 0.17  C 
ATOM     30 OD2  ASP C 507      17.826  18.601   2.512  1.00 32.29 LIG-0.65  OA
ATOM     31 OD1  ASP C 507      15.990  17.784   3.393  1.00 33.73 LIG-0.65  OA
ENDBRANCH 28 29
ENDBRANCH 1 28
TORSDOF 13
ENDMDL
MODEL 7
USER: ADFR SOLUTION from run 71
USER: SCORE 12.958711 LL:  -1.709 LR: -12.133 RR:   0.000 FEB:  -8.255
USER: RMSD 9.329812
USER: SEED 70
USER: STATUS no improvement in best 14 clusters for 5 generations
USER: GENES 15
USER: genes 0 Translation |==|  0.77513 0.35339 0.57095
USER: genes 1 Rotation |==|  0.64257 0.40327 0.39482 0.95745
USER: genes 2 Torsion [CB]-CA--N-[C] |==|  0.21111
USER: genes 3 Torsion [N]-C--CA-[N] |==|  0.70315
USER: genes 4 Torsion [C]-CA--CB-[CG] |==|  0.15940
USER: genes 5 Torsion [CA]-CB--CG-[CD] |==|  0.25469
USER: genes 6 Torsion [CB]-CG--CD-[OE1] |==|  0.65196
USER: genes 7 Torsion [C]-CA--N-[H3] |==|  0.73563
USER: genes 8 Torsion [N]-CA--C-[N] |==|  0.78367
USER: genes 9 Torsion [C]-N--CA-[CB] |==|  0.88345
USER: genes 10 Torsion [N]-CA--CB-[CG] |==|  0.72402
USER: genes 11 Torsion [CA]-CB--CG-[CD1] |==|  0.78445
USER: genes 12 Torsion [N]-CA--C-[O] |==|  0.71105
USER: genes 13 Torsion [N]-CA--CB-[CG] |==|  0.61453
USER: genes 14 Torsion [CA]-CB--CG-[OD2] |==|  0.48884
ROOT
ATOM      1  CA  ASP C 507      16.704  20.972   6.519  1.00 33.68 LIG 0.19  C 
ENDROOT
BRANCH 1 2
ATOM      2  N   ASP C 507      15.674  21.671   5.761  1.00 35.05 LIG-0.34  N 
ATOM      3  C   GLU C 506      15.201  22.853   6.134  1.00 36.98 LIG 0.25  C 
ATOM      4 O    GLU C 506      15.560  23.428   7.168  1.00 35.33 LIG-0.27  OA
ATOM      5 H    ASP C 507      15.407  21.250   5.061  1.00 35.05 LIG 0.16  HD
BRANCH 3 6
ATOM      6  CA  GLU C 506      14.120  23.452   5.236  1.00 38.62 LIG 0.28  C 
BRANCH 6 7
ATOM      7  CB  GLU C 506      13.529  22.387   4.309  1.00 41.41 LIG 0.05  C 
BRANCH 7 8
ATOM      8  CG  GLU C 506      12.939  21.195   5.036  1.00 54.63 LIG 0.12  C 
BRANCH 8 9
ATOM      9  CD  GLU C 506      11.461  21.353   5.335  1.00 71.07 LIG 0.17  C 
ATOM     10 OE1  GLU C 506      11.069  21.227   6.518  1.00 74.77 LIG-0.65  OA
ATOM     11 OE2  GLU C 506      10.694  21.620   4.382  1.00 73.38 LIG-0.65  OA
ENDBRANCH 8 9
ENDBRANCH 7 8
ENDBRANCH 6 7
BRANCH 6 12
ATOM     12  N   GLU C 506      14.674  24.585   4.446  1.00 38.98 LIG-0.07  N 
ATOM     13 H3   GLU C 506      14.503  25.351   4.865  1.00 38.98 LIG 0.28  HD
ATOM     14 H2   GLU C 506      14.296  24.598   3.640  1.00 38.98 LIG 0.28  HD
ATOM     15 H1   GLU C 506      15.553  24.484   4.359  1.00 38.98 LIG 0.28  HD
ENDBRANCH 6 12
ENDBRANCH 3 6
ENDBRANCH 1 2
BRANCH 1 16
ATOM     16  C   ASP C 507      17.336  19.916   5.629  1.00 33.47 LIG 0.24  C 
ATOM     17 O    ASP C 507      18.454  20.089   5.140  1.00 34.83 LIG-0.27  OA
ATOM     18  N   LEU C 508      16.625  18.804   5.466  1.00 31.65 LIG-0.34  N 
ATOM     19 H    LEU C 508      15.848  18.679   5.815  1.00 31.65 LIG 0.16  HD
BRANCH 18 20
ATOM     20  CA  LEU C 508      17.107  17.684   4.671  1.00 32.20 LIG 0.18  C 
BRANCH 20 21
ATOM     21  CB  LEU C 508      17.760  18.216   3.403  1.00 32.28 LIG 0.04  C 
BRANCH 21 22
ATOM     22  CG  LEU C 508      16.774  18.110   2.245  1.00 33.09 LIG-0.02  C 
ATOM     23  CD1 LEU C 508      16.701  16.697   1.750  1.00 32.61 LIG 0.01  C 
ATOM     24  CD2 LEU C 508      15.418  18.651   2.675  1.00 34.13 LIG 0.01  C 
ENDBRANCH 21 22
ENDBRANCH 20 21
BRANCH 20 25
ATOM     25  C   LEU C 508      18.078  16.793   5.425  1.00 33.63 LIG 0.20  C 
ATOM     26 O    LEU C 508      19.295  16.889   5.156  0.50 32.81 LIG-0.65  OA
ATOM     27 OXT  LEU C 508      17.613  16.007   6.275  0.50 35.17 LIG-0.65  OA
ENDBRANCH 20 25
ENDBRANCH 18 20
ENDBRANCH 1 16
BRANCH 1 28
ATOM     28  CB  ASP C 507      16.092  20.352   7.772  1.00 31.02 LIG 0.15  C 
BRANCH 28 29
ATOM     29  CG  ASP C 507      16.990  20.514   8.982  1.00 34.22 LIG 0.17  C 
ATOM     30 OD2  ASP C 507      16.589  20.122  10.101  1.00 32.29 LIG-0.65  OA
ATOM     31 OD1  ASP C 507      18.088  21.076   8.814  1.00 33.73 LIG-0.65  OA
ENDBRANCH 28 29
ENDBRANCH 1 28
TORSDOF 13
ENDMDL
MODEL 8
USER: ADFR SOLUTION from run 12
USER: SCORE 12.904109 LL:  -1.794 LR: -12.124 RR:   0.000 FEB:  -8.246
USER: RMSD 6.293272
USER: SEED 69962
USER: STATUS no improvement in best 7 clusters for 5 generations
USER: GENES 15
USER: genes 0 Translation |==|  0.53250 0.51984 0.56046
USER: genes 1 Rotation |==|  0.37390 0.32132 0.05039 0.50437
USER: genes 2 Torsion [CB]-CA--N-[C] |==|  0.15740
USER: genes 3 Torsion [N]-C--CA-[N] |==|  0.35418
USER: genes 4 Torsion [C]-CA--CB-[CG] |==|  0.90232
USER: genes 5 Torsion [CA]-CB--CG-[CD] |==|  0.30743
USER: genes 6 Torsion [CB]-CG--CD-[OE1] |==|  0.02113
USER: genes 7 Torsion [C]-CA--N-[H3] |==|  0.10960
USER: genes 8 Torsion [N]-CA--C-[N] |==|  0.24996
USER: genes 9 Torsion [C]-N--CA-[CB] |==|  0.84564
USER: genes 10 Torsion [N]-CA--CB-[CG] |==|  0.83942
USER: genes 11 Torsion [CA]-CB--CG-[CD1] |==|  0.35776
USER: genes 12 Torsion [N]-CA--C-[O] |==|  0.99347
USER: genes 13 Torsion [N]-CA--CB-[CG] |==|  0.46208
USER: genes 14 Torsion [CA]-CB--CG-[OD2] |==|  0.68666
ROOT
ATOM      1  CA  ASP C 507       9.425  25.965   6.204  1.00 33.68 LIG 0.19  C 
ENDROOT
BRANCH 1 2
ATOM      2  N   ASP C 507      10.414  25.641   5.184  1.00 35.05 LIG-0.34  N 
ATOM      3  C   GLU C 506      11.574  25.068   5.479  1.00 36.98 LIG 0.25  C 
ATOM      4 O    GLU C 506      11.923  24.808   6.636  1.00 35.33 LIG-0.27  OA
ATOM      5 H    ASP C 507      10.177  25.854   4.385  1.00 35.05 LIG 0.16  HD
BRANCH 3 6
ATOM      6  CA  GLU C 506      12.503  24.798   4.297  1.00 38.62 LIG 0.28  C 
BRANCH 6 7
ATOM      7  CB  GLU C 506      12.601  23.297   4.012  1.00 41.41 LIG 0.05  C 
BRANCH 7 8
ATOM      8  CG  GLU C 506      12.550  22.429   5.253  1.00 54.63 LIG 0.12  C 
BRANCH 8 9
ATOM      9  CD  GLU C 506      11.273  21.620   5.361  1.00 71.07 LIG 0.17  C 
ATOM     10 OE1  GLU C 506      10.477  21.620   4.393  1.00 74.77 LIG-0.65  OA
ATOM     11 OE2  GLU C 506      11.075  20.970   6.413  1.00 73.38 LIG-0.65  OA
ENDBRANCH 8 9
ENDBRANCH 7 8
ENDBRANCH 6 7
BRANCH 6 12
ATOM     12  N   GLU C 506      13.852  25.370   4.558  1.00 38.98 LIG-0.07  N 
ATOM     13 H3   GLU C 506      14.070  25.240   5.411  1.00 38.98 LIG 0.28  HD
ATOM     14 H2   GLU C 506      13.842  26.243   4.386  1.00 38.98 LIG 0.28  HD
ATOM     15 H1   GLU C 506      14.450  24.970   4.035  1.00 38.98 LIG 0.28  HD
ENDBRANCH 6 12
ENDBRANCH 3 6
ENDBRANCH 1 2
BRANCH 1 16
ATOM     16  C   ASP C 507       8.234  26.631   5.538  1.00 33.47 LIG 0.24  C 
ATOM     17 O    ASP C 507       8.210  27.851   5.361  1.00 34.83 LIG-0.27  OA
ATOM     18  N   LEU C 508       7.271  25.809   5.131  1.00 31.65 LIG-0.34  N 
ATOM     19 H    LEU C 508       7.292  24.956   5.246  1.00 31.65 LIG 0.16  HD
BRANCH 18 20
ATOM     20  CA  LEU C 508       6.081  26.288   4.444  1.00 32.20 LIG 0.18  C 
BRANCH 20 21
ATOM     21  CB  LEU C 508       5.398  27.342   5.304  1.00 32.28 LIG 0.04  C 
BRANCH 21 22
ATOM     22  CG  LEU C 508       5.055  26.741   6.663  1.00 33.09 LIG-0.02  C 
ATOM     23  CD1 LEU C 508       5.563  27.620   7.765  1.00 32.61 LIG 0.01  C 
ATOM     24  CD2 LEU C 508       3.555  26.497   6.752  1.00 34.13 LIG 0.01  C 
ENDBRANCH 21 22
ENDBRANCH 20 21
BRANCH 20 25
ATOM     25  C   LEU C 508       6.374  26.848   3.064  1.00 33.63 LIG 0.20  C 
ATOM     26 O    LEU C 508       7.564  26.885   2.685  0.50 32.81 LIG-0.65  OA
ATOM     27 OXT  LEU C 508       5.411  27.245   2.377  0.50 35.17 LIG-0.65  OA
ENDBRANCH 20 25
ENDBRANCH 18 20
ENDBRANCH 1 16
BRANCH 1 28
ATOM     28  CB  ASP C 507      10.052  26.870   7.261  1.00 31.02 LIG 0.15  C 
BRANCH 28 29
ATOM     29  CG  ASP C 507       9.007  27.506   8.156  1.00 34.22 LIG 0.17  C 
ATOM     30 OD2  ASP C 507       8.824  28.743   8.104  1.00 32.29 LIG-0.65  OA
ATOM     31 OD1  ASP C 507       8.398  26.763   8.948  1.00 33.73 LIG-0.65  OA
ENDBRANCH 28 29
ENDBRANCH 1 28
TORSDOF 13
ENDMDL
MODEL 9
USER: ADFR SOLUTION from run 57
USER: SCORE 12.442151 LL:  -1.634 LR: -12.018 RR:   0.000 FEB:  -8.140
USER: RMSD 7.128032
USER: SEED 56
USER: STATUS no improvement in best 8 clusters for 5 generations
USER: GENES 15
USER: genes 0 Translation |==|  0.52055 0.50466 0.49590
USER: genes 1 Rotation |==|  0.36720 0.15200 0.82623 0.56950
USER: genes 2 Torsion [CB]-CA--N-[C] |==|  0.23373
USER: genes 3 Torsion [N]-C--CA-[N] |==|  0.70233
USER: genes 4 Torsion [C]-CA--CB-[CG] |==|  0.30841
USER: genes 5 Torsion [CA]-CB--CG-[CD] |==|  0.77650
USER: genes 6 Torsion [CB]-CG--CD-[OE1] |==|  0.69714
USER: genes 7 Torsion [C]-CA--N-[H3] |==|  0.75125
USER: genes 8 Torsion [N]-CA--C-[N] |==|  0.76667
USER: genes 9 Torsion [C]-N--CA-[CB] |==|  0.89029
USER: genes 10 Torsion [N]-CA--CB-[CG] |==|  0.71565
USER: genes 11 Torsion [CA]-CB--CG-[CD1] |==|  0.09295
USER: genes 12 Torsion [N]-CA--C-[O] |==|  0.75583
USER: genes 13 Torsion [N]-CA--CB-[CG] |==|  0.70702
USER: genes 14 Torsion [CA]-CB--CG-[OD2] |==|  0.36945
ROOT
ATOM      1  CA  ASP C 507       9.066  25.510   4.267  1.00 33.68 LIG 0.19  C 
ENDROOT
BRANCH 1 2
ATOM      2  N   ASP C 507      10.376  25.076   4.735  1.00 35.05 LIG-0.34  N 
ATOM      3  C   GLU C 506      11.355  24.750   3.899  1.00 36.98 LIG 0.25  C 
ATOM      4 O    GLU C 506      11.219  24.745   2.671  1.00 35.33 LIG-0.27  OA
ATOM      5 H    ASP C 507      10.453  25.052   5.591  1.00 35.05 LIG 0.16  HD
BRANCH 3 6
ATOM      6  CA  GLU C 506      12.666  24.311   4.548  1.00 38.62 LIG 0.28  C 
BRANCH 6 7
ATOM      7  CB  GLU C 506      12.458  23.971   6.025  1.00 41.41 LIG 0.05  C 
BRANCH 7 8
ATOM      8  CG  GLU C 506      12.603  22.496   6.345  1.00 54.63 LIG 0.12  C 
BRANCH 8 9
ATOM      9  CD  GLU C 506      11.361  21.691   6.015  1.00 71.07 LIG 0.17  C 
ATOM     10 OE1  GLU C 506      10.666  21.245   6.957  1.00 74.77 LIG-0.65  OA
ATOM     11 OE2  GLU C 506      11.075  21.519   4.809  1.00 73.38 LIG-0.65  OA
ENDBRANCH 8 9
ENDBRANCH 7 8
ENDBRANCH 6 7
BRANCH 6 12
ATOM     12  N   GLU C 506      13.698  25.372   4.396  1.00 38.98 LIG-0.07  N 
ATOM     13 H3   GLU C 506      14.145  25.246   3.637  1.00 38.98 LIG 0.28  HD
ATOM     14 H2   GLU C 506      14.265  25.336   5.081  1.00 38.98 LIG 0.28  HD
ATOM     15 H1   GLU C 506      13.304  26.170   4.379  1.00 38.98 LIG 0.28  HD
ENDBRANCH 6 12
ENDBRANCH 3 6
ENDBRANCH 1 2
BRANCH 1 16
ATOM     16  C   ASP C 507       8.435  26.394   5.328  1.00 33.47 LIG 0.24  C 
ATOM     17 O    ASP C 507       8.486  27.623   5.238  1.00 34.83 LIG-0.27  OA
ATOM     18  N   LEU C 508       7.800  25.752   6.304  1.00 31.65 LIG-0.34  N 
ATOM     19 H    LEU C 508       7.756  24.895   6.362  1.00 31.65 LIG 0.16  HD
BRANCH 18 20
ATOM     20  CA  LEU C 508       7.113  26.457   7.376  1.00 32.20 LIG 0.18  C 
BRANCH 20 21
ATOM     21  CB  LEU C 508       7.942  27.664   7.793  1.00 32.28 LIG 0.04  C 
BRANCH 21 22
ATOM     22  CG  LEU C 508       8.677  27.349   9.091  1.00 33.09 LIG-0.02  C 
ATOM     23  CD1 LEU C 508       9.051  25.898   9.139  1.00 32.61 LIG 0.01  C 
ATOM     24  CD2 LEU C 508       9.880  28.269   9.236  1.00 34.13 LIG 0.01  C 
ENDBRANCH 21 22
ENDBRANCH 20 21
BRANCH 20 25
ATOM     25  C   LEU C 508       5.709  26.892   7.000  1.00 33.63 LIG 0.20  C 
ATOM     26 O    LEU C 508       5.566  28.001   6.442  0.50 32.81 LIG-0.65  OA
ATOM     27 OXT  LEU C 508       4.765  26.120   7.267  0.50 35.17 LIG-0.65  OA
ENDBRANCH 20 25
ENDBRANCH 18 20
ENDBRANCH 1 16
BRANCH 1 28
ATOM     28  CB  ASP C 507       8.197  24.292   3.965  1.00 31.02 LIG 0.15  C 
BRANCH 28 29
ATOM     29  CG  ASP C 507       8.046  24.058   2.476  1.00 34.22 LIG 0.17  C 
ATOM     30 OD2  ASP C 507       8.207  22.905   2.016  1.00 32.29 LIG-0.65  OA
ATOM     31 OD1  ASP C 507       7.808  25.047   1.758  1.00 33.73 LIG-0.65  OA
ENDBRANCH 28 29
ENDBRANCH 1 28
TORSDOF 13
ENDMDL
MODEL 10
USER: ADFR SOLUTION from run 68
USER: SCORE 13.431355 LL:  -1.494 LR: -11.962 RR:   0.000 FEB:  -8.084
USER: RMSD 8.871145
USER: SEED 67
USER: STATUS no improvement in best 16 clusters for 5 generations
USER: GENES 15
USER: genes 0 Translation |==|  0.72706 0.42083 0.64001
USER: genes 1 Rotation |==|  0.71717 0.29025 0.45263 0.89573
USER: genes 2 Torsion [CB]-CA--N-[C] |==|  0.85000
USER: genes 3 Torsion [N]-C--CA-[N] |==|  0.23739
USER: genes 4 Torsion [C]-CA--CB-[CG] |==|  0.14671
USER: genes 5 Torsion [CA]-CB--CG-[CD] |==|  0.68454
USER: genes 6 Torsion [CB]-CG--CD-[OE1] |==|  0.39544
USER: genes 7 Torsion [C]-CA--N-[H3] |==|  0.98767
USER: genes 8 Torsion [N]-CA--C-[N] |==|  0.38284
USER: genes 9 Torsion [C]-N--CA-[CB] |==|  0.28291
USER: genes 10 Torsion [N]-CA--CB-[CG] |==|  0.62032
USER: genes 11 Torsion [CA]-CB--CG-[CD1] |==|  0.06124
USER: genes 12 Torsion [N]-CA--C-[O] |==|  0.57096
USER: genes 13 Torsion [N]-CA--CB-[CG] |==|  0.56294
USER: genes 14 Torsion [CA]-CB--CG-[OD2] |==|  0.19784
ROOT
ATOM      1  CA  ASP C 507      15.262  22.995   8.590  1.00 33.68 LIG 0.19  C 
ENDROOT
BRANCH 1 2
ATOM      2  N   ASP C 507      14.732  23.818   7.511  1.00 35.05 LIG-0.34  N 
ATOM      3  C   GLU C 506      14.100  23.296   6.467  1.00 36.98 LIG 0.25  C 
ATOM      4 O    GLU C 506      13.953  22.080   6.307  1.00 35.33 LIG-0.27  OA
ATOM      5 H    ASP C 507      14.866  24.661   7.615  1.00 35.05 LIG 0.16  HD
BRANCH 3 6
ATOM      6  CA  GLU C 506      13.608  24.293   5.419  1.00 38.62 LIG 0.28  C 
BRANCH 6 7
ATOM      7  CB  GLU C 506      12.372  23.757   4.693  1.00 41.41 LIG 0.05  C 
BRANCH 7 8
ATOM      8  CG  GLU C 506      11.255  23.319   5.619  1.00 54.63 LIG 0.12  C 
BRANCH 8 9
ATOM      9  CD  GLU C 506      10.998  21.825   5.575  1.00 71.07 LIG 0.17  C 
ATOM     10 OE1  GLU C 506      10.707  21.233   6.640  1.00 74.77 LIG-0.65  OA
ATOM     11 OE2  GLU C 506      11.075  21.248   4.467  1.00 73.38 LIG-0.65  OA
ENDBRANCH 8 9
ENDBRANCH 7 8
ENDBRANCH 6 7
BRANCH 6 12
ATOM     12  N   GLU C 506      14.694  24.600   4.449  1.00 38.98 LIG-0.07  N 
ATOM     13 H3   GLU C 506      15.443  24.193   4.702  1.00 38.98 LIG 0.28  HD
ATOM     14 H2   GLU C 506      14.830  25.479   4.423  1.00 38.98 LIG 0.28  HD
ATOM     15 H1   GLU C 506      14.459  24.313   3.640  1.00 38.98 LIG 0.28  HD
ENDBRANCH 6 12
ENDBRANCH 3 6
ENDBRANCH 1 2
BRANCH 1 16
ATOM     16  C   ASP C 507      16.423  22.175   8.057  1.00 33.47 LIG 0.24  C 
ATOM     17 O    ASP C 507      16.377  21.672   6.932  1.00 34.83 LIG-0.27  OA
ATOM     18  N   LEU C 508      17.481  22.090   8.859  1.00 31.65 LIG-0.34  N 
ATOM     19 H    LEU C 508      17.517  22.449   9.640  1.00 31.65 LIG 0.16  HD
BRANCH 18 20
ATOM     20  CA  LEU C 508      18.687  21.370   8.478  1.00 32.20 LIG 0.18  C 
BRANCH 20 21
ATOM     21  CB  LEU C 508      19.748  22.370   8.040  1.00 32.28 LIG 0.04  C 
BRANCH 21 22
ATOM     22  CG  LEU C 508      20.437  21.856   6.781  1.00 33.09 LIG-0.02  C 
ATOM     23  CD1 LEU C 508      19.559  20.869   6.072  1.00 32.61 LIG 0.01  C 
ATOM     24  CD2 LEU C 508      20.832  23.030   5.897  1.00 34.13 LIG 0.01  C 
ENDBRANCH 21 22
ENDBRANCH 20 21
BRANCH 20 25
ATOM     25  C   LEU C 508      19.227  20.485   9.586  1.00 33.63 LIG 0.20  C 
ATOM     26 O    LEU C 508      20.447  20.215   9.581  0.50 32.81 LIG-0.65  OA
ATOM     27 OXT  LEU C 508      18.425  20.068  10.447  0.50 35.17 LIG-0.65  OA
ENDBRANCH 20 25
ENDBRANCH 18 20
ENDBRANCH 1 16
BRANCH 1 28
ATOM     28  CB  ASP C 507      14.157  22.101   9.148  1.00 31.02 LIG 0.15  C 
BRANCH 28 29
ATOM     29  CG  ASP C 507      14.454  21.648  10.563  1.00 34.22 LIG 0.17  C 
ATOM     30 OD2  ASP C 507      14.388  22.476  11.499  1.00 32.29 LIG-0.65  OA
ATOM     31 OD1  ASP C 507      14.797  20.463  10.729  1.00 33.73 LIG-0.65  OA
ENDBRANCH 28 29
ENDBRANCH 1 28
TORSDOF 13
ENDMDL
MODEL 11
USER: ADFR SOLUTION from run 69
USER: SCORE 14.047621 LL:  -2.149 LR: -11.955 RR:   0.000 FEB:  -8.077
USER: RMSD 7.124197
USER: SEED 68
USER: STATUS no improvement in best 5 clusters for 5 generations
USER: GENES 15
USER: genes 0 Translation |==|  0.55338 0.44120 0.43293
USER: genes 1 Rotation |==|  0.64559 0.76922 0.12138 0.61390
USER: genes 2 Torsion [CB]-CA--N-[C] |==|  0.14997
USER: genes 3 Torsion [N]-C--CA-[N] |==|  0.78288
USER: genes 4 Torsion [C]-CA--CB-[CG] |==|  0.22074
USER: genes 5 Torsion [CA]-CB--CG-[CD] |==|  0.76186
USER: genes 6 Torsion [CB]-CG--CD-[OE1] |==|  0.92334
USER: genes 7 Torsion [C]-CA--N-[H3] |==|  0.94909
USER: genes 8 Torsion [N]-CA--C-[N] |==|  0.12767
USER: genes 9 Torsion [C]-N--CA-[CB] |==|  0.35508
USER: genes 10 Torsion [N]-CA--CB-[CG] |==|  0.81154
USER: genes 11 Torsion [CA]-CB--CG-[CD1] |==|  0.25761
USER: genes 12 Torsion [N]-CA--C-[O] |==|  0.30761
USER: genes 13 Torsion [N]-CA--CB-[CG] |==|  0.62867
USER: genes 14 Torsion [CA]-CB--CG-[OD2] |==|  0.76284
ROOT
ATOM      1  CA  ASP C 507      10.051  23.606   2.378  1.00 33.68 LIG 0.19  C 
ENDROOT
BRANCH 1 2
ATOM      2  N   ASP C 507      10.993  24.094   3.376  1.00 35.05 LIG-0.34  N 
ATOM      3  C   GLU C 506      12.168  23.513   3.586  1.00 36.98 LIG 0.25  C 
ATOM      4 O    GLU C 506      12.532  22.494   2.989  1.00 35.33 LIG-0.27  OA
ATOM      5 H    ASP C 507      10.719  24.785   3.810  1.00 35.05 LIG 0.16  HD
BRANCH 3 6
ATOM      6  CA  GLU C 506      13.039  24.143   4.672  1.00 38.62 LIG 0.28  C 
BRANCH 6 7
ATOM      7  CB  GLU C 506      12.211  24.463   5.919  1.00 41.41 LIG 0.05  C 
BRANCH 7 8
ATOM      8  CG  GLU C 506      11.943  23.264   6.806  1.00 54.63 LIG 0.12  C 
BRANCH 8 9
ATOM      9  CD  GLU C 506      10.724  22.469   6.380  1.00 71.07 LIG 0.17  C 
ATOM     10 OE1  GLU C 506       9.800  23.062   5.776  1.00 74.77 LIG-0.65  OA
ATOM     11 OE2  GLU C 506      10.700  21.245   6.640  1.00 73.38 LIG-0.65  OA
ENDBRANCH 8 9
ENDBRANCH 7 8
ENDBRANCH 6 7
BRANCH 6 12
ATOM     12  N   GLU C 506      13.702  25.370   4.155  1.00 38.98 LIG-0.07  N 
ATOM     13 H3   GLU C 506      13.687  25.364   3.265  1.00 38.98 LIG 0.28  HD
ATOM     14 H2   GLU C 506      14.546  25.393   4.436  1.00 38.98 LIG 0.28  HD
ATOM     15 H1   GLU C 506      13.270  26.089   4.453  1.00 38.98 LIG 0.28  HD
ENDBRANCH 6 12
ENDBRANCH 3 6
ENDBRANCH 1 2
BRANCH 1 16
ATOM     16  C   ASP C 507       8.779  24.431   2.459  1.00 33.47 LIG 0.24  C 
ATOM     17 O    ASP C 507       7.674  23.885   2.497  1.00 34.83 LIG-0.27  OA
ATOM     18  N   LEU C 508       8.953  25.747   2.532  1.00 31.65 LIG-0.34  N 
ATOM     19 H    LEU C 508       9.725  26.128   2.515  1.00 31.65 LIG 0.16  HD
BRANCH 18 20
ATOM     20  CA  LEU C 508       7.836  26.672   2.650  1.00 32.20 LIG 0.18  C 
BRANCH 20 21
ATOM     21  CB  LEU C 508       8.075  27.597   3.835  1.00 32.28 LIG 0.04  C 
BRANCH 21 22
ATOM     22  CG  LEU C 508       7.997  26.793   5.128  1.00 33.09 LIG-0.02  C 
ATOM     23  CD1 LEU C 508       9.360  26.316   5.528  1.00 32.61 LIG 0.01  C 
ATOM     24  CD2 LEU C 508       7.325  27.625   6.210  1.00 34.13 LIG 0.01  C 
ENDBRANCH 21 22
ENDBRANCH 20 21
BRANCH 20 25
ATOM     25  C   LEU C 508       7.601  27.485   1.390  1.00 33.63 LIG 0.20  C 
ATOM     26 O    LEU C 508       6.570  27.253   0.724  0.50 32.81 LIG-0.65  OA
ATOM     27 OXT  LEU C 508       8.450  28.346   1.081  0.50 35.17 LIG-0.65  OA
ENDBRANCH 20 25
ENDBRANCH 18 20
ENDBRANCH 1 16
BRANCH 1 28
ATOM     28  CB  ASP C 507       9.772  22.124   2.614  1.00 31.02 LIG 0.15  C 
BRANCH 28 29
ATOM     29  CG  ASP C 507       9.839  21.323   1.330  1.00 34.22 LIG 0.17  C 
ATOM     30 OD2  ASP C 507       8.825  21.245   0.600  1.00 32.29 LIG-0.65  OA
ATOM     31 OD1  ASP C 507      10.905  20.731   1.074  1.00 33.73 LIG-0.65  OA
ENDBRANCH 28 29
ENDBRANCH 1 28
TORSDOF 13
ENDMDL
MODEL 12
USER: ADFR SOLUTION from run 86
USER: SCORE 13.235443 LL:  -1.407 LR: -11.901 RR:   0.000 FEB:  -8.023
USER: RMSD 5.940341
USER: SEED 85
USER: STATUS no improvement in best 11 clusters for 5 generations
USER: GENES 15
USER: genes 0 Translation |==|  0.53117 0.52561 0.55522
USER: genes 1 Rotation |==|  0.61149 0.65213 0.96188 0.53303
USER: genes 2 Torsion [CB]-CA--N-[C] |==|  0.14225
USER: genes 3 Torsion [N]-C--CA-[N] |==|  0.33278
USER: genes 4 Torsion [C]-CA--CB-[CG] |==|  0.90523
USER: genes 5 Torsion [CA]-CB--CG-[CD] |==|  0.33170
USER: genes 6 Torsion [CB]-CG--CD-[OE1] |==|  0.02747
USER: genes 7 Torsion [C]-CA--N-[H3] |==|  0.49630
USER: genes 8 Torsion [N]-CA--C-[N] |==|  0.13326
USER: genes 9 Torsion [C]-N--CA-[CB] |==|  0.32452
USER: genes 10 Torsion [N]-CA--CB-[CG] |==|  0.24469
USER: genes 11 Torsion [CA]-CB--CG-[CD1] |==|  0.43650
USER: genes 12 Torsion [N]-CA--C-[O] |==|  0.97064
USER: genes 13 Torsion [N]-CA--CB-[CG] |==|  0.49598
USER: genes 14 Torsion [CA]-CB--CG-[OD2] |==|  0.66757
ROOT
ATOM      1  CA  ASP C 507       9.385  26.138   6.047  1.00 33.68 LIG 0.19  C 
ENDROOT
BRANCH 1 2
ATOM      2  N   ASP C 507      10.438  25.744   5.120  1.00 35.05 LIG-0.34  N 
ATOM      3  C   GLU C 506      11.518  25.081   5.515  1.00 36.98 LIG 0.25  C 
ATOM      4 O    GLU C 506      11.735  24.789   6.696  1.00 35.33 LIG-0.27  OA
ATOM      5 H    ASP C 507      10.295  25.979   4.305  1.00 35.05 LIG 0.16  HD
BRANCH 3 6
ATOM      6  CA  GLU C 506      12.531  24.746   4.422  1.00 38.62 LIG 0.28  C 
BRANCH 6 7
ATOM      7  CB  GLU C 506      12.679  23.231   4.260  1.00 41.41 LIG 0.05  C 
BRANCH 7 8
ATOM      8  CG  GLU C 506      12.536  22.456   5.555  1.00 54.63 LIG 0.12  C 
BRANCH 8 9
ATOM      9  CD  GLU C 506      11.384  21.469   5.534  1.00 71.07 LIG 0.17  C 
ATOM     10 OE1  GLU C 506      10.803  21.246   4.446  1.00 74.77 LIG-0.65  OA
ATOM     11 OE2  GLU C 506      11.072  20.907   6.608  1.00 73.38 LIG-0.65  OA
ENDBRANCH 8 9
ENDBRANCH 7 8
ENDBRANCH 6 7
BRANCH 6 12
ATOM     12  N   GLU C 506      13.847  25.370   4.728  1.00 38.98 LIG-0.07  N 
ATOM     13 H3   GLU C 506      14.433  25.152   4.095  1.00 38.98 LIG 0.28  HD
ATOM     14 H2   GLU C 506      14.139  25.077   5.515  1.00 38.98 LIG 0.28  HD
ATOM     15 H1   GLU C 506      13.756  26.255   4.755  1.00 38.98 LIG 0.28  HD
ENDBRANCH 6 12
ENDBRANCH 3 6
ENDBRANCH 1 2
BRANCH 1 16
ATOM     16  C   ASP C 507       8.386  27.013   5.310  1.00 33.47 LIG 0.24  C 
ATOM     17 O    ASP C 507       8.034  28.099   5.776  1.00 34.83 LIG-0.27  OA
ATOM     18  N   LEU C 508       7.973  26.546   4.135  1.00 31.65 LIG-0.34  N 
ATOM     19 H    LEU C 508       8.225  25.793   3.806  1.00 31.65 LIG 0.16  HD
BRANCH 18 20
ATOM     20  CA  LEU C 508       7.043  27.282   3.292  1.00 32.20 LIG 0.18  C 
BRANCH 20 21
ATOM     21  CB  LEU C 508       7.732  27.643   1.984  1.00 32.28 LIG 0.04  C 
BRANCH 21 22
ATOM     22  CG  LEU C 508       7.547  26.506   0.985  1.00 33.09 LIG-0.02  C 
ATOM     23  CD1 LEU C 508       7.700  27.013  -0.417  1.00 32.61 LIG 0.01  C 
ATOM     24  CD2 LEU C 508       8.516  25.377   1.309  1.00 34.13 LIG 0.01  C 
ENDBRANCH 21 22
ENDBRANCH 20 21
BRANCH 20 25
ATOM     25  C   LEU C 508       5.759  26.521   3.015  1.00 33.63 LIG 0.20  C 
ATOM     26 O    LEU C 508       5.708  25.316   3.341  0.50 32.81 LIG-0.65  OA
ATOM     27 OXT  LEU C 508       4.818  27.136   2.473  0.50 35.17 LIG-0.65  OA
ENDBRANCH 20 25
ENDBRANCH 18 20
ENDBRANCH 1 16
BRANCH 1 28
ATOM     28  CB  ASP C 507       9.995  26.870   7.239  1.00 31.02 LIG 0.15  C 
BRANCH 28 29
ATOM     29  CG  ASP C 507       8.939  27.335   8.221  1.00 34.22 LIG 0.17  C 
ATOM     30 OD2  ASP C 507       8.823  28.558   8.465  1.00 32.29 LIG-0.65  OA
ATOM     31 OD1  ASP C 507       8.250  26.464   8.782  1.00 33.73 LIG-0.65  OA
ENDBRANCH 28 29
ENDBRANCH 1 28
TORSDOF 13
ENDMDL
MODEL 13
USER: ADFR SOLUTION from run 25
USER: SCORE 13.575091 LL:  -1.962 LR: -11.816 RR:   0.000 FEB:  -7.938
USER: RMSD 8.354486
USER: SEED 24
USER: STATUS no improvement in best 10 clusters for 5 generations
USER: GENES 15
USER: genes 0 Translation |==|  0.72646 0.39905 0.62875
USER: genes 1 Rotation |==|  0.63164 0.26718 0.47228 0.92154
USER: genes 2 Torsion [CB]-CA--N-[C] |==|  0.13591
USER: genes 3 Torsion [N]-C--CA-[N] |==|  0.80052
USER: genes 4 Torsion [C]-CA--CB-[CG] |==|  0.07178
USER: genes 5 Torsion [CA]-CB--CG-[CD] |==|  0.23205
USER: genes 6 Torsion [CB]-CG--CD-[OE1] |==|  0.61150
USER: genes 7 Torsion [C]-CA--N-[H3] |==|  0.68144
USER: genes 8 Torsion [N]-CA--C-[N] |==|  0.15556
USER: genes 9 Torsion [C]-N--CA-[CB] |==|  0.31929
USER: genes 10 Torsion [N]-CA--CB-[CG] |==|  0.79622
USER: genes 11 Torsion [CA]-CB--CG-[CD1] |==|  0.27176
USER: genes 12 Torsion [N]-CA--C-[O] |==|  0.81326
USER: genes 13 Torsion [N]-CA--CB-[CG] |==|  0.56162
USER: genes 14 Torsion [CA]-CB--CG-[OD2] |==|  0.25276
ROOT
ATOM      1  CA  ASP C 507      15.244  22.341   8.252  1.00 33.68 LIG 0.19  C 
ENDROOT
BRANCH 1 2
ATOM      2  N   ASP C 507      14.824  22.782   6.929  1.00 35.05 LIG-0.34  N 
ATOM      3  C   GLU C 506      13.784  23.586   6.746  1.00 36.98 LIG 0.25  C 
ATOM      4 O    GLU C 506      13.070  23.986   7.673  1.00 35.33 LIG-0.27  OA
ATOM      5 H    ASP C 507      15.307  22.474   6.287  1.00 35.05 LIG 0.16  HD
BRANCH 3 6
ATOM      6  CA  GLU C 506      13.471  23.952   5.296  1.00 38.62 LIG 0.28  C 
BRANCH 6 7
ATOM      7  CB  GLU C 506      13.380  22.697   4.425  1.00 41.41 LIG 0.05  C 
BRANCH 7 8
ATOM      8  CG  GLU C 506      12.999  21.443   5.186  1.00 54.63 LIG 0.12  C 
BRANCH 8 9
ATOM      9  CD  GLU C 506      11.502  21.297   5.380  1.00 71.07 LIG 0.17  C 
ATOM     10 OE1  GLU C 506      11.075  20.876   6.480  1.00 74.77 LIG-0.65  OA
ATOM     11 OE2  GLU C 506      10.753  21.620   4.430  1.00 73.38 LIG-0.65  OA
ENDBRANCH 8 9
ENDBRANCH 7 8
ENDBRANCH 6 7
BRANCH 6 12
ATOM     12  N   GLU C 506      14.500  24.886   4.765  1.00 38.98 LIG-0.07  N 
ATOM     13 H3   GLU C 506      14.124  25.673   4.589  1.00 38.98 LIG 0.28  HD
ATOM     14 H2   GLU C 506      14.847  24.551   4.017  1.00 38.98 LIG 0.28  HD
ATOM     15 H1   GLU C 506      15.144  24.992   5.369  1.00 38.98 LIG 0.28  HD
ENDBRANCH 6 12
ENDBRANCH 3 6
ENDBRANCH 1 2
BRANCH 1 16
ATOM     16  C   ASP C 507      16.309  21.270   8.098  1.00 33.47 LIG 0.24  C 
ATOM     17 O    ASP C 507      16.148  20.146   8.580  1.00 34.83 LIG-0.27  OA
ATOM     18  N   LEU C 508      17.373  21.619   7.382  1.00 31.65 LIG-0.34  N 
ATOM     19 H    LEU C 508      17.481  22.401   7.038  1.00 31.65 LIG 0.16  HD
BRANCH 18 20
ATOM     20  CA  LEU C 508      18.465  20.695   7.114  1.00 32.20 LIG 0.18  C 
BRANCH 20 21
ATOM     21  CB  LEU C 508      18.525  20.413   5.619  1.00 32.28 LIG 0.04  C 
BRANCH 21 22
ATOM     22  CG  LEU C 508      17.363  19.505   5.229  1.00 33.09 LIG-0.02  C 
ATOM     23  CD1 LEU C 508      16.234  20.317   4.670  1.00 32.61 LIG 0.01  C 
ATOM     24  CD2 LEU C 508      17.850  18.435   4.263  1.00 34.13 LIG 0.01  C 
ENDBRANCH 21 22
ENDBRANCH 20 21
BRANCH 20 25
ATOM     25  C   LEU C 508      19.809  21.201   7.605  1.00 33.63 LIG 0.20  C 
ATOM     26 O    LEU C 508      20.302  22.202   7.042  0.50 32.81 LIG-0.65  OA
ATOM     27 OXT  LEU C 508      20.356  20.592   8.547  0.50 35.17 LIG-0.65  OA
ENDBRANCH 20 25
ENDBRANCH 18 20
ENDBRANCH 1 16
BRANCH 1 28
ATOM     28  CB  ASP C 507      14.037  21.822   9.030  1.00 31.02 LIG 0.15  C 
BRANCH 28 29
ATOM     29  CG  ASP C 507      14.269  21.858  10.527  1.00 34.22 LIG 0.17  C 
ATOM     30 OD2  ASP C 507      13.935  22.875  11.176  1.00 32.29 LIG-0.65  OA
ATOM     31 OD1  ASP C 507      14.829  20.875  11.048  1.00 33.73 LIG-0.65  OA
ENDBRANCH 28 29
ENDBRANCH 1 28
TORSDOF 13
ENDMDL
MODEL 14
USER: ADFR SOLUTION from run 120
USER: SCORE 13.245500 LL:  -1.588 LR: -11.715 RR:   0.000 FEB:  -7.837
USER: RMSD 8.840656
USER: SEED 119
USER: STATUS no improvement in best 11 clusters for 5 generations
USER: GENES 15
USER: genes 0 Translation |==|  0.72653 0.39502 0.62537
USER: genes 1 Rotation |==|  0.65231 0.27128 0.48095 0.91728
USER: genes 2 Torsion [CB]-CA--N-[C] |==|  0.15301
USER: genes 3 Torsion [N]-C--CA-[N] |==|  0.79690
USER: genes 4 Torsion [C]-CA--CB-[CG] |==|  0.07050
USER: genes 5 Torsion [CA]-CB--CG-[CD] |==|  0.23212
USER: genes 6 Torsion [CB]-CG--CD-[OE1] |==|  0.61625
USER: genes 7 Torsion [C]-CA--N-[H3] |==|  0.67953
USER: genes 8 Torsion [N]-CA--C-[N] |==|  0.12567
USER: genes 9 Torsion [C]-N--CA-[CB] |==|  0.84264
USER: genes 10 Torsion [N]-CA--CB-[CG] |==|  0.75605
USER: genes 11 Torsion [CA]-CB--CG-[CD1] |==|  0.95943
USER: genes 12 Torsion [N]-CA--C-[O] |==|  0.77646
USER: genes 13 Torsion [N]-CA--CB-[CG] |==|  0.54925
USER: genes 14 Torsion [CA]-CB--CG-[OD2] |==|  0.23902
ROOT
ATOM      1  CA  ASP C 507      15.246  22.221   8.151  1.00 33.68 LIG 0.19  C 
ENDROOT
BRANCH 1 2
ATOM      2  N   ASP C 507      14.803  22.707   6.851  1.00 35.05 LIG-0.34  N 
ATOM      3  C   GLU C 506      13.781  23.543   6.719  1.00 36.98 LIG 0.25  C 
ATOM      4 O    GLU C 506      13.101  23.935   7.674  1.00 35.33 LIG-0.27  OA
ATOM      5 H    ASP C 507      15.261  22.406   6.189  1.00 35.05 LIG 0.16  HD
BRANCH 3 6
ATOM      6  CA  GLU C 506      13.439  23.956   5.288  1.00 38.62 LIG 0.28  C 
BRANCH 6 7
ATOM      7  CB  GLU C 506      13.325  22.730   4.378  1.00 41.41 LIG 0.05  C 
BRANCH 7 8
ATOM      8  CG  GLU C 506      12.964  21.452   5.109  1.00 54.63 LIG 0.12  C 
BRANCH 8 9
ATOM      9  CD  GLU C 506      11.473  21.298   5.337  1.00 71.07 LIG 0.17  C 
ATOM     10 OE1  GLU C 506      11.075  20.871   6.446  1.00 74.77 LIG-0.65  OA
ATOM     11 OE2  GLU C 506      10.700  21.620   4.407  1.00 73.38 LIG-0.65  OA
ENDBRANCH 8 9
ENDBRANCH 7 8
ENDBRANCH 6 7
BRANCH 6 12
ATOM     12  N   GLU C 506      14.461  24.902   4.765  1.00 38.98 LIG-0.07  N 
ATOM     13 H3   GLU C 506      14.084  25.694   4.613  1.00 38.98 LIG 0.28  HD
ATOM     14 H2   GLU C 506      14.798  24.585   4.005  1.00 38.98 LIG 0.28  HD
ATOM     15 H1   GLU C 506      15.113  24.995   5.363  1.00 38.98 LIG 0.28  HD
ENDBRANCH 6 12
ENDBRANCH 3 6
ENDBRANCH 1 2
BRANCH 1 16
ATOM     16  C   ASP C 507      16.385  21.239   7.945  1.00 33.47 LIG 0.24  C 
ATOM     17 O    ASP C 507      16.392  20.148   8.522  1.00 34.83 LIG-0.27  OA
ATOM     18  N   LEU C 508      17.321  21.620   7.080  1.00 31.65 LIG-0.34  N 
ATOM     19 H    LEU C 508      17.312  22.376   6.671  1.00 31.65 LIG 0.16  HD
BRANCH 18 20
ATOM     20  CA  LEU C 508      18.459  20.776   6.748  1.00 32.20 LIG 0.18  C 
BRANCH 20 21
ATOM     21  CB  LEU C 508      19.210  20.423   8.024  1.00 32.28 LIG 0.04  C 
BRANCH 21 22
ATOM     22  CG  LEU C 508      20.244  21.505   8.317  1.00 33.09 LIG-0.02  C 
ATOM     23  CD1 LEU C 508      20.450  22.370   7.110  1.00 32.61 LIG 0.01  C 
ATOM     24  CD2 LEU C 508      19.820  22.301   9.543  1.00 34.13 LIG 0.01  C 
ENDBRANCH 21 22
ENDBRANCH 20 21
BRANCH 20 25
ATOM     25  C   LEU C 508      18.067  19.512   6.005  1.00 33.63 LIG 0.20  C 
ATOM     26 O    LEU C 508      17.629  18.550   6.672  0.50 32.81 LIG-0.65  OA
ATOM     27 OXT  LEU C 508      18.202  19.495   4.764  0.50 35.17 LIG-0.65  OA
ENDBRANCH 20 25
ENDBRANCH 18 20
ENDBRANCH 1 16
BRANCH 1 28
ATOM     28  CB  ASP C 507      14.075  21.572   8.885  1.00 31.02 LIG 0.15  C 
BRANCH 28 29
ATOM     29  CG  ASP C 507      14.341  21.437  10.370  1.00 34.22 LIG 0.17  C 
ATOM     30 OD2  ASP C 507      14.077  22.396  11.131  1.00 32.29 LIG-0.65  OA
ATOM     31 OD1  ASP C 507      14.859  20.378  10.770  1.00 33.73 LIG-0.65  OA
ENDBRANCH 28 29
ENDBRANCH 1 28
TORSDOF 13
ENDMDL
MODEL 15
USER: ADFR SOLUTION from run 111
USER: SCORE 13.305513 LL:  -1.877 LR: -11.667 RR:   0.000 FEB:  -7.789
USER: RMSD 9.181098
USER: SEED 110
USER: STATUS no improvement in best 10 clusters for 5 generations
USER: GENES 15
USER: genes 0 Translation |==|  0.72596 0.33774 0.53476
USER: genes 1 Rotation |==|  0.08573 0.69418 0.32408 0.59864
USER: genes 2 Torsion [CB]-CA--N-[C] |==|  0.77778
USER: genes 3 Torsion [N]-C--CA-[N] |==|  0.68493
USER: genes 4 Torsion [C]-CA--CB-[CG] |==|  0.22058
USER: genes 5 Torsion [CA]-CB--CG-[CD] |==|  0.64085
USER: genes 6 Torsion [CB]-CG--CD-[OE1] |==|  0.92962
USER: genes 7 Torsion [C]-CA--N-[H3] |==|  0.92528
USER: genes 8 Torsion [N]-CA--C-[N] |==|  0.20336
USER: genes 9 Torsion [C]-N--CA-[CB] |==|  0.39381
USER: genes 10 Torsion [N]-CA--CB-[CG] |==|  0.79420
USER: genes 11 Torsion [CA]-CB--CG-[CD1] |==|  0.28101
USER: genes 12 Torsion [N]-CA--C-[O] |==|  0.73200
USER: genes 13 Torsion [N]-CA--CB-[CG] |==|  0.53692
USER: genes 14 Torsion [CA]-CB--CG-[OD2] |==|  0.62669
ROOT
ATOM      1  CA  ASP C 507      15.229  20.502   5.433  1.00 33.68 LIG 0.19  C 
ENDROOT
BRANCH 1 2
ATOM      2  N   ASP C 507      14.421  21.699   5.235  1.00 35.05 LIG-0.34  N 
ATOM      3  C   GLU C 506      14.816  22.896   5.650  1.00 36.98 LIG 0.25  C 
ATOM      4 O    GLU C 506      15.868  23.082   6.271  1.00 35.33 LIG-0.27  OA
ATOM      5 H    ASP C 507      13.676  21.556   4.830  1.00 35.05 LIG 0.16  HD
BRANCH 3 6
ATOM      6  CA  GLU C 506      13.853  24.049   5.371  1.00 38.62 LIG 0.28  C 
BRANCH 6 7
ATOM      7  CB  GLU C 506      12.507  23.525   4.863  1.00 41.41 LIG 0.05  C 
BRANCH 7 8
ATOM      8  CG  GLU C 506      11.595  23.005   5.957  1.00 54.63 LIG 0.12  C 
BRANCH 8 9
ATOM      9  CD  GLU C 506      11.051  21.620   5.668  1.00 71.07 LIG 0.17  C 
ATOM     10 OE1  GLU C 506      10.961  21.245   4.475  1.00 74.77 LIG-0.65  OA
ATOM     11 OE2  GLU C 506      10.726  20.901   6.640  1.00 73.38 LIG-0.65  OA
ENDBRANCH 8 9
ENDBRANCH 7 8
ENDBRANCH 6 7
BRANCH 6 12
ATOM     12  N   GLU C 506      14.450  24.995   4.390  1.00 38.98 LIG-0.07  N 
ATOM     13 H3   GLU C 506      15.337  24.956   4.442  1.00 38.98 LIG 0.28  HD
ATOM     14 H2   GLU C 506      14.179  25.823   4.573  1.00 38.98 LIG 0.28  HD
ATOM     15 H1   GLU C 506      14.192  24.773   3.568  1.00 38.98 LIG 0.28  HD
ENDBRANCH 6 12
ENDBRANCH 3 6
ENDBRANCH 1 2
BRANCH 1 16
ATOM     16  C   ASP C 507      15.814  20.531   6.834  1.00 33.47 LIG 0.24  C 
ATOM     17 O    ASP C 507      17.001  20.810   7.017  1.00 34.83 LIG-0.27  OA
ATOM     18  N   LEU C 508      14.954  20.288   7.819  1.00 31.65 LIG-0.34  N 
ATOM     19 H    LEU C 508      14.123  20.103   7.692  1.00 31.65 LIG 0.16  HD
BRANCH 18 20
ATOM     20  CA  LEU C 508      15.351  20.313   9.219  1.00 32.20 LIG 0.18  C 
BRANCH 20 21
ATOM     21  CB  LEU C 508      14.231  20.932  10.045  1.00 32.28 LIG 0.04  C 
BRANCH 21 22
ATOM     22  CG  LEU C 508      14.203  22.438   9.810  1.00 33.09 LIG-0.02  C 
ATOM     23  CD1 LEU C 508      13.109  22.796   8.851  1.00 32.61 LIG 0.01  C 
ATOM     24  CD2 LEU C 508      14.075  23.162  11.142  1.00 34.13 LIG 0.01  C 
ENDBRANCH 21 22
ENDBRANCH 20 21
BRANCH 20 25
ATOM     25  C   LEU C 508      15.706  18.942   9.762  1.00 33.63 LIG 0.20  C 
ATOM     26 O    LEU C 508      14.825  18.309  10.383  0.50 32.81 LIG-0.65  OA
ATOM     27 OXT  LEU C 508      16.862  18.514   9.564  0.50 35.17 LIG-0.65  OA
ENDBRANCH 20 25
ENDBRANCH 18 20
ENDBRANCH 1 16
BRANCH 1 28
ATOM     28  CB  ASP C 507      16.324  20.438   4.372  1.00 31.02 LIG 0.15  C 
BRANCH 28 29
ATOM     29  CG  ASP C 507      16.987  19.076   4.322  1.00 34.22 LIG 0.17  C 
ATOM     30 OD2  ASP C 507      18.235  19.003   4.266  1.00 32.29 LIG-0.65  OA
ATOM     31 OD1  ASP C 507      16.246  18.076   4.294  1.00 33.73 LIG-0.65  OA
ENDBRANCH 28 29
ENDBRANCH 1 28
TORSDOF 13
ENDMDL
MODEL 16
USER: ADFR SOLUTION from run 34
USER: SCORE 12.614863 LL:  -2.208 LR: -11.636 RR:   0.000 FEB:  -7.758
USER: RMSD 6.877169
USER: SEED 33
USER: STATUS no improvement in best 7 clusters for 5 generations
USER: GENES 15
USER: genes 0 Translation |==|  0.56303 0.43001 0.44480
USER: genes 1 Rotation |==|  0.65333 0.83855 0.16587 0.51507
USER: genes 2 Torsion [CB]-CA--N-[C] |==|  0.47222
USER: genes 3 Torsion [N]-C--CA-[N] |==|  0.46908
USER: genes 4 Torsion [C]-CA--CB-[CG] |==|  0.27376
USER: genes 5 Torsion [CA]-CB--CG-[CD] |==|  0.75314
USER: genes 6 Torsion [CB]-CG--CD-[OE1] |==|  0.26880
USER: genes 7 Torsion [C]-CA--N-[H3] |==|  0.11329
USER: genes 8 Torsion [N]-CA--C-[N] |==|  0.26186
USER: genes 9 Torsion [C]-N--CA-[CB] |==|  0.85806
USER: genes 10 Torsion [N]-CA--CB-[CG] |==|  0.75505
USER: genes 11 Torsion [CA]-CB--CG-[CD1] |==|  0.99684
USER: genes 12 Torsion [N]-CA--C-[O] |==|  0.45137
USER: genes 13 Torsion [N]-CA--CB-[CG] |==|  0.53957
USER: genes 14 Torsion [CA]-CB--CG-[OD2] |==|  0.82644
ROOT
ATOM      1  CA  ASP C 507      10.341  23.270   2.734  1.00 33.68 LIG 0.19  C 
ENDROOT
BRANCH 1 2
ATOM      2  N   ASP C 507      11.511  23.135   3.591  1.00 35.05 LIG-0.34  N 
ATOM      3  C   GLU C 506      12.318  24.156   3.855  1.00 36.98 LIG 0.25  C 
ATOM      4 O    GLU C 506      12.167  25.279   3.362  1.00 35.33 LIG-0.27  OA
ATOM      5 H    ASP C 507      11.627  22.343   3.906  1.00 35.05 LIG 0.16  HD
BRANCH 3 6
ATOM      6  CA  GLU C 506      13.504  23.849   4.768  1.00 38.62 LIG 0.28  C 
BRANCH 6 7
ATOM      7  CB  GLU C 506      13.032  23.544   6.192  1.00 41.41 LIG 0.05  C 
BRANCH 7 8
ATOM      8  CG  GLU C 506      12.939  22.064   6.506  1.00 54.63 LIG 0.12  C 
BRANCH 8 9
ATOM      9  CD  GLU C 506      11.588  21.467   6.163  1.00 71.07 LIG 0.17  C 
ATOM     10 OE1  GLU C 506      11.450  20.879   5.066  1.00 74.77 LIG-0.65  OA
ATOM     11 OE2  GLU C 506      10.667  21.577   7.004  1.00 73.38 LIG-0.65  OA
ENDBRANCH 8 9
ENDBRANCH 7 8
ENDBRANCH 6 7
BRANCH 6 12
ATOM     12  N   GLU C 506      14.464  24.986   4.767  1.00 38.98 LIG-0.07  N 
ATOM     13 H3   GLU C 506      14.016  25.754   4.784  1.00 38.98 LIG 0.28  HD
ATOM     14 H2   GLU C 506      14.964  24.952   4.031  1.00 38.98 LIG 0.28  HD
ATOM     15 H1   GLU C 506      14.988  24.932   5.485  1.00 38.98 LIG 0.28  HD
ENDBRANCH 6 12
ENDBRANCH 3 6
ENDBRANCH 1 2
BRANCH 1 16
ATOM     16  C   ASP C 507       9.322  24.154   3.431  1.00 33.47 LIG 0.24  C 
ATOM     17 O    ASP C 507       8.545  23.685   4.266  1.00 34.83 LIG-0.27  OA
ATOM     18  N   LEU C 508       9.369  25.444   3.112  1.00 31.65 LIG-0.34  N 
ATOM     19 H    LEU C 508       9.917  25.774   2.537  1.00 31.65 LIG 0.16  HD
BRANCH 18 20
ATOM     20  CA  LEU C 508       8.482  26.426   3.719  1.00 32.20 LIG 0.18  C 
BRANCH 20 21
ATOM     21  CB  LEU C 508       7.044  25.938   3.608  1.00 32.28 LIG 0.04  C 
BRANCH 21 22
ATOM     22  CG  LEU C 508       6.454  26.406   2.282  1.00 33.09 LIG-0.02  C 
ATOM     23  CD1 LEU C 508       7.458  27.218   1.522  1.00 32.61 LIG 0.01  C 
ATOM     24  CD2 LEU C 508       5.951  25.206   1.493  1.00 34.13 LIG 0.01  C 
ENDBRANCH 21 22
ENDBRANCH 20 21
BRANCH 20 25
ATOM     25  C   LEU C 508       8.823  26.721   5.168  1.00 33.63 LIG 0.20  C 
ATOM     26 O    LEU C 508       8.361  27.763   5.681  0.50 32.81 LIG-0.65  OA
ATOM     27 OXT  LEU C 508       9.550  25.909   5.777  0.50 35.17 LIG-0.65  OA
ENDBRANCH 20 25
ENDBRANCH 18 20
ENDBRANCH 1 16
BRANCH 1 28
ATOM     28  CB  ASP C 507       9.766  21.891   2.425  1.00 31.02 LIG 0.15  C 
BRANCH 28 29
ATOM     29  CG  ASP C 507       8.776  21.932   1.278  1.00 34.22 LIG 0.17  C 
ATOM     30 OD2  ASP C 507       7.728  22.606   1.396  1.00 32.29 LIG-0.65  OA
ATOM     31 OD1  ASP C 507       9.033  21.249   0.270  1.00 33.73 LIG-0.65  OA
ENDBRANCH 28 29
ENDBRANCH 1 28
TORSDOF 13
ENDMDL
MODEL 17
USER: ADFR SOLUTION from run 95
USER: SCORE 12.523637 LL:  -1.686 LR: -11.634 RR:   0.000 FEB:  -7.756
USER: RMSD 9.477896
USER: SEED 94
USER: STATUS no improvement in best 20 clusters for 5 generations
USER: GENES 15
USER: genes 0 Translation |==|  0.76498 0.35282 0.56858
USER: genes 1 Rotation |==|  0.70682 0.37178 0.37655 0.91898
USER: genes 2 Torsion [CB]-CA--N-[C] |==|  0.19956
USER: genes 3 Torsion [N]-C--CA-[N] |==|  0.82770
USER: genes 4 Torsion [C]-CA--CB-[CG] |==|  0.22637
USER: genes 5 Torsion [CA]-CB--CG-[CD] |==|  0.58821
USER: genes 6 Torsion [CB]-CG--CD-[OE1] |==|  0.37212
USER: genes 7 Torsion [C]-CA--N-[H3] |==|  0.04037
USER: genes 8 Torsion [N]-CA--C-[N] |==|  0.70000
USER: genes 9 Torsion [C]-N--CA-[CB] |==|  0.42527
USER: genes 10 Torsion [N]-CA--CB-[CG] |==|  0.71987
USER: genes 11 Torsion [CA]-CB--CG-[CD1] |==|  0.28741
USER: genes 12 Torsion [N]-CA--C-[O] |==|  0.27827
USER: genes 13 Torsion [N]-CA--CB-[CG] |==|  0.63072
USER: genes 14 Torsion [CA]-CB--CG-[OD2] |==|  0.92691
ROOT
ATOM      1  CA  ASP C 507      16.399  20.955   6.447  1.00 33.68 LIG 0.19  C 
ENDROOT
BRANCH 1 2
ATOM      2  N   ASP C 507      15.574  21.931   5.749  1.00 35.05 LIG-0.34  N 
ATOM      3  C   GLU C 506      15.044  22.981   6.365  1.00 36.98 LIG 0.25  C 
ATOM      4 O    GLU C 506      15.171  23.187   7.577  1.00 35.33 LIG-0.27  OA
ATOM      5 H    ASP C 507      15.464  21.764   4.913  1.00 35.05 LIG 0.16  HD
BRANCH 3 6
ATOM      6  CA  GLU C 506      14.199  23.908   5.493  1.00 38.62 LIG 0.28  C 
BRANCH 6 7
ATOM      7  CB  GLU C 506      13.002  23.161   4.902  1.00 41.41 LIG 0.05  C 
BRANCH 7 8
ATOM      8  CG  GLU C 506      11.827  23.029   5.851  1.00 54.63 LIG 0.12  C 
BRANCH 8 9
ATOM      9  CD  GLU C 506      11.033  21.755   5.640  1.00 71.07 LIG 0.17  C 
ATOM     10 OE1  GLU C 506      10.708  21.076   6.641  1.00 74.77 LIG-0.65  OA
ATOM     11 OE2  GLU C 506      10.722  21.443   4.468  1.00 73.38 LIG-0.65  OA
ENDBRANCH 8 9
ENDBRANCH 7 8
ENDBRANCH 6 7
BRANCH 6 12
ATOM     12  N   GLU C 506      15.032  24.502   4.413  1.00 38.98 LIG-0.07  N 
ATOM     13 H3   GLU C 506      15.797  24.054   4.346  1.00 38.98 LIG 0.28  HD
ATOM     14 H2   GLU C 506      15.204  25.354   4.604  1.00 38.98 LIG 0.28  HD
ATOM     15 H1   GLU C 506      14.593  24.455   3.640  1.00 38.98 LIG 0.28  HD
ENDBRANCH 6 12
ENDBRANCH 3 6
ENDBRANCH 1 2
BRANCH 1 16
ATOM     16  C   ASP C 507      17.121  20.099   5.421  1.00 33.47 LIG 0.24  C 
ATOM     17 O    ASP C 507      18.075  20.550   4.783  1.00 34.83 LIG-0.27  OA
ATOM     18  N   LEU C 508      16.684  18.848   5.309  1.00 31.65 LIG-0.34  N 
ATOM     19 H    LEU C 508      16.024  18.531   5.761  1.00 31.65 LIG 0.16  HD
BRANCH 18 20
ATOM     20  CA  LEU C 508      17.293  17.894   4.395  1.00 32.20 LIG 0.18  C 
BRANCH 20 21
ATOM     21  CB  LEU C 508      17.078  16.484   4.928  1.00 32.28 LIG 0.04  C 
BRANCH 21 22
ATOM     22  CG  LEU C 508      18.353  16.002   5.611  1.00 33.09 LIG-0.02  C 
ATOM     23  CD1 LEU C 508      18.202  16.068   7.101  1.00 32.61 LIG 0.01  C 
ATOM     24  CD2 LEU C 508      18.701  14.605   5.119  1.00 34.13 LIG 0.01  C 
ENDBRANCH 21 22
ENDBRANCH 20 21
BRANCH 20 25
ATOM     25  C   LEU C 508      16.763  18.004   2.977  1.00 33.63 LIG 0.20  C 
ATOM     26 O    LEU C 508      17.453  18.621   2.138  0.50 32.81 LIG-0.65  OA
ATOM     27 OXT  LEU C 508      15.664  17.473   2.720  0.50 35.17 LIG-0.65  OA
ENDBRANCH 20 25
ENDBRANCH 18 20
ENDBRANCH 1 16
BRANCH 1 28
ATOM     28  CB  ASP C 507      15.527  20.105   7.368  1.00 31.02 LIG 0.15  C 
BRANCH 28 29
ATOM     29  CG  ASP C 507      16.126  19.973   8.754  1.00 34.22 LIG 0.17  C 
ATOM     30 OD2  ASP C 507      17.365  20.074   8.899  1.00 32.29 LIG-0.65  OA
ATOM     31 OD1  ASP C 507      15.351  19.721   9.695  1.00 33.73 LIG-0.65  OA
ENDBRANCH 28 29
ENDBRANCH 1 28
TORSDOF 13
ENDMDL
MODEL 18
USER: ADFR SOLUTION from run 114
USER: SCORE 12.704690 LL:  -2.922 LR: -11.487 RR:   0.000 FEB:  -7.609
USER: RMSD 14.178074
USER: SEED 113
USER: STATUS no improvement in best 15 clusters for 5 generations
USER: GENES 15
USER: genes 0 Translation |==|  0.83229 0.26498 0.56415
USER: genes 1 Rotation |==|  0.61738 0.74655 0.90340 0.61272
USER: genes 2 Torsion [CB]-CA--N-[C] |==|  0.41409
USER: genes 3 Torsion [N]-C--CA-[N] |==|  0.91046
USER: genes 4 Torsion [C]-CA--CB-[CG] |==|  0.35285
USER: genes 5 Torsion [CA]-CB--CG-[CD] |==|  0.18793
USER: genes 6 Torsion [CB]-CG--CD-[OE1] |==|  0.48774
USER: genes 7 Torsion [C]-CA--N-[H3] |==|  0.20682
USER: genes 8 Torsion [N]-CA--C-[N] |==|  0.29192
USER: genes 9 Torsion [C]-N--CA-[CB] |==|  0.31581
USER: genes 10 Torsion [N]-CA--CB-[CG] |==|  0.76577
USER: genes 11 Torsion [CA]-CB--CG-[CD1] |==|  0.90975
USER: genes 12 Torsion [N]-CA--C-[O] |==|  0.49859
USER: genes 13 Torsion [N]-CA--CB-[CG] |==|  0.78298
USER: genes 14 Torsion [CA]-CB--CG-[OD2] |==|  0.04356
ROOT
ATOM      1  CA  ASP C 507      18.419  18.320   6.314  1.00 33.68 LIG 0.19  C 
ENDROOT
BRANCH 1 2
ATOM      2  N   ASP C 507      19.300  17.310   5.743  1.00 35.05 LIG-0.34  N 
ATOM      3  C   GLU C 506      18.925  16.046   5.591  1.00 36.98 LIG 0.25  C 
ATOM      4 O    GLU C 506      17.825  15.620   5.960  1.00 35.33 LIG-0.27  OA
ATOM      5 H    ASP C 507      20.075  17.608   5.517  1.00 35.05 LIG 0.16  HD
BRANCH 3 6
ATOM      6  CA  GLU C 506      19.967  15.110   4.980  1.00 38.62 LIG 0.28  C 
BRANCH 6 7
ATOM      7  CB  GLU C 506      20.822  14.460   6.070  1.00 41.41 LIG 0.05  C 
BRANCH 7 8
ATOM      8  CG  GLU C 506      20.880  12.947   5.988  1.00 54.63 LIG 0.12  C 
BRANCH 8 9
ATOM      9  CD  GLU C 506      21.624  12.447   4.765  1.00 71.07 LIG 0.17  C 
ATOM     10 OE1  GLU C 506      21.808  11.215   4.635  1.00 74.77 LIG-0.65  OA
ATOM     11 OE2  GLU C 506      22.011  13.292   3.926  1.00 73.38 LIG-0.65  OA
ENDBRANCH 8 9
ENDBRANCH 7 8
ENDBRANCH 6 7
BRANCH 6 12
ATOM     12  N   GLU C 506      20.824  15.851   4.015  1.00 38.98 LIG-0.07  N 
ATOM     13 H3   GLU C 506      21.393  16.370   4.460  1.00 38.98 LIG 0.28  HD
ATOM     14 H2   GLU C 506      20.312  16.355   3.490  1.00 38.98 LIG 0.28  HD
ATOM     15 H1   GLU C 506      21.279  15.271   3.517  1.00 38.98 LIG 0.28  HD
ENDBRANCH 6 12
ENDBRANCH 3 6
ENDBRANCH 1 2
BRANCH 1 16
ATOM     16  C   ASP C 507      17.599  18.943   5.199  1.00 33.47 LIG 0.24  C 
ATOM     17 O    ASP C 507      18.117  19.716   4.390  1.00 34.83 LIG-0.27  OA
ATOM     18  N   LEU C 508      16.326  18.560   5.140  1.00 31.65 LIG-0.34  N 
ATOM     19 H    LEU C 508      15.966  18.013   5.699  1.00 31.65 LIG 0.16  HD
BRANCH 18 20
ATOM     20  CA  LEU C 508      15.419  19.040   4.109  1.00 32.20 LIG 0.18  C 
BRANCH 20 21
ATOM     21  CB  LEU C 508      15.022  17.876   3.211  1.00 32.28 LIG 0.04  C 
BRANCH 21 22
ATOM     22  CG  LEU C 508      16.087  17.679   2.138  1.00 33.09 LIG-0.02  C 
ATOM     23  CD1 LEU C 508      16.700  18.995   1.765  1.00 32.61 LIG 0.01  C 
ATOM     24  CD2 LEU C 508      17.117  16.667   2.617  1.00 34.13 LIG 0.01  C 
ENDBRANCH 21 22
ENDBRANCH 20 21
BRANCH 20 25
ATOM     25  C   LEU C 508      14.181  19.713   4.671  1.00 33.63 LIG 0.20  C 
ATOM     26 O    LEU C 508      13.342  20.169   3.865  0.50 32.81 LIG-0.65  OA
ATOM     27 OXT  LEU C 508      14.062  19.780   5.912  0.50 35.17 LIG-0.65  OA
ENDBRANCH 20 25
ENDBRANCH 18 20
ENDBRANCH 1 16
BRANCH 1 28
ATOM     28  CB  ASP C 507      19.246  19.369   7.053  1.00 31.02 LIG 0.15  C 
BRANCH 28 29
ATOM     29  CG  ASP C 507      19.700  18.879   8.413  1.00 34.22 LIG 0.17  C 
ATOM     30 OD2  ASP C 507      19.643  17.656   8.676  1.00 32.29 LIG-0.65  OA
ATOM     31 OD1  ASP C 507      20.075  19.733   9.238  1.00 33.73 LIG-0.65  OA
ENDBRANCH 28 29
ENDBRANCH 1 28
TORSDOF 13
ENDMDL
MODEL 19
USER: ADFR SOLUTION from run 62
USER: SCORE 12.556598 LL:  -2.801 LR: -11.460 RR:   0.000 FEB:  -7.582
USER: RMSD 14.308680
USER: SEED 61
USER: STATUS no improvement in best 12 clusters for 5 generations
USER: GENES 15
USER: genes 0 Translation |==|  0.83458 0.25529 0.56785
USER: genes 1 Rotation |==|  0.60714 0.73378 0.91128 0.62131
USER: genes 2 Torsion [CB]-CA--N-[C] |==|  0.43210
USER: genes 3 Torsion [N]-C--CA-[N] |==|  0.87964
USER: genes 4 Torsion [C]-CA--CB-[CG] |==|  0.36112
USER: genes 5 Torsion [CA]-CB--CG-[CD] |==|  0.17213
USER: genes 6 Torsion [CB]-CG--CD-[OE1] |==|  0.52051
USER: genes 7 Torsion [C]-CA--N-[H3] |==|  0.14097
USER: genes 8 Torsion [N]-CA--C-[N] |==|  0.23951
USER: genes 9 Torsion [C]-N--CA-[CB] |==|  0.84147
USER: genes 10 Torsion [N]-CA--CB-[CG] |==|  0.83698
USER: genes 11 Torsion [CA]-CB--CG-[CD1] |==|  0.33038
USER: genes 12 Torsion [N]-CA--C-[O] |==|  0.94995
USER: genes 13 Torsion [N]-CA--CB-[CG] |==|  0.79272
USER: genes 14 Torsion [CA]-CB--CG-[OD2] |==|  0.54519
ROOT
ATOM      1  CA  ASP C 507      18.487  18.029   6.426  1.00 33.68 LIG 0.19  C 
ENDROOT
BRANCH 1 2
ATOM      2  N   ASP C 507      19.395  17.031   5.876  1.00 35.05 LIG-0.34  N 
ATOM      3  C   GLU C 506      18.987  15.816   5.531  1.00 36.98 LIG 0.25  C 
ATOM      4 O    GLU C 506      17.825  15.424   5.689  1.00 35.33 LIG-0.27  OA
ATOM      5 H    ASP C 507      20.208  17.300   5.798  1.00 35.05 LIG 0.16  HD
BRANCH 3 6
ATOM      6  CA  GLU C 506      20.062  14.884   4.974  1.00 38.62 LIG 0.28  C 
BRANCH 6 7
ATOM      7  CB  GLU C 506      20.897  14.277   6.105  1.00 41.41 LIG 0.05  C 
BRANCH 7 8
ATOM      8  CG  GLU C 506      21.043  12.770   6.022  1.00 54.63 LIG 0.12  C 
BRANCH 8 9
ATOM      9  CD  GLU C 506      21.756  12.310   4.765  1.00 71.07 LIG 0.17  C 
ATOM     10 OE1  GLU C 506      21.811  11.083   4.519  1.00 74.77 LIG-0.65  OA
ATOM     11 OE2  GLU C 506      22.248  13.184   4.016  1.00 73.38 LIG-0.65  OA
ENDBRANCH 8 9
ENDBRANCH 7 8
ENDBRANCH 6 7
BRANCH 6 12
ATOM     12  N   GLU C 506      20.933  15.616   4.015  1.00 38.98 LIG-0.07  N 
ATOM     13 H3   GLU C 506      21.220  16.370   4.390  1.00 38.98 LIG 0.28  HD
ATOM     14 H2   GLU C 506      20.470  15.808   3.280  1.00 38.98 LIG 0.28  HD
ATOM     15 H1   GLU C 506      21.631  15.107   3.801  1.00 38.98 LIG 0.28  HD
ENDBRANCH 6 12
ENDBRANCH 3 6
ENDBRANCH 1 2
BRANCH 1 16
ATOM     16  C   ASP C 507      17.753  18.707   5.282  1.00 33.47 LIG 0.24  C 
ATOM     17 O    ASP C 507      18.200  19.733   4.765  1.00 34.83 LIG-0.27  OA
ATOM     18  N   LEU C 508      16.649  18.093   4.866  1.00 31.65 LIG-0.34  N 
ATOM     19 H    LEU C 508      16.342  17.371   5.221  1.00 31.65 LIG 0.16  HD
BRANCH 18 20
ATOM     20  CA  LEU C 508      15.853  18.597   3.758  1.00 32.20 LIG 0.18  C 
BRANCH 20 21
ATOM     21  CB  LEU C 508      15.420  20.024   4.061  1.00 32.28 LIG 0.04  C 
BRANCH 21 22
ATOM     22  CG  LEU C 508      14.616  20.044   5.357  1.00 33.09 LIG-0.02  C 
ATOM     23  CD1 LEU C 508      15.298  20.901   6.380  1.00 32.61 LIG 0.01  C 
ATOM     24  CD2 LEU C 508      13.192  20.495   5.070  1.00 34.13 LIG 0.01  C 
ENDBRANCH 21 22
ENDBRANCH 20 21
BRANCH 20 25
ATOM     25  C   LEU C 508      16.581  18.542   2.427  1.00 33.63 LIG 0.20  C 
ATOM     26 O    LEU C 508      17.825  18.424   2.443  0.50 32.81 LIG-0.65  OA
ATOM     27 OXT  LEU C 508      15.902  18.620   1.383  0.50 35.17 LIG-0.65  OA
ENDBRANCH 20 25
ENDBRANCH 18 20
ENDBRANCH 1 16
BRANCH 1 28
ATOM     28  CB  ASP C 507      19.273  19.037   7.260  1.00 31.02 LIG 0.15  C 
BRANCH 28 29
ATOM     29  CG  ASP C 507      19.700  18.459   8.594  1.00 34.22 LIG 0.17  C 
ATOM     30 OD2  ASP C 507      20.075  19.231   9.506  1.00 32.29 LIG-0.65  OA
ATOM     31 OD1  ASP C 507      19.700  17.220   8.712  1.00 33.73 LIG-0.65  OA
ENDBRANCH 28 29
ENDBRANCH 1 28
TORSDOF 13
ENDMDL
MODEL 20
USER: ADFR SOLUTION from run 149
USER: SCORE 12.706959 LL:  -1.311 LR: -11.430 RR:   0.000 FEB:  -7.552
USER: RMSD 7.459454
USER: SEED 148
USER: STATUS no improvement in best 13 clusters for 5 generations
USER: GENES 15
USER: genes 0 Translation |==|  0.57472 0.43819 0.42020
USER: genes 1 Rotation |==|  0.61560 0.76422 0.09258 0.52890
USER: genes 2 Torsion [CB]-CA--N-[C] |==|  0.84963
USER: genes 3 Torsion [N]-C--CA-[N] |==|  0.23688
USER: genes 4 Torsion [C]-CA--CB-[CG] |==|  0.12201
USER: genes 5 Torsion [CA]-CB--CG-[CD] |==|  0.68845
USER: genes 6 Torsion [CB]-CG--CD-[OE1] |==|  0.91217
USER: genes 7 Torsion [C]-CA--N-[H3] |==|  0.01810
USER: genes 8 Torsion [N]-CA--C-[N] |==|  0.38839
USER: genes 9 Torsion [C]-N--CA-[CB] |==|  0.29867
USER: genes 10 Torsion [N]-CA--CB-[CG] |==|  0.64301
USER: genes 11 Torsion [CA]-CB--CG-[CD1] |==|  0.06016
USER: genes 12 Torsion [N]-CA--C-[O] |==|  0.17316
USER: genes 13 Torsion [N]-CA--CB-[CG] |==|  0.49639
USER: genes 14 Torsion [CA]-CB--CG-[OD2] |==|  0.75342
ROOT
ATOM      1  CA  ASP C 507      10.692  23.516   1.996  1.00 33.68 LIG 0.19  C 
ENDROOT
BRANCH 1 2
ATOM      2  N   ASP C 507      11.971  23.754   2.650  1.00 35.05 LIG-0.34  N 
ATOM      3  C   GLU C 506      12.132  23.623   3.961  1.00 36.98 LIG 0.25  C 
ATOM      4 O    GLU C 506      11.207  23.335   4.728  1.00 35.33 LIG-0.27  OA
ATOM      5 H    ASP C 507      12.603  23.984   2.113  1.00 35.05 LIG 0.16  HD
BRANCH 3 6
ATOM      6  CA  GLU C 506      13.535  23.913   4.492  1.00 38.62 LIG 0.28  C 
BRANCH 6 7
ATOM      7  CB  GLU C 506      13.812  23.114   5.768  1.00 41.41 LIG 0.05  C 
BRANCH 7 8
ATOM      8  CG  GLU C 506      13.362  21.668   5.699  1.00 54.63 LIG 0.12  C 
BRANCH 8 9
ATOM      9  CD  GLU C 506      12.202  21.362   6.626  1.00 71.07 LIG 0.17  C 
ATOM     10 OE1  GLU C 506      12.109  21.995   7.703  1.00 74.77 LIG-0.65  OA
ATOM     11 OE2  GLU C 506      11.374  20.495   6.265  1.00 73.38 LIG-0.65  OA
ENDBRANCH 8 9
ENDBRANCH 7 8
ENDBRANCH 6 7
BRANCH 6 12
ATOM     12  N   GLU C 506      13.702  25.371   4.741  1.00 38.98 LIG-0.07  N 
ATOM     13 H3   GLU C 506      12.922  25.784   4.623  1.00 38.98 LIG 0.28  HD
ATOM     14 H2   GLU C 506      14.301  25.703   4.173  1.00 38.98 LIG 0.28  HD
ATOM     15 H1   GLU C 506      13.981  25.499   5.576  1.00 38.98 LIG 0.28  HD
ENDBRANCH 6 12
ENDBRANCH 3 6
ENDBRANCH 1 2
BRANCH 1 16
ATOM     16  C   ASP C 507       9.716  24.600   2.418  1.00 33.47 LIG 0.24  C 
ATOM     17 O    ASP C 507       9.714  25.033   3.573  1.00 34.83 LIG-0.27  OA
ATOM     18  N   LEU C 508       8.922  25.062   1.456  1.00 31.65 LIG-0.34  N 
ATOM     19 H    LEU C 508       8.930  24.767   0.648  1.00 31.65 LIG 0.16  HD
BRANCH 18 20
ATOM     20  CA  LEU C 508       7.957  26.126   1.692  1.00 32.20 LIG 0.18  C 
BRANCH 20 21
ATOM     21  CB  LEU C 508       8.448  27.404   1.027  1.00 32.28 LIG 0.04  C 
BRANCH 21 22
ATOM     22  CG  LEU C 508       8.424  28.542   2.041  1.00 33.09 LIG-0.02  C 
ATOM     23  CD1 LEU C 508       8.448  27.997   3.437  1.00 32.61 LIG 0.01  C 
ATOM     24  CD2 LEU C 508       9.575  29.499   1.765  1.00 34.13 LIG 0.01  C 
ENDBRANCH 21 22
ENDBRANCH 20 21
BRANCH 20 25
ATOM     25  C   LEU C 508       6.562  25.783   1.202  1.00 33.63 LIG 0.20  C 
ATOM     26 O    LEU C 508       5.978  24.809   1.723  0.50 32.81 LIG-0.65  OA
ATOM     27 OXT  LEU C 508       6.067  26.491   0.301  0.50 35.17 LIG-0.65  OA
ENDBRANCH 20 25
ENDBRANCH 18 20
ENDBRANCH 1 16
BRANCH 1 28
ATOM     28  CB  ASP C 507      10.176  22.126   2.362  1.00 31.02 LIG 0.15  C 
BRANCH 28 29
ATOM     29  CG  ASP C 507       8.829  21.837   1.733  1.00 34.22 LIG 0.17  C 
ATOM     30 OD2  ASP C 507       7.784  22.157   2.344  1.00 32.29 LIG-0.65  OA
ATOM     31 OD1  ASP C 507       8.819  21.245   0.637  1.00 33.73 LIG-0.65  OA
ENDBRANCH 28 29
ENDBRANCH 1 28
TORSDOF 13
ENDMDL
MODEL 21
USER: ADFR SOLUTION from run 97
USER: SCORE 12.714457 LL:  -2.067 LR: -11.416 RR:   0.000 FEB:  -7.538
USER: RMSD 6.778243
USER: SEED 96
USER: STATUS no improvement in best 7 clusters for 5 generations
USER: GENES 15
USER: genes 0 Translation |==|  0.53388 0.50266 0.49767
USER: genes 1 Rotation |==|  0.36758 0.19562 0.86535 0.57959
USER: genes 2 Torsion [CB]-CA--N-[C] |==|  0.23887
USER: genes 3 Torsion [N]-C--CA-[N] |==|  0.76049
USER: genes 4 Torsion [C]-CA--CB-[CG] |==|  0.26893
USER: genes 5 Torsion [CA]-CB--CG-[CD] |==|  0.77064
USER: genes 6 Torsion [CB]-CG--CD-[OE1] |==|  0.23992
USER: genes 7 Torsion [C]-CA--N-[H3] |==|  0.71687
USER: genes 8 Torsion [N]-CA--C-[N] |==|  0.82222
USER: genes 9 Torsion [C]-N--CA-[CB] |==|  0.33944
USER: genes 10 Torsion [N]-CA--CB-[CG] |==|  0.69762
USER: genes 11 Torsion [CA]-CB--CG-[CD1] |==|  0.00656
USER: genes 12 Torsion [N]-CA--C-[O] |==|  0.35442
USER: genes 13 Torsion [N]-CA--CB-[CG] |==|  0.61308
USER: genes 14 Torsion [CA]-CB--CG-[OD2] |==|  0.46667
ROOT
ATOM      1  CA  ASP C 507       9.466  25.450   4.320  1.00 33.68 LIG 0.19  C 
ENDROOT
BRANCH 1 2
ATOM      2  N   ASP C 507      10.798  25.046   4.751  1.00 35.05 LIG-0.34  N 
ATOM      3  C   GLU C 506      11.687  24.528   3.912  1.00 36.98 LIG 0.25  C 
ATOM      4 O    GLU C 506      11.443  24.309   2.721  1.00 35.33 LIG-0.27  OA
ATOM      5 H    ASP C 507      10.950  25.173   5.588  1.00 35.05 LIG 0.16  HD
BRANCH 3 6
ATOM      6  CA  GLU C 506      13.037  24.152   4.521  1.00 38.62 LIG 0.28  C 
BRANCH 6 7
ATOM      7  CB  GLU C 506      12.861  23.593   5.936  1.00 41.41 LIG 0.05  C 
BRANCH 7 8
ATOM      8  CG  GLU C 506      12.831  22.079   6.001  1.00 54.63 LIG 0.12  C 
BRANCH 8 9
ATOM      9  CD  GLU C 506      11.467  21.497   5.685  1.00 71.07 LIG 0.17  C 
ATOM     10 OE1  GLU C 506      11.169  21.279   4.488  1.00 74.77 LIG-0.65  OA
ATOM     11 OE2  GLU C 506      10.700  21.245   6.642  1.00 73.38 LIG-0.65  OA
ENDBRANCH 8 9
ENDBRANCH 7 8
ENDBRANCH 6 7
BRANCH 6 12
ATOM     12  N   GLU C 506      13.946  25.330   4.533  1.00 38.98 LIG-0.07  N 
ATOM     13 H3   GLU C 506      14.529  25.262   3.864  1.00 38.98 LIG 0.28  HD
ATOM     14 H2   GLU C 506      14.385  25.359   5.306  1.00 38.98 LIG 0.28  HD
ATOM     15 H1   GLU C 506      13.468  26.074   4.434  1.00 38.98 LIG 0.28  HD
ENDBRANCH 6 12
ENDBRANCH 3 6
ENDBRANCH 1 2
BRANCH 1 16
ATOM     16  C   ASP C 507       8.979  26.571   5.220  1.00 33.47 LIG 0.24  C 
ATOM     17 O    ASP C 507       8.723  27.686   4.759  1.00 34.83 LIG-0.27  OA
ATOM     18  N   LEU C 508       8.809  26.247   6.499  1.00 31.65 LIG-0.34  N 
ATOM     19 H    LEU C 508       8.978  25.466   6.820  1.00 31.65 LIG 0.16  HD
BRANCH 18 20
ATOM     20  CA  LEU C 508       8.314  27.199   7.481  1.00 32.20 LIG 0.18  C 
BRANCH 20 21
ATOM     21  CB  LEU C 508       7.050  26.644   8.124  1.00 32.28 LIG 0.04  C 
BRANCH 21 22
ATOM     22  CG  LEU C 508       5.845  27.442   7.639  1.00 33.09 LIG-0.02  C 
ATOM     23  CD1 LEU C 508       6.272  28.478   6.645  1.00 32.61 LIG 0.01  C 
ATOM     24  CD2 LEU C 508       4.792  26.494   7.083  1.00 34.13 LIG 0.01  C 
ENDBRANCH 21 22
ENDBRANCH 20 21
BRANCH 20 25
ATOM     25  C   LEU C 508       9.337  27.540   8.549  1.00 33.63 LIG 0.20  C 
ATOM     26 O    LEU C 508       9.585  28.746   8.762  0.50 32.81 LIG-0.65  OA
ATOM     27 OXT  LEU C 508       9.883  26.599   9.160  0.50 35.17 LIG-0.65  OA
ENDBRANCH 20 25
ENDBRANCH 18 20
ENDBRANCH 1 16
BRANCH 1 28
ATOM     28  CB  ASP C 507       8.524  24.250   4.362  1.00 31.02 LIG 0.15  C 
BRANCH 28 29
ATOM     29  CG  ASP C 507       7.594  24.215   3.167  1.00 34.22 LIG 0.17  C 
ATOM     30 OD2  ASP C 507       6.924  23.183   2.940  1.00 32.29 LIG-0.65  OA
ATOM     31 OD1  ASP C 507       7.571  25.216   2.426  1.00 33.73 LIG-0.65  OA
ENDBRANCH 28 29
ENDBRANCH 1 28
TORSDOF 13
ENDMDL
MODEL 22
USER: ADFR SOLUTION from run 34
USER: SCORE 12.540223 LL:  -2.205 LR: -11.265 RR:   0.000 FEB:  -7.387
USER: RMSD 8.382113
USER: SEED 33
USER: STATUS no improvement in best 7 clusters for 5 generations
USER: GENES 15
USER: genes 0 Translation |==|  0.72554 0.42244 0.64091
USER: genes 1 Rotation |==|  0.73025 0.28931 0.46742 0.88927
USER: genes 2 Torsion [CB]-CA--N-[C] |==|  0.85420
USER: genes 3 Torsion [N]-C--CA-[N] |==|  0.24729
USER: genes 4 Torsion [C]-CA--CB-[CG] |==|  0.14524
USER: genes 5 Torsion [CA]-CB--CG-[CD] |==|  0.68085
USER: genes 6 Torsion [CB]-CG--CD-[OE1] |==|  0.89976
USER: genes 7 Torsion [C]-CA--N-[H3] |==|  0.98093
USER: genes 8 Torsion [N]-CA--C-[N] |==|  0.77945
USER: genes 9 Torsion [C]-N--CA-[CB] |==|  0.30896
USER: genes 10 Torsion [N]-CA--CB-[CG] |==|  0.88118
USER: genes 11 Torsion [CA]-CB--CG-[CD1] |==|  0.43301
USER: genes 12 Torsion [N]-CA--C-[O] |==|  0.46366
USER: genes 13 Torsion [N]-CA--CB-[CG] |==|  0.56890
USER: genes 14 Torsion [CA]-CB--CG-[OD2] |==|  0.70172
ROOT
ATOM      1  CA  ASP C 507      15.216  23.043   8.617  1.00 33.68 LIG 0.19  C 
ENDROOT
BRANCH 1 2
ATOM      2  N   ASP C 507      14.681  23.862   7.537  1.00 35.05 LIG-0.34  N 
ATOM      3  C   GLU C 506      14.104  23.331   6.466  1.00 36.98 LIG 0.25  C 
ATOM      4 O    GLU C 506      14.017  22.112   6.280  1.00 35.33 LIG-0.27  OA
ATOM      5 H    ASP C 507      14.773  24.708   7.659  1.00 35.05 LIG 0.16  HD
BRANCH 3 6
ATOM      6  CA  GLU C 506      13.599  24.325   5.421  1.00 38.62 LIG 0.28  C 
BRANCH 6 7
ATOM      7  CB  GLU C 506      12.356  23.784   4.709  1.00 41.41 LIG 0.05  C 
BRANCH 7 8
ATOM      8  CG  GLU C 506      11.255  23.333   5.649  1.00 54.63 LIG 0.12  C 
BRANCH 8 9
ATOM      9  CD  GLU C 506      10.986  21.842   5.578  1.00 71.07 LIG 0.17  C 
ATOM     10 OE1  GLU C 506      11.075  21.267   4.468  1.00 74.77 LIG-0.65  OA
ATOM     11 OE2  GLU C 506      10.700  21.245   6.640  1.00 73.38 LIG-0.65  OA
ENDBRANCH 8 9
ENDBRANCH 7 8
ENDBRANCH 6 7
BRANCH 6 12
ATOM     12  N   GLU C 506      14.672  24.632   4.438  1.00 38.98 LIG-0.07  N 
ATOM     13 H3   GLU C 506      15.434  24.256   4.703  1.00 38.98 LIG 0.28  HD
ATOM     14 H2   GLU C 506      14.782  25.513   4.383  1.00 38.98 LIG 0.28  HD
ATOM     15 H1   GLU C 506      14.445  24.310   3.640  1.00 38.98 LIG 0.28  HD
ENDBRANCH 6 12
ENDBRANCH 3 6
ENDBRANCH 1 2
BRANCH 1 16
ATOM     16  C   ASP C 507      16.451  22.315   8.116  1.00 33.47 LIG 0.24  C 
ATOM     17 O    ASP C 507      17.581  22.701   8.425  1.00 34.83 LIG-0.27  OA
ATOM     18  N   LEU C 508      16.218  21.233   7.379  1.00 31.65 LIG-0.34  N 
ATOM     19 H    LEU C 508      15.430  20.958   7.170  1.00 31.65 LIG 0.16  HD
BRANCH 18 20
ATOM     20  CA  LEU C 508      17.295  20.407   6.853  1.00 32.20 LIG 0.18  C 
BRANCH 20 21
ATOM     21  CB  LEU C 508      17.282  19.059   7.560  1.00 32.28 LIG 0.04  C 
BRANCH 21 22
ATOM     22  CG  LEU C 508      17.052  19.274   9.052  1.00 33.09 LIG-0.02  C 
ATOM     23  CD1 LEU C 508      16.463  18.043   9.671  1.00 32.61 LIG 0.01  C 
ATOM     24  CD2 LEU C 508      18.353  19.699   9.716  1.00 34.13 LIG 0.01  C 
ENDBRANCH 21 22
ENDBRANCH 20 21
BRANCH 20 25
ATOM     25  C   LEU C 508      17.214  20.210   5.350  1.00 33.63 LIG 0.20  C 
ATOM     26 O    LEU C 508      18.211  19.734   4.765  0.50 32.81 LIG-0.65  OA
ATOM     27 OXT  LEU C 508      16.157  20.534   4.772  0.50 35.17 LIG-0.65  OA
ENDBRANCH 20 25
ENDBRANCH 18 20
ENDBRANCH 1 16
BRANCH 1 28
ATOM     28  CB  ASP C 507      14.149  22.065   9.101  1.00 31.02 LIG 0.15  C 
BRANCH 28 29
ATOM     29  CG  ASP C 507      14.384  21.631  10.533  1.00 34.22 LIG 0.17  C 
ATOM     30 OD2  ASP C 507      14.792  20.470  10.764  1.00 32.29 LIG-0.65  OA
ATOM     31 OD1  ASP C 507      14.116  22.447  11.434  1.00 33.73 LIG-0.65  OA
ENDBRANCH 28 29
ENDBRANCH 1 28
TORSDOF 13
ENDMDL
MODEL 23
USER: ADFR SOLUTION from run 115
USER: SCORE 12.158868 LL:  -1.584 LR: -11.249 RR:   0.000 FEB:  -7.371
USER: RMSD 8.022605
USER: SEED 114
USER: STATUS no improvement in best 7 clusters for 5 generations
USER: GENES 15
USER: genes 0 Translation |==|  0.72691 0.37479 0.59694
USER: genes 1 Rotation |==|  0.64547 0.44282 0.29529 0.92856
USER: genes 2 Torsion [CB]-CA--N-[C] |==|  0.53333
USER: genes 3 Torsion [N]-C--CA-[N] |==|  0.43561
USER: genes 4 Torsion [C]-CA--CB-[CG] |==|  0.17732
USER: genes 5 Torsion [CA]-CB--CG-[CD] |==|  0.65702
USER: genes 6 Torsion [CB]-CG--CD-[OE1] |==|  0.91015
USER: genes 7 Torsion [C]-CA--N-[H3] |==|  0.89403
USER: genes 8 Torsion [N]-CA--C-[N] |==|  0.27185
USER: genes 9 Torsion [C]-N--CA-[CB] |==|  0.80575
USER: genes 10 Torsion [N]-CA--CB-[CG] |==|  0.63039
USER: genes 11 Torsion [CA]-CB--CG-[CD1] |==|  0.41864
USER: genes 12 Torsion [N]-CA--C-[O] |==|  0.59749
USER: genes 13 Torsion [N]-CA--CB-[CG] |==|  0.84884
USER: genes 14 Torsion [CA]-CB--CG-[OD2] |==|  0.43021
ROOT
ATOM      1  CA  ASP C 507      15.257  21.614   7.298  1.00 33.68 LIG 0.19  C 
ENDROOT
BRANCH 1 2
ATOM      2  N   ASP C 507      14.408  22.732   6.909  1.00 35.05 LIG-0.34  N 
ATOM      3  C   GLU C 506      14.492  23.302   5.714  1.00 36.98 LIG 0.25  C 
ATOM      4 O    GLU C 506      15.320  22.964   4.861  1.00 35.33 LIG-0.27  OA
ATOM      5 H    ASP C 507      13.856  22.982   7.519  1.00 35.05 LIG 0.16  HD
BRANCH 3 6
ATOM      6  CA  GLU C 506      13.535  24.467   5.463  1.00 38.62 LIG 0.28  C 
BRANCH 6 7
ATOM      7  CB  GLU C 506      12.138  23.956   5.097  1.00 41.41 LIG 0.05  C 
BRANCH 7 8
ATOM      8  CG  GLU C 506      11.458  23.176   6.205  1.00 54.63 LIG 0.12  C 
BRANCH 8 9
ATOM      9  CD  GLU C 506      11.044  21.781   5.780  1.00 71.07 LIG 0.17  C 
ATOM     10 OE1  GLU C 506      10.702  21.590   4.590  1.00 74.77 LIG-0.65  OA
ATOM     11 OE2  GLU C 506      11.075  20.871   6.640  1.00 73.38 LIG-0.65  OA
ENDBRANCH 8 9
ENDBRANCH 7 8
ENDBRANCH 6 7
BRANCH 6 12
ATOM     12  N   GLU C 506      14.066  25.350   4.390  1.00 38.98 LIG-0.07  N 
ATOM     13 H3   GLU C 506      14.950  25.418   4.471  1.00 38.98 LIG 0.28  HD
ATOM     14 H2   GLU C 506      13.700  26.158   4.462  1.00 38.98 LIG 0.28  HD
ATOM     15 H1   GLU C 506      13.867  25.004   3.595  1.00 38.98 LIG 0.28  HD
ENDBRANCH 6 12
ENDBRANCH 3 6
ENDBRANCH 1 2
BRANCH 1 16
ATOM     16  C   ASP C 507      15.285  20.602   6.166  1.00 33.47 LIG 0.24  C 
ATOM     17 O    ASP C 507      14.357  19.806   6.007  1.00 34.83 LIG-0.27  OA
ATOM     18  N   LEU C 508      16.338  20.676   5.357  1.00 31.65 LIG-0.34  N 
ATOM     19 H    LEU C 508      16.982  21.238   5.462  1.00 31.65 LIG 0.16  HD
BRANCH 18 20
ATOM     20  CA  LEU C 508      16.495  19.800   4.206  1.00 32.20 LIG 0.18  C 
BRANCH 20 21
ATOM     21  CB  LEU C 508      16.776  18.384   4.689  1.00 32.28 LIG 0.04  C 
BRANCH 21 22
ATOM     22  CG  LEU C 508      17.949  17.807   3.906  1.00 33.09 LIG-0.02  C 
ATOM     23  CD1 LEU C 508      18.695  16.812   4.743  1.00 32.61 LIG 0.01  C 
ATOM     24  CD2 LEU C 508      17.450  17.215   2.596  1.00 34.13 LIG 0.01  C 
ENDBRANCH 21 22
ENDBRANCH 20 21
BRANCH 20 25
ATOM     25  C   LEU C 508      15.290  19.809   3.283  1.00 33.63 LIG 0.20  C 
ATOM     26 O    LEU C 508      14.979  18.741   2.712  0.50 32.81 LIG-0.65  OA
ATOM     27 OXT  LEU C 508      14.670  20.882   3.138  0.50 35.17 LIG-0.65  OA
ENDBRANCH 20 25
ENDBRANCH 18 20
ENDBRANCH 1 16
BRANCH 1 28
ATOM     28  CB  ASP C 507      14.733  20.992   8.590  1.00 31.02 LIG 0.15  C 
BRANCH 28 29
ATOM     29  CG  ASP C 507      14.587  22.018   9.695  1.00 34.22 LIG 0.17  C 
ATOM     30 OD2  ASP C 507      13.765  21.815  10.617  1.00 32.29 LIG-0.65  OA
ATOM     31 OD1  ASP C 507      15.270  23.056   9.613  1.00 33.73 LIG-0.65  OA
ENDBRANCH 28 29
ENDBRANCH 1 28
TORSDOF 13
ENDMDL
MODEL 24
USER: ADFR SOLUTION from run 64
USER: SCORE 12.440038 LL:  -1.645 LR: -11.253 RR:   0.000 FEB:  -7.375
USER: RMSD 7.107342
USER: SEED 63
USER: STATUS no improvement in best 11 clusters for 5 generations
USER: GENES 15
USER: genes 0 Translation |==|  0.61803 0.44946 0.62139
USER: genes 1 Rotation |==|  0.68342 0.52904 0.96399 0.51494
USER: genes 2 Torsion [CB]-CA--N-[C] |==|  0.53431
USER: genes 3 Torsion [N]-C--CA-[N] |==|  0.86464
USER: genes 4 Torsion [C]-CA--CB-[CG] |==|  0.95092
USER: genes 5 Torsion [CA]-CB--CG-[CD] |==|  0.23105
USER: genes 6 Torsion [CB]-CG--CD-[OE1] |==|  0.56288
USER: genes 7 Torsion [C]-CA--N-[H3] |==|  0.08464
USER: genes 8 Torsion [N]-CA--C-[N] |==|  0.36748
USER: genes 9 Torsion [C]-N--CA-[CB] |==|  0.15232
USER: genes 10 Torsion [N]-CA--CB-[CG] |==|  0.61416
USER: genes 11 Torsion [CA]-CB--CG-[CD1] |==|  0.69796
USER: genes 12 Torsion [N]-CA--C-[O] |==|  0.58911
USER: genes 13 Torsion [N]-CA--CB-[CG] |==|  0.78352
USER: genes 14 Torsion [CA]-CB--CG-[OD2] |==|  0.63100
ROOT
ATOM      1  CA  ASP C 507      11.991  23.854   8.032  1.00 33.68 LIG 0.19  C 
ENDROOT
BRANCH 1 2
ATOM      2  N   ASP C 507      12.732  23.898   6.778  1.00 35.05 LIG-0.34  N 
ATOM      3  C   GLU C 506      12.140  24.135   5.614  1.00 36.98 LIG 0.25  C 
ATOM      4 O    GLU C 506      10.920  24.290   5.497  1.00 35.33 LIG-0.27  OA
ATOM      5 H    ASP C 507      13.576  23.758   6.864  1.00 35.05 LIG 0.16  HD
BRANCH 3 6
ATOM      6  CA  GLU C 506      13.056  24.144   4.391  1.00 38.62 LIG 0.28  C 
BRANCH 6 7
ATOM      7  CB  GLU C 506      13.479  22.722   4.015  1.00 41.41 LIG 0.05  C 
BRANCH 7 8
ATOM      8  CG  GLU C 506      13.277  21.706   5.122  1.00 54.63 LIG 0.12  C 
BRANCH 8 9
ATOM      9  CD  GLU C 506      11.860  21.170   5.186  1.00 71.07 LIG 0.17  C 
ATOM     10 OE1  GLU C 506      11.450  20.683   6.265  1.00 74.77 LIG-0.65  OA
ATOM     11 OE2  GLU C 506      11.153  21.252   4.156  1.00 73.38 LIG-0.65  OA
ENDBRANCH 8 9
ENDBRANCH 7 8
ENDBRANCH 6 7
BRANCH 6 12
ATOM     12  N   GLU C 506      14.249  24.995   4.645  1.00 38.98 LIG-0.07  N 
ATOM     13 H3   GLU C 506      14.449  24.976   5.512  1.00 38.98 LIG 0.28  HD
ATOM     14 H2   GLU C 506      14.075  25.833   4.400  1.00 38.98 LIG 0.28  HD
ATOM     15 H1   GLU C 506      14.939  24.686   4.175  1.00 38.98 LIG 0.28  HD
ENDBRANCH 6 12
ENDBRANCH 3 6
ENDBRANCH 1 2
BRANCH 1 16
ATOM     16  C   ASP C 507      11.040  25.036   8.082  1.00 33.47 LIG 0.24  C 
ATOM     17 O    ASP C 507      11.420  26.166   7.765  1.00 34.83 LIG-0.27  OA
ATOM     18  N   LEU C 508       9.790  24.752   8.436  1.00 31.65 LIG-0.34  N 
ATOM     19 H    LEU C 508       9.522  23.962   8.648  1.00 31.65 LIG 0.16  HD
BRANCH 18 20
ATOM     20  CA  LEU C 508       8.752  25.769   8.498  1.00 32.20 LIG 0.18  C 
BRANCH 20 21
ATOM     21  CB  LEU C 508       8.670  26.483   7.156  1.00 32.28 LIG 0.04  C 
BRANCH 21 22
ATOM     22  CG  LEU C 508       8.481  27.978   7.390  1.00 33.09 LIG-0.02  C 
ATOM     23  CD1 LEU C 508       7.090  28.392   7.015  1.00 32.61 LIG 0.01  C 
ATOM     24  CD2 LEU C 508       8.826  28.319   8.832  1.00 34.13 LIG 0.01  C 
ENDBRANCH 21 22
ENDBRANCH 20 21
BRANCH 20 25
ATOM     25  C   LEU C 508       7.392  25.211   8.876  1.00 33.63 LIG 0.20  C 
ATOM     26 O    LEU C 508       6.376  25.762   8.400  0.50 32.81 LIG-0.65  OA
ATOM     27 OXT  LEU C 508       7.355  24.228   9.645  0.50 35.17 LIG-0.65  OA
ENDBRANCH 20 25
ENDBRANCH 18 20
ENDBRANCH 1 16
BRANCH 1 28
ATOM     28  CB  ASP C 507      12.965  23.870   9.207  1.00 31.02 LIG 0.15  C 
BRANCH 28 29
ATOM     29  CG  ASP C 507      13.600  22.514   9.437  1.00 34.22 LIG 0.17  C 
ATOM     30 OD2  ASP C 507      13.646  22.046  10.597  1.00 32.29 LIG-0.65  OA
ATOM     31 OD1  ASP C 507      14.095  21.935   8.452  1.00 33.73 LIG-0.65  OA
ENDBRANCH 28 29
ENDBRANCH 1 28
TORSDOF 13
ENDMDL
MODEL 25
USER: ADFR SOLUTION from run 6
USER: SCORE 12.714992 LL:  -2.201 LR: -11.243 RR:   0.000 FEB:  -7.366
USER: RMSD 5.903743
USER: SEED 565567
USER: STATUS no improvement in best 13 clusters for 5 generations
USER: GENES 15
USER: genes 0 Translation |==|  0.53100 0.47574 0.55086
USER: genes 1 Rotation |==|  0.52253 0.73251 0.93704 0.56655
USER: genes 2 Torsion [CB]-CA--N-[C] |==|  0.88167
USER: genes 3 Torsion [N]-C--CA-[N] |==|  0.50937
USER: genes 4 Torsion [C]-CA--CB-[CG] |==|  0.30080
USER: genes 5 Torsion [CA]-CB--CG-[CD] |==|  0.79665
USER: genes 6 Torsion [CB]-CG--CD-[OE1] |==|  0.26177
USER: genes 7 Torsion [C]-CA--N-[H3] |==|  0.27623
USER: genes 8 Torsion [N]-CA--C-[N] |==|  0.29444
USER: genes 9 Torsion [C]-N--CA-[CB] |==|  0.18888
USER: genes 10 Torsion [N]-CA--CB-[CG] |==|  0.08178
USER: genes 11 Torsion [CA]-CB--CG-[CD1] |==|  0.31199
USER: genes 12 Torsion [N]-CA--C-[O] |==|  0.95378
USER: genes 13 Torsion [N]-CA--CB-[CG] |==|  0.44397
USER: genes 14 Torsion [CA]-CB--CG-[OD2] |==|  0.21947
ROOT
ATOM      1  CA  ASP C 507       9.380  24.642   5.916  1.00 33.68 LIG 0.19  C 
ENDROOT
BRANCH 1 2
ATOM      2  N   ASP C 507      10.671  24.059   5.576  1.00 35.05 LIG-0.34  N 
ATOM      3  C   GLU C 506      11.734  24.804   5.298  1.00 36.98 LIG 0.25  C 
ATOM      4 O    GLU C 506      11.701  26.039   5.261  1.00 35.33 LIG-0.27  OA
ATOM      5 H    ASP C 507      10.678  23.199   5.574  1.00 35.05 LIG 0.16  HD
BRANCH 3 6
ATOM      6  CA  GLU C 506      13.012  24.040   4.957  1.00 38.62 LIG 0.28  C 
BRANCH 6 7
ATOM      7  CB  GLU C 506      13.355  23.030   6.055  1.00 41.41 LIG 0.05  C 
BRANCH 7 8
ATOM      8  CG  GLU C 506      13.132  21.585   5.654  1.00 54.63 LIG 0.12  C 
BRANCH 8 9
ATOM      9  CD  GLU C 506      11.666  21.206   5.586  1.00 71.07 LIG 0.17  C 
ATOM     10 OE1  GLU C 506      11.076  21.277   4.483  1.00 74.77 LIG-0.65  OA
ATOM     11 OE2  GLU C 506      11.109  20.823   6.640  1.00 73.38 LIG-0.65  OA
ENDBRANCH 8 9
ENDBRANCH 7 8
ENDBRANCH 6 7
BRANCH 6 12
ATOM     12  N   GLU C 506      14.140  24.988   4.747  1.00 38.98 LIG-0.07  N 
ATOM     13 H3   GLU C 506      14.637  25.026   5.484  1.00 38.98 LIG 0.28  HD
ATOM     14 H2   GLU C 506      13.818  25.797   4.565  1.00 38.98 LIG 0.28  HD
ATOM     15 H1   GLU C 506      14.640  24.708   4.066  1.00 38.98 LIG 0.28  HD
ENDBRANCH 6 12
ENDBRANCH 3 6
ENDBRANCH 1 2
BRANCH 1 16
ATOM     16  C   ASP C 507       8.687  25.077   4.637  1.00 33.47 LIG 0.24  C 
ATOM     17 O    ASP C 507       9.087  26.056   4.002  1.00 34.83 LIG-0.27  OA
ATOM     18  N   LEU C 508       7.674  24.309   4.244  1.00 31.65 LIG-0.34  N 
ATOM     19 H    LEU C 508       7.400  23.620   4.682  1.00 31.65 LIG 0.16  HD
BRANCH 18 20
ATOM     20  CA  LEU C 508       6.930  24.572   3.022  1.00 32.20 LIG 0.18  C 
BRANCH 20 21
ATOM     21  CB  LEU C 508       7.834  24.321   1.823  1.00 32.28 LIG 0.04  C 
BRANCH 21 22
ATOM     22  CG  LEU C 508       8.861  23.251   2.179  1.00 33.09 LIG-0.02  C 
ATOM     23  CD1 LEU C 508       8.607  22.002   1.391  1.00 32.61 LIG 0.01  C 
ATOM     24  CD2 LEU C 508      10.265  23.799   1.973  1.00 34.13 LIG 0.01  C 
ENDBRANCH 21 22
ENDBRANCH 20 21
BRANCH 20 25
ATOM     25  C   LEU C 508       5.664  23.743   2.905  1.00 33.63 LIG 0.20  C 
ATOM     26 O    LEU C 508       5.547  22.741   3.643  0.50 32.81 LIG-0.65  OA
ATOM     27 OXT  LEU C 508       4.803  24.102   2.076  0.50 35.17 LIG-0.65  OA
ENDBRANCH 20 25
ENDBRANCH 18 20
ENDBRANCH 1 16
BRANCH 1 28
ATOM     28  CB  ASP C 507       9.580  25.817   6.870  1.00 31.02 LIG 0.15  C 
BRANCH 28 29
ATOM     29  CG  ASP C 507       8.387  26.751   6.877  1.00 34.22 LIG 0.17  C 
ATOM     30 OD2  ASP C 507       7.367  26.440   7.533  1.00 32.29 LIG-0.65  OA
ATOM     31 OD1  ASP C 507       8.458  27.783   6.185  1.00 33.73 LIG-0.65  OA
ENDBRANCH 28 29
ENDBRANCH 1 28
TORSDOF 13
ENDMDL
MODEL 26
USER: ADFR SOLUTION from run 49
USER: SCORE 12.377489 LL:  -1.268 LR: -11.200 RR:   0.000 FEB:  -7.322
USER: RMSD 7.930175
USER: SEED 48
USER: STATUS no improvement in best 10 clusters for 5 generations
USER: GENES 15
USER: genes 0 Translation |==|  0.71058 0.42761 0.63405
USER: genes 1 Rotation |==|  0.52682 0.28154 0.31196 0.90767
USER: genes 2 Torsion [CB]-CA--N-[C] |==|  0.86658
USER: genes 3 Torsion [N]-C--CA-[N] |==|  0.02373
USER: genes 4 Torsion [C]-CA--CB-[CG] |==|  0.91408
USER: genes 5 Torsion [CA]-CB--CG-[CD] |==|  0.30562
USER: genes 6 Torsion [CB]-CG--CD-[OE1] |==|  0.15980
USER: genes 7 Torsion [C]-CA--N-[H3] |==|  0.27741
USER: genes 8 Torsion [N]-CA--C-[N] |==|  0.36585
USER: genes 9 Torsion [C]-N--CA-[CB] |==|  0.30441
USER: genes 10 Torsion [N]-CA--CB-[CG] |==|  0.86028
USER: genes 11 Torsion [CA]-CB--CG-[CD1] |==|  0.47712
USER: genes 12 Torsion [N]-CA--C-[O] |==|  0.46482
USER: genes 13 Torsion [N]-CA--CB-[CG] |==|  0.47270
USER: genes 14 Torsion [CA]-CB--CG-[OD2] |==|  0.27170
ROOT
ATOM      1  CA  ASP C 507      14.768  23.198   8.412  1.00 33.68 LIG 0.19  C 
ENDROOT
BRANCH 1 2
ATOM      2  N   ASP C 507      14.480  23.863   7.148  1.00 35.05 LIG-0.34  N 
ATOM      3  C   GLU C 506      13.265  23.871   6.612  1.00 36.98 LIG 0.25  C 
ATOM      4 O    GLU C 506      12.302  23.282   7.115  1.00 35.33 LIG-0.27  OA
ATOM      5 H    ASP C 507      15.161  24.244   6.788  1.00 35.05 LIG 0.16  HD
BRANCH 3 6
ATOM      6  CA  GLU C 506      13.129  24.608   5.280  1.00 38.62 LIG 0.28  C 
BRANCH 6 7
ATOM      7  CB  GLU C 506      12.385  23.749   4.255  1.00 41.41 LIG 0.05  C 
BRANCH 7 8
ATOM      8  CG  GLU C 506      12.597  22.258   4.429  1.00 54.63 LIG 0.12  C 
BRANCH 8 9
ATOM      9  CD  GLU C 506      11.358  21.536   4.921  1.00 71.07 LIG 0.17  C 
ATOM     10 OE1  GLU C 506      10.305  21.619   4.248  1.00 74.77 LIG-0.65  OA
ATOM     11 OE2  GLU C 506      11.446  20.871   5.978  1.00 73.38 LIG-0.65  OA
ENDBRANCH 8 9
ENDBRANCH 7 8
ENDBRANCH 6 7
BRANCH 6 12
ATOM     12  N   GLU C 506      14.470  24.995   4.765  1.00 38.98 LIG-0.07  N 
ATOM     13 H3   GLU C 506      14.729  24.413   4.143  1.00 38.98 LIG 0.28  HD
ATOM     14 H2   GLU C 506      15.057  24.994   5.433  1.00 38.98 LIG 0.28  HD
ATOM     15 H1   GLU C 506      14.427  25.809   4.408  1.00 38.98 LIG 0.28  HD
ENDBRANCH 6 12
ENDBRANCH 3 6
ENDBRANCH 1 2
BRANCH 1 16
ATOM     16  C   ASP C 507      14.783  21.697   8.184  1.00 33.47 LIG 0.24  C 
ATOM     17 O    ASP C 507      13.893  21.149   7.530  1.00 34.83 LIG-0.27  OA
ATOM     18  N   LEU C 508      15.829  21.051   8.690  1.00 31.65 LIG-0.34  N 
ATOM     19 H    LEU C 508      16.456  21.435   9.138  1.00 31.65 LIG 0.16  HD
BRANCH 18 20
ATOM     20  CA  LEU C 508      16.008  19.617   8.527  1.00 32.20 LIG 0.18  C 
BRANCH 20 21
ATOM     21  CB  LEU C 508      17.168  19.362   7.575  1.00 32.28 LIG 0.04  C 
BRANCH 21 22
ATOM     22  CG  LEU C 508      16.977  20.193   6.311  1.00 33.09 LIG-0.02  C 
ATOM     23  CD1 LEU C 508      18.198  20.116   5.447  1.00 32.61 LIG 0.01  C 
ATOM     24  CD2 LEU C 508      15.716  19.743   5.588  1.00 34.13 LIG 0.01  C 
ENDBRANCH 21 22
ENDBRANCH 20 21
BRANCH 20 25
ATOM     25  C   LEU C 508      16.240  18.892   9.841  1.00 33.63 LIG 0.20  C 
ATOM     26 O    LEU C 508      16.165  17.645   9.846  0.50 32.81 LIG-0.65  OA
ATOM     27 OXT  LEU C 508      16.493  19.579  10.852  0.50 35.17 LIG-0.65  OA
ENDBRANCH 20 25
ENDBRANCH 18 20
ENDBRANCH 1 16
BRANCH 1 28
ATOM     28  CB  ASP C 507      13.724  23.595   9.453  1.00 31.02 LIG 0.15  C 
BRANCH 28 29
ATOM     29  CG  ASP C 507      13.829  22.757  10.710  1.00 34.22 LIG 0.17  C 
ATOM     30 OD2  ASP C 507      14.450  23.209  11.699  1.00 32.29 LIG-0.65  OA
ATOM     31 OD1  ASP C 507      13.324  21.619  10.689  1.00 33.73 LIG-0.65  OA
ENDBRANCH 28 29
ENDBRANCH 1 28
TORSDOF 13
ENDMDL
MODEL 27
USER: ADFR SOLUTION from run 95
USER: SCORE 12.183972 LL:  -2.068 LR: -11.183 RR:   0.000 FEB:  -7.305
USER: RMSD 9.726359
USER: SEED 94
USER: STATUS no improvement in best 20 clusters for 5 generations
USER: GENES 15
USER: genes 0 Translation |==|  0.74269 0.34600 0.54827
USER: genes 1 Rotation |==|  0.09347 0.75607 0.38670 0.57951
USER: genes 2 Torsion [CB]-CA--N-[C] |==|  0.15556
USER: genes 3 Torsion [N]-C--CA-[N] |==|  0.32065
USER: genes 4 Torsion [C]-CA--CB-[CG] |==|  0.16707
USER: genes 5 Torsion [CA]-CB--CG-[CD] |==|  0.70525
USER: genes 6 Torsion [CB]-CG--CD-[OE1] |==|  0.41523
USER: genes 7 Torsion [C]-CA--N-[H3] |==|  0.17112
USER: genes 8 Torsion [N]-CA--C-[N] |==|  0.75381
USER: genes 9 Torsion [C]-N--CA-[CB] |==|  0.26632
USER: genes 10 Torsion [N]-CA--CB-[CG] |==|  0.82202
USER: genes 11 Torsion [CA]-CB--CG-[CD1] |==|  0.37851
USER: genes 12 Torsion [N]-CA--C-[O] |==|  0.41363
USER: genes 13 Torsion [N]-CA--CB-[CG] |==|  0.51396
USER: genes 14 Torsion [CA]-CB--CG-[OD2] |==|  0.16242
ROOT
ATOM      1  CA  ASP C 507      15.731  20.750   5.838  1.00 33.68 LIG 0.19  C 
ENDROOT
BRANCH 1 2
ATOM      2  N   ASP C 507      15.168  22.084   5.995  1.00 35.05 LIG-0.34  N 
ATOM      3  C   GLU C 506      14.351  22.619   5.096  1.00 36.98 LIG 0.25  C 
ATOM      4 O    GLU C 506      14.042  22.051   4.043  1.00 35.33 LIG-0.27  OA
ATOM      5 H    ASP C 507      15.412  22.486   6.716  1.00 35.05 LIG 0.16  HD
BRANCH 3 6
ATOM      6  CA  GLU C 506      13.850  24.029   5.406  1.00 38.62 LIG 0.28  C 
BRANCH 6 7
ATOM      7  CB  GLU C 506      12.321  24.065   5.467  1.00 41.41 LIG 0.05  C 
BRANCH 7 8
ATOM      8  CG  GLU C 506      11.726  23.160   6.529  1.00 54.63 LIG 0.12  C 
BRANCH 8 9
ATOM      9  CD  GLU C 506      11.078  21.916   5.954  1.00 71.07 LIG 0.17  C 
ATOM     10 OE1  GLU C 506      11.075  20.868   6.640  1.00 74.77 LIG-0.65  OA
ATOM     11 OE2  GLU C 506      10.558  21.995   4.818  1.00 73.38 LIG-0.65  OA
ENDBRANCH 8 9
ENDBRANCH 7 8
ENDBRANCH 6 7
BRANCH 6 12
ATOM     12  N   GLU C 506      14.356  24.991   4.390  1.00 38.98 LIG-0.07  N 
ATOM     13 H3   GLU C 506      14.048  24.765   3.587  1.00 38.98 LIG 0.28  HD
ATOM     14 H2   GLU C 506      15.246  24.974   4.381  1.00 38.98 LIG 0.28  HD
ATOM     15 H1   GLU C 506      14.077  25.812   4.594  1.00 38.98 LIG 0.28  HD
ENDBRANCH 6 12
ENDBRANCH 3 6
ENDBRANCH 1 2
BRANCH 1 16
ATOM     16  C   ASP C 507      16.650  20.464   7.012  1.00 33.47 LIG 0.24  C 
ATOM     17 O    ASP C 507      16.233  19.877   8.013  1.00 34.83 LIG-0.27  OA
ATOM     18  N   LEU C 508      17.915  20.843   6.855  1.00 31.65 LIG-0.34  N 
ATOM     19 H    LEU C 508      18.209  21.245   6.153  1.00 31.65 LIG 0.16  HD
BRANCH 18 20
ATOM     20  CA  LEU C 508      18.927  20.609   7.874  1.00 32.20 LIG 0.18  C 
BRANCH 20 21
ATOM     21  CB  LEU C 508      19.682  19.329   7.544  1.00 32.28 LIG 0.04  C 
BRANCH 21 22
ATOM     22  CG  LEU C 508      18.723  18.145   7.613  1.00 33.09 LIG-0.02  C 
ATOM     23  CD1 LEU C 508      18.940  17.230   6.446  1.00 32.61 LIG 0.01  C 
ATOM     24  CD2 LEU C 508      18.877  17.437   8.951  1.00 34.13 LIG 0.01  C 
ENDBRANCH 21 22
ENDBRANCH 20 21
BRANCH 20 25
ATOM     25  C   LEU C 508      19.899  21.765   8.025  1.00 33.63 LIG 0.20  C 
ATOM     26 O    LEU C 508      20.392  21.975   9.154  0.50 32.81 LIG-0.65  OA
ATOM     27 OXT  LEU C 508      20.158  22.450   7.014  0.50 35.17 LIG-0.65  OA
ENDBRANCH 20 25
ENDBRANCH 18 20
ENDBRANCH 1 16
BRANCH 1 28
ATOM     28  CB  ASP C 507      16.476  20.658   4.509  1.00 31.02 LIG 0.15  C 
BRANCH 28 29
ATOM     29  CG  ASP C 507      16.979  19.255   4.236  1.00 34.22 LIG 0.17  C 
ATOM     30 OD2  ASP C 507      16.161  18.309   4.187  1.00 32.29 LIG-0.65  OA
ATOM     31 OD1  ASP C 507      18.208  19.096   4.115  1.00 33.73 LIG-0.65  OA
ENDBRANCH 28 29
ENDBRANCH 1 28
TORSDOF 13
ENDMDL
MODEL 28
USER: ADFR SOLUTION from run 16
USER: SCORE 12.364203 LL:  -1.541 LR: -11.165 RR:   0.000 FEB:  -7.288
USER: RMSD 9.301417
USER: SEED 445530
USER: STATUS no improvement in best 12 clusters for 5 generations
USER: GENES 15
USER: genes 0 Translation |==|  0.72452 0.35020 0.52680
USER: genes 1 Rotation |==|  0.09338 0.73322 0.33103 0.54144
USER: genes 2 Torsion [CB]-CA--N-[C] |==|  0.52223
USER: genes 3 Torsion [N]-C--CA-[N] |==|  0.92127
USER: genes 4 Torsion [C]-CA--CB-[CG] |==|  0.15472
USER: genes 5 Torsion [CA]-CB--CG-[CD] |==|  0.72989
USER: genes 6 Torsion [CB]-CG--CD-[OE1] |==|  0.89118
USER: genes 7 Torsion [C]-CA--N-[H3] |==|  0.59288
USER: genes 8 Torsion [N]-CA--C-[N] |==|  0.43905
USER: genes 9 Torsion [C]-N--CA-[CB] |==|  0.88953
USER: genes 10 Torsion [N]-CA--CB-[CG] |==|  0.83701
USER: genes 11 Torsion [CA]-CB--CG-[CD1] |==|  0.48699
USER: genes 12 Torsion [N]-CA--C-[O] |==|  0.99150
USER: genes 13 Torsion [N]-CA--CB-[CG] |==|  0.46083
USER: genes 14 Torsion [CA]-CB--CG-[OD2] |==|  0.67602
ROOT
ATOM      1  CA  ASP C 507      15.186  20.876   5.194  1.00 33.68 LIG 0.19  C 
ENDROOT
BRANCH 1 2
ATOM      2  N   ASP C 507      14.623  22.195   4.938  1.00 35.05 LIG-0.34  N 
ATOM      3  C   GLU C 506      13.933  22.861   5.856  1.00 36.98 LIG 0.25  C 
ATOM      4 O    GLU C 506      13.679  22.401   6.974  1.00 35.33 LIG-0.27  OA
ATOM      5 H    ASP C 507      14.777  22.496   4.147  1.00 35.05 LIG 0.16  HD
BRANCH 3 6
ATOM      6  CA  GLU C 506      13.406  24.230   5.430  1.00 38.62 LIG 0.28  C 
BRANCH 6 7
ATOM      7  CB  GLU C 506      11.967  24.125   4.918  1.00 41.41 LIG 0.05  C 
BRANCH 7 8
ATOM      8  CG  GLU C 506      11.006  23.494   5.905  1.00 54.63 LIG 0.12  C 
BRANCH 8 9
ATOM      9  CD  GLU C 506      10.776  22.017   5.650  1.00 71.07 LIG 0.17  C 
ATOM     10 OE1  GLU C 506      10.685  21.618   4.466  1.00 74.77 LIG-0.65  OA
ATOM     11 OE2  GLU C 506      10.701  21.254   6.640  1.00 73.38 LIG-0.65  OA
ENDBRANCH 8 9
ENDBRANCH 7 8
ENDBRANCH 6 7
BRANCH 6 12
ATOM     12  N   GLU C 506      14.289  24.824   4.390  1.00 38.98 LIG-0.07  N 
ATOM     13 H3   GLU C 506      14.307  25.708   4.485  1.00 38.98 LIG 0.28  HD
ATOM     14 H2   GLU C 506      13.976  24.620   3.582  1.00 38.98 LIG 0.28  HD
ATOM     15 H1   GLU C 506      15.113  24.499   4.480  1.00 38.98 LIG 0.28  HD
ENDBRANCH 6 12
ENDBRANCH 3 6
ENDBRANCH 1 2
BRANCH 1 16
ATOM     16  C   ASP C 507      15.959  20.918   6.500  1.00 33.47 LIG 0.24  C 
ATOM     17 O    ASP C 507      16.341  21.990   6.974  1.00 34.83 LIG-0.27  OA
ATOM     18  N   LEU C 508      16.140  19.743   7.097  1.00 31.65 LIG-0.34  N 
ATOM     19 H    LEU C 508      15.865  18.995   6.771  1.00 31.65 LIG 0.16  HD
BRANCH 18 20
ATOM     20  CA  LEU C 508      16.830  19.619   8.371  1.00 32.20 LIG 0.18  C 
BRANCH 20 21
ATOM     21  CB  LEU C 508      18.019  20.570   8.391  1.00 32.28 LIG 0.04  C 
BRANCH 21 22
ATOM     22  CG  LEU C 508      18.955  20.232   7.235  1.00 33.09 LIG-0.02  C 
ATOM     23  CD1 LEU C 508      20.075  21.226   7.165  1.00 32.61 LIG 0.01  C 
ATOM     24  CD2 LEU C 508      19.449  18.800   7.377  1.00 34.13 LIG 0.01  C 
ENDBRANCH 21 22
ENDBRANCH 20 21
BRANCH 20 25
ATOM     25  C   LEU C 508      15.930  19.883   9.565  1.00 33.63 LIG 0.20  C 
ATOM     26 O    LEU C 508      14.748  20.225   9.345  0.50 32.81 LIG-0.65  OA
ATOM     27 OXT  LEU C 508      16.415  19.745  10.706  0.50 35.17 LIG-0.65  OA
ENDBRANCH 20 25
ENDBRANCH 18 20
ENDBRANCH 1 16
BRANCH 1 28
ATOM     28  CB  ASP C 507      16.081  20.462   4.029  1.00 31.02 LIG 0.15  C 
BRANCH 28 29
ATOM     29  CG  ASP C 507      16.955  19.275   4.378  1.00 34.22 LIG 0.17  C 
ATOM     30 OD2  ASP C 507      18.199  19.411   4.390  1.00 32.29 LIG-0.65  OA
ATOM     31 OD1  ASP C 507      16.390  18.188   4.600  1.00 33.73 LIG-0.65  OA
ENDBRANCH 28 29
ENDBRANCH 1 28
TORSDOF 13
ENDMDL
MODEL 29
USER: ADFR SOLUTION from run 143
USER: SCORE 12.445169 LL:  -1.763 LR: -11.132 RR:   0.000 FEB:  -7.254
USER: RMSD 8.662381
USER: SEED 142
USER: STATUS no improvement in best 14 clusters for 5 generations
USER: GENES 15
USER: genes 0 Translation |==|  0.59697 0.40775 0.43883
USER: genes 1 Rotation |==|  0.45877 0.06940 0.73631 0.58392
USER: genes 2 Torsion [CB]-CA--N-[C] |==|  0.78296
USER: genes 3 Torsion [N]-C--CA-[N] |==|  0.19005
USER: genes 4 Torsion [C]-CA--CB-[CG] |==|  0.30756
USER: genes 5 Torsion [CA]-CB--CG-[CD] |==|  0.29027
USER: genes 6 Torsion [CB]-CG--CD-[OE1] |==|  0.03792
USER: genes 7 Torsion [C]-CA--N-[H3] |==|  0.43777
USER: genes 8 Torsion [N]-CA--C-[N] |==|  0.14444
USER: genes 9 Torsion [C]-N--CA-[CB] |==|  0.84717
USER: genes 10 Torsion [N]-CA--CB-[CG] |==|  0.63215
USER: genes 11 Torsion [CA]-CB--CG-[CD1] |==|  0.68331
USER: genes 12 Torsion [N]-CA--C-[O] |==|  0.32652
USER: genes 13 Torsion [N]-CA--CB-[CG] |==|  0.54812
USER: genes 14 Torsion [CA]-CB--CG-[OD2] |==|  0.94357
ROOT
ATOM      1  CA  ASP C 507      11.359  22.602   2.555  1.00 33.68 LIG 0.19  C 
ENDROOT
BRANCH 1 2
ATOM      2  N   ASP C 507      12.797  22.382   2.641  1.00 35.05 LIG-0.34  N 
ATOM      3  C   GLU C 506      13.327  21.480   3.459  1.00 36.98 LIG 0.25  C 
ATOM      4 O    GLU C 506      12.652  20.795   4.236  1.00 35.33 LIG-0.27  OA
ATOM      5 H    ASP C 507      13.261  22.884   2.120  1.00 35.05 LIG 0.16  HD
BRANCH 3 6
ATOM      6  CA  GLU C 506      14.851  21.373   3.435  1.00 38.62 LIG 0.28  C 
BRANCH 6 7
ATOM      7  CB  GLU C 506      15.323  20.131   4.194  1.00 41.41 LIG 0.05  C 
BRANCH 7 8
ATOM      8  CG  GLU C 506      15.913  19.053   3.305  1.00 54.63 LIG 0.12  C 
BRANCH 8 9
ATOM      9  CD  GLU C 506      17.426  18.984   3.381  1.00 71.07 LIG 0.17  C 
ATOM     10 OE1  GLU C 506      18.011  19.590   4.308  1.00 74.77 LIG-0.65  OA
ATOM     11 OE2  GLU C 506      18.027  18.307   2.516  1.00 73.38 LIG-0.65  OA
ENDBRANCH 8 9
ENDBRANCH 7 8
ENDBRANCH 6 7
BRANCH 6 12
ATOM     12  N   GLU C 506      15.463  22.602   4.009  1.00 38.98 LIG-0.07  N 
ATOM     13 H3   GLU C 506      16.287  22.419   4.290  1.00 38.98 LIG 0.28  HD
ATOM     14 H2   GLU C 506      14.973  22.886   4.695  1.00 38.98 LIG 0.28  HD
ATOM     15 H1   GLU C 506      15.497  23.236   3.385  1.00 38.98 LIG 0.28  HD
ENDBRANCH 6 12
ENDBRANCH 3 6
ENDBRANCH 1 2
BRANCH 1 16
ATOM     16  C   ASP C 507      10.783  22.636   3.959  1.00 33.47 LIG 0.24  C 
ATOM     17 O    ASP C 507       9.850  21.895   4.277  1.00 34.83 LIG-0.27  OA
ATOM     18  N   LEU C 508      11.381  23.471   4.804  1.00 31.65 LIG-0.34  N 
ATOM     19 H    LEU C 508      12.038  23.982   4.585  1.00 31.65 LIG 0.16  HD
BRANCH 18 20
ATOM     20  CA  LEU C 508      10.969  23.594   6.194  1.00 32.20 LIG 0.18  C 
BRANCH 20 21
ATOM     21  CB  LEU C 508       9.483  23.918   6.249  1.00 32.28 LIG 0.04  C 
BRANCH 21 22
ATOM     22  CG  LEU C 508       9.253  25.078   7.211  1.00 33.09 LIG-0.02  C 
ATOM     23  CD1 LEU C 508       8.468  24.619   8.402  1.00 32.61 LIG 0.01  C 
ATOM     24  CD2 LEU C 508      10.589  25.699   7.593  1.00 34.13 LIG 0.01  C 
ENDBRANCH 21 22
ENDBRANCH 20 21
BRANCH 20 25
ATOM     25  C   LEU C 508      11.265  22.352   7.015  1.00 33.63 LIG 0.20  C 
ATOM     26 O    LEU C 508      12.059  22.457   7.974  0.50 32.81 LIG-0.65  OA
ATOM     27 OXT  LEU C 508      10.700  21.287   6.691  0.50 35.17 LIG-0.65  OA
ENDBRANCH 20 25
ENDBRANCH 18 20
ENDBRANCH 1 16
BRANCH 1 28
ATOM     28  CB  ASP C 507      10.718  21.501   1.714  1.00 31.02 LIG 0.15  C 
BRANCH 28 29
ATOM     29  CG  ASP C 507       9.332  21.886   1.238  1.00 34.22 LIG 0.17  C 
ATOM     30 OD2  ASP C 507       8.706  22.790   1.835  1.00 32.29 LIG-0.65  OA
ATOM     31 OD1  ASP C 507       8.851  21.245   0.284  1.00 33.73 LIG-0.65  OA
ENDBRANCH 28 29
ENDBRANCH 1 28
TORSDOF 13
ENDMDL
MODEL 30
USER: ADFR SOLUTION from run 82
USER: SCORE 12.691782 LL:  -2.132 LR: -11.096 RR:   0.000 FEB:  -7.219
USER: RMSD 7.903587
USER: SEED 81
USER: STATUS no improvement in best 6 clusters for 5 generations
USER: GENES 15
USER: genes 0 Translation |==|  0.68067 0.35080 0.56245
USER: genes 1 Rotation |==|  0.88022 0.26946 0.39040 0.70068
USER: genes 2 Torsion [CB]-CA--N-[C] |==|  0.83326
USER: genes 3 Torsion [N]-C--CA-[N] |==|  0.38468
USER: genes 4 Torsion [C]-CA--CB-[CG] |==|  0.17837
USER: genes 5 Torsion [CA]-CB--CG-[CD] |==|  0.15686
USER: genes 6 Torsion [CB]-CG--CD-[OE1] |==|  0.28095
USER: genes 7 Torsion [C]-CA--N-[H3] |==|  0.45427
USER: genes 8 Torsion [N]-CA--C-[N] |==|  0.48878
USER: genes 9 Torsion [C]-N--CA-[CB] |==|  0.83196
USER: genes 10 Torsion [N]-CA--CB-[CG] |==|  0.69222
USER: genes 11 Torsion [CA]-CB--CG-[CD1] |==|  0.96512
USER: genes 12 Torsion [N]-CA--C-[O] |==|  0.63819
USER: genes 13 Torsion [N]-CA--CB-[CG] |==|  0.91924
USER: genes 14 Torsion [CA]-CB--CG-[OD2] |==|  0.81388
ROOT
ATOM      1  CA  ASP C 507      13.870  20.894   6.263  1.00 33.68 LIG 0.19  C 
ENDROOT
BRANCH 1 2
ATOM      2  N   ASP C 507      13.600  22.326   6.268  1.00 35.05 LIG-0.34  N 
ATOM      3  C   GLU C 506      13.522  23.035   5.149  1.00 36.98 LIG 0.25  C 
ATOM      4 O    GLU C 506      13.716  22.551   4.028  1.00 35.33 LIG-0.27  OA
ATOM      5 H    ASP C 507      13.497  22.661   7.053  1.00 35.05 LIG 0.16  HD
BRANCH 3 6
ATOM      6  CA  GLU C 506      13.237  24.526   5.324  1.00 38.62 LIG 0.28  C 
BRANCH 6 7
ATOM      7  CB  GLU C 506      11.752  24.827   5.107  1.00 41.41 LIG 0.05  C 
BRANCH 7 8
ATOM      8  CG  GLU C 506      10.836  24.181   6.127  1.00 54.63 LIG 0.12  C 
BRANCH 8 9
ATOM      9  CD  GLU C 506      11.180  24.556   7.556  1.00 71.07 LIG 0.17  C 
ATOM     10 OE1  GLU C 506      10.490  25.429   8.131  1.00 74.77 LIG-0.65  OA
ATOM     11 OE2  GLU C 506      12.134  23.961   8.106  1.00 73.38 LIG-0.65  OA
ENDBRANCH 8 9
ENDBRANCH 7 8
ENDBRANCH 6 7
BRANCH 6 12
ATOM     12  N   GLU C 506      14.075  25.325   4.390  1.00 38.98 LIG-0.07  N 
ATOM     13 H3   GLU C 506      13.744  26.149   4.324  1.00 38.98 LIG 0.28  HD
ATOM     14 H2   GLU C 506      14.074  24.941   3.587  1.00 38.98 LIG 0.28  HD
ATOM     15 H1   GLU C 506      14.908  25.365   4.700  1.00 38.98 LIG 0.28  HD
ENDBRANCH 6 12
ENDBRANCH 3 6
ENDBRANCH 1 2
BRANCH 1 16
ATOM     16  C   ASP C 507      15.241  20.656   5.655  1.00 33.47 LIG 0.24  C 
ATOM     17 O    ASP C 507      15.916  21.596   5.232  1.00 34.83 LIG-0.27  OA
ATOM     18  N   LEU C 508      15.659  19.393   5.662  1.00 31.65 LIG-0.34  N 
ATOM     19 H    LEU C 508      15.192  18.737   5.966  1.00 31.65 LIG 0.16  HD
BRANCH 18 20
ATOM     20  CA  LEU C 508      16.964  19.006   5.148  1.00 32.20 LIG 0.18  C 
BRANCH 20 21
ATOM     21  CB  LEU C 508      17.051  19.377   3.674  1.00 32.28 LIG 0.04  C 
BRANCH 21 22
ATOM     22  CG  LEU C 508      17.065  18.105   2.832  1.00 33.09 LIG-0.02  C 
ATOM     23  CD1 LEU C 508      17.296  16.908   3.703  1.00 32.61 LIG 0.01  C 
ATOM     24  CD2 LEU C 508      15.776  18.007   2.030  1.00 34.13 LIG 0.01  C 
ENDBRANCH 21 22
ENDBRANCH 20 21
BRANCH 20 25
ATOM     25  C   LEU C 508      18.115  19.631   5.913  1.00 33.63 LIG 0.20  C 
ATOM     26 O    LEU C 508      19.015  20.201   5.260  0.50 32.81 LIG-0.65  OA
ATOM     27 OXT  LEU C 508      18.108  19.543   7.158  0.50 35.17 LIG-0.65  OA
ENDBRANCH 20 25
ENDBRANCH 18 20
ENDBRANCH 1 16
BRANCH 1 28
ATOM     28  CB  ASP C 507      12.778  20.165   5.484  1.00 31.02 LIG 0.15  C 
BRANCH 28 29
ATOM     29  CG  ASP C 507      11.453  20.895   5.547  1.00 34.22 LIG 0.17  C 
ATOM     30 OD2  ASP C 507      10.848  20.978   6.640  1.00 32.29 LIG-0.65  OA
ATOM     31 OD1  ASP C 507      10.994  21.352   4.483  1.00 33.73 LIG-0.65  OA
ENDBRANCH 28 29
ENDBRANCH 1 28
TORSDOF 13
ENDMDL
MODEL 31
USER: ADFR SOLUTION from run 24
USER: SCORE 12.468249 LL:  -1.831 LR: -11.094 RR:   0.000 FEB:  -7.216
USER: RMSD 9.084718
USER: SEED 23
USER: STATUS no improvement in best 7 clusters for 5 generations
USER: GENES 15
USER: genes 0 Translation |==|  0.69473 0.33738 0.50860
USER: genes 1 Rotation |==|  0.92136 0.24482 0.53316 0.57900
USER: genes 2 Torsion [CB]-CA--N-[C] |==|  0.53334
USER: genes 3 Torsion [N]-C--CA-[N] |==|  0.79475
USER: genes 4 Torsion [C]-CA--CB-[CG] |==|  0.17061
USER: genes 5 Torsion [CA]-CB--CG-[CD] |==|  0.73790
USER: genes 6 Torsion [CB]-CG--CD-[OE1] |==|  0.40617
USER: genes 7 Torsion [C]-CA--N-[H3] |==|  0.82340
USER: genes 8 Torsion [N]-CA--C-[N] |==|  0.37191
USER: genes 9 Torsion [C]-N--CA-[CB] |==|  0.42444
USER: genes 10 Torsion [N]-CA--CB-[CG] |==|  0.89517
USER: genes 11 Torsion [CA]-CB--CG-[CD1] |==|  0.46645
USER: genes 12 Torsion [N]-CA--C-[O] |==|  0.20048
USER: genes 13 Torsion [N]-CA--CB-[CG] |==|  0.51766
USER: genes 14 Torsion [CA]-CB--CG-[OD2] |==|  0.08554
ROOT
ATOM      1  CA  ASP C 507      14.292  20.491   4.648  1.00 33.68 LIG 0.19  C 
ENDROOT
BRANCH 1 2
ATOM      2  N   ASP C 507      13.851  21.879   4.600  1.00 35.05 LIG-0.34  N 
ATOM      3  C   GLU C 506      14.082  22.730   5.592  1.00 36.98 LIG 0.25  C 
ATOM      4 O    GLU C 506      14.644  22.404   6.644  1.00 35.33 LIG-0.27  OA
ATOM      5 H    ASP C 507      13.432  22.090   3.879  1.00 35.05 LIG 0.16  HD
BRANCH 3 6
ATOM      6  CA  GLU C 506      13.550  24.148   5.391  1.00 38.62 LIG 0.28  C 
BRANCH 6 7
ATOM      7  CB  GLU C 506      12.087  24.124   4.942  1.00 41.41 LIG 0.05  C 
BRANCH 7 8
ATOM      8  CG  GLU C 506      11.145  23.483   5.942  1.00 54.63 LIG 0.12  C 
BRANCH 8 9
ATOM      9  CD  GLU C 506      10.899  22.012   5.669  1.00 71.07 LIG 0.17  C 
ATOM     10 OE1  GLU C 506      10.724  21.241   6.640  1.00 74.77 LIG-0.65  OA
ATOM     11 OE2  GLU C 506      10.868  21.634   4.476  1.00 73.38 LIG-0.65  OA
ENDBRANCH 8 9
ENDBRANCH 7 8
ENDBRANCH 6 7
BRANCH 6 12
ATOM     12  N   GLU C 506      14.389  24.879   4.404  1.00 38.98 LIG-0.07  N 
ATOM     13 H3   GLU C 506      15.215  24.968   4.723  1.00 38.98 LIG 0.28  HD
ATOM     14 H2   GLU C 506      14.041  25.685   4.256  1.00 38.98 LIG 0.28  HD
ATOM     15 H1   GLU C 506      14.415  24.423   3.640  1.00 38.98 LIG 0.28  HD
ENDBRANCH 6 12
ENDBRANCH 3 6
ENDBRANCH 1 2
BRANCH 1 16
ATOM     16  C   ASP C 507      15.731  20.450   5.132  1.00 33.47 LIG 0.24  C 
ATOM     17 O    ASP C 507      16.566  21.247   4.697  1.00 34.83 LIG-0.27  OA
ATOM     18  N   LEU C 508      15.994  19.545   6.070  1.00 31.65 LIG-0.34  N 
ATOM     19 H    LEU C 508      15.409  18.996   6.380  1.00 31.65 LIG 0.16  HD
BRANCH 18 20
ATOM     20  CA  LEU C 508      17.316  19.404   6.661  1.00 32.20 LIG 0.18  C 
BRANCH 20 21
ATOM     21  CB  LEU C 508      17.177  18.840   8.069  1.00 32.28 LIG 0.04  C 
BRANCH 21 22
ATOM     22  CG  LEU C 508      15.943  19.441   8.734  1.00 33.09 LIG-0.02  C 
ATOM     23  CD1 LEU C 508      15.615  18.696   9.992  1.00 32.61 LIG 0.01  C 
ATOM     24  CD2 LEU C 508      16.162  20.928   8.972  1.00 34.13 LIG 0.01  C 
ENDBRANCH 21 22
ENDBRANCH 20 21
BRANCH 20 25
ATOM     25  C   LEU C 508      18.247  18.533   5.838  1.00 33.63 LIG 0.20  C 
ATOM     26 O    LEU C 508      18.689  18.994   4.765  0.50 32.81 LIG-0.65  OA
ATOM     27 OXT  LEU C 508      18.524  17.396   6.274  0.50 35.17 LIG-0.65  OA
ENDBRANCH 20 25
ENDBRANCH 18 20
ENDBRANCH 1 16
BRANCH 1 28
ATOM     28  CB  ASP C 507      14.149  19.857   3.267  1.00 31.02 LIG 0.15  C 
BRANCH 28 29
ATOM     29  CG  ASP C 507      14.447  18.372   3.291  1.00 34.22 LIG 0.17  C 
ATOM     30 OD2  ASP C 507      14.199  17.712   4.326  1.00 32.29 LIG-0.65  OA
ATOM     31 OD1  ASP C 507      14.975  17.873   2.279  1.00 33.73 LIG-0.65  OA
ENDBRANCH 28 29
ENDBRANCH 1 28
TORSDOF 13
ENDMDL
MODEL 32
USER: ADFR SOLUTION from run 27
USER: SCORE 11.749081 LL:  -1.807 LR: -11.092 RR:   0.000 FEB:  -7.214
USER: RMSD 5.643822
USER: SEED 26
USER: STATUS no improvement in best 20 clusters for 5 generations
USER: GENES 15
USER: genes 0 Translation |==|  0.52634 0.51529 0.53395
USER: genes 1 Rotation |==|  0.52151 0.17967 0.11703 0.51614
USER: genes 2 Torsion [CB]-CA--N-[C] |==|  0.51667
USER: genes 3 Torsion [N]-C--CA-[N] |==|  0.05932
USER: genes 4 Torsion [C]-CA--CB-[CG] |==|  0.87508
USER: genes 5 Torsion [CA]-CB--CG-[CD] |==|  0.27606
USER: genes 6 Torsion [CB]-CG--CD-[OE1] |==|  0.06648
USER: genes 7 Torsion [C]-CA--N-[H3] |==|  0.02779
USER: genes 8 Torsion [N]-CA--C-[N] |==|  0.91212
USER: genes 9 Torsion [C]-N--CA-[CB] |==|  0.86529
USER: genes 10 Torsion [N]-CA--CB-[CG] |==|  0.76060
USER: genes 11 Torsion [CA]-CB--CG-[CD1] |==|  0.03278
USER: genes 12 Torsion [N]-CA--C-[O] |==|  0.14103
USER: genes 13 Torsion [N]-CA--CB-[CG] |==|  0.74132
USER: genes 14 Torsion [CA]-CB--CG-[OD2] |==|  0.49266
ROOT
ATOM      1  CA  ASP C 507       9.240  25.829   5.409  1.00 33.68 LIG 0.19  C 
ENDROOT
BRANCH 1 2
ATOM      2  N   ASP C 507      10.661  25.623   5.160  1.00 35.05 LIG-0.34  N 
ATOM      3  C   GLU C 506      11.140  24.476   4.695  1.00 36.98 LIG 0.25  C 
ATOM      4 O    GLU C 506      10.431  23.487   4.480  1.00 35.33 LIG-0.27  OA
ATOM      5 H    ASP C 507      11.152  26.306   5.342  1.00 35.05 LIG 0.16  HD
BRANCH 3 6
ATOM      6  CA  GLU C 506      12.653  24.419   4.493  1.00 38.62 LIG 0.28  C 
BRANCH 6 7
ATOM      7  CB  GLU C 506      13.197  23.027   4.825  1.00 41.41 LIG 0.05  C 
BRANCH 7 8
ATOM      8  CG  GLU C 506      12.644  22.440   6.108  1.00 54.63 LIG 0.12  C 
BRANCH 8 9
ATOM      9  CD  GLU C 506      11.519  21.450   5.873  1.00 71.07 LIG 0.17  C 
ATOM     10 OE1  GLU C 506      11.450  20.870   4.765  1.00 74.77 LIG-0.65  OA
ATOM     11 OE2  GLU C 506      10.712  21.245   6.808  1.00 73.38 LIG-0.65  OA
ENDBRANCH 8 9
ENDBRANCH 7 8
ENDBRANCH 6 7
BRANCH 6 12
ATOM     12  N   GLU C 506      13.325  25.455   5.323  1.00 38.98 LIG-0.07  N 
ATOM     13 H3   GLU C 506      12.736  25.812   5.886  1.00 38.98 LIG 0.28  HD
ATOM     14 H2   GLU C 506      13.654  26.092   4.796  1.00 38.98 LIG 0.28  HD
ATOM     15 H1   GLU C 506      13.987  25.081   5.786  1.00 38.98 LIG 0.28  HD
ENDBRANCH 6 12
ENDBRANCH 3 6
ENDBRANCH 1 2
BRANCH 1 16
ATOM     16  C   ASP C 507       8.464  25.443   4.162  1.00 33.47 LIG 0.24  C 
ATOM     17 O    ASP C 507       7.311  25.013   4.244  1.00 34.83 LIG-0.27  OA
ATOM     18  N   LEU C 508       9.093  25.647   3.009  1.00 31.65 LIG-0.34  N 
ATOM     19 H    LEU C 508       9.895  25.955   2.950  1.00 31.65 LIG 0.16  HD
BRANCH 18 20
ATOM     20  CA  LEU C 508       8.471  25.361   1.725  1.00 32.20 LIG 0.18  C 
BRANCH 20 21
ATOM     21  CB  LEU C 508       7.857  23.968   1.765  1.00 32.28 LIG 0.04  C 
BRANCH 21 22
ATOM     22  CG  LEU C 508       8.918  22.937   1.396  1.00 33.09 LIG-0.02  C 
ATOM     23  CD1 LEU C 508      10.277  23.568   1.390  1.00 32.61 LIG 0.01  C 
ATOM     24  CD2 LEU C 508       8.827  21.747   2.340  1.00 34.13 LIG 0.01  C 
ENDBRANCH 21 22
ENDBRANCH 20 21
BRANCH 20 25
ATOM     25  C   LEU C 508       7.422  26.384   1.330  1.00 33.63 LIG 0.20  C 
ATOM     26 O    LEU C 508       7.734  27.593   1.374  0.50 32.81 LIG-0.65  OA
ATOM     27 OXT  LEU C 508       6.299  25.967   0.981  0.50 35.17 LIG-0.65  OA
ENDBRANCH 20 25
ENDBRANCH 18 20
ENDBRANCH 1 16
BRANCH 1 28
ATOM     28  CB  ASP C 507       8.989  27.284   5.795  1.00 31.02 LIG 0.15  C 
BRANCH 28 29
ATOM     29  CG  ASP C 507       9.010  27.484   7.296  1.00 34.22 LIG 0.17  C 
ATOM     30 OD2  ASP C 507       8.868  28.637   7.764  1.00 32.29 LIG-0.65  OA
ATOM     31 OD1  ASP C 507       9.213  26.484   8.009  1.00 33.73 LIG-0.65  OA
ENDBRANCH 28 29
ENDBRANCH 1 28
TORSDOF 13
ENDMDL
MODEL 33
USER: ADFR SOLUTION from run 139
USER: SCORE 12.708439 LL:  -1.953 LR: -11.086 RR:   0.000 FEB:  -7.208
USER: RMSD 7.796012
USER: SEED 138
USER: STATUS no improvement in best 16 clusters for 5 generations
USER: GENES 15
USER: genes 0 Translation |==|  0.57753 0.44063 0.44897
USER: genes 1 Rotation |==|  0.45639 0.12025 0.82231 0.50081
USER: genes 2 Torsion [CB]-CA--N-[C] |==|  0.78857
USER: genes 3 Torsion [N]-C--CA-[N] |==|  0.12665
USER: genes 4 Torsion [C]-CA--CB-[CG] |==|  0.20943
USER: genes 5 Torsion [CA]-CB--CG-[CD] |==|  0.51400
USER: genes 6 Torsion [CB]-CG--CD-[OE1] |==|  0.48580
USER: genes 7 Torsion [C]-CA--N-[H3] |==|  0.56116
USER: genes 8 Torsion [N]-CA--C-[N] |==|  0.19116
USER: genes 9 Torsion [C]-N--CA-[CB] |==|  0.26344
USER: genes 10 Torsion [N]-CA--CB-[CG] |==|  0.74151
USER: genes 11 Torsion [CA]-CB--CG-[CD1] |==|  0.38865
USER: genes 12 Torsion [N]-CA--C-[O] |==|  0.55616
USER: genes 13 Torsion [N]-CA--CB-[CG] |==|  0.53657
USER: genes 14 Torsion [CA]-CB--CG-[OD2] |==|  0.84972
ROOT
ATOM      1  CA  ASP C 507      10.776  23.589   2.859  1.00 33.68 LIG 0.19  C 
ENDROOT
BRANCH 1 2
ATOM      2  N   ASP C 507      12.157  23.758   3.290  1.00 35.05 LIG-0.34  N 
ATOM      3  C   GLU C 506      12.582  23.354   4.481  1.00 36.98 LIG 0.25  C 
ATOM      4 O    GLU C 506      11.836  22.850   5.328  1.00 35.33 LIG-0.27  OA
ATOM      5 H    ASP C 507      12.663  24.138   2.708  1.00 35.05 LIG 0.16  HD
BRANCH 3 6
ATOM      6  CA  GLU C 506      14.058  23.608   4.784  1.00 38.62 LIG 0.28  C 
BRANCH 6 7
ATOM      7  CB  GLU C 506      14.361  23.368   6.264  1.00 41.41 LIG 0.05  C 
BRANCH 7 8
ATOM      8  CG  GLU C 506      14.424  21.903   6.651  1.00 54.63 LIG 0.12  C 
BRANCH 8 9
ATOM      9  CD  GLU C 506      14.605  21.689   8.141  1.00 71.07 LIG 0.17  C 
ATOM     10 OE1  GLU C 506      14.573  20.519   8.589  1.00 74.77 LIG-0.65  OA
ATOM     11 OE2  GLU C 506      14.793  22.696   8.861  1.00 73.38 LIG-0.65  OA
ENDBRANCH 8 9
ENDBRANCH 7 8
ENDBRANCH 6 7
BRANCH 6 12
ATOM     12  N   GLU C 506      14.435  24.993   4.390  1.00 38.98 LIG-0.07  N 
ATOM     13 H3   GLU C 506      15.315  25.037   4.264  1.00 38.98 LIG 0.28  HD
ATOM     14 H2   GLU C 506      14.200  25.559   5.035  1.00 38.98 LIG 0.28  HD
ATOM     15 H1   GLU C 506      14.017  25.211   3.636  1.00 38.98 LIG 0.28  HD
ENDBRANCH 6 12
ENDBRANCH 3 6
ENDBRANCH 1 2
BRANCH 1 16
ATOM     16  C   ASP C 507       9.854  24.027   3.983  1.00 33.47 LIG 0.24  C 
ATOM     17 O    ASP C 507       9.199  23.200   4.622  1.00 34.83 LIG-0.27  OA
ATOM     18  N   LEU C 508       9.850  25.331   4.246  1.00 31.65 LIG-0.34  N 
ATOM     19 H    LEU C 508      10.314  25.907   3.807  1.00 31.65 LIG 0.16  HD
BRANCH 18 20
ATOM     20  CA  LEU C 508       9.047  25.904   5.316  1.00 32.20 LIG 0.18  C 
BRANCH 20 21
ATOM     21  CB  LEU C 508       9.902  26.031   6.569  1.00 32.28 LIG 0.04  C 
BRANCH 21 22
ATOM     22  CG  LEU C 508       9.725  24.784   7.429  1.00 33.09 LIG-0.02  C 
ATOM     23  CD1 LEU C 508      11.038  24.366   8.017  1.00 32.61 LIG 0.01  C 
ATOM     24  CD2 LEU C 508       8.662  25.037   8.488  1.00 34.13 LIG 0.01  C 
ENDBRANCH 21 22
ENDBRANCH 20 21
BRANCH 20 25
ATOM     25  C   LEU C 508       8.447  27.250   4.954  1.00 33.63 LIG 0.20  C 
ATOM     26 O    LEU C 508       8.077  27.998   5.884  0.50 32.81 LIG-0.65  OA
ATOM     27 OXT  LEU C 508       8.350  27.543   3.745  0.50 35.17 LIG-0.65  OA
ENDBRANCH 20 25
ENDBRANCH 18 20
ENDBRANCH 1 16
BRANCH 1 28
ATOM     28  CB  ASP C 507      10.531  22.133   2.472  1.00 31.02 LIG 0.15  C 
BRANCH 28 29
ATOM     29  CG  ASP C 507       9.227  21.957   1.721  1.00 34.22 LIG 0.17  C 
ATOM     30 OD2  ASP C 507       8.164  22.382   2.229  1.00 32.29 LIG-0.65  OA
ATOM     31 OD1  ASP C 507       9.263  21.350   0.635  1.00 33.73 LIG-0.65  OA
ENDBRANCH 28 29
ENDBRANCH 1 28
TORSDOF 13
ENDMDL
MODEL 34
USER: ADFR SOLUTION from run 145
USER: SCORE 12.238582 LL:  -2.050 LR: -11.065 RR:   0.000 FEB:  -7.187
USER: RMSD 6.113176
USER: SEED 144
USER: STATUS no improvement in best 14 clusters for 5 generations
USER: GENES 15
USER: genes 0 Translation |==|  0.53815 0.49357 0.53120
USER: genes 1 Rotation |==|  0.43029 0.23583 0.08142 0.51211
USER: genes 2 Torsion [CB]-CA--N-[C] |==|  0.16111
USER: genes 3 Torsion [N]-C--CA-[N] |==|  0.36158
USER: genes 4 Torsion [C]-CA--CB-[CG] |==|  0.94924
USER: genes 5 Torsion [CA]-CB--CG-[CD] |==|  0.26860
USER: genes 6 Torsion [CB]-CG--CD-[OE1] |==|  0.00777
USER: genes 7 Torsion [C]-CA--N-[H3] |==|  0.81080
USER: genes 8 Torsion [N]-CA--C-[N] |==|  0.80043
USER: genes 9 Torsion [C]-N--CA-[CB] |==|  0.21190
USER: genes 10 Torsion [N]-CA--CB-[CG] |==|  0.67491
USER: genes 11 Torsion [CA]-CB--CG-[CD1] |==|  0.97957
USER: genes 12 Torsion [N]-CA--C-[O] |==|  0.40732
USER: genes 13 Torsion [N]-CA--CB-[CG] |==|  0.46704
USER: genes 14 Torsion [CA]-CB--CG-[OD2] |==|  0.73263
ROOT
ATOM      1  CA  ASP C 507       9.594  25.177   5.326  1.00 33.68 LIG 0.19  C 
ENDROOT
BRANCH 1 2
ATOM      2  N   ASP C 507      10.801  24.771   4.618  1.00 35.05 LIG-0.34  N 
ATOM      3  C   GLU C 506      11.954  24.565   5.243  1.00 36.98 LIG 0.25  C 
ATOM      4 O    GLU C 506      12.105  24.745   6.456  1.00 35.33 LIG-0.27  OA
ATOM      5 H    ASP C 507      10.696  24.678   3.769  1.00 35.05 LIG 0.16  HD
BRANCH 3 6
ATOM      6  CA  GLU C 506      13.126  24.147   4.357  1.00 38.62 LIG 0.28  C 
BRANCH 6 7
ATOM      7  CB  GLU C 506      13.461  22.667   4.556  1.00 41.41 LIG 0.05  C 
BRANCH 7 8
ATOM      8  CG  GLU C 506      12.902  22.075   5.835  1.00 54.63 LIG 0.12  C 
BRANCH 8 9
ATOM      9  CD  GLU C 506      11.588  21.347   5.628  1.00 71.07 LIG 0.17  C 
ATOM     10 OE1  GLU C 506      11.128  21.254   4.467  1.00 74.77 LIG-0.65  OA
ATOM     11 OE2  GLU C 506      11.024  20.856   6.632  1.00 73.38 LIG-0.65  OA
ENDBRANCH 8 9
ENDBRANCH 7 8
ENDBRANCH 6 7
BRANCH 6 12
ATOM     12  N   GLU C 506      14.316  24.995   4.640  1.00 38.98 LIG-0.07  N 
ATOM     13 H3   GLU C 506      14.159  25.827   4.368  1.00 38.98 LIG 0.28  HD
ATOM     14 H2   GLU C 506      15.022  24.670   4.207  1.00 38.98 LIG 0.28  HD
ATOM     15 H1   GLU C 506      14.478  24.995   5.515  1.00 38.98 LIG 0.28  HD
ENDBRANCH 6 12
ENDBRANCH 3 6
ENDBRANCH 1 2
BRANCH 1 16
ATOM     16  C   ASP C 507       8.462  25.318   4.325  1.00 33.47 LIG 0.24  C 
ATOM     17 O    ASP C 507       7.521  24.522   4.319  1.00 34.83 LIG-0.27  OA
ATOM     18  N   LEU C 508       8.543  26.368   3.512  1.00 31.65 LIG-0.34  N 
ATOM     19 H    LEU C 508       9.194  26.930   3.522  1.00 31.65 LIG 0.16  HD
BRANCH 18 20
ATOM     20  CA  LEU C 508       7.519  26.662   2.521  1.00 32.20 LIG 0.18  C 
BRANCH 20 21
ATOM     21  CB  LEU C 508       6.307  27.266   3.217  1.00 32.28 LIG 0.04  C 
BRANCH 21 22
ATOM     22  CG  LEU C 508       5.107  26.344   3.033  1.00 33.09 LIG-0.02  C 
ATOM     23  CD1 LEU C 508       5.444  25.234   2.085  1.00 32.61 LIG 0.01  C 
ATOM     24  CD2 LEU C 508       4.639  25.835   4.389  1.00 34.13 LIG 0.01  C 
ENDBRANCH 21 22
ENDBRANCH 20 21
BRANCH 20 25
ATOM     25  C   LEU C 508       8.004  27.587   1.420  1.00 33.63 LIG 0.20  C 
ATOM     26 O    LEU C 508       7.539  27.428   0.271  0.50 32.81 LIG-0.65  OA
ATOM     27 OXT  LEU C 508       8.845  28.460   1.715  0.50 35.17 LIG-0.65  OA
ENDBRANCH 20 25
ENDBRANCH 18 20
ENDBRANCH 1 16
BRANCH 1 28
ATOM     28  CB  ASP C 507       9.849  26.486   6.070  1.00 31.02 LIG 0.15  C 
BRANCH 28 29
ATOM     29  CG  ASP C 507       8.566  27.105   6.583  1.00 34.22 LIG 0.17  C 
ATOM     30 OD2  ASP C 507       8.000  27.996   5.909  1.00 32.29 LIG-0.65  OA
ATOM     31 OD1  ASP C 507       8.146  26.727   7.693  1.00 33.73 LIG-0.65  OA
ENDBRANCH 28 29
ENDBRANCH 1 28
TORSDOF 13
ENDMDL
MODEL 35
USER: ADFR SOLUTION from run 94
USER: SCORE 11.467610 LL:  -1.553 LR: -11.065 RR:   0.000 FEB:  -7.187
USER: RMSD 7.802599
USER: SEED 93
USER: STATUS no improvement in best 8 clusters for 5 generations
USER: GENES 15
USER: genes 0 Translation |==|  0.68895 0.36013 0.53920
USER: genes 1 Rotation |==|  0.81741 0.27717 0.41389 0.80362
USER: genes 2 Torsion [CB]-CA--N-[C] |==|  0.25525
USER: genes 3 Torsion [N]-C--CA-[N] |==|  0.83654
USER: genes 4 Torsion [C]-CA--CB-[CG] |==|  0.24553
USER: genes 5 Torsion [CA]-CB--CG-[CD] |==|  0.52941
USER: genes 6 Torsion [CB]-CG--CD-[OE1] |==|  0.46852
USER: genes 7 Torsion [C]-CA--N-[H3] |==|  0.93003
USER: genes 8 Torsion [N]-CA--C-[N] |==|  0.50435
USER: genes 9 Torsion [C]-N--CA-[CB] |==|  0.45965
USER: genes 10 Torsion [N]-CA--CB-[CG] |==|  0.69979
USER: genes 11 Torsion [CA]-CB--CG-[CD1] |==|  0.06724
USER: genes 12 Torsion [N]-CA--C-[O] |==|  0.88651
USER: genes 13 Torsion [N]-CA--CB-[CG] |==|  0.90397
USER: genes 14 Torsion [CA]-CB--CG-[OD2] |==|  0.74416
ROOT
ATOM      1  CA  ASP C 507      14.119  21.174   5.566  1.00 33.68 LIG 0.19  C 
ENDROOT
BRANCH 1 2
ATOM      2  N   ASP C 507      13.745  22.463   5.000  1.00 35.05 LIG-0.34  N 
ATOM      3  C   GLU C 506      13.181  23.420   5.728  1.00 36.98 LIG 0.25  C 
ATOM      4 O    GLU C 506      12.891  23.277   6.921  1.00 35.33 LIG-0.27  OA
ATOM      5 H    ASP C 507      13.921  22.544   4.162  1.00 35.05 LIG 0.16  HD
BRANCH 3 6
ATOM      6  CA  GLU C 506      12.845  24.712   4.985  1.00 38.62 LIG 0.28  C 
BRANCH 6 7
ATOM      7  CB  GLU C 506      11.790  24.462   3.905  1.00 41.41 LIG 0.05  C 
BRANCH 7 8
ATOM      8  CG  GLU C 506      10.362  24.590   4.396  1.00 54.63 LIG 0.12  C 
BRANCH 8 9
ATOM      9  CD  GLU C 506       9.341  24.094   3.391  1.00 71.07 LIG 0.17  C 
ATOM     10 OE1  GLU C 506       8.153  23.948   3.762  1.00 74.77 LIG-0.65  OA
ATOM     11 OE2  GLU C 506       9.729  23.865   2.223  1.00 73.38 LIG-0.65  OA
ENDBRANCH 8 9
ENDBRANCH 7 8
ENDBRANCH 6 7
BRANCH 6 12
ATOM     12  N   GLU C 506      14.075  25.301   4.390  1.00 38.98 LIG-0.07  N 
ATOM     13 H3   GLU C 506      14.787  25.032   4.851  1.00 38.98 LIG 0.28  HD
ATOM     14 H2   GLU C 506      14.023  26.189   4.418  1.00 38.98 LIG 0.28  HD
ATOM     15 H1   GLU C 506      14.152  25.034   3.544  1.00 38.98 LIG 0.28  HD
ENDBRANCH 6 12
ENDBRANCH 3 6
ENDBRANCH 1 2
BRANCH 1 16
ATOM     16  C   ASP C 507      15.378  20.682   4.875  1.00 33.47 LIG 0.24  C 
ATOM     17 O    ASP C 507      15.955  21.382   4.040  1.00 34.83 LIG-0.27  OA
ATOM     18  N   LEU C 508      15.821  19.492   5.271  1.00 31.65 LIG-0.34  N 
ATOM     19 H    LEU C 508      15.424  19.007   5.861  1.00 31.65 LIG 0.16  HD
BRANCH 18 20
ATOM     20  CA  LEU C 508      17.034  18.897   4.730  1.00 32.20 LIG 0.18  C 
BRANCH 20 21
ATOM     21  CB  LEU C 508      17.461  17.738   5.619  1.00 32.28 LIG 0.04  C 
BRANCH 21 22
ATOM     22  CG  LEU C 508      18.709  18.134   6.401  1.00 33.09 LIG-0.02  C 
ATOM     23  CD1 LEU C 508      18.790  19.624   6.532  1.00 32.61 LIG 0.01  C 
ATOM     24  CD2 LEU C 508      18.715  17.426   7.748  1.00 34.13 LIG 0.01  C 
ENDBRANCH 21 22
ENDBRANCH 20 21
BRANCH 20 25
ATOM     25  C   LEU C 508      16.880  18.428   3.295  1.00 33.63 LIG 0.20  C 
ATOM     26 O    LEU C 508      15.815  17.858   2.974  0.50 32.81 LIG-0.65  OA
ATOM     27 OXT  LEU C 508      17.825  18.632   2.506  0.50 35.17 LIG-0.65  OA
ENDBRANCH 20 25
ENDBRANCH 18 20
ENDBRANCH 1 16
BRANCH 1 28
ATOM     28  CB  ASP C 507      12.968  20.185   5.400  1.00 31.02 LIG 0.15  C 
BRANCH 28 29
ATOM     29  CG  ASP C 507      11.617  20.860   5.522  1.00 34.22 LIG 0.17  C 
ATOM     30 OD2  ASP C 507      11.056  20.913   6.640  1.00 32.29 LIG-0.65  OA
ATOM     31 OD1  ASP C 507      11.097  21.300   4.481  1.00 33.73 LIG-0.65  OA
ENDBRANCH 28 29
ENDBRANCH 1 28
TORSDOF 13
ENDMDL
MODEL 36
USER: ADFR SOLUTION from run 95
USER: SCORE 11.948870 LL:  -1.800 LR: -11.058 RR:   0.000 FEB:  -7.180
USER: RMSD 9.937285
USER: SEED 94
USER: STATUS no improvement in best 20 clusters for 5 generations
USER: GENES 15
USER: genes 0 Translation |==|  0.73726 0.34378 0.58330
USER: genes 1 Rotation |==|  0.14791 0.71120 0.26932 0.66797
USER: genes 2 Torsion [CB]-CA--N-[C] |==|  0.18890
USER: genes 3 Torsion [N]-C--CA-[N] |==|  0.37198
USER: genes 4 Torsion [C]-CA--CB-[CG] |==|  0.16475
USER: genes 5 Torsion [CA]-CB--CG-[CD] |==|  0.68367
USER: genes 6 Torsion [CB]-CG--CD-[OE1] |==|  0.40798
USER: genes 7 Torsion [C]-CA--N-[H3] |==|  0.56749
USER: genes 8 Torsion [N]-CA--C-[N] |==|  0.48793
USER: genes 9 Torsion [C]-N--CA-[CB] |==|  0.41838
USER: genes 10 Torsion [N]-CA--CB-[CG] |==|  0.57798
USER: genes 11 Torsion [CA]-CB--CG-[CD1] |==|  0.34002
USER: genes 12 Torsion [N]-CA--C-[O] |==|  0.86330
USER: genes 13 Torsion [N]-CA--CB-[CG] |==|  0.67146
USER: genes 14 Torsion [CA]-CB--CG-[OD2] |==|  0.00248
ROOT
ATOM      1  CA  ASP C 507      15.568  20.684   6.889  1.00 33.68 LIG 0.19  C 
ENDROOT
BRANCH 1 2
ATOM      2  N   ASP C 507      14.958  21.994   6.707  1.00 35.05 LIG-0.34  N 
ATOM      3  C   GLU C 506      14.614  22.455   5.511  1.00 36.98 LIG 0.25  C 
ATOM      4 O    GLU C 506      14.824  21.834   4.463  1.00 35.33 LIG-0.27  OA
ATOM      5 H    ASP C 507      14.843  22.433   7.437  1.00 35.05 LIG 0.16  HD
BRANCH 3 6
ATOM      6  CA  GLU C 506      13.989  23.849   5.488  1.00 38.62 LIG 0.28  C 
BRANCH 6 7
ATOM      7  CB  GLU C 506      12.472  23.765   5.301  1.00 41.41 LIG 0.05  C 
BRANCH 7 8
ATOM      8  CG  GLU C 506      11.760  22.981   6.386  1.00 54.63 LIG 0.12  C 
BRANCH 8 9
ATOM      9  CD  GLU C 506      11.130  21.700   5.876  1.00 71.07 LIG 0.17  C 
ATOM     10 OE1  GLU C 506      11.081  20.708   6.640  1.00 74.77 LIG-0.65  OA
ATOM     11 OE2  GLU C 506      10.669  21.694   4.712  1.00 73.38 LIG-0.65  OA
ENDBRANCH 8 9
ENDBRANCH 7 8
ENDBRANCH 6 7
BRANCH 6 12
ATOM     12  N   GLU C 506      14.604  24.674   4.413  1.00 38.98 LIG-0.07  N 
ATOM     13 H3   GLU C 506      14.516  25.536   4.613  1.00 38.98 LIG 0.28  HD
ATOM     14 H2   GLU C 506      14.196  24.506   3.640  1.00 38.98 LIG 0.28  HD
ATOM     15 H1   GLU C 506      15.468  24.472   4.342  1.00 38.98 LIG 0.28  HD
ENDBRANCH 6 12
ENDBRANCH 3 6
ENDBRANCH 1 2
BRANCH 1 16
ATOM     16  C   ASP C 507      15.601  20.360   8.372  1.00 33.47 LIG 0.24  C 
ATOM     17 O    ASP C 507      15.188  21.170   9.205  1.00 34.83 LIG-0.27  OA
ATOM     18  N   LEU C 508      16.053  19.148   8.684  1.00 31.65 LIG-0.34  N 
ATOM     19 H    LEU C 508      16.332  18.579   8.102  1.00 31.65 LIG 0.16  HD
BRANCH 18 20
ATOM     20  CA  LEU C 508      16.114  18.674  10.058  1.00 32.20 LIG 0.18  C 
BRANCH 20 21
ATOM     21  CB  LEU C 508      15.951  17.160  10.073  1.00 32.28 LIG 0.04  C 
BRANCH 21 22
ATOM     22  CG  LEU C 508      15.330  16.732  11.398  1.00 33.09 LIG-0.02  C 
ATOM     23  CD1 LEU C 508      14.057  15.978  11.157  1.00 32.61 LIG 0.01  C 
ATOM     24  CD2 LEU C 508      16.342  15.931  12.203  1.00 34.13 LIG 0.01  C 
ENDBRANCH 21 22
ENDBRANCH 20 21
BRANCH 20 25
ATOM     25  C   LEU C 508      17.396  19.069  10.768  1.00 33.63 LIG 0.20  C 
ATOM     26 O    LEU C 508      18.481  18.851  10.188  0.50 32.81 LIG-0.65  OA
ATOM     27 OXT  LEU C 508      17.303  19.591  11.898  0.50 35.17 LIG-0.65  OA
ENDBRANCH 20 25
ENDBRANCH 18 20
ENDBRANCH 1 16
BRANCH 1 28
ATOM     28  CB  ASP C 507      16.970  20.679   6.285  1.00 31.02 LIG 0.15  C 
BRANCH 28 29
ATOM     29  CG  ASP C 507      17.099  19.673   5.159  1.00 34.22 LIG 0.17  C 
ATOM     30 OD2  ASP C 507      16.104  18.988   4.830  1.00 32.29 LIG-0.65  OA
ATOM     31 OD1  ASP C 507      18.219  19.539   4.631  1.00 33.73 LIG-0.65  OA
ENDBRANCH 28 29
ENDBRANCH 1 28
TORSDOF 13
ENDMDL
MODEL 37
USER: ADFR SOLUTION from run 53
USER: SCORE 12.796126 LL:  -2.049 LR: -11.060 RR:   0.000 FEB:  -7.183
USER: RMSD 9.200192
USER: SEED 52
USER: STATUS no improvement in best 13 clusters for 5 generations
USER: GENES 15
USER: genes 0 Translation |==|  0.80926 0.36859 0.60145
USER: genes 1 Rotation |==|  0.55400 0.54831 0.28334 0.94476
USER: genes 2 Torsion [CB]-CA--N-[C] |==|  0.78333
USER: genes 3 Torsion [N]-C--CA-[N] |==|  0.13253
USER: genes 4 Torsion [C]-CA--CB-[CG] |==|  0.73493
USER: genes 5 Torsion [CA]-CB--CG-[CD] |==|  0.41901
USER: genes 6 Torsion [CB]-CG--CD-[OE1] |==|  0.55045
USER: genes 7 Torsion [C]-CA--N-[H3] |==|  0.11952
USER: genes 8 Torsion [N]-CA--C-[N] |==|  0.18007
USER: genes 9 Torsion [C]-N--CA-[CB] |==|  0.37240
USER: genes 10 Torsion [N]-CA--CB-[CG] |==|  0.67309
USER: genes 11 Torsion [CA]-CB--CG-[CD1] |==|  0.82956
USER: genes 12 Torsion [N]-CA--C-[O] |==|  0.11471
USER: genes 13 Torsion [N]-CA--CB-[CG] |==|  0.65707
USER: genes 14 Torsion [CA]-CB--CG-[OD2] |==|  0.67702
ROOT
ATOM      1  CA  ASP C 507      17.728  21.428   7.434  1.00 33.68 LIG 0.19  C 
ENDROOT
BRANCH 1 2
ATOM      2  N   ASP C 507      16.687  22.446   7.398  1.00 35.05 LIG-0.34  N 
ATOM      3  C   GLU C 506      15.400  22.149   7.533  1.00 36.98 LIG 0.25  C 
ATOM      4 O    GLU C 506      14.985  20.991   7.654  1.00 35.33 LIG-0.27  OA
ATOM      5 H    ASP C 507      16.981  23.246   7.282  1.00 35.05 LIG 0.16  HD
BRANCH 3 6
ATOM      6  CA  GLU C 506      14.433  23.330   7.468  1.00 38.62 LIG 0.28  C 
BRANCH 6 7
ATOM      7  CB  GLU C 506      12.983  22.845   7.402  1.00 41.41 LIG 0.05  C 
BRANCH 7 8
ATOM      8  CG  GLU C 506      12.426  22.754   5.995  1.00 54.63 LIG 0.12  C 
BRANCH 8 9
ATOM      9  CD  GLU C 506      11.360  21.686   5.846  1.00 71.07 LIG 0.17  C 
ATOM     10 OE1  GLU C 506      11.075  21.278   4.696  1.00 74.77 LIG-0.65  OA
ATOM     11 OE2  GLU C 506      10.820  21.245   6.885  1.00 73.38 LIG-0.65  OA
ENDBRANCH 8 9
ENDBRANCH 7 8
ENDBRANCH 6 7
BRANCH 6 12
ATOM     12  N   GLU C 506      14.750  24.193   6.298  1.00 38.98 LIG-0.07  N 
ATOM     13 H3   GLU C 506      14.919  23.682   5.589  1.00 38.98 LIG 0.28  HD
ATOM     14 H2   GLU C 506      15.464  24.691   6.481  1.00 38.98 LIG 0.28  HD
ATOM     15 H1   GLU C 506      14.056  24.722   6.122  1.00 38.98 LIG 0.28  HD
ENDBRANCH 6 12
ENDBRANCH 3 6
ENDBRANCH 1 2
BRANCH 1 16
ATOM     16  C   ASP C 507      17.285  20.243   6.593  1.00 33.47 LIG 0.24  C 
ATOM     17 O    ASP C 507      17.033  19.156   7.118  1.00 34.83 LIG-0.27  OA
ATOM     18  N   LEU C 508      17.147  20.483   5.292  1.00 31.65 LIG-0.34  N 
ATOM     19 H    LEU C 508      17.314  21.244   4.927  1.00 31.65 LIG 0.16  HD
BRANCH 18 20
ATOM     20  CA  LEU C 508      16.697  19.462   4.359  1.00 32.20 LIG 0.18  C 
BRANCH 20 21
ATOM     21  CB  LEU C 508      15.635  20.054   3.443  1.00 32.28 LIG 0.04  C 
BRANCH 21 22
ATOM     22  CG  LEU C 508      14.319  19.312   3.648  1.00 33.09 LIG-0.02  C 
ATOM     23  CD1 LEU C 508      14.478  17.864   3.296  1.00 32.61 LIG 0.01  C 
ATOM     24  CD2 LEU C 508      13.831  19.519   5.074  1.00 34.13 LIG 0.01  C 
ENDBRANCH 21 22
ENDBRANCH 20 21
BRANCH 20 25
ATOM     25  C   LEU C 508      17.825  18.867   3.536  1.00 33.63 LIG 0.20  C 
ATOM     26 O    LEU C 508      18.906  18.620   4.112  0.50 32.81 LIG-0.65  OA
ATOM     27 OXT  LEU C 508      17.618  18.655   2.324  0.50 35.17 LIG-0.65  OA
ENDBRANCH 20 25
ENDBRANCH 18 20
ENDBRANCH 1 16
BRANCH 1 28
ATOM     28  CB  ASP C 507      17.998  21.017   8.879  1.00 31.02 LIG 0.15  C 
BRANCH 28 29
ATOM     29  CG  ASP C 507      19.453  21.201   9.258  1.00 34.22 LIG 0.17  C 
ATOM     30 OD2  ASP C 507      20.140  20.199   9.561  1.00 32.29 LIG-0.65  OA
ATOM     31 OD1  ASP C 507      19.897  22.364   9.295  1.00 33.73 LIG-0.65  OA
ENDBRANCH 28 29
ENDBRANCH 1 28
TORSDOF 13
ENDMDL
MODEL 38
USER: ADFR SOLUTION from run 89
USER: SCORE 12.257354 LL:  -2.359 LR: -11.015 RR:   0.000 FEB:  -7.137
USER: RMSD 3.000260
USER: SEED 88
USER: STATUS no improvement in best 14 clusters for 5 generations
USER: GENES 15
USER: genes 0 Translation |==|  0.52649 0.52180 0.57590
USER: genes 1 Rotation |==|  0.39494 0.59818 0.39092 0.96629
USER: genes 2 Torsion [CB]-CA--N-[C] |==|  0.26515
USER: genes 3 Torsion [N]-C--CA-[N] |==|  0.35399
USER: genes 4 Torsion [C]-CA--CB-[CG] |==|  0.43000
USER: genes 5 Torsion [CA]-CB--CG-[CD] |==|  0.87421
USER: genes 6 Torsion [CB]-CG--CD-[OE1] |==|  0.71830
USER: genes 7 Torsion [C]-CA--N-[H3] |==|  0.61885
USER: genes 8 Torsion [N]-CA--C-[N] |==|  0.36111
USER: genes 9 Torsion [C]-N--CA-[CB] |==|  0.46564
USER: genes 10 Torsion [N]-CA--CB-[CG] |==|  0.70253
USER: genes 11 Torsion [CA]-CB--CG-[CD1] |==|  0.18890
USER: genes 12 Torsion [N]-CA--C-[O] |==|  0.47897
USER: genes 13 Torsion [N]-CA--CB-[CG] |==|  0.95870
USER: genes 14 Torsion [CA]-CB--CG-[OD2] |==|  0.27672
ROOT
ATOM      1  CA  ASP C 507       9.245  26.024   6.667  1.00 33.68 LIG 0.19  C 
ENDROOT
BRANCH 1 2
ATOM      2  N   ASP C 507       7.847  26.404   6.819  1.00 35.05 LIG-0.34  N 
ATOM      3  C   GLU C 506       7.341  27.490   6.247  1.00 36.98 LIG 0.25  C 
ATOM      4 O    GLU C 506       8.021  28.281   5.583  1.00 35.33 LIG-0.27  OA
ATOM      5 H    ASP C 507       7.387  25.866   7.308  1.00 35.05 LIG 0.16  HD
BRANCH 3 6
ATOM      6  CA  GLU C 506       5.859  27.752   6.507  1.00 38.62 LIG 0.28  C 
BRANCH 6 7
ATOM      7  CB  GLU C 506       5.032  27.519   5.240  1.00 41.41 LIG 0.05  C 
BRANCH 7 8
ATOM      8  CG  GLU C 506       3.583  27.163   5.505  1.00 54.63 LIG 0.12  C 
BRANCH 8 9
ATOM      9  CD  GLU C 506       3.417  26.122   6.595  1.00 71.07 LIG 0.17  C 
ATOM     10 OE1  GLU C 506       3.192  24.935   6.265  1.00 74.77 LIG-0.65  OA
ATOM     11 OE2  GLU C 506       3.527  26.495   7.785  1.00 73.38 LIG-0.65  OA
ENDBRANCH 8 9
ENDBRANCH 7 8
ENDBRANCH 6 7
BRANCH 6 12
ATOM     12  N   GLU C 506       5.660  29.136   7.015  1.00 38.98 LIG-0.07  N 
ATOM     13 H3   GLU C 506       5.075  29.126   7.685  1.00 38.98 LIG 0.28  HD
ATOM     14 H2   GLU C 506       5.350  29.651   6.359  1.00 38.98 LIG 0.28  HD
ATOM     15 H1   GLU C 506       6.436  29.460   7.305  1.00 38.98 LIG 0.28  HD
ENDBRANCH 6 12
ENDBRANCH 3 6
ENDBRANCH 1 2
BRANCH 1 16
ATOM     16  C   ASP C 507       9.333  24.512   6.559  1.00 33.47 LIG 0.24  C 
ATOM     17 O    ASP C 507       8.732  23.786   7.353  1.00 34.83 LIG-0.27  OA
ATOM     18  N   LEU C 508      10.051  24.052   5.538  1.00 31.65 LIG-0.34  N 
ATOM     19 H    LEU C 508      10.463  24.559   4.978  1.00 31.65 LIG 0.16  HD
BRANCH 18 20
ATOM     20  CA  LEU C 508      10.203  22.629   5.277  1.00 32.20 LIG 0.18  C 
BRANCH 20 21
ATOM     21  CB  LEU C 508      10.807  22.436   3.893  1.00 32.28 LIG 0.04  C 
BRANCH 21 22
ATOM     22  CG  LEU C 508       9.735  21.918   2.941  1.00 33.09 LIG-0.02  C 
ATOM     23  CD1 LEU C 508       8.700  22.974   2.698  1.00 32.61 LIG 0.01  C 
ATOM     24  CD2 LEU C 508      10.384  21.427   1.655  1.00 34.13 LIG 0.01  C 
ENDBRANCH 21 22
ENDBRANCH 20 21
BRANCH 20 25
ATOM     25  C   LEU C 508      11.047  21.918   6.319  1.00 33.63 LIG 0.20  C 
ATOM     26 O    LEU C 508      11.119  20.672   6.268  0.50 32.81 LIG-0.65  OA
ATOM     27 OXT  LEU C 508      11.625  22.614   7.179  0.50 35.17 LIG-0.65  OA
ENDBRANCH 20 25
ENDBRANCH 18 20
ENDBRANCH 1 16
BRANCH 1 28
ATOM     28  CB  ASP C 507      10.053  26.547   7.851  1.00 31.02 LIG 0.15  C 
BRANCH 28 29
ATOM     29  CG  ASP C 507       9.292  27.592   8.642  1.00 34.22 LIG 0.17  C 
ATOM     30 OD2  ASP C 507       8.711  27.258   9.700  1.00 32.29 LIG-0.65  OA
ATOM     31 OD1  ASP C 507       9.239  28.744   8.174  1.00 33.73 LIG-0.65  OA
ENDBRANCH 28 29
ENDBRANCH 1 28
TORSDOF 13
ENDMDL
MODEL 39
USER: ADFR SOLUTION from run 95
USER: SCORE 11.947017 LL:  -1.845 LR: -11.011 RR:   0.000 FEB:  -7.134
USER: RMSD 6.452218
USER: SEED 94
USER: STATUS no improvement in best 20 clusters for 5 generations
USER: GENES 15
USER: genes 0 Translation |==|  0.51901 0.48023 0.50434
USER: genes 1 Rotation |==|  0.48417 0.13230 0.16536 0.55058
USER: genes 2 Torsion [CB]-CA--N-[C] |==|  0.18902
USER: genes 3 Torsion [N]-C--CA-[N] |==|  0.41875
USER: genes 4 Torsion [C]-CA--CB-[CG] |==|  0.92377
USER: genes 5 Torsion [CA]-CB--CG-[CD] |==|  0.28103
USER: genes 6 Torsion [CB]-CG--CD-[OE1] |==|  0.02144
USER: genes 7 Torsion [C]-CA--N-[H3] |==|  0.20308
USER: genes 8 Torsion [N]-CA--C-[N] |==|  0.48642
USER: genes 9 Torsion [C]-N--CA-[CB] |==|  0.45532
USER: genes 10 Torsion [N]-CA--CB-[CG] |==|  0.58300
USER: genes 11 Torsion [CA]-CB--CG-[CD1] |==|  0.31322
USER: genes 12 Torsion [N]-CA--C-[O] |==|  0.46691
USER: genes 13 Torsion [N]-CA--CB-[CG] |==|  0.65537
USER: genes 14 Torsion [CA]-CB--CG-[OD2] |==|  1.00000
ROOT
ATOM      1  CA  ASP C 507       9.020  24.777   4.520  1.00 33.68 LIG 0.19  C 
ENDROOT
BRANCH 1 2
ATOM      2  N   ASP C 507      10.377  24.484   4.077  1.00 35.05 LIG-0.34  N 
ATOM      3  C   GLU C 506      11.442  24.795   4.806  1.00 36.98 LIG 0.25  C 
ATOM      4 O    GLU C 506      11.370  25.392   5.886  1.00 35.33 LIG-0.27  OA
ATOM      5 H    ASP C 507      10.421  24.097   3.311  1.00 35.05 LIG 0.16  HD
BRANCH 3 6
ATOM      6  CA  GLU C 506      12.795  24.426   4.199  1.00 38.62 LIG 0.28  C 
BRANCH 6 7
ATOM      7  CB  GLU C 506      13.174  22.984   4.546  1.00 41.41 LIG 0.05  C 
BRANCH 7 8
ATOM      8  CG  GLU C 506      12.570  22.483   5.843  1.00 54.63 LIG 0.12  C 
BRANCH 8 9
ATOM      9  CD  GLU C 506      11.359  21.596   5.632  1.00 71.07 LIG 0.17  C 
ATOM     10 OE1  GLU C 506      11.067  21.244   4.465  1.00 74.77 LIG-0.65  OA
ATOM     11 OE2  GLU C 506      10.709  21.238   6.640  1.00 73.38 LIG-0.65  OA
ENDBRANCH 8 9
ENDBRANCH 7 8
ENDBRANCH 6 7
BRANCH 6 12
ATOM     12  N   GLU C 506      13.846  25.370   4.667  1.00 38.98 LIG-0.07  N 
ATOM     13 H3   GLU C 506      14.040  25.201   5.518  1.00 38.98 LIG 0.28  HD
ATOM     14 H2   GLU C 506      13.549  26.206   4.592  1.00 38.98 LIG 0.28  HD
ATOM     15 H1   GLU C 506      14.578  25.269   4.170  1.00 38.98 LIG 0.28  HD
ENDBRANCH 6 12
ENDBRANCH 3 6
ENDBRANCH 1 2
BRANCH 1 16
ATOM     16  C   ASP C 507       8.041  24.076   3.596  1.00 33.47 LIG 0.24  C 
ATOM     17 O    ASP C 507       8.441  23.431   2.623  1.00 34.83 LIG-0.27  OA
ATOM     18  N   LEU C 508       6.760  24.171   3.940  1.00 31.65 LIG-0.34  N 
ATOM     19 H    LEU C 508       6.481  24.612   4.624  1.00 31.65 LIG 0.16  HD
BRANCH 18 20
ATOM     20  CA  LEU C 508       5.702  23.526   3.177  1.00 32.20 LIG 0.18  C 
BRANCH 20 21
ATOM     21  CB  LEU C 508       4.435  23.480   4.018  1.00 32.28 LIG 0.04  C 
BRANCH 21 22
ATOM     22  CG  LEU C 508       3.613  22.255   3.629  1.00 33.09 LIG-0.02  C 
ATOM     23  CD1 LEU C 508       3.576  21.272   4.759  1.00 32.61 LIG 0.01  C 
ATOM     24  CD2 LEU C 508       2.225  22.690   3.184  1.00 34.13 LIG 0.01  C 
ENDBRANCH 21 22
ENDBRANCH 20 21
BRANCH 20 25
ATOM     25  C   LEU C 508       5.424  24.207   1.849  1.00 33.63 LIG 0.20  C 
ATOM     26 O    LEU C 508       4.703  23.611   1.022  0.50 32.81 LIG-0.65  OA
ATOM     27 OXT  LEU C 508       5.932  25.330   1.649  0.50 35.17 LIG-0.65  OA
ENDBRANCH 20 25
ENDBRANCH 18 20
ENDBRANCH 1 16
BRANCH 1 28
ATOM     28  CB  ASP C 507       8.795  26.287   4.531  1.00 31.02 LIG 0.15  C 
BRANCH 28 29
ATOM     29  CG  ASP C 507       8.345  26.783   5.890  1.00 34.22 LIG 0.17  C 
ATOM     30 OD2  ASP C 507       8.204  25.965   6.827  1.00 32.29 LIG-0.65  OA
ATOM     31 OD1  ASP C 507       8.088  27.996   6.004  1.00 33.73 LIG-0.65  OA
ENDBRANCH 28 29
ENDBRANCH 1 28
TORSDOF 13
ENDMDL
MODEL 40
USER: ADFR SOLUTION from run 12
USER: SCORE 12.180371 LL:  -2.884 LR: -11.001 RR:   0.000 FEB:  -7.123
USER: RMSD 6.040749
USER: SEED 69962
USER: STATUS no improvement in best 7 clusters for 5 generations
USER: GENES 15
USER: genes 0 Translation |==|  0.42309 0.54959 0.52586
USER: genes 1 Rotation |==|  0.04529 0.69898 0.53077 0.55196
USER: genes 2 Torsion [CB]-CA--N-[C] |==|  0.39113
USER: genes 3 Torsion [N]-C--CA-[N] |==|  0.90263
USER: genes 4 Torsion [C]-CA--CB-[CG] |==|  0.61420
USER: genes 5 Torsion [CA]-CB--CG-[CD] |==|  0.79938
USER: genes 6 Torsion [CB]-CG--CD-[OE1] |==|  0.72926
USER: genes 7 Torsion [C]-CA--N-[H3] |==|  0.87076
USER: genes 8 Torsion [N]-CA--C-[N] |==|  0.35456
USER: genes 9 Torsion [C]-N--CA-[CB] |==|  0.19487
USER: genes 10 Torsion [N]-CA--CB-[CG] |==|  0.07334
USER: genes 11 Torsion [CA]-CB--CG-[CD1] |==|  0.22512
USER: genes 12 Torsion [N]-CA--C-[O] |==|  0.60884
USER: genes 13 Torsion [N]-CA--CB-[CG] |==|  0.81574
USER: genes 14 Torsion [CA]-CB--CG-[OD2] |==|  0.52091
ROOT
ATOM      1  CA  ASP C 507       6.143  26.858   5.166  1.00 33.68 LIG 0.19  C 
ENDROOT
BRANCH 1 2
ATOM      2  N   ASP C 507       5.377  27.891   5.851  1.00 35.05 LIG-0.34  N 
ATOM      3  C   GLU C 506       4.637  27.631   6.922  1.00 36.98 LIG 0.25  C 
ATOM      4 O    GLU C 506       4.503  26.495   7.390  1.00 35.33 LIG-0.27  OA
ATOM      5 H    ASP C 507       5.451  28.673   5.501  1.00 35.05 LIG 0.16  HD
BRANCH 3 6
ATOM      6  CA  GLU C 506       3.892  28.822   7.521  1.00 38.62 LIG 0.28  C 
BRANCH 6 7
ATOM      7  CB  GLU C 506       2.525  29.003   6.855  1.00 41.41 LIG 0.05  C 
BRANCH 7 8
ATOM      8  CG  GLU C 506       2.162  30.449   6.576  1.00 54.63 LIG 0.12  C 
BRANCH 8 9
ATOM      9  CD  GLU C 506       1.819  31.228   7.831  1.00 71.07 LIG 0.17  C 
ATOM     10 OE1  GLU C 506       0.613  31.369   8.140  1.00 74.77 LIG-0.65  OA
ATOM     11 OE2  GLU C 506       2.762  31.685   8.515  1.00 73.38 LIG-0.65  OA
ENDBRANCH 8 9
ENDBRANCH 7 8
ENDBRANCH 6 7
BRANCH 6 12
ATOM     12  N   GLU C 506       4.706  30.061   7.390  1.00 38.98 LIG-0.07  N 
ATOM     13 H3   GLU C 506       5.543  29.895   7.644  1.00 38.98 LIG 0.28  HD
ATOM     14 H2   GLU C 506       4.362  30.699   7.906  1.00 38.98 LIG 0.28  HD
ATOM     15 H1   GLU C 506       4.702  30.330   6.542  1.00 38.98 LIG 0.28  HD
ENDBRANCH 6 12
ENDBRANCH 3 6
ENDBRANCH 1 2
BRANCH 1 16
ATOM     16  C   ASP C 507       7.577  26.900   5.661  1.00 33.47 LIG 0.24  C 
ATOM     17 O    ASP C 507       8.203  27.962   5.694  1.00 34.83 LIG-0.27  OA
ATOM     18  N   LEU C 508       8.070  25.741   6.090  1.00 31.65 LIG-0.34  N 
ATOM     19 H    LEU C 508       7.630  25.001   6.076  1.00 31.65 LIG 0.16  HD
BRANCH 18 20
ATOM     20  CA  LEU C 508       9.417  25.622   6.628  1.00 32.20 LIG 0.18  C 
BRANCH 20 21
ATOM     21  CB  LEU C 508       9.478  26.317   7.981  1.00 32.28 LIG 0.04  C 
BRANCH 21 22
ATOM     22  CG  LEU C 508       8.090  26.316   8.612  1.00 33.09 LIG-0.02  C 
ATOM     23  CD1 LEU C 508       7.816  24.995   9.265  1.00 32.61 LIG 0.01  C 
ATOM     24  CD2 LEU C 508       7.966  27.485   9.579  1.00 34.13 LIG 0.01  C 
ENDBRANCH 21 22
ENDBRANCH 20 21
BRANCH 20 25
ATOM     25  C   LEU C 508       9.882  24.183   6.757  1.00 33.63 LIG 0.20  C 
ATOM     26 O    LEU C 508      10.551  23.870   7.765  0.50 32.81 LIG-0.65  OA
ATOM     27 OXT  LEU C 508       9.575  23.384   5.848  0.50 35.17 LIG-0.65  OA
ENDBRANCH 20 25
ENDBRANCH 18 20
ENDBRANCH 1 16
BRANCH 1 28
ATOM     28  CB  ASP C 507       6.066  27.074   3.657  1.00 31.02 LIG 0.15  C 
BRANCH 28 29
ATOM     29  CG  ASP C 507       4.664  26.867   3.124  1.00 34.22 LIG 0.17  C 
ATOM     30 OD2  ASP C 507       4.470  26.870   1.887  1.00 32.29 LIG-0.65  OA
ATOM     31 OD1  ASP C 507       3.744  26.744   3.954  1.00 33.73 LIG-0.65  OA
ENDBRANCH 28 29
ENDBRANCH 1 28
TORSDOF 13
ENDMDL
MODEL 41
USER: ADFR SOLUTION from run 139
USER: SCORE 12.887315 LL:  -1.973 LR: -10.976 RR:   0.000 FEB:  -7.099
USER: RMSD 6.385768
USER: SEED 138
USER: STATUS no improvement in best 16 clusters for 5 generations
USER: GENES 15
USER: genes 0 Translation |==|  0.54187 0.46775 0.56933
USER: genes 1 Rotation |==|  0.59556 0.53913 0.98045 0.59220
USER: genes 2 Torsion [CB]-CA--N-[C] |==|  0.86111
USER: genes 3 Torsion [N]-C--CA-[N] |==|  0.43870
USER: genes 4 Torsion [C]-CA--CB-[CG] |==|  0.26701
USER: genes 5 Torsion [CA]-CB--CG-[CD] |==|  0.80199
USER: genes 6 Torsion [CB]-CG--CD-[OE1] |==|  0.78805
USER: genes 7 Torsion [C]-CA--N-[H3] |==|  0.49880
USER: genes 8 Torsion [N]-CA--C-[N] |==|  0.36451
USER: genes 9 Torsion [C]-N--CA-[CB] |==|  0.82374
USER: genes 10 Torsion [N]-CA--CB-[CG] |==|  0.92163
USER: genes 11 Torsion [CA]-CB--CG-[CD1] |==|  0.41824
USER: genes 12 Torsion [N]-CA--C-[O] |==|  0.72972
USER: genes 13 Torsion [N]-CA--CB-[CG] |==|  0.48026
USER: genes 14 Torsion [CA]-CB--CG-[OD2] |==|  0.61549
ROOT
ATOM      1  CA  ASP C 507       9.706  24.402   6.470  1.00 33.68 LIG 0.19  C 
ENDROOT
BRANCH 1 2
ATOM      2  N   ASP C 507      10.809  24.037   5.590  1.00 35.05 LIG-0.34  N 
ATOM      3  C   GLU C 506      11.987  24.646   5.641  1.00 36.98 LIG 0.25  C 
ATOM      4 O    GLU C 506      12.225  25.592   6.400  1.00 35.33 LIG-0.27  OA
ATOM      5 H    ASP C 507      10.625  23.399   5.044  1.00 35.05 LIG 0.16  HD
BRANCH 3 6
ATOM      6  CA  GLU C 506      13.037  24.149   4.649  1.00 38.62 LIG 0.28  C 
BRANCH 6 7
ATOM      7  CB  GLU C 506      13.683  22.851   5.141  1.00 41.41 LIG 0.05  C 
BRANCH 7 8
ATOM      8  CG  GLU C 506      13.062  21.596   4.561  1.00 54.63 LIG 0.12  C 
BRANCH 8 9
ATOM      9  CD  GLU C 506      11.676  21.311   5.108  1.00 71.07 LIG 0.17  C 
ATOM     10 OE1  GLU C 506      11.571  20.835   6.262  1.00 74.77 LIG-0.65  OA
ATOM     11 OE2  GLU C 506      10.692  21.580   4.383  1.00 73.38 LIG-0.65  OA
ENDBRANCH 8 9
ENDBRANCH 7 8
ENDBRANCH 6 7
BRANCH 6 12
ATOM     12  N   GLU C 506      14.071  25.195   4.423  1.00 38.98 LIG-0.07  N 
ATOM     13 H3   GLU C 506      14.680  24.893   3.850  1.00 38.98 LIG 0.28  HD
ATOM     14 H2   GLU C 506      14.466  25.394   5.196  1.00 38.98 LIG 0.28  HD
ATOM     15 H1   GLU C 506      13.686  25.925   4.090  1.00 38.98 LIG 0.28  HD
ENDBRANCH 6 12
ENDBRANCH 3 6
ENDBRANCH 1 2
BRANCH 1 16
ATOM     16  C   ASP C 507       9.153  25.747   6.031  1.00 33.47 LIG 0.24  C 
ATOM     17 O    ASP C 507       9.909  26.689   5.781  1.00 34.83 LIG-0.27  OA
ATOM     18  N   LEU C 508       7.832  25.806   5.896  1.00 31.65 LIG-0.34  N 
ATOM     19 H    LEU C 508       7.305  25.146   6.062  1.00 31.65 LIG 0.16  HD
BRANCH 18 20
ATOM     20  CA  LEU C 508       7.151  27.013   5.450  1.00 32.20 LIG 0.18  C 
BRANCH 20 21
ATOM     21  CB  LEU C 508       7.376  28.120   6.470  1.00 32.28 LIG 0.04  C 
BRANCH 21 22
ATOM     22  CG  LEU C 508       7.582  27.503   7.848  1.00 33.09 LIG-0.02  C 
ATOM     23  CD1 LEU C 508       8.466  28.378   8.684  1.00 32.61 LIG 0.01  C 
ATOM     24  CD2 LEU C 508       6.233  27.240   8.500  1.00 34.13 LIG 0.01  C 
ENDBRANCH 21 22
ENDBRANCH 20 21
BRANCH 20 25
ATOM     25  C   LEU C 508       7.595  27.472   4.073  1.00 33.63 LIG 0.20  C 
ATOM     26 O    LEU C 508       8.462  28.369   4.003  0.50 32.81 LIG-0.65  OA
ATOM     27 OXT  LEU C 508       7.070  26.932   3.077  0.50 35.17 LIG-0.65  OA
ENDBRANCH 20 25
ENDBRANCH 18 20
ENDBRANCH 1 16
BRANCH 1 28
ATOM     28  CB  ASP C 507      10.192  24.444   7.917  1.00 31.02 LIG 0.15  C 
BRANCH 28 29
ATOM     29  CG  ASP C 507       9.134  24.985   8.855  1.00 34.22 LIG 0.17  C 
ATOM     30 OD2  ASP C 507       9.466  25.781   9.762  1.00 32.29 LIG-0.65  OA
ATOM     31 OD1  ASP C 507       7.968  24.573   8.709  1.00 33.73 LIG-0.65  OA
ENDBRANCH 28 29
ENDBRANCH 1 28
TORSDOF 13
ENDMDL
MODEL 42
USER: ADFR SOLUTION from run 50
USER: SCORE 12.309220 LL:  -1.352 LR: -10.963 RR:   0.000 FEB:  -7.085
USER: RMSD 6.493883
USER: SEED 49
USER: STATUS no improvement in best 23 clusters for 5 generations
USER: GENES 15
USER: genes 0 Translation |==|  0.54541 0.46514 0.56588
USER: genes 1 Rotation |==|  0.66433 0.39537 0.95535 0.56860
USER: genes 2 Torsion [CB]-CA--N-[C] |==|  0.84444
USER: genes 3 Torsion [N]-C--CA-[N] |==|  0.61013
USER: genes 4 Torsion [C]-CA--CB-[CG] |==|  0.82936
USER: genes 5 Torsion [CA]-CB--CG-[CD] |==|  0.37537
USER: genes 6 Torsion [CB]-CG--CD-[OE1] |==|  0.67656
USER: genes 7 Torsion [C]-CA--N-[H3] |==|  0.96817
USER: genes 8 Torsion [N]-CA--C-[N] |==|  0.37341
USER: genes 9 Torsion [C]-N--CA-[CB] |==|  0.53807
USER: genes 10 Torsion [N]-CA--CB-[CG] |==|  0.68344
USER: genes 11 Torsion [CA]-CB--CG-[CD1] |==|  0.16270
USER: genes 12 Torsion [N]-CA--C-[O] |==|  0.80239
USER: genes 13 Torsion [N]-CA--CB-[CG] |==|  0.87874
USER: genes 14 Torsion [CA]-CB--CG-[OD2] |==|  0.25723
ROOT
ATOM      1  CA  ASP C 507       9.812  24.324   6.367  1.00 33.68 LIG 0.19  C 
ENDROOT
BRANCH 1 2
ATOM      2  N   ASP C 507      10.715  24.545   5.244  1.00 35.05 LIG-0.34  N 
ATOM      3  C   GLU C 506      11.903  25.117   5.393  1.00 36.98 LIG 0.25  C 
ATOM      4 O    GLU C 506      12.315  25.544   6.477  1.00 35.33 LIG-0.27  OA
ATOM      5 H    ASP C 507      10.408  24.273   4.488  1.00 35.05 LIG 0.16  HD
BRANCH 3 6
ATOM      6  CA  GLU C 506      12.728  25.280   4.117  1.00 38.62 LIG 0.28  C 
BRANCH 6 7
ATOM      7  CB  GLU C 506      12.200  24.371   3.005  1.00 41.41 LIG 0.05  C 
BRANCH 7 8
ATOM      8  CG  GLU C 506      12.264  22.893   3.335  1.00 54.63 LIG 0.12  C 
BRANCH 8 9
ATOM      9  CD  GLU C 506      10.995  22.147   2.972  1.00 71.07 LIG 0.17  C 
ATOM     10 OE1  GLU C 506      10.324  21.619   3.888  1.00 74.77 LIG-0.65  OA
ATOM     11 OE2  GLU C 506      10.663  22.104   1.765  1.00 73.38 LIG-0.65  OA
ENDBRANCH 8 9
ENDBRANCH 7 8
ENDBRANCH 6 7
BRANCH 6 12
ATOM     12  N   GLU C 506      14.163  24.995   4.390  1.00 38.98 LIG-0.07  N 
ATOM     13 H3   GLU C 506      14.295  24.946   5.268  1.00 38.98 LIG 0.28  HD
ATOM     14 H2   GLU C 506      14.665  25.647   4.051  1.00 38.98 LIG 0.28  HD
ATOM     15 H1   GLU C 506      14.388  24.221   4.013  1.00 38.98 LIG 0.28  HD
ENDBRANCH 6 12
ENDBRANCH 3 6
ENDBRANCH 1 2
BRANCH 1 16
ATOM     16  C   ASP C 507       9.352  25.670   6.898  1.00 33.47 LIG 0.24  C 
ATOM     17 O    ASP C 507      10.151  26.599   7.040  1.00 34.83 LIG-0.27  OA
ATOM     18  N   LEU C 508       8.050  25.775   7.143  1.00 31.65 LIG-0.34  N 
ATOM     19 H    LEU C 508       7.490  25.129   7.036  1.00 31.65 LIG 0.16  HD
BRANCH 18 20
ATOM     20  CA  LEU C 508       7.448  27.010   7.623  1.00 32.20 LIG 0.18  C 
BRANCH 20 21
ATOM     21  CB  LEU C 508       6.040  26.718   8.124  1.00 32.28 LIG 0.04  C 
BRANCH 21 22
ATOM     22  CG  LEU C 508       5.028  27.420   7.225  1.00 33.09 LIG-0.02  C 
ATOM     23  CD1 LEU C 508       5.181  26.957   5.808  1.00 32.61 LIG 0.01  C 
ATOM     24  CD2 LEU C 508       3.623  27.201   7.765  1.00 34.13 LIG 0.01  C 
ENDBRANCH 21 22
ENDBRANCH 20 21
BRANCH 20 25
ATOM     25  C   LEU C 508       8.261  27.685   8.712  1.00 33.63 LIG 0.20  C 
ATOM     26 O    LEU C 508       8.294  27.149   9.840  0.50 32.81 LIG-0.65  OA
ATOM     27 OXT  LEU C 508       8.856  28.745   8.427  0.50 35.17 LIG-0.65  OA
ENDBRANCH 20 25
ENDBRANCH 18 20
ENDBRANCH 1 16
BRANCH 1 28
ATOM     28  CB  ASP C 507      10.521  23.510   7.446  1.00 31.02 LIG 0.15  C 
BRANCH 28 29
ATOM     29  CG  ASP C 507      11.309  22.356   6.861  1.00 34.22 LIG 0.17  C 
ATOM     30 OD2  ASP C 507      12.518  22.519   6.580  1.00 32.29 LIG-0.65  OA
ATOM     31 OD1  ASP C 507      10.699  21.293   6.641  1.00 33.73 LIG-0.65  OA
ENDBRANCH 28 29
ENDBRANCH 1 28
TORSDOF 13
ENDMDL
MODEL 43
USER: ADFR SOLUTION from run 51
USER: SCORE 12.175295 LL:  -2.359 LR: -10.933 RR:   0.000 FEB:  -7.055
USER: RMSD 12.332626
USER: SEED 50
USER: STATUS no improvement in best 10 clusters for 5 generations
USER: GENES 15
USER: genes 0 Translation |==|  0.74396 0.30461 0.49800
USER: genes 1 Rotation |==|  0.28671 0.05385 0.56775 0.52943
USER: genes 2 Torsion [CB]-CA--N-[C] |==|  0.25555
USER: genes 3 Torsion [N]-C--CA-[N] |==|  0.35411
USER: genes 4 Torsion [C]-CA--CB-[CG] |==|  0.45100
USER: genes 5 Torsion [CA]-CB--CG-[CD] |==|  0.87921
USER: genes 6 Torsion [CB]-CG--CD-[OE1] |==|  0.68946
USER: genes 7 Torsion [C]-CA--N-[H3] |==|  0.89909
USER: genes 8 Torsion [N]-CA--C-[N] |==|  0.32780
USER: genes 9 Torsion [C]-N--CA-[CB] |==|  0.48406
USER: genes 10 Torsion [N]-CA--CB-[CG] |==|  0.70341
USER: genes 11 Torsion [CA]-CB--CG-[CD1] |==|  0.15542
USER: genes 12 Torsion [N]-CA--C-[O] |==|  0.98445
USER: genes 13 Torsion [N]-CA--CB-[CG] |==|  0.96392
USER: genes 14 Torsion [CA]-CB--CG-[OD2] |==|  0.25318
ROOT
ATOM      1  CA  ASP C 507      15.769  19.508   4.330  1.00 33.68 LIG 0.19  C 
ENDROOT
BRANCH 1 2
ATOM      2  N   ASP C 507      16.567  18.378   4.787  1.00 35.05 LIG-0.34  N 
ATOM      3  C   GLU C 506      17.894  18.408   4.802  1.00 36.98 LIG 0.25  C 
ATOM      4 O    GLU C 506      18.551  19.370   4.390  1.00 35.33 LIG-0.27  OA
ATOM      5 H    ASP C 507      16.103  17.701   5.043  1.00 35.05 LIG 0.16  HD
BRANCH 3 6
ATOM      6  CA  GLU C 506      18.583  17.141   5.306  1.00 38.62 LIG 0.28  C 
BRANCH 6 7
ATOM      7  CB  GLU C 506      19.234  17.379   6.671  1.00 41.41 LIG 0.05  C 
BRANCH 7 8
ATOM      8  CG  GLU C 506      19.564  16.107   7.427  1.00 54.63 LIG 0.12  C 
BRANCH 8 9
ATOM      9  CD  GLU C 506      18.453  15.077   7.370  1.00 71.07 LIG 0.17  C 
ATOM     10 OE1  GLU C 506      17.825  14.810   8.421  1.00 74.77 LIG-0.65  OA
ATOM     11 OE2  GLU C 506      18.200  14.545   6.265  1.00 73.38 LIG-0.65  OA
ENDBRANCH 8 9
ENDBRANCH 7 8
ENDBRANCH 6 7
BRANCH 6 12
ATOM     12  N   GLU C 506      19.594  16.676   4.318  1.00 38.98 LIG-0.07  N 
ATOM     13 H3   GLU C 506      19.295  16.824   3.494  1.00 38.98 LIG 0.28  HD
ATOM     14 H2   GLU C 506      19.737  15.804   4.428  1.00 38.98 LIG 0.28  HD
ATOM     15 H1   GLU C 506      20.356  17.119   4.442  1.00 38.98 LIG 0.28  HD
ENDBRANCH 6 12
ENDBRANCH 3 6
ENDBRANCH 1 2
BRANCH 1 16
ATOM     16  C   ASP C 507      14.492  19.570   5.149  1.00 33.47 LIG 0.24  C 
ATOM     17 O    ASP C 507      13.700  18.625   5.156  1.00 34.83 LIG-0.27  OA
ATOM     18  N   LEU C 508      14.328  20.674   5.872  1.00 31.65 LIG-0.34  N 
ATOM     19 H    LEU C 508      14.885  21.330   5.875  1.00 31.65 LIG 0.16  HD
BRANCH 18 20
ATOM     20  CA  LEU C 508      13.174  20.870   6.737  1.00 32.20 LIG 0.18  C 
BRANCH 20 21
ATOM     21  CB  LEU C 508      13.354  22.158   7.528  1.00 32.28 LIG 0.04  C 
BRANCH 21 22
ATOM     22  CG  LEU C 508      13.679  21.818   8.978  1.00 33.09 LIG-0.02  C 
ATOM     23  CD1 LEU C 508      14.886  20.933   9.048  1.00 32.61 LIG 0.01  C 
ATOM     24  CD2 LEU C 508      13.846  23.101   9.780  1.00 34.13 LIG 0.01  C 
ENDBRANCH 21 22
ENDBRANCH 20 21
BRANCH 20 25
ATOM     25  C   LEU C 508      11.860  20.902   5.978  1.00 33.63 LIG 0.20  C 
ATOM     26 O    LEU C 508      11.901  20.870   4.729  0.50 32.81 LIG-0.65  OA
ATOM     27 OXT  LEU C 508      10.802  20.961   6.638  0.50 35.17 LIG-0.65  OA
ENDBRANCH 20 25
ENDBRANCH 18 20
ENDBRANCH 1 16
BRANCH 1 28
ATOM     28  CB  ASP C 507      15.471  19.360   2.840  1.00 31.02 LIG 0.15  C 
BRANCH 28 29
ATOM     29  CG  ASP C 507      16.325  18.288   2.195  1.00 34.22 LIG 0.17  C 
ATOM     30 OD2  ASP C 507      15.897  17.112   2.141  1.00 32.29 LIG-0.65  OA
ATOM     31 OD1  ASP C 507      17.450  18.620   1.778  1.00 33.73 LIG-0.65  OA
ENDBRANCH 28 29
ENDBRANCH 1 28
TORSDOF 13
ENDMDL
MODEL 44
USER: ADFR SOLUTION from run 34
USER: SCORE 12.287896 LL:  -1.994 LR: -10.910 RR:   0.000 FEB:  -7.032
USER: RMSD 9.556891
USER: SEED 33
USER: STATUS no improvement in best 7 clusters for 5 generations
USER: GENES 15
USER: genes 0 Translation |==|  0.68724 0.34050 0.54384
USER: genes 1 Rotation |==|  0.87107 0.23329 0.30403 0.55266
USER: genes 2 Torsion [CB]-CA--N-[C] |==|  0.50558
USER: genes 3 Torsion [N]-C--CA-[N] |==|  0.82257
USER: genes 4 Torsion [C]-CA--CB-[CG] |==|  0.12031
USER: genes 5 Torsion [CA]-CB--CG-[CD] |==|  0.18358
USER: genes 6 Torsion [CB]-CG--CD-[OE1] |==|  0.19309
USER: genes 7 Torsion [C]-CA--N-[H3] |==|  0.22001
USER: genes 8 Torsion [N]-CA--C-[N] |==|  0.39278
USER: genes 9 Torsion [C]-N--CA-[CB] |==|  0.85995
USER: genes 10 Torsion [N]-CA--CB-[CG] |==|  0.74032
USER: genes 11 Torsion [CA]-CB--CG-[CD1] |==|  0.82043
USER: genes 12 Torsion [N]-CA--C-[O] |==|  0.72171
USER: genes 13 Torsion [N]-CA--CB-[CG] |==|  0.82294
USER: genes 14 Torsion [CA]-CB--CG-[OD2] |==|  0.95825
ROOT
ATOM      1  CA  ASP C 507      14.067  20.585   5.705  1.00 33.68 LIG 0.19  C 
ENDROOT
BRANCH 1 2
ATOM      2  N   ASP C 507      14.325  21.780   6.498  1.00 35.05 LIG-0.34  N 
ATOM      3  C   GLU C 506      15.288  21.832   7.409  1.00 36.98 LIG 0.25  C 
ATOM      4 O    GLU C 506      16.007  20.865   7.687  1.00 35.33 LIG-0.27  OA
ATOM      5 H    ASP C 507      13.800  22.439   6.321  1.00 35.05 LIG 0.16  HD
BRANCH 3 6
ATOM      6  CA  GLU C 506      15.426  23.156   8.158  1.00 38.62 LIG 0.28  C 
BRANCH 6 7
ATOM      7  CB  GLU C 506      14.129  23.507   8.892  1.00 41.41 LIG 0.05  C 
BRANCH 7 8
ATOM      8  CG  GLU C 506      13.492  22.334   9.611  1.00 54.63 LIG 0.12  C 
BRANCH 8 9
ATOM      9  CD  GLU C 506      14.329  21.818  10.764  1.00 71.07 LIG 0.17  C 
ATOM     10 OE1  GLU C 506      14.450  22.531  11.787  1.00 74.77 LIG-0.65  OA
ATOM     11 OE2  GLU C 506      14.854  20.687  10.649  1.00 73.38 LIG-0.65  OA
ENDBRANCH 8 9
ENDBRANCH 7 8
ENDBRANCH 6 7
BRANCH 6 12
ATOM     12  N   GLU C 506      15.806  24.245   7.218  1.00 38.98 LIG-0.07  N 
ATOM     13 H3   GLU C 506      15.086  24.520   6.774  1.00 38.98 LIG 0.28  HD
ATOM     14 H2   GLU C 506      16.411  23.941   6.639  1.00 38.98 LIG 0.28  HD
ATOM     15 H1   GLU C 506      16.150  24.926   7.676  1.00 38.98 LIG 0.28  HD
ENDBRANCH 6 12
ENDBRANCH 3 6
ENDBRANCH 1 2
BRANCH 1 16
ATOM     16  C   ASP C 507      15.346  20.185   4.991  1.00 33.47 LIG 0.24  C 
ATOM     17 O    ASP C 507      16.122  21.041   4.559  1.00 34.83 LIG-0.27  OA
ATOM     18  N   LEU C 508      15.576  18.878   4.916  1.00 31.65 LIG-0.34  N 
ATOM     19 H    LEU C 508      15.040  18.280   5.226  1.00 31.65 LIG 0.16  HD
BRANCH 18 20
ATOM     20  CA  LEU C 508      16.774  18.336   4.294  1.00 32.20 LIG 0.18  C 
BRANCH 20 21
ATOM     21  CB  LEU C 508      16.951  18.962   2.918  1.00 32.28 LIG 0.04  C 
BRANCH 21 22
ATOM     22  CG  LEU C 508      16.302  18.067   1.868  1.00 33.09 LIG-0.02  C 
ATOM     23  CD1 LEU C 508      17.013  16.749   1.796  1.00 32.61 LIG 0.01  C 
ATOM     24  CD2 LEU C 508      14.818  17.917   2.168  1.00 34.13 LIG 0.01  C 
ENDBRANCH 21 22
ENDBRANCH 20 21
BRANCH 20 25
ATOM     25  C   LEU C 508      18.025  18.544   5.128  1.00 33.63 LIG 0.20  C 
ATOM     26 O    LEU C 508      18.788  19.484   4.819  0.50 32.81 LIG-0.65  OA
ATOM     27 OXT  LEU C 508      18.231  17.765   6.081  0.50 35.17 LIG-0.65  OA
ENDBRANCH 20 25
ENDBRANCH 18 20
ENDBRANCH 1 16
BRANCH 1 28
ATOM     28  CB  ASP C 507      12.936  20.855   4.717  1.00 31.02 LIG 0.15  C 
BRANCH 28 29
ATOM     29  CG  ASP C 507      11.627  21.151   5.419  1.00 34.22 LIG 0.17  C 
ATOM     30 OD2  ASP C 507      11.507  20.876   6.635  1.00 32.29 LIG-0.65  OA
ATOM     31 OD1  ASP C 507      10.698  21.620   4.736  1.00 33.73 LIG-0.65  OA
ENDBRANCH 28 29
ENDBRANCH 1 28
TORSDOF 13
ENDMDL
MODEL 45
USER: ADFR SOLUTION from run 67
USER: SCORE 12.271455 LL:  -1.741 LR: -10.890 RR:   0.000 FEB:  -7.012
USER: RMSD 10.091808
USER: SEED 66
USER: STATUS no improvement in best 16 clusters for 5 generations
USER: GENES 15
USER: genes 0 Translation |==|  0.76328 0.32617 0.53981
USER: genes 1 Rotation |==|  0.12513 0.78581 0.37656 0.61200
USER: genes 2 Torsion [CB]-CA--N-[C] |==|  0.20552
USER: genes 3 Torsion [N]-C--CA-[N] |==|  0.36388
USER: genes 4 Torsion [C]-CA--CB-[CG] |==|  0.82854
USER: genes 5 Torsion [CA]-CB--CG-[CD] |==|  0.30282
USER: genes 6 Torsion [CB]-CG--CD-[OE1] |==|  0.08882
USER: genes 7 Torsion [C]-CA--N-[H3] |==|  0.83783
USER: genes 8 Torsion [N]-CA--C-[N] |==|  0.01214
USER: genes 9 Torsion [C]-N--CA-[CB] |==|  0.85911
USER: genes 10 Torsion [N]-CA--CB-[CG] |==|  0.73781
USER: genes 11 Torsion [CA]-CB--CG-[CD1] |==|  0.11749
USER: genes 12 Torsion [N]-CA--C-[O] |==|  0.11636
USER: genes 13 Torsion [N]-CA--CB-[CG] |==|  0.59617
USER: genes 14 Torsion [CA]-CB--CG-[OD2] |==|  0.02961
ROOT
ATOM      1  CA  ASP C 507      16.348  20.155   5.584  1.00 33.68 LIG 0.19  C 
ENDROOT
BRANCH 1 2
ATOM      2  N   ASP C 507      15.950  21.527   5.869  1.00 35.05 LIG-0.34  N 
ATOM      3  C   GLU C 506      15.037  22.164   5.145  1.00 36.98 LIG 0.25  C 
ATOM      4 O    GLU C 506      14.492  21.664   4.155  1.00 35.33 LIG-0.27  OA
ATOM      5 H    ASP C 507      16.356  21.879   6.540  1.00 35.05 LIG 0.16  HD
BRANCH 3 6
ATOM      6  CA  GLU C 506      14.734  23.600   5.569  1.00 38.62 LIG 0.28  C 
BRANCH 6 7
ATOM      7  CB  GLU C 506      13.376  23.688   6.268  1.00 41.41 LIG 0.05  C 
BRANCH 7 8
ATOM      8  CG  GLU C 506      12.205  23.281   5.395  1.00 54.63 LIG 0.12  C 
BRANCH 8 9
ATOM      9  CD  GLU C 506      11.590  21.957   5.804  1.00 71.07 LIG 0.17  C 
ATOM     10 OE1  GLU C 506      11.603  21.637   7.015  1.00 74.77 LIG-0.65  OA
ATOM     11 OE2  GLU C 506      11.080  21.245   4.910  1.00 73.38 LIG-0.65  OA
ENDBRANCH 8 9
ENDBRANCH 7 8
ENDBRANCH 6 7
BRANCH 6 12
ATOM     12  N   GLU C 506      14.776  24.507   4.390  1.00 38.98 LIG-0.07  N 
ATOM     13 H3   GLU C 506      15.578  24.460   4.007  1.00 38.98 LIG 0.28  HD
ATOM     14 H2   GLU C 506      14.622  25.343   4.653  1.00 38.98 LIG 0.28  HD
ATOM     15 H1   GLU C 506      14.153  24.260   3.804  1.00 38.98 LIG 0.28  HD
ENDBRANCH 6 12
ENDBRANCH 3 6
ENDBRANCH 1 2
BRANCH 1 16
ATOM     16  C   ASP C 507      17.078  19.596   6.793  1.00 33.47 LIG 0.24  C 
ATOM     17 O    ASP C 507      17.620  18.489   6.747  1.00 34.83 LIG-0.27  OA
ATOM     18  N   LEU C 508      17.124  20.395   7.855  1.00 31.65 LIG-0.34  N 
ATOM     19 H    LEU C 508      16.754  21.172   7.884  1.00 31.65 LIG 0.16  HD
BRANCH 18 20
ATOM     20  CA  LEU C 508      17.816  20.019   9.079  1.00 32.20 LIG 0.18  C 
BRANCH 20 21
ATOM     21  CB  LEU C 508      17.352  18.635   9.510  1.00 32.28 LIG 0.04  C 
BRANCH 21 22
ATOM     22  CG  LEU C 508      16.215  18.774  10.516  1.00 33.09 LIG-0.02  C 
ATOM     23  CD1 LEU C 508      15.263  19.846  10.081  1.00 32.61 LIG 0.01  C 
ATOM     24  CD2 LEU C 508      15.534  17.427  10.709  1.00 34.13 LIG 0.01  C 
ENDBRANCH 21 22
ENDBRANCH 20 21
BRANCH 20 25
ATOM     25  C   LEU C 508      19.327  20.046   8.941  1.00 33.63 LIG 0.20  C 
ATOM     26 O    LEU C 508      19.845  20.997   8.318  0.50 32.81 LIG-0.65  OA
ATOM     27 OXT  LEU C 508      19.979  19.114   9.456  0.50 35.17 LIG-0.65  OA
ENDBRANCH 20 25
ENDBRANCH 18 20
ENDBRANCH 1 16
BRANCH 1 28
ATOM     28  CB  ASP C 507      17.227  20.121   4.336  1.00 31.02 LIG 0.15  C 
BRANCH 28 29
ATOM     29  CG  ASP C 507      17.001  18.866   3.518  1.00 34.22 LIG 0.17  C 
ATOM     30 OD2  ASP C 507      16.035  18.119   3.793  1.00 32.29 LIG-0.65  OA
ATOM     31 OD1  ASP C 507      17.825  18.607   2.621  1.00 33.73 LIG-0.65  OA
ENDBRANCH 28 29
ENDBRANCH 1 28
TORSDOF 13
ENDMDL
MODEL 46
USER: ADFR SOLUTION from run 126
USER: SCORE 13.249511 LL:  -2.452 LR: -10.887 RR:   0.000 FEB:  -7.009
USER: RMSD 14.577085
USER: SEED 125
USER: STATUS no improvement in best 10 clusters for 5 generations
USER: GENES 15
USER: genes 0 Translation |==|  0.48710 0.77410 0.11984
USER: genes 1 Rotation |==|  0.06820 0.57082 0.72939 0.57690
USER: genes 2 Torsion [CB]-CA--N-[C] |==|  0.13412
USER: genes 3 Torsion [N]-C--CA-[N] |==|  0.23604
USER: genes 4 Torsion [C]-CA--CB-[CG] |==|  0.58612
USER: genes 5 Torsion [CA]-CB--CG-[CD] |==|  0.82898
USER: genes 6 Torsion [CB]-CG--CD-[OE1] |==|  0.15440
USER: genes 7 Torsion [C]-CA--N-[H3] |==|  0.56824
USER: genes 8 Torsion [N]-CA--C-[N] |==|  0.13325
USER: genes 9 Torsion [C]-N--CA-[CB] |==|  0.86822
USER: genes 10 Torsion [N]-CA--CB-[CG] |==|  0.59595
USER: genes 11 Torsion [CA]-CB--CG-[CD1] |==|  0.13585
USER: genes 12 Torsion [N]-CA--C-[O] |==|  0.64162
USER: genes 13 Torsion [N]-CA--CB-[CG] |==|  0.16045
USER: genes 14 Torsion [CA]-CB--CG-[OD2] |==|  0.35189
ROOT
ATOM      1  CA  ASP C 507       8.063  33.593  -7.015  1.00 33.68 LIG 0.19  C 
ENDROOT
BRANCH 1 2
ATOM      2  N   ASP C 507       7.697  33.777  -5.617  1.00 35.05 LIG-0.34  N 
ATOM      3  C   GLU C 506       6.526  33.380  -5.133  1.00 36.98 LIG 0.25  C 
ATOM      4 O    GLU C 506       5.645  32.870  -5.833  1.00 35.33 LIG-0.27  OA
ATOM      5 H    ASP C 507       8.303  34.160  -5.142  1.00 35.05 LIG 0.16  HD
BRANCH 3 6
ATOM      6  CA  GLU C 506       6.294  33.649  -3.647  1.00 38.62 LIG 0.28  C 
BRANCH 6 7
ATOM      7  CB  GLU C 506       5.328  32.622  -3.051  1.00 41.41 LIG 0.05  C 
BRANCH 7 8
ATOM      8  CG  GLU C 506       4.481  33.159  -1.914  1.00 54.63 LIG 0.12  C 
BRANCH 8 9
ATOM      9  CD  GLU C 506       5.303  33.620  -0.727  1.00 71.07 LIG 0.17  C 
ATOM     10 OE1  GLU C 506       6.199  34.476  -0.911  1.00 74.77 LIG-0.65  OA
ATOM     11 OE2  GLU C 506       5.039  33.133   0.396  1.00 73.38 LIG-0.65  OA
ENDBRANCH 8 9
ENDBRANCH 7 8
ENDBRANCH 6 7
BRANCH 6 12
ATOM     12  N   GLU C 506       5.778  35.030  -3.447  1.00 38.98 LIG-0.07  N 
ATOM     13 H3   GLU C 506       5.976  35.305  -2.624  1.00 38.98 LIG 0.28  HD
ATOM     14 H2   GLU C 506       4.895  35.036  -3.556  1.00 38.98 LIG 0.28  HD
ATOM     15 H1   GLU C 506       6.154  35.576  -4.040  1.00 38.98 LIG 0.28  HD
ENDBRANCH 6 12
ENDBRANCH 3 6
ENDBRANCH 1 2
BRANCH 1 16
ATOM     16  C   ASP C 507       9.347  34.356  -7.290  1.00 33.47 LIG 0.24  C 
ATOM     17 O    ASP C 507       9.430  35.126  -8.250  1.00 34.83 LIG-0.27  OA
ATOM     18  N   LEU C 508      10.325  34.167  -6.410  1.00 31.65 LIG-0.34  N 
ATOM     19 H    LEU C 508      10.264  33.637  -5.735  1.00 31.65 LIG 0.16  HD
BRANCH 18 20
ATOM     20  CA  LEU C 508      11.605  34.852  -6.514  1.00 32.20 LIG 0.18  C 
BRANCH 20 21
ATOM     21  CB  LEU C 508      12.115  34.745  -7.945  1.00 32.28 LIG 0.04  C 
BRANCH 21 22
ATOM     22  CG  LEU C 508      13.636  34.637  -7.932  1.00 33.09 LIG-0.02  C 
ATOM     23  CD1 LEU C 508      14.075  33.591  -6.953  1.00 32.61 LIG 0.01  C 
ATOM     24  CD2 LEU C 508      14.142  34.370  -9.342  1.00 34.13 LIG 0.01  C 
ENDBRANCH 21 22
ENDBRANCH 20 21
BRANCH 20 25
ATOM     25  C   LEU C 508      11.537  36.308  -6.091  1.00 33.63 LIG 0.20  C 
ATOM     26 O    LEU C 508      12.001  37.169  -6.869  0.50 32.81 LIG-0.65  OA
ATOM     27 OXT  LEU C 508      11.022  36.574  -4.986  0.50 35.17 LIG-0.65  OA
ENDBRANCH 20 25
ENDBRANCH 18 20
ENDBRANCH 1 16
BRANCH 1 28
ATOM     28  CB  ASP C 507       6.925  34.072  -7.913  1.00 31.02 LIG 0.15  C 
BRANCH 28 29
ATOM     29  CG  ASP C 507       6.575  35.524  -7.660  1.00 34.22 LIG 0.17  C 
ATOM     30 OD2  ASP C 507       6.552  36.326  -8.621  1.00 32.29 LIG-0.65  OA
ATOM     31 OD1  ASP C 507       6.365  35.870  -6.483  1.00 33.73 LIG-0.65  OA
ENDBRANCH 28 29
ENDBRANCH 1 28
TORSDOF 13
ENDMDL
MODEL 47
USER: ADFR SOLUTION from run 79
USER: SCORE 12.294528 LL:  -2.059 LR: -10.886 RR:   0.000 FEB:  -7.008
USER: RMSD 8.162677
USER: SEED 78
USER: STATUS no improvement in best 7 clusters for 5 generations
USER: GENES 15
USER: genes 0 Translation |==|  0.66192 0.35984 0.45884
USER: genes 1 Rotation |==|  0.50839 0.77518 0.12899 0.69121
USER: genes 2 Torsion [CB]-CA--N-[C] |==|  0.87647
USER: genes 3 Torsion [N]-C--CA-[N] |==|  0.05682
USER: genes 4 Torsion [C]-CA--CB-[CG] |==|  0.86404
USER: genes 5 Torsion [CA]-CB--CG-[CD] |==|  0.29471
USER: genes 6 Torsion [CB]-CG--CD-[OE1] |==|  0.16153
USER: genes 7 Torsion [C]-CA--N-[H3] |==|  0.67398
USER: genes 8 Torsion [N]-CA--C-[N] |==|  0.30006
USER: genes 9 Torsion [C]-N--CA-[CB] |==|  0.18885
USER: genes 10 Torsion [N]-CA--CB-[CG] |==|  0.13787
USER: genes 11 Torsion [CA]-CB--CG-[CD1] |==|  0.33133
USER: genes 12 Torsion [N]-CA--C-[O] |==|  0.10835
USER: genes 13 Torsion [N]-CA--CB-[CG] |==|  0.81508
USER: genes 14 Torsion [CA]-CB--CG-[OD2] |==|  0.71845
ROOT
ATOM      1  CA  ASP C 507      13.308  21.165   3.155  1.00 33.68 LIG 0.19  C 
ENDROOT
BRANCH 1 2
ATOM      2  N   ASP C 507      14.003  22.277   3.790  1.00 35.05 LIG-0.34  N 
ATOM      3  C   GLU C 506      14.313  22.274   5.081  1.00 36.98 LIG 0.25  C 
ATOM      4 O    GLU C 506      13.998  21.358   5.848  1.00 35.33 LIG-0.27  OA
ATOM      5 H    ASP C 507      14.190  22.925   3.256  1.00 35.05 LIG 0.16  HD
BRANCH 3 6
ATOM      6  CA  GLU C 506      15.037  23.517   5.595  1.00 38.62 LIG 0.28  C 
BRANCH 6 7
ATOM      7  CB  GLU C 506      14.579  23.870   7.012  1.00 41.41 LIG 0.05  C 
BRANCH 7 8
ATOM      8  CG  GLU C 506      13.073  23.904   7.182  1.00 54.63 LIG 0.12  C 
BRANCH 8 9
ATOM      9  CD  GLU C 506      12.535  22.710   7.948  1.00 71.07 LIG 0.17  C 
ATOM     10 OE1  GLU C 506      12.961  22.497   9.106  1.00 74.77 LIG-0.65  OA
ATOM     11 OE2  GLU C 506      11.672  21.995   7.390  1.00 73.38 LIG-0.65  OA
ENDBRANCH 8 9
ENDBRANCH 7 8
ENDBRANCH 6 7
BRANCH 6 12
ATOM     12  N   GLU C 506      14.815  24.663   4.672  1.00 38.98 LIG-0.07  N 
ATOM     13 H3   GLU C 506      15.593  24.923   4.328  1.00 38.98 LIG 0.28  HD
ATOM     14 H2   GLU C 506      14.450  25.340   5.121  1.00 38.98 LIG 0.28  HD
ATOM     15 H1   GLU C 506      14.269  24.414   4.015  1.00 38.98 LIG 0.28  HD
ENDBRANCH 6 12
ENDBRANCH 3 6
ENDBRANCH 1 2
BRANCH 1 16
ATOM     16  C   ASP C 507      11.832  21.245   3.505  1.00 33.47 LIG 0.24  C 
ATOM     17 O    ASP C 507      11.443  21.022   4.654  1.00 34.83 LIG-0.27  OA
ATOM     18  N   LEU C 508      11.027  21.613   2.513  1.00 31.65 LIG-0.34  N 
ATOM     19 H    LEU C 508      11.300  21.778   1.713  1.00 31.65 LIG 0.16  HD
BRANCH 18 20
ATOM     20  CA  LEU C 508       9.592  21.770   2.696  1.00 32.20 LIG 0.18  C 
BRANCH 20 21
ATOM     21  CB  LEU C 508       9.331  22.964   3.603  1.00 32.28 LIG 0.04  C 
BRANCH 21 22
ATOM     22  CG  LEU C 508      10.122  24.165   3.097  1.00 33.09 LIG-0.02  C 
ATOM     23  CD1 LEU C 508       9.194  25.285   2.734  1.00 32.61 LIG 0.01  C 
ATOM     24  CD2 LEU C 508      11.156  24.574   4.136  1.00 34.13 LIG 0.01  C 
ENDBRANCH 21 22
ENDBRANCH 20 21
BRANCH 20 25
ATOM     25  C   LEU C 508       8.839  21.932   1.388  1.00 33.63 LIG 0.20  C 
ATOM     26 O    LEU C 508       9.203  21.245   0.410  0.50 32.81 LIG-0.65  OA
ATOM     27 OXT  LEU C 508       7.892  22.745   1.354  0.50 35.17 LIG-0.65  OA
ENDBRANCH 20 25
ENDBRANCH 18 20
ENDBRANCH 1 16
BRANCH 1 28
ATOM     28  CB  ASP C 507      13.920  19.844   3.614  1.00 31.02 LIG 0.15  C 
BRANCH 28 29
ATOM     29  CG  ASP C 507      15.341  19.675   3.119  1.00 34.22 LIG 0.17  C 
ATOM     30 OD2  ASP C 507      15.564  18.939   2.131  1.00 32.29 LIG-0.65  OA
ATOM     31 OD1  ASP C 507      16.245  20.250   3.753  1.00 33.73 LIG-0.65  OA
ENDBRANCH 28 29
ENDBRANCH 1 28
TORSDOF 13
ENDMDL
MODEL 48
USER: ADFR SOLUTION from run 107
USER: SCORE 12.713668 LL:  -1.936 LR: -10.866 RR:   0.000 FEB:  -6.988
USER: RMSD 6.798042
USER: SEED 106
USER: STATUS no improvement in best 13 clusters for 5 generations
USER: GENES 15
USER: genes 0 Translation |==|  0.36984 0.56059 0.60143
USER: genes 1 Rotation |==|  0.89874 0.21548 0.48014 0.59830
USER: genes 2 Torsion [CB]-CA--N-[C] |==|  0.13397
USER: genes 3 Torsion [N]-C--CA-[N] |==|  0.04301
USER: genes 4 Torsion [C]-CA--CB-[CG] |==|  0.30689
USER: genes 5 Torsion [CA]-CB--CG-[CD] |==|  0.03860
USER: genes 6 Torsion [CB]-CG--CD-[OE1] |==|  0.16235
USER: genes 7 Torsion [C]-CA--N-[H3] |==|  0.55631
USER: genes 8 Torsion [N]-CA--C-[N] |==|  0.13310
USER: genes 9 Torsion [C]-N--CA-[CB] |==|  0.86978
USER: genes 10 Torsion [N]-CA--CB-[CG] |==|  0.35945
USER: genes 11 Torsion [CA]-CB--CG-[CD1] |==|  0.33029
USER: genes 12 Torsion [N]-CA--C-[O] |==|  0.36817
USER: genes 13 Torsion [N]-CA--CB-[CG] |==|  0.63101
USER: genes 14 Torsion [CA]-CB--CG-[OD2] |==|  0.58378
ROOT
ATOM      1  CA  ASP C 507       4.545  27.188   7.433  1.00 33.68 LIG 0.19  C 
ENDROOT
BRANCH 1 2
ATOM      2  N   ASP C 507       4.368  28.632   7.498  1.00 35.05 LIG-0.34  N 
ATOM      3  C   GLU C 506       3.221  29.220   7.181  1.00 36.98 LIG 0.25  C 
ATOM      4 O    GLU C 506       2.237  28.599   6.765  1.00 35.33 LIG-0.27  OA
ATOM      5 H    ASP C 507       5.067  29.060   7.758  1.00 35.05 LIG 0.16  HD
BRANCH 3 6
ATOM      6  CA  GLU C 506       3.199  30.744   7.297  1.00 38.62 LIG 0.28  C 
BRANCH 6 7
ATOM      7  CB  GLU C 506       2.460  31.371   6.113  1.00 41.41 LIG 0.05  C 
BRANCH 7 8
ATOM      8  CG  GLU C 506       1.129  31.998   6.479  1.00 54.63 LIG 0.12  C 
BRANCH 8 9
ATOM      9  CD  GLU C 506       0.948  32.178   7.974  1.00 71.07 LIG 0.17  C 
ATOM     10 OE1  GLU C 506       1.781  32.871   8.602  1.00 74.77 LIG-0.65  OA
ATOM     11 OE2  GLU C 506      -0.041  31.634   8.515  1.00 73.38 LIG-0.65  OA
ENDBRANCH 8 9
ENDBRANCH 7 8
ENDBRANCH 6 7
BRANCH 6 12
ATOM     12  N   GLU C 506       4.586  31.275   7.390  1.00 38.98 LIG-0.07  N 
ATOM     13 H3   GLU C 506       4.568  32.091   7.744  1.00 38.98 LIG 0.28  HD
ATOM     14 H2   GLU C 506       4.944  31.313   6.576  1.00 38.98 LIG 0.28  HD
ATOM     15 H1   GLU C 506       5.075  30.739   7.905  1.00 38.98 LIG 0.28  HD
ENDBRANCH 6 12
ENDBRANCH 3 6
ENDBRANCH 1 2
BRANCH 1 16
ATOM     16  C   ASP C 507       6.016  26.864   7.626  1.00 33.47 LIG 0.24  C 
ATOM     17 O    ASP C 507       6.608  26.120   6.840  1.00 34.83 LIG-0.27  OA
ATOM     18  N   LEU C 508       6.607  27.471   8.651  1.00 31.65 LIG-0.34  N 
ATOM     19 H    LEU C 508       6.197  27.998   9.194  1.00 31.65 LIG 0.16  HD
BRANCH 18 20
ATOM     20  CA  LEU C 508       8.020  27.293   8.949  1.00 32.20 LIG 0.18  C 
BRANCH 20 21
ATOM     21  CB  LEU C 508       8.358  25.810   8.899  1.00 32.28 LIG 0.04  C 
BRANCH 21 22
ATOM     22  CG  LEU C 508       9.578  25.600   8.008  1.00 33.09 LIG-0.02  C 
ATOM     23  CD1 LEU C 508      10.700  24.995   8.796  1.00 32.61 LIG 0.01  C 
ATOM     24  CD2 LEU C 508       9.192  24.761   6.799  1.00 34.13 LIG 0.01  C 
ENDBRANCH 21 22
ENDBRANCH 20 21
BRANCH 20 25
ATOM     25  C   LEU C 508       8.928  28.069   8.012  1.00 33.63 LIG 0.20  C 
ATOM     26 O    LEU C 508       9.851  28.745   8.514  0.50 32.81 LIG-0.65  OA
ATOM     27 OXT  LEU C 508       8.707  27.995   6.786  0.50 35.17 LIG-0.65  OA
ENDBRANCH 20 25
ENDBRANCH 18 20
ENDBRANCH 1 16
BRANCH 1 28
ATOM     28  CB  ASP C 507       4.029  26.665   6.095  1.00 31.02 LIG 0.15  C 
BRANCH 28 29
ATOM     29  CG  ASP C 507       3.142  25.448   6.265  1.00 34.22 LIG 0.17  C 
ATOM     30 OD2  ASP C 507       3.101  24.587   5.357  1.00 32.29 LIG-0.65  OA
ATOM     31 OD1  ASP C 507       2.450  25.379   7.297  1.00 33.73 LIG-0.65  OA
ENDBRANCH 28 29
ENDBRANCH 1 28
TORSDOF 13
ENDMDL
MODEL 49
USER: ADFR SOLUTION from run 16
USER: SCORE 11.963152 LL:  -2.009 LR: -10.838 RR:   0.000 FEB:  -6.961
USER: RMSD 7.693902
USER: SEED 445530
USER: STATUS no improvement in best 12 clusters for 5 generations
USER: GENES 15
USER: genes 0 Translation |==|  0.69110 0.37109 0.54740
USER: genes 1 Rotation |==|  0.70872 0.34412 0.30758 0.88094
USER: genes 2 Torsion [CB]-CA--N-[C] |==|  0.18887
USER: genes 3 Torsion [N]-C--CA-[N] |==|  0.87322
USER: genes 4 Torsion [C]-CA--CB-[CG] |==|  0.11420
USER: genes 5 Torsion [CA]-CB--CG-[CD] |==|  0.27436
USER: genes 6 Torsion [CB]-CG--CD-[OE1] |==|  0.43415
USER: genes 7 Torsion [C]-CA--N-[H3] |==|  0.33997
USER: genes 8 Torsion [N]-CA--C-[N] |==|  0.51393
USER: genes 9 Torsion [C]-N--CA-[CB] |==|  0.39006
USER: genes 10 Torsion [N]-CA--CB-[CG] |==|  0.73485
USER: genes 11 Torsion [CA]-CB--CG-[CD1] |==|  0.86549
USER: genes 12 Torsion [N]-CA--C-[O] |==|  0.78091
USER: genes 13 Torsion [N]-CA--CB-[CG] |==|  0.11425
USER: genes 14 Torsion [CA]-CB--CG-[OD2] |==|  0.10359
ROOT
ATOM      1  CA  ASP C 507      14.183  21.503   5.812  1.00 33.68 LIG 0.19  C 
ENDROOT
BRANCH 1 2
ATOM      2  N   ASP C 507      13.723  22.756   5.228  1.00 35.05 LIG-0.34  N 
ATOM      3  C   GLU C 506      13.448  23.823   5.968  1.00 36.98 LIG 0.25  C 
ATOM      4 O    GLU C 506      13.516  23.824   7.202  1.00 35.33 LIG-0.27  OA
ATOM      5 H    ASP C 507      13.649  22.738   4.372  1.00 35.05 LIG 0.16  HD
BRANCH 3 6
ATOM      6  CA  GLU C 506      12.972  25.058   5.205  1.00 38.62 LIG 0.28  C 
BRANCH 6 7
ATOM      7  CB  GLU C 506      11.507  24.912   4.789  1.00 41.41 LIG 0.05  C 
BRANCH 7 8
ATOM      8  CG  GLU C 506      10.622  24.295   5.855  1.00 54.63 LIG 0.12  C 
BRANCH 8 9
ATOM      9  CD  GLU C 506       9.839  25.325   6.646  1.00 71.07 LIG 0.17  C 
ATOM     10 OE1  GLU C 506       8.780  24.970   7.214  1.00 74.77 LIG-0.65  OA
ATOM     11 OE2  GLU C 506      10.296  26.489   6.710  1.00 73.38 LIG-0.65  OA
ENDBRANCH 8 9
ENDBRANCH 7 8
ENDBRANCH 6 7
BRANCH 6 12
ATOM     12  N   GLU C 506      13.833  25.294   4.015  1.00 38.98 LIG-0.07  N 
ATOM     13 H3   GLU C 506      13.331  25.295   3.280  1.00 38.98 LIG 0.28  HD
ATOM     14 H2   GLU C 506      14.442  24.647   3.956  1.00 38.98 LIG 0.28  HD
ATOM     15 H1   GLU C 506      14.243  26.080   4.096  1.00 38.98 LIG 0.28  HD
ENDBRANCH 6 12
ENDBRANCH 3 6
ENDBRANCH 1 2
BRANCH 1 16
ATOM     16  C   ASP C 507      14.645  20.582   4.696  1.00 33.47 LIG 0.24  C 
ATOM     17 O    ASP C 507      14.720  20.987   3.534  1.00 34.83 LIG-0.27  OA
ATOM     18  N   LEU C 508      14.997  19.356   5.073  1.00 31.65 LIG-0.34  N 
ATOM     19 H    LEU C 508      14.953  19.076   5.886  1.00 31.65 LIG 0.16  HD
BRANCH 18 20
ATOM     20  CA  LEU C 508      15.493  18.367   4.129  1.00 32.20 LIG 0.18  C 
BRANCH 20 21
ATOM     21  CB  LEU C 508      16.629  17.585   4.774  1.00 32.28 LIG 0.04  C 
BRANCH 21 22
ATOM     22  CG  LEU C 508      17.962  18.206   4.372  1.00 33.09 LIG-0.02  C 
ATOM     23  CD1 LEU C 508      18.008  18.426   2.890  1.00 32.61 LIG 0.01  C 
ATOM     24  CD2 LEU C 508      18.192  19.485   5.162  1.00 34.13 LIG 0.01  C 
ENDBRANCH 21 22
ENDBRANCH 20 21
BRANCH 20 25
ATOM     25  C   LEU C 508      14.416  17.417   3.639  1.00 33.63 LIG 0.20  C 
ATOM     26 O    LEU C 508      14.075  16.478   4.389  0.50 32.81 LIG-0.65  OA
ATOM     27 OXT  LEU C 508      13.924  17.620   2.510  0.50 35.17 LIG-0.65  OA
ENDBRANCH 20 25
ENDBRANCH 18 20
ENDBRANCH 1 16
BRANCH 1 28
ATOM     28  CB  ASP C 507      13.059  20.871   6.628  1.00 31.02 LIG 0.15  C 
BRANCH 28 29
ATOM     29  CG  ASP C 507      11.717  20.990   5.935  1.00 34.22 LIG 0.17  C 
ATOM     30 OD2  ASP C 507      11.658  20.875   4.689  1.00 32.29 LIG-0.65  OA
ATOM     31 OD1  ASP C 507      10.723  21.244   6.640  1.00 33.73 LIG-0.65  OA
ENDBRANCH 28 29
ENDBRANCH 1 28
TORSDOF 13
ENDMDL
MODEL 50
USER: ADFR SOLUTION from run 45
USER: SCORE 12.522910 LL:  -2.183 LR: -10.805 RR:   0.000 FEB:  -6.928
USER: RMSD 8.882556
USER: SEED 44
USER: STATUS no improvement in best 14 clusters for 5 generations
USER: GENES 15
USER: genes 0 Translation |==|  0.68862 0.33771 0.50833
USER: genes 1 Rotation |==|  0.91775 0.23964 0.51925 0.58562
USER: genes 2 Torsion [CB]-CA--N-[C] |==|  0.51671
USER: genes 3 Torsion [N]-C--CA-[N] |==|  0.82123
USER: genes 4 Torsion [C]-CA--CB-[CG] |==|  0.14846
USER: genes 5 Torsion [CA]-CB--CG-[CD] |==|  0.72959
USER: genes 6 Torsion [CB]-CG--CD-[OE1] |==|  0.89712
USER: genes 7 Torsion [C]-CA--N-[H3] |==|  0.64841
USER: genes 8 Torsion [N]-CA--C-[N] |==|  0.41175
USER: genes 9 Torsion [C]-N--CA-[CB] |==|  0.84583
USER: genes 10 Torsion [N]-CA--CB-[CG] |==|  0.78078
USER: genes 11 Torsion [CA]-CB--CG-[CD1] |==|  0.95176
USER: genes 12 Torsion [N]-CA--C-[O] |==|  0.58574
USER: genes 13 Torsion [N]-CA--CB-[CG] |==|  0.51537
USER: genes 14 Torsion [CA]-CB--CG-[OD2] |==|  0.06307
ROOT
ATOM      1  CA  ASP C 507      14.109  20.501   4.640  1.00 33.68 LIG 0.19  C 
ENDROOT
BRANCH 1 2
ATOM      2  N   ASP C 507      13.715  21.904   4.623  1.00 35.05 LIG-0.34  N 
ATOM      3  C   GLU C 506      13.929  22.712   5.654  1.00 36.98 LIG 0.25  C 
ATOM      4 O    GLU C 506      14.433  22.331   6.716  1.00 35.33 LIG-0.27  OA
ATOM      5 H    ASP C 507      13.336  22.154   3.892  1.00 35.05 LIG 0.16  HD
BRANCH 3 6
ATOM      6  CA  GLU C 506      13.453  24.153   5.481  1.00 38.62 LIG 0.28  C 
BRANCH 6 7
ATOM      7  CB  GLU C 506      11.950  24.202   5.197  1.00 41.41 LIG 0.05  C 
BRANCH 7 8
ATOM      8  CG  GLU C 506      11.106  23.462   6.217  1.00 54.63 LIG 0.12  C 
BRANCH 8 9
ATOM      9  CD  GLU C 506      10.733  22.060   5.774  1.00 71.07 LIG 0.17  C 
ATOM     10 OE1  GLU C 506      10.473  21.860   4.565  1.00 74.77 LIG-0.65  OA
ATOM     11 OE2  GLU C 506      10.714  21.156   6.640  1.00 73.38 LIG-0.65  OA
ENDBRANCH 8 9
ENDBRANCH 7 8
ENDBRANCH 6 7
BRANCH 6 12
ATOM     12  N   GLU C 506      14.213  24.821   4.390  1.00 38.98 LIG-0.07  N 
ATOM     13 H3   GLU C 506      14.565  25.580   4.694  1.00 38.98 LIG 0.28  HD
ATOM     14 H2   GLU C 506      13.665  25.000   3.712  1.00 38.98 LIG 0.28  HD
ATOM     15 H1   GLU C 506      14.865  24.284   4.111  1.00 38.98 LIG 0.28  HD
ENDBRANCH 6 12
ENDBRANCH 3 6
ENDBRANCH 1 2
BRANCH 1 16
ATOM     16  C   ASP C 507      15.570  20.407   5.042  1.00 33.47 LIG 0.24  C 
ATOM     17 O    ASP C 507      16.357  21.319   4.781  1.00 34.83 LIG-0.27  OA
ATOM     18  N   LEU C 508      15.908  19.314   5.721  1.00 31.65 LIG-0.34  N 
ATOM     19 H    LEU C 508      15.357  18.682   5.912  1.00 31.65 LIG 0.16  HD
BRANCH 18 20
ATOM     20  CA  LEU C 508      17.261  19.092   6.208  1.00 32.20 LIG 0.18  C 
BRANCH 20 21
ATOM     21  CB  LEU C 508      18.233  19.181   5.040  1.00 32.28 LIG 0.04  C 
BRANCH 21 22
ATOM     22  CG  LEU C 508      18.199  17.876   4.253  1.00 33.09 LIG-0.02  C 
ATOM     23  CD1 LEU C 508      17.574  16.789   5.074  1.00 32.61 LIG 0.01  C 
ATOM     24  CD2 LEU C 508      17.484  18.094   2.928  1.00 34.13 LIG 0.01  C 
ENDBRANCH 21 22
ENDBRANCH 20 21
BRANCH 20 25
ATOM     25  C   LEU C 508      17.667  20.061   7.303  1.00 33.63 LIG 0.20  C 
ATOM     26 O    LEU C 508      18.873  20.379   7.389  0.50 32.81 LIG-0.65  OA
ATOM     27 OXT  LEU C 508      16.777  20.492   8.064  0.50 35.17 LIG-0.65  OA
ENDBRANCH 20 25
ENDBRANCH 18 20
ENDBRANCH 1 16
BRANCH 1 28
ATOM     28  CB  ASP C 507      13.866  19.881   3.266  1.00 31.02 LIG 0.15  C 
BRANCH 28 29
ATOM     29  CG  ASP C 507      14.132  18.389   3.262  1.00 34.22 LIG 0.17  C 
ATOM     30 OD2  ASP C 507      14.082  17.754   4.340  1.00 32.29 LIG-0.65  OA
ATOM     31 OD1  ASP C 507      14.436  17.861   2.177  1.00 33.73 LIG-0.65  OA
ENDBRANCH 28 29
ENDBRANCH 1 28
TORSDOF 13
ENDMDL
MODEL 51
USER: ADFR SOLUTION from run 109
USER: SCORE 12.365673 LL:  -1.609 LR: -10.791 RR:   0.000 FEB:  -6.913
USER: RMSD 6.067603
USER: SEED 108
USER: STATUS no improvement in best 13 clusters for 5 generations
USER: GENES 15
USER: genes 0 Translation |==|  0.55371 0.47540 0.53864
USER: genes 1 Rotation |==|  0.50402 0.82878 0.87224 0.55767
USER: genes 2 Torsion [CB]-CA--N-[C] |==|  0.84207
USER: genes 3 Torsion [N]-C--CA-[N] |==|  0.63261
USER: genes 4 Torsion [C]-CA--CB-[CG] |==|  0.26038
USER: genes 5 Torsion [CA]-CB--CG-[CD] |==|  0.76827
USER: genes 6 Torsion [CB]-CG--CD-[OE1] |==|  0.26484
USER: genes 7 Torsion [C]-CA--N-[H3] |==|  0.96454
USER: genes 8 Torsion [N]-CA--C-[N] |==|  0.39953
USER: genes 9 Torsion [C]-N--CA-[CB] |==|  0.80670
USER: genes 10 Torsion [N]-CA--CB-[CG] |==|  0.90819
USER: genes 11 Torsion [CA]-CB--CG-[CD1] |==|  0.41862
USER: genes 12 Torsion [N]-CA--C-[O] |==|  0.60885
USER: genes 13 Torsion [N]-CA--CB-[CG] |==|  0.55815
USER: genes 14 Torsion [CA]-CB--CG-[OD2] |==|  0.14260
ROOT
ATOM      1  CA  ASP C 507      10.061  24.632   5.549  1.00 33.68 LIG 0.19  C 
ENDROOT
BRANCH 1 2
ATOM      2  N   ASP C 507      11.379  24.015   5.477  1.00 35.05 LIG-0.34  N 
ATOM      3  C   GLU C 506      12.319  24.448   4.646  1.00 36.98 LIG 0.25  C 
ATOM      4 O    GLU C 506      12.138  25.370   3.843  1.00 35.33 LIG-0.27  OA
ATOM      5 H    ASP C 507      11.487  23.354   6.016  1.00 35.05 LIG 0.16  HD
BRANCH 3 6
ATOM      6  CA  GLU C 506      13.646  23.691   4.688  1.00 38.62 LIG 0.28  C 
BRANCH 6 7
ATOM      7  CB  GLU C 506      13.681  22.716   5.868  1.00 41.41 LIG 0.05  C 
BRANCH 7 8
ATOM      8  CG  GLU C 506      13.239  21.309   5.518  1.00 54.63 LIG 0.12  C 
BRANCH 8 9
ATOM      9  CD  GLU C 506      11.733  21.135   5.543  1.00 71.07 LIG 0.17  C 
ATOM     10 OE1  GLU C 506      11.096  21.246   4.470  1.00 74.77 LIG-0.65  OA
ATOM     11 OE2  GLU C 506      11.190  20.871   6.640  1.00 73.38 LIG-0.65  OA
ENDBRANCH 8 9
ENDBRANCH 7 8
ENDBRANCH 6 7
BRANCH 6 12
ATOM     12  N   GLU C 506      14.784  24.646   4.765  1.00 38.98 LIG-0.07  N 
ATOM     13 H3   GLU C 506      14.494  25.468   4.586  1.00 38.98 LIG 0.28  HD
ATOM     14 H2   GLU C 506      15.405  24.416   4.170  1.00 38.98 LIG 0.28  HD
ATOM     15 H1   GLU C 506      15.133  24.626   5.583  1.00 38.98 LIG 0.28  HD
ENDBRANCH 6 12
ENDBRANCH 3 6
ENDBRANCH 1 2
BRANCH 1 16
ATOM     16  C   ASP C 507       9.343  24.410   4.230  1.00 33.47 LIG 0.24  C 
ATOM     17 O    ASP C 507       9.967  24.384   3.167  1.00 34.83 LIG-0.27  OA
ATOM     18  N   LEU C 508       8.032  24.202   4.319  1.00 31.65 LIG-0.34  N 
ATOM     19 H    LEU C 508       7.597  24.211   5.062  1.00 31.65 LIG 0.16  HD
BRANCH 18 20
ATOM     20  CA  LEU C 508       7.207  23.939   3.150  1.00 32.20 LIG 0.18  C 
BRANCH 20 21
ATOM     21  CB  LEU C 508       7.110  25.206   2.311  1.00 32.28 LIG 0.04  C 
BRANCH 21 22
ATOM     22  CG  LEU C 508       7.136  26.423   3.230  1.00 33.09 LIG-0.02  C 
ATOM     23  CD1 LEU C 508       7.740  27.597   2.521  1.00 32.61 LIG 0.01  C 
ATOM     24  CD2 LEU C 508       5.732  26.707   3.744  1.00 34.13 LIG 0.01  C 
ENDBRANCH 21 22
ENDBRANCH 20 21
BRANCH 20 25
ATOM     25  C   LEU C 508       7.723  22.790   2.303  1.00 33.63 LIG 0.20  C 
ATOM     26 O    LEU C 508       7.657  22.899   1.060  0.50 32.81 LIG-0.65  OA
ATOM     27 OXT  LEU C 508       8.187  21.791   2.891  0.50 35.17 LIG-0.65  OA
ENDBRANCH 20 25
ENDBRANCH 18 20
ENDBRANCH 1 16
BRANCH 1 28
ATOM     28  CB  ASP C 507      10.204  26.119   5.864  1.00 31.02 LIG 0.15  C 
BRANCH 28 29
ATOM     29  CG  ASP C 507       8.931  26.701   6.443  1.00 34.22 LIG 0.17  C 
ATOM     30 OD2  ASP C 507       8.385  26.135   7.417  1.00 32.29 LIG-0.65  OA
ATOM     31 OD1  ASP C 507       8.454  27.709   5.890  1.00 33.73 LIG-0.65  OA
ENDBRANCH 28 29
ENDBRANCH 1 28
TORSDOF 13
ENDMDL
