MODEL 1
USER: ADFR SOLUTION from run 19
USER: SCORE 10.802538 LL:  -1.416 LR: -10.942 RR:   0.000 FEB:  -8.257
USER: RMSD 5.789499
USER: SEED 953674
USER: STATUS no improvement in best 11 clusters for 5 generations
USER: GENES 11
USER: genes 0 Translation |==|  0.38190 0.55375 0.42161
USER: genes 1 Rotation |==|  0.88019 0.75584 0.66413 0.61431
USER: genes 2 Torsion [C]-N--CA-[CB] |==|  0.80189
USER: genes 3 Torsion [N]-CA--C-[N] |==|  0.68942
USER: genes 4 Torsion [C]-N--CA-[C] |==|  0.42777
USER: genes 5 Torsion [N]-CA--C-[N] |==|  0.58889
USER: genes 6 Torsion [N]-CA--C-[O] |==|  0.68930
USER: genes 7 Torsion [N]-C--CA-[N] |==|  0.19444
USER: genes 8 Torsion [C]-CA--CB-[CG] |==|  0.74981
USER: genes 9 Torsion [CA]-CB--CG-[CD2] |==|  0.77728
USER: genes 10 Torsion [C]-CA--N-[H3] |==|  0.89236
ROOT
ATOM      1  C   HIS D 487      23.127  51.162  40.748  1.00 20.76 LIG 0.25  C 
ATOM      2 O    HIS D 487      23.629  52.162  41.256  1.00 23.11 LIG-0.27  OA
ATOM      3  N   ALA D 488      23.678  49.956  40.825  1.00 15.78 LIG-0.35  N 
ATOM      4 H    ALA D 488      23.319  49.243  40.507  1.00 15.78 LIG 0.16  HD
ENDROOT
BRANCH 3 5
ATOM      5  CA  ALA D 488      24.966  49.745  41.470  1.00 17.18 LIG 0.17  C 
ATOM      6  CB  ALA D 488      26.081  50.325  40.619  1.00 18.90 LIG 0.04  C 
BRANCH 5 7
ATOM      7  C   ALA D 488      24.987  50.375  42.852  1.00 23.02 LIG 0.24  C 
ATOM      8 O    ALA D 488      24.250  49.954  43.749  1.00 24.91 LIG-0.27  OA
ATOM      9  N   GLY D 489      25.788  51.424  42.997  1.00 25.69 LIG-0.35  N 
ATOM     10 H    GLY D 489      26.259  51.765  42.363  1.00 25.69 LIG 0.16  HD
BRANCH 9 11
ATOM     11  CA  GLY D 489      25.927  52.088  44.280  1.00 31.31 LIG 0.23  C 
BRANCH 11 12
ATOM     12  C   GLY D 489      27.266  52.788  44.412  1.00 31.81 LIG 0.24  C 
ATOM     13 O    GLY D 489      27.765  53.351  43.438  1.00 37.54 LIG-0.27  OA
ATOM     14  N   PRO D 490      27.823  52.869  45.629  1.00 32.04 LIG-0.34  N 
ATOM     15  CD  PRO D 490      27.126  52.925  46.924  1.00 30.24 LIG 0.13  C 
ATOM     16  CA  PRO D 490      29.252  53.171  45.768  1.00 28.96 LIG 0.17  C 
ATOM     17  CG  PRO D 490      28.259  52.961  47.914  1.00 27.78 LIG 0.02  C 
ATOM     18  CB  PRO D 490      29.371  53.647  47.215  1.00 26.97 LIG 0.04  C 
BRANCH 16 19
ATOM     19  C   PRO D 490      30.143  51.962  45.486  1.00 23.69 LIG 0.22  C 
ATOM     20 O    PRO D 490      30.790  51.429  46.381  1.00 20.56 LIG-0.29  OA
ENDBRANCH 16 19
ENDBRANCH 11 12
ENDBRANCH 9 11
ENDBRANCH 5 7
ENDBRANCH 3 5
BRANCH 1 21
ATOM     21  CA  HIS D 487      21.780  51.251  40.040  1.00 19.79 LIG 0.28  C 
BRANCH 21 22
ATOM     22  CB  HIS D 487      21.437  52.714  39.792  1.00 13.21 LIG 0.10  C 
BRANCH 22 23
ATOM     23  CG  HIS D 487      20.667  53.347  40.905  1.00  6.04 LIG 0.03  A 
ATOM     24  CD2 HIS D 487      19.352  53.299  41.217  1.00  9.79 LIG 0.14  A 
ATOM     25 NE2  HIS D 487      19.178  54.053  42.353  1.00 21.50 LIG-0.25  NA
ATOM     26  CE1 HIS D 487      20.345  54.545  42.725  1.00 16.19 LIG 0.21  A 
ATOM     27  ND1 HIS D 487      21.262  54.132  41.869  1.00 14.18 LIG-0.35  N 
ATOM     28 HD1  HIS D 487      22.100  54.323  41.907  1.00 14.18 LIG 0.17  HD
ENDBRANCH 22 23
ENDBRANCH 21 22
BRANCH 21 29
ATOM     29  N   HIS D 487      20.739  50.617  40.840  1.00 20.90 LIG-0.07  N 
ATOM     30 H1   HIS D 487      20.462  51.183  41.469  1.00 20.90 LIG 0.28  HD
ATOM     31 H3   HIS D 487      21.065  49.883  41.223  1.00 20.90 LIG 0.28  HD
ATOM     32 H2   HIS D 487      20.053  50.399  40.315  1.00 20.90 LIG 0.28  HD
ENDBRANCH 21 29
ENDBRANCH 1 21
TORSDOF 9
ENDMDL
MODEL 2
USER: ADFR SOLUTION from run 148
USER: SCORE 10.455536 LL:  -1.379 LR: -10.517 RR:   0.000 FEB:  -7.832
USER: RMSD 5.597996
USER: SEED 147
USER: STATUS no improvement in best 7 clusters for 5 generations
USER: GENES 11
USER: genes 0 Translation |==|  0.35422 0.57728 0.44228
USER: genes 1 Rotation |==|  0.58165 0.60928 0.07947 0.73356
USER: genes 2 Torsion [C]-N--CA-[CB] |==|  0.27213
USER: genes 3 Torsion [N]-CA--C-[N] |==|  0.83583
USER: genes 4 Torsion [C]-N--CA-[C] |==|  0.42377
USER: genes 5 Torsion [N]-CA--C-[N] |==|  0.47288
USER: genes 6 Torsion [N]-CA--C-[O] |==|  0.88501
USER: genes 7 Torsion [N]-C--CA-[N] |==|  0.11662
USER: genes 8 Torsion [C]-CA--CB-[CG] |==|  0.85084
USER: genes 9 Torsion [CA]-CB--CG-[CD2] |==|  0.31404
USER: genes 10 Torsion [C]-CA--N-[H3] |==|  0.33368
ROOT
ATOM      1  C   HIS D 487      22.297  51.868  41.368  1.00 20.76 LIG 0.25  C 
ATOM      2 O    HIS D 487      21.936  50.873  40.743  1.00 23.11 LIG-0.27  OA
ATOM      3  N   ALA D 488      23.485  51.964  41.955  1.00 15.78 LIG-0.35  N 
ATOM      4 H    ALA D 488      23.763  52.668  42.363  1.00 15.78 LIG 0.16  HD
ENDROOT
BRANCH 3 5
ATOM      5  CA  ALA D 488      24.428  50.856  41.953  1.00 17.18 LIG 0.17  C 
ATOM      6  CB  ALA D 488      25.455  51.042  40.850  1.00 18.90 LIG 0.04  C 
BRANCH 5 7
ATOM      7  C   ALA D 488      25.127  50.739  43.297  1.00 23.02 LIG 0.24  C 
ATOM      8 O    ALA D 488      24.997  49.725  43.990  1.00 24.91 LIG-0.27  OA
ATOM      9  N   GLY D 489      25.814  51.807  43.687  1.00 25.69 LIG-0.35  N 
ATOM     10 H    GLY D 489      25.860  52.541  43.242  1.00 25.69 LIG 0.16  HD
BRANCH 9 11
ATOM     11  CA  GLY D 489      26.558  51.804  44.933  1.00 31.31 LIG 0.23  C 
BRANCH 11 12
ATOM     12  C   GLY D 489      27.739  52.755  44.888  1.00 31.81 LIG 0.24  C 
ATOM     13 O    GLY D 489      28.011  53.351  43.846  1.00 37.54 LIG-0.27  OA
ATOM     14  N   PRO D 490      28.397  53.006  46.029  1.00 32.04 LIG-0.34  N 
ATOM     15  CD  PRO D 490      27.846  52.995  47.394  1.00 30.24 LIG 0.13  C 
ATOM     16  CA  PRO D 490      29.744  53.583  45.992  1.00 28.96 LIG 0.17  C 
ATOM     17  CG  PRO D 490      29.049  53.300  48.245  1.00 27.78 LIG 0.02  C 
ATOM     18  CB  PRO D 490      29.922  54.149  47.400  1.00 26.97 LIG 0.04  C 
BRANCH 16 19
ATOM     19  C   PRO D 490      30.821  52.554  45.648  1.00 23.69 LIG 0.22  C 
ATOM     20 O    PRO D 490      30.795  51.425  46.125  1.00 20.56 LIG-0.29  OA
ENDBRANCH 16 19
ENDBRANCH 11 12
ENDBRANCH 9 11
ENDBRANCH 5 7
ENDBRANCH 3 5
BRANCH 1 21
ATOM     21  CA  HIS D 487      21.397  53.096  41.449  1.00 19.79 LIG 0.28  C 
BRANCH 21 22
ATOM     22  CB  HIS D 487      20.290  52.978  40.411  1.00 13.21 LIG 0.10  C 
BRANCH 22 23
ATOM     23  CG  HIS D 487      20.789  52.732  39.024  1.00  6.04 LIG 0.03  A 
ATOM     24  CD2 HIS D 487      20.670  51.656  38.213  1.00  9.79 LIG 0.14  A 
ATOM     25 NE2  HIS D 487      21.305  51.966  37.034  1.00 21.50 LIG-0.25  NA
ATOM     26  CE1 HIS D 487      21.795  53.188  37.119  1.00 16.19 LIG 0.21  A 
ATOM     27  ND1 HIS D 487      21.495  53.675  38.309  1.00 14.18 LIG-0.35  N 
ATOM     28 HD1  HIS D 487      21.707  54.458  38.594  1.00 14.18 LIG 0.17  HD
ENDBRANCH 22 23
ENDBRANCH 21 22
BRANCH 21 29
ATOM     29  N   HIS D 487      22.170  54.312  41.225  1.00 20.90 LIG-0.07  N 
ATOM     30 H1   HIS D 487      22.112  54.837  41.941  1.00 20.90 LIG 0.28  HD
ATOM     31 H3   HIS D 487      21.848  54.742  40.515  1.00 20.90 LIG 0.28  HD
ATOM     32 H2   HIS D 487      23.023  54.100  41.082  1.00 20.90 LIG 0.28  HD
ENDBRANCH 21 29
ENDBRANCH 1 21
TORSDOF 9
ENDMDL
MODEL 3
USER: ADFR SOLUTION from run 37
USER: SCORE 10.370324 LL:  -1.384 LR:  -9.932 RR:   0.000 FEB:  -7.247
USER: RMSD 5.827133
USER: SEED 36
USER: STATUS no improvement in best 5 clusters for 5 generations
USER: GENES 11
USER: genes 0 Translation |==|  0.38834 0.56360 0.45170
USER: genes 1 Rotation |==|  0.80639 0.73733 0.74590 0.69834
USER: genes 2 Torsion [C]-N--CA-[CB] |==|  0.49467
USER: genes 3 Torsion [N]-CA--C-[N] |==|  0.38784
USER: genes 4 Torsion [C]-N--CA-[C] |==|  0.64364
USER: genes 5 Torsion [N]-CA--C-[N] |==|  0.44444
USER: genes 6 Torsion [N]-CA--C-[O] |==|  0.42095
USER: genes 7 Torsion [N]-C--CA-[N] |==|  0.13829
USER: genes 8 Torsion [C]-CA--CB-[CG] |==|  0.83428
USER: genes 9 Torsion [CA]-CB--CG-[CD2] |==|  0.32416
USER: genes 10 Torsion [C]-CA--N-[H3] |==|  0.73736
ROOT
ATOM      1  C   HIS D 487      23.320  51.458  41.651  1.00 20.76 LIG 0.25  C 
ATOM      2 O    HIS D 487      23.465  52.550  42.196  1.00 23.11 LIG-0.27  OA
ATOM      3  N   ALA D 488      23.778  50.323  42.168  1.00 15.78 LIG-0.35  N 
ATOM      4 H    ALA D 488      23.651  49.549  41.816  1.00 15.78 LIG 0.16  HD
ENDROOT
BRANCH 3 5
ATOM      5  CA  ALA D 488      24.550  50.304  43.402  1.00 17.18 LIG 0.17  C 
ATOM      6  CB  ALA D 488      24.900  48.876  43.781  1.00 18.90 LIG 0.04  C 
BRANCH 5 7
ATOM      7  C   ALA D 488      25.819  51.128  43.258  1.00 23.02 LIG 0.24  C 
ATOM      8 O    ALA D 488      26.511  51.047  42.238  1.00 24.91 LIG-0.27  OA
ATOM      9  N   GLY D 489      26.150  51.869  44.309  1.00 25.69 LIG-0.35  N 
ATOM     10 H    GLY D 489      25.709  51.884  45.048  1.00 25.69 LIG 0.16  HD
BRANCH 9 11
ATOM     11  CA  GLY D 489      27.317  52.730  44.280  1.00 31.31 LIG 0.23  C 
BRANCH 11 12
ATOM     12  C   GLY D 489      28.223  52.494  45.473  1.00 31.81 LIG 0.24  C 
ATOM     13 O    GLY D 489      27.811  51.860  46.444  1.00 37.54 LIG-0.27  OA
ATOM     14  N   PRO D 490      29.501  52.894  45.390  1.00 32.04 LIG-0.34  N 
ATOM     15  CD  PRO D 490      30.326  52.985  44.174  1.00 30.24 LIG 0.13  C 
ATOM     16  CA  PRO D 490      30.305  53.053  46.606  1.00 28.96 LIG 0.17  C 
ATOM     17  CG  PRO D 490      31.630  53.529  44.694  1.00 27.78 LIG 0.02  C 
ATOM     18  CB  PRO D 490      31.740  53.025  46.083  1.00 26.97 LIG 0.04  C 
BRANCH 16 19
ATOM     19  C   PRO D 490      29.993  54.346  47.358  1.00 23.69 LIG 0.22  C 
ATOM     20 O    PRO D 490      30.140  54.425  48.573  1.00 20.56 LIG-0.29  OA
ENDBRANCH 16 19
ENDBRANCH 11 12
ENDBRANCH 9 11
ENDBRANCH 5 7
ENDBRANCH 3 5
BRANCH 1 21
ATOM     21  CA  HIS D 487      22.533  51.344  40.351  1.00 19.79 LIG 0.28  C 
BRANCH 21 22
ATOM     22  CB  HIS D 487      21.907  52.692  40.021  1.00 13.21 LIG 0.10  C 
BRANCH 22 23
ATOM     23  CG  HIS D 487      20.974  53.196  41.074  1.00  6.04 LIG 0.03  A 
ATOM     24  CD2 HIS D 487      21.032  54.293  41.863  1.00  9.79 LIG 0.14  A 
ATOM     25 NE2  HIS D 487      19.904  54.286  42.648  1.00 21.50 LIG-0.25  NA
ATOM     26  CE1 HIS D 487      19.179  53.224  42.350  1.00 16.19 LIG 0.21  A 
ATOM     27  ND1 HIS D 487      19.802  52.550  41.400  1.00 14.18 LIG-0.35  N 
ATOM     28 HD1  HIS D 487      19.519  51.821  41.041  1.00 14.18 LIG 0.17  HD
ENDBRANCH 22 23
ENDBRANCH 21 22
BRANCH 21 29
ATOM     29  N   HIS D 487      21.498  50.323  40.467  1.00 20.90 LIG-0.07  N 
ATOM     30 H1   HIS D 487      21.271  50.226  41.322  1.00 20.90 LIG 0.28  HD
ATOM     31 H3   HIS D 487      21.808  49.550  40.153  1.00 20.90 LIG 0.28  HD
ATOM     32 H2   HIS D 487      20.783  50.570  39.997  1.00 20.90 LIG 0.28  HD
ENDBRANCH 21 29
ENDBRANCH 1 21
TORSDOF 9
ENDMDL
MODEL 4
USER: ADFR SOLUTION from run 143
USER: SCORE 10.750274 LL:  -1.332 LR:  -9.717 RR:   0.000 FEB:  -7.032
USER: RMSD 5.531067
USER: SEED 142
USER: STATUS no improvement in best 7 clusters for 5 generations
USER: GENES 11
USER: genes 0 Translation |==|  0.43684 0.53916 0.49160
USER: genes 1 Rotation |==|  0.40830 0.36778 0.08301 0.72411
USER: genes 2 Torsion [C]-N--CA-[CB] |==|  0.15393
USER: genes 3 Torsion [N]-CA--C-[N] |==|  0.09769
USER: genes 4 Torsion [C]-N--CA-[C] |==|  0.83333
USER: genes 5 Torsion [N]-CA--C-[N] |==|  0.93166
USER: genes 6 Torsion [N]-CA--C-[O] |==|  0.32148
USER: genes 7 Torsion [N]-C--CA-[N] |==|  0.35262
USER: genes 8 Torsion [C]-CA--CB-[CG] |==|  0.49860
USER: genes 9 Torsion [CA]-CB--CG-[CD2] |==|  0.10223
USER: genes 10 Torsion [C]-CA--N-[H3] |==|  0.98028
ROOT
ATOM      1  C   HIS D 487      24.775  50.725  42.848  1.00 20.76 LIG 0.25  C 
ATOM      2 O    HIS D 487      24.388  49.821  43.586  1.00 23.11 LIG-0.27  OA
ATOM      3  N   ALA D 488      26.023  51.180  42.854  1.00 15.78 LIG-0.35  N 
ATOM      4 H    ALA D 488      26.316  51.785  42.317  1.00 15.78 LIG 0.16  HD
ENDROOT
BRANCH 3 5
ATOM      5  CA  ALA D 488      27.015  50.677  43.793  1.00 17.18 LIG 0.17  C 
ATOM      6  CB  ALA D 488      27.127  49.167  43.680  1.00 18.90 LIG 0.04  C 
BRANCH 5 7
ATOM      7  C   ALA D 488      28.370  51.317  43.542  1.00 23.02 LIG 0.24  C 
ATOM      8 O    ALA D 488      29.413  50.691  43.757  1.00 24.91 LIG-0.27  OA
ATOM      9  N   GLY D 489      28.347  52.585  43.150  1.00 25.69 LIG-0.35  N 
ATOM     10 H    GLY D 489      27.629  53.050  43.058  1.00 25.69 LIG 0.16  HD
BRANCH 9 11
ATOM     11  CA  GLY D 489      29.574  53.296  42.841  1.00 31.31 LIG 0.23  C 
BRANCH 11 12
ATOM     12  C   GLY D 489      30.508  53.356  44.034  1.00 31.81 LIG 0.24  C 
ATOM     13 O    GLY D 489      31.704  53.595  43.869  1.00 37.54 LIG-0.27  OA
ATOM     14  N   PRO D 490      29.979  53.254  45.262  1.00 32.04 LIG-0.34  N 
ATOM     15  CD  PRO D 490      28.634  53.674  45.688  1.00 30.24 LIG 0.13  C 
ATOM     16  CA  PRO D 490      30.830  52.917  46.407  1.00 28.96 LIG 0.17  C 
ATOM     17  CG  PRO D 490      28.599  53.271  47.137  1.00 27.78 LIG 0.02  C 
ATOM     18  CB  PRO D 490      30.001  53.372  47.607  1.00 26.97 LIG 0.04  C 
BRANCH 16 19
ATOM     19  C   PRO D 490      31.170  51.429  46.475  1.00 23.69 LIG 0.22  C 
ATOM     20 O    PRO D 490      32.325  51.035  46.354  1.00 20.56 LIG-0.29  OA
ENDBRANCH 16 19
ENDBRANCH 11 12
ENDBRANCH 9 11
ENDBRANCH 5 7
ENDBRANCH 3 5
BRANCH 1 21
ATOM     21  CA  HIS D 487      23.832  51.340  41.821  1.00 19.79 LIG 0.28  C 
BRANCH 21 22
ATOM     22  CB  HIS D 487      22.782  52.176  42.540  1.00 13.21 LIG 0.10  C 
BRANCH 22 23
ATOM     23  CG  HIS D 487      21.808  52.838  41.620  1.00  6.04 LIG 0.03  A 
ATOM     24  CD2 HIS D 487      21.243  52.413  40.466  1.00  9.79 LIG 0.14  A 
ATOM     25 NE2  HIS D 487      20.405  53.412  40.034  1.00 21.50 LIG-0.25  NA
ATOM     26  CE1 HIS D 487      20.451  54.414  40.892  1.00 16.19 LIG 0.21  A 
ATOM     27  ND1 HIS D 487      21.289  54.091  41.861  1.00 14.18 LIG-0.35  N 
ATOM     28 HD1  HIS D 487      21.481  54.587  42.537  1.00 14.18 LIG 0.17  HD
ENDBRANCH 22 23
ENDBRANCH 21 22
BRANCH 21 29
ATOM     29  N   HIS D 487      23.191  50.299  41.027  1.00 20.90 LIG-0.07  N 
ATOM     30 H1   HIS D 487      22.319  50.281  41.208  1.00 20.90 LIG 0.28  HD
ATOM     31 H3   HIS D 487      23.551  49.510  41.226  1.00 20.90 LIG 0.28  HD
ATOM     32 H2   HIS D 487      23.310  50.469  40.161  1.00 20.90 LIG 0.28  HD
ENDBRANCH 21 29
ENDBRANCH 1 21
TORSDOF 9
ENDMDL
MODEL 5
USER: ADFR SOLUTION from run 4
USER: SCORE 8.970223 LL:  -1.605 LR:  -9.603 RR:   0.000 FEB:  -6.919
USER: RMSD 6.146929
USER: SEED 202085
USER: STATUS no improvement in best 17 clusters for 5 generations
USER: GENES 11
USER: genes 0 Translation |==|  0.36133 0.57496 0.41918
USER: genes 1 Rotation |==|  0.77642 0.78526 0.61443 0.78129
USER: genes 2 Torsion [C]-N--CA-[CB] |==|  0.30069
USER: genes 3 Torsion [N]-CA--C-[N] |==|  0.28378
USER: genes 4 Torsion [C]-N--CA-[C] |==|  0.75157
USER: genes 5 Torsion [N]-CA--C-[N] |==|  0.83504
USER: genes 6 Torsion [N]-CA--C-[O] |==|  0.40420
USER: genes 7 Torsion [N]-C--CA-[N] |==|  0.01657
USER: genes 8 Torsion [C]-CA--CB-[CG] |==|  0.91853
USER: genes 9 Torsion [CA]-CB--CG-[CD2] |==|  0.73986
USER: genes 10 Torsion [C]-CA--N-[H3] |==|  0.10284
ROOT
ATOM      1  C   HIS D 487      22.510  51.799  40.676  1.00 20.76 LIG 0.25  C 
ATOM      2 O    HIS D 487      22.920  52.938  40.465  1.00 23.11 LIG-0.27  OA
ATOM      3  N   ALA D 488      22.920  51.058  41.699  1.00 15.78 LIG-0.35  N 
ATOM      4 H    ALA D 488      22.614  50.275  41.879  1.00 15.78 LIG 0.16  HD
ENDROOT
BRANCH 3 5
ATOM      5  CA  ALA D 488      23.946  51.528  42.618  1.00 17.18 LIG 0.17  C 
ATOM      6  CB  ALA D 488      23.331  51.871  43.963  1.00 18.90 LIG 0.04  C 
BRANCH 5 7
ATOM      7  C   ALA D 488      25.033  50.480  42.796  1.00 23.02 LIG 0.24  C 
ATOM      8 O    ALA D 488      24.872  49.531  43.570  1.00 24.91 LIG-0.27  OA
ATOM      9  N   GLY D 489      26.159  50.695  42.127  1.00 25.69 LIG-0.35  N 
ATOM     10 H    GLY D 489      26.305  51.385  41.635  1.00 25.69 LIG 0.16  HD
BRANCH 9 11
ATOM     11  CA  GLY D 489      27.256  49.747  42.183  1.00 31.31 LIG 0.23  C 
BRANCH 11 12
ATOM     12  C   GLY D 489      28.207  50.050  43.325  1.00 31.81 LIG 0.24  C 
ATOM     13 O    GLY D 489      28.482  49.175  44.146  1.00 37.54 LIG-0.27  OA
ATOM     14  N   PRO D 490      28.814  51.245  43.347  1.00 32.04 LIG-0.34  N 
ATOM     15  CD  PRO D 490      29.179  52.078  42.188  1.00 30.24 LIG 0.13  C 
ATOM     16  CA  PRO D 490      29.420  51.743  44.586  1.00 28.96 LIG 0.17  C 
ATOM     17  CG  PRO D 490      29.779  53.300  42.829  1.00 27.78 LIG 0.02  C 
ATOM     18  CB  PRO D 490      30.383  52.823  44.096  1.00 26.97 LIG 0.04  C 
BRANCH 16 19
ATOM     19  C   PRO D 490      28.389  52.297  45.568  1.00 23.69 LIG 0.22  C 
ATOM     20 O    PRO D 490      28.537  52.175  46.780  1.00 20.56 LIG-0.29  OA
ENDBRANCH 16 19
ENDBRANCH 11 12
ENDBRANCH 9 11
ENDBRANCH 5 7
ENDBRANCH 3 5
BRANCH 1 21
ATOM     21  CA  HIS D 487      21.436  51.189  39.782  1.00 19.79 LIG 0.28  C 
BRANCH 21 22
ATOM     22  CB  HIS D 487      20.277  52.168  39.648  1.00 13.21 LIG 0.10  C 
BRANCH 22 23
ATOM     23  CG  HIS D 487      20.100  53.056  40.836  1.00  6.04 LIG 0.03  A 
ATOM     24  CD2 HIS D 487      19.318  52.930  41.933  1.00  9.79 LIG 0.14  A 
ATOM     25 NE2  HIS D 487      19.553  54.028  42.725  1.00 21.50 LIG-0.25  NA
ATOM     26  CE1 HIS D 487      20.447  54.800  42.136  1.00 16.19 LIG 0.21  A 
ATOM     27  ND1 HIS D 487      20.797  54.234  40.995  1.00 14.18 LIG-0.35  N 
ATOM     28 HD1  HIS D 487      21.370  54.552  40.438  1.00 14.18 LIG 0.17  HD
ENDBRANCH 22 23
ENDBRANCH 21 22
BRANCH 21 29
ATOM     29  N   HIS D 487      20.966  49.925  40.337  1.00 20.90 LIG-0.07  N 
ATOM     30 H1   HIS D 487      20.152  49.748  40.025  1.00 20.90 LIG 0.28  HD
ATOM     31 H3   HIS D 487      20.938  49.983  41.225  1.00 20.90 LIG 0.28  HD
ATOM     32 H2   HIS D 487      21.523  49.271  40.100  1.00 20.90 LIG 0.28  HD
ENDBRANCH 21 29
ENDBRANCH 1 21
TORSDOF 9
ENDMDL
MODEL 6
USER: ADFR SOLUTION from run 131
USER: SCORE 9.379590 LL:  -1.290 LR:  -9.558 RR:   0.000 FEB:  -6.873
USER: RMSD 7.925787
USER: SEED 130
USER: STATUS no improvement in best 2 clusters for 5 generations
USER: GENES 11
USER: genes 0 Translation |==|  0.35849 0.57299 0.41621
USER: genes 1 Rotation |==|  0.79167 0.79871 0.60230 0.75541
USER: genes 2 Torsion [C]-N--CA-[CB] |==|  0.29218
USER: genes 3 Torsion [N]-CA--C-[N] |==|  0.89999
USER: genes 4 Torsion [C]-N--CA-[C] |==|  0.30483
USER: genes 5 Torsion [N]-CA--C-[N] |==|  0.37485
USER: genes 6 Torsion [N]-CA--C-[O] |==|  0.50664
USER: genes 7 Torsion [N]-C--CA-[N] |==|  0.04177
USER: genes 8 Torsion [C]-CA--CB-[CG] |==|  0.91020
USER: genes 9 Torsion [CA]-CB--CG-[CD2] |==|  0.73691
USER: genes 10 Torsion [C]-CA--N-[H3] |==|  0.29066
ROOT
ATOM      1  C   HIS D 487      22.425  51.740  40.586  1.00 20.76 LIG 0.25  C 
ATOM      2 O    HIS D 487      22.818  52.886  40.383  1.00 23.11 LIG-0.27  OA
ATOM      3  N   ALA D 488      22.955  50.945  41.509  1.00 15.78 LIG-0.35  N 
ATOM      4 H    ALA D 488      22.665  50.155  41.687  1.00 15.78 LIG 0.16  HD
ENDROOT
BRANCH 3 5
ATOM      5  CA  ALA D 488      24.097  51.361  42.309  1.00 17.18 LIG 0.17  C 
ATOM      6  CB  ALA D 488      23.653  51.709  43.719  1.00 18.90 LIG 0.04  C 
BRANCH 5 7
ATOM      7  C   ALA D 488      25.153  50.269  42.353  1.00 23.02 LIG 0.24  C 
ATOM      8 O    ALA D 488      26.354  50.550  42.300  1.00 24.91 LIG-0.27  OA
ATOM      9  N   GLY D 489      24.696  49.023  42.385  1.00 25.69 LIG-0.35  N 
ATOM     10 H    GLY D 489      23.862  48.813  42.359  1.00 25.69 LIG 0.16  HD
BRANCH 9 11
ATOM     11  CA  GLY D 489      25.603  47.894  42.469  1.00 31.31 LIG 0.23  C 
BRANCH 11 12
ATOM     12  C   GLY D 489      25.532  47.210  43.821  1.00 31.81 LIG 0.24  C 
ATOM     13 O    GLY D 489      25.422  47.882  44.846  1.00 37.54 LIG-0.27  OA
ATOM     14  N   PRO D 490      25.478  45.871  43.853  1.00 32.04 LIG-0.34  N 
ATOM     15  CD  PRO D 490      24.897  44.979  42.836  1.00 30.24 LIG 0.13  C 
ATOM     16  CA  PRO D 490      25.796  45.149  45.090  1.00 28.96 LIG 0.17  C 
ATOM     17  CG  PRO D 490      25.171  43.609  43.395  1.00 27.78 LIG 0.02  C 
ATOM     18  CB  PRO D 490      25.164  43.776  44.867  1.00 26.97 LIG 0.04  C 
BRANCH 16 19
ATOM     19  C   PRO D 490      27.299  45.054  45.350  1.00 23.69 LIG 0.22  C 
ATOM     20 O    PRO D 490      27.738  44.444  46.320  1.00 20.56 LIG-0.29  OA
ENDBRANCH 16 19
ENDBRANCH 11 12
ENDBRANCH 9 11
ENDBRANCH 5 7
ENDBRANCH 3 5
BRANCH 1 21
ATOM     21  CA  HIS D 487      21.237  51.183  39.811  1.00 19.79 LIG 0.28  C 
BRANCH 21 22
ATOM     22  CB  HIS D 487      20.168  52.260  39.686  1.00 13.21 LIG 0.10  C 
BRANCH 22 23
ATOM     23  CG  HIS D 487      20.114  53.191  40.852  1.00  6.04 LIG 0.03  A 
ATOM     24  CD2 HIS D 487      19.350  53.177  41.969  1.00  9.79 LIG 0.14  A 
ATOM     25 NE2  HIS D 487      19.717  54.263  42.725  1.00 21.50 LIG-0.25  NA
ATOM     26  CE1 HIS D 487      20.673  54.921  42.096  1.00 16.19 LIG 0.21  A 
ATOM     27  ND1 HIS D 487      20.934  54.293  40.964  1.00 14.18 LIG-0.35  N 
ATOM     28 HD1  HIS D 487      21.523  54.534  40.386  1.00 14.18 LIG 0.17  HD
ENDBRANCH 22 23
ENDBRANCH 21 22
BRANCH 21 29
ATOM     29  N   HIS D 487      20.693  50.008  40.481  1.00 20.90 LIG-0.07  N 
ATOM     30 H1   HIS D 487      20.533  49.371  39.881  1.00 20.90 LIG 0.28  HD
ATOM     31 H3   HIS D 487      19.934  50.226  40.892  1.00 20.90 LIG 0.28  HD
ATOM     32 H2   HIS D 487      21.280  49.710  41.081  1.00 20.90 LIG 0.28  HD
ENDBRANCH 21 29
ENDBRANCH 1 21
TORSDOF 9
ENDMDL
MODEL 7
USER: ADFR SOLUTION from run 54
USER: SCORE 9.329945 LL:  -1.067 LR:  -9.463 RR:   0.000 FEB:  -6.778
USER: RMSD 9.183032
USER: SEED 53
USER: STATUS no improvement in best 4 clusters for 5 generations
USER: GENES 11
USER: genes 0 Translation |==|  0.51301 0.56569 0.52883
USER: genes 1 Rotation |==|  0.83998 0.24063 0.72925 0.62075
USER: genes 2 Torsion [C]-N--CA-[CB] |==|  0.20348
USER: genes 3 Torsion [N]-CA--C-[N] |==|  0.59689
USER: genes 4 Torsion [C]-N--CA-[C] |==|  0.63517
USER: genes 5 Torsion [N]-CA--C-[N] |==|  0.09444
USER: genes 6 Torsion [N]-CA--C-[O] |==|  0.28699
USER: genes 7 Torsion [N]-C--CA-[N] |==|  0.99592
USER: genes 8 Torsion [C]-CA--CB-[CG] |==|  0.30514
USER: genes 9 Torsion [CA]-CB--CG-[CD2] |==|  0.29120
USER: genes 10 Torsion [C]-CA--N-[H3] |==|  0.92442
ROOT
ATOM      1  C   HIS D 487      27.060  51.521  43.965  1.00 20.76 LIG 0.25  C 
ATOM      2 O    HIS D 487      26.844  50.834  44.961  1.00 23.11 LIG-0.27  OA
ATOM      3  N   ALA D 488      26.372  51.397  42.835  1.00 15.78 LIG-0.35  N 
ATOM      4 H    ALA D 488      26.488  51.896  42.145  1.00 15.78 LIG 0.16  HD
ENDROOT
BRANCH 3 5
ATOM      5  CA  ALA D 488      25.343  50.379  42.676  1.00 17.18 LIG 0.17  C 
ATOM      6  CB  ALA D 488      24.108  50.752  43.475  1.00 18.90 LIG 0.04  C 
BRANCH 5 7
ATOM      7  C   ALA D 488      24.980  50.203  41.212  1.00 23.02 LIG 0.24  C 
ATOM      8 O    ALA D 488      25.825  50.372  40.327  1.00 24.91 LIG-0.27  OA
ATOM      9  N   GLY D 489      23.706  49.925  40.961  1.00 25.69 LIG-0.35  N 
ATOM     10 H    GLY D 489      23.096  49.866  41.564  1.00 25.69 LIG 0.16  HD
BRANCH 9 11
ATOM     11  CA  GLY D 489      23.243  49.693  39.605  1.00 31.31 LIG 0.23  C 
BRANCH 11 12
ATOM     12  C   GLY D 489      21.996  50.497  39.290  1.00 31.81 LIG 0.24  C 
ATOM     13 O    GLY D 489      21.093  49.995  38.621  1.00 37.54 LIG-0.27  OA
ATOM     14  N   PRO D 490      21.863  51.709  39.847  1.00 32.04 LIG-0.34  N 
ATOM     15  CD  PRO D 490      22.403  52.156  41.142  1.00 30.24 LIG 0.13  C 
ATOM     16  CA  PRO D 490      20.907  52.674  39.296  1.00 28.96 LIG 0.17  C 
ATOM     17  CG  PRO D 490      21.974  53.597  41.204  1.00 27.78 LIG 0.02  C 
ATOM     18  CB  PRO D 490      20.705  53.663  40.443  1.00 26.97 LIG 0.04  C 
BRANCH 16 19
ATOM     19  C   PRO D 490      21.421  53.359  38.030  1.00 23.69 LIG 0.22  C 
ATOM     20 O    PRO D 490      21.012  53.033  36.921  1.00 20.56 LIG-0.29  OA
ENDBRANCH 16 19
ENDBRANCH 11 12
ENDBRANCH 9 11
ENDBRANCH 5 7
ENDBRANCH 3 5
BRANCH 1 21
ATOM     21  CA  HIS D 487      28.116  52.620  44.001  1.00 19.79 LIG 0.28  C 
BRANCH 21 22
ATOM     22  CB  HIS D 487      27.783  53.601  45.117  1.00 13.21 LIG 0.10  C 
BRANCH 22 23
ATOM     23  CG  HIS D 487      28.728  53.539  46.273  1.00  6.04 LIG 0.03  A 
ATOM     24  CD2 HIS D 487      29.724  54.371  46.653  1.00  9.79 LIG 0.14  A 
ATOM     25 NE2  HIS D 487      30.270  53.850  47.802  1.00 21.50 LIG-0.25  NA
ATOM     26  CE1 HIS D 487      29.631  52.739  48.116  1.00 16.19 LIG 0.21  A 
ATOM     27  ND1 HIS D 487      28.693  52.530  47.211  1.00 14.18 LIG-0.35  N 
ATOM     28 HD1  HIS D 487      28.145  51.867  47.207  1.00 14.18 LIG 0.17  HD
ENDBRANCH 22 23
ENDBRANCH 21 22
BRANCH 21 29
ATOM     29  N   HIS D 487      28.175  53.315  42.721  1.00 20.90 LIG-0.07  N 
ATOM     30 H1   HIS D 487      27.640  54.026  42.743  1.00 20.90 LIG 0.28  HD
ATOM     31 H3   HIS D 487      27.911  52.765  42.072  1.00 20.90 LIG 0.28  HD
ATOM     32 H2   HIS D 487      29.011  53.578  42.564  1.00 20.90 LIG 0.28  HD
ENDBRANCH 21 29
ENDBRANCH 1 21
TORSDOF 9
ENDMDL
MODEL 8
USER: ADFR SOLUTION from run 47
USER: SCORE 10.286549 LL:  -1.350 LR:  -9.435 RR:   0.000 FEB:  -6.750
USER: RMSD 8.994048
USER: SEED 46
USER: STATUS no improvement in best 11 clusters for 5 generations
USER: GENES 11
USER: genes 0 Translation |==|  0.51269 0.55957 0.53824
USER: genes 1 Rotation |==|  0.62999 0.31935 0.94332 0.56272
USER: genes 2 Torsion [C]-N--CA-[CB] |==|  0.76559
USER: genes 3 Torsion [N]-CA--C-[N] |==|  0.19689
USER: genes 4 Torsion [C]-N--CA-[C] |==|  0.31980
USER: genes 5 Torsion [N]-CA--C-[N] |==|  0.41158
USER: genes 6 Torsion [N]-CA--C-[O] |==|  0.77530
USER: genes 7 Torsion [N]-C--CA-[N] |==|  0.25103
USER: genes 8 Torsion [C]-CA--CB-[CG] |==|  0.36318
USER: genes 9 Torsion [CA]-CB--CG-[CD2] |==|  0.12105
USER: genes 10 Torsion [C]-CA--N-[H3] |==|  0.80470
ROOT
ATOM      1  C   HIS D 487      27.051  51.337  44.247  1.00 20.76 LIG 0.25  C 
ATOM      2 O    HIS D 487      25.940  51.165  44.745  1.00 23.11 LIG-0.27  OA
ATOM      3  N   ALA D 488      27.636  50.447  43.453  1.00 15.78 LIG-0.35  N 
ATOM      4 H    ALA D 488      28.394  50.571  43.069  1.00 15.78 LIG 0.16  HD
ENDROOT
BRANCH 3 5
ATOM      5  CA  ALA D 488      27.020  49.159  43.167  1.00 17.18 LIG 0.17  C 
ATOM      6  CB  ALA D 488      27.349  48.163  44.265  1.00 18.90 LIG 0.04  C 
BRANCH 5 7
ATOM      7  C   ALA D 488      25.513  49.300  43.030  1.00 23.02 LIG 0.24  C 
ATOM      8 O    ALA D 488      24.754  48.799  43.866  1.00 24.91 LIG-0.27  OA
ATOM      9  N   GLY D 489      25.087  49.927  41.940  1.00 25.69 LIG-0.35  N 
ATOM     10 H    GLY D 489      25.604  50.224  41.320  1.00 25.69 LIG 0.16  HD
BRANCH 9 11
ATOM     11  CA  GLY D 489      23.673  50.159  41.714  1.00 31.31 LIG 0.23  C 
BRANCH 11 12
ATOM     12  C   GLY D 489      23.336  51.638  41.717  1.00 31.81 LIG 0.24  C 
ATOM     13 O    GLY D 489      24.038  52.429  42.346  1.00 37.54 LIG-0.27  OA
ATOM     14  N   PRO D 490      22.332  52.063  40.935  1.00 32.04 LIG-0.34  N 
ATOM     15  CD  PRO D 490      21.889  51.475  39.660  1.00 30.24 LIG 0.13  C 
ATOM     16  CA  PRO D 490      21.711  53.369  41.176  1.00 28.96 LIG 0.17  C 
ATOM     17  CG  PRO D 490      20.717  52.340  39.282  1.00 27.78 LIG 0.02  C 
ATOM     18  CB  PRO D 490      21.013  53.675  39.852  1.00 26.97 LIG 0.04  C 
BRANCH 16 19
ATOM     19  C   PRO D 490      20.733  53.352  42.350  1.00 23.69 LIG 0.22  C 
ATOM     20 O    PRO D 490      19.587  52.936  42.215  1.00 20.56 LIG-0.29  OA
ENDBRANCH 16 19
ENDBRANCH 11 12
ENDBRANCH 9 11
ENDBRANCH 5 7
ENDBRANCH 3 5
BRANCH 1 21
ATOM     21  CA  HIS D 487      27.803  52.644  44.473  1.00 19.79 LIG 0.28  C 
BRANCH 21 22
ATOM     22  CB  HIS D 487      27.501  53.162  45.873  1.00 13.21 LIG 0.10  C 
BRANCH 22 23
ATOM     23  CG  HIS D 487      28.720  53.541  46.649  1.00  6.04 LIG 0.03  A 
ATOM     24  CD2 HIS D 487      29.828  54.228  46.288  1.00  9.79 LIG 0.14  A 
ATOM     25 NE2  HIS D 487      30.636  54.306  47.397  1.00 21.50 LIG-0.25  NA
ATOM     26  CE1 HIS D 487      30.045  53.689  48.403  1.00 16.19 LIG 0.21  A 
ATOM     27  ND1 HIS D 487      28.885  53.221  47.979  1.00 14.18 LIG-0.35  N 
ATOM     28 HD1  HIS D 487      28.321  52.784  48.459  1.00 14.18 LIG 0.17  HD
ENDBRANCH 22 23
ENDBRANCH 21 22
BRANCH 21 29
ATOM     29  N   HIS D 487      27.420  53.634  43.475  1.00 20.90 LIG-0.07  N 
ATOM     30 H1   HIS D 487      26.533  53.682  43.429  1.00 20.90 LIG 0.28  HD
ATOM     31 H3   HIS D 487      27.745  53.397  42.681  1.00 20.90 LIG 0.28  HD
ATOM     32 H2   HIS D 487      27.748  54.430  43.704  1.00 20.90 LIG 0.28  HD
ENDBRANCH 21 29
ENDBRANCH 1 21
TORSDOF 9
ENDMDL
MODEL 9
USER: ADFR SOLUTION from run 63
USER: SCORE 9.462743 LL:  -1.227 LR:  -9.440 RR:   0.000 FEB:  -6.756
USER: RMSD 5.926590
USER: SEED 62
USER: STATUS searching
USER: GENES 11
USER: genes 0 Translation |==|  0.44811 0.53897 0.50490
USER: genes 1 Rotation |==|  0.48313 0.35115 0.11487 0.78148
USER: genes 2 Torsion [C]-N--CA-[CB] |==|  0.16449
USER: genes 3 Torsion [N]-CA--C-[N] |==|  0.58100
USER: genes 4 Torsion [C]-N--CA-[C] |==|  0.56506
USER: genes 5 Torsion [N]-CA--C-[N] |==|  0.38892
USER: genes 6 Torsion [N]-CA--C-[O] |==|  0.41951
USER: genes 7 Torsion [N]-C--CA-[N] |==|  0.41776
USER: genes 8 Torsion [C]-CA--CB-[CG] |==|  0.48433
USER: genes 9 Torsion [CA]-CB--CG-[CD2] |==|  0.10367
USER: genes 10 Torsion [C]-CA--N-[H3] |==|  0.38504
ROOT
ATOM      1  C   HIS D 487      25.113  50.719  43.247  1.00 20.76 LIG 0.25  C 
ATOM      2 O    HIS D 487      24.934  49.658  43.841  1.00 23.11 LIG-0.27  OA
ATOM      3  N   ALA D 488      26.109  51.551  43.533  1.00 15.78 LIG-0.35  N 
ATOM      4 H    ALA D 488      26.268  52.276  43.101  1.00 15.78 LIG 0.16  HD
ENDROOT
BRANCH 3 5
ATOM      5  CA  ALA D 488      27.030  51.289  44.629  1.00 17.18 LIG 0.17  C 
ATOM      6  CB  ALA D 488      27.739  49.963  44.415  1.00 18.90 LIG 0.04  C 
BRANCH 5 7
ATOM      7  C   ALA D 488      28.051  52.407  44.756  1.00 23.02 LIG 0.24  C 
ATOM      8 O    ALA D 488      27.789  53.548  44.363  1.00 24.91 LIG-0.27  OA
ATOM      9  N   GLY D 489      29.234  52.057  45.246  1.00 25.69 LIG-0.35  N 
ATOM     10 H    GLY D 489      29.449  51.254  45.464  1.00 25.69 LIG 0.16  HD
BRANCH 9 11
ATOM     11  CA  GLY D 489      30.280  53.042  45.453  1.00 31.31 LIG 0.23  C 
BRANCH 11 12
ATOM     12  C   GLY D 489      31.658  52.410  45.461  1.00 31.81 LIG 0.24  C 
ATOM     13 O    GLY D 489      31.817  51.283  45.928  1.00 37.54 LIG-0.27  OA
ATOM     14  N   PRO D 490      32.660  53.062  44.851  1.00 32.04 LIG-0.34  N 
ATOM     15  CD  PRO D 490      32.557  53.969  43.696  1.00 30.24 LIG 0.13  C 
ATOM     16  CA  PRO D 490      34.054  52.717  45.148  1.00 28.96 LIG 0.17  C 
ATOM     17  CG  PRO D 490      33.978  54.421  43.497  1.00 27.78 LIG 0.02  C 
ATOM     18  CB  PRO D 490      34.818  53.290  43.956  1.00 26.97 LIG 0.04  C 
BRANCH 16 19
ATOM     19  C   PRO D 490      34.538  53.300  46.475  1.00 23.69 LIG 0.22  C 
ATOM     20 O    PRO D 490      35.409  52.741  47.134  1.00 20.56 LIG-0.29  OA
ENDBRANCH 16 19
ENDBRANCH 11 12
ENDBRANCH 9 11
ENDBRANCH 5 7
ENDBRANCH 3 5
BRANCH 1 21
ATOM     21  CA  HIS D 487      24.214  51.112  42.081  1.00 19.79 LIG 0.28  C 
BRANCH 21 22
ATOM     22  CB  HIS D 487      23.085  51.997  42.592  1.00 13.21 LIG 0.10  C 
BRANCH 22 23
ATOM     23  CG  HIS D 487      22.218  52.550  41.509  1.00  6.04 LIG 0.03  A 
ATOM     24  CD2 HIS D 487      21.782  52.003  40.351  1.00  9.79 LIG 0.14  A 
ATOM     25 NE2  HIS D 487      20.996  52.943  39.729  1.00 21.50 LIG-0.25  NA
ATOM     26  CE1 HIS D 487      20.950  54.028  40.479  1.00 16.19 LIG 0.21  A 
ATOM     27  ND1 HIS D 487      21.677  53.816  41.561  1.00 14.18 LIG-0.35  N 
ATOM     28 HD1  HIS D 487      21.795  54.381  42.199  1.00 14.18 LIG 0.17  HD
ENDBRANCH 22 23
ENDBRANCH 21 22
BRANCH 21 29
ATOM     29  N   HIS D 487      23.670  49.925  41.432  1.00 20.90 LIG-0.07  N 
ATOM     30 H1   HIS D 487      24.125  49.759  40.686  1.00 20.90 LIG 0.28  HD
ATOM     31 H3   HIS D 487      22.813  50.063  41.232  1.00 20.90 LIG 0.28  HD
ATOM     32 H2   HIS D 487      23.738  49.228  41.982  1.00 20.90 LIG 0.28  HD
ENDBRANCH 21 29
ENDBRANCH 1 21
TORSDOF 9
ENDMDL
MODEL 10
USER: ADFR SOLUTION from run 84
USER: SCORE 9.717257 LL:  -1.587 LR:  -9.357 RR:   0.000 FEB:  -6.672
USER: RMSD 3.931949
USER: SEED 83
USER: STATUS no improvement in best 10 clusters for 5 generations
USER: GENES 11
USER: genes 0 Translation |==|  0.43328 0.51277 0.40285
USER: genes 1 Rotation |==|  0.58973 0.54965 0.53105 0.98838
USER: genes 2 Torsion [C]-N--CA-[CB] |==|  0.46111
USER: genes 3 Torsion [N]-CA--C-[N] |==|  0.41691
USER: genes 4 Torsion [C]-N--CA-[C] |==|  0.42386
USER: genes 5 Torsion [N]-CA--C-[N] |==|  0.40439
USER: genes 6 Torsion [N]-CA--C-[O] |==|  0.84085
USER: genes 7 Torsion [N]-C--CA-[N] |==|  0.86238
USER: genes 8 Torsion [C]-CA--CB-[CG] |==|  0.84936
USER: genes 9 Torsion [CA]-CB--CG-[CD2] |==|  0.36011
USER: genes 10 Torsion [C]-CA--N-[H3] |==|  0.28262
ROOT
ATOM      1  C   HIS D 487      24.668  49.933  40.186  1.00 20.76 LIG 0.25  C 
ATOM      2 O    HIS D 487      25.807  50.387  40.096  1.00 23.11 LIG-0.27  OA
ATOM      3  N   ALA D 488      23.745  50.445  40.992  1.00 15.78 LIG-0.35  N 
ATOM      4 H    ALA D 488      22.935  50.161  41.036  1.00 15.78 LIG 0.16  HD
ENDROOT
BRANCH 3 5
ATOM      5  CA  ALA D 488      24.044  51.554  41.886  1.00 17.18 LIG 0.17  C 
ATOM      6  CB  ALA D 488      22.758  52.155  42.426  1.00 18.90 LIG 0.04  C 
BRANCH 5 7
ATOM      7  C   ALA D 488      24.926  51.099  43.036  1.00 23.02 LIG 0.24  C 
ATOM      8 O    ALA D 488      24.823  49.958  43.497  1.00 24.91 LIG-0.27  OA
ATOM      9  N   GLY D 489      25.746  52.017  43.535  1.00 25.69 LIG-0.35  N 
ATOM     10 H    GLY D 489      25.782  52.832  43.263  1.00 25.69 LIG 0.16  HD
BRANCH 9 11
ATOM     11  CA  GLY D 489      26.667  51.694  44.609  1.00 31.31 LIG 0.23  C 
BRANCH 11 12
ATOM     12  C   GLY D 489      27.898  52.579  44.582  1.00 31.81 LIG 0.24  C 
ATOM     13 O    GLY D 489      28.303  53.040  43.515  1.00 37.54 LIG-0.27  OA
ATOM     14  N   PRO D 490      28.456  52.928  45.751  1.00 32.04 LIG-0.34  N 
ATOM     15  CD  PRO D 490      27.774  53.097  47.045  1.00 30.24 LIG 0.13  C 
ATOM     16  CA  PRO D 490      29.830  53.436  45.791  1.00 28.96 LIG 0.17  C 
ATOM     17  CG  PRO D 490      28.904  53.443  47.977  1.00 27.78 LIG 0.02  C 
ATOM     18  CB  PRO D 490      29.902  54.150  47.140  1.00 26.97 LIG 0.04  C 
BRANCH 16 19
ATOM     19  C   PRO D 490      30.875  52.328  45.672  1.00 23.69 LIG 0.22  C 
ATOM     20 O    PRO D 490      30.902  51.393  46.467  1.00 20.56 LIG-0.29  OA
ENDBRANCH 16 19
ENDBRANCH 11 12
ENDBRANCH 9 11
ENDBRANCH 5 7
ENDBRANCH 3 5
BRANCH 1 21
ATOM     21  CA  HIS D 487      24.231  48.768  39.305  1.00 19.79 LIG 0.28  C 
BRANCH 21 22
ATOM     22  CB  HIS D 487      23.309  49.285  38.209  1.00 13.21 LIG 0.10  C 
BRANCH 22 23
ATOM     23  CG  HIS D 487      22.142  50.063  38.722  1.00  6.04 LIG 0.03  A 
ATOM     24  CD2 HIS D 487      21.661  51.278  38.376  1.00  9.79 LIG 0.14  A 
ATOM     25 NE2  HIS D 487      20.553  51.512  39.154  1.00 21.50 LIG-0.25  NA
ATOM     26  CE1 HIS D 487      20.360  50.477  39.949  1.00 16.19 LIG 0.21  A 
ATOM     27  ND1 HIS D 487      21.304  49.586  39.706  1.00 14.18 LIG-0.35  N 
ATOM     28 HD1  HIS D 487      21.384  48.826  40.101  1.00 14.18 LIG 0.17  HD
ENDBRANCH 22 23
ENDBRANCH 21 22
BRANCH 21 29
ATOM     29  N   HIS D 487      23.550  47.754  40.100  1.00 20.90 LIG-0.07  N 
ATOM     30 H1   HIS D 487      23.818  46.945  39.842  1.00 20.90 LIG 0.28  HD
ATOM     31 H3   HIS D 487      22.671  47.826  39.983  1.00 20.90 LIG 0.28  HD
ATOM     32 H2   HIS D 487      23.746  47.870  40.961  1.00 20.90 LIG 0.28  HD
ENDBRANCH 21 29
ENDBRANCH 1 21
TORSDOF 9
ENDMDL
MODEL 11
USER: ADFR SOLUTION from run 109
USER: SCORE 9.986912 LL:  -1.431 LR:  -9.305 RR:   0.000 FEB:  -6.620
USER: RMSD 12.383532
USER: SEED 108
USER: STATUS no improvement in best 30 clusters for 5 generations
USER: GENES 11
USER: genes 0 Translation |==|  0.59974 0.80812 0.35012
USER: genes 1 Rotation |==|  0.38228 0.54693 0.03840 0.64443
USER: genes 2 Torsion [C]-N--CA-[CB] |==|  0.52251
USER: genes 3 Torsion [N]-CA--C-[N] |==|  0.47776
USER: genes 4 Torsion [C]-N--CA-[C] |==|  0.78232
USER: genes 5 Torsion [N]-CA--C-[N] |==|  0.63333
USER: genes 6 Torsion [N]-CA--C-[O] |==|  0.03083
USER: genes 7 Torsion [N]-C--CA-[N] |==|  0.58070
USER: genes 8 Torsion [C]-CA--CB-[CG] |==|  0.38264
USER: genes 9 Torsion [CA]-CB--CG-[CD2] |==|  0.60710
USER: genes 10 Torsion [C]-CA--N-[H3] |==|  0.97831
ROOT
ATOM      1  C   HIS D 487      29.662  58.794  38.603  1.00 20.76 LIG 0.25  C 
ATOM      2 O    HIS D 487      28.948  57.866  38.977  1.00 23.11 LIG-0.27  OA
ATOM      3  N   ALA D 488      30.946  58.641  38.297  1.00 15.78 LIG-0.35  N 
ATOM      4 H    ALA D 488      31.446  59.273  37.998  1.00 15.78 LIG 0.16  HD
ENDROOT
BRANCH 3 5
ATOM      5  CA  ALA D 488      31.619  57.360  38.447  1.00 17.18 LIG 0.17  C 
ATOM      6  CB  ALA D 488      33.112  57.520  38.217  1.00 18.90 LIG 0.04  C 
BRANCH 5 7
ATOM      7  C   ALA D 488      31.367  56.775  39.827  1.00 23.02 LIG 0.24  C 
ATOM      8 O    ALA D 488      30.847  57.457  40.715  1.00 24.91 LIG-0.27  OA
ATOM      9  N   GLY D 489      31.796  55.533  40.016  1.00 25.69 LIG-0.35  N 
ATOM     10 H    GLY D 489      32.215  55.071  39.424  1.00 25.69 LIG 0.16  HD
BRANCH 9 11
ATOM     11  CA  GLY D 489      31.578  54.850  41.278  1.00 31.31 LIG 0.23  C 
BRANCH 11 12
ATOM     12  C   GLY D 489      32.561  55.300  42.341  1.00 31.81 LIG 0.24  C 
ATOM     13 O    GLY D 489      32.686  56.497  42.598  1.00 37.54 LIG-0.27  OA
ATOM     14  N   PRO D 490      33.196  54.361  43.058  1.00 32.04 LIG-0.34  N 
ATOM     15  CD  PRO D 490      32.698  53.020  43.405  1.00 30.24 LIG 0.13  C 
ATOM     16  CA  PRO D 490      34.412  54.699  43.805  1.00 28.96 LIG 0.17  C 
ATOM     17  CG  PRO D 490      33.850  52.421  44.167  1.00 27.78 LIG 0.02  C 
ATOM     18  CB  PRO D 490      34.525  53.566  44.823  1.00 26.97 LIG 0.04  C 
BRANCH 16 19
ATOM     19  C   PRO D 490      35.649  54.794  42.912  1.00 23.69 LIG 0.22  C 
ATOM     20 O    PRO D 490      35.550  54.799  41.689  1.00 20.56 LIG-0.29  OA
ENDBRANCH 16 19
ENDBRANCH 11 12
ENDBRANCH 9 11
ENDBRANCH 5 7
ENDBRANCH 3 5
BRANCH 1 21
ATOM     21  CA  HIS D 487      29.078  60.188  38.409  1.00 19.79 LIG 0.28  C 
BRANCH 21 22
ATOM     22  CB  HIS D 487      30.175  61.225  38.606  1.00 13.21 LIG 0.10  C 
BRANCH 22 23
ATOM     23  CG  HIS D 487      30.141  62.333  37.604  1.00  6.04 LIG 0.03  A 
ATOM     24  CD2 HIS D 487      31.138  62.994  36.973  1.00  9.79 LIG 0.14  A 
ATOM     25 NE2  HIS D 487      30.550  63.914  36.139  1.00 21.50 LIG-0.25  NA
ATOM     26  CE1 HIS D 487      29.239  63.821  36.253  1.00 16.19 LIG 0.21  A 
ATOM     27  ND1 HIS D 487      28.964  62.872  37.129  1.00 14.18 LIG-0.35  N 
ATOM     28 HD1  HIS D 487      28.175  62.628  37.367  1.00 14.18 LIG 0.17  HD
ENDBRANCH 22 23
ENDBRANCH 21 22
BRANCH 21 29
ATOM     29  N   HIS D 487      27.989  60.422  39.350  1.00 20.90 LIG-0.07  N 
ATOM     30 H1   HIS D 487      28.232  61.044  39.937  1.00 20.90 LIG 0.28  HD
ATOM     31 H3   HIS D 487      27.800  59.665  39.779  1.00 20.90 LIG 0.28  HD
ATOM     32 H2   HIS D 487      27.267  60.698  38.906  1.00 20.90 LIG 0.28  HD
ENDBRANCH 21 29
ENDBRANCH 1 21
TORSDOF 9
ENDMDL
MODEL 12
USER: ADFR SOLUTION from run 143
USER: SCORE 9.868790 LL:  -1.837 LR:  -9.271 RR:   0.000 FEB:  -6.586
USER: RMSD 5.602896
USER: SEED 142
USER: STATUS no improvement in best 7 clusters for 5 generations
USER: GENES 11
USER: genes 0 Translation |==|  0.44887 0.53799 0.50497
USER: genes 1 Rotation |==|  0.47996 0.35042 0.11150 0.77621
USER: genes 2 Torsion [C]-N--CA-[CB] |==|  0.24913
USER: genes 3 Torsion [N]-CA--C-[N] |==|  0.42579
USER: genes 4 Torsion [C]-N--CA-[C] |==|  0.81365
USER: genes 5 Torsion [N]-CA--C-[N] |==|  0.89445
USER: genes 6 Torsion [N]-CA--C-[O] |==|  0.94389
USER: genes 7 Torsion [N]-C--CA-[N] |==|  0.41762
USER: genes 8 Torsion [C]-CA--CB-[CG] |==|  0.49288
USER: genes 9 Torsion [CA]-CB--CG-[CD2] |==|  0.09712
USER: genes 10 Torsion [C]-CA--N-[H3] |==|  0.01866
ROOT
ATOM      1  C   HIS D 487      25.136  50.690  43.249  1.00 20.76 LIG 0.25  C 
ATOM      2 O    HIS D 487      24.928  49.638  43.850  1.00 23.11 LIG-0.27  OA
ATOM      3  N   ALA D 488      26.155  51.495  43.529  1.00 15.78 LIG-0.35  N 
ATOM      4 H    ALA D 488      26.333  52.214  43.093  1.00 15.78 LIG 0.16  HD
ENDROOT
BRANCH 3 5
ATOM      5  CA  ALA D 488      27.070  51.215  44.625  1.00 17.18 LIG 0.17  C 
ATOM      6  CB  ALA D 488      28.228  50.363  44.138  1.00 18.90 LIG 0.04  C 
BRANCH 5 7
ATOM      7  C   ALA D 488      27.595  52.504  45.235  1.00 23.02 LIG 0.24  C 
ATOM      8 O    ALA D 488      27.719  53.522  44.547  1.00 24.91 LIG-0.27  OA
ATOM      9  N   GLY D 489      27.961  52.435  46.509  1.00 25.69 LIG-0.35  N 
ATOM     10 H    GLY D 489      27.938  51.715  46.980  1.00 25.69 LIG 0.16  HD
BRANCH 9 11
ATOM     11  CA  GLY D 489      28.441  53.608  47.215  1.00 31.31 LIG 0.23  C 
BRANCH 11 12
ATOM     12  C   GLY D 489      29.773  54.088  46.673  1.00 31.81 LIG 0.24  C 
ATOM     13 O    GLY D 489      30.044  55.289  46.679  1.00 37.54 LIG-0.27  OA
ATOM     14  N   PRO D 490      30.676  53.170  46.299  1.00 32.04 LIG-0.34  N 
ATOM     15  CD  PRO D 490      30.845  51.814  46.849  1.00 30.24 LIG 0.13  C 
ATOM     16  CA  PRO D 490      31.793  53.545  45.427  1.00 28.96 LIG 0.17  C 
ATOM     17  CG  PRO D 490      31.964  51.251  46.015  1.00 27.78 LIG 0.02  C 
ATOM     18  CB  PRO D 490      32.800  52.416  45.641  1.00 26.97 LIG 0.04  C 
BRANCH 16 19
ATOM     19  C   PRO D 490      31.382  53.676  43.961  1.00 23.69 LIG 0.22  C 
ATOM     20 O    PRO D 490      30.361  53.142  43.538  1.00 20.56 LIG-0.29  OA
ENDBRANCH 16 19
ENDBRANCH 11 12
ENDBRANCH 9 11
ENDBRANCH 5 7
ENDBRANCH 3 5
BRANCH 1 21
ATOM     21  CA  HIS D 487      24.246  51.100  42.082  1.00 19.79 LIG 0.28  C 
BRANCH 21 22
ATOM     22  CB  HIS D 487      23.142  52.018  42.589  1.00 13.21 LIG 0.10  C 
BRANCH 22 23
ATOM     23  CG  HIS D 487      22.244  52.530  41.511  1.00  6.04 LIG 0.03  A 
ATOM     24  CD2 HIS D 487      21.798  51.950  40.373  1.00  9.79 LIG 0.14  A 
ATOM     25 NE2  HIS D 487      20.981  52.861  39.747  1.00 21.50 LIG-0.25  NA
ATOM     26  CE1 HIS D 487      20.927  53.960  40.475  1.00 16.19 LIG 0.21  A 
ATOM     27  ND1 HIS D 487      21.677  53.786  41.548  1.00 14.18 LIG-0.35  N 
ATOM     28 HD1  HIS D 487      21.795  54.366  42.172  1.00 14.18 LIG 0.17  HD
ENDBRANCH 22 23
ENDBRANCH 21 22
BRANCH 21 29
ATOM     29  N   HIS D 487      23.669  49.925  41.440  1.00 20.90 LIG-0.07  N 
ATOM     30 H1   HIS D 487      22.785  50.014  41.396  1.00 20.90 LIG 0.28  HD
ATOM     31 H3   HIS D 487      23.871  49.199  41.914  1.00 20.90 LIG 0.28  HD
ATOM     32 H2   HIS D 487      24.000  49.843  40.617  1.00 20.90 LIG 0.28  HD
ENDBRANCH 21 29
ENDBRANCH 1 21
TORSDOF 9
ENDMDL
MODEL 13
USER: ADFR SOLUTION from run 9
USER: SCORE 9.136304 LL:  -1.453 LR:  -9.255 RR:   0.000 FEB:  -6.570
USER: RMSD 9.515739
USER: SEED 472750
USER: STATUS no improvement in best 16 clusters for 5 generations
USER: GENES 11
USER: genes 0 Translation |==|  0.49150 0.55020 0.52508
USER: genes 1 Rotation |==|  0.88045 0.20322 0.62649 0.53442
USER: genes 2 Torsion [C]-N--CA-[CB] |==|  0.15201
USER: genes 3 Torsion [N]-CA--C-[N] |==|  0.83856
USER: genes 4 Torsion [C]-N--CA-[C] |==|  0.16224
USER: genes 5 Torsion [N]-CA--C-[N] |==|  0.70000
USER: genes 6 Torsion [N]-CA--C-[O] |==|  0.88757
USER: genes 7 Torsion [N]-C--CA-[N] |==|  0.96769
USER: genes 8 Torsion [C]-CA--CB-[CG] |==|  0.44049
USER: genes 9 Torsion [CA]-CB--CG-[CD2] |==|  0.08444
USER: genes 10 Torsion [C]-CA--N-[H3] |==|  0.48138
ROOT
ATOM      1  C   HIS D 487      26.415  51.056  43.852  1.00 20.76 LIG 0.25  C 
ATOM      2 O    HIS D 487      26.345  49.932  44.343  1.00 23.11 LIG-0.27  OA
ATOM      3  N   ALA D 488      25.571  51.496  42.925  1.00 15.78 LIG-0.35  N 
ATOM      4 H    ALA D 488      25.586  52.292  42.601  1.00 15.78 LIG 0.16  HD
ENDROOT
BRANCH 3 5
ATOM      5  CA  ALA D 488      24.532  50.640  42.372  1.00 17.18 LIG 0.17  C 
ATOM      6  CB  ALA D 488      23.676  50.066  43.487  1.00 18.90 LIG 0.04  C 
BRANCH 5 7
ATOM      7  C   ALA D 488      23.661  51.411  41.395  1.00 23.02 LIG 0.24  C 
ATOM      8 O    ALA D 488      23.588  51.071  40.210  1.00 24.91 LIG-0.27  OA
ATOM      9  N   GLY D 489      23.054  52.486  41.884  1.00 25.69 LIG-0.35  N 
ATOM     10 H    GLY D 489      23.147  52.769  42.691  1.00 25.69 LIG 0.16  HD
BRANCH 9 11
ATOM     11  CA  GLY D 489      22.163  53.283  41.061  1.00 31.31 LIG 0.23  C 
BRANCH 11 12
ATOM     12  C   GLY D 489      21.011  52.461  40.515  1.00 31.81 LIG 0.24  C 
ATOM     13 O    GLY D 489      20.060  52.175  41.241  1.00 37.54 LIG-0.27  OA
ATOM     14  N   PRO D 490      21.010  52.158  39.209  1.00 32.04 LIG-0.34  N 
ATOM     15  CD  PRO D 490      21.594  52.948  38.112  1.00 30.24 LIG 0.13  C 
ATOM     16  CA  PRO D 490      20.165  51.071  38.704  1.00 28.96 LIG 0.17  C 
ATOM     17  CG  PRO D 490      21.324  52.094  36.903  1.00 27.78 LIG 0.02  C 
ATOM     18  CB  PRO D 490      20.071  51.365  37.208  1.00 26.97 LIG 0.04  C 
BRANCH 16 19
ATOM     19  C   PRO D 490      20.752  49.687  38.982  1.00 23.69 LIG 0.22  C 
ATOM     20 O    PRO D 490      21.954  49.472  38.859  1.00 20.56 LIG-0.29  OA
ENDBRANCH 16 19
ENDBRANCH 11 12
ENDBRANCH 9 11
ENDBRANCH 5 7
ENDBRANCH 3 5
BRANCH 1 21
ATOM     21  CA  HIS D 487      27.463  52.048  44.343  1.00 19.79 LIG 0.28  C 
BRANCH 21 22
ATOM     22  CB  HIS D 487      27.142  52.453  45.775  1.00 13.21 LIG 0.10  C 
BRANCH 22 23
ATOM     23  CG  HIS D 487      28.316  52.993  46.525  1.00  6.04 LIG 0.03  A 
ATOM     24  CD2 HIS D 487      29.404  53.676  46.102  1.00  9.79 LIG 0.14  A 
ATOM     25 NE2  HIS D 487      30.169  53.946  47.211  1.00 21.50 LIG-0.25  NA
ATOM     26  CE1 HIS D 487      29.571  53.448  48.277  1.00 16.19 LIG 0.21  A 
ATOM     27  ND1 HIS D 487      28.448  52.870  47.891  1.00 14.18 LIG-0.35  N 
ATOM     28 HD1  HIS D 487      27.887  52.477  48.411  1.00 14.18 LIG 0.17  HD
ENDBRANCH 22 23
ENDBRANCH 21 22
BRANCH 21 29
ATOM     29  N   HIS D 487      27.497  53.224  43.482  1.00 20.90 LIG-0.07  N 
ATOM     30 H1   HIS D 487      27.793  52.993  42.675  1.00 20.90 LIG 0.28  HD
ATOM     31 H3   HIS D 487      28.042  53.834  43.834  1.00 20.90 LIG 0.28  HD
ATOM     32 H2   HIS D 487      26.677  53.564  43.411  1.00 20.90 LIG 0.28  HD
ENDBRANCH 21 29
ENDBRANCH 1 21
TORSDOF 9
ENDMDL
MODEL 14
USER: ADFR SOLUTION from run 109
USER: SCORE 10.063536 LL:  -1.295 LR:  -9.236 RR:   0.000 FEB:  -6.551
USER: RMSD 11.729215
USER: SEED 108
USER: STATUS no improvement in best 30 clusters for 5 generations
USER: GENES 11
USER: genes 0 Translation |==|  0.59747 0.79190 0.36567
USER: genes 1 Rotation |==|  0.80841 0.49082 0.89326 0.51230
USER: genes 2 Torsion [C]-N--CA-[CB] |==|  0.52355
USER: genes 3 Torsion [N]-CA--C-[N] |==|  0.42843
USER: genes 4 Torsion [C]-N--CA-[C] |==|  0.49101
USER: genes 5 Torsion [N]-CA--C-[N] |==|  0.48891
USER: genes 6 Torsion [N]-CA--C-[O] |==|  0.51243
USER: genes 7 Torsion [N]-C--CA-[N] |==|  0.42336
USER: genes 8 Torsion [C]-CA--CB-[CG] |==|  0.45928
USER: genes 9 Torsion [CA]-CB--CG-[CD2] |==|  0.58283
USER: genes 10 Torsion [C]-CA--N-[H3] |==|  0.96931
ROOT
ATOM      1  C   HIS D 487      29.594  58.307  39.070  1.00 20.76 LIG 0.25  C 
ATOM      2 O    HIS D 487      29.303  58.035  40.233  1.00 23.11 LIG-0.27  OA
ATOM      3  N   ALA D 488      30.124  57.425  38.230  1.00 15.78 LIG-0.35  N 
ATOM      4 H    ALA D 488      30.297  57.591  37.405  1.00 15.78 LIG 0.16  HD
ENDROOT
BRANCH 3 5
ATOM      5  CA  ALA D 488      30.461  56.074  38.655  1.00 17.18 LIG 0.17  C 
ATOM      6  CB  ALA D 488      31.235  55.357  37.563  1.00 18.90 LIG 0.04  C 
BRANCH 5 7
ATOM      7  C   ALA D 488      31.276  56.099  39.938  1.00 23.02 LIG 0.24  C 
ATOM      8 O    ALA D 488      32.006  57.059  40.203  1.00 24.91 LIG-0.27  OA
ATOM      9  N   GLY D 489      31.195  55.011  40.695  1.00 25.69 LIG-0.35  N 
ATOM     10 H    GLY D 489      30.740  54.311  40.490  1.00 25.69 LIG 0.16  HD
BRANCH 9 11
ATOM     11  CA  GLY D 489      31.895  54.929  41.964  1.00 31.31 LIG 0.23  C 
BRANCH 11 12
ATOM     12  C   GLY D 489      31.597  53.632  42.691  1.00 31.81 LIG 0.24  C 
ATOM     13 O    GLY D 489      30.858  52.793  42.176  1.00 37.54 LIG-0.27  OA
ATOM     14  N   PRO D 490      32.241  53.385  43.841  1.00 32.04 LIG-0.34  N 
ATOM     15  CD  PRO D 490      33.584  53.849  44.225  1.00 30.24 LIG 0.13  C 
ATOM     16  CA  PRO D 490      31.730  52.373  44.771  1.00 28.96 LIG 0.17  C 
ATOM     17  CG  PRO D 490      33.742  53.304  45.619  1.00 27.78 LIG 0.02  C 
ATOM     18  CB  PRO D 490      32.941  52.058  45.647  1.00 26.97 LIG 0.04  C 
BRANCH 16 19
ATOM     19  C   PRO D 490      30.540  52.869  45.592  1.00 23.69 LIG 0.22  C 
ATOM     20 O    PRO D 490      30.045  52.175  46.474  1.00 20.56 LIG-0.29  OA
ENDBRANCH 16 19
ENDBRANCH 11 12
ENDBRANCH 9 11
ENDBRANCH 5 7
ENDBRANCH 3 5
BRANCH 1 21
ATOM     21  CA  HIS D 487      29.295  59.690  38.503  1.00 19.79 LIG 0.28  C 
BRANCH 21 22
ATOM     22  CB  HIS D 487      30.545  60.554  38.600  1.00 13.21 LIG 0.10  C 
BRANCH 22 23
ATOM     23  CG  HIS D 487      30.481  61.797  37.774  1.00  6.04 LIG 0.03  A 
ATOM     24  CD2 HIS D 487      31.455  62.513  37.166  1.00  9.79 LIG 0.14  A 
ATOM     25 NE2  HIS D 487      30.845  63.562  36.522  1.00 21.50 LIG-0.25  NA
ATOM     26  CE1 HIS D 487      29.543  63.493  36.726  1.00 16.19 LIG 0.21  A 
ATOM     27  ND1 HIS D 487      29.296  62.434  37.476  1.00 14.18 LIG-0.35  N 
ATOM     28 HD1  HIS D 487      28.517  62.182  37.739  1.00 14.18 LIG 0.17  HD
ENDBRANCH 22 23
ENDBRANCH 21 22
BRANCH 21 29
ATOM     29  N   HIS D 487      28.194  60.313  39.228  1.00 20.90 LIG-0.07  N 
ATOM     30 H1   HIS D 487      28.506  60.981  39.726  1.00 20.90 LIG 0.28  HD
ATOM     31 H3   HIS D 487      27.804  59.708  39.753  1.00 20.90 LIG 0.28  HD
ATOM     32 H2   HIS D 487      27.598  60.630  38.647  1.00 20.90 LIG 0.28  HD
ENDBRANCH 21 29
ENDBRANCH 1 21
TORSDOF 9
ENDMDL
MODEL 15
USER: ADFR SOLUTION from run 26
USER: SCORE 8.628628 LL:  -1.311 LR:  -9.206 RR:   0.000 FEB:  -6.521
USER: RMSD 5.509539
USER: SEED 25
USER: STATUS no improvement in best 13 clusters for 5 generations
USER: GENES 11
USER: genes 0 Translation |==|  0.44522 0.52909 0.45854
USER: genes 1 Rotation |==|  0.29834 0.55215 0.13293 0.76810
USER: genes 2 Torsion [C]-N--CA-[CB] |==|  0.39225
USER: genes 3 Torsion [N]-CA--C-[N] |==|  0.92257
USER: genes 4 Torsion [C]-N--CA-[C] |==|  0.76489
USER: genes 5 Torsion [N]-CA--C-[N] |==|  0.57212
USER: genes 6 Torsion [N]-CA--C-[O] |==|  0.43666
USER: genes 7 Torsion [N]-C--CA-[N] |==|  0.84027
USER: genes 8 Torsion [C]-CA--CB-[CG] |==|  0.48262
USER: genes 9 Torsion [CA]-CB--CG-[CD2] |==|  0.65640
USER: genes 10 Torsion [C]-CA--N-[H3] |==|  0.36574
ROOT
ATOM      1  C   HIS D 487      25.027  50.423  41.856  1.00 20.76 LIG 0.25  C 
ATOM      2 O    HIS D 487      25.120  49.268  42.266  1.00 23.11 LIG-0.27  OA
ATOM      3  N   ALA D 488      25.975  51.017  41.140  1.00 15.78 LIG-0.35  N 
ATOM      4 H    ALA D 488      25.906  51.809  40.815  1.00 15.78 LIG 0.16  HD
ENDROOT
BRANCH 3 5
ATOM      5  CA  ALA D 488      27.236  50.352  40.843  1.00 17.18 LIG 0.17  C 
ATOM      6  CB  ALA D 488      27.676  50.670  39.426  1.00 18.90 LIG 0.04  C 
BRANCH 5 7
ATOM      7  C   ALA D 488      28.313  50.773  41.828  1.00 23.02 LIG 0.24  C 
ATOM      8 O    ALA D 488      29.218  49.994  42.144  1.00 24.91 LIG-0.27  OA
ATOM      9  N   GLY D 489      28.173  51.983  42.357  1.00 25.69 LIG-0.35  N 
ATOM     10 H    GLY D 489      27.513  52.509  42.192  1.00 25.69 LIG 0.16  HD
BRANCH 9 11
ATOM     11  CA  GLY D 489      29.158  52.515  43.280  1.00 31.31 LIG 0.23  C 
BRANCH 11 12
ATOM     12  C   GLY D 489      28.903  52.059  44.704  1.00 31.81 LIG 0.24  C 
ATOM     13 O    GLY D 489      28.393  50.960  44.917  1.00 37.54 LIG-0.27  OA
ATOM     14  N   PRO D 490      29.345  52.831  45.707  1.00 32.04 LIG-0.34  N 
ATOM     15  CD  PRO D 490      30.519  53.720  45.694  1.00 30.24 LIG 0.13  C 
ATOM     16  CA  PRO D 490      28.808  52.662  47.061  1.00 28.96 LIG 0.17  C 
ATOM     17  CG  PRO D 490      30.483  54.345  47.062  1.00 27.78 LIG 0.02  C 
ATOM     18  CB  PRO D 490      29.864  53.327  47.943  1.00 26.97 LIG 0.04  C 
BRANCH 16 19
ATOM     19  C   PRO D 490      27.430  53.300  47.235  1.00 23.69 LIG 0.22  C 
ATOM     20 O    PRO D 490      26.664  52.925  48.117  1.00 20.56 LIG-0.29  OA
ENDBRANCH 16 19
ENDBRANCH 11 12
ENDBRANCH 9 11
ENDBRANCH 5 7
ENDBRANCH 3 5
BRANCH 1 21
ATOM     21  CA  HIS D 487      23.757  51.229  42.104  1.00 19.79 LIG 0.28  C 
BRANCH 21 22
ATOM     22  CB  HIS D 487      23.062  51.495  40.775  1.00 13.21 LIG 0.10  C 
BRANCH 22 23
ATOM     23  CG  HIS D 487      21.728  52.152  40.915  1.00  6.04 LIG 0.03  A 
ATOM     24  CD2 HIS D 487      20.503  51.781  40.478  1.00  9.79 LIG 0.14  A 
ATOM     25 NE2  HIS D 487      19.615  52.744  40.895  1.00 21.50 LIG-0.25  NA
ATOM     26  CE1 HIS D 487      20.272  53.672  41.565  1.00 16.19 LIG 0.21  A 
ATOM     27  ND1 HIS D 487      21.549  53.337  41.594  1.00 14.18 LIG-0.35  N 
ATOM     28 HD1  HIS D 487      22.173  53.789  41.978  1.00 14.18 LIG 0.17  HD
ENDBRANCH 22 23
ENDBRANCH 21 22
BRANCH 21 29
ATOM     29  N   HIS D 487      24.071  52.487  42.769  1.00 20.90 LIG-0.07  N 
ATOM     30 H1   HIS D 487      23.794  52.454  43.614  1.00 20.90 LIG 0.28  HD
ATOM     31 H3   HIS D 487      23.662  53.156  42.348  1.00 20.90 LIG 0.28  HD
ATOM     32 H2   HIS D 487      24.952  52.621  42.752  1.00 20.90 LIG 0.28  HD
ENDBRANCH 21 29
ENDBRANCH 1 21
TORSDOF 9
ENDMDL
MODEL 16
USER: ADFR SOLUTION from run 109
USER: SCORE 10.291641 LL:  -1.244 LR:  -9.205 RR:   0.000 FEB:  -6.520
USER: RMSD 11.455081
USER: SEED 108
USER: STATUS no improvement in best 30 clusters for 5 generations
USER: GENES 11
USER: genes 0 Translation |==|  0.61710 0.79209 0.36254
USER: genes 1 Rotation |==|  0.91649 0.54992 0.76600 0.55735
USER: genes 2 Torsion [C]-N--CA-[CB] |==|  0.84630
USER: genes 3 Torsion [N]-CA--C-[N] |==|  0.38526
USER: genes 4 Torsion [C]-N--CA-[C] |==|  0.81111
USER: genes 5 Torsion [N]-CA--C-[N] |==|  0.47027
USER: genes 6 Torsion [N]-CA--C-[O] |==|  0.52767
USER: genes 7 Torsion [N]-C--CA-[N] |==|  0.27598
USER: genes 8 Torsion [C]-CA--CB-[CG] |==|  0.40241
USER: genes 9 Torsion [CA]-CB--CG-[CD2] |==|  0.67590
USER: genes 10 Torsion [C]-CA--N-[H3] |==|  0.80851
ROOT
ATOM      1  C   HIS D 487      30.183  58.313  38.976  1.00 20.76 LIG 0.25  C 
ATOM      2 O    HIS D 487      30.700  58.378  40.089  1.00 23.11 LIG-0.27  OA
ATOM      3  N   ALA D 488      30.158  57.198  38.253  1.00 15.78 LIG-0.35  N 
ATOM      4 H    ALA D 488      29.767  57.129  37.491  1.00 15.78 LIG 0.16  HD
ENDROOT
BRANCH 3 5
ATOM      5  CA  ALA D 488      30.807  55.978  38.710  1.00 17.18 LIG 0.17  C 
ATOM      6  CB  ALA D 488      32.271  56.243  39.011  1.00 18.90 LIG 0.04  C 
BRANCH 5 7
ATOM      7  C   ALA D 488      30.115  55.427  39.945  1.00 23.02 LIG 0.24  C 
ATOM      8 O    ALA D 488      29.785  56.175  40.870  1.00 24.91 LIG-0.27  OA
ATOM      9  N   GLY D 489      29.956  54.109  39.980  1.00 25.69 LIG-0.35  N 
ATOM     10 H    GLY D 489      30.238  53.572  39.370  1.00 25.69 LIG 0.16  HD
BRANCH 9 11
ATOM     11  CA  GLY D 489      29.274  53.466  41.087  1.00 31.31 LIG 0.23  C 
BRANCH 11 12
ATOM     12  C   GLY D 489      30.068  53.566  42.375  1.00 31.81 LIG 0.24  C 
ATOM     13 O    GLY D 489      31.197  54.056  42.366  1.00 37.54 LIG-0.27  OA
ATOM     14  N   PRO D 490      29.469  53.211  43.521  1.00 32.04 LIG-0.34  N 
ATOM     15  CD  PRO D 490      28.033  53.300  43.837  1.00 30.24 LIG 0.13  C 
ATOM     16  CA  PRO D 490      30.270  52.914  44.713  1.00 28.96 LIG 0.17  C 
ATOM     17  CG  PRO D 490      27.960  52.725  45.226  1.00 27.78 LIG 0.02  C 
ATOM     18  CB  PRO D 490      29.263  53.046  45.854  1.00 26.97 LIG 0.04  C 
BRANCH 16 19
ATOM     19  C   PRO D 490      30.908  51.526  44.666  1.00 23.69 LIG 0.22  C 
ATOM     20 O    PRO D 490      31.457  51.047  45.653  1.00 20.56 LIG-0.29  OA
ENDBRANCH 16 19
ENDBRANCH 11 12
ENDBRANCH 9 11
ENDBRANCH 5 7
ENDBRANCH 3 5
BRANCH 1 21
ATOM     21  CA  HIS D 487      29.473  59.524  38.383  1.00 19.79 LIG 0.28  C 
BRANCH 21 22
ATOM     22  CB  HIS D 487      30.311  60.770  38.632  1.00 13.21 LIG 0.10  C 
BRANCH 22 23
ATOM     23  CG  HIS D 487      30.248  61.768  37.522  1.00  6.04 LIG 0.03  A 
ATOM     24  CD2 HIS D 487      31.206  62.238  36.691  1.00  9.79 LIG 0.14  A 
ATOM     25 NE2  HIS D 487      30.603  63.133  35.841  1.00 21.50 LIG-0.25  NA
ATOM     26  CE1 HIS D 487      29.320  63.210  36.139  1.00 16.19 LIG 0.21  A 
ATOM     27  ND1 HIS D 487      29.078  62.394  37.148  1.00 14.18 LIG-0.35  N 
ATOM     28 HD1  HIS D 487      28.310  62.271  37.515  1.00 14.18 LIG 0.17  HD
ENDBRANCH 22 23
ENDBRANCH 21 22
BRANCH 21 29
ATOM     29  N   HIS D 487      28.149  59.680  38.973  1.00 20.90 LIG-0.07  N 
ATOM     30 H1   HIS D 487      28.215  59.664  39.860  1.00 20.90 LIG 0.28  HD
ATOM     31 H3   HIS D 487      27.623  59.015  38.703  1.00 20.90 LIG 0.28  HD
ATOM     32 H2   HIS D 487      27.799  60.458  38.716  1.00 20.90 LIG 0.28  HD
ENDBRANCH 21 29
ENDBRANCH 1 21
TORSDOF 9
ENDMDL
MODEL 17
USER: ADFR SOLUTION from run 83
USER: SCORE 9.707007 LL:  -1.184 LR:  -9.175 RR:   0.000 FEB:  -6.490
USER: RMSD 6.900100
USER: SEED 82
USER: STATUS no improvement in best 25 clusters for 5 generations
USER: GENES 11
USER: genes 0 Translation |==|  0.45454 0.54381 0.49399
USER: genes 1 Rotation |==|  0.37985 0.32773 0.11359 0.73786
USER: genes 2 Torsion [C]-N--CA-[CB] |==|  0.15441
USER: genes 3 Torsion [N]-CA--C-[N] |==|  0.07267
USER: genes 4 Torsion [C]-N--CA-[C] |==|  0.39231
USER: genes 5 Torsion [N]-CA--C-[N] |==|  0.41116
USER: genes 6 Torsion [N]-CA--C-[O] |==|  0.40330
USER: genes 7 Torsion [N]-C--CA-[N] |==|  0.35559
USER: genes 8 Torsion [C]-CA--CB-[CG] |==|  0.47765
USER: genes 9 Torsion [CA]-CB--CG-[CD2] |==|  0.10162
USER: genes 10 Torsion [C]-CA--N-[H3] |==|  0.74292
ROOT
ATOM      1  C   HIS D 487      25.306  50.864  42.920  1.00 20.76 LIG 0.25  C 
ATOM      2 O    HIS D 487      25.053  50.102  43.850  1.00 23.11 LIG-0.27  OA
ATOM      3  N   ALA D 488      26.498  51.425  42.745  1.00 15.78 LIG-0.35  N 
ATOM      4 H    ALA D 488      26.699  51.929  42.079  1.00 15.78 LIG 0.16  HD
ENDROOT
BRANCH 3 5
ATOM      5  CA  ALA D 488      27.582  51.223  43.695  1.00 17.18 LIG 0.17  C 
ATOM      6  CB  ALA D 488      27.850  49.740  43.880  1.00 18.90 LIG 0.04  C 
BRANCH 5 7
ATOM      7  C   ALA D 488      28.847  51.924  43.228  1.00 23.02 LIG 0.24  C 
ATOM      8 O    ALA D 488      29.956  51.555  43.627  1.00 24.91 LIG-0.27  OA
ATOM      9  N   GLY D 489      28.668  52.973  42.436  1.00 25.69 LIG-0.35  N 
ATOM     10 H    GLY D 489      27.898  53.278  42.202  1.00 25.69 LIG 0.16  HD
BRANCH 9 11
ATOM     11  CA  GLY D 489      29.798  53.703  41.891  1.00 31.31 LIG 0.23  C 
BRANCH 11 12
ATOM     12  C   GLY D 489      29.554  54.136  40.459  1.00 31.81 LIG 0.24  C 
ATOM     13 O    GLY D 489      28.782  53.498  39.744  1.00 37.54 LIG-0.27  OA
ATOM     14  N   PRO D 490      30.110  55.282  40.038  1.00 32.04 LIG-0.34  N 
ATOM     15  CD  PRO D 490      30.420  56.470  40.850  1.00 30.24 LIG 0.13  C 
ATOM     16  CA  PRO D 490      30.241  55.556  38.603  1.00 28.96 LIG 0.17  C 
ATOM     17  CG  PRO D 490      31.061  57.399  39.854  1.00 27.78 LIG 0.02  C 
ATOM     18  CB  PRO D 490      30.437  57.070  38.551  1.00 26.97 LIG 0.04  C 
BRANCH 16 19
ATOM     19  C   PRO D 490      31.407  54.804  37.961  1.00 23.69 LIG 0.22  C 
ATOM     20 O    PRO D 490      31.334  54.384  36.811  1.00 20.56 LIG-0.29  OA
ENDBRANCH 16 19
ENDBRANCH 11 12
ENDBRANCH 9 11
ENDBRANCH 5 7
ENDBRANCH 3 5
BRANCH 1 21
ATOM     21  CA  HIS D 487      24.254  51.161  41.858  1.00 19.79 LIG 0.28  C 
BRANCH 21 22
ATOM     22  CB  HIS D 487      23.172  52.050  42.457  1.00 13.21 LIG 0.10  C 
BRANCH 22 23
ATOM     23  CG  HIS D 487      22.189  52.559  41.453  1.00  6.04 LIG 0.03  A 
ATOM     24  CD2 HIS D 487      21.653  51.975  40.357  1.00  9.79 LIG 0.14  A 
ATOM     25 NE2  HIS D 487      20.788  52.884  39.796  1.00 21.50 LIG-0.25  NA
ATOM     26  CE1 HIS D 487      20.792  53.986  40.523  1.00 16.19 LIG 0.21  A 
ATOM     27  ND1 HIS D 487      21.627  53.815  41.532  1.00 14.18 LIG-0.35  N 
ATOM     28 HD1  HIS D 487      21.795  54.397  42.142  1.00 14.18 LIG 0.17  HD
ENDBRANCH 22 23
ENDBRANCH 21 22
BRANCH 21 29
ATOM     29  N   HIS D 487      23.669  49.924  41.356  1.00 20.90 LIG-0.07  N 
ATOM     30 H1   HIS D 487      23.715  49.297  41.986  1.00 20.90 LIG 0.28  HD
ATOM     31 H3   HIS D 487      24.118  49.654  40.636  1.00 20.90 LIG 0.28  HD
ATOM     32 H2   HIS D 487      22.817  50.064  41.139  1.00 20.90 LIG 0.28  HD
ENDBRANCH 21 29
ENDBRANCH 1 21
TORSDOF 9
ENDMDL
MODEL 18
USER: ADFR SOLUTION from run 36
USER: SCORE 9.857896 LL:  -1.270 LR:  -9.156 RR:   0.000 FEB:  -6.471
USER: RMSD 8.564636
USER: SEED 35
USER: STATUS no improvement in best 18 clusters for 5 generations
USER: GENES 11
USER: genes 0 Translation |==|  0.36375 0.56736 0.41756
USER: genes 1 Rotation |==|  0.80562 0.80102 0.62111 0.72653
USER: genes 2 Torsion [C]-N--CA-[CB] |==|  0.15957
USER: genes 3 Torsion [N]-CA--C-[N] |==|  0.06157
USER: genes 4 Torsion [C]-N--CA-[C] |==|  0.59761
USER: genes 5 Torsion [N]-CA--C-[N] |==|  0.52778
USER: genes 6 Torsion [N]-CA--C-[O] |==|  0.65870
USER: genes 7 Torsion [N]-C--CA-[N] |==|  0.07978
USER: genes 8 Torsion [C]-CA--CB-[CG] |==|  0.88106
USER: genes 9 Torsion [CA]-CB--CG-[CD2] |==|  0.77254
USER: genes 10 Torsion [C]-CA--N-[H3] |==|  0.97212
ROOT
ATOM      1  C   HIS D 487      22.583  51.571  40.627  1.00 20.76 LIG 0.25  C 
ATOM      2 O    HIS D 487      22.930  52.748  40.570  1.00 23.11 LIG-0.27  OA
ATOM      3  N   ALA D 488      23.177  50.676  41.409  1.00 15.78 LIG-0.35  N 
ATOM      4 H    ALA D 488      22.920  49.860  41.486  1.00 15.78 LIG 0.16  HD
ENDROOT
BRANCH 3 5
ATOM      5  CA  ALA D 488      24.340  51.020  42.214  1.00 17.18 LIG 0.17  C 
ATOM      6  CB  ALA D 488      24.012  52.175  43.144  1.00 18.90 LIG 0.04  C 
BRANCH 5 7
ATOM      7  C   ALA D 488      24.811  49.822  43.021  1.00 23.02 LIG 0.24  C 
ATOM      8 O    ALA D 488      25.538  49.973  44.009  1.00 24.91 LIG-0.27  OA
ATOM      9  N   GLY D 489      24.447  48.633  42.558  1.00 25.69 LIG-0.35  N 
ATOM     10 H    GLY D 489      23.994  48.512  41.837  1.00 25.69 LIG 0.16  HD
BRANCH 9 11
ATOM     11  CA  GLY D 489      24.800  47.414  43.262  1.00 31.31 LIG 0.23  C 
BRANCH 11 12
ATOM     12  C   GLY D 489      25.088  46.272  42.306  1.00 31.81 LIG 0.24  C 
ATOM     13 O    GLY D 489      25.287  46.502  41.114  1.00 37.54 LIG-0.27  OA
ATOM     14  N   PRO D 490      25.228  45.039  42.813  1.00 32.04 LIG-0.34  N 
ATOM     15  CD  PRO D 490      25.728  44.679  44.151  1.00 30.24 LIG 0.13  C 
ATOM     16  CA  PRO D 490      25.118  43.865  41.941  1.00 28.96 LIG 0.17  C 
ATOM     17  CG  PRO D 490      25.614  43.178  44.159  1.00 27.78 LIG 0.02  C 
ATOM     18  CB  PRO D 490      25.800  42.762  42.749  1.00 26.97 LIG 0.04  C 
BRANCH 16 19
ATOM     19  C   PRO D 490      23.670  43.515  41.600  1.00 23.69 LIG 0.22  C 
ATOM     20 O    PRO D 490      23.209  42.407  41.853  1.00 20.56 LIG-0.29  OA
ENDBRANCH 16 19
ENDBRANCH 11 12
ENDBRANCH 9 11
ENDBRANCH 5 7
ENDBRANCH 3 5
BRANCH 1 21
ATOM     21  CA  HIS D 487      21.380  51.082  39.828  1.00 19.79 LIG 0.28  C 
BRANCH 21 22
ATOM     22  CB  HIS D 487      20.418  52.242  39.607  1.00 13.21 LIG 0.10  C 
BRANCH 22 23
ATOM     23  CG  HIS D 487      20.216  53.094  40.818  1.00  6.04 LIG 0.03  A 
ATOM     24  CD2 HIS D 487      19.416  52.932  41.897  1.00  9.79 LIG 0.14  A 
ATOM     25 NE2  HIS D 487      19.631  54.007  42.725  1.00 21.50 LIG-0.25  NA
ATOM     26  CE1 HIS D 487      20.532  54.800  42.175  1.00 16.19 LIG 0.21  A 
ATOM     27  ND1 HIS D 487      20.904  54.270  41.024  1.00 14.18 LIG-0.35  N 
ATOM     28 HD1  HIS D 487      21.485  54.607  40.486  1.00 14.18 LIG 0.17  HD
ENDBRANCH 22 23
ENDBRANCH 21 22
BRANCH 21 29
ATOM     29  N   HIS D 487      20.707  49.995  40.528  1.00 20.90 LIG-0.07  N 
ATOM     30 H1   HIS D 487      19.919  50.278  40.830  1.00 20.90 LIG 0.28  HD
ATOM     31 H3   HIS D 487      21.209  49.729  41.213  1.00 20.90 LIG 0.28  HD
ATOM     32 H2   HIS D 487      20.583  49.314  39.969  1.00 20.90 LIG 0.28  HD
ENDBRANCH 21 29
ENDBRANCH 1 21
TORSDOF 9
ENDMDL
MODEL 19
USER: ADFR SOLUTION from run 32
USER: SCORE 8.325830 LL:  -1.460 LR:  -9.147 RR:   0.000 FEB:  -6.462
USER: RMSD 6.961630
USER: SEED 31
USER: STATUS no improvement in best 16 clusters for 5 generations
USER: GENES 11
USER: genes 0 Translation |==|  0.36263 0.56784 0.41219
USER: genes 1 Rotation |==|  0.80756 0.80484 0.60643 0.72616
USER: genes 2 Torsion [C]-N--CA-[CB] |==|  0.36694
USER: genes 3 Torsion [N]-CA--C-[N] |==|  0.41876
USER: genes 4 Torsion [C]-N--CA-[C] |==|  0.29436
USER: genes 5 Torsion [N]-CA--C-[N] |==|  0.22796
USER: genes 6 Torsion [N]-CA--C-[O] |==|  0.09453
USER: genes 7 Torsion [N]-C--CA-[N] |==|  0.07210
USER: genes 8 Torsion [C]-CA--CB-[CG] |==|  0.88416
USER: genes 9 Torsion [CA]-CB--CG-[CD2] |==|  0.76257
USER: genes 10 Torsion [C]-CA--N-[H3] |==|  0.63338
ROOT
ATOM      1  C   HIS D 487      22.549  51.585  40.466  1.00 20.76 LIG 0.25  C 
ATOM      2 O    HIS D 487      22.918  52.752  40.352  1.00 23.11 LIG-0.27  OA
ATOM      3  N   ALA D 488      23.160  50.705  41.251  1.00 15.78 LIG-0.35  N 
ATOM      4 H    ALA D 488      22.890  49.897  41.368  1.00 15.78 LIG 0.16  HD
ENDROOT
BRANCH 3 5
ATOM      5  CA  ALA D 488      24.365  51.050  41.990  1.00 17.18 LIG 0.17  C 
ATOM      6  CB  ALA D 488      24.238  50.609  43.438  1.00 18.90 LIG 0.04  C 
BRANCH 5 7
ATOM      7  C   ALA D 488      25.589  50.408  41.358  1.00 23.02 LIG 0.24  C 
ATOM      8 O    ALA D 488      25.507  49.312  40.795  1.00 24.91 LIG-0.27  OA
ATOM      9  N   GLY D 489      26.732  51.067  41.512  1.00 25.69 LIG-0.35  N 
ATOM     10 H    GLY D 489      26.812  51.799  41.956  1.00 25.69 LIG 0.16  HD
BRANCH 9 11
ATOM     11  CA  GLY D 489      27.963  50.577  40.921  1.00 31.31 LIG 0.23  C 
BRANCH 11 12
ATOM     12  C   GLY D 489      28.376  51.398  39.714  1.00 31.81 LIG 0.24  C 
ATOM     13 O    GLY D 489      28.021  51.058  38.586  1.00 37.54 LIG-0.27  OA
ATOM     14  N   PRO D 490      29.034  52.548  39.923  1.00 32.04 LIG-0.34  N 
ATOM     15  CD  PRO D 490      28.920  53.438  41.090  1.00 30.24 LIG 0.13  C 
ATOM     16  CA  PRO D 490      29.788  53.176  38.833  1.00 28.96 LIG 0.17  C 
ATOM     17  CG  PRO D 490      29.917  54.524  40.783  1.00 27.78 LIG 0.02  C 
ATOM     18  CB  PRO D 490      29.950  54.620  39.305  1.00 26.97 LIG 0.04  C 
BRANCH 16 19
ATOM     19  C   PRO D 490      31.135  52.500  38.578  1.00 23.69 LIG 0.22  C 
ATOM     20 O    PRO D 490      31.276  51.291  38.728  1.00 20.56 LIG-0.29  OA
ENDBRANCH 16 19
ENDBRANCH 11 12
ENDBRANCH 9 11
ENDBRANCH 5 7
ENDBRANCH 3 5
BRANCH 1 21
ATOM     21  CA  HIS D 487      21.301  51.097  39.739  1.00 19.79 LIG 0.28  C 
BRANCH 21 22
ATOM     22  CB  HIS D 487      20.324  52.255  39.583  1.00 13.21 LIG 0.10  C 
BRANCH 22 23
ATOM     23  CG  HIS D 487      20.214  53.117  40.799  1.00  6.04 LIG 0.03  A 
ATOM     24  CD2 HIS D 487      19.451  52.997  41.909  1.00  9.79 LIG 0.14  A 
ATOM     25 NE2  HIS D 487      19.753  54.060  42.725  1.00 21.50 LIG-0.25  NA
ATOM     26  CE1 HIS D 487      20.670  54.806  42.137  1.00 16.19 LIG 0.21  A 
ATOM     27  ND1 HIS D 487      20.968  54.257  40.974  1.00 14.18 LIG-0.35  N 
ATOM     28 HD1  HIS D 487      21.544  54.563  40.413  1.00 14.18 LIG 0.17  HD
ENDBRANCH 22 23
ENDBRANCH 21 22
BRANCH 21 29
ATOM     29  N   HIS D 487      20.675  50.005  40.475  1.00 20.90 LIG-0.07  N 
ATOM     30 H1   HIS D 487      21.229  49.718  41.110  1.00 20.90 LIG 0.28  HD
ATOM     31 H3   HIS D 487      20.492  49.337  39.916  1.00 20.90 LIG 0.28  HD
ATOM     32 H2   HIS D 487      19.920  50.293  40.849  1.00 20.90 LIG 0.28  HD
ENDBRANCH 21 29
ENDBRANCH 1 21
TORSDOF 9
ENDMDL
MODEL 20
USER: ADFR SOLUTION from run 6
USER: SCORE 9.952084 LL:  -1.615 LR:  -9.092 RR:   0.000 FEB:  -6.407
USER: RMSD 2.089807
USER: SEED 858275
USER: STATUS no improvement in best 11 clusters for 5 generations
USER: GENES 11
USER: genes 0 Translation |==|  0.44565 0.47070 0.43836
USER: genes 1 Rotation |==|  0.48448 0.48297 0.47267 0.99872
USER: genes 2 Torsion [C]-N--CA-[CB] |==|  0.48891
USER: genes 3 Torsion [N]-CA--C-[N] |==|  0.45914
USER: genes 4 Torsion [C]-N--CA-[C] |==|  0.41111
USER: genes 5 Torsion [N]-CA--C-[N] |==|  0.46597
USER: genes 6 Torsion [N]-CA--C-[O] |==|  0.89121
USER: genes 7 Torsion [N]-C--CA-[N] |==|  0.26015
USER: genes 8 Torsion [C]-CA--CB-[CG] |==|  0.14985
USER: genes 9 Torsion [CA]-CB--CG-[CD2] |==|  0.76946
USER: genes 10 Torsion [C]-CA--N-[H3] |==|  0.11980
ROOT
ATOM      1  C   HIS D 487      25.039  48.671  41.251  1.00 20.76 LIG 0.25  C 
ATOM      2 O    HIS D 487      26.255  48.833  41.330  1.00 23.11 LIG-0.27  OA
ATOM      3  N   ALA D 488      24.162  49.638  41.498  1.00 15.78 LIG-0.35  N 
ATOM      4 H    ALA D 488      23.312  49.548  41.409  1.00 15.78 LIG 0.16  HD
ENDROOT
BRANCH 3 5
ATOM      5  CA  ALA D 488      24.585  50.955  41.948  1.00 17.18 LIG 0.17  C 
ATOM      6  CB  ALA D 488      23.389  51.883  42.056  1.00 18.90 LIG 0.04  C 
BRANCH 5 7
ATOM      7  C   ALA D 488      25.294  50.866  43.289  1.00 23.02 LIG 0.24  C 
ATOM      8 O    ALA D 488      25.170  49.866  44.003  1.00 24.91 LIG-0.27  OA
ATOM      9  N   GLY D 489      25.984  51.940  43.652  1.00 25.69 LIG-0.35  N 
ATOM     10 H    GLY D 489      26.026  52.666  43.192  1.00 25.69 LIG 0.16  HD
BRANCH 9 11
ATOM     11  CA  GLY D 489      26.738  51.964  44.892  1.00 31.31 LIG 0.23  C 
BRANCH 11 12
ATOM     12  C   GLY D 489      27.980  52.826  44.782  1.00 31.81 LIG 0.24  C 
ATOM     13 O    GLY D 489      28.307  53.300  43.694  1.00 37.54 LIG-0.27  OA
ATOM     14  N   PRO D 490      28.636  53.143  45.908  1.00 32.04 LIG-0.34  N 
ATOM     15  CD  PRO D 490      28.063  53.300  47.256  1.00 30.24 LIG 0.13  C 
ATOM     16  CA  PRO D 490      30.019  53.626  45.846  1.00 28.96 LIG 0.17  C 
ATOM     17  CG  PRO D 490      29.271  53.607  48.099  1.00 27.78 LIG 0.02  C 
ATOM     18  CB  PRO D 490      30.212  54.313  47.198  1.00 26.97 LIG 0.04  C 
BRANCH 16 19
ATOM     19  C   PRO D 490      31.029  52.501  45.625  1.00 23.69 LIG 0.22  C 
ATOM     20 O    PRO D 490      30.899  51.413  46.176  1.00 20.56 LIG-0.29  OA
ENDBRANCH 16 19
ENDBRANCH 11 12
ENDBRANCH 9 11
ENDBRANCH 5 7
ENDBRANCH 3 5
BRANCH 1 21
ATOM     21  CA  HIS D 487      24.467  47.334  40.793  1.00 19.79 LIG 0.28  C 
BRANCH 21 22
ATOM     22  CB  HIS D 487      25.314  46.204  41.361  1.00 13.21 LIG 0.10  C 
BRANCH 22 23
ATOM     23  CG  HIS D 487      25.479  46.264  42.845  1.00  6.04 LIG 0.03  A 
ATOM     24  CD2 HIS D 487      26.340  46.967  43.617  1.00  9.79 LIG 0.14  A 
ATOM     25 NE2  HIS D 487      26.050  46.664  44.925  1.00 21.50 LIG-0.25  NA
ATOM     26  CE1 HIS D 487      25.048  45.807  44.956  1.00 16.19 LIG 0.21  A 
ATOM     27  ND1 HIS D 487      24.682  45.551  43.713  1.00 14.18 LIG-0.35  N 
ATOM     28 HD1  HIS D 487      24.045  45.021  43.481  1.00 14.18 LIG 0.17  HD
ENDBRANCH 22 23
ENDBRANCH 21 22
BRANCH 21 29
ATOM     29  N   HIS D 487      24.441  47.261  39.337  1.00 20.90 LIG-0.07  N 
ATOM     30 H1   HIS D 487      24.342  46.414  39.084  1.00 20.90 LIG 0.28  HD
ATOM     31 H3   HIS D 487      25.203  47.582  39.010  1.00 20.90 LIG 0.28  HD
ATOM     32 H2   HIS D 487      23.759  47.744  39.028  1.00 20.90 LIG 0.28  HD
ENDBRANCH 21 29
ENDBRANCH 1 21
TORSDOF 9
ENDMDL
MODEL 21
USER: ADFR SOLUTION from run 56
USER: SCORE 9.925889 LL:  -1.340 LR:  -9.031 RR:   0.000 FEB:  -6.347
USER: RMSD 1.905830
USER: SEED 55
USER: STATUS no improvement in best 12 clusters for 5 generations
USER: GENES 11
USER: genes 0 Translation |==|  0.44557 0.44521 0.51702
USER: genes 1 Rotation |==|  0.42181 0.05894 0.45776 0.71811
USER: genes 2 Torsion [C]-N--CA-[CB] |==|  0.83603
USER: genes 3 Torsion [N]-CA--C-[N] |==|  0.46667
USER: genes 4 Torsion [C]-N--CA-[C] |==|  0.27316
USER: genes 5 Torsion [N]-CA--C-[N] |==|  0.55537
USER: genes 6 Torsion [N]-CA--C-[O] |==|  0.75711
USER: genes 7 Torsion [N]-C--CA-[N] |==|  0.51517
USER: genes 8 Torsion [C]-CA--CB-[CG] |==|  0.53335
USER: genes 9 Torsion [CA]-CB--CG-[CD2] |==|  0.91806
USER: genes 10 Torsion [C]-CA--N-[H3] |==|  0.63472
ROOT
ATOM      1  C   HIS D 487      25.037  47.906  43.611  1.00 20.76 LIG 0.25  C 
ATOM      2 O    HIS D 487      24.450  48.424  44.558  1.00 23.11 LIG-0.27  OA
ATOM      3  N   ALA D 488      25.607  48.611  42.639  1.00 15.78 LIG-0.35  N 
ATOM      4 H    ALA D 488      26.053  48.263  41.992  1.00 15.78 LIG 0.16  HD
ENDROOT
BRANCH 3 5
ATOM      5  CA  ALA D 488      25.516  50.063  42.596  1.00 17.18 LIG 0.17  C 
ATOM      6  CB  ALA D 488      24.062  50.497  42.536  1.00 18.90 LIG 0.04  C 
BRANCH 5 7
ATOM      7  C   ALA D 488      26.193  50.683  43.807  1.00 23.02 LIG 0.24  C 
ATOM      8 O    ALA D 488      26.477  49.994  44.792  1.00 24.91 LIG-0.27  OA
ATOM      9  N   GLY D 489      26.389  51.995  43.751  1.00 25.69 LIG-0.35  N 
ATOM     10 H    GLY D 489      26.139  52.494  43.097  1.00 25.69 LIG 0.16  HD
BRANCH 9 11
ATOM     11  CA  GLY D 489      27.062  52.697  44.828  1.00 31.31 LIG 0.23  C 
BRANCH 11 12
ATOM     12  C   GLY D 489      28.527  52.937  44.518  1.00 31.81 LIG 0.24  C 
ATOM     13 O    GLY D 489      28.908  52.993  43.349  1.00 37.54 LIG-0.27  OA
ATOM     14  N   PRO D 490      29.359  53.194  45.538  1.00 32.04 LIG-0.34  N 
ATOM     15  CD  PRO D 490      29.027  53.854  46.811  1.00 30.24 LIG 0.13  C 
ATOM     16  CA  PRO D 490      30.808  53.050  45.363  1.00 28.96 LIG 0.17  C 
ATOM     17  CG  PRO D 490      30.332  53.819  47.559  1.00 27.78 LIG 0.02  C 
ATOM     18  CB  PRO D 490      31.384  53.871  46.516  1.00 26.97 LIG 0.04  C 
BRANCH 16 19
ATOM     19  C   PRO D 490      31.267  51.593  45.411  1.00 23.69 LIG 0.22  C 
ATOM     20 O    PRO D 490      31.546  51.050  46.475  1.00 20.56 LIG-0.29  OA
ENDBRANCH 16 19
ENDBRANCH 11 12
ENDBRANCH 9 11
ENDBRANCH 5 7
ENDBRANCH 3 5
BRANCH 1 21
ATOM     21  CA  HIS D 487      25.198  46.392  43.537  1.00 19.79 LIG 0.28  C 
BRANCH 21 22
ATOM     22  CB  HIS D 487      24.746  45.905  42.167  1.00 13.21 LIG 0.10  C 
BRANCH 22 23
ATOM     23  CG  HIS D 487      24.592  44.422  42.078  1.00  6.04 LIG 0.03  A 
ATOM     24  CD2 HIS D 487      25.226  43.420  42.729  1.00  9.79 LIG 0.14  A 
ATOM     25 NE2  HIS D 487      24.687  42.239  42.279  1.00 21.50 LIG-0.25  NA
ATOM     26  CE1 HIS D 487      23.754  42.506  41.384  1.00 16.19 LIG 0.21  A 
ATOM     27  ND1 HIS D 487      23.674  43.817  41.246  1.00 14.18 LIG-0.35  N 
ATOM     28 HD1  HIS D 487      23.134  44.229  40.719  1.00 14.18 LIG 0.17  HD
ENDBRANCH 22 23
ENDBRANCH 21 22
BRANCH 21 29
ATOM     29  N   HIS D 487      24.421  45.743  44.585  1.00 20.90 LIG-0.07  N 
ATOM     30 H1   HIS D 487      24.136  46.354  45.166  1.00 20.90 LIG 0.28  HD
ATOM     31 H3   HIS D 487      24.930  45.148  45.007  1.00 20.90 LIG 0.28  HD
ATOM     32 H2   HIS D 487      23.720  45.330  44.223  1.00 20.90 LIG 0.28  HD
ENDBRANCH 21 29
ENDBRANCH 1 21
TORSDOF 9
ENDMDL
MODEL 22
USER: ADFR SOLUTION from run 40
USER: SCORE 9.497671 LL:  -1.344 LR:  -9.004 RR:   0.000 FEB:  -6.320
USER: RMSD 8.585097
USER: SEED 39
USER: STATUS no improvement in best 14 clusters for 5 generations
USER: GENES 11
USER: genes 0 Translation |==|  0.29060 0.57736 0.37345
USER: genes 1 Rotation |==|  0.07401 0.37456 0.72959 0.50925
USER: genes 2 Torsion [C]-N--CA-[CB] |==|  0.80479
USER: genes 3 Torsion [N]-CA--C-[N] |==|  0.20396
USER: genes 4 Torsion [C]-N--CA-[C] |==|  0.40000
USER: genes 5 Torsion [N]-CA--C-[N] |==|  0.91405
USER: genes 6 Torsion [N]-CA--C-[O] |==|  0.39672
USER: genes 7 Torsion [N]-C--CA-[N] |==|  0.04602
USER: genes 8 Torsion [C]-CA--CB-[CG] |==|  0.52955
USER: genes 9 Torsion [CA]-CB--CG-[CD2] |==|  0.06296
USER: genes 10 Torsion [C]-CA--N-[H3] |==|  0.67237
ROOT
ATOM      1  C   HIS D 487      20.388  51.871  39.304  1.00 20.76 LIG 0.25  C 
ATOM      2 O    HIS D 487      21.039  52.145  38.298  1.00 23.11 LIG-0.27  OA
ATOM      3  N   ALA D 488      20.013  50.633  39.609  1.00 15.78 LIG-0.35  N 
ATOM      4 H    ALA D 488      19.591  50.423  40.328  1.00 15.78 LIG 0.16  HD
ENDROOT
BRANCH 3 5
ATOM      5  CA  ALA D 488      20.297  49.511  38.728  1.00 17.18 LIG 0.17  C 
ATOM      6  CB  ALA D 488      19.448  49.601  37.472  1.00 18.90 LIG 0.04  C 
BRANCH 5 7
ATOM      7  C   ALA D 488      21.770  49.474  38.357  1.00 23.02 LIG 0.24  C 
ATOM      8 O    ALA D 488      22.138  49.744  37.209  1.00 24.91 LIG-0.27  OA
ATOM      9  N   GLY D 489      22.598  49.077  39.315  1.00 25.69 LIG-0.35  N 
ATOM     10 H    GLY D 489      22.347  48.826  40.099  1.00 25.69 LIG 0.16  HD
BRANCH 9 11
ATOM     11  CA  GLY D 489      24.032  49.037  39.097  1.00 31.31 LIG 0.23  C 
BRANCH 11 12
ATOM     12  C   GLY D 489      24.804  49.423  40.344  1.00 31.81 LIG 0.24  C 
ATOM     13 O    GLY D 489      25.953  49.013  40.508  1.00 37.54 LIG-0.27  OA
ATOM     14  N   PRO D 490      24.246  50.299  41.192  1.00 32.04 LIG-0.34  N 
ATOM     15  CD  PRO D 490      23.305  51.381  40.860  1.00 30.24 LIG 0.13  C 
ATOM     16  CA  PRO D 490      24.741  50.413  42.568  1.00 28.96 LIG 0.17  C 
ATOM     17  CG  PRO D 490      22.999  51.984  42.204  1.00 27.78 LIG 0.02  C 
ATOM     18  CB  PRO D 490      24.222  51.779  43.015  1.00 26.97 LIG 0.04  C 
BRANCH 16 19
ATOM     19  C   PRO D 490      24.244  49.285  43.472  1.00 23.69 LIG 0.22  C 
ATOM     20 O    PRO D 490      24.966  48.800  44.336  1.00 20.56 LIG-0.29  OA
ENDBRANCH 16 19
ENDBRANCH 11 12
ENDBRANCH 9 11
ENDBRANCH 5 7
ENDBRANCH 3 5
BRANCH 1 21
ATOM     21  CA  HIS D 487      20.023  52.959  40.307  1.00 19.79 LIG 0.28  C 
BRANCH 21 22
ATOM     22  CB  HIS D 487      21.201  53.911  40.467  1.00 13.21 LIG 0.10  C 
BRANCH 22 23
ATOM     23  CG  HIS D 487      21.050  54.866  41.606  1.00  6.04 LIG 0.03  A 
ATOM     24  CD2 HIS D 487      20.301  54.800  42.730  1.00  9.79 LIG 0.14  A 
ATOM     25 NE2  HIS D 487      20.549  55.944  43.450  1.00 21.50 LIG-0.25  NA
ATOM     26  CE1 HIS D 487      21.420  56.685  42.792  1.00 16.19 LIG 0.21  A 
ATOM     27  ND1 HIS D 487      21.742  56.056  41.676  1.00 14.18 LIG-0.35  N 
ATOM     28 HD1  HIS D 487      22.296  56.344  41.085  1.00 14.18 LIG 0.17  HD
ENDBRANCH 22 23
ENDBRANCH 21 22
BRANCH 21 29
ATOM     29  N   HIS D 487      19.670  52.371  41.593  1.00 20.90 LIG-0.07  N 
ATOM     30 H1   HIS D 487      19.766  51.488  41.553  1.00 20.90 LIG 0.28  HD
ATOM     31 H3   HIS D 487      18.825  52.570  41.788  1.00 20.90 LIG 0.28  HD
ATOM     32 H2   HIS D 487      20.205  52.698  42.226  1.00 20.90 LIG 0.28  HD
ENDBRANCH 21 29
ENDBRANCH 1 21
TORSDOF 9
ENDMDL
MODEL 23
USER: ADFR SOLUTION from run 159
USER: SCORE 9.303710 LL:  -1.352 LR:  -8.976 RR:   0.000 FEB:  -6.291
USER: RMSD 3.520042
USER: SEED 158
USER: STATUS no improvement in best 18 clusters for 5 generations
USER: GENES 11
USER: genes 0 Translation |==|  0.44969 0.42827 0.53329
USER: genes 1 Rotation |==|  0.36712 0.03482 0.50763 0.62606
USER: genes 2 Torsion [C]-N--CA-[CB] |==|  0.81667
USER: genes 3 Torsion [N]-CA--C-[N] |==|  0.53294
USER: genes 4 Torsion [C]-N--CA-[C] |==|  0.26856
USER: genes 5 Torsion [N]-CA--C-[N] |==|  0.62139
USER: genes 6 Torsion [N]-CA--C-[O] |==|  0.75094
USER: genes 7 Torsion [N]-C--CA-[N] |==|  0.79473
USER: genes 8 Torsion [C]-CA--CB-[CG] |==|  0.39505
USER: genes 9 Torsion [CA]-CB--CG-[CD2] |==|  0.00937
USER: genes 10 Torsion [C]-CA--N-[H3] |==|  0.83707
ROOT
ATOM      1  C   HIS D 487      25.161  47.398  44.099  1.00 20.76 LIG 0.25  C 
ATOM      2 O    HIS D 487      24.424  48.249  44.592  1.00 23.11 LIG-0.27  OA
ATOM      3  N   ALA D 488      26.098  47.683  43.201  1.00 15.78 LIG-0.35  N 
ATOM      4 H    ALA D 488      26.644  47.105  42.877  1.00 15.78 LIG 0.16  HD
ENDROOT
BRANCH 3 5
ATOM      5  CA  ALA D 488      26.274  49.033  42.686  1.00 17.18 LIG 0.17  C 
ATOM      6  CB  ALA D 488      25.061  49.448  41.873  1.00 18.90 LIG 0.04  C 
BRANCH 5 7
ATOM      7  C   ALA D 488      26.502  50.019  43.819  1.00 23.02 LIG 0.24  C 
ATOM      8 O    ALA D 488      26.679  49.621  44.975  1.00 24.91 LIG-0.27  OA
ATOM      9  N   GLY D 489      26.431  51.304  43.491  1.00 25.69 LIG-0.35  N 
ATOM     10 H    GLY D 489      26.246  51.592  42.703  1.00 25.69 LIG 0.16  HD
BRANCH 9 11
ATOM     11  CA  GLY D 489      26.670  52.342  44.477  1.00 31.31 LIG 0.23  C 
BRANCH 11 12
ATOM     12  C   GLY D 489      28.097  52.853  44.425  1.00 31.81 LIG 0.24  C 
ATOM     13 O    GLY D 489      28.596  53.177  43.348  1.00 37.54 LIG-0.27  OA
ATOM     14  N   PRO D 490      28.746  53.044  45.583  1.00 32.04 LIG-0.34  N 
ATOM     15  CD  PRO D 490      28.158  53.403  46.883  1.00 30.24 LIG 0.13  C 
ATOM     16  CA  PRO D 490      30.208  53.154  45.599  1.00 28.96 LIG 0.17  C 
ATOM     17  CG  PRO D 490      29.353  53.431  47.797  1.00 27.78 LIG 0.02  C 
ATOM     18  CB  PRO D 490      30.494  53.830  46.939  1.00 26.97 LIG 0.04  C 
BRANCH 16 19
ATOM     19  C   PRO D 490      30.906  51.800  45.480  1.00 23.69 LIG 0.22  C 
ATOM     20 O    PRO D 490      31.185  51.140  46.475  1.00 20.56 LIG-0.29  OA
ENDBRANCH 16 19
ENDBRANCH 11 12
ENDBRANCH 9 11
ENDBRANCH 5 7
ENDBRANCH 3 5
BRANCH 1 21
ATOM     21  CA  HIS D 487      25.073  45.945  44.552  1.00 19.79 LIG 0.28  C 
BRANCH 21 22
ATOM     22  CB  HIS D 487      26.468  45.441  44.896  1.00 13.21 LIG 0.10  C 
BRANCH 22 23
ATOM     23  CG  HIS D 487      26.503  44.529  46.079  1.00  6.04 LIG 0.03  A 
ATOM     24  CD2 HIS D 487      25.508  44.033  46.850  1.00  9.79 LIG 0.14  A 
ATOM     25 NE2  HIS D 487      26.092  43.228  47.797  1.00 21.50 LIG-0.25  NA
ATOM     26  CE1 HIS D 487      27.399  43.229  47.615  1.00 16.19 LIG 0.21  A 
ATOM     27  ND1 HIS D 487      27.673  44.004  46.581  1.00 14.18 LIG-0.35  N 
ATOM     28 HD1  HIS D 487      28.461  44.158  46.270  1.00 14.18 LIG 0.17  HD
ENDBRANCH 22 23
ENDBRANCH 21 22
BRANCH 21 29
ATOM     29  N   HIS D 487      24.482  45.118  43.507  1.00 20.90 LIG-0.07  N 
ATOM     30 H1   HIS D 487      24.994  45.146  42.780  1.00 20.90 LIG 0.28  HD
ATOM     31 H3   HIS D 487      23.670  45.425  43.310  1.00 20.90 LIG 0.28  HD
ATOM     32 H2   HIS D 487      24.420  44.277  43.794  1.00 20.90 LIG 0.28  HD
ENDBRANCH 21 29
ENDBRANCH 1 21
TORSDOF 9
ENDMDL
MODEL 24
USER: ADFR SOLUTION from run 68
USER: SCORE 9.502957 LL:  -1.842 LR:  -8.952 RR:   0.000 FEB:  -6.268
USER: RMSD 7.734110
USER: SEED 67
USER: STATUS no improvement in best 16 clusters for 5 generations
USER: GENES 11
USER: genes 0 Translation |==|  0.35828 0.56507 0.40754
USER: genes 1 Rotation |==|  0.84413 0.79277 0.60823 0.68479
USER: genes 2 Torsion [C]-N--CA-[CB] |==|  0.23847
USER: genes 3 Torsion [N]-CA--C-[N] |==|  0.00000
USER: genes 4 Torsion [C]-N--CA-[C] |==|  0.20902
USER: genes 5 Torsion [N]-CA--C-[N] |==|  0.74294
USER: genes 6 Torsion [N]-CA--C-[O] |==|  0.95777
USER: genes 7 Torsion [N]-C--CA-[N] |==|  0.11340
USER: genes 8 Torsion [C]-CA--CB-[CG] |==|  0.84892
USER: genes 9 Torsion [CA]-CB--CG-[CD2] |==|  0.78002
USER: genes 10 Torsion [C]-CA--N-[H3] |==|  0.54956
ROOT
ATOM      1  C   HIS D 487      22.418  51.502  40.326  1.00 20.76 LIG 0.25  C 
ATOM      2 O    HIS D 487      22.878  52.641  40.380  1.00 23.11 LIG-0.27  OA
ATOM      3  N   ALA D 488      23.022  50.450  40.869  1.00 15.78 LIG-0.35  N 
ATOM      4 H    ALA D 488      22.693  49.656  40.871  1.00 15.78 LIG 0.16  HD
ENDROOT
BRANCH 3 5
ATOM      5  CA  ALA D 488      24.320  50.567  41.518  1.00 17.18 LIG 0.17  C 
ATOM      6  CB  ALA D 488      24.147  50.979  42.969  1.00 18.90 LIG 0.04  C 
BRANCH 5 7
ATOM      7  C   ALA D 488      25.083  49.255  41.439  1.00 23.02 LIG 0.24  C 
ATOM      8 O    ALA D 488      26.232  49.166  41.883  1.00 24.91 LIG-0.27  OA
ATOM      9  N   GLY D 489      24.461  48.261  40.815  1.00 25.69 LIG-0.35  N 
ATOM     10 H    GLY D 489      23.687  48.330  40.447  1.00 25.69 LIG 0.16  HD
BRANCH 9 11
ATOM     11  CA  GLY D 489      25.069  46.947  40.710  1.00 31.31 LIG 0.23  C 
BRANCH 11 12
ATOM     12  C   GLY D 489      25.003  46.187  42.020  1.00 31.81 LIG 0.24  C 
ATOM     13 O    GLY D 489      24.062  45.425  42.244  1.00 37.54 LIG-0.27  OA
ATOM     14  N   PRO D 490      26.041  46.283  42.864  1.00 32.04 LIG-0.34  N 
ATOM     15  CD  PRO D 490      27.453  46.510  42.514  1.00 30.24 LIG 0.13  C 
ATOM     16  CA  PRO D 490      25.884  45.909  44.273  1.00 28.96 LIG 0.17  C 
ATOM     17  CG  PRO D 490      28.126  46.569  43.858  1.00 27.78 LIG 0.02  C 
ATOM     18  CB  PRO D 490      27.322  45.690  44.740  1.00 26.97 LIG 0.04  C 
BRANCH 16 19
ATOM     19  C   PRO D 490      25.170  46.981  45.095  1.00 23.69 LIG 0.22  C 
ATOM     20 O    PRO D 490      25.034  48.123  44.667  1.00 20.56 LIG-0.29  OA
ENDBRANCH 16 19
ENDBRANCH 11 12
ENDBRANCH 9 11
ENDBRANCH 5 7
ENDBRANCH 3 5
BRANCH 1 21
ATOM     21  CA  HIS D 487      21.067  51.246  39.670  1.00 19.79 LIG 0.28  C 
BRANCH 21 22
ATOM     22  CB  HIS D 487      20.331  52.568  39.501  1.00 13.21 LIG 0.10  C 
BRANCH 22 23
ATOM     23  CG  HIS D 487      20.191  53.345  40.770  1.00  6.04 LIG 0.03  A 
ATOM     24  CD2 HIS D 487      19.332  53.210  41.806  1.00  9.79 LIG 0.14  A 
ATOM     25 NE2  HIS D 487      19.651  54.180  42.725  1.00 21.50 LIG-0.25  NA
ATOM     26  CE1 HIS D 487      20.670  54.885  42.270  1.00 16.19 LIG 0.21  A 
ATOM     27  ND1 HIS D 487      21.018  54.399  41.092  1.00 14.18 LIG-0.35  N 
ATOM     28 HD1  HIS D 487      21.660  54.695  40.602  1.00 14.18 LIG 0.17  HD
ENDBRANCH 22 23
ENDBRANCH 21 22
BRANCH 21 29
ATOM     29  N   HIS D 487      20.273  50.326  40.475  1.00 20.90 LIG-0.07  N 
ATOM     30 H1   HIS D 487      20.792  49.668  40.773  1.00 20.90 LIG 0.28  HD
ATOM     31 H3   HIS D 487      19.618  49.986  39.978  1.00 20.90 LIG 0.28  HD
ATOM     32 H2   HIS D 487      19.923  50.764  41.168  1.00 20.90 LIG 0.28  HD
ENDBRANCH 21 29
ENDBRANCH 1 21
TORSDOF 9
ENDMDL
MODEL 25
USER: ADFR SOLUTION from run 48
USER: SCORE 9.016285 LL:  -1.455 LR:  -8.941 RR:   0.000 FEB:  -6.257
USER: RMSD 7.182073
USER: SEED 47
USER: STATUS no improvement in best 4 clusters for 5 generations
USER: GENES 11
USER: genes 0 Translation |==|  0.35859 0.57249 0.41538
USER: genes 1 Rotation |==|  0.81320 0.78904 0.60551 0.73923
USER: genes 2 Torsion [C]-N--CA-[CB] |==|  0.23543
USER: genes 3 Torsion [N]-CA--C-[N] |==|  0.83467
USER: genes 4 Torsion [C]-N--CA-[C] |==|  0.13359
USER: genes 5 Torsion [N]-CA--C-[N] |==|  0.61167
USER: genes 6 Torsion [N]-CA--C-[O] |==|  0.56143
USER: genes 7 Torsion [N]-C--CA-[N] |==|  0.06705
USER: genes 8 Torsion [C]-CA--CB-[CG] |==|  0.88463
USER: genes 9 Torsion [CA]-CB--CG-[CD2] |==|  0.75513
USER: genes 10 Torsion [C]-CA--N-[H3] |==|  0.24134
ROOT
ATOM      1  C   HIS D 487      22.428  51.725  40.561  1.00 20.76 LIG 0.25  C 
ATOM      2 O    HIS D 487      22.878  52.863  40.457  1.00 23.11 LIG-0.27  OA
ATOM      3  N   ALA D 488      22.937  50.816  41.386  1.00 15.78 LIG-0.35  N 
ATOM      4 H    ALA D 488      22.609  50.029  41.496  1.00 15.78 LIG 0.16  HD
ENDROOT
BRANCH 3 5
ATOM      5  CA  ALA D 488      24.122  51.091  42.186  1.00 17.18 LIG 0.17  C 
ATOM      6  CB  ALA D 488      23.735  51.800  43.472  1.00 18.90 LIG 0.04  C 
BRANCH 5 7
ATOM      7  C   ALA D 488      24.868  49.807  42.506  1.00 23.02 LIG 0.24  C 
ATOM      8 O    ALA D 488      26.020  49.628  42.100  1.00 24.91 LIG-0.27  OA
ATOM      9  N   GLY D 489      24.181  48.892  43.181  1.00 25.69 LIG-0.35  N 
ATOM     10 H    GLY D 489      23.358  48.980  43.414  1.00 25.69 LIG 0.16  HD
BRANCH 9 11
ATOM     11  CA  GLY D 489      24.795  47.640  43.581  1.00 31.31 LIG 0.23  C 
BRANCH 11 12
ATOM     12  C   GLY D 489      26.145  47.857  44.239  1.00 31.81 LIG 0.24  C 
ATOM     13 O    GLY D 489      26.280  48.732  45.094  1.00 37.54 LIG-0.27  OA
ATOM     14  N   PRO D 490      27.139  47.006  43.945  1.00 32.04 LIG-0.34  N 
ATOM     15  CD  PRO D 490      27.013  45.588  43.570  1.00 30.24 LIG 0.13  C 
ATOM     16  CA  PRO D 490      28.531  47.372  44.225  1.00 28.96 LIG 0.17  C 
ATOM     17  CG  PRO D 490      28.440  45.179  43.320  1.00 27.78 LIG 0.02  C 
ATOM     18  CB  PRO D 490      29.255  46.027  44.222  1.00 26.97 LIG 0.04  C 
BRANCH 16 19
ATOM     19  C   PRO D 490      29.108  48.338  43.191  1.00 23.69 LIG 0.22  C 
ATOM     20 O    PRO D 490      30.319  48.438  43.023  1.00 20.56 LIG-0.29  OA
ENDBRANCH 16 19
ENDBRANCH 11 12
ENDBRANCH 9 11
ENDBRANCH 5 7
ENDBRANCH 3 5
BRANCH 1 21
ATOM     21  CA  HIS D 487      21.190  51.310  39.774  1.00 19.79 LIG 0.28  C 
BRANCH 21 22
ATOM     22  CB  HIS D 487      20.280  52.517  39.594  1.00 13.21 LIG 0.10  C 
BRANCH 22 23
ATOM     23  CG  HIS D 487      20.162  53.368  40.816  1.00  6.04 LIG 0.03  A 
ATOM     24  CD2 HIS D 487      19.316  53.301  41.869  1.00  9.79 LIG 0.14  A 
ATOM     25 NE2  HIS D 487      19.653  54.322  42.725  1.00 21.50 LIG-0.25  NA
ATOM     26  CE1 HIS D 487      20.670  54.991  42.216  1.00 16.19 LIG 0.21  A 
ATOM     27  ND1 HIS D 487      20.999  54.434  41.064  1.00 14.18 LIG-0.35  N 
ATOM     28 HD1  HIS D 487      21.636  54.696  40.549  1.00 14.18 LIG 0.17  HD
ENDBRANCH 22 23
ENDBRANCH 21 22
BRANCH 21 29
ATOM     29  N   HIS D 487      20.480  50.240  40.463  1.00 20.90 LIG-0.07  N 
ATOM     30 H1   HIS D 487      20.029  49.752  39.871  1.00 20.90 LIG 0.28  HD
ATOM     31 H3   HIS D 487      19.912  50.592  41.051  1.00 20.90 LIG 0.28  HD
ATOM     32 H2   HIS D 487      21.065  49.722  40.890  1.00 20.90 LIG 0.28  HD
ENDBRANCH 21 29
ENDBRANCH 1 21
TORSDOF 9
ENDMDL
MODEL 26
USER: ADFR SOLUTION from run 108
USER: SCORE 9.658762 LL:  -1.370 LR:  -8.943 RR:   0.000 FEB:  -6.258
USER: RMSD 8.532865
USER: SEED 107
USER: STATUS no improvement in best 27 clusters for 5 generations
USER: GENES 11
USER: genes 0 Translation |==|  0.53079 0.55967 0.50821
USER: genes 1 Rotation |==|  0.67625 0.36614 0.89108 0.71927
USER: genes 2 Torsion [C]-N--CA-[CB] |==|  0.80538
USER: genes 3 Torsion [N]-CA--C-[N] |==|  0.06070
USER: genes 4 Torsion [C]-N--CA-[C] |==|  0.75007
USER: genes 5 Torsion [N]-CA--C-[N] |==|  0.51000
USER: genes 6 Torsion [N]-CA--C-[O] |==|  0.98430
USER: genes 7 Torsion [N]-C--CA-[N] |==|  0.18260
USER: genes 8 Torsion [C]-CA--CB-[CG] |==|  0.15834
USER: genes 9 Torsion [CA]-CB--CG-[CD2] |==|  0.20530
USER: genes 10 Torsion [C]-CA--N-[H3] |==|  0.97577
ROOT
ATOM      1  C   HIS D 487      27.594  51.340  43.346  1.00 20.76 LIG 0.25  C 
ATOM      2 O    HIS D 487      26.905  51.788  44.260  1.00 23.11 LIG-0.27  OA
ATOM      3  N   ALA D 488      27.319  50.198  42.725  1.00 15.78 LIG-0.35  N 
ATOM      4 H    ALA D 488      27.771  49.893  42.060  1.00 15.78 LIG 0.16  HD
ENDROOT
BRANCH 3 5
ATOM      5  CA  ALA D 488      26.205  49.356  43.132  1.00 17.18 LIG 0.17  C 
ATOM      6  CB  ALA D 488      26.495  48.715  44.477  1.00 18.90 LIG 0.04  C 
BRANCH 5 7
ATOM      7  C   ALA D 488      24.919  50.162  43.209  1.00 23.02 LIG 0.24  C 
ATOM      8 O    ALA D 488      23.949  49.744  43.850  1.00 24.91 LIG-0.27  OA
ATOM      9  N   GLY D 489      24.897  51.285  42.501  1.00 25.69 LIG-0.35  N 
ATOM     10 H    GLY D 489      25.542  51.554  42.001  1.00 25.69 LIG 0.16  HD
BRANCH 9 11
ATOM     11  CA  GLY D 489      23.741  52.162  42.524  1.00 31.31 LIG 0.23  C 
BRANCH 11 12
ATOM     12  C   GLY D 489      22.738  51.804  41.443  1.00 31.81 LIG 0.24  C 
ATOM     13 O    GLY D 489      22.878  50.770  40.791  1.00 37.54 LIG-0.27  OA
ATOM     14  N   PRO D 490      21.654  52.580  41.300  1.00 32.04 LIG-0.34  N 
ATOM     15  CD  PRO D 490      20.968  53.352  42.350  1.00 30.24 LIG 0.13  C 
ATOM     16  CA  PRO D 490      20.869  52.531  40.062  1.00 28.96 LIG 0.17  C 
ATOM     17  CG  PRO D 490      19.868  54.045  41.593  1.00 27.78 LIG 0.02  C 
ATOM     18  CB  PRO D 490      19.527  53.136  40.474  1.00 26.97 LIG 0.04  C 
BRANCH 16 19
ATOM     19  C   PRO D 490      21.520  53.304  38.917  1.00 23.69 LIG 0.22  C 
ATOM     20 O    PRO D 490      22.534  53.971  39.097  1.00 20.56 LIG-0.29  OA
ENDBRANCH 16 19
ENDBRANCH 11 12
ENDBRANCH 9 11
ENDBRANCH 5 7
ENDBRANCH 3 5
BRANCH 1 21
ATOM     21  CA  HIS D 487      28.793  52.125  42.828  1.00 19.79 LIG 0.28  C 
BRANCH 21 22
ATOM     22  CB  HIS D 487      29.067  53.298  43.760  1.00 13.21 LIG 0.10  C 
BRANCH 22 23
ATOM     23  CG  HIS D 487      29.302  52.896  45.179  1.00  6.04 LIG 0.03  A 
ATOM     24  CD2 HIS D 487      30.365  52.306  45.773  1.00  9.79 LIG 0.14  A 
ATOM     25 NE2  HIS D 487      30.063  52.175  47.106  1.00 21.50 LIG-0.25  NA
ATOM     26  CE1 HIS D 487      28.858  52.668  47.324  1.00 16.19 LIG 0.21  A 
ATOM     27  ND1 HIS D 487      28.378  53.113  46.177  1.00 14.18 LIG-0.35  N 
ATOM     28 HD1  HIS D 487      27.608  53.480  46.070  1.00 14.18 LIG 0.17  HD
ENDBRANCH 22 23
ENDBRANCH 21 22
BRANCH 21 29
ATOM     29  N   HIS D 487      28.545  52.604  41.474  1.00 20.90 LIG-0.07  N 
ATOM     30 H1   HIS D 487      28.464  53.490  41.482  1.00 20.90 LIG 0.28  HD
ATOM     31 H3   HIS D 487      27.794  52.240  41.163  1.00 20.90 LIG 0.28  HD
ATOM     32 H2   HIS D 487      29.226  52.374  40.948  1.00 20.90 LIG 0.28  HD
ENDBRANCH 21 29
ENDBRANCH 1 21
TORSDOF 9
ENDMDL
