MODEL 1
USER: ADFR SOLUTION from run 125
USER: SCORE 21.931610 LL:  -1.192 LR: -20.776 RR:   0.000 FEB: -15.407
USER: RMSD 1.069733
USER: SEED 124
USER: STATUS 1 or 2 clusters left
USER: GENES 20
USER: genes 0 Translation |==|  0.53220 0.55997 0.56993
USER: genes 1 Rotation |==|  0.52093 0.50703 0.52341 0.99896
USER: genes 2 Torsion [N]-CA--C-[N] |==|  0.40920
USER: genes 3 Torsion [C]-N--CA-[CB] |==|  0.29315
USER: genes 4 Torsion [N]-CA--CB-[CG] |==|  0.64573
USER: genes 5 Torsion [CA]-CB--CG-[CD] |==|  0.74071
USER: genes 6 Torsion [CB]-CG--CD-[CE] |==|  0.57171
USER: genes 7 Torsion [CG]-CD--CE-[NZ] |==|  0.87842
USER: genes 8 Torsion [CD]-CE--NZ-[HZ2] |==|  0.22597
USER: genes 9 Torsion [N]-CA--C-[OXT] |==|  0.63151
USER: genes 10 Torsion [C]-CA--CB-[SG] |==|  0.23353
USER: genes 11 Torsion [CA]-CB--SG-[HG] |==|  0.98723
USER: genes 12 Torsion [C]-CA--N-[C] |==|  0.78333
USER: genes 13 Torsion [N]-C--CA-[N] |==|  0.46332
USER: genes 14 Torsion [C]-CA--N-[H2] |==|  0.61101
USER: genes 15 Torsion [C]-CA--CB-[CG] |==|  0.62871
USER: genes 16 Torsion [CA]-CB--CG-[CD] |==|  0.27495
USER: genes 17 Torsion [CB]-CG--CD-[CE] |==|  0.51760
USER: genes 18 Torsion [CG]-CD--CE-[NZ] |==|  0.20314
USER: genes 19 Torsion [CD]-CE--NZ-[HZ3] |==|  0.70325
ROOT
ATOM      1  CA  CYS B   2       3.716  20.189  16.138  1.00 13.05 LIG 0.18  C 
ENDROOT
BRANCH 1 2
ATOM      2  C   CYS B   2       2.394  20.011  15.411  1.00 11.99 LIG 0.24  C 
ATOM      3  N   LYS B   3       1.327  19.780  16.182  1.00 12.79 LIG-0.34  N 
ATOM      4 H    LYS B   3       1.349  19.710  17.039  1.00 12.79 LIG 0.16  HD
ATOM      5 O    CYS B   2       2.329  20.216  14.194  1.00 13.18 LIG-0.27  OA
BRANCH 3 6
ATOM      6  CA  LYS B   3       0.016  19.627  15.588  1.00 17.07 LIG 0.18  C 
BRANCH 6 7
ATOM      7  CB  LYS B   3      -0.597  18.231  15.502  1.00 17.68 LIG 0.04  C 
BRANCH 7 8
ATOM      8  CG  LYS B   3      -1.015  18.014  14.028  1.00 18.86 LIG 0.00  C 
BRANCH 8 9
ATOM      9  CD  LYS B   3      -2.443  18.384  13.755  1.00 20.79 LIG 0.03  C 
BRANCH 9 10
ATOM     10  CE  LYS B   3      -3.078  17.649  12.567  1.00 22.05 LIG 0.23  C 
BRANCH 10 11
ATOM     11  NZ  LYS B   3      -2.125  17.614  11.426  1.00 26.11 LIG-0.08  N 
ATOM     12 HZ2  LYS B   3      -1.541  16.953  11.546  1.00 26.11 LIG 0.27  HD
ATOM     13 HZ1  LYS B   3      -1.690  18.390  11.379  1.00 26.11 LIG 0.27  HD
ATOM     14 HZ3  LYS B   3      -2.573  17.480  10.669  1.00 26.11 LIG 0.27  HD
ENDBRANCH 10 11
ENDBRANCH 9 10
ENDBRANCH 8 9
ENDBRANCH 7 8
ENDBRANCH 6 7
BRANCH 6 15
ATOM     15  C   LYS B   3      -1.015  20.527  16.312  1.00 17.69 LIG 0.20  C 
ATOM     16 OXT  LYS B   3      -2.093  20.104  16.665  1.00 15.19 LIG-0.65  OA
ATOM     17 O    LYS B   3      -0.627  21.649  16.667  1.00 19.25 LIG-0.65  OA
ENDBRANCH 6 15
ENDBRANCH 3 6
ENDBRANCH 1 2
BRANCH 1 18
ATOM     18  CB  CYS B   2       3.848  21.676  16.510  1.00 11.90 LIG 0.10  C 
BRANCH 18 19
ATOM     19 SG   CYS B   2       2.944  22.010  18.111  1.00 13.34 LIG-0.18  SA
ATOM     20 HG   CYS B   2       2.376  21.014  18.466  1.00 13.34 LIG 0.10  HD
ENDBRANCH 18 19
ENDBRANCH 1 18
BRANCH 1 21
ATOM     21  N   CYS B   2       4.871  19.705  15.398  1.00 10.67 LIG-0.34  N 
ATOM     22 H    CYS B   2       5.320  20.337  15.027  1.00 10.67 LIG 0.16  HD
ATOM     23  C   LYS B   1       5.214  18.454  15.292  1.00  9.81 LIG 0.25  C 
ATOM     24 O    LYS B   1       4.624  17.560  15.898  1.00 12.59 LIG-0.27  OA
BRANCH 23 25
ATOM     25  CA  LYS B   1       6.487  18.107  14.526  1.00 10.58 LIG 0.27  C 
BRANCH 25 26
ATOM     26  N   LYS B   1       6.874  16.672  14.790  1.00  8.28 LIG-0.07  N 
ATOM     27 H1   LYS B   1       6.611  16.162  14.109  1.00  8.28 LIG 0.28  HD
ATOM     28 H3   LYS B   1       6.482  16.391  15.539  1.00  8.28 LIG 0.28  HD
ATOM     29 H2   LYS B   1       7.758  16.614  14.879  1.00  8.28 LIG 0.28  HD
ENDBRANCH 25 26
BRANCH 25 30
ATOM     30  CB  LYS B   1       6.247  18.365  13.029  1.00 12.65 LIG 0.04  C 
BRANCH 30 31
ATOM     31  CG  LYS B   1       6.703  17.265  12.064  1.00 13.69 LIG 0.00  C 
BRANCH 31 32
ATOM     32  CD  LYS B   1       5.513  16.367  11.637  1.00 12.46 LIG 0.03  C 
BRANCH 32 33
ATOM     33  CE  LYS B   1       6.042  15.172  10.790  1.00 14.43 LIG 0.23  C 
BRANCH 33 34
ATOM     34  NZ  LYS B   1       6.722  14.265  11.788  1.00 15.78 LIG-0.08  N 
ATOM     35 HZ1  LYS B   1       6.500  14.514  12.613  1.00 15.78 LIG 0.27  HD
ATOM     36 HZ3  LYS B   1       7.604  14.322  11.689  1.00 15.78 LIG 0.27  HD
ATOM     37 HZ2  LYS B   1       6.461  13.425  11.652  1.00 15.78 LIG 0.27  HD
ENDBRANCH 33 34
ENDBRANCH 32 33
ENDBRANCH 31 32
ENDBRANCH 30 31
ENDBRANCH 25 30
ENDBRANCH 23 25
ENDBRANCH 1 21
TORSDOF 18
ENDMDL
MODEL 2
USER: ADFR SOLUTION from run 65
USER: SCORE 19.831727 LL:  -0.871 LR: -19.960 RR:   0.000 FEB: -14.591
USER: RMSD 5.982447
USER: SEED 64
USER: STATUS no improvement in best 3 clusters for 5 generations
USER: GENES 20
USER: genes 0 Translation |==|  0.52447 0.55686 0.52573
USER: genes 1 Rotation |==|  0.89141 0.26097 0.30230 0.52393
USER: genes 2 Torsion [N]-CA--C-[N] |==|  0.78400
USER: genes 3 Torsion [C]-N--CA-[CB] |==|  0.88278
USER: genes 4 Torsion [N]-CA--CB-[CG] |==|  0.65203
USER: genes 5 Torsion [CA]-CB--CG-[CD] |==|  0.57645
USER: genes 6 Torsion [CB]-CG--CD-[CE] |==|  0.64546
USER: genes 7 Torsion [CG]-CD--CE-[NZ] |==|  0.14567
USER: genes 8 Torsion [CD]-CE--NZ-[HZ2] |==|  0.72366
USER: genes 9 Torsion [N]-CA--C-[OXT] |==|  0.31864
USER: genes 10 Torsion [C]-CA--CB-[SG] |==|  0.12329
USER: genes 11 Torsion [CA]-CB--SG-[HG] |==|  0.77835
USER: genes 12 Torsion [C]-CA--N-[C] |==|  0.22778
USER: genes 13 Torsion [N]-C--CA-[N] |==|  0.45646
USER: genes 14 Torsion [C]-CA--N-[H2] |==|  0.34658
USER: genes 15 Torsion [C]-CA--CB-[CG] |==|  0.34266
USER: genes 16 Torsion [CA]-CB--CG-[CD] |==|  0.39139
USER: genes 17 Torsion [CB]-CG--CD-[CE] |==|  0.06676
USER: genes 18 Torsion [CG]-CD--CE-[NZ] |==|  0.72968
USER: genes 19 Torsion [CD]-CE--NZ-[HZ3] |==|  0.92573
ROOT
ATOM      1  CA  CYS B   2       3.484  20.096  14.812  1.00 13.05 LIG 0.18  C 
ENDROOT
BRANCH 1 2
ATOM      2  C   CYS B   2       3.764  20.964  16.027  1.00 11.99 LIG 0.24  C 
ATOM      3  N   LYS B   3       3.843  20.326  17.198  1.00 12.79 LIG-0.34  N 
ATOM      4 H    LYS B   3       3.731  19.479  17.302  1.00 12.79 LIG 0.16  HD
ATOM      5 O    CYS B   2       4.034  22.161  15.878  1.00 13.18 LIG-0.27  OA
BRANCH 3 6
ATOM      6  CA  LYS B   3       4.137  21.059  18.411  1.00 17.07 LIG 0.18  C 
BRANCH 6 7
ATOM      7  CB  LYS B   3       5.213  22.141  18.376  1.00 17.68 LIG 0.04  C 
BRANCH 7 8
ATOM      8  CG  LYS B   3       6.232  21.798  19.490  1.00 18.86 LIG 0.00  C 
BRANCH 8 9
ATOM      9  CD  LYS B   3       6.943  23.001  20.035  1.00 20.79 LIG 0.03  C 
BRANCH 9 10
ATOM     10  CE  LYS B   3       8.473  22.891  20.040  1.00 22.05 LIG 0.23  C 
BRANCH 10 11
ATOM     11  NZ  LYS B   3       8.957  22.515  18.685  1.00 26.11 LIG-0.08  N 
ATOM     12 HZ2  LYS B   3       9.126  21.641  18.662  1.00 26.11 LIG 0.27  HD
ATOM     13 HZ1  LYS B   3       9.702  22.966  18.500  1.00 26.11 LIG 0.27  HD
ATOM     14 HZ3  LYS B   3       8.334  22.713  18.082  1.00 26.11 LIG 0.27  HD
ENDBRANCH 10 11
ENDBRANCH 9 10
ENDBRANCH 8 9
ENDBRANCH 7 8
ENDBRANCH 6 7
BRANCH 6 15
ATOM     15  C   LYS B   3       2.852  21.720  18.968  1.00 17.69 LIG 0.20  C 
ATOM     16 OXT  LYS B   3       2.375  21.390  20.030  1.00 15.19 LIG-0.65  OA
ATOM     17 O    LYS B   3       2.428  22.717  18.365  1.00 19.25 LIG-0.65  OA
ENDBRANCH 6 15
ENDBRANCH 3 6
ENDBRANCH 1 2
BRANCH 1 18
ATOM     18  CB  CYS B   2       2.314  19.161  15.166  1.00 11.90 LIG 0.10  C 
BRANCH 18 19
ATOM     19 SG   CYS B   2       0.975  20.127  16.041  1.00 13.34 LIG-0.18  SA
ATOM     20 HG   CYS B   2       1.275  20.274  17.193  1.00 13.34 LIG 0.10  HD
ENDBRANCH 18 19
ENDBRANCH 1 18
BRANCH 1 21
ATOM     21  N   CYS B   2       4.643  19.363  14.325  1.00 10.67 LIG-0.34  N 
ATOM     22 H    CYS B   2       5.029  19.751  13.662  1.00 10.67 LIG 0.16  HD
ATOM     23  C   LYS B   1       5.072  18.240  14.819  1.00  9.81 LIG 0.25  C 
ATOM     24 O    LYS B   1       4.574  17.734  15.825  1.00 12.59 LIG-0.27  OA
BRANCH 23 25
ATOM     25  CA  LYS B   1       6.338  17.618  14.234  1.00 10.58 LIG 0.27  C 
BRANCH 25 26
ATOM     26  N   LYS B   1       6.874  16.560  15.168  1.00  8.28 LIG-0.07  N 
ATOM     27 H1   LYS B   1       6.311  16.452  15.849  1.00  8.28 LIG 0.28  HD
ATOM     28 H3   LYS B   1       7.669  16.813  15.478  1.00  8.28 LIG 0.28  HD
ATOM     29 H2   LYS B   1       6.958  15.791  14.729  1.00  8.28 LIG 0.28  HD
ENDBRANCH 25 26
BRANCH 25 30
ATOM     30  CB  LYS B   1       6.006  17.040  12.849  1.00 12.65 LIG 0.04  C 
BRANCH 30 31
ATOM     31  CG  LYS B   1       6.844  17.559  11.674  1.00 13.69 LIG 0.00  C 
BRANCH 31 32
ATOM     32  CD  LYS B   1       7.178  16.417  10.679  1.00 12.46 LIG 0.03  C 
BRANCH 32 33
ATOM     33  CE  LYS B   1       6.116  15.286  10.810  1.00 14.43 LIG 0.23  C 
BRANCH 33 34
ATOM     34  NZ  LYS B   1       6.753  14.265  11.722  1.00 15.78 LIG-0.08  N 
ATOM     35 HZ1  LYS B   1       6.509  14.425  12.562  1.00 15.78 LIG 0.27  HD
ATOM     36 HZ3  LYS B   1       7.639  14.319  11.655  1.00 15.78 LIG 0.27  HD
ATOM     37 HZ2  LYS B   1       6.488  13.449  11.485  1.00 15.78 LIG 0.27  HD
ENDBRANCH 33 34
ENDBRANCH 32 33
ENDBRANCH 31 32
ENDBRANCH 30 31
ENDBRANCH 25 30
ENDBRANCH 23 25
ENDBRANCH 1 21
TORSDOF 18
ENDMDL
MODEL 3
USER: ADFR SOLUTION from run 55
USER: SCORE 20.973897 LL:  -1.574 LR: -19.458 RR:   0.000 FEB: -14.088
USER: RMSD 2.019589
USER: SEED 54
USER: STATUS no improvement in best 62 clusters for 5 generations
USER: GENES 20
USER: genes 0 Translation |==|  0.53475 0.55764 0.56499
USER: genes 1 Rotation |==|  0.53076 0.50575 0.50252 0.99901
USER: genes 2 Torsion [N]-CA--C-[N] |==|  0.39445
USER: genes 3 Torsion [C]-N--CA-[CB] |==|  0.27290
USER: genes 4 Torsion [N]-CA--CB-[CG] |==|  0.58602
USER: genes 5 Torsion [CA]-CB--CG-[CD] |==|  0.62596
USER: genes 6 Torsion [CB]-CG--CD-[CE] |==|  0.57892
USER: genes 7 Torsion [CG]-CD--CE-[NZ] |==|  0.05788
USER: genes 8 Torsion [CD]-CE--NZ-[HZ2] |==|  0.16955
USER: genes 9 Torsion [N]-CA--C-[OXT] |==|  0.65064
USER: genes 10 Torsion [C]-CA--CB-[SG] |==|  0.24686
USER: genes 11 Torsion [CA]-CB--SG-[HG] |==|  0.95241
USER: genes 12 Torsion [C]-CA--N-[C] |==|  0.77335
USER: genes 13 Torsion [N]-C--CA-[N] |==|  0.43572
USER: genes 14 Torsion [C]-CA--N-[H2] |==|  0.98353
USER: genes 15 Torsion [C]-CA--CB-[CG] |==|  0.43695
USER: genes 16 Torsion [CA]-CB--CG-[CD] |==|  0.83205
USER: genes 17 Torsion [CB]-CG--CD-[CE] |==|  0.56714
USER: genes 18 Torsion [CG]-CD--CE-[NZ] |==|  0.30869
USER: genes 19 Torsion [CD]-CE--NZ-[HZ3] |==|  0.93588
ROOT
ATOM      1  CA  CYS B   2       3.793  20.119  15.990  1.00 13.05 LIG 0.18  C 
ENDROOT
BRANCH 1 2
ATOM      2  C   CYS B   2       2.461  20.081  15.259  1.00 11.99 LIG 0.24  C 
ATOM      3  N   LYS B   3       1.390  19.802  16.007  1.00 12.79 LIG-0.34  N 
ATOM      4 H    LYS B   3       1.413  19.629  16.849  1.00 12.79 LIG 0.16  HD
ATOM      5 O    CYS B   2       2.399  20.432  14.076  1.00 13.18 LIG-0.27  OA
BRANCH 3 6
ATOM      6  CA  LYS B   3       0.071  19.772  15.411  1.00 17.07 LIG 0.18  C 
BRANCH 6 7
ATOM      7  CB  LYS B   3      -0.528  18.426  15.010  1.00 17.68 LIG 0.04  C 
BRANCH 7 8
ATOM      8  CG  LYS B   3      -1.439  18.685  13.786  1.00 18.86 LIG 0.00  C 
BRANCH 8 9
ATOM      9  CD  LYS B   3      -2.771  18.002  13.883  1.00 20.79 LIG 0.03  C 
BRANCH 9 10
ATOM     10  CE  LYS B   3      -3.403  17.641  12.532  1.00 22.05 LIG 0.23  C 
BRANCH 10 11
ATOM     11  NZ  LYS B   3      -2.353  17.593  11.480  1.00 26.11 LIG-0.08  N 
ATOM     12 HZ2  LYS B   3      -1.754  16.968  11.686  1.00 26.11 LIG 0.27  HD
ATOM     13 HZ1  LYS B   3      -1.950  18.385  11.427  1.00 26.11 LIG 0.27  HD
ATOM     14 HZ3  LYS B   3      -2.727  17.398  10.696  1.00 26.11 LIG 0.27  HD
ENDBRANCH 10 11
ENDBRANCH 9 10
ENDBRANCH 8 9
ENDBRANCH 7 8
ENDBRANCH 6 7
BRANCH 6 15
ATOM     15  C   LYS B   3      -0.958  20.463  16.338  1.00 17.69 LIG 0.20  C 
ATOM     16 OXT  LYS B   3      -1.970  19.904  16.696  1.00 15.19 LIG-0.65  OA
ATOM     17 O    LYS B   3      -0.623  21.548  16.837  1.00 19.25 LIG-0.65  OA
ENDBRANCH 6 15
ENDBRANCH 3 6
ENDBRANCH 1 2
BRANCH 1 18
ATOM     18  CB  CYS B   2       4.048  21.575  16.419  1.00 11.90 LIG 0.10  C 
BRANCH 18 19
ATOM     19 SG   CYS B   2       3.297  21.880  18.102  1.00 13.34 LIG-0.18  SA
ATOM     20 HG   CYS B   2       2.503  21.015  18.349  1.00 13.34 LIG 0.10  HD
ENDBRANCH 18 19
ENDBRANCH 1 18
BRANCH 1 21
ATOM     21  N   CYS B   2       4.904  19.568  15.230  1.00 10.67 LIG-0.34  N 
ATOM     22 H    CYS B   2       5.376  20.172  14.842  1.00 10.67 LIG 0.16  HD
ATOM     23  C   LYS B   1       5.179  18.301  15.130  1.00  9.81 LIG 0.25  C 
ATOM     24 O    LYS B   1       4.557  17.444  15.759  1.00 12.59 LIG-0.27  OA
BRANCH 23 25
ATOM     25  CA  LYS B   1       6.414  17.879  14.340  1.00 10.58 LIG 0.27  C 
BRANCH 25 26
ATOM     26  N   LYS B   1       6.877  16.515  14.791  1.00  8.28 LIG-0.07  N 
ATOM     27 H1   LYS B   1       7.735  16.554  15.023  1.00  8.28 LIG 0.28  HD
ATOM     28 H3   LYS B   1       6.776  15.932  14.126  1.00  8.28 LIG 0.28  HD
ATOM     29 H2   LYS B   1       6.393  16.253  15.490  1.00  8.28 LIG 0.28  HD
ENDBRANCH 25 26
BRANCH 25 30
ATOM     30  CB  LYS B   1       6.070  17.897  12.841  1.00 12.65 LIG 0.04  C 
BRANCH 30 31
ATOM     31  CG  LYS B   1       7.248  18.037  11.871  1.00 13.69 LIG 0.00  C 
BRANCH 31 32
ATOM     32  CD  LYS B   1       8.015  19.364  12.110  1.00 12.46 LIG 0.03  C 
BRANCH 32 33
ATOM     33  CE  LYS B   1       8.761  19.775  10.807  1.00 14.43 LIG 0.23  C 
BRANCH 33 34
ATOM     34  NZ  LYS B   1       8.038  21.009  10.323  1.00 15.78 LIG-0.08  N 
ATOM     35 HZ1  LYS B   1       8.475  21.735  10.595  1.00 15.78 LIG 0.27  HD
ATOM     36 HZ3  LYS B   1       7.213  21.018  10.654  1.00 15.78 LIG 0.27  HD
ATOM     37 HZ2  LYS B   1       8.000  21.002   9.433  1.00 15.78 LIG 0.27  HD
ENDBRANCH 33 34
ENDBRANCH 32 33
ENDBRANCH 31 32
ENDBRANCH 30 31
ENDBRANCH 25 30
ENDBRANCH 23 25
ENDBRANCH 1 21
TORSDOF 18
ENDMDL
MODEL 4
USER: ADFR SOLUTION from run 16
USER: SCORE 19.954648 LL:  -1.068 LR: -19.011 RR:   0.000 FEB: -13.641
USER: RMSD 2.467527
USER: SEED 760314
USER: STATUS no improvement in best 51 clusters for 5 generations
USER: GENES 20
USER: genes 0 Translation |==|  0.53128 0.55980 0.56854
USER: genes 1 Rotation |==|  0.59214 0.50770 0.45070 0.98890
USER: genes 2 Torsion [N]-CA--C-[N] |==|  0.42492
USER: genes 3 Torsion [C]-N--CA-[CB] |==|  0.09736
USER: genes 4 Torsion [N]-CA--CB-[CG] |==|  0.54629
USER: genes 5 Torsion [CA]-CB--CG-[CD] |==|  0.30149
USER: genes 6 Torsion [CB]-CG--CD-[CE] |==|  0.49928
USER: genes 7 Torsion [CG]-CD--CE-[NZ] |==|  0.46882
USER: genes 8 Torsion [CD]-CE--NZ-[HZ2] |==|  0.98971
USER: genes 9 Torsion [N]-CA--C-[OXT] |==|  0.95894
USER: genes 10 Torsion [C]-CA--CB-[SG] |==|  0.19562
USER: genes 11 Torsion [CA]-CB--SG-[HG] |==|  0.00651
USER: genes 12 Torsion [C]-CA--N-[C] |==|  0.69394
USER: genes 13 Torsion [N]-C--CA-[N] |==|  0.39384
USER: genes 14 Torsion [C]-CA--N-[H2] |==|  0.79259
USER: genes 15 Torsion [C]-CA--CB-[CG] |==|  0.39332
USER: genes 16 Torsion [CA]-CB--CG-[CD] |==|  0.27855
USER: genes 17 Torsion [CB]-CG--CD-[CE] |==|  0.15779
USER: genes 18 Torsion [CG]-CD--CE-[NZ] |==|  0.66417
USER: genes 19 Torsion [CD]-CE--NZ-[HZ3] |==|  0.54457
ROOT
ATOM      1  CA  CYS B   2       3.688  20.184  16.096  1.00 13.05 LIG 0.18  C 
ENDROOT
BRANCH 1 2
ATOM      2  C   CYS B   2       2.381  20.597  15.441  1.00 11.99 LIG 0.24  C 
ATOM      3  N   LYS B   3       1.301  20.582  16.228  1.00 12.79 LIG-0.34  N 
ATOM      4 H    LYS B   3       1.301  20.341  17.054  1.00 12.79 LIG 0.16  HD
ATOM      5 O    CYS B   2       2.385  21.048  14.291  1.00 13.18 LIG-0.27  OA
BRANCH 3 6
ATOM      6  CA  LYS B   3       0.013  20.988  15.708  1.00 17.07 LIG 0.18  C 
BRANCH 6 7
ATOM      7  CB  LYS B   3      -0.331  20.666  14.256  1.00 17.68 LIG 0.04  C 
BRANCH 7 8
ATOM      8  CG  LYS B   3      -1.531  21.562  13.868  1.00 18.86 LIG 0.00  C 
BRANCH 8 9
ATOM      9  CD  LYS B   3      -1.168  22.662  12.915  1.00 20.79 LIG 0.03  C 
BRANCH 9 10
ATOM     10  CE  LYS B   3      -2.338  23.566  12.506  1.00 22.05 LIG 0.23  C 
BRANCH 10 11
ATOM     11  NZ  LYS B   3      -1.825  24.765  11.791  1.00 26.11 LIG-0.08  N 
ATOM     12 HZ2  LYS B   3      -0.935  24.750  11.787  1.00 26.11 LIG 0.27  HD
ATOM     13 HZ1  LYS B   3      -2.108  25.501  12.204  1.00 26.11 LIG 0.27  HD
ATOM     14 HZ3  LYS B   3      -2.125  24.762  10.953  1.00 26.11 LIG 0.27  HD
ENDBRANCH 10 11
ENDBRANCH 9 10
ENDBRANCH 8 9
ENDBRANCH 7 8
ENDBRANCH 6 7
BRANCH 6 15
ATOM     15  C   LYS B   3      -1.129  20.412  16.579  1.00 17.69 LIG 0.20  C 
ATOM     16 OXT  LYS B   3      -0.935  19.523  17.378  1.00 15.19 LIG-0.65  OA
ATOM     17 O    LYS B   3      -2.214  21.011  16.549  1.00 19.25 LIG-0.65  OA
ENDBRANCH 6 15
ENDBRANCH 3 6
ENDBRANCH 1 2
BRANCH 1 18
ATOM     18  CB  CYS B   2       4.241  21.407  16.849  1.00 11.90 LIG 0.10  C 
BRANCH 18 19
ATOM     19 SG   CYS B   2       3.177  21.765  18.342  1.00 13.34 LIG-0.18  SA
ATOM     20 HG   CYS B   2       2.313  20.937  18.426  1.00 13.34 LIG 0.10  HD
ENDBRANCH 18 19
ENDBRANCH 1 18
BRANCH 1 21
ATOM     21  N   CYS B   2       4.663  19.621  15.174  1.00 10.67 LIG-0.34  N 
ATOM     22 H    CYS B   2       4.988  20.204  14.633  1.00 10.67 LIG 0.16  HD
ATOM     23  C   LYS B   1       5.024  18.371  15.148  1.00  9.81 LIG 0.25  C 
ATOM     24 O    LYS B   1       4.627  17.558  15.982  1.00 12.59 LIG-0.27  OA
BRANCH 23 25
ATOM     25  CA  LYS B   1       6.102  17.941  14.157  1.00 10.58 LIG 0.27  C 
BRANCH 25 26
ATOM     26  N   LYS B   1       7.008  16.914  14.791  1.00  8.28 LIG-0.07  N 
ATOM     27 H1   LYS B   1       7.493  16.515  14.160  1.00  8.28 LIG 0.28  HD
ATOM     28 H3   LYS B   1       6.516  16.306  15.216  1.00  8.28 LIG 0.28  HD
ATOM     29 H2   LYS B   1       7.551  17.315  15.371  1.00  8.28 LIG 0.28  HD
ENDBRANCH 25 26
BRANCH 25 30
ATOM     30  CB  LYS B   1       5.417  17.394  12.893  1.00 12.65 LIG 0.04  C 
BRANCH 30 31
ATOM     31  CG  LYS B   1       6.077  17.743  11.554  1.00 13.69 LIG 0.00  C 
BRANCH 31 32
ATOM     32  CD  LYS B   1       6.925  16.558  11.023  1.00 12.46 LIG 0.03  C 
BRANCH 32 33
ATOM     33  CE  LYS B   1       6.027  15.292  10.895  1.00 14.43 LIG 0.23  C 
BRANCH 33 34
ATOM     34  NZ  LYS B   1       6.680  14.266  11.790  1.00 15.78 LIG-0.08  N 
ATOM     35 HZ1  LYS B   1       7.561  14.280  11.663  1.00 15.78 LIG 0.27  HD
ATOM     36 HZ3  LYS B   1       6.365  13.458  11.593  1.00 15.78 LIG 0.27  HD
ATOM     37 HZ2  LYS B   1       6.500  14.456  12.641  1.00 15.78 LIG 0.27  HD
ENDBRANCH 33 34
ENDBRANCH 32 33
ENDBRANCH 31 32
ENDBRANCH 30 31
ENDBRANCH 25 30
ENDBRANCH 23 25
ENDBRANCH 1 21
TORSDOF 18
ENDMDL
MODEL 5
USER: ADFR SOLUTION from run 167
USER: SCORE 17.998877 LL:  -0.848 LR: -18.856 RR:   0.000 FEB: -13.486
USER: RMSD 5.840080
USER: SEED 166
USER: STATUS no improvement in best 71 clusters for 5 generations
USER: GENES 20
USER: genes 0 Translation |==|  0.53429 0.54254 0.52575
USER: genes 1 Rotation |==|  0.88833 0.36673 0.25071 0.63891
USER: genes 2 Torsion [N]-CA--C-[N] |==|  0.61580
USER: genes 3 Torsion [C]-N--CA-[CB] |==|  0.01537
USER: genes 4 Torsion [N]-CA--CB-[CG] |==|  0.73750
USER: genes 5 Torsion [CA]-CB--CG-[CD] |==|  0.77724
USER: genes 6 Torsion [CB]-CG--CD-[CE] |==|  0.41778
USER: genes 7 Torsion [CG]-CD--CE-[NZ] |==|  0.57980
USER: genes 8 Torsion [CD]-CE--NZ-[HZ2] |==|  0.72548
USER: genes 9 Torsion [N]-CA--C-[OXT] |==|  0.30359
USER: genes 10 Torsion [C]-CA--CB-[SG] |==|  0.78175
USER: genes 11 Torsion [CA]-CB--SG-[HG] |==|  0.66433
USER: genes 12 Torsion [C]-CA--N-[C] |==|  0.43455
USER: genes 13 Torsion [N]-C--CA-[N] |==|  0.26645
USER: genes 14 Torsion [C]-CA--N-[H2] |==|  0.40615
USER: genes 15 Torsion [C]-CA--CB-[CG] |==|  0.76649
USER: genes 16 Torsion [CA]-CB--CG-[CD] |==|  0.36610
USER: genes 17 Torsion [CB]-CG--CD-[CE] |==|  0.66323
USER: genes 18 Torsion [CG]-CD--CE-[NZ] |==|  0.70598
USER: genes 19 Torsion [CD]-CE--NZ-[HZ3] |==|  0.46705
ROOT
ATOM      1  CA  CYS B   2       3.779  19.666  14.813  1.00 13.05 LIG 0.18  C 
ENDROOT
BRANCH 1 2
ATOM      2  C   CYS B   2       4.014  20.781  15.817  1.00 11.99 LIG 0.24  C 
ATOM      3  N   LYS B   3       3.623  20.533  17.071  1.00 12.79 LIG-0.34  N 
ATOM      4 H    LYS B   3       3.242  19.806  17.329  1.00 12.79 LIG 0.16  HD
ATOM      5 O    CYS B   2       4.657  21.783  15.485  1.00 13.18 LIG-0.27  OA
BRANCH 3 6
ATOM      6  CA  LYS B   3       3.832  21.519  18.110  1.00 17.07 LIG 0.18  C 
BRANCH 6 7
ATOM      7  CB  LYS B   3       4.384  22.889  17.726  1.00 17.68 LIG 0.04  C 
BRANCH 7 8
ATOM      8  CG  LYS B   3       5.918  22.827  17.922  1.00 18.86 LIG 0.00  C 
BRANCH 8 9
ATOM      9  CD  LYS B   3       6.342  22.999  19.350  1.00 20.79 LIG 0.03  C 
BRANCH 9 10
ATOM     10  CE  LYS B   3       7.644  22.278  19.722  1.00 22.05 LIG 0.23  C 
BRANCH 10 11
ATOM     11  NZ  LYS B   3       7.625  21.912  21.164  1.00 26.11 LIG-0.08  N 
ATOM     12 HZ2  LYS B   3       8.087  22.514  21.629  1.00 26.11 LIG 0.27  HD
ATOM     13 HZ1  LYS B   3       7.992  21.108  21.271  1.00 26.11 LIG 0.27  HD
ATOM     14 HZ3  LYS B   3       6.784  21.894  21.454  1.00 26.11 LIG 0.27  HD
ENDBRANCH 10 11
ENDBRANCH 9 10
ENDBRANCH 8 9
ENDBRANCH 7 8
ENDBRANCH 6 7
BRANCH 6 15
ATOM     15  C   LYS B   3       2.519  21.767  18.892  1.00 17.69 LIG 0.20  C 
ATOM     16 OXT  LYS B   3       2.376  21.389  20.034  1.00 15.19 LIG-0.65  OA
ATOM     17 O    LYS B   3       1.684  22.514  18.363  1.00 19.25 LIG-0.65  OA
ENDBRANCH 6 15
ENDBRANCH 3 6
ENDBRANCH 1 2
BRANCH 1 18
ATOM     18  CB  CYS B   2       3.435  18.391  15.602  1.00 11.90 LIG 0.10  C 
BRANCH 18 19
ATOM     19 SG   CYS B   2       4.999  17.632  16.290  1.00 13.34 LIG-0.18  SA
ATOM     20 HG   CYS B   2       5.122  16.516  15.867  1.00 13.34 LIG 0.10  HD
ENDBRANCH 18 19
ENDBRANCH 1 18
BRANCH 1 21
ATOM     21  N   CYS B   2       4.881  19.458  13.887  1.00 10.67 LIG-0.34  N 
ATOM     22 H    CYS B   2       5.375  20.155  13.792  1.00 10.67 LIG 0.16  HD
ATOM     23  C   LYS B   1       5.120  18.346  13.254  1.00  9.81 LIG 0.25  C 
ATOM     24 O    LYS B   1       4.467  17.323  13.460  1.00 12.59 LIG-0.27  OA
BRANCH 23 25
ATOM     25  CA  LYS B   1       6.350  18.264  12.356  1.00 10.58 LIG 0.27  C 
BRANCH 25 26
ATOM     26  N   LYS B   1       7.501  17.641  13.110  1.00  8.28 LIG-0.07  N 
ATOM     27 H1   LYS B   1       7.184  17.112  13.751  1.00  8.28 LIG 0.28  HD
ATOM     28 H3   LYS B   1       8.000  18.283  13.473  1.00  8.28 LIG 0.28  HD
ATOM     29 H2   LYS B   1       7.998  17.161  12.549  1.00  8.28 LIG 0.28  HD
ENDBRANCH 25 26
BRANCH 25 30
ATOM     30  CB  LYS B   1       5.989  17.456  11.099  1.00 12.65 LIG 0.04  C 
BRANCH 30 31
ATOM     31  CG  LYS B   1       6.079  15.930  11.219  1.00 13.69 LIG 0.00  C 
BRANCH 31 32
ATOM     32  CD  LYS B   1       4.800  15.249  10.664  1.00 12.46 LIG 0.03  C 
BRANCH 32 33
ATOM     33  CE  LYS B   1       4.137  14.396  11.786  1.00 14.43 LIG 0.23  C 
BRANCH 33 34
ATOM     34  NZ  LYS B   1       4.449  12.966  11.415  1.00 15.78 LIG-0.08  N 
ATOM     35 HZ1  LYS B   1       3.966  12.732  10.706  1.00 15.78 LIG 0.27  HD
ATOM     36 HZ3  LYS B   1       4.250  12.432  12.098  1.00 15.78 LIG 0.27  HD
ATOM     37 HZ2  LYS B   1       5.315  12.891  11.222  1.00 15.78 LIG 0.27  HD
ENDBRANCH 33 34
ENDBRANCH 32 33
ENDBRANCH 31 32
ENDBRANCH 30 31
ENDBRANCH 25 30
ENDBRANCH 23 25
ENDBRANCH 1 21
TORSDOF 18
ENDMDL
MODEL 6
USER: ADFR SOLUTION from run 167
USER: SCORE 18.585174 LL:  -1.043 LR: -18.752 RR:   0.000 FEB: -13.383
USER: RMSD 6.202752
USER: SEED 166
USER: STATUS no improvement in best 71 clusters for 5 generations
USER: GENES 20
USER: genes 0 Translation |==|  0.52492 0.55453 0.52481
USER: genes 1 Rotation |==|  0.89790 0.27023 0.30776 0.54386
USER: genes 2 Torsion [N]-CA--C-[N] |==|  0.77804
USER: genes 3 Torsion [C]-N--CA-[CB] |==|  0.90322
USER: genes 4 Torsion [N]-CA--CB-[CG] |==|  0.71454
USER: genes 5 Torsion [CA]-CB--CG-[CD] |==|  0.61722
USER: genes 6 Torsion [CB]-CG--CD-[CE] |==|  0.52059
USER: genes 7 Torsion [CG]-CD--CE-[NZ] |==|  0.18329
USER: genes 8 Torsion [CD]-CE--NZ-[HZ2] |==|  0.63335
USER: genes 9 Torsion [N]-CA--C-[OXT] |==|  0.32100
USER: genes 10 Torsion [C]-CA--CB-[SG] |==|  0.12219
USER: genes 11 Torsion [CA]-CB--SG-[HG] |==|  0.62140
USER: genes 12 Torsion [C]-CA--N-[C] |==|  0.24960
USER: genes 13 Torsion [N]-C--CA-[N] |==|  0.46919
USER: genes 14 Torsion [C]-CA--N-[H2] |==|  0.27957
USER: genes 15 Torsion [C]-CA--CB-[CG] |==|  0.35732
USER: genes 16 Torsion [CA]-CB--CG-[CD] |==|  0.84276
USER: genes 17 Torsion [CB]-CG--CD-[CE] |==|  0.45538
USER: genes 18 Torsion [CG]-CD--CE-[NZ] |==|  0.37519
USER: genes 19 Torsion [CD]-CE--NZ-[HZ3] |==|  0.33824
ROOT
ATOM      1  CA  CYS B   2       3.497  20.026  14.784  1.00 13.05 LIG 0.18  C 
ENDROOT
BRANCH 1 2
ATOM      2  C   CYS B   2       3.724  20.981  15.944  1.00 11.99 LIG 0.24  C 
ATOM      3  N   LYS B   3       3.819  20.421  17.154  1.00 12.79 LIG-0.34  N 
ATOM      4 H    LYS B   3       3.743  19.579  17.311  1.00 12.79 LIG 0.16  HD
ATOM      5 O    CYS B   2       3.943  22.176  15.722  1.00 13.18 LIG-0.27  OA
BRANCH 3 6
ATOM      6  CA  LYS B   3       4.066  21.242  18.320  1.00 17.07 LIG 0.18  C 
BRANCH 6 7
ATOM      7  CB  LYS B   3       4.964  22.470  18.182  1.00 17.68 LIG 0.04  C 
BRANCH 7 8
ATOM      8  CG  LYS B   3       6.339  22.091  18.782  1.00 18.86 LIG 0.00  C 
BRANCH 8 9
ATOM      9  CD  LYS B   3       6.938  23.178  19.625  1.00 20.79 LIG 0.03  C 
BRANCH 9 10
ATOM     10  CE  LYS B   3       8.376  22.907  20.088  1.00 22.05 LIG 0.23  C 
BRANCH 10 11
ATOM     11  NZ  LYS B   3       9.289  22.890  18.915  1.00 26.11 LIG-0.08  N 
ATOM     12 HZ2  LYS B   3       9.812  22.171  18.956  1.00 26.11 LIG 0.27  HD
ATOM     13 HZ1  LYS B   3       9.793  23.624  18.920  1.00 26.11 LIG 0.27  HD
ATOM     14 HZ3  LYS B   3       8.810  22.865  18.166  1.00 26.11 LIG 0.27  HD
ENDBRANCH 10 11
ENDBRANCH 9 10
ENDBRANCH 8 9
ENDBRANCH 7 8
ENDBRANCH 6 7
BRANCH 6 15
ATOM     15  C   LYS B   3       2.730  21.729  18.932  1.00 17.69 LIG 0.20  C 
ATOM     16 OXT  LYS B   3       2.375  21.390  20.039  1.00 15.19 LIG-0.65  OA
ATOM     17 O    LYS B   3       2.119  22.613  18.314  1.00 19.25 LIG-0.65  OA
ENDBRANCH 6 15
ENDBRANCH 3 6
ENDBRANCH 1 2
BRANCH 1 18
ATOM     18  CB  CYS B   2       2.404  19.029  15.207  1.00 11.90 LIG 0.10  C 
BRANCH 18 19
ATOM     19 SG   CYS B   2       1.011  19.941  16.057  1.00 13.34 LIG-0.18  SA
ATOM     20 HG   CYS B   2       0.670  19.332  17.033  1.00 13.34 LIG 0.10  HD
ENDBRANCH 18 19
ENDBRANCH 1 18
BRANCH 1 21
ATOM     21  N   CYS B   2       4.703  19.354  14.322  1.00 10.67 LIG-0.34  N 
ATOM     22 H    CYS B   2       5.111  19.788  13.703  1.00 10.67 LIG 0.16  HD
ATOM     23  C   LYS B   1       5.140  18.217  14.779  1.00  9.81 LIG 0.25  C 
ATOM     24 O    LYS B   1       4.604  17.643  15.727  1.00 12.59 LIG-0.27  OA
BRANCH 23 25
ATOM     25  CA  LYS B   1       6.452  17.664  14.231  1.00 10.58 LIG 0.27  C 
BRANCH 25 26
ATOM     26  N   LYS B   1       6.913  16.498  15.071  1.00  8.28 LIG-0.07  N 
ATOM     27 H1   LYS B   1       6.508  16.523  15.863  1.00  8.28 LIG 0.28  HD
ATOM     28 H3   LYS B   1       7.795  16.544  15.186  1.00  8.28 LIG 0.28  HD
ATOM     29 H2   LYS B   1       6.708  15.736  14.659  1.00  8.28 LIG 0.28  HD
ENDBRANCH 25 26
BRANCH 25 30
ATOM     30  CB  LYS B   1       6.241  17.261  12.762  1.00 12.65 LIG 0.04  C 
BRANCH 30 31
ATOM     31  CG  LYS B   1       7.250  17.815  11.750  1.00 13.69 LIG 0.00  C 
BRANCH 31 32
ATOM     32  CD  LYS B   1       7.301  19.365  11.802  1.00 12.46 LIG 0.03  C 
BRANCH 32 33
ATOM     33  CE  LYS B   1       8.588  19.867  11.084  1.00 14.43 LIG 0.23  C 
BRANCH 33 34
ATOM     34  NZ  LYS B   1       8.122  21.015  10.221  1.00 15.78 LIG-0.08  N 
ATOM     35 HZ1  LYS B   1       8.275  20.824   9.365  1.00 15.78 LIG 0.27  HD
ATOM     36 HZ3  LYS B   1       8.566  21.753  10.444  1.00 15.78 LIG 0.27  HD
ATOM     37 HZ2  LYS B   1       7.250  21.145  10.345  1.00 15.78 LIG 0.27  HD
ENDBRANCH 33 34
ENDBRANCH 32 33
ENDBRANCH 31 32
ENDBRANCH 30 31
ENDBRANCH 25 30
ENDBRANCH 23 25
ENDBRANCH 1 21
TORSDOF 18
ENDMDL
MODEL 7
USER: ADFR SOLUTION from run 143
USER: SCORE 19.894381 LL:  -1.538 LR: -18.403 RR:   0.000 FEB: -13.033
USER: RMSD 5.093679
USER: SEED 142
USER: STATUS no improvement in best 78 clusters for 5 generations
USER: GENES 20
USER: genes 0 Translation |==|  0.40942 0.54737 0.53927
USER: genes 1 Rotation |==|  0.93733 0.32988 0.54368 0.66702
USER: genes 2 Torsion [N]-CA--C-[N] |==|  0.37055
USER: genes 3 Torsion [C]-N--CA-[CB] |==|  0.45499
USER: genes 4 Torsion [N]-CA--CB-[CG] |==|  0.52753
USER: genes 5 Torsion [CA]-CB--CG-[CD] |==|  0.67509
USER: genes 6 Torsion [CB]-CG--CD-[CE] |==|  0.37675
USER: genes 7 Torsion [CG]-CD--CE-[NZ] |==|  0.53432
USER: genes 8 Torsion [CD]-CE--NZ-[HZ2] |==|  0.91286
USER: genes 9 Torsion [N]-CA--C-[OXT] |==|  0.96173
USER: genes 10 Torsion [C]-CA--CB-[SG] |==|  0.10510
USER: genes 11 Torsion [CA]-CB--SG-[HG] |==|  0.67309
USER: genes 12 Torsion [C]-CA--N-[C] |==|  0.78333
USER: genes 13 Torsion [N]-C--CA-[N] |==|  0.95296
USER: genes 14 Torsion [C]-CA--N-[H2] |==|  0.58213
USER: genes 15 Torsion [C]-CA--CB-[CG] |==|  0.81209
USER: genes 16 Torsion [CA]-CB--CG-[CD] |==|  0.42180
USER: genes 17 Torsion [CB]-CG--CD-[CE] |==|  0.13424
USER: genes 18 Torsion [CG]-CD--CE-[NZ] |==|  0.21930
USER: genes 19 Torsion [CD]-CE--NZ-[HZ3] |==|  0.64810
ROOT
ATOM      1  CA  CYS B   2       0.033  19.811  15.218  1.00 13.05 LIG 0.18  C 
ENDROOT
BRANCH 1 2
ATOM      2  C   CYS B   2      -0.826  21.064  15.230  1.00 11.99 LIG 0.24  C 
ATOM      3  N   LYS B   3      -1.450  21.358  14.085  1.00 12.79 LIG-0.34  N 
ATOM      4 H    LYS B   3      -1.381  20.902  13.360  1.00 12.79 LIG 0.16  HD
ATOM      5 O    CYS B   2      -1.020  21.667  16.291  1.00 13.18 LIG-0.27  OA
BRANCH 3 6
ATOM      6  CA  LYS B   3      -2.317  22.515  14.003  1.00 17.07 LIG 0.18  C 
BRANCH 6 7
ATOM      7  CB  LYS B   3      -2.714  23.042  12.626  1.00 17.68 LIG 0.04  C 
BRANCH 7 8
ATOM      8  CG  LYS B   3      -3.414  24.403  12.850  1.00 18.86 LIG 0.00  C 
BRANCH 8 9
ATOM      9  CD  LYS B   3      -4.849  24.412  12.413  1.00 20.79 LIG 0.03  C 
BRANCH 9 10
ATOM     10  CE  LYS B   3      -5.814  25.081  13.401  1.00 22.05 LIG 0.23  C 
BRANCH 10 11
ATOM     11  NZ  LYS B   3      -7.219  24.774  13.021  1.00 26.11 LIG-0.08  N 
ATOM     12 HZ2  LYS B   3      -7.275  24.684  12.137  1.00 26.11 LIG 0.27  HD
ATOM     13 HZ1  LYS B   3      -7.750  25.437  13.286  1.00 26.11 LIG 0.27  HD
ATOM     14 HZ3  LYS B   3      -7.474  24.017  13.413  1.00 26.11 LIG 0.27  HD
ENDBRANCH 10 11
ENDBRANCH 9 10
ENDBRANCH 8 9
ENDBRANCH 7 8
ENDBRANCH 6 7
BRANCH 6 15
ATOM     15  C   LYS B   3      -3.630  22.265  14.784  1.00 17.69 LIG 0.20  C 
ATOM     16 OXT  LYS B   3      -3.950  21.157  15.153  1.00 15.19 LIG-0.65  OA
ATOM     17 O    LYS B   3      -4.254  23.265  15.165  1.00 19.25 LIG-0.65  OA
ENDBRANCH 6 15
ENDBRANCH 3 6
ENDBRANCH 1 2
BRANCH 1 18
ATOM     18  CB  CYS B   2      -0.765  18.692  15.910  1.00 11.90 LIG 0.10  C 
BRANCH 18 19
ATOM     19 SG   CYS B   2      -2.572  18.829  15.456  1.00 13.34 LIG-0.18  SA
ATOM     20 HG   CYS B   2      -3.220  19.036  16.444  1.00 13.34 LIG 0.10  HD
ENDBRANCH 18 19
ENDBRANCH 1 18
BRANCH 1 21
ATOM     21  N   CYS B   2       1.352  19.988  15.806  1.00 10.67 LIG-0.34  N 
ATOM     22 H    CYS B   2       1.408  19.672  16.603  1.00 10.67 LIG 0.16  HD
ATOM     23  C   LYS B   1       2.358  20.561  15.213  1.00  9.81 LIG 0.25  C 
ATOM     24 O    LYS B   1       2.302  20.931  14.041  1.00 12.59 LIG-0.27  OA
BRANCH 23 25
ATOM     25  CA  LYS B   1       3.698  20.623  15.941  1.00 10.58 LIG 0.27  C 
BRANCH 25 26
ATOM     26  N   LYS B   1       3.500  20.355  17.413  1.00  8.28 LIG-0.07  N 
ATOM     27 H1   LYS B   1       3.566  19.481  17.568  1.00  8.28 LIG 0.28  HD
ATOM     28 H3   LYS B   1       2.694  20.640  17.661  1.00  8.28 LIG 0.28  HD
ATOM     29 H2   LYS B   1       4.123  20.786  17.880  1.00  8.28 LIG 0.28  HD
ENDBRANCH 25 26
BRANCH 25 30
ATOM     30  CB  LYS B   1       4.653  19.603  15.300  1.00 12.65 LIG 0.04  C 
BRANCH 30 31
ATOM     31  CG  LYS B   1       4.302  18.123  15.493  1.00 13.69 LIG 0.00  C 
BRANCH 31 32
ATOM     32  CD  LYS B   1       4.834  17.264  14.317  1.00 12.46 LIG 0.03  C 
BRANCH 32 33
ATOM     33  CE  LYS B   1       6.324  17.623  14.043  1.00 14.43 LIG 0.23  C 
BRANCH 33 34
ATOM     34  NZ  LYS B   1       7.099  16.888  15.110  1.00 15.78 LIG-0.08  N 
ATOM     35 HZ1  LYS B   1       6.531  16.515  15.685  1.00 15.78 LIG 0.27  HD
ATOM     36 HZ3  LYS B   1       7.625  17.460  15.542  1.00 15.78 LIG 0.27  HD
ATOM     37 HZ2  LYS B   1       7.597  16.254  14.732  1.00 15.78 LIG 0.27  HD
ENDBRANCH 33 34
ENDBRANCH 32 33
ENDBRANCH 31 32
ENDBRANCH 30 31
ENDBRANCH 25 30
ENDBRANCH 23 25
ENDBRANCH 1 21
TORSDOF 18
ENDMDL
MODEL 8
USER: ADFR SOLUTION from run 42
USER: SCORE 18.526604 LL:  -1.338 LR: -18.339 RR:   0.000 FEB: -12.969
USER: RMSD 6.345422
USER: SEED 41
USER: STATUS no improvement in best 71 clusters for 5 generations
USER: GENES 20
USER: genes 0 Translation |==|  0.55136 0.56964 0.54320
USER: genes 1 Rotation |==|  0.20730 0.76881 0.69117 0.73563
USER: genes 2 Torsion [N]-CA--C-[N] |==|  0.37250
USER: genes 3 Torsion [C]-N--CA-[CB] |==|  0.37399
USER: genes 4 Torsion [N]-CA--CB-[CG] |==|  0.60378
USER: genes 5 Torsion [CA]-CB--CG-[CD] |==|  0.46744
USER: genes 6 Torsion [CB]-CG--CD-[CE] |==|  0.43082
USER: genes 7 Torsion [CG]-CD--CE-[NZ] |==|  0.67542
USER: genes 8 Torsion [CD]-CE--NZ-[HZ2] |==|  0.60994
USER: genes 9 Torsion [N]-CA--C-[OXT] |==|  0.98433
USER: genes 10 Torsion [C]-CA--CB-[SG] |==|  0.93650
USER: genes 11 Torsion [CA]-CB--SG-[HG] |==|  0.18551
USER: genes 12 Torsion [C]-CA--N-[C] |==|  0.16667
USER: genes 13 Torsion [N]-C--CA-[N] |==|  0.28613
USER: genes 14 Torsion [C]-CA--N-[H2] |==|  0.07373
USER: genes 15 Torsion [C]-CA--CB-[CG] |==|  0.63121
USER: genes 16 Torsion [CA]-CB--CG-[CD] |==|  0.55235
USER: genes 17 Torsion [CB]-CG--CD-[CE] |==|  0.32224
USER: genes 18 Torsion [CG]-CD--CE-[NZ] |==|  0.32282
USER: genes 19 Torsion [CD]-CE--NZ-[HZ3] |==|  0.42992
ROOT
ATOM      1  CA  CYS B   2       4.291  20.479  15.336  1.00 13.05 LIG 0.18  C 
ENDROOT
BRANCH 1 2
ATOM      2  C   CYS B   2       4.191  20.106  16.805  1.00 11.99 LIG 0.24  C 
ATOM      3  N   LYS B   3       4.431  21.090  17.677  1.00 12.79 LIG-0.34  N 
ATOM      4 H    LYS B   3       4.650  21.893  17.460  1.00 12.79 LIG 0.16  HD
ATOM      5 O    CYS B   2       3.773  18.990  17.129  1.00 13.18 LIG-0.27  OA
BRANCH 3 6
ATOM      6  CA  LYS B   3       4.331  20.845  19.100  1.00 17.07 LIG 0.18  C 
BRANCH 6 7
ATOM      7  CB  LYS B   3       5.433  21.369  20.018  1.00 17.68 LIG 0.04  C 
BRANCH 7 8
ATOM      8  CG  LYS B   3       5.647  20.302  21.119  1.00 18.86 LIG 0.00  C 
BRANCH 8 9
ATOM      9  CD  LYS B   3       6.882  20.533  21.938  1.00 20.79 LIG 0.03  C 
BRANCH 9 10
ATOM     10  CE  LYS B   3       6.838  19.924  23.346  1.00 22.05 LIG 0.23  C 
BRANCH 10 11
ATOM     11  NZ  LYS B   3       6.912  21.003  24.366  1.00 26.11 LIG-0.08  N 
ATOM     12 HZ2  LYS B   3       7.429  20.739  25.041  1.00 26.11 LIG 0.27  HD
ATOM     13 HZ1  LYS B   3       6.095  21.181  24.670  1.00 26.11 LIG 0.27  HD
ATOM     14 HZ3  LYS B   3       7.257  21.736  23.998  1.00 26.11 LIG 0.27  HD
ENDBRANCH 10 11
ENDBRANCH 9 10
ENDBRANCH 8 9
ENDBRANCH 7 8
ENDBRANCH 6 7
BRANCH 6 15
ATOM     15  C   LYS B   3       2.990  21.389  19.650  1.00 17.69 LIG 0.20  C 
ATOM     16 OXT  LYS B   3       2.227  22.022  18.956  1.00 15.19 LIG-0.65  OA
ATOM     17 O    LYS B   3       2.652  21.007  20.780  1.00 19.25 LIG-0.65  OA
ENDBRANCH 6 15
ENDBRANCH 3 6
ENDBRANCH 1 2
BRANCH 1 18
ATOM     18  CB  CYS B   2       2.860  20.685  14.808  1.00 11.90 LIG 0.10  C 
BRANCH 18 19
ATOM     19 SG   CYS B   2       1.648  19.761  15.889  1.00 13.34 LIG-0.18  SA
ATOM     20 HG   CYS B   2       1.622  20.260  16.979  1.00 13.34 LIG 0.10  HD
ENDBRANCH 18 19
ENDBRANCH 1 18
BRANCH 1 21
ATOM     21  N   CYS B   2       5.041  19.527  14.530  1.00 10.67 LIG-0.34  N 
ATOM     22 H    CYS B   2       5.727  19.878  14.151  1.00 10.67 LIG 0.16  HD
ATOM     23  C   LYS B   1       4.729  18.273  14.381  1.00  9.81 LIG 0.25  C 
ATOM     24 O    LYS B   1       3.799  17.752  14.997  1.00 12.59 LIG-0.27  OA
BRANCH 23 25
ATOM     25  CA  LYS B   1       5.647  17.385  13.547  1.00 10.58 LIG 0.27  C 
BRANCH 25 26
ATOM     26  N   LYS B   1       6.491  16.520  14.450  1.00  8.28 LIG-0.07  N 
ATOM     27 H1   LYS B   1       7.270  16.922  14.606  1.00  8.28 LIG 0.28  HD
ATOM     28 H3   LYS B   1       6.637  15.734  14.058  1.00  8.28 LIG 0.28  HD
ATOM     29 H2   LYS B   1       6.066  16.391  15.222  1.00  8.28 LIG 0.28  HD
ENDBRANCH 25 26
BRANCH 25 30
ATOM     30  CB  LYS B   1       4.783  16.541  12.595  1.00 12.65 LIG 0.04  C 
BRANCH 30 31
ATOM     31  CG  LYS B   1       5.103  15.044  12.528  1.00 13.69 LIG 0.00  C 
BRANCH 31 32
ATOM     32  CD  LYS B   1       4.521  14.404  11.240  1.00 12.46 LIG 0.03  C 
BRANCH 32 33
ATOM     33  CE  LYS B   1       5.686  13.887  10.345  1.00 14.43 LIG 0.23  C 
BRANCH 33 34
ATOM     34  NZ  LYS B   1       5.492  12.391  10.289  1.00 15.78 LIG-0.08  N 
ATOM     35 HZ1  LYS B   1       5.879  12.015  10.996  1.00 15.78 LIG 0.27  HD
ATOM     36 HZ3  LYS B   1       5.860  12.072   9.545  1.00 15.78 LIG 0.27  HD
ATOM     37 HZ2  LYS B   1       4.621  12.204  10.294  1.00 15.78 LIG 0.27  HD
ENDBRANCH 33 34
ENDBRANCH 32 33
ENDBRANCH 31 32
ENDBRANCH 30 31
ENDBRANCH 25 30
ENDBRANCH 23 25
ENDBRANCH 1 21
TORSDOF 18
ENDMDL
MODEL 9
USER: ADFR SOLUTION from run 66
USER: SCORE 19.512091 LL:  -1.466 LR: -18.047 RR:   0.000 FEB: -12.678
USER: RMSD 2.303572
USER: SEED 65
USER: STATUS no improvement in best 53 clusters for 5 generations
USER: GENES 20
USER: genes 0 Translation |==|  0.57649 0.57414 0.58238
USER: genes 1 Rotation |==|  0.49568 0.58124 0.41610 0.98615
USER: genes 2 Torsion [N]-CA--C-[N] |==|  0.37999
USER: genes 3 Torsion [C]-N--CA-[CB] |==|  0.24463
USER: genes 4 Torsion [N]-CA--CB-[CG] |==|  0.56474
USER: genes 5 Torsion [CA]-CB--CG-[CD] |==|  0.49872
USER: genes 6 Torsion [CB]-CG--CD-[CE] |==|  0.45598
USER: genes 7 Torsion [CG]-CD--CE-[NZ] |==|  0.55635
USER: genes 8 Torsion [CD]-CE--NZ-[HZ2] |==|  0.44683
USER: genes 9 Torsion [N]-CA--C-[OXT] |==|  0.91171
USER: genes 10 Torsion [C]-CA--CB-[SG] |==|  0.34656
USER: genes 11 Torsion [CA]-CB--SG-[HG] |==|  0.45225
USER: genes 12 Torsion [C]-CA--N-[C] |==|  0.83444
USER: genes 13 Torsion [N]-C--CA-[N] |==|  0.26383
USER: genes 14 Torsion [C]-CA--N-[H2] |==|  0.25749
USER: genes 15 Torsion [C]-CA--CB-[CG] |==|  0.54807
USER: genes 16 Torsion [CA]-CB--CG-[CD] |==|  0.54441
USER: genes 17 Torsion [CB]-CG--CD-[CE] |==|  0.42877
USER: genes 18 Torsion [CG]-CD--CE-[NZ] |==|  0.32922
USER: genes 19 Torsion [CD]-CE--NZ-[HZ3] |==|  0.42610
ROOT
ATOM      1  CA  CYS B   2       5.045  20.614  16.511  1.00 13.05 LIG 0.18  C 
ENDROOT
BRANCH 1 2
ATOM      2  C   CYS B   2       3.596  20.966  16.219  1.00 11.99 LIG 0.24  C 
ATOM      3  N   LYS B   3       2.782  21.024  17.277  1.00 12.79 LIG-0.34  N 
ATOM      4 H    LYS B   3       3.021  20.861  18.088  1.00 12.79 LIG 0.16  HD
ATOM      5 O    CYS B   2       3.264  21.308  15.079  1.00 13.18 LIG-0.27  OA
BRANCH 3 6
ATOM      6  CA  LYS B   3       1.389  21.381  17.109  1.00 17.07 LIG 0.18  C 
BRANCH 6 7
ATOM      7  CB  LYS B   3       0.376  20.279  16.810  1.00 17.68 LIG 0.04  C 
BRANCH 7 8
ATOM      8  CG  LYS B   3      -0.830  20.953  16.113  1.00 18.86 LIG 0.00  C 
BRANCH 8 9
ATOM      9  CD  LYS B   3      -1.917  19.989  15.743  1.00 20.79 LIG 0.03  C 
BRANCH 9 10
ATOM     10  CE  LYS B   3      -3.265  20.643  15.409  1.00 22.05 LIG 0.23  C 
BRANCH 10 11
ATOM     11  NZ  LYS B   3      -4.358  19.642  15.540  1.00 26.11 LIG-0.08  N 
ATOM     12 HZ2  LYS B   3      -5.138  20.063  15.622  1.00 26.11 LIG 0.27  HD
ATOM     13 HZ1  LYS B   3      -4.215  19.139  16.260  1.00 26.11 LIG 0.27  HD
ATOM     14 HZ3  LYS B   3      -4.375  19.125  14.816  1.00 26.11 LIG 0.27  HD
ENDBRANCH 10 11
ENDBRANCH 9 10
ENDBRANCH 8 9
ENDBRANCH 7 8
ENDBRANCH 6 7
BRANCH 6 15
ATOM     15  C   LYS B   3       0.872  22.144  18.353  1.00 17.69 LIG 0.20  C 
ATOM     16 OXT  LYS B   3       1.300  21.918  19.462  1.00 15.19 LIG-0.65  OA
ATOM     17 O    LYS B   3       0.125  23.111  18.146  1.00 19.25 LIG-0.65  OA
ENDBRANCH 6 15
ENDBRANCH 3 6
ENDBRANCH 1 2
BRANCH 1 18
ATOM     18  CB  CYS B   2       5.843  21.929  16.562  1.00 11.90 LIG 0.10  C 
BRANCH 18 19
ATOM     19 SG   CYS B   2       6.749  22.057  18.192  1.00 13.34 LIG-0.18  SA
ATOM     20 HG   CYS B   2       7.614  22.883  18.105  1.00 13.34 LIG 0.10  HD
ENDBRANCH 18 19
ENDBRANCH 1 18
BRANCH 1 21
ATOM     21  N   CYS B   2       5.624  19.657  15.581  1.00 10.67 LIG-0.34  N 
ATOM     22 H    CYS B   2       6.309  19.966  15.165  1.00 10.67 LIG 0.16  HD
ATOM     23  C   LYS B   1       5.173  18.453  15.379  1.00  9.81 LIG 0.25  C 
ATOM     24 O    LYS B   1       4.249  17.980  16.040  1.00 12.59 LIG-0.27  OA
BRANCH 23 25
ATOM     25  CA  LYS B   1       5.923  17.545  14.409  1.00 10.58 LIG 0.27  C 
BRANCH 25 26
ATOM     26  N   LYS B   1       6.893  16.669  15.165  1.00  8.28 LIG-0.07  N 
ATOM     27 H1   LYS B   1       7.142  17.080  15.915  1.00  8.28 LIG 0.28  HD
ATOM     28 H3   LYS B   1       7.610  16.515  14.660  1.00  8.28 LIG 0.28  HD
ATOM     29 H2   LYS B   1       6.501  15.896  15.367  1.00  8.28 LIG 0.28  HD
ENDBRANCH 25 26
BRANCH 25 30
ATOM     30  CB  LYS B   1       4.897  16.711  13.623  1.00 12.65 LIG 0.04  C 
BRANCH 30 31
ATOM     31  CG  LYS B   1       5.434  15.466  12.907  1.00 13.69 LIG 0.00  C 
BRANCH 31 32
ATOM     32  CD  LYS B   1       4.423  14.950  11.850  1.00 12.46 LIG 0.03  C 
BRANCH 32 33
ATOM     33  CE  LYS B   1       5.185  14.165  10.742  1.00 14.43 LIG 0.23  C 
BRANCH 33 34
ATOM     34  NZ  LYS B   1       4.624  12.765  10.810  1.00 15.78 LIG-0.08  N 
ATOM     35 HZ1  LYS B   1       5.075  12.293  11.415  1.00 15.78 LIG 0.27  HD
ATOM     36 HZ3  LYS B   1       4.702  12.375  10.014  1.00 15.78 LIG 0.27  HD
ATOM     37 HZ2  LYS B   1       3.765  12.799  11.040  1.00 15.78 LIG 0.27  HD
ENDBRANCH 33 34
ENDBRANCH 32 33
ENDBRANCH 31 32
ENDBRANCH 30 31
ENDBRANCH 25 30
ENDBRANCH 23 25
ENDBRANCH 1 21
TORSDOF 18
ENDMDL
MODEL 10
USER: ADFR SOLUTION from run 36
USER: SCORE 18.896361 LL:  -1.558 LR: -17.504 RR:   0.000 FEB: -12.135
USER: RMSD 4.128001
USER: SEED 35
USER: STATUS no improvement in best 39 clusters for 5 generations
USER: GENES 20
USER: genes 0 Translation |==|  0.42530 0.53724 0.54084
USER: genes 1 Rotation |==|  0.98824 0.45324 0.57480 0.56194
USER: genes 2 Torsion [N]-CA--C-[N] |==|  0.36762
USER: genes 3 Torsion [C]-N--CA-[CB] |==|  0.84826
USER: genes 4 Torsion [N]-CA--CB-[CG] |==|  0.85743
USER: genes 5 Torsion [CA]-CB--CG-[CD] |==|  0.90445
USER: genes 6 Torsion [CB]-CG--CD-[CE] |==|  0.41855
USER: genes 7 Torsion [CG]-CD--CE-[NZ] |==|  0.56279
USER: genes 8 Torsion [CD]-CE--NZ-[HZ2] |==|  0.10431
USER: genes 9 Torsion [N]-CA--C-[OXT] |==|  0.45621
USER: genes 10 Torsion [C]-CA--CB-[SG] |==|  0.89367
USER: genes 11 Torsion [CA]-CB--SG-[HG] |==|  0.15231
USER: genes 12 Torsion [C]-CA--N-[C] |==|  0.67124
USER: genes 13 Torsion [N]-C--CA-[N] |==|  0.96588
USER: genes 14 Torsion [C]-CA--N-[H2] |==|  0.97274
USER: genes 15 Torsion [C]-CA--CB-[CG] |==|  0.91139
USER: genes 16 Torsion [CA]-CB--CG-[CD] |==|  0.41934
USER: genes 17 Torsion [CB]-CG--CD-[CE] |==|  0.54413
USER: genes 18 Torsion [CG]-CD--CE-[NZ] |==|  0.64889
USER: genes 19 Torsion [CD]-CE--NZ-[HZ3] |==|  0.88136
ROOT
ATOM      1  CA  CYS B   2       0.509  19.507  15.265  1.00 13.05 LIG 0.18  C 
ENDROOT
BRANCH 1 2
ATOM      2  C   CYS B   2      -0.901  20.012  15.521  1.00 11.99 LIG 0.24  C 
ATOM      3  N   LYS B   3      -1.617  20.327  14.437  1.00 12.79 LIG-0.34  N 
ATOM      4 H    LYS B   3      -1.326  20.278  13.628  1.00 12.79 LIG 0.16  HD
ATOM      5 O    CYS B   2      -1.366  19.984  16.665  1.00 13.18 LIG-0.27  OA
BRANCH 3 6
ATOM      6  CA  LYS B   3      -2.982  20.788  14.572  1.00 17.07 LIG 0.18  C 
BRANCH 6 7
ATOM      7  CB  LYS B   3      -3.978  19.927  15.345  1.00 17.68 LIG 0.04  C 
BRANCH 7 8
ATOM      8  CG  LYS B   3      -3.891  18.499  14.756  1.00 18.86 LIG 0.00  C 
BRANCH 8 9
ATOM      9  CD  LYS B   3      -3.617  18.480  13.282  1.00 20.79 LIG 0.03  C 
BRANCH 9 10
ATOM     10  CE  LYS B   3      -2.850  17.246  12.790  1.00 22.05 LIG 0.23  C 
BRANCH 10 11
ATOM     11  NZ  LYS B   3      -2.168  17.554  11.504  1.00 26.11 LIG-0.08  N 
ATOM     12 HZ2  LYS B   3      -1.862  18.389  11.523  1.00 26.11 LIG 0.27  HD
ATOM     13 HZ1  LYS B   3      -2.746  17.465  10.833  1.00 26.11 LIG 0.27  HD
ATOM     14 HZ3  LYS B   3      -1.489  16.991  11.386  1.00 26.11 LIG 0.27  HD
ENDBRANCH 10 11
ENDBRANCH 9 10
ENDBRANCH 8 9
ENDBRANCH 7 8
ENDBRANCH 6 7
BRANCH 6 15
ATOM     15  C   LYS B   3      -3.016  22.198  15.210  1.00 17.69 LIG 0.20  C 
ATOM     16 OXT  LYS B   3      -4.006  22.894  15.165  1.00 15.19 LIG-0.65  OA
ATOM     17 O    LYS B   3      -2.048  22.518  15.915  1.00 19.25 LIG-0.65  OA
ENDBRANCH 6 15
ENDBRANCH 3 6
ENDBRANCH 1 2
BRANCH 1 18
ATOM     18  CB  CYS B   2       0.495  17.978  15.434  1.00 11.90 LIG 0.10  C 
BRANCH 18 19
ATOM     19 SG   CYS B   2      -0.626  17.508  16.854  1.00 13.34 LIG-0.18  SA
ATOM     20 HG   CYS B   2      -1.715  17.978  16.676  1.00 13.34 LIG 0.10  HD
ENDBRANCH 18 19
ENDBRANCH 1 18
BRANCH 1 21
ATOM     21  N   CYS B   2       1.526  20.141  16.090  1.00 10.67 LIG-0.34  N 
ATOM     22 H    CYS B   2       1.408  20.005  16.931  1.00 10.67 LIG 0.16  HD
ATOM     23  C   LYS B   1       2.521  20.843  15.633  1.00  9.81 LIG 0.25  C 
ATOM     24 O    LYS B   1       2.741  20.960  14.427  1.00 12.59 LIG-0.27  OA
BRANCH 23 25
ATOM     25  CA  LYS B   1       3.540  21.400  16.623  1.00 10.58 LIG 0.27  C 
BRANCH 25 26
ATOM     26  N   LYS B   1       3.020  21.263  18.034  1.00  8.28 LIG-0.07  N 
ATOM     27 H1   LYS B   1       3.092  22.044  18.454  1.00  8.28 LIG 0.28  HD
ATOM     28 H3   LYS B   1       3.495  20.647  18.467  1.00  8.28 LIG 0.28  HD
ATOM     29 H2   LYS B   1       2.165  21.017  18.012  1.00  8.28 LIG 0.28  HD
ENDBRANCH 25 26
BRANCH 25 30
ATOM     30  CB  LYS B   1       4.870  20.652  16.432  1.00 12.65 LIG 0.04  C 
BRANCH 30 31
ATOM     31  CG  LYS B   1       4.773  19.188  15.990  1.00 13.69 LIG 0.00  C 
BRANCH 31 32
ATOM     32  CD  LYS B   1       6.017  18.770  15.162  1.00 12.46 LIG 0.03  C 
BRANCH 32 33
ATOM     33  CE  LYS B   1       5.714  17.445  14.402  1.00 14.43 LIG 0.23  C 
BRANCH 33 34
ATOM     34  NZ  LYS B   1       6.838  16.515  14.790  1.00 15.78 LIG-0.08  N 
ATOM     35 HZ1  LYS B   1       6.693  16.200  15.609  1.00 15.78 LIG 0.27  HD
ATOM     36 HZ3  LYS B   1       7.609  16.959  14.775  1.00 15.78 LIG 0.27  HD
ATOM     37 HZ2  LYS B   1       6.875  15.837  14.214  1.00 15.78 LIG 0.27  HD
ENDBRANCH 33 34
ENDBRANCH 32 33
ENDBRANCH 31 32
ENDBRANCH 30 31
ENDBRANCH 25 30
ENDBRANCH 23 25
ENDBRANCH 1 21
TORSDOF 18
ENDMDL
MODEL 11
USER: ADFR SOLUTION from run 187
USER: SCORE 16.968857 LL:  -0.999 LR: -17.282 RR:   0.000 FEB: -11.913
USER: RMSD 10.098019
USER: SEED 186
USER: STATUS no improvement in best 88 clusters for 5 generations
USER: GENES 20
USER: genes 0 Translation |==|  0.29873 0.65773 0.46690
USER: genes 1 Rotation |==|  0.70439 0.91836 0.52438 0.68058
USER: genes 2 Torsion [N]-CA--C-[N] |==|  0.36875
USER: genes 3 Torsion [C]-N--CA-[CB] |==|  0.41672
USER: genes 4 Torsion [N]-CA--CB-[CG] |==|  0.82975
USER: genes 5 Torsion [CA]-CB--CG-[CD] |==|  0.39231
USER: genes 6 Torsion [CB]-CG--CD-[CE] |==|  0.92382
USER: genes 7 Torsion [CG]-CD--CE-[NZ] |==|  0.67667
USER: genes 8 Torsion [CD]-CE--NZ-[HZ2] |==|  0.98383
USER: genes 9 Torsion [N]-CA--C-[OXT] |==|  0.08345
USER: genes 10 Torsion [C]-CA--CB-[SG] |==|  0.61414
USER: genes 11 Torsion [CA]-CB--SG-[HG] |==|  0.80257
USER: genes 12 Torsion [C]-CA--N-[C] |==|  0.15017
USER: genes 13 Torsion [N]-C--CA-[N] |==|  0.63607
USER: genes 14 Torsion [C]-CA--N-[H2] |==|  0.16011
USER: genes 15 Torsion [C]-CA--CB-[CG] |==|  0.30973
USER: genes 16 Torsion [CA]-CB--CG-[CD] |==|  0.44075
USER: genes 17 Torsion [CB]-CG--CD-[CE] |==|  0.58514
USER: genes 18 Torsion [CG]-CD--CE-[NZ] |==|  0.77829
USER: genes 19 Torsion [CD]-CE--NZ-[HZ3] |==|  0.79441
ROOT
ATOM      1  CA  CYS B   2      -3.288  23.122  13.047  1.00 13.05 LIG 0.18  C 
ENDROOT
BRANCH 1 2
ATOM      2  C   CYS B   2      -3.315  22.260  14.298  1.00 11.99 LIG 0.24  C 
ATOM      3  N   LYS B   3      -2.656  21.100  14.225  1.00 12.79 LIG-0.34  N 
ATOM      4 H    LYS B   3      -2.244  20.815  13.525  1.00 12.79 LIG 0.16  HD
ATOM      5 O    CYS B   2      -3.808  22.704  15.340  1.00 13.18 LIG-0.27  OA
BRANCH 3 6
ATOM      6  CA  LYS B   3      -2.595  20.221  15.373  1.00 17.07 LIG 0.18  C 
BRANCH 6 7
ATOM      7  CB  LYS B   3      -2.489  18.715  15.145  1.00 17.68 LIG 0.04  C 
BRANCH 7 8
ATOM      8  CG  LYS B   3      -3.760  18.287  14.372  1.00 18.86 LIG 0.00  C 
BRANCH 8 9
ATOM      9  CD  LYS B   3      -3.495  17.247  13.324  1.00 20.79 LIG 0.03  C 
BRANCH 9 10
ATOM     10  CE  LYS B   3      -2.074  17.272  12.745  1.00 22.05 LIG 0.23  C 
BRANCH 10 11
ATOM     11  NZ  LYS B   3      -2.125  17.602  11.295  1.00 26.11 LIG-0.08  N 
ATOM     12 HZ2  LYS B   3      -2.973  17.638  11.028  1.00 26.11 LIG 0.27  HD
ATOM     13 HZ1  LYS B   3      -1.695  16.974  10.833  1.00 26.11 LIG 0.27  HD
ATOM     14 HZ3  LYS B   3      -1.737  18.390  11.157  1.00 26.11 LIG 0.27  HD
ENDBRANCH 10 11
ENDBRANCH 9 10
ENDBRANCH 8 9
ENDBRANCH 7 8
ENDBRANCH 6 7
BRANCH 6 15
ATOM     15  C   LYS B   3      -1.420  20.620  16.299  1.00 17.69 LIG 0.20  C 
ATOM     16 OXT  LYS B   3      -1.036  21.765  16.383  1.00 15.19 LIG-0.65  OA
ATOM     17 O    LYS B   3      -1.000  19.751  17.077  1.00 19.25 LIG-0.65  OA
ENDBRANCH 6 15
ENDBRANCH 3 6
ENDBRANCH 1 2
BRANCH 1 18
ATOM     18  CB  CYS B   2      -2.262  24.245  13.276  1.00 11.90 LIG 0.10  C 
BRANCH 18 19
ATOM     19 SG   CYS B   2      -2.928  25.857  12.605  1.00 13.34 LIG-0.18  SA
ATOM     20 HG   CYS B   2      -2.934  25.820  11.406  1.00 13.34 LIG 0.10  HD
ENDBRANCH 18 19
ENDBRANCH 1 18
BRANCH 1 21
ATOM     21  N   CYS B   2      -4.589  23.640  12.653  1.00 10.67 LIG-0.34  N 
ATOM     22 H    CYS B   2      -4.792  23.454  11.839  1.00 10.67 LIG 0.16  HD
ATOM     23  C   LYS B   1      -5.384  24.317  13.429  1.00  9.81 LIG 0.25  C 
ATOM     24 O    LYS B   1      -5.134  24.505  14.620  1.00 12.59 LIG-0.27  OA
BRANCH 23 25
ATOM     25  CA  LYS B   1      -6.745  24.748  12.887  1.00 10.58 LIG 0.27  C 
BRANCH 25 26
ATOM     26  N   LYS B   1      -6.970  26.215  13.161  1.00  8.28 LIG-0.07  N 
ATOM     27 H1   LYS B   1      -6.979  26.356  14.040  1.00  8.28 LIG 0.28  HD
ATOM     28 H3   LYS B   1      -7.750  26.466  12.812  1.00  8.28 LIG 0.28  HD
ATOM     29 H2   LYS B   1      -6.314  26.690  12.792  1.00  8.28 LIG 0.28  HD
ENDBRANCH 25 26
BRANCH 25 30
ATOM     30  CB  LYS B   1      -6.796  24.434  11.383  1.00 12.65 LIG 0.04  C 
BRANCH 30 31
ATOM     31  CG  LYS B   1      -7.756  23.320  10.950  1.00 13.69 LIG 0.00  C 
BRANCH 31 32
ATOM     32  CD  LYS B   1      -8.121  23.449   9.448  1.00 12.46 LIG 0.03  C 
BRANCH 32 33
ATOM     33  CE  LYS B   1      -9.560  22.900   9.214  1.00 14.43 LIG 0.23  C 
BRANCH 33 34
ATOM     34  NZ  LYS B   1      -9.395  21.400   9.165  1.00 15.78 LIG-0.08  N 
ATOM     35 HZ1  LYS B   1      -8.875  21.137   9.837  1.00 15.78 LIG 0.27  HD
ATOM     36 HZ3  LYS B   1      -9.021  21.168   8.392  1.00 15.78 LIG 0.27  HD
ATOM     37 HZ2  LYS B   1     -10.193  21.011   9.237  1.00 15.78 LIG 0.27  HD
ENDBRANCH 33 34
ENDBRANCH 32 33
ENDBRANCH 31 32
ENDBRANCH 30 31
ENDBRANCH 25 30
ENDBRANCH 23 25
ENDBRANCH 1 21
TORSDOF 18
ENDMDL
MODEL 12
USER: ADFR SOLUTION from run 11
USER: SCORE 17.732385 LL:  -1.528 LR: -17.257 RR:   0.000 FEB: -11.888
USER: RMSD 2.922514
USER: SEED 809251
USER: STATUS no improvement in best 40 clusters for 5 generations
USER: GENES 20
USER: genes 0 Translation |==|  0.52142 0.51359 0.52505
USER: genes 1 Rotation |==|  0.87777 0.44943 0.37680 0.79925
USER: genes 2 Torsion [N]-CA--C-[N] |==|  0.63681
USER: genes 3 Torsion [C]-N--CA-[CB] |==|  0.27789
USER: genes 4 Torsion [N]-CA--CB-[CG] |==|  0.87670
USER: genes 5 Torsion [CA]-CB--CG-[CD] |==|  0.43251
USER: genes 6 Torsion [CB]-CG--CD-[CE] |==|  0.37531
USER: genes 7 Torsion [CG]-CD--CE-[NZ] |==|  0.50357
USER: genes 8 Torsion [CD]-CE--NZ-[HZ2] |==|  0.99623
USER: genes 9 Torsion [N]-CA--C-[OXT] |==|  0.71351
USER: genes 10 Torsion [C]-CA--CB-[SG] |==|  0.59958
USER: genes 11 Torsion [CA]-CB--SG-[HG] |==|  0.75212
USER: genes 12 Torsion [C]-CA--N-[C] |==|  0.56979
USER: genes 13 Torsion [N]-C--CA-[N] |==|  0.25794
USER: genes 14 Torsion [C]-CA--N-[H2] |==|  0.84924
USER: genes 15 Torsion [C]-CA--CB-[CG] |==|  0.72091
USER: genes 16 Torsion [CA]-CB--CG-[CD] |==|  0.39320
USER: genes 17 Torsion [CB]-CG--CD-[CE] |==|  0.76659
USER: genes 18 Torsion [CG]-CD--CE-[NZ] |==|  0.90774
USER: genes 19 Torsion [CD]-CE--NZ-[HZ3] |==|  0.55741
ROOT
ATOM      1  CA  CYS B   2       3.393  18.798  14.791  1.00 13.05 LIG 0.18  C 
ENDROOT
BRANCH 1 2
ATOM      2  C   CYS B   2       2.619  20.060  15.133  1.00 11.99 LIG 0.24  C 
ATOM      3  N   LYS B   3       2.281  20.211  16.417  1.00 12.79 LIG-0.34  N 
ATOM      4 H    LYS B   3       2.457  19.643  17.039  1.00 12.79 LIG 0.16  HD
ATOM      5 O    CYS B   2       2.456  20.933  14.274  1.00 13.18 LIG-0.27  OA
BRANCH 3 6
ATOM      6  CA  LYS B   3       1.569  21.394  16.851  1.00 17.07 LIG 0.18  C 
BRANCH 6 7
ATOM      7  CB  LYS B   3       0.059  21.312  17.060  1.00 17.68 LIG 0.04  C 
BRANCH 7 8
ATOM      8  CG  LYS B   3      -0.521  20.538  15.852  1.00 18.86 LIG 0.00  C 
BRANCH 8 9
ATOM      9  CD  LYS B   3      -1.832  19.873  16.147  1.00 20.79 LIG 0.03  C 
BRANCH 9 10
ATOM     10  CE  LYS B   3      -2.899  20.051  15.058  1.00 22.05 LIG 0.23  C 
BRANCH 10 11
ATOM     11  NZ  LYS B   3      -4.160  19.379  15.471  1.00 26.11 LIG-0.08  N 
ATOM     12 HZ2  LYS B   3      -4.043  18.988  16.262  1.00 26.11 LIG 0.27  HD
ATOM     13 HZ1  LYS B   3      -4.381  18.765  14.866  1.00 26.11 LIG 0.27  HD
ATOM     14 HZ3  LYS B   3      -4.811  19.983  15.533  1.00 26.11 LIG 0.27  HD
ENDBRANCH 10 11
ENDBRANCH 9 10
ENDBRANCH 8 9
ENDBRANCH 7 8
ENDBRANCH 6 7
BRANCH 6 15
ATOM     15  C   LYS B   3       2.177  21.940  18.166  1.00 17.69 LIG 0.20  C 
ATOM     16 OXT  LYS B   3       1.639  21.765  19.237  1.00 15.19 LIG-0.65  OA
ATOM     17 O    LYS B   3       3.320  22.415  18.101  1.00 19.25 LIG-0.65  OA
ENDBRANCH 6 15
ENDBRANCH 3 6
ENDBRANCH 1 2
BRANCH 1 18
ATOM     18  CB  CYS B   2       3.706  18.070  16.111  1.00 11.90 LIG 0.10  C 
BRANCH 18 19
ATOM     19 SG   CYS B   2       5.389  17.265  16.005  1.00 13.34 LIG-0.18  SA
ATOM     20 HG   CYS B   2       5.275  16.156  15.562  1.00 13.34 LIG 0.10  HD
ENDBRANCH 18 19
ENDBRANCH 1 18
BRANCH 1 21
ATOM     21  N   CYS B   2       4.589  19.030  13.996  1.00 10.67 LIG-0.34  N 
ATOM     22 H    CYS B   2       4.908  19.822  14.096  1.00 10.67 LIG 0.16  HD
ATOM     23  C   LYS B   1       5.139  18.153  13.209  1.00  9.81 LIG 0.25  C 
ATOM     24 O    LYS B   1       4.734  16.993  13.138  1.00 12.59 LIG-0.27  OA
BRANCH 23 25
ATOM     25  CA  LYS B   1       6.426  18.529  12.481  1.00 10.58 LIG 0.27  C 
BRANCH 25 26
ATOM     26  N   LYS B   1       7.624  18.094  13.290  1.00  8.28 LIG-0.07  N 
ATOM     27 H1   LYS B   1       8.369  18.389  12.901  1.00  8.28 LIG 0.28  HD
ATOM     28 H3   LYS B   1       7.646  17.205  13.335  1.00  8.28 LIG 0.28  HD
ATOM     29 H2   LYS B   1       7.566  18.431  14.112  1.00  8.28 LIG 0.28  HD
ENDBRANCH 25 26
BRANCH 25 30
ATOM     30  CB  LYS B   1       6.412  17.875  11.089  1.00 12.65 LIG 0.04  C 
BRANCH 30 31
ATOM     31  CG  LYS B   1       7.235  16.592  10.928  1.00 13.69 LIG 0.00  C 
BRANCH 31 32
ATOM     32  CD  LYS B   1       6.504  15.569  10.020  1.00 12.46 LIG 0.03  C 
BRANCH 32 33
ATOM     33  CE  LYS B   1       5.484  14.756  10.870  1.00 14.43 LIG 0.23  C 
BRANCH 33 34
ATOM     34  NZ  LYS B   1       6.125  14.640  12.232  1.00 15.78 LIG-0.08  N 
ATOM     35 HZ1  LYS B   1       6.999  14.502  12.137  1.00 15.78 LIG 0.27  HD
ATOM     36 HZ3  LYS B   1       5.764  13.957  12.673  1.00 15.78 LIG 0.27  HD
ATOM     37 HZ2  LYS B   1       5.991  15.393  12.688  1.00 15.78 LIG 0.27  HD
ENDBRANCH 33 34
ENDBRANCH 32 33
ENDBRANCH 31 32
ENDBRANCH 30 31
ENDBRANCH 25 30
ENDBRANCH 23 25
ENDBRANCH 1 21
TORSDOF 18
ENDMDL
MODEL 13
USER: ADFR SOLUTION from run 88
USER: SCORE 17.843527 LL:  -1.461 LR: -17.244 RR:   0.000 FEB: -11.875
USER: RMSD 3.301796
USER: SEED 87
USER: STATUS no improvement in best 73 clusters for 5 generations
USER: GENES 20
USER: genes 0 Translation |==|  0.42763 0.55598 0.58226
USER: genes 1 Rotation |==|  0.54450 0.42295 0.55602 0.98882
USER: genes 2 Torsion [N]-CA--C-[N] |==|  0.58120
USER: genes 3 Torsion [C]-N--CA-[CB] |==|  0.25079
USER: genes 4 Torsion [N]-CA--CB-[CG] |==|  0.85013
USER: genes 5 Torsion [CA]-CB--CG-[CD] |==|  0.68428
USER: genes 6 Torsion [CB]-CG--CD-[CE] |==|  0.06760
USER: genes 7 Torsion [CG]-CD--CE-[NZ] |==|  0.29291
USER: genes 8 Torsion [CD]-CE--NZ-[HZ2] |==|  0.40016
USER: genes 9 Torsion [N]-CA--C-[OXT] |==|  0.30712
USER: genes 10 Torsion [C]-CA--CB-[SG] |==|  0.53972
USER: genes 11 Torsion [CA]-CB--SG-[HG] |==|  0.92576
USER: genes 12 Torsion [C]-CA--N-[C] |==|  0.13076
USER: genes 13 Torsion [N]-C--CA-[N] |==|  0.74896
USER: genes 14 Torsion [C]-CA--N-[H2] |==|  0.11541
USER: genes 15 Torsion [C]-CA--CB-[CG] |==|  0.28915
USER: genes 16 Torsion [CA]-CB--CG-[CD] |==|  0.19305
USER: genes 17 Torsion [CB]-CG--CD-[CE] |==|  0.10818
USER: genes 18 Torsion [CG]-CD--CE-[NZ] |==|  0.21910
USER: genes 19 Torsion [CD]-CE--NZ-[HZ3] |==|  0.07941
ROOT
ATOM      1  CA  CYS B   2       0.579  20.069  16.508  1.00 13.05 LIG 0.18  C 
ENDROOT
BRANCH 1 2
ATOM      2  C   CYS B   2      -0.400  19.863  15.365  1.00 11.99 LIG 0.24  C 
ATOM      3  N   LYS B   3      -1.501  20.621  15.392  1.00 12.79 LIG-0.34  N 
ATOM      4 H    LYS B   3      -1.689  21.189  16.011  1.00 12.79 LIG 0.16  HD
ATOM      5 O    CYS B   2      -0.094  19.133  14.417  1.00 13.18 LIG-0.27  OA
BRANCH 3 6
ATOM      6  CA  LYS B   3      -2.481  20.522  14.332  1.00 17.07 LIG 0.18  C 
BRANCH 6 7
ATOM      7  CB  LYS B   3      -3.625  19.521  14.476  1.00 17.68 LIG 0.04  C 
BRANCH 7 8
ATOM      8  CG  LYS B   3      -2.984  18.141  14.756  1.00 18.86 LIG 0.00  C 
BRANCH 8 9
ATOM      9  CD  LYS B   3      -3.195  17.152  13.648  1.00 20.79 LIG 0.03  C 
BRANCH 9 10
ATOM     10  CE  LYS B   3      -3.449  17.780  12.271  1.00 22.05 LIG 0.23  C 
BRANCH 10 11
ATOM     11  NZ  LYS B   3      -2.237  17.641  11.421  1.00 26.11 LIG-0.08  N 
ATOM     12 HZ2  LYS B   3      -2.480  17.499  10.577  1.00 26.11 LIG 0.27  HD
ATOM     13 HZ1  LYS B   3      -1.749  16.953  11.709  1.00 26.11 LIG 0.27  HD
ATOM     14 HZ3  LYS B   3      -1.753  18.386  11.469  1.00 26.11 LIG 0.27  HD
ENDBRANCH 10 11
ENDBRANCH 9 10
ENDBRANCH 8 9
ENDBRANCH 7 8
ENDBRANCH 6 7
BRANCH 6 15
ATOM     15  C   LYS B   3      -3.124  21.904  14.058  1.00 17.69 LIG 0.20  C 
ATOM     16 OXT  LYS B   3      -2.909  22.515  13.036  1.00 15.19 LIG-0.65  OA
ATOM     17 O    LYS B   3      -3.999  22.281  14.850  1.00 19.25 LIG-0.65  OA
ENDBRANCH 6 15
ENDBRANCH 3 6
ENDBRANCH 1 2
BRANCH 1 18
ATOM     18  CB  CYS B   2       0.383  21.501  17.038  1.00 11.90 LIG 0.10  C 
BRANCH 18 19
ATOM     19 SG   CYS B   2       1.822  21.972  18.133  1.00 13.34 LIG-0.18  SA
ATOM     20 HG   CYS B   2       2.299  20.983  18.616  1.00 13.34 LIG 0.10  HD
ENDBRANCH 18 19
ENDBRANCH 1 18
BRANCH 1 21
ATOM     21  N   CYS B   2       1.965  19.799  16.160  1.00 10.67 LIG-0.34  N 
ATOM     22 H    CYS B   2       2.367  19.309  16.740  1.00 10.67 LIG 0.16  HD
ATOM     23  C   LYS B   1       2.561  20.238  15.090  1.00  9.81 LIG 0.25  C 
ATOM     24 O    LYS B   1       1.961  20.863  14.216  1.00 12.59 LIG-0.27  OA
BRANCH 23 25
ATOM     25  CA  LYS B   1       4.007  19.823  14.835  1.00 10.58 LIG 0.27  C 
BRANCH 25 26
ATOM     26  N   LYS B   1       4.951  20.822  15.460  1.00  8.28 LIG-0.07  N 
ATOM     27 H1   LYS B   1       5.007  21.543  14.941  1.00  8.28 LIG 0.28  HD
ATOM     28 H3   LYS B   1       5.758  20.455  15.546  1.00  8.28 LIG 0.28  HD
ATOM     29 H2   LYS B   1       4.646  21.058  16.262  1.00  8.28 LIG 0.28  HD
ENDBRANCH 25 26
BRANCH 25 30
ATOM     30  CB  LYS B   1       4.220  18.408  15.400  1.00 12.65 LIG 0.04  C 
BRANCH 30 31
ATOM     31  CG  LYS B   1       4.276  17.267  14.378  1.00 13.69 LIG 0.00  C 
BRANCH 31 32
ATOM     32  CD  LYS B   1       5.569  17.342  13.525  1.00 12.46 LIG 0.03  C 
BRANCH 32 33
ATOM     33  CE  LYS B   1       6.763  17.772  14.428  1.00 14.43 LIG 0.23  C 
BRANCH 33 34
ATOM     34  NZ  LYS B   1       7.158  16.514  15.165  1.00 15.78 LIG-0.08  N 
ATOM     35 HZ1  LYS B   1       8.033  16.527  15.326  1.00 15.78 LIG 0.27  HD
ATOM     36 HZ3  LYS B   1       6.958  15.804  14.668  1.00 15.78 LIG 0.27  HD
ATOM     37 HZ2  LYS B   1       6.715  16.470  15.936  1.00 15.78 LIG 0.27  HD
ENDBRANCH 33 34
ENDBRANCH 32 33
ENDBRANCH 31 32
ENDBRANCH 30 31
ENDBRANCH 25 30
ENDBRANCH 23 25
ENDBRANCH 1 21
TORSDOF 18
ENDMDL
MODEL 14
USER: ADFR SOLUTION from run 125
USER: SCORE 18.641318 LL:  -1.504 LR: -17.217 RR:   0.000 FEB: -11.848
USER: RMSD 6.209781
USER: SEED 124
USER: STATUS no improvement in best 55 clusters for 5 generations
USER: GENES 20
USER: genes 0 Translation |==|  0.40973 0.55039 0.54138
USER: genes 1 Rotation |==|  0.93717 0.32864 0.54625 0.66546
USER: genes 2 Torsion [N]-CA--C-[N] |==|  0.37779
USER: genes 3 Torsion [C]-N--CA-[CB] |==|  0.45620
USER: genes 4 Torsion [N]-CA--CB-[CG] |==|  0.52262
USER: genes 5 Torsion [CA]-CB--CG-[CD] |==|  0.66476
USER: genes 6 Torsion [CB]-CG--CD-[CE] |==|  0.39748
USER: genes 7 Torsion [CG]-CD--CE-[NZ] |==|  0.54030
USER: genes 8 Torsion [CD]-CE--NZ-[HZ2] |==|  0.53348
USER: genes 9 Torsion [N]-CA--C-[OXT] |==|  0.46118
USER: genes 10 Torsion [C]-CA--CB-[SG] |==|  0.11874
USER: genes 11 Torsion [CA]-CB--SG-[HG] |==|  0.67644
USER: genes 12 Torsion [C]-CA--N-[C] |==|  0.75711
USER: genes 13 Torsion [N]-C--CA-[N] |==|  0.39502
USER: genes 14 Torsion [C]-CA--N-[H2] |==|  0.15375
USER: genes 15 Torsion [C]-CA--CB-[CG] |==|  0.55435
USER: genes 16 Torsion [CA]-CB--CG-[CD] |==|  0.79131
USER: genes 17 Torsion [CB]-CG--CD-[CE] |==|  0.59893
USER: genes 18 Torsion [CG]-CD--CE-[NZ] |==|  0.75652
USER: genes 19 Torsion [CD]-CE--NZ-[HZ3] |==|  0.48191
ROOT
ATOM      1  CA  CYS B   2       0.042  19.902  15.281  1.00 13.05 LIG 0.18  C 
ENDROOT
BRANCH 1 2
ATOM      2  C   CYS B   2      -0.816  21.156  15.285  1.00 11.99 LIG 0.24  C 
ATOM      3  N   LYS B   3      -1.468  21.423  14.150  1.00 12.79 LIG-0.34  N 
ATOM      4 H    LYS B   3      -1.417  20.949  13.433  1.00 12.79 LIG 0.16  HD
ATOM      5 O    CYS B   2      -0.984  21.783  16.336  1.00 13.18 LIG-0.27  OA
BRANCH 3 6
ATOM      6  CA  LYS B   3      -2.337  22.578  14.061  1.00 17.07 LIG 0.18  C 
BRANCH 6 7
ATOM      7  CB  LYS B   3      -2.776  23.066  12.683  1.00 17.68 LIG 0.04  C 
BRANCH 7 8
ATOM      8  CG  LYS B   3      -3.509  24.413  12.895  1.00 18.86 LIG 0.00  C 
BRANCH 8 9
ATOM      9  CD  LYS B   3      -4.926  24.401  12.406  1.00 20.79 LIG 0.03  C 
BRANCH 9 10
ATOM     10  CE  LYS B   3      -5.909  25.197  13.276  1.00 22.05 LIG 0.23  C 
BRANCH 10 11
ATOM     11  NZ  LYS B   3      -7.307  24.838  12.916  1.00 26.11 LIG-0.08  N 
ATOM     12 HZ2  LYS B   3      -7.868  25.419  13.290  1.00 26.11 LIG 0.27  HD
ATOM     13 HZ1  LYS B   3      -7.488  24.018  13.210  1.00 26.11 LIG 0.27  HD
ATOM     14 HZ3  LYS B   3      -7.401  24.863  12.031  1.00 26.11 LIG 0.27  HD
ENDBRANCH 10 11
ENDBRANCH 9 10
ENDBRANCH 8 9
ENDBRANCH 7 8
ENDBRANCH 6 7
BRANCH 6 15
ATOM     15  C   LYS B   3      -3.625  22.351  14.889  1.00 17.69 LIG 0.20  C 
ATOM     16 OXT  LYS B   3      -4.373  23.262  15.165  1.00 15.19 LIG-0.65  OA
ATOM     17 O    LYS B   3      -3.947  21.176  15.114  1.00 19.25 LIG-0.65  OA
ENDBRANCH 6 15
ENDBRANCH 3 6
ENDBRANCH 1 2
BRANCH 1 18
ATOM     18  CB  CYS B   2      -0.765  18.781  15.961  1.00 11.90 LIG 0.10  C 
BRANCH 18 19
ATOM     19 SG   CYS B   2      -2.537  18.829  15.368  1.00 13.34 LIG-0.18  SA
ATOM     20 HG   CYS B   2      -3.262  19.074  16.291  1.00 13.34 LIG 0.10  HD
ENDBRANCH 18 19
ENDBRANCH 1 18
BRANCH 1 21
ATOM     21  N   CYS B   2       1.353  20.077  15.887  1.00 10.67 LIG-0.34  N 
ATOM     22 H    CYS B   2       1.365  19.878  16.723  1.00 10.67 LIG 0.16  HD
ATOM     23  C   LYS B   1       2.413  20.489  15.255  1.00  9.81 LIG 0.25  C 
ATOM     24 O    LYS B   1       2.416  20.686  14.040  1.00 12.59 LIG-0.27  OA
BRANCH 23 25
ATOM     25  CA  LYS B   1       3.734  20.570  16.016  1.00 10.58 LIG 0.27  C 
BRANCH 25 26
ATOM     26  N   LYS B   1       4.874  20.151  15.119  1.00  8.28 LIG-0.07  N 
ATOM     27 H1   LYS B   1       4.780  19.293  14.899  1.00  8.28 LIG 0.28  HD
ATOM     28 H3   LYS B   1       5.646  20.265  15.548  1.00  8.28 LIG 0.28  HD
ATOM     29 H2   LYS B   1       4.869  20.647  14.381  1.00  8.28 LIG 0.28  HD
ENDBRANCH 25 26
BRANCH 25 30
ATOM     30  CB  LYS B   1       3.915  22.005  16.535  1.00 12.65 LIG 0.04  C 
BRANCH 30 31
ATOM     31  CG  LYS B   1       5.343  22.421  16.910  1.00 13.69 LIG 0.00  C 
BRANCH 31 32
ATOM     32  CD  LYS B   1       5.773  21.789  18.259  1.00 12.46 LIG 0.03  C 
BRANCH 32 33
ATOM     33  CE  LYS B   1       6.673  22.792  19.039  1.00 14.43 LIG 0.23  C 
BRANCH 33 34
ATOM     34  NZ  LYS B   1       8.073  22.515  18.546  1.00 15.78 LIG-0.08  N 
ATOM     35 HZ1  LYS B   1       8.324  21.702  18.807  1.00 15.78 LIG 0.27  HD
ATOM     36 HZ3  LYS B   1       8.631  23.120  18.882  1.00 15.78 LIG 0.27  HD
ATOM     37 HZ2  LYS B   1       8.089  22.559  17.656  1.00 15.78 LIG 0.27  HD
ENDBRANCH 33 34
ENDBRANCH 32 33
ENDBRANCH 31 32
ENDBRANCH 30 31
ENDBRANCH 25 30
ENDBRANCH 23 25
ENDBRANCH 1 21
TORSDOF 18
ENDMDL
MODEL 15
USER: ADFR SOLUTION from run 6
USER: SCORE 17.782905 LL:  -1.377 LR: -16.941 RR:   0.000 FEB: -11.572
USER: RMSD 6.036953
USER: SEED 843809
USER: STATUS no improvement in best 71 clusters for 5 generations
USER: GENES 20
USER: genes 0 Translation |==|  0.55269 0.56381 0.57325
USER: genes 1 Rotation |==|  0.08177 0.45653 0.27045 0.64319
USER: genes 2 Torsion [N]-CA--C-[N] |==|  0.99519
USER: genes 3 Torsion [C]-N--CA-[CB] |==|  0.22767
USER: genes 4 Torsion [N]-CA--CB-[CG] |==|  0.57068
USER: genes 5 Torsion [CA]-CB--CG-[CD] |==|  0.58429
USER: genes 6 Torsion [CB]-CG--CD-[CE] |==|  0.51473
USER: genes 7 Torsion [CG]-CD--CE-[NZ] |==|  0.18221
USER: genes 8 Torsion [CD]-CE--NZ-[HZ2] |==|  0.12142
USER: genes 9 Torsion [N]-CA--C-[OXT] |==|  0.25942
USER: genes 10 Torsion [C]-CA--CB-[SG] |==|  0.90648
USER: genes 11 Torsion [CA]-CB--SG-[HG] |==|  0.58061
USER: genes 12 Torsion [C]-CA--N-[C] |==|  0.60102
USER: genes 13 Torsion [N]-C--CA-[N] |==|  0.02749
USER: genes 14 Torsion [C]-CA--N-[H2] |==|  0.42643
USER: genes 15 Torsion [C]-CA--CB-[CG] |==|  0.50797
USER: genes 16 Torsion [CA]-CB--CG-[CD] |==|  0.39170
USER: genes 17 Torsion [CB]-CG--CD-[CE] |==|  0.47057
USER: genes 18 Torsion [CG]-CD--CE-[NZ] |==|  0.93651
USER: genes 19 Torsion [CD]-CE--NZ-[HZ3] |==|  0.19421
ROOT
ATOM      1  CA  CYS B   2       4.331  20.304  16.238  1.00 13.05 LIG 0.18  C 
ENDROOT
BRANCH 1 2
ATOM      2  C   CYS B   2       3.002  20.134  15.520  1.00 11.99 LIG 0.24  C 
ATOM      3  N   LYS B   3       1.926  20.001  16.302  1.00 12.79 LIG-0.34  N 
ATOM      4 H    LYS B   3       1.946  19.990  17.162  1.00 12.79 LIG 0.16  HD
ATOM      5 O    CYS B   2       2.946  20.257  14.292  1.00 13.18 LIG-0.27  OA
BRANCH 3 6
ATOM      6  CA  LYS B   3       0.610  19.864  15.715  1.00 17.07 LIG 0.18  C 
BRANCH 6 7
ATOM      7  CB  LYS B   3       0.161  18.490  15.224  1.00 17.68 LIG 0.04  C 
BRANCH 7 8
ATOM      8  CG  LYS B   3      -0.900  18.730  14.124  1.00 18.86 LIG 0.00  C 
BRANCH 8 9
ATOM      9  CD  LYS B   3      -1.927  17.640  14.041  1.00 20.79 LIG 0.03  C 
BRANCH 9 10
ATOM     10  CE  LYS B   3      -2.918  17.783  12.878  1.00 22.05 LIG 0.23  C 
BRANCH 10 11
ATOM     11  NZ  LYS B   3      -2.201  17.640  11.583  1.00 26.11 LIG-0.08  N 
ATOM     12 HZ2  LYS B   3      -1.630  16.958  11.632  1.00 26.11 LIG 0.27  HD
ATOM     13 HZ1  LYS B   3      -1.753  18.389  11.407  1.00 26.11 LIG 0.27  HD
ATOM     14 HZ3  LYS B   3      -2.789  17.487  10.933  1.00 26.11 LIG 0.27  HD
ENDBRANCH 10 11
ENDBRANCH 9 10
ENDBRANCH 8 9
ENDBRANCH 7 8
ENDBRANCH 6 7
BRANCH 6 15
ATOM     15  C   LYS B   3      -0.475  20.368  16.698  1.00 17.69 LIG 0.20  C 
ATOM     16 OXT  LYS B   3      -0.886  21.506  16.664  1.00 15.19 LIG-0.65  OA
ATOM     17 O    LYS B   3      -1.028  19.515  17.408  1.00 19.25 LIG-0.65  OA
ENDBRANCH 6 15
ENDBRANCH 3 6
ENDBRANCH 1 2
BRANCH 1 18
ATOM     18  CB  CYS B   2       5.271  19.188  15.751  1.00 11.90 LIG 0.10  C 
BRANCH 18 19
ATOM     19 SG   CYS B   2       4.285  17.640  15.397  1.00 13.34 LIG-0.18  SA
ATOM     20 HG   CYS B   2       4.977  16.676  15.575  1.00 13.34 LIG 0.10  HD
ENDBRANCH 18 19
ENDBRANCH 1 18
BRANCH 1 21
ATOM     21  N   CYS B   2       4.223  20.337  17.688  1.00 10.67 LIG-0.34  N 
ATOM     22 H    CYS B   2       3.618  19.807  17.991  1.00 10.67 LIG 0.16  HD
ATOM     23  C   LYS B   1       4.950  21.080  18.470  1.00  9.81 LIG 0.25  C 
ATOM     24 O    LYS B   1       5.876  21.770  18.042  1.00 12.59 LIG-0.27  OA
BRANCH 23 25
ATOM     25  CA  LYS B   1       4.758  20.963  19.979  1.00 10.58 LIG 0.27  C 
BRANCH 25 26
ATOM     26  N   LYS B   1       3.875  19.781  20.298  1.00  8.28 LIG-0.07  N 
ATOM     27 H1   LYS B   1       4.021  19.133  19.705  1.00  8.28 LIG 0.28  HD
ATOM     28 H3   LYS B   1       3.021  20.029  20.262  1.00  8.28 LIG 0.28  HD
ATOM     29 H2   LYS B   1       4.063  19.482  21.115  1.00  8.28 LIG 0.28  HD
ENDBRANCH 25 26
BRANCH 25 30
ATOM     30  CB  LYS B   1       6.139  20.838  20.643  1.00 12.65 LIG 0.04  C 
BRANCH 30 31
ATOM     31  CG  LYS B   1       6.150  20.641  22.163  1.00 13.69 LIG 0.00  C 
BRANCH 31 32
ATOM     32  CD  LYS B   1       7.253  19.637  22.588  1.00 12.46 LIG 0.03  C 
BRANCH 32 33
ATOM     33  CE  LYS B   1       7.413  19.666  24.137  1.00 14.43 LIG 0.23  C 
BRANCH 33 34
ATOM     34  NZ  LYS B   1       6.877  21.015  24.553  1.00 15.78 LIG-0.08  N 
ATOM     35 HZ1  LYS B   1       7.068  21.159  25.410  1.00 15.78 LIG 0.27  HD
ATOM     36 HZ3  LYS B   1       5.995  21.032  24.439  1.00 15.78 LIG 0.27  HD
ATOM     37 HZ2  LYS B   1       7.252  21.650  24.054  1.00 15.78 LIG 0.27  HD
ENDBRANCH 33 34
ENDBRANCH 32 33
ENDBRANCH 31 32
ENDBRANCH 30 31
ENDBRANCH 25 30
ENDBRANCH 23 25
ENDBRANCH 1 21
TORSDOF 18
ENDMDL
MODEL 16
USER: ADFR SOLUTION from run 39
USER: SCORE 18.331247 LL:  -1.454 LR: -16.916 RR:   0.000 FEB: -11.547
USER: RMSD 5.344560
USER: SEED 38
USER: STATUS no improvement in best 58 clusters for 5 generations
USER: GENES 20
USER: genes 0 Translation |==|  0.50370 0.50725 0.54303
USER: genes 1 Rotation |==|  0.88021 0.25057 0.30009 0.55711
USER: genes 2 Torsion [N]-CA--C-[N] |==|  0.44363
USER: genes 3 Torsion [C]-N--CA-[CB] |==|  0.25821
USER: genes 4 Torsion [N]-CA--CB-[CG] |==|  0.75551
USER: genes 5 Torsion [CA]-CB--CG-[CD] |==|  0.85620
USER: genes 6 Torsion [CB]-CG--CD-[CE] |==|  0.55844
USER: genes 7 Torsion [CG]-CD--CE-[NZ] |==|  0.95695
USER: genes 8 Torsion [CD]-CE--NZ-[HZ2] |==|  0.51094
USER: genes 9 Torsion [N]-CA--C-[OXT] |==|  0.89933
USER: genes 10 Torsion [C]-CA--CB-[SG] |==|  0.17744
USER: genes 11 Torsion [CA]-CB--SG-[HG] |==|  0.80589
USER: genes 12 Torsion [C]-CA--N-[C] |==|  0.81111
USER: genes 13 Torsion [N]-C--CA-[N] |==|  0.78955
USER: genes 14 Torsion [C]-CA--N-[H2] |==|  0.86852
USER: genes 15 Torsion [C]-CA--CB-[CG] |==|  0.27193
USER: genes 16 Torsion [CA]-CB--CG-[CD] |==|  0.53893
USER: genes 17 Torsion [CB]-CG--CD-[CE] |==|  0.68113
USER: genes 18 Torsion [CG]-CD--CE-[NZ] |==|  0.31659
USER: genes 19 Torsion [CD]-CE--NZ-[HZ3] |==|  0.95583
ROOT
ATOM      1  CA  CYS B   2       2.861  18.607  15.331  1.00 13.05 LIG 0.18  C 
ENDROOT
BRANCH 1 2
ATOM      2  C   CYS B   2       3.241  19.611  16.406  1.00 11.99 LIG 0.24  C 
ATOM      3  N   LYS B   3       2.389  20.624  16.590  1.00 12.79 LIG-0.34  N 
ATOM      4 H    LYS B   3       1.669  20.746  16.136  1.00 12.79 LIG 0.16  HD
ATOM      5 O    CYS B   2       4.213  19.391  17.137  1.00 13.18 LIG-0.27  OA
BRANCH 3 6
ATOM      6  CA  LYS B   3       2.645  21.617  17.612  1.00 17.07 LIG 0.18  C 
BRANCH 6 7
ATOM      7  CB  LYS B   3       3.399  22.889  17.232  1.00 17.68 LIG 0.04  C 
BRANCH 7 8
ATOM      8  CG  LYS B   3       4.907  22.584  17.394  1.00 18.86 LIG 0.00  C 
BRANCH 8 9
ATOM      9  CD  LYS B   3       5.256  22.007  18.734  1.00 20.79 LIG 0.03  C 
BRANCH 9 10
ATOM     10  CE  LYS B   3       6.730  22.159  19.132  1.00 22.05 LIG 0.23  C 
BRANCH 10 11
ATOM     11  NZ  LYS B   3       7.541  22.514  17.937  1.00 26.11 LIG-0.08  N 
ATOM     12 HZ2  LYS B   3       8.402  22.545  18.161  1.00 26.11 LIG 0.27  HD
ATOM     13 HZ1  LYS B   3       7.286  23.309  17.629  1.00 26.11 LIG 0.27  HD
ATOM     14 HZ3  LYS B   3       7.422  21.900  17.304  1.00 26.11 LIG 0.27  HD
ENDBRANCH 10 11
ENDBRANCH 9 10
ENDBRANCH 8 9
ENDBRANCH 7 8
ENDBRANCH 6 7
BRANCH 6 15
ATOM     15  C   LYS B   3       1.321  22.061  18.279  1.00 17.69 LIG 0.20  C 
ATOM     16 OXT  LYS B   3       0.293  22.166  17.648  1.00 15.19 LIG-0.65  OA
ATOM     17 O    LYS B   3       1.315  22.140  19.516  1.00 19.25 LIG-0.65  OA
ENDBRANCH 6 15
ENDBRANCH 3 6
ENDBRANCH 1 2
BRANCH 1 18
ATOM     18  CB  CYS B   2       1.729  17.729  15.892  1.00 11.90 LIG 0.10  C 
BRANCH 18 19
ATOM     19 SG   CYS B   2       0.217  18.778  16.218  1.00 13.34 LIG-0.18  SA
ATOM     20 HG   CYS B   2       0.427  19.505  17.149  1.00 13.34 LIG 0.10  HD
ENDBRANCH 18 19
ENDBRANCH 1 18
BRANCH 1 21
ATOM     21  N   CYS B   2       3.976  17.815  14.836  1.00 10.67 LIG-0.34  N 
ATOM     22 H    CYS B   2       3.920  16.985  15.055  1.00 10.67 LIG 0.16  HD
ATOM     23  C   LYS B   1       4.967  18.283  14.136  1.00  9.81 LIG 0.25  C 
ATOM     24 O    LYS B   1       4.999  19.451  13.746  1.00 12.59 LIG-0.27  OA
BRANCH 23 25
ATOM     25  CA  LYS B   1       6.037  17.314  13.641  1.00 10.58 LIG 0.27  C 
BRANCH 25 26
ATOM     26  N   LYS B   1       6.949  16.926  14.779  1.00  8.28 LIG-0.07  N 
ATOM     27 H1   LYS B   1       7.670  16.515  14.456  1.00  8.28 LIG 0.28  HD
ATOM     28 H3   LYS B   1       6.518  16.377  15.332  1.00  8.28 LIG 0.28  HD
ATOM     29 H2   LYS B   1       7.199  17.656  15.222  1.00  8.28 LIG 0.28  HD
ENDBRANCH 25 26
BRANCH 25 30
ATOM     30  CB  LYS B   1       5.343  16.088  13.024  1.00 12.65 LIG 0.04  C 
BRANCH 30 31
ATOM     31  CG  LYS B   1       5.198  16.082  11.498  1.00 13.69 LIG 0.00  C 
BRANCH 31 32
ATOM     32  CD  LYS B   1       4.193  14.994  11.036  1.00 12.46 LIG 0.03  C 
BRANCH 32 33
ATOM     33  CE  LYS B   1       4.944  13.913  10.205  1.00 14.43 LIG 0.23  C 
BRANCH 33 34
ATOM     34  NZ  LYS B   1       4.858  12.658  11.040  1.00 15.78 LIG-0.08  N 
ATOM     35 HZ1  LYS B   1       4.250  12.110  10.691  1.00 15.78 LIG 0.27  HD
ATOM     36 HZ3  LYS B   1       4.624  12.870  11.871  1.00 15.78 LIG 0.27  HD
ATOM     37 HZ2  LYS B   1       5.651  12.252  11.050  1.00 15.78 LIG 0.27  HD
ENDBRANCH 33 34
ENDBRANCH 32 33
ENDBRANCH 31 32
ENDBRANCH 30 31
ENDBRANCH 25 30
ENDBRANCH 23 25
ENDBRANCH 1 21
TORSDOF 18
ENDMDL
