MODEL 1
USER: ADFR SOLUTION from run 12
USER: SCORE 18.960694 LL:  -4.276 LR: -16.882 RR:   0.000 FEB: -10.617
USER: RMSD 10.521192
USER: SEED 438320
USER: STATUS searching
USER: GENES 23
USER: genes 0 Translation |==|  0.47481 0.61523 0.50965
USER: genes 1 Rotation |==|  0.54620 0.56994 0.00815 0.53253
USER: genes 2 Torsion [C]-N--CA-[CB] |==|  0.26262
USER: genes 3 Torsion [N]-CA--CB-[CG] |==|  0.94095
USER: genes 4 Torsion [CA]-CB--CG-[CD] |==|  0.57659
USER: genes 5 Torsion [CB]-CG--CD-[OE2] |==|  0.58878
USER: genes 6 Torsion [N]-CA--C-[N] |==|  0.26111
USER: genes 7 Torsion [C]-N--CA-[C] |==|  0.52298
USER: genes 8 Torsion [N]-CA--C-[N] |==|  0.44714
USER: genes 9 Torsion [C]-N--CA-[C] |==|  0.56971
USER: genes 10 Torsion [N]-CA--C-[O] |==|  0.20590
USER: genes 11 Torsion [N]-CA--CB-[CG] |==|  0.64446
USER: genes 12 Torsion [CA]-CB--CG-[CD1] |==|  0.20844
USER: genes 13 Torsion [N]-CA--CB-[CG2] |==|  0.36186
USER: genes 14 Torsion [CA]-CB--OG1-[HG1] |==|  0.10574
USER: genes 15 Torsion [N]-C--CA-[N] |==|  0.22509
USER: genes 16 Torsion [C]-CA--CB-[CG] |==|  0.79711
USER: genes 17 Torsion [CA]-CB--CG-[CD2] |==|  0.31805
USER: genes 18 Torsion [C]-CA--N-[C] |==|  0.58000
USER: genes 19 Torsion [N]-C--CA-[N] |==|  0.01212
USER: genes 20 Torsion [C]-CA--N-[C] |==|  0.71723
USER: genes 21 Torsion [C]-CA--CB-[CG] |==|  0.92206
USER: genes 22 Torsion [CA]-CB--CG-[OD1] |==|  0.33113
ROOT
ATOM      1  C   TRP T   2      69.854  48.187   5.190  1.00 22.72 LIG 0.24  C 
ATOM      2 O    TRP T   2      68.725  47.739   4.936  1.00 25.73 LIG-0.27  OA
ATOM      3  N   GLU T   3      70.970  47.561   4.840  1.00 22.46 LIG-0.35  N 
ATOM      4 H    GLU T   3      71.766  47.821   5.032  1.00 22.46 LIG 0.16  HD
ENDROOT
BRANCH 3 5
ATOM      5  CA  GLU T   3      70.882  46.340   4.071  1.00 22.12 LIG 0.18  C 
BRANCH 5 6
ATOM      6  CB  GLU T   3      71.009  46.642   2.580  1.00 23.21 LIG 0.04  C 
BRANCH 6 7
ATOM      7  CG  GLU T   3      70.678  48.078   2.257  1.00 26.62 LIG 0.12  C 
BRANCH 7 8
ATOM      8  CD  GLU T   3      70.160  48.253   0.868  1.00 29.06 LIG 0.17  C 
ATOM      9 OE2  GLU T   3      70.413  49.325   0.271  1.00 35.17 LIG-0.65  OA
ATOM     10 OE1  GLU T   3      69.497  47.325   0.368  1.00 32.66 LIG-0.65  OA
ENDBRANCH 7 8
ENDBRANCH 6 7
ENDBRANCH 5 6
BRANCH 5 11
ATOM     11  C   GLU T   3      71.931  45.339   4.475  1.00 21.48 LIG 0.24  C 
ATOM     12  N   THR T   4      71.525  44.467   5.378  1.00 23.46 LIG-0.34  N 
ATOM     13 H    THR T   4      70.725  44.475   5.697  1.00 23.46 LIG 0.16  HD
ATOM     14 O    GLU T   3      73.055  45.375   4.018  1.00 21.28 LIG-0.27  OA
BRANCH 12 15
ATOM     15  CA  THR T   4      72.339  43.413   5.937  1.00 25.11 LIG 0.20  C 
BRANCH 15 16
ATOM     16  C   THR T   4      71.464  42.494   6.787  1.00 26.24 LIG 0.24  C 
ATOM     17 O    THR T   4      70.324  42.824   7.093  1.00 26.41 LIG-0.27  OA
ATOM     18  N   PHE T   5      71.962  41.291   7.039  1.00 29.12 LIG-0.34  N 
ATOM     19 H    PHE T   5      72.710  41.012   6.721  1.00 29.12 LIG 0.16  HD
BRANCH 18 20
ATOM     20  CA  PHE T   5      71.284  40.323   7.885  1.00 29.36 LIG 0.19  C 
BRANCH 20 21
ATOM     21  C   PHE T   5      72.327  39.344   8.486  1.00 32.56 LIG 0.20  C 
ATOM     22 O    PHE T   5      73.062  39.776   9.406  1.00 36.67 LIG-0.65  OA
ATOM     23 OXT  PHE T   5      72.405  38.153   8.073  1.00 34.39 LIG-0.65  OA
ENDBRANCH 20 21
BRANCH 20 24
ATOM     24  CB  PHE T   5      70.284  39.512   7.072  1.00 26.24 LIG 0.07  C 
BRANCH 24 25
ATOM     25  CG  PHE T   5      68.906  39.475   7.644  1.00 22.58 LIG-0.06  A 
ATOM     26  CD1 PHE T   5      68.079  40.579   7.542  1.00 21.65 LIG 0.01  A 
ATOM     27  CE1 PHE T   5      66.862  40.602   8.171  1.00 20.51 LIG 0.00  A 
ATOM     28  CZ  PHE T   5      66.454  39.517   8.904  1.00 20.87 LIG 0.00  A 
ATOM     29  CE2 PHE T   5      67.272  38.402   9.000  1.00 20.50 LIG 0.00  A 
ATOM     30  CD2 PHE T   5      68.478  38.386   8.375  1.00 18.29 LIG 0.01  A 
ENDBRANCH 24 25
ENDBRANCH 20 24
ENDBRANCH 18 20
ENDBRANCH 15 16
BRANCH 15 31
ATOM     31  CB  THR T   4      73.473  44.101   6.776  1.00 25.29 LIG 0.15  C 
ATOM     32  CG2 THR T   4      73.618  43.537   8.168  1.00 28.15 LIG 0.04  C 
BRANCH 31 33
ATOM     33 OG1  THR T   4      74.717  44.038   6.060  1.00 26.44 LIG-0.39  OA
ATOM     34 HG1  THR T   4      74.575  44.152   5.240  1.00 26.44 LIG 0.21  HD
ENDBRANCH 31 33
ENDBRANCH 15 31
ENDBRANCH 12 15
ENDBRANCH 5 11
ENDBRANCH 3 5
BRANCH 1 35
ATOM     35  CA  TRP T   2      70.026  49.477   5.980  1.00 22.55 LIG 0.18  C 
BRANCH 35 36
ATOM     36  CB  TRP T   2      68.741  49.773   6.764  1.00 18.37 LIG 0.07  C 
BRANCH 36 37
ATOM     37  CG  TRP T   2      67.622  50.243   5.869  1.00 15.70 LIG-0.03  A 
ATOM     38  CD2 TRP T   2      66.396  49.557   5.611  1.00  9.74 LIG-0.00  A 
ATOM     39  CE2 TRP T   2      65.645  50.356   4.730  1.00 12.08 LIG 0.04  A 
ATOM     40  CE3 TRP T   2      65.864  48.339   6.025  1.00  8.42 LIG 0.01  A 
ATOM     41  CZ2 TRP T   2      64.391  49.971   4.267  1.00 12.57 LIG 0.03  A 
ATOM     42  NE1 TRP T   2      66.379  51.487   4.466  1.00 15.46 LIG-0.36  N 
ATOM     43  CH2 TRP T   2      63.911  48.772   4.699  1.00  9.29 LIG 0.00  A 
ATOM     44  CZ3 TRP T   2      64.641  47.967   5.572  1.00  5.55 LIG 0.00  A 
ATOM     45 HE1  TRP T   2      66.136  52.133   3.953  1.00 15.46 LIG 0.17  HD
ATOM     46  CD1 TRP T   2      67.564  51.418   5.157  1.00 15.83 LIG 0.10  A 
ENDBRANCH 36 37
ENDBRANCH 35 36
BRANCH 35 47
ATOM     47  N   TRP T   2      70.330  50.633   5.147  1.00 22.15 LIG-0.35  N 
ATOM     48  C   ASN T   1      71.034  51.670   5.572  1.00 24.32 LIG 0.24  C 
ATOM     49 O    ASN T   1      71.442  51.776   6.733  1.00 24.18 LIG-0.27  OA
ATOM     50 H    TRP T   2      70.009  50.578   4.351  1.00 22.15 LIG 0.16  HD
BRANCH 48 51
ATOM     51  CA  ASN T   1      71.161  52.826   4.585  1.00 25.81 LIG 0.18  C 
BRANCH 51 52
ATOM     52  N   ASN T   1      70.437  52.727   3.344  1.00 28.18 LIG-0.35  N 
ATOM     53  C   ACE T   0      71.075  52.386   2.229  1.00 27.70 LIG 0.21  C 
ATOM     54 O    ACE T   0      70.951  52.998   1.193  1.00 31.05 LIG-0.27  OA
ATOM     55  CH3 ACE T   0      72.045  51.230   2.297  1.00 28.48 LIG 0.12  C 
ATOM     56 H    ASN T   1      69.597  52.901   3.395  1.00 28.18 LIG 0.16  HD
ENDBRANCH 51 52
BRANCH 51 57
ATOM     57  CB  ASN T   1      71.036  54.230   5.237  1.00 27.81 LIG 0.14  C 
BRANCH 57 58
ATOM     58  CG  ASN T   1      70.178  54.258   6.509  1.00 34.08 LIG 0.22  C 
ATOM     59 OD1  ASN T   1      70.645  54.604   7.595  1.00 41.34 LIG-0.27  OA
ATOM     60  ND2 ASN T   1      68.893  53.973   6.355  1.00 39.83 LIG-0.37  N 
ATOM     61 22HD ASN T   1      68.595  53.734   5.584  1.00 39.83 LIG 0.16  HD
ATOM     62 21HD ASN T   1      68.357  54.027   7.025  1.00 39.83 LIG 0.16  HD
ENDBRANCH 57 58
ENDBRANCH 51 57
ENDBRANCH 48 51
ENDBRANCH 35 47
ENDBRANCH 1 35
TORSDOF 21
ENDMDL
MODEL 2
USER: ADFR SOLUTION from run 10
USER: SCORE 19.781907 LL:  -4.944 LR: -16.827 RR:   0.000 FEB: -10.563
USER: RMSD 9.609402
USER: SEED 654573
USER: STATUS 1 or 2 clusters left
USER: GENES 23
USER: genes 0 Translation |==|  0.61390 0.28121 0.36313
USER: genes 1 Rotation |==|  0.82607 0.21639 0.33861 0.69286
USER: genes 2 Torsion [C]-N--CA-[CB] |==|  0.20264
USER: genes 3 Torsion [N]-CA--CB-[CG] |==|  0.71278
USER: genes 4 Torsion [CA]-CB--CG-[CD] |==|  0.72439
USER: genes 5 Torsion [CB]-CG--CD-[OE2] |==|  0.88472
USER: genes 6 Torsion [N]-CA--C-[N] |==|  0.78930
USER: genes 7 Torsion [C]-N--CA-[C] |==|  0.11671
USER: genes 8 Torsion [N]-CA--C-[N] |==|  0.15000
USER: genes 9 Torsion [C]-N--CA-[C] |==|  0.54228
USER: genes 10 Torsion [N]-CA--C-[O] |==|  0.23425
USER: genes 11 Torsion [N]-CA--CB-[CG] |==|  0.68901
USER: genes 12 Torsion [CA]-CB--CG-[CD1] |==|  0.52555
USER: genes 13 Torsion [N]-CA--CB-[CG2] |==|  0.84988
USER: genes 14 Torsion [CA]-CB--OG1-[HG1] |==|  0.18295
USER: genes 15 Torsion [N]-C--CA-[N] |==|  0.92476
USER: genes 16 Torsion [C]-CA--CB-[CG] |==|  0.88691
USER: genes 17 Torsion [CA]-CB--CG-[CD2] |==|  0.79048
USER: genes 18 Torsion [C]-CA--N-[C] |==|  0.65173
USER: genes 19 Torsion [N]-C--CA-[N] |==|  0.16579
USER: genes 20 Torsion [C]-CA--N-[C] |==|  0.60992
USER: genes 21 Torsion [C]-CA--CB-[CG] |==|  0.18371
USER: genes 22 Torsion [CA]-CB--CG-[OD1] |==|  0.82021
ROOT
ATOM      1  C   TRP T   2      74.027  38.166   0.794  1.00 22.72 LIG 0.24  C 
ATOM      2 O    TRP T   2      73.984  36.954   1.055  1.00 25.73 LIG-0.27  OA
ATOM      3  N   GLU T   3      73.750  39.104   1.690  1.00 22.46 LIG-0.35  N 
ATOM      4 H    GLU T   3      73.731  39.949   1.535  1.00 22.46 LIG 0.16  HD
ENDROOT
BRANCH 3 5
ATOM      5  CA  GLU T   3      73.449  38.713   3.048  1.00 22.12 LIG 0.18  C 
BRANCH 5 6
ATOM      6  CB  GLU T   3      74.719  38.255   3.761  1.00 23.21 LIG 0.04  C 
BRANCH 6 7
ATOM      7  CG  GLU T   3      74.798  36.754   3.881  1.00 26.62 LIG 0.12  C 
BRANCH 7 8
ATOM      8  CD  GLU T   3      74.374  36.258   5.224  1.00 29.06 LIG 0.17  C 
ATOM      9 OE2  GLU T   3      74.749  36.893   6.237  1.00 35.17 LIG-0.65  OA
ATOM     10 OE1  GLU T   3      73.667  35.234   5.275  1.00 32.66 LIG-0.65  OA
ENDBRANCH 7 8
ENDBRANCH 6 7
ENDBRANCH 5 6
BRANCH 5 11
ATOM     11  C   GLU T   3      72.805  39.827   3.830  1.00 21.48 LIG 0.24  C 
ATOM     12  N   THR T   4      73.642  40.772   4.213  1.00 23.46 LIG-0.34  N 
ATOM     13 H    THR T   4      74.481  40.747   4.021  1.00 23.46 LIG 0.16  HD
ATOM     14 O    GLU T   3      71.621  39.814   4.098  1.00 21.28 LIG-0.27  OA
BRANCH 12 15
ATOM     15  CA  THR T   4      73.278  41.940   4.980  1.00 25.11 LIG 0.20  C 
BRANCH 15 16
ATOM     16  C   THR T   4      72.304  41.536   6.085  1.00 26.24 LIG 0.24  C 
ATOM     17 O    THR T   4      71.175  42.013   6.127  1.00 26.41 LIG-0.27  OA
ATOM     18  N   PHE T   5      72.706  40.557   6.883  1.00 29.12 LIG-0.34  N 
ATOM     19 H    PHE T   5      73.448  40.135   6.778  1.00 29.12 LIG 0.16  HD
BRANCH 18 20
ATOM     20  CA  PHE T   5      71.925  40.100   8.021  1.00 29.36 LIG 0.19  C 
BRANCH 20 21
ATOM     21  C   PHE T   5      72.822  39.240   8.950  1.00 32.56 LIG 0.20  C 
ATOM     22 O    PHE T   5      73.529  39.844   9.791  1.00 36.67 LIG-0.65  OA
ATOM     23 OXT  PHE T   5      72.811  37.980   8.868  1.00 34.39 LIG-0.65  OA
ENDBRANCH 20 21
BRANCH 20 24
ATOM     24  CB  PHE T   5      70.759  39.239   7.555  1.00 26.24 LIG 0.07  C 
BRANCH 24 25
ATOM     25  CG  PHE T   5      69.414  39.852   7.763  1.00 22.58 LIG-0.06  A 
ATOM     26  CD1 PHE T   5      68.268  39.105   7.562  1.00 21.65 LIG 0.01  A 
ATOM     27  CE1 PHE T   5      67.030  39.689   7.628  1.00 20.51 LIG 0.00  A 
ATOM     28  CZ  PHE T   5      66.925  41.030   7.901  1.00 20.87 LIG 0.00  A 
ATOM     29  CE2 PHE T   5      68.069  41.782   8.115  1.00 20.50 LIG 0.00  A 
ATOM     30  CD2 PHE T   5      69.292  41.197   8.048  1.00 18.29 LIG 0.01  A 
ENDBRANCH 24 25
ENDBRANCH 20 24
ENDBRANCH 18 20
ENDBRANCH 15 16
BRANCH 15 31
ATOM     31  CB  THR T   4      72.651  42.973   3.979  1.00 25.29 LIG 0.15  C 
ATOM     32  CG2 THR T   4      73.540  43.284   2.799  1.00 28.15 LIG 0.04  C 
BRANCH 31 33
ATOM     33 OG1  THR T   4      71.360  42.514   3.546  1.00 26.44 LIG-0.39  OA
ATOM     34 HG1  THR T   4      70.831  42.508   4.199  1.00 26.44 LIG 0.21  HD
ENDBRANCH 31 33
ENDBRANCH 15 31
ENDBRANCH 12 15
ENDBRANCH 5 11
ENDBRANCH 3 5
BRANCH 1 35
ATOM     35  CA  TRP T   2      74.353  38.654  -0.611  1.00 22.55 LIG 0.18  C 
BRANCH 35 36
ATOM     36  CB  TRP T   2      75.872  38.799  -0.765  1.00 18.37 LIG 0.07  C 
BRANCH 36 37
ATOM     37  CG  TRP T   2      76.516  39.392   0.463  1.00 15.70 LIG-0.03  A 
ATOM     38  CD2 TRP T   2      76.480  40.763   0.863  1.00  9.74 LIG-0.00  A 
ATOM     39  CE2 TRP T   2      77.200  40.868   2.066  1.00 12.08 LIG 0.04  A 
ATOM     40  CE3 TRP T   2      75.922  41.915   0.316  1.00  8.42 LIG 0.01  A 
ATOM     41  CZ2 TRP T   2      77.367  42.082   2.726  1.00 12.57 LIG 0.03  A 
ATOM     42  NE1 TRP T   2      77.653  39.612   2.391  1.00 15.46 LIG-0.36  N 
ATOM     43  CH2 TRP T   2      76.804  43.181   2.153  1.00  9.29 LIG 0.00  A 
ATOM     44  CZ3 TRP T   2      76.086  43.096   0.961  1.00  5.55 LIG 0.00  A 
ATOM     45 HE1  TRP T   2      78.121  39.414   3.085  1.00 15.46 LIG 0.17  HD
ATOM     46  CD1 TRP T   2      77.235  38.727   1.428  1.00 15.83 LIG 0.10  A 
ENDBRANCH 36 37
ENDBRANCH 35 36
BRANCH 35 47
ATOM     47  N   TRP T   2      73.735  39.932  -0.940  1.00 22.15 LIG-0.35  N 
ATOM     48  C   ASN T   1      72.969  40.118  -2.004  1.00 24.32 LIG 0.24  C 
ATOM     49 O    ASN T   1      72.761  39.237  -2.844  1.00 24.18 LIG-0.27  OA
ATOM     50 H    TRP T   2      73.915  40.556  -0.377  1.00 22.15 LIG 0.16  HD
BRANCH 48 51
ATOM     51  CA  ASN T   1      72.497  41.549  -2.231  1.00 25.81 LIG 0.18  C 
BRANCH 51 52
ATOM     52  N   ASN T   1      73.503  42.564  -2.413  1.00 28.18 LIG-0.35  N 
ATOM     53  C   ACE T   0      73.343  43.763  -1.864  1.00 27.70 LIG 0.21  C 
ATOM     54 O    ACE T   0      73.503  44.790  -2.483  1.00 31.05 LIG-0.27  OA
ATOM     55  CH3 ACE T   0      72.873  43.825  -0.431  1.00 28.48 LIG 0.12  C 
ATOM     56 H    ASN T   1      74.180  42.327  -2.888  1.00 28.18 LIG 0.16  HD
ENDBRANCH 51 52
BRANCH 51 57
ATOM     57  CB  ASN T   1      71.331  41.677  -3.250  1.00 27.81 LIG 0.14  C 
BRANCH 57 58
ATOM     58  CG  ASN T   1      70.016  41.038  -2.782  1.00 34.08 LIG 0.22  C 
ATOM     59 OD1  ASN T   1      69.918  39.824  -2.600  1.00 41.34 LIG-0.27  OA
ATOM     60  ND2 ASN T   1      69.025  41.873  -2.505  1.00 39.83 LIG-0.37  N 
ATOM     61 22HD ASN T   1      69.123  42.717  -2.643  1.00 39.83 LIG 0.16  HD
ATOM     62 21HD ASN T   1      68.285  41.572  -2.188  1.00 39.83 LIG 0.16  HD
ENDBRANCH 57 58
ENDBRANCH 51 57
ENDBRANCH 48 51
ENDBRANCH 35 47
ENDBRANCH 1 35
TORSDOF 21
ENDMDL
MODEL 3
USER: ADFR SOLUTION from run 10
USER: SCORE 19.128774 LL:  -4.418 LR: -16.700 RR:   0.000 FEB: -10.435
USER: RMSD 10.347423
USER: SEED 654573
USER: STATUS 1 or 2 clusters left
USER: GENES 23
USER: genes 0 Translation |==|  0.61418 0.28106 0.36287
USER: genes 1 Rotation |==|  0.82657 0.21665 0.33967 0.69329
USER: genes 2 Torsion [C]-N--CA-[CB] |==|  0.20099
USER: genes 3 Torsion [N]-CA--CB-[CG] |==|  0.71214
USER: genes 4 Torsion [CA]-CB--CG-[CD] |==|  0.72462
USER: genes 5 Torsion [CB]-CG--CD-[OE2] |==|  0.88468
USER: genes 6 Torsion [N]-CA--C-[N] |==|  0.78908
USER: genes 7 Torsion [C]-N--CA-[C] |==|  0.11675
USER: genes 8 Torsion [N]-CA--C-[N] |==|  0.14991
USER: genes 9 Torsion [C]-N--CA-[C] |==|  0.54233
USER: genes 10 Torsion [N]-CA--C-[O] |==|  0.23446
USER: genes 11 Torsion [N]-CA--CB-[CG] |==|  0.68865
USER: genes 12 Torsion [CA]-CB--CG-[CD1] |==|  0.52567
USER: genes 13 Torsion [N]-CA--CB-[CG2] |==|  0.85405
USER: genes 14 Torsion [CA]-CB--OG1-[HG1] |==|  0.18331
USER: genes 15 Torsion [N]-C--CA-[N] |==|  0.92432
USER: genes 16 Torsion [C]-CA--CB-[CG] |==|  0.59824
USER: genes 17 Torsion [CA]-CB--CG-[CD2] |==|  0.79558
USER: genes 18 Torsion [C]-CA--N-[C] |==|  0.65225
USER: genes 19 Torsion [N]-C--CA-[N] |==|  0.16653
USER: genes 20 Torsion [C]-CA--N-[C] |==|  0.61008
USER: genes 21 Torsion [C]-CA--CB-[CG] |==|  0.18380
USER: genes 22 Torsion [CA]-CB--CG-[OD1] |==|  0.82013
ROOT
ATOM      1  C   TRP T   2      74.035  38.162   0.786  1.00 22.72 LIG 0.24  C 
ATOM      2 O    TRP T   2      73.996  36.950   1.050  1.00 25.73 LIG-0.27  OA
ATOM      3  N   GLU T   3      73.752  39.100   1.679  1.00 22.46 LIG-0.35  N 
ATOM      4 H    GLU T   3      73.731  39.945   1.522  1.00 22.46 LIG 0.16  HD
ENDROOT
BRANCH 3 5
ATOM      5  CA  GLU T   3      73.451  38.712   3.038  1.00 22.12 LIG 0.18  C 
BRANCH 5 6
ATOM      6  CB  GLU T   3      74.719  38.246   3.750  1.00 23.21 LIG 0.04  C 
BRANCH 6 7
ATOM      7  CG  GLU T   3      74.786  36.745   3.875  1.00 26.62 LIG 0.12  C 
BRANCH 7 8
ATOM      8  CD  GLU T   3      74.360  36.257   5.220  1.00 29.06 LIG 0.17  C 
ATOM      9 OE2  GLU T   3      74.741  36.893   6.230  1.00 35.17 LIG-0.65  OA
ATOM     10 OE1  GLU T   3      73.645  35.238   5.275  1.00 32.66 LIG-0.65  OA
ENDBRANCH 7 8
ENDBRANCH 6 7
ENDBRANCH 5 6
BRANCH 5 11
ATOM     11  C   GLU T   3      72.814  39.830   3.820  1.00 21.48 LIG 0.24  C 
ATOM     12  N   THR T   4      73.657  40.769   4.203  1.00 23.46 LIG-0.34  N 
ATOM     13 H    THR T   4      74.495  40.739   4.012  1.00 23.46 LIG 0.16  HD
ATOM     14 O    GLU T   3      71.630  39.824   4.088  1.00 21.28 LIG-0.27  OA
BRANCH 12 15
ATOM     15  CA  THR T   4      73.300  41.939   4.971  1.00 25.11 LIG 0.20  C 
BRANCH 15 16
ATOM     16  C   THR T   4      72.323  41.541   6.076  1.00 26.24 LIG 0.24  C 
ATOM     17 O    THR T   4      71.198  42.025   6.118  1.00 26.41 LIG-0.27  OA
ATOM     18  N   PHE T   5      72.719  40.558   6.873  1.00 29.12 LIG-0.34  N 
ATOM     19 H    PHE T   5      73.459  40.132   6.767  1.00 29.12 LIG 0.16  HD
BRANCH 18 20
ATOM     20  CA  PHE T   5      71.936  40.106   8.010  1.00 29.36 LIG 0.19  C 
BRANCH 20 21
ATOM     21  C   PHE T   5      72.826  39.240   8.939  1.00 32.56 LIG 0.20  C 
ATOM     22 O    PHE T   5      73.537  39.838   9.781  1.00 36.67 LIG-0.65  OA
ATOM     23 OXT  PHE T   5      72.809  37.980   8.856  1.00 34.39 LIG-0.65  OA
ENDBRANCH 20 21
BRANCH 20 24
ATOM     24  CB  PHE T   5      70.763  39.253   7.544  1.00 26.24 LIG 0.07  C 
BRANCH 24 25
ATOM     25  CG  PHE T   5      69.423  39.874   7.756  1.00 22.58 LIG-0.06  A 
ATOM     26  CD1 PHE T   5      68.272  39.133   7.555  1.00 21.65 LIG 0.01  A 
ATOM     27  CE1 PHE T   5      67.038  39.725   7.624  1.00 20.51 LIG 0.00  A 
ATOM     28  CZ  PHE T   5      66.940  41.065   7.900  1.00 20.87 LIG 0.00  A 
ATOM     29  CE2 PHE T   5      68.090  41.811   8.113  1.00 20.50 LIG 0.00  A 
ATOM     30  CD2 PHE T   5      69.309  41.218   8.043  1.00 18.29 LIG 0.01  A 
ENDBRANCH 24 25
ENDBRANCH 20 24
ENDBRANCH 18 20
ENDBRANCH 15 16
BRANCH 15 31
ATOM     31  CB  THR T   4      72.680  42.976   3.970  1.00 25.29 LIG 0.15  C 
ATOM     32  CG2 THR T   4      73.555  43.254   2.772  1.00 28.15 LIG 0.04  C 
BRANCH 31 33
ATOM     33 OG1  THR T   4      71.371  42.542   3.564  1.00 26.44 LIG-0.39  OA
ATOM     34 HG1  THR T   4      70.853  42.557   4.226  1.00 26.44 LIG 0.21  HD
ENDBRANCH 31 33
ENDBRANCH 15 31
ENDBRANCH 12 15
ENDBRANCH 5 11
ENDBRANCH 3 5
BRANCH 1 35
ATOM     35  CA  TRP T   2      74.362  38.647  -0.620  1.00 22.55 LIG 0.18  C 
BRANCH 35 36
ATOM     36  CB  TRP T   2      75.881  38.802  -0.769  1.00 18.37 LIG 0.07  C 
BRANCH 36 37
ATOM     37  CG  TRP T   2      76.252  39.969  -1.649  1.00 15.70 LIG-0.03  A 
ATOM     38  CD2 TRP T   2      76.126  40.035  -3.070  1.00  9.74 LIG-0.00  A 
ATOM     39  CE2 TRP T   2      76.580  41.304  -3.473  1.00 12.08 LIG 0.04  A 
ATOM     40  CE3 TRP T   2      75.689  39.142  -4.044  1.00  8.42 LIG 0.01  A 
ATOM     41  CZ2 TRP T   2      76.599  41.694  -4.809  1.00 12.57 LIG 0.03  A 
ATOM     42  NE1 TRP T   2      76.961  41.988  -2.344  1.00 15.46 LIG-0.36  N 
ATOM     43  CH2 TRP T   2      76.162  40.787  -5.726  1.00  9.29 LIG 0.00  A 
ATOM     44  CZ3 TRP T   2      75.709  39.526  -5.345  1.00  5.55 LIG 0.00  A 
ATOM     45 HE1  TRP T   2      77.275  42.788  -2.326  1.00 15.46 LIG 0.17  HD
ATOM     46  CD1 TRP T   2      76.757  41.184  -1.249  1.00 15.83 LIG 0.10  A 
ENDBRANCH 36 37
ENDBRANCH 35 36
BRANCH 35 47
ATOM     47  N   TRP T   2      73.737  39.920  -0.954  1.00 22.15 LIG-0.35  N 
ATOM     48  C   ASN T   1      72.970  40.097  -2.018  1.00 24.32 LIG 0.24  C 
ATOM     49 O    ASN T   1      72.767  39.211  -2.855  1.00 24.18 LIG-0.27  OA
ATOM     50 H    TRP T   2      73.914  40.548  -0.394  1.00 22.15 LIG 0.16  HD
BRANCH 48 51
ATOM     51  CA  ASN T   1      72.489  41.525  -2.252  1.00 25.81 LIG 0.18  C 
BRANCH 51 52
ATOM     52  N   ASN T   1      73.489  42.543  -2.445  1.00 28.18 LIG-0.35  N 
ATOM     53  C   ACE T   0      73.327  43.744  -1.901  1.00 27.70 LIG 0.21  C 
ATOM     54 O    ACE T   0      73.478  44.769  -2.526  1.00 31.05 LIG-0.27  OA
ATOM     55  CH3 ACE T   0      72.863  43.812  -0.465  1.00 28.48 LIG 0.12  C 
ATOM     56 H    ASN T   1      74.165  42.307  -2.921  1.00 28.18 LIG 0.16  HD
ENDBRANCH 51 52
BRANCH 51 57
ATOM     57  CB  ASN T   1      71.319  41.640  -3.267  1.00 27.81 LIG 0.14  C 
BRANCH 57 58
ATOM     58  CG  ASN T   1      70.008  40.998  -2.790  1.00 34.08 LIG 0.22  C 
ATOM     59 OD1  ASN T   1      69.917  39.785  -2.600  1.00 41.34 LIG-0.27  OA
ATOM     60  ND2 ASN T   1      69.015  41.830  -2.513  1.00 39.83 LIG-0.37  N 
ATOM     61 22HD ASN T   1      69.108  42.674  -2.656  1.00 39.83 LIG 0.16  HD
ATOM     62 21HD ASN T   1      68.278  41.527  -2.190  1.00 39.83 LIG 0.16  HD
ENDBRANCH 57 58
ENDBRANCH 51 57
ENDBRANCH 48 51
ENDBRANCH 35 47
ENDBRANCH 1 35
TORSDOF 21
ENDMDL
MODEL 4
USER: ADFR SOLUTION from run 83
USER: SCORE 19.546814 LL:  -4.785 LR: -16.143 RR:   0.000 FEB:  -9.879
USER: RMSD 11.344572
USER: SEED 82
USER: STATUS no improvement in best 5 clusters for 5 generations
USER: GENES 23
USER: genes 0 Translation |==|  0.50249 0.57529 0.48736
USER: genes 1 Rotation |==|  0.30388 0.51060 0.06136 0.63790
USER: genes 2 Torsion [C]-N--CA-[CB] |==|  0.49686
USER: genes 3 Torsion [N]-CA--CB-[CG] |==|  0.91016
USER: genes 4 Torsion [CA]-CB--CG-[CD] |==|  0.78429
USER: genes 5 Torsion [CB]-CG--CD-[OE2] |==|  0.81561
USER: genes 6 Torsion [N]-CA--C-[N] |==|  0.38152
USER: genes 7 Torsion [C]-N--CA-[C] |==|  0.63459
USER: genes 8 Torsion [N]-CA--C-[N] |==|  0.41673
USER: genes 9 Torsion [C]-N--CA-[C] |==|  0.63711
USER: genes 10 Torsion [N]-CA--C-[O] |==|  0.58429
USER: genes 11 Torsion [N]-CA--CB-[CG] |==|  0.65872
USER: genes 12 Torsion [CA]-CB--CG-[CD1] |==|  0.16822
USER: genes 13 Torsion [N]-CA--CB-[CG2] |==|  0.55282
USER: genes 14 Torsion [CA]-CB--OG1-[HG1] |==|  0.09915
USER: genes 15 Torsion [N]-C--CA-[N] |==|  0.37894
USER: genes 16 Torsion [C]-CA--CB-[CG] |==|  0.47652
USER: genes 17 Torsion [CA]-CB--CG-[CD2] |==|  0.93193
USER: genes 18 Torsion [C]-CA--N-[C] |==|  0.75436
USER: genes 19 Torsion [N]-C--CA-[N] |==|  0.85556
USER: genes 20 Torsion [C]-CA--N-[C] |==|  0.64987
USER: genes 21 Torsion [C]-CA--CB-[CG] |==|  0.83893
USER: genes 22 Torsion [CA]-CB--CG-[OD1] |==|  0.93628
ROOT
ATOM      1  C   TRP T   2      70.685  46.989   4.521  1.00 22.72 LIG 0.24  C 
ATOM      2 O    TRP T   2      70.239  46.132   5.301  1.00 25.73 LIG-0.27  OA
ATOM      3  N   GLU T   3      71.368  46.678   3.428  1.00 22.46 LIG-0.35  N 
ATOM      4 H    GLU T   3      71.724  47.244   2.888  1.00 22.46 LIG 0.16  HD
ENDROOT
BRANCH 3 5
ATOM      5  CA  GLU T   3      71.551  45.287   3.083  1.00 22.12 LIG 0.18  C 
BRANCH 5 6
ATOM      6  CB  GLU T   3      72.338  45.163   1.780  1.00 23.21 LIG 0.04  C 
BRANCH 6 7
ATOM      7  CG  GLU T   3      72.061  46.303   0.834  1.00 26.62 LIG 0.12  C 
BRANCH 7 8
ATOM      8  CD  GLU T   3      70.756  46.159   0.121  1.00 29.06 LIG 0.17  C 
ATOM      9 OE2  GLU T   3      70.626  45.216  -0.693  1.00 35.17 LIG-0.65  OA
ATOM     10 OE1  GLU T   3      69.858  46.986   0.370  1.00 32.66 LIG-0.65  OA
ENDBRANCH 7 8
ENDBRANCH 6 7
ENDBRANCH 5 6
BRANCH 5 11
ATOM     11  C   GLU T   3      72.251  44.519   4.172  1.00 21.48 LIG 0.24  C 
ATOM     12  N   THR T   4      71.735  43.329   4.411  1.00 23.46 LIG-0.34  N 
ATOM     13 H    THR T   4      71.060  43.025   3.972  1.00 23.46 LIG 0.16  HD
ATOM     14 O    GLU T   3      73.187  44.992   4.783  1.00 21.28 LIG-0.27  OA
BRANCH 12 15
ATOM     15  CA  THR T   4      72.215  42.403   5.409  1.00 25.11 LIG 0.20  C 
BRANCH 15 16
ATOM     16  C   THR T   4      72.373  41.019   4.782  1.00 26.24 LIG 0.24  C 
ATOM     17 O    THR T   4      71.738  40.712   3.779  1.00 26.41 LIG-0.27  OA
ATOM     18  N   PHE T   5      73.322  40.252   5.301  1.00 29.12 LIG-0.34  N 
ATOM     19 H    PHE T   5      73.852  40.513   5.925  1.00 29.12 LIG 0.16  HD
BRANCH 18 20
ATOM     20  CA  PHE T   5      73.556  38.886   4.861  1.00 29.36 LIG 0.19  C 
BRANCH 20 21
ATOM     21  C   PHE T   5      73.634  37.952   6.097  1.00 32.56 LIG 0.20  C 
ATOM     22 O    PHE T   5      74.365  36.937   6.009  1.00 36.67 LIG-0.65  OA
ATOM     23 OXT  PHE T   5      73.000  38.228   7.154  1.00 34.39 LIG-0.65  OA
ENDBRANCH 20 21
BRANCH 20 24
ATOM     24  CB  PHE T   5      74.875  38.788   4.107  1.00 26.24 LIG 0.07  C 
BRANCH 24 25
ATOM     25  CG  PHE T   5      74.757  38.249   2.720  1.00 22.58 LIG-0.06  A 
ATOM     26  CD1 PHE T   5      73.986  38.907   1.780  1.00 21.65 LIG 0.01  A 
ATOM     27  CE1 PHE T   5      73.768  38.358   0.543  1.00 20.51 LIG 0.00  A 
ATOM     28  CZ  PHE T   5      74.326  37.143   0.231  1.00 20.87 LIG 0.00  A 
ATOM     29  CE2 PHE T   5      75.110  36.484   1.166  1.00 20.50 LIG 0.00  A 
ATOM     30  CD2 PHE T   5      75.320  37.034   2.388  1.00 18.29 LIG 0.01  A 
ENDBRANCH 24 25
ENDBRANCH 20 24
ENDBRANCH 18 20
ENDBRANCH 15 16
BRANCH 15 31
ATOM     31  CB  THR T   4      71.176  42.411   6.585  1.00 25.29 LIG 0.15  C 
ATOM     32  CG2 THR T   4      71.729  41.867   7.880  1.00 28.15 LIG 0.04  C 
BRANCH 31 33
ATOM     33 OG1  THR T   4      70.650  43.735   6.764  1.00 26.44 LIG-0.39  OA
ATOM     34 HG1  THR T   4      70.575  44.111   6.016  1.00 26.44 LIG 0.21  HD
ENDBRANCH 31 33
ENDBRANCH 15 31
ENDBRANCH 12 15
ENDBRANCH 5 11
ENDBRANCH 3 5
BRANCH 1 35
ATOM     35  CA  TRP T   2      70.516  48.474   4.810  1.00 22.55 LIG 0.18  C 
BRANCH 35 36
ATOM     36  CB  TRP T   2      71.493  48.896   5.915  1.00 18.37 LIG 0.07  C 
BRANCH 36 37
ATOM     37  CG  TRP T   2      71.524  50.391   6.109  1.00 15.70 LIG-0.03  A 
ATOM     38  CD2 TRP T   2      71.181  51.381   5.138  1.00  9.74 LIG-0.00  A 
ATOM     39  CE2 TRP T   2      71.345  52.639   5.745  1.00 12.08 LIG 0.04  A 
ATOM     40  CE3 TRP T   2      70.764  51.329   3.811  1.00  8.42 LIG 0.01  A 
ATOM     41  CZ2 TRP T   2      71.099  53.827   5.064  1.00 12.57 LIG 0.03  A 
ATOM     42  NE1 TRP T   2      71.765  52.427   7.036  1.00 15.46 LIG-0.36  N 
ATOM     43  CH2 TRP T   2      70.694  53.727   3.768  1.00  9.29 LIG 0.00  A 
ATOM     44  CZ3 TRP T   2      70.526  52.490   3.151  1.00  5.55 LIG 0.00  A 
ATOM     45 HE1  TRP T   2      71.937  53.040   7.613  1.00 15.46 LIG 0.17  HD
ATOM     46  CD1 TRP T   2      71.867  51.074   7.252  1.00 15.83 LIG 0.10  A 
ENDBRANCH 36 37
ENDBRANCH 35 36
BRANCH 35 47
ATOM     47  N   TRP T   2      69.168  48.834   5.229  1.00 22.15 LIG-0.35  N 
ATOM     48  C   ASN T   1      68.205  49.159   4.380  1.00 24.32 LIG 0.24  C 
ATOM     49 O    ASN T   1      68.383  49.243   3.161  1.00 24.18 LIG-0.27  OA
ATOM     50 H    TRP T   2      69.056  48.817   6.081  1.00 22.15 LIG 0.16  HD
BRANCH 48 51
ATOM     51  CA  ASN T   1      66.892  49.602   5.016  1.00 25.81 LIG 0.18  C 
BRANCH 51 52
ATOM     52  N   ASN T   1      66.305  48.740   6.009  1.00 28.18 LIG-0.35  N 
ATOM     53  C   ACE T   0      65.048  48.332   5.875  1.00 27.70 LIG 0.21  C 
ATOM     54 O    ACE T   0      64.243  48.392   6.776  1.00 31.05 LIG-0.27  OA
ATOM     55  CH3 ACE T   0      64.606  47.845   4.515  1.00 28.48 LIG 0.12  C 
ATOM     56 H    ASN T   1      66.823  48.528   6.662  1.00 28.18 LIG 0.16  HD
ENDBRANCH 51 52
BRANCH 51 57
ATOM     57  CB  ASN T   1      66.866  51.098   5.436  1.00 27.81 LIG 0.14  C 
BRANCH 57 58
ATOM     58  CG  ASN T   1      67.970  51.490   6.428  1.00 34.08 LIG 0.22  C 
ATOM     59 OD1  ASN T   1      68.515  50.654   7.150  1.00 41.34 LIG-0.27  OA
ATOM     60  ND2 ASN T   1      68.360  52.756   6.400  1.00 39.83 LIG-0.37  N 
ATOM     61 22HD ASN T   1      67.960  53.318   5.885  1.00 39.83 LIG 0.16  HD
ATOM     62 21HD ASN T   1      69.012  53.016   6.896  1.00 39.83 LIG 0.16  HD
ENDBRANCH 57 58
ENDBRANCH 51 57
ENDBRANCH 48 51
ENDBRANCH 35 47
ENDBRANCH 1 35
TORSDOF 21
ENDMDL
MODEL 5
USER: ADFR SOLUTION from run 138
USER: SCORE 18.472377 LL:  -4.598 LR: -16.073 RR:   0.000 FEB:  -9.809
USER: RMSD 11.114530
USER: SEED 137
USER: STATUS no improvement in best 5 clusters for 5 generations
USER: GENES 23
USER: genes 0 Translation |==|  0.50354 0.55863 0.49945
USER: genes 1 Rotation |==|  0.84885 0.46110 0.14507 0.52860
USER: genes 2 Torsion [C]-N--CA-[CB] |==|  0.24623
USER: genes 3 Torsion [N]-CA--CB-[CG] |==|  0.53994
USER: genes 4 Torsion [CA]-CB--CG-[CD] |==|  0.13749
USER: genes 5 Torsion [CB]-CG--CD-[OE2] |==|  0.13883
USER: genes 6 Torsion [N]-CA--C-[N] |==|  0.34348
USER: genes 7 Torsion [C]-N--CA-[C] |==|  0.73766
USER: genes 8 Torsion [N]-CA--C-[N] |==|  0.00079
USER: genes 9 Torsion [C]-N--CA-[C] |==|  0.86636
USER: genes 10 Torsion [N]-CA--C-[O] |==|  0.88099
USER: genes 11 Torsion [N]-CA--CB-[CG] |==|  0.72593
USER: genes 12 Torsion [CA]-CB--CG-[CD1] |==|  0.42799
USER: genes 13 Torsion [N]-CA--CB-[CG2] |==|  0.43035
USER: genes 14 Torsion [CA]-CB--OG1-[HG1] |==|  0.32088
USER: genes 15 Torsion [N]-C--CA-[N] |==|  0.76192
USER: genes 16 Torsion [C]-CA--CB-[CG] |==|  0.43681
USER: genes 17 Torsion [CA]-CB--CG-[CD2] |==|  0.45605
USER: genes 18 Torsion [C]-CA--N-[C] |==|  0.65965
USER: genes 19 Torsion [N]-C--CA-[N] |==|  0.89479
USER: genes 20 Torsion [C]-CA--N-[C] |==|  0.64112
USER: genes 21 Torsion [C]-CA--CB-[CG] |==|  0.93031
USER: genes 22 Torsion [CA]-CB--CG-[OD1] |==|  0.86548
ROOT
ATOM      1  C   TRP T   2      70.716  46.489   4.884  1.00 22.72 LIG 0.24  C 
ATOM      2 O    TRP T   2      70.610  45.950   3.770  1.00 25.73 LIG-0.27  OA
ATOM      3  N   GLU T   3      71.044  45.816   5.978  1.00 22.46 LIG-0.35  N 
ATOM      4 H    GLU T   3      71.089  46.147   6.770  1.00 22.46 LIG 0.16  HD
ENDROOT
BRANCH 3 5
ATOM      5  CA  GLU T   3      71.360  44.410   5.872  1.00 22.12 LIG 0.18  C 
BRANCH 5 6
ATOM      6  CB  GLU T   3      72.848  44.220   5.587  1.00 23.21 LIG 0.04  C 
BRANCH 6 7
ATOM      7  CG  GLU T   3      73.168  42.820   5.128  1.00 26.62 LIG 0.12  C 
BRANCH 7 8
ATOM      8  CD  GLU T   3      72.274  42.354   4.028  1.00 29.06 LIG 0.17  C 
ATOM      9 OE2  GLU T   3      72.116  43.100   3.034  1.00 35.17 LIG-0.65  OA
ATOM     10 OE1  GLU T   3      71.723  41.242   4.150  1.00 32.66 LIG-0.65  OA
ENDBRANCH 7 8
ENDBRANCH 6 7
ENDBRANCH 5 6
BRANCH 5 11
ATOM     11  C   GLU T   3      70.983  43.648   7.116  1.00 21.48 LIG 0.24  C 
ATOM     12  N   THR T   4      70.164  42.637   6.901  1.00 23.46 LIG-0.34  N 
ATOM     13 H    THR T   4      69.881  42.434   6.114  1.00 23.46 LIG 0.16  HD
ATOM     14 O    GLU T   3      71.386  43.980   8.212  1.00 21.28 LIG-0.27  OA
BRANCH 12 15
ATOM     15  CA  THR T   4      69.646  41.759   7.924  1.00 25.11 LIG 0.20  C 
BRANCH 15 16
ATOM     16  C   THR T   4      70.535  40.520   8.025  1.00 26.24 LIG 0.24  C 
ATOM     17 O    THR T   4      70.213  39.577   8.739  1.00 26.41 LIG-0.27  OA
ATOM     18  N   PHE T   5      71.572  40.482   7.199  1.00 29.12 LIG-0.34  N 
ATOM     19 H    PHE T   5      71.729  41.087   6.609  1.00 29.12 LIG 0.16  HD
BRANCH 18 20
ATOM     20  CA  PHE T   5      72.548  39.406   7.214  1.00 29.36 LIG 0.19  C 
BRANCH 20 21
ATOM     21  C   PHE T   5      73.005  39.144   8.673  1.00 32.56 LIG 0.20  C 
ATOM     22 O    PHE T   5      73.237  40.144   9.394  1.00 36.67 LIG-0.65  OA
ATOM     23 OXT  PHE T   5      73.112  37.965   9.113  1.00 34.39 LIG-0.65  OA
ENDBRANCH 20 21
BRANCH 20 24
ATOM     24  CB  PHE T   5      73.773  39.786   6.393  1.00 26.24 LIG 0.07  C 
BRANCH 24 25
ATOM     25  CG  PHE T   5      73.788  39.228   5.008  1.00 22.58 LIG-0.06  A 
ATOM     26  CD1 PHE T   5      74.491  39.870   4.006  1.00 21.65 LIG 0.01  A 
ATOM     27  CE1 PHE T   5      74.411  39.439   2.707  1.00 20.51 LIG 0.00  A 
ATOM     28  CZ  PHE T   5      73.628  38.355   2.398  1.00 20.87 LIG 0.00  A 
ATOM     29  CE2 PHE T   5      72.930  37.700   3.400  1.00 20.50 LIG 0.00  A 
ATOM     30  CD2 PHE T   5      73.014  38.133   4.684  1.00 18.29 LIG 0.01  A 
ENDBRANCH 24 25
ENDBRANCH 20 24
ENDBRANCH 18 20
ENDBRANCH 15 16
BRANCH 15 31
ATOM     31  CB  THR T   4      68.171  41.404   7.525  1.00 25.29 LIG 0.15  C 
ATOM     32  CG2 THR T   4      67.691  40.092   8.098  1.00 28.15 LIG 0.04  C 
BRANCH 31 33
ATOM     33 OG1  THR T   4      67.292  42.480   7.892  1.00 26.44 LIG-0.39  OA
ATOM     34 HG1  THR T   4      66.956  42.816   7.199  1.00 26.44 LIG 0.21  HD
ENDBRANCH 31 33
ENDBRANCH 15 31
ENDBRANCH 12 15
ENDBRANCH 5 11
ENDBRANCH 3 5
BRANCH 1 35
ATOM     35  CA  TRP T   2      70.416  47.970   5.069  1.00 22.55 LIG 0.18  C 
BRANCH 35 36
ATOM     36  CB  TRP T   2      71.333  48.548   6.154  1.00 18.37 LIG 0.07  C 
BRANCH 36 37
ATOM     37  CG  TRP T   2      71.500  50.041   6.025  1.00 15.70 LIG-0.03  A 
ATOM     38  CD2 TRP T   2      72.011  50.927   7.023  1.00  9.74 LIG-0.00  A 
ATOM     39  CE2 TRP T   2      71.998  52.224   6.477  1.00 12.08 LIG 0.04  A 
ATOM     40  CE3 TRP T   2      72.463  50.756   8.328  1.00  8.42 LIG 0.01  A 
ATOM     41  CZ2 TRP T   2      72.428  53.334   7.198  1.00 12.57 LIG 0.03  A 
ATOM     42  NE1 TRP T   2      71.507  52.133   5.198  1.00 15.46 LIG-0.36  N 
ATOM     43  CH2 TRP T   2      72.862  53.118   8.470  1.00  9.29 LIG 0.00  A 
ATOM     44  CZ3 TRP T   2      72.881  51.841   9.027  1.00  5.55 LIG 0.00  A 
ATOM     45 HE1  TRP T   2      71.401  52.791   4.655  1.00 15.46 LIG 0.17  HD
ATOM     46  CD1 TRP T   2      71.213  50.818   4.928  1.00 15.83 LIG 0.10  A 
ENDBRANCH 36 37
ENDBRANCH 35 36
BRANCH 35 47
ATOM     47  N   TRP T   2      69.035  48.239   5.447  1.00 22.15 LIG-0.35  N 
ATOM     48  C   ASN T   1      68.229  49.022   4.746  1.00 24.32 LIG 0.24  C 
ATOM     49 O    ASN T   1      68.598  49.642   3.743  1.00 24.18 LIG-0.27  OA
ATOM     50 H    TRP T   2      68.791  47.841   6.169  1.00 22.15 LIG 0.16  HD
BRANCH 48 51
ATOM     51  CA  ASN T   1      66.852  49.261   5.356  1.00 25.81 LIG 0.18  C 
BRANCH 51 52
ATOM     52  N   ASN T   1      66.217  48.155   6.025  1.00 28.18 LIG-0.35  N 
ATOM     53  C   ACE T   0      64.968  47.822   5.717  1.00 27.70 LIG 0.21  C 
ATOM     54 O    ACE T   0      64.118  47.628   6.556  1.00 31.05 LIG-0.27  OA
ATOM     55  CH3 ACE T   0      64.595  47.759   4.255  1.00 28.48 LIG 0.12  C 
ATOM     56 H    ASN T   1      66.701  47.754   6.612  1.00 28.18 LIG 0.16  HD
ENDBRANCH 51 52
BRANCH 51 57
ATOM     57  CB  ASN T   1      66.736  50.587   6.157  1.00 27.81 LIG 0.14  C 
BRANCH 57 58
ATOM     58  CG  ASN T   1      68.072  51.104   6.710  1.00 34.08 LIG 0.22  C 
ATOM     59 OD1  ASN T   1      68.846  50.367   7.322  1.00 41.34 LIG-0.27  OA
ATOM     60  ND2 ASN T   1      68.380  52.359   6.418  1.00 39.83 LIG-0.37  N 
ATOM     61 22HD ASN T   1      67.819  52.852   5.990  1.00 39.83 LIG 0.16  HD
ATOM     62 21HD ASN T   1      69.140  52.682   6.657  1.00 39.83 LIG 0.16  HD
ENDBRANCH 57 58
ENDBRANCH 51 57
ENDBRANCH 48 51
ENDBRANCH 35 47
ENDBRANCH 1 35
TORSDOF 21
ENDMDL
MODEL 6
USER: ADFR SOLUTION from run 69
USER: SCORE 18.074682 LL:  -2.894 LR: -15.981 RR:   0.000 FEB:  -9.717
USER: RMSD 10.308458
USER: SEED 68
USER: STATUS no improvement in best 32 clusters for 5 generations
USER: GENES 23
USER: genes 0 Translation |==|  0.52562 0.50973 0.54003
USER: genes 1 Rotation |==|  0.49667 0.36896 0.01980 0.54715
USER: genes 2 Torsion [C]-N--CA-[CB] |==|  0.54472
USER: genes 3 Torsion [N]-CA--CB-[CG] |==|  0.43483
USER: genes 4 Torsion [CA]-CB--CG-[CD] |==|  0.71135
USER: genes 5 Torsion [CB]-CG--CD-[OE2] |==|  0.01654
USER: genes 6 Torsion [N]-CA--C-[N] |==|  0.37640
USER: genes 7 Torsion [C]-N--CA-[C] |==|  0.61183
USER: genes 8 Torsion [N]-CA--C-[N] |==|  0.32778
USER: genes 9 Torsion [C]-N--CA-[C] |==|  0.21147
USER: genes 10 Torsion [N]-CA--C-[O] |==|  0.96389
USER: genes 11 Torsion [N]-CA--CB-[CG] |==|  0.56977
USER: genes 12 Torsion [CA]-CB--CG-[CD1] |==|  0.44983
USER: genes 13 Torsion [N]-CA--CB-[CG2] |==|  0.36945
USER: genes 14 Torsion [CA]-CB--OG1-[HG1] |==|  0.51318
USER: genes 15 Torsion [N]-C--CA-[N] |==|  0.09932
USER: genes 16 Torsion [C]-CA--CB-[CG] |==|  0.37400
USER: genes 17 Torsion [CA]-CB--CG-[CD2] |==|  0.56805
USER: genes 18 Torsion [C]-CA--N-[C] |==|  0.16843
USER: genes 19 Torsion [N]-C--CA-[N] |==|  0.97409
USER: genes 20 Torsion [C]-CA--N-[C] |==|  0.74397
USER: genes 21 Torsion [C]-CA--CB-[CG] |==|  0.22453
USER: genes 22 Torsion [CA]-CB--CG-[OD1] |==|  0.19914
ROOT
ATOM      1  C   TRP T   2      71.379  45.022   6.101  1.00 22.72 LIG 0.24  C 
ATOM      2 O    TRP T   2      70.259  44.576   6.400  1.00 25.73 LIG-0.27  OA
ATOM      3  N   GLU T   3      72.486  44.297   6.186  1.00 22.46 LIG-0.35  N 
ATOM      4 H    GLU T   3      73.280  44.583   6.026  1.00 22.46 LIG 0.16  HD
ENDROOT
BRANCH 3 5
ATOM      5  CA  GLU T   3      72.391  42.909   6.577  1.00 22.12 LIG 0.18  C 
BRANCH 5 6
ATOM      6  CB  GLU T   3      73.761  42.381   6.995  1.00 23.21 LIG 0.04  C 
BRANCH 6 7
ATOM      7  CG  GLU T   3      73.659  41.190   7.915  1.00 26.62 LIG 0.12  C 
BRANCH 7 8
ATOM      8  CD  GLU T   3      73.942  41.535   9.340  1.00 29.06 LIG 0.17  C 
ATOM      9 OE2  GLU T   3      74.112  42.740   9.636  1.00 35.17 LIG-0.65  OA
ATOM     10 OE1  GLU T   3      73.999  40.606  10.168  1.00 32.66 LIG-0.65  OA
ENDBRANCH 7 8
ENDBRANCH 6 7
ENDBRANCH 5 6
BRANCH 5 11
ATOM     11  C   GLU T   3      71.405  42.700   7.696  1.00 21.48 LIG 0.24  C 
ATOM     12  N   THR T   4      70.604  41.667   7.524  1.00 23.46 LIG-0.34  N 
ATOM     13 H    THR T   4      70.653  41.159   6.831  1.00 23.46 LIG 0.16  HD
ATOM     14 O    GLU T   3      71.354  43.454   8.647  1.00 21.28 LIG-0.27  OA
BRANCH 12 15
ATOM     15  CA  THR T   4      69.569  41.259   8.444  1.00 25.11 LIG 0.20  C 
BRANCH 15 16
ATOM     16  C   THR T   4      69.551  39.735   8.545  1.00 26.24 LIG 0.24  C 
ATOM     17 O    THR T   4      69.432  39.045   7.539  1.00 26.41 LIG-0.27  OA
ATOM     18  N   PHE T   5      69.811  39.231   9.743  1.00 29.12 LIG-0.34  N 
ATOM     19 H    PHE T   5      70.017  39.712  10.425  1.00 29.12 LIG 0.16  HD
BRANCH 18 20
ATOM     20  CA  PHE T   5      69.769  37.805  10.020  1.00 29.36 LIG 0.19  C 
BRANCH 20 21
ATOM     21  C   PHE T   5      71.041  37.130   9.443  1.00 32.56 LIG 0.20  C 
ATOM     22 O    PHE T   5      71.742  37.802   8.649  1.00 36.67 LIG-0.65  OA
ATOM     23 OXT  PHE T   5      71.360  35.957   9.786  1.00 34.39 LIG-0.65  OA
ENDBRANCH 20 21
BRANCH 20 24
ATOM     24  CB  PHE T   5      68.553  37.169   9.361  1.00 26.24 LIG 0.07  C 
BRANCH 24 25
ATOM     25  CG  PHE T   5      68.077  35.915  10.017  1.00 22.58 LIG-0.06  A 
ATOM     26  CD1 PHE T   5      66.801  35.443   9.774  1.00 21.65 LIG 0.01  A 
ATOM     27  CE1 PHE T   5      66.309  34.365  10.465  1.00 20.51 LIG 0.00  A 
ATOM     28  CZ  PHE T   5      67.094  33.744  11.404  1.00 20.87 LIG 0.00  A 
ATOM     29  CE2 PHE T   5      68.379  34.206  11.643  1.00 20.50 LIG 0.00  A 
ATOM     30  CD2 PHE T   5      68.859  35.274  10.956  1.00 18.29 LIG 0.01  A 
ENDBRANCH 24 25
ENDBRANCH 20 24
ENDBRANCH 18 20
ENDBRANCH 15 16
BRANCH 15 31
ATOM     31  CB  THR T   4      68.214  41.837   7.901  1.00 25.29 LIG 0.15  C 
ATOM     32  CG2 THR T   4      67.093  40.828   7.886  1.00 28.15 LIG 0.04  C 
BRANCH 31 33
ATOM     33 OG1  THR T   4      67.846  43.007   8.650  1.00 26.44 LIG-0.39  OA
ATOM     34 HG1  THR T   4      67.090  43.274   8.399  1.00 26.44 LIG 0.21  HD
ENDBRANCH 31 33
ENDBRANCH 15 31
ENDBRANCH 12 15
ENDBRANCH 5 11
ENDBRANCH 3 5
BRANCH 1 35
ATOM     35  CA  TRP T   2      71.554  46.470   5.665  1.00 22.55 LIG 0.18  C 
BRANCH 35 36
ATOM     36  CB  TRP T   2      70.240  46.989   5.068  1.00 18.37 LIG 0.07  C 
BRANCH 36 37
ATOM     37  CG  TRP T   2      69.882  48.361   5.583  1.00 15.70 LIG-0.03  A 
ATOM     38  CD2 TRP T   2      68.572  48.928   5.648  1.00  9.74 LIG-0.00  A 
ATOM     39  CE2 TRP T   2      68.700  50.216   6.200  1.00 12.08 LIG 0.04  A 
ATOM     40  CE3 TRP T   2      67.306  48.482   5.280  1.00  8.42 LIG 0.01  A 
ATOM     41  CZ2 TRP T   2      67.603  51.049   6.394  1.00 12.57 LIG 0.03  A 
ATOM     42  NE1 TRP T   2      70.031  50.424   6.467  1.00 15.46 LIG-0.36  N 
ATOM     43  CH2 TRP T   2      66.385  50.570   6.019  1.00  9.29 LIG 0.00  A 
ATOM     44  CZ3 TRP T   2      66.240  49.297   5.471  1.00  5.55 LIG 0.00  A 
ATOM     45 HE1  TRP T   2      70.367  51.138   6.809  1.00 15.46 LIG 0.17  HD
ATOM     46  CD1 TRP T   2      70.737  49.305   6.100  1.00 15.83 LIG 0.10  A 
ENDBRANCH 36 37
ENDBRANCH 35 36
BRANCH 35 47
ATOM     47  N   TRP T   2      72.610  46.654   4.677  1.00 22.15 LIG-0.35  N 
ATOM     48  C   ASN T   1      72.598  46.078   3.485  1.00 24.32 LIG 0.24  C 
ATOM     49 O    ASN T   1      71.721  45.283   3.130  1.00 24.18 LIG-0.27  OA
ATOM     50 H    TRP T   2      73.241  47.174   4.941  1.00 22.15 LIG 0.16  HD
BRANCH 48 51
ATOM     51  CA  ASN T   1      73.839  46.313   2.630  1.00 25.81 LIG 0.18  C 
BRANCH 51 52
ATOM     52  N   ASN T   1      74.796  47.284   3.094  1.00 28.18 LIG-0.35  N 
ATOM     53  C   ACE T   0      74.706  48.548   2.693  1.00 27.70 LIG 0.21  C 
ATOM     54 O    ACE T   0      75.655  49.168   2.271  1.00 31.05 LIG-0.27  OA
ATOM     55  CH3 ACE T   0      73.341  49.195   2.701  1.00 28.48 LIG 0.12  C 
ATOM     56 H    ASN T   1      75.397  46.980   3.628  1.00 28.18 LIG 0.16  HD
ENDBRANCH 51 52
BRANCH 51 57
ATOM     57  CB  ASN T   1      74.514  45.008   2.123  1.00 27.81 LIG 0.14  C 
BRANCH 57 58
ATOM     58  CG  ASN T   1      73.842  44.394   0.887  1.00 34.08 LIG 0.22  C 
ATOM     59 OD1  ASN T   1      73.934  44.917  -0.224  1.00 41.34 LIG-0.27  OA
ATOM     60  ND2 ASN T   1      73.235  43.230   1.068  1.00 39.83 LIG-0.37  N 
ATOM     61 22HD ASN T   1      73.186  42.888   1.856  1.00 39.83 LIG 0.16  HD
ATOM     62 21HD ASN T   1      72.890  42.817   0.397  1.00 39.83 LIG 0.16  HD
ENDBRANCH 57 58
ENDBRANCH 51 57
ENDBRANCH 48 51
ENDBRANCH 35 47
ENDBRANCH 1 35
TORSDOF 21
ENDMDL
MODEL 7
USER: ADFR SOLUTION from run 132
USER: SCORE 18.898497 LL:  -4.992 LR: -15.918 RR:   0.000 FEB:  -9.654
USER: RMSD 10.076680
USER: SEED 131
USER: STATUS no improvement in best 8 clusters for 5 generations
USER: GENES 23
USER: genes 0 Translation |==|  0.51911 0.56067 0.50085
USER: genes 1 Rotation |==|  0.54585 0.39631 0.01535 0.54750
USER: genes 2 Torsion [C]-N--CA-[CB] |==|  0.22694
USER: genes 3 Torsion [N]-CA--CB-[CG] |==|  0.42360
USER: genes 4 Torsion [CA]-CB--CG-[CD] |==|  0.22302
USER: genes 5 Torsion [CB]-CG--CD-[OE2] |==|  0.90319
USER: genes 6 Torsion [N]-CA--C-[N] |==|  0.35636
USER: genes 7 Torsion [C]-N--CA-[C] |==|  0.56747
USER: genes 8 Torsion [N]-CA--C-[N] |==|  0.06111
USER: genes 9 Torsion [C]-N--CA-[C] |==|  0.81797
USER: genes 10 Torsion [N]-CA--C-[O] |==|  0.86863
USER: genes 11 Torsion [N]-CA--CB-[CG] |==|  0.80116
USER: genes 12 Torsion [CA]-CB--CG-[CD1] |==|  0.57844
USER: genes 13 Torsion [N]-CA--CB-[CG2] |==|  0.52888
USER: genes 14 Torsion [CA]-CB--OG1-[HG1] |==|  0.88072
USER: genes 15 Torsion [N]-C--CA-[N] |==|  0.39117
USER: genes 16 Torsion [C]-CA--CB-[CG] |==|  0.65238
USER: genes 17 Torsion [CA]-CB--CG-[CD2] |==|  0.19645
USER: genes 18 Torsion [C]-CA--N-[C] |==|  0.59812
USER: genes 19 Torsion [N]-C--CA-[N] |==|  0.87542
USER: genes 20 Torsion [C]-CA--N-[C] |==|  0.81282
USER: genes 21 Torsion [C]-CA--CB-[CG] |==|  0.28061
USER: genes 22 Torsion [CA]-CB--CG-[OD1] |==|  0.36675
ROOT
ATOM      1  C   TRP T   2      71.183  46.550   4.926  1.00 22.72 LIG 0.24  C 
ATOM      2 O    TRP T   2      70.059  46.026   4.961  1.00 25.73 LIG-0.27  OA
ATOM      3  N   GLU T   3      72.301  45.863   5.119  1.00 22.46 LIG-0.35  N 
ATOM      4 H    GLU T   3      73.092  46.199   5.141  1.00 22.46 LIG 0.16  HD
ENDROOT
BRANCH 3 5
ATOM      5  CA  GLU T   3      72.225  44.434   5.313  1.00 22.12 LIG 0.18  C 
BRANCH 5 6
ATOM      6  CB  GLU T   3      72.114  43.722   3.967  1.00 23.21 LIG 0.04  C 
BRANCH 6 7
ATOM      7  CG  GLU T   3      72.679  42.324   4.010  1.00 26.62 LIG 0.12  C 
BRANCH 7 8
ATOM      8  CD  GLU T   3      71.732  41.336   4.606  1.00 29.06 LIG 0.17  C 
ATOM      9 OE2  GLU T   3      70.985  41.716   5.538  1.00 35.17 LIG-0.65  OA
ATOM     10 OE1  GLU T   3      71.729  40.177   4.150  1.00 32.66 LIG-0.65  OA
ENDBRANCH 7 8
ENDBRANCH 6 7
ENDBRANCH 5 6
BRANCH 5 11
ATOM     11  C   GLU T   3      73.412  43.900   6.071  1.00 21.48 LIG 0.24  C 
ATOM     12  N   THR T   4      73.096  43.153   7.112  1.00 23.46 LIG-0.34  N 
ATOM     13 H    THR T   4      72.279  42.987   7.326  1.00 23.46 LIG 0.16  HD
ATOM     14 O    GLU T   3      74.549  44.176   5.748  1.00 21.28 LIG-0.27  OA
BRANCH 12 15
ATOM     15  CA  THR T   4      74.046  42.533   8.005  1.00 25.11 LIG 0.20  C 
BRANCH 15 16
ATOM     16  C   THR T   4      73.397  41.321   8.671  1.00 26.24 LIG 0.24  C 
ATOM     17 O    THR T   4      73.752  40.958   9.787  1.00 26.41 LIG-0.27  OA
ATOM     18  N   PHE T   5      72.359  40.796   8.034  1.00 29.12 LIG-0.34  N 
ATOM     19 H    PHE T   5      72.031  41.127   7.311  1.00 29.12 LIG 0.16  HD
BRANCH 18 20
ATOM     20  CA  PHE T   5      71.673  39.603   8.501  1.00 29.36 LIG 0.19  C 
BRANCH 20 21
ATOM     21  C   PHE T   5      72.634  38.389   8.417  1.00 32.56 LIG 0.20  C 
ATOM     22 O    PHE T   5      73.278  38.234   7.352  1.00 36.67 LIG-0.65  OA
ATOM     23 OXT  PHE T   5      72.772  37.607   9.399  1.00 34.39 LIG-0.65  OA
ENDBRANCH 20 21
BRANCH 20 24
ATOM     24  CB  PHE T   5      70.459  39.311   7.629  1.00 26.24 LIG 0.07  C 
BRANCH 24 25
ATOM     25  CG  PHE T   5      69.323  40.261   7.811  1.00 22.58 LIG-0.06  A 
ATOM     26  CD1 PHE T   5      68.024  39.846   7.581  1.00 21.65 LIG 0.01  A 
ATOM     27  CE1 PHE T   5      66.985  40.739   7.622  1.00 20.51 LIG 0.00  A 
ATOM     28  CZ  PHE T   5      67.235  42.060   7.900  1.00 20.87 LIG 0.00  A 
ATOM     29  CE2 PHE T   5      68.534  42.480   8.142  1.00 20.50 LIG 0.00  A 
ATOM     30  CD2 PHE T   5      69.557  41.589   8.099  1.00 18.29 LIG 0.01  A 
ENDBRANCH 24 25
ENDBRANCH 20 24
ENDBRANCH 18 20
ENDBRANCH 15 16
BRANCH 15 31
ATOM     31  CB  THR T   4      74.482  43.624   9.045  1.00 25.29 LIG 0.15  C 
ATOM     32  CG2 THR T   4      75.657  43.207   9.896  1.00 28.15 LIG 0.04  C 
BRANCH 31 33
ATOM     33 OG1  THR T   4      74.746  44.865   8.371  1.00 26.44 LIG-0.39  OA
ATOM     34 HG1  THR T   4      75.181  44.715   7.668  1.00 26.44 LIG 0.21  HD
ENDBRANCH 31 33
ENDBRANCH 15 31
ENDBRANCH 12 15
ENDBRANCH 5 11
ENDBRANCH 3 5
BRANCH 1 35
ATOM     35  CA  TRP T   2      71.343  48.049   4.710  1.00 22.55 LIG 0.18  C 
BRANCH 35 36
ATOM     36  CB  TRP T   2      71.084  48.788   6.029  1.00 18.37 LIG 0.07  C 
BRANCH 36 37
ATOM     37  CG  TRP T   2      70.017  49.845   5.891  1.00 15.70 LIG-0.03  A 
ATOM     38  CD2 TRP T   2      68.618  49.621   5.708  1.00  9.74 LIG-0.00  A 
ATOM     39  CE2 TRP T   2      67.997  50.880   5.638  1.00 12.08 LIG 0.04  A 
ATOM     40  CE3 TRP T   2      67.831  48.480   5.583  1.00  8.42 LIG 0.01  A 
ATOM     41  CZ2 TRP T   2      66.625  51.020   5.453  1.00 12.57 LIG 0.03  A 
ATOM     42  NE1 TRP T   2      68.975  51.835   5.778  1.00 15.46 LIG-0.36  N 
ATOM     43  CH2 TRP T   2      65.895  49.877   5.335  1.00  9.29 LIG 0.00  A 
ATOM     44  CZ3 TRP T   2      66.494  48.620   5.402  1.00  5.55 LIG 0.00  A 
ATOM     45 HE1  TRP T   2      68.848  52.686   5.769  1.00 15.46 LIG 0.17  HD
ATOM     46  CD1 TRP T   2      70.187  51.209   5.935  1.00 15.83 LIG 0.10  A 
ENDBRANCH 36 37
ENDBRANCH 35 36
BRANCH 35 47
ATOM     47  N   TRP T   2      70.442  48.588   3.699  1.00 22.15 LIG-0.35  N 
ATOM     48  C   ASN T   1      70.778  49.570   2.875  1.00 24.32 LIG 0.24  C 
ATOM     49 O    ASN T   1      71.864  50.155   2.934  1.00 24.18 LIG-0.27  OA
ATOM     50 H    TRP T   2      69.671  48.209   3.687  1.00 22.15 LIG 0.16  HD
BRANCH 48 51
ATOM     51  CA  ASN T   1      69.667  50.064   1.956  1.00 25.81 LIG 0.18  C 
BRANCH 51 52
ATOM     52  N   ASN T   1      68.856  49.074   1.295  1.00 28.18 LIG-0.35  N 
ATOM     53  C   ACE T   0      69.392  48.289   0.366  1.00 27.70 LIG 0.21  C 
ATOM     54 O    ACE T   0      68.873  48.105  -0.711  1.00 31.05 LIG-0.27  OA
ATOM     55  CH3 ACE T   0      70.739  47.672   0.656  1.00 28.48 LIG 0.12  C 
ATOM     56 H    ASN T   1      68.035  49.043   1.550  1.00 28.18 LIG 0.16  HD
ENDBRANCH 51 52
BRANCH 51 57
ATOM     57  CB  ASN T   1      68.822  51.224   2.551  1.00 27.81 LIG 0.14  C 
BRANCH 57 58
ATOM     58  CG  ASN T   1      69.198  52.613   2.015  1.00 34.08 LIG 0.22  C 
ATOM     59 OD1  ASN T   1      68.341  53.404   1.620  1.00 41.34 LIG-0.27  OA
ATOM     60  ND2 ASN T   1      70.480  52.940   2.084  1.00 39.83 LIG-0.37  N 
ATOM     61 22HD ASN T   1      71.056  52.366   2.365  1.00 39.83 LIG 0.16  HD
ATOM     62 21HD ASN T   1      70.735  53.727   1.848  1.00 39.83 LIG 0.16  HD
ENDBRANCH 57 58
ENDBRANCH 51 57
ENDBRANCH 48 51
ENDBRANCH 35 47
ENDBRANCH 1 35
TORSDOF 21
ENDMDL
MODEL 8
USER: ADFR SOLUTION from run 114
USER: SCORE 19.139621 LL:  -4.233 LR: -15.894 RR:   0.000 FEB:  -9.630
USER: RMSD 2.211549
USER: SEED 113
USER: STATUS no improvement in best 8 clusters for 5 generations
USER: GENES 23
USER: genes 0 Translation |==|  0.53357 0.48600 0.54100
USER: genes 1 Rotation |==|  0.47960 0.08067 0.59560 0.75418
USER: genes 2 Torsion [C]-N--CA-[CB] |==|  0.52222
USER: genes 3 Torsion [N]-CA--CB-[CG] |==|  0.66955
USER: genes 4 Torsion [CA]-CB--CG-[CD] |==|  0.90183
USER: genes 5 Torsion [CB]-CG--CD-[OE2] |==|  0.28398
USER: genes 6 Torsion [N]-CA--C-[N] |==|  0.41275
USER: genes 7 Torsion [C]-N--CA-[C] |==|  0.80540
USER: genes 8 Torsion [N]-CA--C-[N] |==|  0.48516
USER: genes 9 Torsion [C]-N--CA-[C] |==|  0.77465
USER: genes 10 Torsion [N]-CA--C-[O] |==|  0.49413
USER: genes 11 Torsion [N]-CA--CB-[CG] |==|  0.84980
USER: genes 12 Torsion [CA]-CB--CG-[CD1] |==|  0.22868
USER: genes 13 Torsion [N]-CA--CB-[CG2] |==|  0.16783
USER: genes 14 Torsion [CA]-CB--OG1-[HG1] |==|  0.08392
USER: genes 15 Torsion [N]-C--CA-[N] |==|  0.05537
USER: genes 16 Torsion [C]-CA--CB-[CG] |==|  0.37498
USER: genes 17 Torsion [CA]-CB--CG-[CD2] |==|  0.82006
USER: genes 18 Torsion [C]-CA--N-[C] |==|  0.64403
USER: genes 19 Torsion [N]-C--CA-[N] |==|  0.95988
USER: genes 20 Torsion [C]-CA--N-[C] |==|  0.75704
USER: genes 21 Torsion [C]-CA--CB-[CG] |==|  0.01089
USER: genes 22 Torsion [CA]-CB--CG-[OD1] |==|  0.76339
ROOT
ATOM      1  C   TRP T   2      71.617  44.310   6.130  1.00 22.72 LIG 0.24  C 
ATOM      2 O    TRP T   2      70.938  44.900   6.986  1.00 25.73 LIG-0.27  OA
ATOM      3  N   GLU T   3      72.255  44.947   5.157  1.00 22.46 LIG-0.35  N 
ATOM      4 H    GLU T   3      72.701  44.570   4.527  1.00 22.46 LIG 0.16  HD
ENDROOT
BRANCH 3 5
ATOM      5  CA  GLU T   3      72.223  46.391   5.120  1.00 22.12 LIG 0.18  C 
BRANCH 5 6
ATOM      6  CB  GLU T   3      72.846  46.902   3.823  1.00 23.21 LIG 0.04  C 
BRANCH 6 7
ATOM      7  CG  GLU T   3      74.055  47.768   4.072  1.00 26.62 LIG 0.12  C 
BRANCH 7 8
ATOM      8  CD  GLU T   3      73.925  48.602   5.304  1.00 29.06 LIG 0.17  C 
ATOM      9 OE2  GLU T   3      74.531  48.234   6.337  1.00 35.17 LIG-0.65  OA
ATOM     10 OE1  GLU T   3      73.217  49.625   5.247  1.00 32.66 LIG-0.65  OA
ENDBRANCH 7 8
ENDBRANCH 6 7
ENDBRANCH 5 6
BRANCH 5 11
ATOM     11  C   GLU T   3      70.824  46.931   5.257  1.00 21.48 LIG 0.24  C 
ATOM     12  N   THR T   4      70.754  48.101   5.863  1.00 23.46 LIG-0.34  N 
ATOM     13 H    THR T   4      71.454  48.513   6.146  1.00 23.46 LIG 0.16  HD
ATOM     14 O    GLU T   3      69.860  46.307   4.863  1.00 21.28 LIG-0.27  OA
BRANCH 12 15
ATOM     15  CA  THR T   4      69.533  48.825   6.125  1.00 25.11 LIG 0.20  C 
BRANCH 15 16
ATOM     16  C   THR T   4      68.961  49.347   4.808  1.00 26.24 LIG 0.24  C 
ATOM     17 O    THR T   4      69.519  49.103   3.745  1.00 26.41 LIG-0.27  OA
ATOM     18  N   PHE T   5      67.777  49.940   4.886  1.00 29.12 LIG-0.34  N 
ATOM     19 H    PHE T   5      67.326  50.002   5.615  1.00 29.12 LIG 0.16  HD
BRANCH 18 20
ATOM     20  CA  PHE T   5      67.127  50.547   3.737  1.00 29.36 LIG 0.19  C 
BRANCH 20 21
ATOM     21  C   PHE T   5      67.720  51.959   3.494  1.00 32.56 LIG 0.20  C 
ATOM     22 O    PHE T   5      67.291  52.604   2.507  1.00 36.67 LIG-0.65  OA
ATOM     23 OXT  PHE T   5      68.583  52.439   4.281  1.00 34.39 LIG-0.65  OA
ENDBRANCH 20 21
BRANCH 20 24
ATOM     24  CB  PHE T   5      65.632  50.695   3.987  1.00 26.24 LIG 0.07  C 
BRANCH 24 25
ATOM     25  CG  PHE T   5      64.941  49.432   4.381  1.00 22.58 LIG-0.06  A 
ATOM     26  CD1 PHE T   5      64.972  49.002   5.695  1.00 21.65 LIG 0.01  A 
ATOM     27  CE1 PHE T   5      64.450  47.784   6.045  1.00 20.51 LIG 0.00  A 
ATOM     28  CZ  PHE T   5      63.886  46.983   5.084  1.00 20.87 LIG 0.00  A 
ATOM     29  CE2 PHE T   5      63.842  47.414   3.767  1.00 20.50 LIG 0.00  A 
ATOM     30  CD2 PHE T   5      64.361  48.622   3.427  1.00 18.29 LIG 0.01  A 
ENDBRANCH 24 25
ENDBRANCH 20 24
ENDBRANCH 18 20
ENDBRANCH 15 16
BRANCH 15 31
ATOM     31  CB  THR T   4      69.889  49.984   7.122  1.00 25.29 LIG 0.15  C 
ATOM     32  CG2 THR T   4      70.911  50.953   6.578  1.00 28.15 LIG 0.04  C 
BRANCH 31 33
ATOM     33 OG1  THR T   4      68.692  50.668   7.525  1.00 26.44 LIG-0.39  OA
ATOM     34 HG1  THR T   4      68.046  50.131   7.518  1.00 26.44 LIG 0.21  HD
ENDBRANCH 31 33
ENDBRANCH 15 31
ENDBRANCH 12 15
ENDBRANCH 5 11
ENDBRANCH 3 5
BRANCH 1 35
ATOM     35  CA  TRP T   2      71.712  42.791   6.116  1.00 22.55 LIG 0.18  C 
BRANCH 35 36
ATOM     36  CB  TRP T   2      71.852  42.271   7.552  1.00 18.37 LIG 0.07  C 
BRANCH 36 37
ATOM     37  CG  TRP T   2      70.955  41.090   7.822  1.00 15.70 LIG-0.03  A 
ATOM     38  CD2 TRP T   2      69.526  41.090   7.821  1.00  9.74 LIG-0.00  A 
ATOM     39  CE2 TRP T   2      69.106  39.780   8.112  1.00 12.08 LIG 0.04  A 
ATOM     40  CE3 TRP T   2      68.560  42.071   7.617  1.00  8.42 LIG 0.01  A 
ATOM     41  CZ2 TRP T   2      67.760  39.436   8.196  1.00 12.57 LIG 0.03  A 
ATOM     42  NE1 TRP T   2      70.231  39.009   8.278  1.00 15.46 LIG-0.36  N 
ATOM     43  CH2 TRP T   2      66.852  40.428   7.990  1.00  9.29 LIG 0.00  A 
ATOM     44  CZ3 TRP T   2      67.250  41.732   7.700  1.00  5.55 LIG 0.00  A 
ATOM     45 HE1  TRP T   2      70.238  38.170   8.465  1.00 15.46 LIG 0.17  HD
ATOM     46  CD1 TRP T   2      71.340  39.799   8.099  1.00 15.83 LIG 0.10  A 
ENDBRANCH 36 37
ENDBRANCH 35 36
BRANCH 35 47
ATOM     47  N   TRP T   2      72.835  42.286   5.336  1.00 22.15 LIG-0.35  N 
ATOM     48  C   ASN T   1      72.709  41.369   4.389  1.00 24.32 LIG 0.24  C 
ATOM     49 O    ASN T   1      71.636  40.816   4.127  1.00 24.18 LIG-0.27  OA
ATOM     50 H    TRP T   2      73.588  42.641   5.548  1.00 22.15 LIG 0.16  HD
BRANCH 48 51
ATOM     51  CA  ASN T   1      74.013  40.898   3.754  1.00 25.81 LIG 0.18  C 
BRANCH 51 52
ATOM     52  N   ASN T   1      75.194  41.687   3.990  1.00 28.18 LIG-0.35  N 
ATOM     53  C   ACE T   0      75.481  42.709   3.190  1.00 27.70 LIG 0.21  C 
ATOM     54 O    ACE T   0      76.580  42.874   2.711  1.00 31.05 LIG-0.27  OA
ATOM     55  CH3 ACE T   0      74.359  43.648   2.817  1.00 28.48 LIG 0.12  C 
ATOM     56 H    ASN T   1      75.669  41.444   4.665  1.00 28.18 LIG 0.16  HD
ENDBRANCH 51 52
BRANCH 51 57
ATOM     57  CB  ASN T   1      74.275  39.374   3.905  1.00 27.81 LIG 0.14  C 
BRANCH 57 58
ATOM     58  CG  ASN T   1      73.131  38.605   4.580  1.00 34.08 LIG 0.22  C 
ATOM     59 OD1  ASN T   1      73.044  38.524   5.806  1.00 41.34 LIG-0.27  OA
ATOM     60  ND2 ASN T   1      72.203  38.109   3.775  1.00 39.83 LIG-0.37  N 
ATOM     61 22HD ASN T   1      72.291  38.180   2.922  1.00 39.83 LIG 0.16  HD
ATOM     62 21HD ASN T   1      71.512  37.717   4.105  1.00 39.83 LIG 0.16  HD
ENDBRANCH 57 58
ENDBRANCH 51 57
ENDBRANCH 48 51
ENDBRANCH 35 47
ENDBRANCH 1 35
TORSDOF 21
ENDMDL
MODEL 9
USER: ADFR SOLUTION from run 12
USER: SCORE 18.163437 LL:  -4.359 LR: -15.826 RR:   0.000 FEB:  -9.562
USER: RMSD 10.701340
USER: SEED 438320
USER: STATUS searching
USER: GENES 23
USER: genes 0 Translation |==|  0.49382 0.60004 0.48946
USER: genes 1 Rotation |==|  0.39456 0.51410 0.01615 0.56764
USER: genes 2 Torsion [C]-N--CA-[CB] |==|  0.35982
USER: genes 3 Torsion [N]-CA--CB-[CG] |==|  0.97246
USER: genes 4 Torsion [CA]-CB--CG-[CD] |==|  0.62774
USER: genes 5 Torsion [CB]-CG--CD-[OE2] |==|  0.83551
USER: genes 6 Torsion [N]-CA--C-[N] |==|  0.29518
USER: genes 7 Torsion [C]-N--CA-[C] |==|  0.53902
USER: genes 8 Torsion [N]-CA--C-[N] |==|  0.43074
USER: genes 9 Torsion [C]-N--CA-[C] |==|  0.54410
USER: genes 10 Torsion [N]-CA--C-[O] |==|  0.19386
USER: genes 11 Torsion [N]-CA--CB-[CG] |==|  0.63594
USER: genes 12 Torsion [CA]-CB--CG-[CD1] |==|  0.23053
USER: genes 13 Torsion [N]-CA--CB-[CG2] |==|  0.40968
USER: genes 14 Torsion [CA]-CB--OG1-[HG1] |==|  0.10688
USER: genes 15 Torsion [N]-C--CA-[N] |==|  0.36899
USER: genes 16 Torsion [C]-CA--CB-[CG] |==|  0.44835
USER: genes 17 Torsion [CA]-CB--CG-[CD2] |==|  0.17151
USER: genes 18 Torsion [C]-CA--N-[C] |==|  0.83289
USER: genes 19 Torsion [N]-C--CA-[N] |==|  0.43333
USER: genes 20 Torsion [C]-CA--N-[C] |==|  0.76141
USER: genes 21 Torsion [C]-CA--CB-[CG] |==|  0.12696
USER: genes 22 Torsion [CA]-CB--CG-[OD1] |==|  0.73271
ROOT
ATOM      1  C   TRP T   2      70.425  47.731   4.584  1.00 22.72 LIG 0.24  C 
ATOM      2 O    TRP T   2      69.489  47.096   5.095  1.00 25.73 LIG-0.27  OA
ATOM      3  N   GLU T   3      71.334  47.164   3.803  1.00 22.46 LIG-0.35  N 
ATOM      4 H    GLU T   3      72.016  47.564   3.465  1.00 22.46 LIG 0.16  HD
ENDROOT
BRANCH 3 5
ATOM      5  CA  GLU T   3      71.204  45.764   3.471  1.00 22.12 LIG 0.18  C 
BRANCH 5 6
ATOM      6  CB  GLU T   3      71.322  45.565   1.962  1.00 23.21 LIG 0.04  C 
BRANCH 6 7
ATOM      7  CG  GLU T   3      71.299  46.871   1.209  1.00 26.62 LIG 0.12  C 
BRANCH 7 8
ATOM      8  CD  GLU T   3      70.390  46.840   0.025  1.00 29.06 LIG 0.17  C 
ATOM      9 OE2  GLU T   3      70.610  45.992  -0.871  1.00 35.17 LIG-0.65  OA
ATOM     10 OE1  GLU T   3      69.455  47.662  -0.018  1.00 32.66 LIG-0.65  OA
ENDBRANCH 7 8
ENDBRANCH 6 7
ENDBRANCH 5 6
BRANCH 5 11
ATOM     11  C   GLU T   3      72.230  44.916   4.175  1.00 21.48 LIG 0.24  C 
ATOM     12  N   THR T   4      71.744  44.193   5.166  1.00 23.46 LIG-0.34  N 
ATOM     13 H    THR T   4      70.911  44.209   5.379  1.00 23.46 LIG 0.16  HD
ATOM     14 O    GLU T   3      73.401  44.940   3.857  1.00 21.28 LIG-0.27  OA
BRANCH 12 15
ATOM     15  CA  THR T   4      72.519  43.307   6.001  1.00 25.11 LIG 0.20  C 
BRANCH 15 16
ATOM     16  C   THR T   4      71.576  42.399   6.789  1.00 26.24 LIG 0.24  C 
ATOM     17 O    THR T   4      70.393  42.692   6.920  1.00 26.41 LIG-0.27  OA
ATOM     18  N   PHE T   5      72.083  41.239   7.183  1.00 29.12 LIG-0.34  N 
ATOM     19 H    PHE T   5      72.878  40.978   6.984  1.00 29.12 LIG 0.16  HD
BRANCH 18 20
ATOM     20  CA  PHE T   5      71.338  40.292   7.995  1.00 29.36 LIG 0.19  C 
BRANCH 20 21
ATOM     21  C   PHE T   5      72.316  39.256   8.607  1.00 32.56 LIG 0.20  C 
ATOM     22 O    PHE T   5      73.103  39.659   9.496  1.00 36.67 LIG-0.65  OA
ATOM     23 OXT  PHE T   5      72.293  38.050   8.234  1.00 34.39 LIG-0.65  OA
ENDBRANCH 20 21
BRANCH 20 24
ATOM     24  CB  PHE T   5      70.323  39.542   7.142  1.00 26.24 LIG 0.07  C 
BRANCH 24 25
ATOM     25  CG  PHE T   5      68.944  39.501   7.713  1.00 22.58 LIG-0.06  A 
ATOM     26  CD1 PHE T   5      68.081  40.565   7.525  1.00 21.65 LIG 0.01  A 
ATOM     27  CE1 PHE T   5      66.860  40.594   8.148  1.00 20.51 LIG 0.00  A 
ATOM     28  CZ  PHE T   5      66.487  39.555   8.962  1.00 20.87 LIG 0.00  A 
ATOM     29  CE2 PHE T   5      67.343  38.480   9.145  1.00 20.50 LIG 0.00  A 
ATOM     30  CD2 PHE T   5      68.551  38.458   8.526  1.00 18.29 LIG 0.01  A 
ENDBRANCH 24 25
ENDBRANCH 20 24
ENDBRANCH 18 20
ENDBRANCH 15 16
BRANCH 15 31
ATOM     31  CB  THR T   4      73.400  44.207   6.937  1.00 25.29 LIG 0.15  C 
ATOM     32  CG2 THR T   4      73.649  43.600   8.297  1.00 28.15 LIG 0.04  C 
BRANCH 31 33
ATOM     33 OG1  THR T   4      74.638  44.530   6.282  1.00 26.44 LIG-0.39  OA
ATOM     34 HG1  THR T   4      74.495  44.669   5.466  1.00 26.44 LIG 0.21  HD
ENDBRANCH 31 33
ENDBRANCH 15 31
ENDBRANCH 12 15
ENDBRANCH 5 11
ENDBRANCH 3 5
BRANCH 1 35
ATOM     35  CA  TRP T   2      70.617  49.213   4.875  1.00 22.55 LIG 0.18  C 
BRANCH 35 36
ATOM     36  CB  TRP T   2      71.112  49.394   6.315  1.00 18.37 LIG 0.07  C 
BRANCH 36 37
ATOM     37  CG  TRP T   2      71.743  50.745   6.537  1.00 15.70 LIG-0.03  A 
ATOM     38  CD2 TRP T   2      71.100  52.014   6.406  1.00  9.74 LIG-0.00  A 
ATOM     39  CE2 TRP T   2      72.054  53.002   6.712  1.00 12.08 LIG 0.04  A 
ATOM     40  CE3 TRP T   2      69.817  52.415   6.046  1.00  8.42 LIG 0.01  A 
ATOM     41  CZ2 TRP T   2      71.753  54.359   6.671  1.00 12.57 LIG 0.03  A 
ATOM     42  NE1 TRP T   2      73.229  52.362   7.023  1.00 15.46 LIG-0.36  N 
ATOM     43  CH2 TRP T   2      70.485  54.704   6.314  1.00  9.29 LIG 0.00  A 
ATOM     44  CZ3 TRP T   2      69.527  53.739   6.008  1.00  5.55 LIG 0.00  A 
ATOM     45 HE1  TRP T   2      73.965  52.749   7.245  1.00 15.46 LIG 0.17  HD
ATOM     46  CD1 TRP T   2      73.037  51.007   6.922  1.00 15.83 LIG 0.10  A 
ENDBRANCH 36 37
ENDBRANCH 35 36
BRANCH 35 47
ATOM     47  N   TRP T   2      69.401  50.000   4.708  1.00 22.15 LIG-0.35  N 
ATOM     48  C   ASN T   1      68.744  50.088   3.561  1.00 24.32 LIG 0.24  C 
ATOM     49 O    ASN T   1      69.140  49.560   2.517  1.00 24.18 LIG-0.27  OA
ATOM     50 H    TRP T   2      69.150  50.402   5.425  1.00 22.15 LIG 0.16  HD
BRANCH 48 51
ATOM     51  CA  ASN T   1      67.552  51.039   3.560  1.00 25.81 LIG 0.18  C 
BRANCH 51 52
ATOM     52  N   ASN T   1      67.134  51.584   2.294  1.00 28.18 LIG-0.35  N 
ATOM     53  C   ACE T   0      67.711  52.684   1.822  1.00 27.70 LIG 0.21  C 
ATOM     54 O    ACE T   0      67.077  53.623   1.397  1.00 31.05 LIG-0.27  OA
ATOM     55  CH3 ACE T   0      69.217  52.777   1.896  1.00 28.48 LIG 0.12  C 
ATOM     56 H    ASN T   1      66.507  51.150   1.897  1.00 28.18 LIG 0.16  HD
ENDBRANCH 51 52
BRANCH 51 57
ATOM     57  CB  ASN T   1      66.356  50.553   4.423  1.00 27.81 LIG 0.14  C 
BRANCH 57 58
ATOM     58  CG  ASN T   1      66.754  50.031   5.811  1.00 34.08 LIG 0.22  C 
ATOM     59 OD1  ASN T   1      66.919  48.830   6.025  1.00 41.34 LIG-0.27  OA
ATOM     60  ND2 ASN T   1      66.993  50.950   6.736  1.00 39.83 LIG-0.37  N 
ATOM     61 22HD ASN T   1      66.868  51.782   6.558  1.00 39.83 LIG 0.16  HD
ATOM     62 21HD ASN T   1      67.272  50.713   7.514  1.00 39.83 LIG 0.16  HD
ENDBRANCH 57 58
ENDBRANCH 51 57
ENDBRANCH 48 51
ENDBRANCH 35 47
ENDBRANCH 1 35
TORSDOF 21
ENDMDL
MODEL 10
USER: ADFR SOLUTION from run 159
USER: SCORE 17.277921 LL:  -3.592 LR: -15.826 RR:   0.000 FEB:  -9.562
USER: RMSD 11.029227
USER: SEED 158
USER: STATUS no improvement in best 27 clusters for 5 generations
USER: GENES 23
USER: genes 0 Translation |==|  0.53437 0.40829 0.50407
USER: genes 1 Rotation |==|  0.09891 0.68582 0.73308 0.51662
USER: genes 2 Torsion [C]-N--CA-[CB] |==|  0.19861
USER: genes 3 Torsion [N]-CA--CB-[CG] |==|  0.11322
USER: genes 4 Torsion [CA]-CB--CG-[CD] |==|  0.37056
USER: genes 5 Torsion [CB]-CG--CD-[OE2] |==|  0.12324
USER: genes 6 Torsion [N]-CA--C-[N] |==|  0.56387
USER: genes 7 Torsion [C]-N--CA-[C] |==|  0.59080
USER: genes 8 Torsion [N]-CA--C-[N] |==|  0.76111
USER: genes 9 Torsion [C]-N--CA-[C] |==|  0.78632
USER: genes 10 Torsion [N]-CA--C-[O] |==|  0.65446
USER: genes 11 Torsion [N]-CA--CB-[CG] |==|  0.84975
USER: genes 12 Torsion [CA]-CB--CG-[CD1] |==|  0.73886
USER: genes 13 Torsion [N]-CA--CB-[CG2] |==|  0.74838
USER: genes 14 Torsion [CA]-CB--OG1-[HG1] |==|  0.15465
USER: genes 15 Torsion [N]-C--CA-[N] |==|  0.22049
USER: genes 16 Torsion [C]-CA--CB-[CG] |==|  0.38689
USER: genes 17 Torsion [CA]-CB--CG-[CD2] |==|  0.99881
USER: genes 18 Torsion [C]-CA--N-[C] |==|  0.78527
USER: genes 19 Torsion [N]-C--CA-[N] |==|  0.31774
USER: genes 20 Torsion [C]-CA--N-[C] |==|  0.75652
USER: genes 21 Torsion [C]-CA--CB-[CG] |==|  0.76572
USER: genes 22 Torsion [CA]-CB--CG-[OD1] |==|  0.26523
ROOT
ATOM      1  C   TRP T   2      71.641  41.979   5.022  1.00 22.72 LIG 0.24  C 
ATOM      2 O    TRP T   2      71.733  41.101   4.149  1.00 25.73 LIG-0.27  OA
ATOM      3  N   GLU T   3      71.067  41.764   6.198  1.00 22.46 LIG-0.35  N 
ATOM      4 H    GLU T   3      70.951  42.357   6.809  1.00 22.46 LIG 0.16  HD
ENDROOT
BRANCH 3 5
ATOM      5  CA  GLU T   3      70.585  40.439   6.515  1.00 22.12 LIG 0.18  C 
BRANCH 5 6
ATOM      6  CB  GLU T   3      71.758  39.493   6.760  1.00 23.21 LIG 0.04  C 
BRANCH 6 7
ATOM      7  CG  GLU T   3      72.864  40.145   7.551  1.00 26.62 LIG 0.12  C 
BRANCH 7 8
ATOM      8  CD  GLU T   3      73.362  39.285   8.665  1.00 29.06 LIG 0.17  C 
ATOM      9 OE2  GLU T   3      73.567  38.071   8.432  1.00 35.17 LIG-0.65  OA
ATOM     10 OE1  GLU T   3      73.550  39.815   9.777  1.00 32.66 LIG-0.65  OA
ENDBRANCH 7 8
ENDBRANCH 6 7
ENDBRANCH 5 6
BRANCH 5 11
ATOM     11  C   GLU T   3      69.676  40.439   7.716  1.00 21.48 LIG 0.24  C 
ATOM     12  N   THR T   4      69.595  39.274   8.330  1.00 23.46 LIG-0.34  N 
ATOM     13 H    THR T   4      70.033  38.583   8.063  1.00 23.46 LIG 0.16  HD
ATOM     14 O    GLU T   3      69.059  41.430   8.047  1.00 21.28 LIG-0.27  OA
BRANCH 12 15
ATOM     15  CA  THR T   4      68.787  39.008   9.497  1.00 25.11 LIG 0.20  C 
BRANCH 15 16
ATOM     16  C   THR T   4      69.484  37.964  10.368  1.00 26.24 LIG 0.24  C 
ATOM     17 O    THR T   4      70.111  38.302  11.366  1.00 26.41 LIG-0.27  OA
ATOM     18  N   PHE T   5      69.247  36.698  10.056  1.00 29.12 LIG-0.34  N 
ATOM     19 H    PHE T   5      68.707  36.457   9.431  1.00 29.12 LIG 0.16  HD
BRANCH 18 20
ATOM     20  CA  PHE T   5      69.883  35.587  10.745  1.00 29.36 LIG 0.19  C 
BRANCH 20 21
ATOM     21  C   PHE T   5      71.344  35.438  10.244  1.00 32.56 LIG 0.20  C 
ATOM     22 O    PHE T   5      71.686  34.322   9.785  1.00 36.67 LIG-0.65  OA
ATOM     23 OXT  PHE T   5      72.140  36.417  10.279  1.00 34.39 LIG-0.65  OA
ENDBRANCH 20 21
BRANCH 20 24
ATOM     24  CB  PHE T   5      69.145  34.287  10.455  1.00 26.24 LIG 0.07  C 
BRANCH 24 25
ATOM     25  CG  PHE T   5      67.683  34.325  10.750  1.00 22.58 LIG-0.06  A 
ATOM     26  CD1 PHE T   5      67.208  33.893  11.975  1.00 21.65 LIG 0.01  A 
ATOM     27  CE1 PHE T   5      65.861  33.806  12.213  1.00 20.51 LIG 0.00  A 
ATOM     28  CZ  PHE T   5      64.972  34.156  11.227  1.00 20.87 LIG 0.00  A 
ATOM     29  CE2 PHE T   5      65.442  34.600  10.001  1.00 20.50 LIG 0.00  A 
ATOM     30  CD2 PHE T   5      66.778  34.683   9.773  1.00 18.29 LIG 0.01  A 
ENDBRANCH 24 25
ENDBRANCH 20 24
ENDBRANCH 18 20
ENDBRANCH 15 16
BRANCH 15 31
ATOM     31  CB  THR T   4      67.386  38.520   8.987  1.00 25.29 LIG 0.15  C 
ATOM     32  CG2 THR T   4      66.393  39.641   8.791  1.00 28.15 LIG 0.04  C 
BRANCH 31 33
ATOM     33 OG1  THR T   4      67.543  37.753   7.782  1.00 26.44 LIG-0.39  OA
ATOM     34 HG1  THR T   4      68.076  37.119   7.921  1.00 26.44 LIG 0.21  HD
ENDBRANCH 31 33
ENDBRANCH 15 31
ENDBRANCH 12 15
ENDBRANCH 5 11
ENDBRANCH 3 5
BRANCH 1 35
ATOM     35  CA  TRP T   2      72.142  43.394   4.766  1.00 22.55 LIG 0.18  C 
BRANCH 35 36
ATOM     36  CB  TRP T   2      72.294  43.619   3.256  1.00 18.37 LIG 0.07  C 
BRANCH 36 37
ATOM     37  CG  TRP T   2      71.823  44.987   2.832  1.00 15.70 LIG-0.03  A 
ATOM     38  CD2 TRP T   2      71.279  45.999   3.681  1.00  9.74 LIG-0.00  A 
ATOM     39  CE2 TRP T   2      70.983  47.111   2.873  1.00 12.08 LIG 0.04  A 
ATOM     40  CE3 TRP T   2      71.000  46.070   5.043  1.00  8.42 LIG 0.01  A 
ATOM     41  CZ2 TRP T   2      70.427  48.276   3.392  1.00 12.57 LIG 0.03  A 
ATOM     42  NE1 TRP T   2      71.336  46.794   1.584  1.00 15.46 LIG-0.36  N 
ATOM     43  CH2 TRP T   2      70.171  48.300   4.728  1.00  9.29 LIG 0.00  A 
ATOM     44  CZ3 TRP T   2      70.458  47.207   5.545  1.00  5.55 LIG 0.00  A 
ATOM     45 HE1  TRP T   2      71.253  47.310   0.901  1.00 15.46 LIG 0.17  HD
ATOM     46  CD1 TRP T   2      71.845  45.518   1.564  1.00 15.83 LIG 0.10  A 
ENDBRANCH 36 37
ENDBRANCH 35 36
BRANCH 35 47
ATOM     47  N   TRP T   2      73.420  43.681   5.402  1.00 22.15 LIG-0.35  N 
ATOM     48  C   ASN T   1      73.547  43.942   6.694  1.00 24.32 LIG 0.24  C 
ATOM     49 O    ASN T   1      72.582  44.025   7.462  1.00 24.18 LIG-0.27  OA
ATOM     50 H    TRP T   2      74.087  43.665   4.859  1.00 22.15 LIG 0.16  HD
BRANCH 48 51
ATOM     51  CA  ASN T   1      74.952  44.316   7.154  1.00 25.81 LIG 0.18  C 
BRANCH 51 52
ATOM     52  N   ASN T   1      75.160  45.654   7.645  1.00 28.18 LIG-0.35  N 
ATOM     53  C   ACE T   0      75.465  46.632   6.799  1.00 27.70 LIG 0.21  C 
ATOM     54 O    ACE T   0      76.377  47.402   6.993  1.00 31.05 LIG-0.27  OA
ATOM     55  CH3 ACE T   0      74.676  46.724   5.515  1.00 28.48 LIG 0.12  C 
ATOM     56 H    ASN T   1      75.072  45.750   8.495  1.00 28.18 LIG 0.16  HD
ENDBRANCH 51 52
BRANCH 51 57
ATOM     57  CB  ASN T   1      75.633  43.242   8.045  1.00 27.81 LIG 0.14  C 
BRANCH 57 58
ATOM     58  CG  ASN T   1      75.262  43.333   9.532  1.00 34.08 LIG 0.22  C 
ATOM     59 OD1  ASN T   1      74.360  42.649  10.015  1.00 41.34 LIG-0.27  OA
ATOM     60  ND2 ASN T   1      76.023  44.122  10.278  1.00 39.83 LIG-0.37  N 
ATOM     61 22HD ASN T   1      76.646  44.589   9.912  1.00 39.83 LIG 0.16  HD
ATOM     62 21HD ASN T   1      75.892  44.167  11.127  1.00 39.83 LIG 0.16  HD
ENDBRANCH 57 58
ENDBRANCH 51 57
ENDBRANCH 48 51
ENDBRANCH 35 47
ENDBRANCH 1 35
TORSDOF 21
ENDMDL
MODEL 11
USER: ADFR SOLUTION from run 134
USER: SCORE 19.005752 LL:  -4.059 LR: -15.816 RR:   0.000 FEB:  -9.551
USER: RMSD 10.079573
USER: SEED 133
USER: STATUS no improvement in best 3 clusters for 5 generations
USER: GENES 23
USER: genes 0 Translation |==|  0.46143 0.64100 0.48717
USER: genes 1 Rotation |==|  0.38030 0.30795 0.10871 0.71372
USER: genes 2 Torsion [C]-N--CA-[CB] |==|  0.83125
USER: genes 3 Torsion [N]-CA--CB-[CG] |==|  0.87546
USER: genes 4 Torsion [CA]-CB--CG-[CD] |==|  0.36188
USER: genes 5 Torsion [CB]-CG--CD-[OE2] |==|  0.30626
USER: genes 6 Torsion [N]-CA--C-[N] |==|  0.40445
USER: genes 7 Torsion [C]-N--CA-[C] |==|  0.77443
USER: genes 8 Torsion [N]-CA--C-[N] |==|  0.42202
USER: genes 9 Torsion [C]-N--CA-[C] |==|  0.60762
USER: genes 10 Torsion [N]-CA--C-[O] |==|  0.93569
USER: genes 11 Torsion [N]-CA--CB-[CG] |==|  0.37889
USER: genes 12 Torsion [CA]-CB--CG-[CD1] |==|  0.70027
USER: genes 13 Torsion [N]-CA--CB-[CG2] |==|  0.40297
USER: genes 14 Torsion [CA]-CB--OG1-[HG1] |==|  0.68069
USER: genes 15 Torsion [N]-C--CA-[N] |==|  0.23666
USER: genes 16 Torsion [C]-CA--CB-[CG] |==|  0.67009
USER: genes 17 Torsion [CA]-CB--CG-[CD2] |==|  0.27148
USER: genes 18 Torsion [C]-CA--N-[C] |==|  0.61835
USER: genes 19 Torsion [N]-C--CA-[N] |==|  0.30607
USER: genes 20 Torsion [C]-CA--N-[C] |==|  0.61755
USER: genes 21 Torsion [C]-CA--CB-[CG] |==|  0.07886
USER: genes 22 Torsion [CA]-CB--CG-[OD1] |==|  0.20363
ROOT
ATOM      1  C   TRP T   2      69.453  48.960   4.515  1.00 22.72 LIG 0.24  C 
ATOM      2 O    TRP T   2      69.107  48.330   5.527  1.00 25.73 LIG-0.27  OA
ATOM      3  N   GLU T   3      70.666  48.862   3.989  1.00 22.46 LIG-0.35  N 
ATOM      4 H    GLU T   3      70.953  49.311   3.315  1.00 22.46 LIG 0.16  HD
ENDROOT
BRANCH 3 5
ATOM      5  CA  GLU T   3      71.613  47.937   4.569  1.00 22.12 LIG 0.18  C 
BRANCH 5 6
ATOM      6  CB  GLU T   3      71.888  48.302   6.025  1.00 23.21 LIG 0.04  C 
BRANCH 6 7
ATOM      7  CG  GLU T   3      72.108  49.782   6.211  1.00 26.62 LIG 0.12  C 
BRANCH 7 8
ATOM      8  CD  GLU T   3      71.284  50.355   7.317  1.00 29.06 LIG 0.17  C 
ATOM      9 OE2  GLU T   3      71.867  50.730   8.360  1.00 35.17 LIG-0.65  OA
ATOM     10 OE1  GLU T   3      70.051  50.431   7.150  1.00 32.66 LIG-0.65  OA
ENDBRANCH 7 8
ENDBRANCH 6 7
ENDBRANCH 5 6
BRANCH 5 11
ATOM     11  C   GLU T   3      71.135  46.511   4.487  1.00 21.48 LIG 0.24  C 
ATOM     12  N   THR T   4      72.099  45.629   4.305  1.00 23.46 LIG-0.34  N 
ATOM     13 H    THR T   4      72.926  45.859   4.246  1.00 23.46 LIG 0.16  HD
ATOM     14 O    GLU T   3      69.956  46.230   4.553  1.00 21.28 LIG-0.27  OA
BRANCH 12 15
ATOM     15  CA  THR T   4      71.905  44.203   4.184  1.00 25.11 LIG 0.20  C 
BRANCH 15 16
ATOM     16  C   THR T   4      71.759  43.592   5.576  1.00 26.24 LIG 0.24  C 
ATOM     17 O    THR T   4      72.185  44.180   6.564  1.00 26.41 LIG-0.27  OA
ATOM     18  N   PHE T   5      71.033  42.485   5.650  1.00 29.12 LIG-0.34  N 
ATOM     19 H    PHE T   5      70.629  42.138   4.975  1.00 29.12 LIG 0.16  HD
BRANCH 18 20
ATOM     20  CA  PHE T   5      70.852  41.746   6.888  1.00 29.36 LIG 0.19  C 
BRANCH 20 21
ATOM     21  C   PHE T   5      70.881  40.224   6.590  1.00 32.56 LIG 0.20  C 
ATOM     22 O    PHE T   5      70.600  39.858   5.424  1.00 36.67 LIG-0.65  OA
ATOM     23 OXT  PHE T   5      71.200  39.397   7.490  1.00 34.39 LIG-0.65  OA
ENDBRANCH 20 21
BRANCH 20 24
ATOM     24  CB  PHE T   5      69.507  42.082   7.518  1.00 26.24 LIG 0.07  C 
BRANCH 24 25
ATOM     25  CG  PHE T   5      68.755  40.902   8.040  1.00 22.58 LIG-0.06  A 
ATOM     26  CD1 PHE T   5      67.628  40.447   7.381  1.00 21.65 LIG 0.01  A 
ATOM     27  CE1 PHE T   5      66.860  39.446   7.917  1.00 20.51 LIG 0.00  A 
ATOM     28  CZ  PHE T   5      67.215  38.886   9.118  1.00 20.87 LIG 0.00  A 
ATOM     29  CE2 PHE T   5      68.350  39.330   9.778  1.00 20.50 LIG 0.00  A 
ATOM     30  CD2 PHE T   5      69.106  40.322   9.241  1.00 18.29 LIG 0.01  A 
ENDBRANCH 24 25
ENDBRANCH 20 24
ENDBRANCH 18 20
ENDBRANCH 15 16
BRANCH 15 31
ATOM     31  CB  THR T   4      73.144  43.632   3.408  1.00 25.29 LIG 0.15  C 
ATOM     32  CG2 THR T   4      73.563  42.258   3.872  1.00 28.15 LIG 0.04  C 
BRANCH 31 33
ATOM     33 OG1  THR T   4      72.885  43.644   1.995  1.00 26.44 LIG-0.39  OA
ATOM     34 HG1  THR T   4      72.860  42.855   1.708  1.00 26.44 LIG 0.21  HD
ENDBRANCH 31 33
ENDBRANCH 15 31
ENDBRANCH 12 15
ENDBRANCH 5 11
ENDBRANCH 3 5
BRANCH 1 35
ATOM     35  CA  TRP T   2      68.504  49.941   3.840  1.00 22.55 LIG 0.18  C 
BRANCH 35 36
ATOM     36  CB  TRP T   2      67.466  50.434   4.857  1.00 18.37 LIG 0.07  C 
BRANCH 36 37
ATOM     37  CG  TRP T   2      66.058  50.074   4.456  1.00 15.70 LIG-0.03  A 
ATOM     38  CD2 TRP T   2      65.300  48.957   4.925  1.00  9.74 LIG-0.00  A 
ATOM     39  CE2 TRP T   2      64.042  49.012   4.299  1.00 12.08 LIG 0.04  A 
ATOM     40  CE3 TRP T   2      65.566  47.909   5.801  1.00  8.42 LIG 0.01  A 
ATOM     41  CZ2 TRP T   2      63.058  48.056   4.533  1.00 12.57 LIG 0.03  A 
ATOM     42  NE1 TRP T   2      64.029  50.119   3.486  1.00 15.46 LIG-0.36  N 
ATOM     43  CH2 TRP T   2      63.362  47.050   5.397  1.00  9.29 LIG 0.00  A 
ATOM     44  CZ3 TRP T   2      64.604  46.980   6.026  1.00  5.55 LIG 0.00  A 
ATOM     45 HE1  TRP T   2      63.369  50.370   2.994  1.00 15.46 LIG 0.17  HD
ATOM     46  CD1 TRP T   2      65.240  50.757   3.587  1.00 15.83 LIG 0.10  A 
ENDBRANCH 36 37
ENDBRANCH 35 36
BRANCH 35 47
ATOM     47  N   TRP T   2      67.794  49.372   2.702  1.00 22.15 LIG-0.35  N 
ATOM     48  C   ASN T   1      67.611  50.019   1.561  1.00 24.32 LIG 0.24  C 
ATOM     49 O    ASN T   1      67.974  51.187   1.385  1.00 24.18 LIG-0.27  OA
ATOM     50 H    TRP T   2      67.505  48.574   2.840  1.00 22.15 LIG 0.16  HD
BRANCH 48 51
ATOM     51  CA  ASN T   1      66.758  49.295   0.525  1.00 25.81 LIG 0.18  C 
BRANCH 51 52
ATOM     52  N   ASN T   1      65.451  49.831   0.244  1.00 28.18 LIG-0.35  N 
ATOM     53  C   ACE T   0      64.414  49.012   0.107  1.00 27.70 LIG 0.21  C 
ATOM     54 O    ACE T   0      63.639  49.090  -0.818  1.00 31.05 LIG-0.27  OA
ATOM     55  CH3 ACE T   0      64.255  47.901   1.118  1.00 28.48 LIG 0.12  C 
ATOM     56 H    ASN T   1      65.413  50.687   0.177  1.00 28.18 LIG 0.16  HD
ENDBRANCH 51 52
BRANCH 51 57
ATOM     57  CB  ASN T   1      67.529  48.899  -0.764  1.00 27.81 LIG 0.14  C 
BRANCH 57 58
ATOM     58  CG  ASN T   1      69.030  48.655  -0.547  1.00 34.08 LIG 0.22  C 
ATOM     59 OD1  ASN T   1      69.443  47.645   0.024  1.00 41.34 LIG-0.27  OA
ATOM     60  ND2 ASN T   1      69.851  49.545  -1.084  1.00 39.83 LIG-0.37  N 
ATOM     61 22HD ASN T   1      69.534  50.242  -1.477  1.00 39.83 LIG 0.16  HD
ATOM     62 21HD ASN T   1      70.702  49.427  -1.039  1.00 39.83 LIG 0.16  HD
ENDBRANCH 57 58
ENDBRANCH 51 57
ENDBRANCH 48 51
ENDBRANCH 35 47
ENDBRANCH 1 35
TORSDOF 21
ENDMDL
MODEL 12
USER: ADFR SOLUTION from run 99
USER: SCORE 17.916774 LL:  -3.451 LR: -15.805 RR:   0.000 FEB:  -9.541
USER: RMSD 11.278252
USER: SEED 98
USER: STATUS no improvement in best 20 clusters for 5 generations
USER: GENES 23
USER: genes 0 Translation |==|  0.52386 0.52485 0.51534
USER: genes 1 Rotation |==|  0.39842 0.40604 0.02027 0.52671
USER: genes 2 Torsion [C]-N--CA-[CB] |==|  0.54462
USER: genes 3 Torsion [N]-CA--CB-[CG] |==|  0.65670
USER: genes 4 Torsion [CA]-CB--CG-[CD] |==|  0.78954
USER: genes 5 Torsion [CB]-CG--CD-[OE2] |==|  0.33618
USER: genes 6 Torsion [N]-CA--C-[N] |==|  0.37998
USER: genes 7 Torsion [C]-N--CA-[C] |==|  0.67196
USER: genes 8 Torsion [N]-CA--C-[N] |==|  0.43263
USER: genes 9 Torsion [C]-N--CA-[C] |==|  0.19660
USER: genes 10 Torsion [N]-CA--C-[O] |==|  0.05589
USER: genes 11 Torsion [N]-CA--CB-[CG] |==|  0.60226
USER: genes 12 Torsion [CA]-CB--CG-[CD1] |==|  0.88054
USER: genes 13 Torsion [N]-CA--CB-[CG2] |==|  0.33187
USER: genes 14 Torsion [CA]-CB--OG1-[HG1] |==|  0.49681
USER: genes 15 Torsion [N]-C--CA-[N] |==|  0.49251
USER: genes 16 Torsion [C]-CA--CB-[CG] |==|  0.57997
USER: genes 17 Torsion [CA]-CB--CG-[CD2] |==|  0.85045
USER: genes 18 Torsion [C]-CA--N-[C] |==|  0.71668
USER: genes 19 Torsion [N]-C--CA-[N] |==|  0.80117
USER: genes 20 Torsion [C]-CA--N-[C] |==|  0.68579
USER: genes 21 Torsion [C]-CA--CB-[CG] |==|  0.53323
USER: genes 22 Torsion [CA]-CB--CG-[OD1] |==|  0.16679
ROOT
ATOM      1  C   TRP T   2      71.326  45.476   5.360  1.00 22.72 LIG 0.24  C 
ATOM      2 O    TRP T   2      70.319  45.177   6.022  1.00 25.73 LIG-0.27  OA
ATOM      3  N   GLU T   3      72.225  44.579   4.979  1.00 22.46 LIG-0.35  N 
ATOM      4 H    GLU T   3      72.952  44.755   4.555  1.00 22.46 LIG 0.16  HD
ENDROOT
BRANCH 3 5
ATOM      5  CA  GLU T   3      72.002  43.184   5.281  1.00 22.12 LIG 0.18  C 
BRANCH 5 6
ATOM      6  CB  GLU T   3      73.298  42.393   5.123  1.00 23.21 LIG 0.04  C 
BRANCH 6 7
ATOM      7  CG  GLU T   3      73.155  41.250   4.150  1.00 26.62 LIG 0.12  C 
BRANCH 7 8
ATOM      8  CD  GLU T   3      72.408  40.092   4.725  1.00 29.06 LIG 0.17  C 
ATOM      9 OE2  GLU T   3      71.360  39.717   4.150  1.00 35.17 LIG-0.65  OA
ATOM     10 OE1  GLU T   3      72.862  39.552   5.752  1.00 32.66 LIG-0.65  OA
ENDBRANCH 7 8
ENDBRANCH 6 7
ENDBRANCH 5 6
BRANCH 5 11
ATOM     11  C   GLU T   3      71.454  42.984   6.670  1.00 21.48 LIG 0.24  C 
ATOM     12  N   THR T   4      70.474  42.105   6.742  1.00 23.46 LIG-0.34  N 
ATOM     13 H    THR T   4      70.185  41.682   6.050  1.00 23.46 LIG 0.16  HD
ATOM     14 O    GLU T   3      71.876  43.617   7.617  1.00 21.28 LIG-0.27  OA
BRANCH 12 15
ATOM     15  CA  THR T   4      69.775  41.741   7.952  1.00 25.11 LIG 0.20  C 
BRANCH 15 16
ATOM     16  C   THR T   4      69.990  40.255   8.234  1.00 26.24 LIG 0.24  C 
ATOM     17 O    THR T   4      70.386  39.503   7.351  1.00 26.41 LIG-0.27  OA
ATOM     18  N   PHE T   5      69.859  39.881   9.499  1.00 29.12 LIG-0.34  N 
ATOM     19 H    PHE T   5      69.702  40.431  10.142  1.00 29.12 LIG 0.16  HD
BRANCH 18 20
ATOM     20  CA  PHE T   5      69.968  38.495   9.923  1.00 29.36 LIG 0.19  C 
BRANCH 20 21
ATOM     21  C   PHE T   5      71.445  38.035   9.807  1.00 32.56 LIG 0.20  C 
ATOM     22 O    PHE T   5      72.327  38.926   9.773  1.00 36.67 LIG-0.65  OA
ATOM     23 OXT  PHE T   5      71.735  36.807   9.775  1.00 34.39 LIG-0.65  OA
ENDBRANCH 20 21
BRANCH 20 24
ATOM     24  CB  PHE T   5      69.119  37.597   9.033  1.00 26.24 LIG 0.07  C 
BRANCH 24 25
ATOM     25  CG  PHE T   5      68.453  36.468   9.748  1.00 22.58 LIG-0.06  A 
ATOM     26  CD1 PHE T   5      69.149  35.734  10.690  1.00 21.65 LIG 0.01  A 
ATOM     27  CE1 PHE T   5      68.591  34.619  11.260  1.00 20.51 LIG 0.00  A 
ATOM     28  CZ  PHE T   5      67.326  34.230  10.897  1.00 20.87 LIG 0.00  A 
ATOM     29  CE2 PHE T   5      66.619  34.969   9.961  1.00 20.50 LIG 0.00  A 
ATOM     30  CD2 PHE T   5      67.178  36.071   9.400  1.00 18.29 LIG 0.01  A 
ENDBRANCH 24 25
ENDBRANCH 20 24
ENDBRANCH 18 20
ENDBRANCH 15 16
BRANCH 15 31
ATOM     31  CB  THR T   4      68.262  42.095   7.735  1.00 25.29 LIG 0.15  C 
ATOM     32  CG2 THR T   4      67.345  40.900   7.834  1.00 28.15 LIG 0.04  C 
BRANCH 31 33
ATOM     33 OG1  THR T   4      67.864  43.128   8.650  1.00 26.44 LIG-0.39  OA
ATOM     34 HG1  THR T   4      67.058  43.324   8.519  1.00 26.44 LIG 0.21  HD
ENDBRANCH 31 33
ENDBRANCH 15 31
ENDBRANCH 12 15
ENDBRANCH 5 11
ENDBRANCH 3 5
BRANCH 1 35
ATOM     35  CA  TRP T   2      71.619  46.923   4.990  1.00 22.55 LIG 0.18  C 
BRANCH 35 36
ATOM     36  CB  TRP T   2      72.925  47.370   5.660  1.00 18.37 LIG 0.07  C 
BRANCH 36 37
ATOM     37  CG  TRP T   2      72.944  48.851   5.941  1.00 15.70 LIG-0.03  A 
ATOM     38  CD2 TRP T   2      72.711  49.898   4.996  1.00  9.74 LIG-0.00  A 
ATOM     39  CE2 TRP T   2      72.819  51.118   5.688  1.00 12.08 LIG 0.04  A 
ATOM     40  CE3 TRP T   2      72.437  49.925   3.632  1.00  8.42 LIG 0.01  A 
ATOM     41  CZ2 TRP T   2      72.653  52.345   5.053  1.00 12.57 LIG 0.03  A 
ATOM     42  NE1 TRP T   2      73.099  50.829   7.001  1.00 15.46 LIG-0.36  N 
ATOM     43  CH2 TRP T   2      72.387  52.323   3.718  1.00  9.29 LIG 0.00  A 
ATOM     44  CZ3 TRP T   2      72.277  51.123   3.017  1.00  5.55 LIG 0.00  A 
ATOM     45 HE1  TRP T   2      73.212  51.408   7.627  1.00 15.46 LIG 0.17  HD
ATOM     46  CD1 TRP T   2      73.169  49.466   7.150  1.00 15.83 LIG 0.10  A 
ENDBRANCH 36 37
ENDBRANCH 35 36
BRANCH 35 47
ATOM     47  N   TRP T   2      70.564  47.848   5.382  1.00 22.15 LIG-0.35  N 
ATOM     48  C   ASN T   1      69.673  48.337   4.534  1.00 24.32 LIG 0.24  C 
ATOM     49 O    ASN T   1      69.698  48.100   3.321  1.00 24.18 LIG-0.27  OA
ATOM     50 H    TRP T   2      70.573  48.046   6.219  1.00 22.15 LIG 0.16  HD
BRANCH 48 51
ATOM     51  CA  ASN T   1      68.710  49.367   5.114  1.00 25.81 LIG 0.18  C 
BRANCH 51 52
ATOM     52  N   ASN T   1      67.698  48.897   6.024  1.00 28.18 LIG-0.35  N 
ATOM     53  C   ACE T   0      66.417  48.945   5.674  1.00 27.70 LIG 0.21  C 
ATOM     54 O    ACE T   0      65.559  49.396   6.398  1.00 31.05 LIG-0.27  OA
ATOM     55  CH3 ACE T   0      66.047  48.481   4.285  1.00 28.48 LIG 0.12  C 
ATOM     56 H    ASN T   1      67.990  48.598   6.775  1.00 28.18 LIG 0.16  HD
ENDBRANCH 51 52
BRANCH 51 57
ATOM     57  CB  ASN T   1      69.399  50.668   5.611  1.00 27.81 LIG 0.14  C 
BRANCH 57 58
ATOM     58  CG  ASN T   1      68.492  51.578   6.451  1.00 34.08 LIG 0.22  C 
ATOM     59 OD1  ASN T   1      67.985  51.188   7.503  1.00 41.34 LIG-0.27  OA
ATOM     60  ND2 ASN T   1      68.357  52.825   6.025  1.00 39.83 LIG-0.37  N 
ATOM     61 22HD ASN T   1      68.723  53.069   5.285  1.00 39.83 LIG 0.16  HD
ATOM     62 21HD ASN T   1      67.904  53.391   6.488  1.00 39.83 LIG 0.16  HD
ENDBRANCH 57 58
ENDBRANCH 51 57
ENDBRANCH 48 51
ENDBRANCH 35 47
ENDBRANCH 1 35
TORSDOF 21
ENDMDL
MODEL 13
USER: ADFR SOLUTION from run 44
USER: SCORE 19.145614 LL:  -4.857 LR: -15.799 RR:   0.000 FEB:  -9.534
USER: RMSD 10.825981
USER: SEED 43
USER: STATUS no improvement in best 9 clusters for 5 generations
USER: GENES 23
USER: genes 0 Translation |==|  0.50142 0.57423 0.48441
USER: genes 1 Rotation |==|  0.29904 0.50636 0.06413 0.63996
USER: genes 2 Torsion [C]-N--CA-[CB] |==|  0.50034
USER: genes 3 Torsion [N]-CA--CB-[CG] |==|  0.91943
USER: genes 4 Torsion [CA]-CB--CG-[CD] |==|  0.78710
USER: genes 5 Torsion [CB]-CG--CD-[OE2] |==|  0.29112
USER: genes 6 Torsion [N]-CA--C-[N] |==|  0.38333
USER: genes 7 Torsion [C]-N--CA-[C] |==|  0.63080
USER: genes 8 Torsion [N]-CA--C-[N] |==|  0.41447
USER: genes 9 Torsion [C]-N--CA-[C] |==|  0.63196
USER: genes 10 Torsion [N]-CA--C-[O] |==|  0.59929
USER: genes 11 Torsion [N]-CA--CB-[CG] |==|  0.73366
USER: genes 12 Torsion [CA]-CB--CG-[CD1] |==|  0.31978
USER: genes 13 Torsion [N]-CA--CB-[CG2] |==|  0.54211
USER: genes 14 Torsion [CA]-CB--OG1-[HG1] |==|  0.12220
USER: genes 15 Torsion [N]-C--CA-[N] |==|  0.17613
USER: genes 16 Torsion [C]-CA--CB-[CG] |==|  0.63548
USER: genes 17 Torsion [CA]-CB--CG-[CD2] |==|  0.22841
USER: genes 18 Torsion [C]-CA--N-[C] |==|  0.75858
USER: genes 19 Torsion [N]-C--CA-[N] |==|  0.25442
USER: genes 20 Torsion [C]-CA--N-[C] |==|  0.62223
USER: genes 21 Torsion [C]-CA--CB-[CG] |==|  0.32940
USER: genes 22 Torsion [CA]-CB--CG-[OD1] |==|  0.69559
ROOT
ATOM      1  C   TRP T   2      70.653  46.957   4.432  1.00 22.72 LIG 0.24  C 
ATOM      2 O    TRP T   2      70.235  46.106   5.233  1.00 25.73 LIG-0.27  OA
ATOM      3  N   GLU T   3      71.323  46.639   3.333  1.00 22.46 LIG-0.35  N 
ATOM      4 H    GLU T   3      71.661  47.202   2.778  1.00 22.46 LIG 0.16  HD
ENDROOT
BRANCH 3 5
ATOM      5  CA  GLU T   3      71.525  45.246   3.008  1.00 22.12 LIG 0.18  C 
BRANCH 5 6
ATOM      6  CB  GLU T   3      72.320  45.114   1.711  1.00 23.21 LIG 0.04  C 
BRANCH 6 7
ATOM      7  CG  GLU T   3      72.094  46.279   0.781  1.00 26.62 LIG 0.12  C 
BRANCH 7 8
ATOM      8  CD  GLU T   3      70.782  46.208   0.073  1.00 29.06 LIG 0.17  C 
ATOM      9 OE2  GLU T   3      69.860  46.966   0.452  1.00 35.17 LIG-0.65  OA
ATOM     10 OE1  GLU T   3      70.665  45.394  -0.864  1.00 32.66 LIG-0.65  OA
ENDBRANCH 7 8
ENDBRANCH 6 7
ENDBRANCH 5 6
BRANCH 5 11
ATOM     11  C   GLU T   3      72.230  44.502   4.111  1.00 21.48 LIG 0.24  C 
ATOM     12  N   THR T   4      71.735  43.303   4.355  1.00 23.46 LIG-0.34  N 
ATOM     13 H    THR T   4      71.071  42.982   3.912  1.00 23.46 LIG 0.16  HD
ATOM     14 O    GLU T   3      73.149  45.000   4.728  1.00 21.28 LIG-0.27  OA
BRANCH 12 15
ATOM     15  CA  THR T   4      72.224  42.396   5.366  1.00 25.11 LIG 0.20  C 
BRANCH 15 16
ATOM     16  C   THR T   4      72.384  41.002   4.761  1.00 26.24 LIG 0.24  C 
ATOM     17 O    THR T   4      71.735  40.672   3.775  1.00 26.41 LIG-0.27  OA
ATOM     18  N   PHE T   5      73.349  40.254   5.277  1.00 29.12 LIG-0.34  N 
ATOM     19 H    PHE T   5      73.888  40.531   5.887  1.00 29.12 LIG 0.16  HD
BRANCH 18 20
ATOM     20  CA  PHE T   5      73.589  38.883   4.858  1.00 29.36 LIG 0.19  C 
BRANCH 20 21
ATOM     21  C   PHE T   5      73.745  37.981   6.110  1.00 32.56 LIG 0.20  C 
ATOM     22 O    PHE T   5      74.569  37.038   6.043  1.00 36.67 LIG-0.65  OA
ATOM     23 OXT  PHE T   5      73.079  38.212   7.157  1.00 34.39 LIG-0.65  OA
ENDBRANCH 20 21
BRANCH 20 24
ATOM     24  CB  PHE T   5      74.872  38.792   4.043  1.00 26.24 LIG 0.07  C 
BRANCH 24 25
ATOM     25  CG  PHE T   5      74.672  38.841   2.565  1.00 22.58 LIG-0.06  A 
ATOM     26  CD1 PHE T   5      75.171  39.900   1.829  1.00 21.65 LIG 0.01  A 
ATOM     27  CE1 PHE T   5      74.887  40.021   0.493  1.00 20.51 LIG 0.00  A 
ATOM     28  CZ  PHE T   5      74.104  39.077  -0.123  1.00 20.87 LIG 0.00  A 
ATOM     29  CE2 PHE T   5      73.610  38.007   0.607  1.00 20.50 LIG 0.00  A 
ATOM     30  CD2 PHE T   5      73.895  37.895   1.929  1.00 18.29 LIG 0.01  A 
ENDBRANCH 24 25
ENDBRANCH 20 24
ENDBRANCH 18 20
ENDBRANCH 15 16
BRANCH 15 31
ATOM     31  CB  THR T   4      71.190  42.419   6.547  1.00 25.29 LIG 0.15  C 
ATOM     32  CG2 THR T   4      71.722  41.815   7.823  1.00 28.15 LIG 0.04  C 
BRANCH 31 33
ATOM     33 OG1  THR T   4      70.726  43.762   6.765  1.00 26.44 LIG-0.39  OA
ATOM     34 HG1  THR T   4      70.559  44.124   6.025  1.00 26.44 LIG 0.21  HD
ENDBRANCH 31 33
ENDBRANCH 15 31
ENDBRANCH 12 15
ENDBRANCH 5 11
ENDBRANCH 3 5
BRANCH 1 35
ATOM     35  CA  TRP T   2      70.463  48.444   4.699  1.00 22.55 LIG 0.18  C 
BRANCH 35 36
ATOM     36  CB  TRP T   2      69.773  48.638   6.056  1.00 18.37 LIG 0.07  C 
BRANCH 36 37
ATOM     37  CG  TRP T   2      68.604  49.587   5.971  1.00 15.70 LIG-0.03  A 
ATOM     38  CD2 TRP T   2      67.279  49.267   5.544  1.00  9.74 LIG-0.00  A 
ATOM     39  CE2 TRP T   2      66.514  50.444   5.629  1.00 12.08 LIG 0.04  A 
ATOM     40  CE3 TRP T   2      66.667  48.105   5.084  1.00  8.42 LIG 0.01  A 
ATOM     41  CZ2 TRP T   2      65.169  50.480   5.275  1.00 12.57 LIG 0.03  A 
ATOM     42  NE1 TRP T   2      67.337  51.441   6.096  1.00 15.46 LIG-0.36  N 
ATOM     43  CH2 TRP T   2      64.613  49.320   4.830  1.00  9.29 LIG 0.00  A 
ATOM     44  CZ3 TRP T   2      65.355  48.144   4.739  1.00  5.55 LIG 0.00  A 
ATOM     45 HE1  TRP T   2      67.104  52.258   6.234  1.00 15.46 LIG 0.17  HD
ATOM     46  CD1 TRP T   2      68.590  50.921   6.304  1.00 15.83 LIG 0.10  A 
ENDBRANCH 36 37
ENDBRANCH 35 36
BRANCH 35 47
ATOM     47  N   TRP T   2      69.669  49.120   3.681  1.00 22.15 LIG-0.35  N 
ATOM     48  C   ASN T   1      70.186  49.625   2.572  1.00 24.32 LIG 0.24  C 
ATOM     49 O    ASN T   1      71.399  49.622   2.333  1.00 24.18 LIG-0.27  OA
ATOM     50 H    TRP T   2      68.831  49.159   3.868  1.00 22.15 LIG 0.16  HD
BRANCH 48 51
ATOM     51  CA  ASN T   1      69.210  50.382   1.678  1.00 25.81 LIG 0.18  C 
BRANCH 51 52
ATOM     52  N   ASN T   1      69.079  51.801   1.882  1.00 28.18 LIG-0.35  N 
ATOM     53  C   ACE T   0      67.874  52.361   1.896  1.00 27.70 LIG 0.21  C 
ATOM     54 O    ACE T   0      67.610  53.355   1.258  1.00 31.05 LIG-0.27  OA
ATOM     55  CH3 ACE T   0      66.786  51.673   2.685  1.00 28.48 LIG 0.12  C 
ATOM     56 H    ASN T   1      69.819  52.226   1.989  1.00 28.18 LIG 0.16  HD
ENDBRANCH 51 52
BRANCH 51 57
ATOM     57  CB  ASN T   1      69.307  50.003   0.174  1.00 27.81 LIG 0.14  C 
BRANCH 57 58
ATOM     58  CG  ASN T   1      68.019  49.403  -0.406  1.00 34.08 LIG 0.22  C 
ATOM     59 OD1  ASN T   1      67.944  48.214  -0.716  1.00 41.34 LIG-0.27  OA
ATOM     60  ND2 ASN T   1      66.974  50.215  -0.473  1.00 39.83 LIG-0.37  N 
ATOM     61 22HD ASN T   1      67.056  51.042  -0.251  1.00 39.83 LIG 0.16  HD
ATOM     62 21HD ASN T   1      66.213  49.914  -0.740  1.00 39.83 LIG 0.16  HD
ENDBRANCH 57 58
ENDBRANCH 51 57
ENDBRANCH 48 51
ENDBRANCH 35 47
ENDBRANCH 1 35
TORSDOF 21
ENDMDL
MODEL 14
USER: ADFR SOLUTION from run 159
USER: SCORE 16.761821 LL:  -3.547 LR: -15.758 RR:   0.000 FEB:  -9.493
USER: RMSD 10.935291
USER: SEED 158
USER: STATUS no improvement in best 27 clusters for 5 generations
USER: GENES 23
USER: genes 0 Translation |==|  0.53747 0.40897 0.50411
USER: genes 1 Rotation |==|  0.10807 0.69974 0.73597 0.52843
USER: genes 2 Torsion [C]-N--CA-[CB] |==|  0.19640
USER: genes 3 Torsion [N]-CA--CB-[CG] |==|  0.10622
USER: genes 4 Torsion [CA]-CB--CG-[CD] |==|  0.36067
USER: genes 5 Torsion [CB]-CG--CD-[OE2] |==|  0.15654
USER: genes 6 Torsion [N]-CA--C-[N] |==|  0.56301
USER: genes 7 Torsion [C]-N--CA-[C] |==|  0.59805
USER: genes 8 Torsion [N]-CA--C-[N] |==|  0.77873
USER: genes 9 Torsion [C]-N--CA-[C] |==|  0.78011
USER: genes 10 Torsion [N]-CA--C-[O] |==|  0.64123
USER: genes 11 Torsion [N]-CA--CB-[CG] |==|  0.83058
USER: genes 12 Torsion [CA]-CB--CG-[CD1] |==|  0.75025
USER: genes 13 Torsion [N]-CA--CB-[CG2] |==|  0.78270
USER: genes 14 Torsion [CA]-CB--OG1-[HG1] |==|  0.08359
USER: genes 15 Torsion [N]-C--CA-[N] |==|  0.62140
USER: genes 16 Torsion [C]-CA--CB-[CG] |==|  0.50475
USER: genes 17 Torsion [CA]-CB--CG-[CD2] |==|  0.36437
USER: genes 18 Torsion [C]-CA--N-[C] |==|  0.65323
USER: genes 19 Torsion [N]-C--CA-[N] |==|  0.29698
USER: genes 20 Torsion [C]-CA--N-[C] |==|  0.70722
USER: genes 21 Torsion [C]-CA--CB-[CG] |==|  0.89953
USER: genes 22 Torsion [CA]-CB--CG-[OD1] |==|  0.76317
ROOT
ATOM      1  C   TRP T   2      71.734  41.999   5.023  1.00 22.72 LIG 0.24  C 
ATOM      2 O    TRP T   2      71.747  41.132   4.135  1.00 25.73 LIG-0.27  OA
ATOM      3  N   GLU T   3      71.156  41.810   6.202  1.00 22.46 LIG-0.35  N 
ATOM      4 H    GLU T   3      71.094  42.399   6.824  1.00 22.46 LIG 0.16  HD
ENDROOT
BRANCH 3 5
ATOM      5  CA  GLU T   3      70.573  40.522   6.502  1.00 22.12 LIG 0.18  C 
BRANCH 5 6
ATOM      6  CB  GLU T   3      71.669  39.477   6.698  1.00 23.21 LIG 0.04  C 
BRANCH 6 7
ATOM      7  CG  GLU T   3      72.868  40.034   7.423  1.00 26.62 LIG 0.12  C 
BRANCH 7 8
ATOM      8  CD  GLU T   3      73.294  39.183   8.574  1.00 29.06 LIG 0.17  C 
ATOM      9 OE2  GLU T   3      73.566  37.980   8.354  1.00 35.17 LIG-0.65  OA
ATOM     10 OE1  GLU T   3      73.357  39.710   9.701  1.00 32.66 LIG-0.65  OA
ENDBRANCH 7 8
ENDBRANCH 6 7
ENDBRANCH 5 6
BRANCH 5 11
ATOM     11  C   GLU T   3      69.695  40.568   7.724  1.00 21.48 LIG 0.24  C 
ATOM     12  N   THR T   4      69.525  39.399   8.311  1.00 23.46 LIG-0.34  N 
ATOM     13 H    THR T   4      69.895  38.680   8.017  1.00 23.46 LIG 0.16  HD
ATOM     14 O    GLU T   3      69.174  41.600   8.094  1.00 21.28 LIG-0.27  OA
BRANCH 12 15
ATOM     15  CA  THR T   4      68.723  39.173   9.490  1.00 25.11 LIG 0.20  C 
BRANCH 15 16
ATOM     16  C   THR T   4      69.380  38.095  10.351  1.00 26.24 LIG 0.24  C 
ATOM     17 O    THR T   4      69.940  38.390  11.401  1.00 26.41 LIG-0.27  OA
ATOM     18  N   PHE T   5      69.180  36.843   9.963  1.00 29.12 LIG-0.34  N 
ATOM     19 H    PHE T   5      68.683  36.628   9.295  1.00 29.12 LIG 0.16  HD
BRANCH 18 20
ATOM     20  CA  PHE T   5      69.789  35.707  10.634  1.00 29.36 LIG 0.19  C 
BRANCH 20 21
ATOM     21  C   PHE T   5      71.263  35.564  10.174  1.00 32.56 LIG 0.20  C 
ATOM     22 O    PHE T   5      71.638  34.436   9.776  1.00 36.67 LIG-0.65  OA
ATOM     23 OXT  PHE T   5      72.039  36.560  10.183  1.00 34.39 LIG-0.65  OA
ENDBRANCH 20 21
BRANCH 20 24
ATOM     24  CB  PHE T   5      69.053  34.421  10.279  1.00 26.24 LIG 0.07  C 
BRANCH 24 25
ATOM     25  CG  PHE T   5      67.616  34.399  10.678  1.00 22.58 LIG-0.06  A 
ATOM     26  CD1 PHE T   5      67.245  33.926  11.923  1.00 21.65 LIG 0.01  A 
ATOM     27  CE1 PHE T   5      65.923  33.783  12.253  1.00 20.51 LIG 0.00  A 
ATOM     28  CZ  PHE T   5      64.954  34.120  11.341  1.00 20.87 LIG 0.00  A 
ATOM     29  CE2 PHE T   5      65.319  34.605  10.095  1.00 20.50 LIG 0.00  A 
ATOM     30  CD2 PHE T   5      66.631  34.743   9.775  1.00 18.29 LIG 0.01  A 
ENDBRANCH 24 25
ENDBRANCH 20 24
ENDBRANCH 18 20
ENDBRANCH 15 16
BRANCH 15 31
ATOM     31  CB  THR T   4      67.291  38.757   9.002  1.00 25.29 LIG 0.15  C 
ATOM     32  CG2 THR T   4      66.451  39.923   8.540  1.00 28.15 LIG 0.04  C 
BRANCH 31 33
ATOM     33 OG1  THR T   4      67.396  37.757   7.976  1.00 26.44 LIG-0.39  OA
ATOM     34 HG1  THR T   4      68.088  37.297   8.102  1.00 26.44 LIG 0.21  HD
ENDBRANCH 31 33
ENDBRANCH 15 31
ENDBRANCH 12 15
ENDBRANCH 5 11
ENDBRANCH 3 5
BRANCH 1 35
ATOM     35  CA  TRP T   2      72.344  43.374   4.786  1.00 22.55 LIG 0.18  C 
BRANCH 35 36
ATOM     36  CB  TRP T   2      71.818  44.358   5.839  1.00 18.37 LIG 0.07  C 
BRANCH 36 37
ATOM     37  CG  TRP T   2      72.353  45.752   5.635  1.00 15.70 LIG-0.03  A 
ATOM     38  CD2 TRP T   2      71.590  46.960   5.614  1.00  9.74 LIG-0.00  A 
ATOM     39  CE2 TRP T   2      72.489  48.021   5.405  1.00 12.08 LIG 0.04  A 
ATOM     40  CE3 TRP T   2      70.234  47.249   5.738  1.00  8.42 LIG 0.01  A 
ATOM     41  CZ2 TRP T   2      72.066  49.344   5.323  1.00 12.57 LIG 0.03  A 
ATOM     42  NE1 TRP T   2      73.750  47.485   5.307  1.00 15.46 LIG-0.36  N 
ATOM     43  CH2 TRP T   2      70.731  49.578   5.450  1.00  9.29 LIG 0.00  A 
ATOM     44  CZ3 TRP T   2      69.826  48.539   5.658  1.00  5.55 LIG 0.00  A 
ATOM     45 HE1  TRP T   2      74.474  47.931   5.178  1.00 15.46 LIG 0.17  HD
ATOM     46  CD1 TRP T   2      73.665  46.122   5.451  1.00 15.83 LIG 0.10  A 
ENDBRANCH 36 37
ENDBRANCH 35 36
BRANCH 35 47
ATOM     47  N   TRP T   2      72.051  43.918   3.466  1.00 22.15 LIG-0.35  N 
ATOM     48  C   ASN T   1      72.989  44.319   2.621  1.00 24.32 LIG 0.24  C 
ATOM     49 O    ASN T   1      74.191  44.324   2.903  1.00 24.18 LIG-0.27  OA
ATOM     50 H    TRP T   2      71.212  43.954   3.287  1.00 22.15 LIG 0.16  HD
BRANCH 48 51
ATOM     51  CA  ASN T   1      72.481  44.951   1.329  1.00 25.81 LIG 0.18  C 
BRANCH 51 52
ATOM     52  N   ASN T   1      72.619  46.377   1.184  1.00 28.18 LIG-0.35  N 
ATOM     53  C   ACE T   0      71.554  47.163   1.304  1.00 27.70 LIG 0.21  C 
ATOM     54 O    ACE T   0      71.289  48.029   0.502  1.00 31.05 LIG-0.27  OA
ATOM     55  CH3 ACE T   0      70.610  46.900   2.453  1.00 28.48 LIG 0.12  C 
ATOM     56 H    ASN T   1      73.417  46.653   1.021  1.00 28.18 LIG 0.16  HD
ENDBRANCH 51 52
BRANCH 51 57
ATOM     57  CB  ASN T   1      72.890  44.179   0.045  1.00 27.81 LIG 0.14  C 
BRANCH 57 58
ATOM     58  CG  ASN T   1      74.291  43.555   0.107  1.00 34.08 LIG 0.22  C 
ATOM     59 OD1  ASN T   1      75.298  44.201  -0.184  1.00 41.34 LIG-0.27  OA
ATOM     60  ND2 ASN T   1      74.360  42.316   0.571  1.00 39.83 LIG-0.37  N 
ATOM     61 22HD ASN T   1      73.639  41.889   0.765  1.00 39.83 LIG 0.16  HD
ATOM     62 21HD ASN T   1      75.126  41.939   0.677  1.00 39.83 LIG 0.16  HD
ENDBRANCH 57 58
ENDBRANCH 51 57
ENDBRANCH 48 51
ENDBRANCH 35 47
ENDBRANCH 1 35
TORSDOF 21
ENDMDL
MODEL 15
USER: ADFR SOLUTION from run 44
USER: SCORE 18.016354 LL:  -4.420 LR: -15.745 RR:   0.000 FEB:  -9.481
USER: RMSD 9.813975
USER: SEED 43
USER: STATUS no improvement in best 9 clusters for 5 generations
USER: GENES 23
USER: genes 0 Translation |==|  0.49528 0.58155 0.50181
USER: genes 1 Rotation |==|  0.27225 0.54065 0.08830 0.66427
USER: genes 2 Torsion [C]-N--CA-[CB] |==|  0.47882
USER: genes 3 Torsion [N]-CA--CB-[CG] |==|  0.99726
USER: genes 4 Torsion [CA]-CB--CG-[CD] |==|  0.77449
USER: genes 5 Torsion [CB]-CG--CD-[OE2] |==|  0.31797
USER: genes 6 Torsion [N]-CA--C-[N] |==|  0.25247
USER: genes 7 Torsion [C]-N--CA-[C] |==|  0.53333
USER: genes 8 Torsion [N]-CA--C-[N] |==|  0.42666
USER: genes 9 Torsion [C]-N--CA-[C] |==|  0.54717
USER: genes 10 Torsion [N]-CA--C-[O] |==|  0.71522
USER: genes 11 Torsion [N]-CA--CB-[CG] |==|  0.65252
USER: genes 12 Torsion [CA]-CB--CG-[CD1] |==|  0.19085
USER: genes 13 Torsion [N]-CA--CB-[CG2] |==|  0.41403
USER: genes 14 Torsion [CA]-CB--OG1-[HG1] |==|  0.08532
USER: genes 15 Torsion [N]-C--CA-[N] |==|  0.81414
USER: genes 16 Torsion [C]-CA--CB-[CG] |==|  0.31058
USER: genes 17 Torsion [CA]-CB--CG-[CD2] |==|  0.63651
USER: genes 18 Torsion [C]-CA--N-[C] |==|  0.61220
USER: genes 19 Torsion [N]-C--CA-[N] |==|  0.97033
USER: genes 20 Torsion [C]-CA--N-[C] |==|  0.75463
USER: genes 21 Torsion [C]-CA--CB-[CG] |==|  0.25809
USER: genes 22 Torsion [CA]-CB--CG-[OD1] |==|  0.64703
ROOT
ATOM      1  C   TRP T   2      70.468  47.177   4.954  1.00 22.72 LIG 0.24  C 
ATOM      2 O    TRP T   2      70.235  46.206   5.692  1.00 25.73 LIG-0.27  OA
ATOM      3  N   GLU T   3      70.954  47.045   3.727  1.00 22.46 LIG-0.35  N 
ATOM      4 H    GLU T   3      71.164  47.694   3.205  1.00 22.46 LIG 0.16  HD
ENDROOT
BRANCH 3 5
ATOM      5  CA  GLU T   3      71.161  45.720   3.190  1.00 22.12 LIG 0.18  C 
BRANCH 5 6
ATOM      6  CB  GLU T   3      71.543  45.800   1.714  1.00 23.21 LIG 0.04  C 
BRANCH 6 7
ATOM      7  CG  GLU T   3      71.578  47.221   1.209  1.00 26.62 LIG 0.12  C 
BRANCH 7 8
ATOM      8  CD  GLU T   3      70.223  47.745   0.863  1.00 29.06 LIG 0.17  C 
ATOM      9 OE2  GLU T   3      69.760  48.689   1.543  1.00 35.17 LIG-0.65  OA
ATOM     10 OE1  GLU T   3      69.615  47.216  -0.087  1.00 32.66 LIG-0.65  OA
ENDBRANCH 7 8
ENDBRANCH 6 7
ENDBRANCH 5 6
BRANCH 5 11
ATOM     11  C   GLU T   3      72.220  44.960   3.945  1.00 21.48 LIG 0.24  C 
ATOM     12  N   THR T   4      71.755  44.240   4.948  1.00 23.46 LIG-0.34  N 
ATOM     13 H    THR T   4      70.917  44.209   5.141  1.00 23.46 LIG 0.16  HD
ATOM     14 O    GLU T   3      73.395  45.048   3.654  1.00 21.28 LIG-0.27  OA
BRANCH 12 15
ATOM     15  CA  THR T   4      72.562  43.431   5.830  1.00 25.11 LIG 0.20  C 
BRANCH 15 16
ATOM     16  C   THR T   4      71.654  42.526   6.661  1.00 26.24 LIG 0.24  C 
ATOM     17 O    THR T   4      70.465  42.791   6.796  1.00 26.41 LIG-0.27  OA
ATOM     18  N   PHE T   5      72.198  41.396   7.090  1.00 29.12 LIG-0.34  N 
ATOM     19 H    PHE T   5      72.997  41.150   6.891  1.00 29.12 LIG 0.16  HD
BRANCH 18 20
ATOM     20  CA  PHE T   5      71.488  40.458   7.945  1.00 29.36 LIG 0.19  C 
BRANCH 20 21
ATOM     21  C   PHE T   5      72.505  39.490   8.604  1.00 32.56 LIG 0.20  C 
ATOM     22 O    PHE T   5      72.596  38.334   8.126  1.00 36.67 LIG-0.65  OA
ATOM     23 OXT  PHE T   5      73.225  39.871   9.568  1.00 34.39 LIG-0.65  OA
ENDBRANCH 20 21
BRANCH 20 24
ATOM     24  CB  PHE T   5      70.505  39.631   7.128  1.00 26.24 LIG 0.07  C 
BRANCH 24 25
ATOM     25  CG  PHE T   5      69.097  39.677   7.622  1.00 22.58 LIG-0.06  A 
ATOM     26  CD1 PHE T   5      68.361  40.843   7.523  1.00 21.65 LIG 0.01  A 
ATOM     27  CE1 PHE T   5      67.114  40.935   8.084  1.00 20.51 LIG 0.00  A 
ATOM     28  CZ  PHE T   5      66.586  39.856   8.748  1.00 20.87 LIG 0.00  A 
ATOM     29  CE2 PHE T   5      67.314  38.680   8.840  1.00 20.50 LIG 0.00  A 
ATOM     30  CD2 PHE T   5      68.549  38.597   8.282  1.00 18.29 LIG 0.01  A 
ENDBRANCH 24 25
ENDBRANCH 20 24
ENDBRANCH 18 20
ENDBRANCH 15 16
BRANCH 15 31
ATOM     31  CB  THR T   4      73.401  44.414   6.720  1.00 25.29 LIG 0.15  C 
ATOM     32  CG2 THR T   4      73.700  43.872   8.097  1.00 28.15 LIG 0.04  C 
BRANCH 31 33
ATOM     33 OG1  THR T   4      74.610  44.782   6.036  1.00 26.44 LIG-0.39  OA
ATOM     34 HG1  THR T   4      74.476  44.779   5.207  1.00 26.44 LIG 0.21  HD
ENDBRANCH 31 33
ENDBRANCH 15 31
ENDBRANCH 12 15
ENDBRANCH 5 11
ENDBRANCH 3 5
BRANCH 1 35
ATOM     35  CA  TRP T   2      70.258  48.602   5.446  1.00 22.55 LIG 0.18  C 
BRANCH 35 36
ATOM     36  CB  TRP T   2      69.384  49.367   4.444  1.00 18.37 LIG 0.07  C 
BRANCH 36 37
ATOM     37  CG  TRP T   2      68.025  49.698   5.008  1.00 15.70 LIG-0.03  A 
ATOM     38  CD2 TRP T   2      66.765  49.469   4.376  1.00  9.74 LIG-0.00  A 
ATOM     39  CE2 TRP T   2      65.765  49.920   5.257  1.00 12.08 LIG 0.04  A 
ATOM     40  CE3 TRP T   2      66.382  48.941   3.147  1.00  8.42 LIG 0.01  A 
ATOM     41  CZ2 TRP T   2      64.412  49.849   4.940  1.00 12.57 LIG 0.03  A 
ATOM     42  NE1 TRP T   2      66.389  50.399   6.383  1.00 15.46 LIG-0.36  N 
ATOM     43  CH2 TRP T   2      64.086  49.325   3.727  1.00  9.29 LIG 0.00  A 
ATOM     44  CZ3 TRP T   2      65.062  48.873   2.842  1.00  5.55 LIG 0.00  A 
ATOM     45 HE1  TRP T   2      65.994  50.732   7.071  1.00 15.46 LIG 0.17  HD
ATOM     46  CD1 TRP T   2      67.747  50.259   6.232  1.00 15.83 LIG 0.10  A 
ENDBRANCH 36 37
ENDBRANCH 35 36
BRANCH 35 47
ATOM     47  N   TRP T   2      71.500  49.342   5.627  1.00 22.15 LIG-0.35  N 
ATOM     48  C   ASN T   1      71.719  50.158   6.648  1.00 24.32 LIG 0.24  C 
ATOM     49 O    ASN T   1      70.863  50.409   7.503  1.00 24.18 LIG-0.27  OA
ATOM     50 H    TRP T   2      72.080  49.200   5.008  1.00 22.15 LIG 0.16  HD
BRANCH 48 51
ATOM     51  CA  ASN T   1      73.040  50.918   6.609  1.00 25.81 LIG 0.18  C 
BRANCH 51 52
ATOM     52  N   ASN T   1      74.012  50.518   5.626  1.00 28.18 LIG-0.35  N 
ATOM     53  C   ACE T   0      74.891  49.563   5.912  1.00 27.70 LIG 0.21  C 
ATOM     54 O    ACE T   0      76.076  49.682   5.698  1.00 31.05 LIG-0.27  OA
ATOM     55  CH3 ACE T   0      74.381  48.318   6.597  1.00 28.48 LIG 0.12  C 
ATOM     56 H    ASN T   1      73.969  50.937   4.876  1.00 28.18 LIG 0.16  HD
ENDBRANCH 51 52
BRANCH 51 57
ATOM     57  CB  ASN T   1      72.884  52.461   6.699  1.00 27.81 LIG 0.14  C 
BRANCH 57 58
ATOM     58  CG  ASN T   1      72.974  53.019   8.127  1.00 34.08 LIG 0.22  C 
ATOM     59 OD1  ASN T   1      72.098  53.750   8.590  1.00 41.34 LIG-0.27  OA
ATOM     60  ND2 ASN T   1      73.999  52.601   8.855  1.00 39.83 LIG-0.37  N 
ATOM     61 22HD ASN T   1      74.596  52.090   8.504  1.00 39.83 LIG 0.16  HD
ATOM     62 21HD ASN T   1      74.067  52.839   9.679  1.00 39.83 LIG 0.16  HD
ENDBRANCH 57 58
ENDBRANCH 51 57
ENDBRANCH 48 51
ENDBRANCH 35 47
ENDBRANCH 1 35
TORSDOF 21
ENDMDL
MODEL 16
USER: ADFR SOLUTION from run 48
USER: SCORE 19.183845 LL:  -5.644 LR: -15.728 RR:   0.000 FEB:  -9.464
USER: RMSD 10.065451
USER: SEED 47
USER: STATUS no improvement in best 12 clusters for 5 generations
USER: GENES 23
USER: genes 0 Translation |==|  0.50195 0.59516 0.49168
USER: genes 1 Rotation |==|  0.33944 0.53910 0.03302 0.56800
USER: genes 2 Torsion [C]-N--CA-[CB] |==|  0.39270
USER: genes 3 Torsion [N]-CA--CB-[CG] |==|  0.98644
USER: genes 4 Torsion [CA]-CB--CG-[CD] |==|  0.75448
USER: genes 5 Torsion [CB]-CG--CD-[OE2] |==|  0.23915
USER: genes 6 Torsion [N]-CA--C-[N] |==|  0.25881
USER: genes 7 Torsion [C]-N--CA-[C] |==|  0.57217
USER: genes 8 Torsion [N]-CA--C-[N] |==|  0.43600
USER: genes 9 Torsion [C]-N--CA-[C] |==|  0.55320
USER: genes 10 Torsion [N]-CA--C-[O] |==|  0.18742
USER: genes 11 Torsion [N]-CA--CB-[CG] |==|  0.64208
USER: genes 12 Torsion [CA]-CB--CG-[CD1] |==|  0.19767
USER: genes 13 Torsion [N]-CA--CB-[CG2] |==|  0.51419
USER: genes 14 Torsion [CA]-CB--OG1-[HG1] |==|  0.90276
USER: genes 15 Torsion [N]-C--CA-[N] |==|  0.19004
USER: genes 16 Torsion [C]-CA--CB-[CG] |==|  0.71098
USER: genes 17 Torsion [CA]-CB--CG-[CD2] |==|  0.21223
USER: genes 18 Torsion [C]-CA--N-[C] |==|  0.76979
USER: genes 19 Torsion [N]-C--CA-[N] |==|  0.05341
USER: genes 20 Torsion [C]-CA--N-[C] |==|  0.70556
USER: genes 21 Torsion [C]-CA--CB-[CG] |==|  0.22534
USER: genes 22 Torsion [CA]-CB--CG-[OD1] |==|  0.30912
ROOT
ATOM      1  C   TRP T   2      70.668  47.585   4.650  1.00 22.72 LIG 0.24  C 
ATOM      2 O    TRP T   2      69.874  46.912   5.326  1.00 25.73 LIG-0.27  OA
ATOM      3  N   GLU T   3      71.358  47.077   3.638  1.00 22.46 LIG-0.35  N 
ATOM      4 H    GLU T   3      71.944  47.501   3.175  1.00 22.46 LIG 0.16  HD
ENDROOT
BRANCH 3 5
ATOM      5  CA  GLU T   3      71.134  45.703   3.252  1.00 22.12 LIG 0.18  C 
BRANCH 5 6
ATOM      6  CB  GLU T   3      71.177  45.565   1.732  1.00 23.21 LIG 0.04  C 
BRANCH 6 7
ATOM      7  CG  GLU T   3      71.320  46.898   1.041  1.00 26.62 LIG 0.12  C 
BRANCH 7 8
ATOM      8  CD  GLU T   3      70.005  47.548   0.762  1.00 29.06 LIG 0.17  C 
ATOM      9 OE2  GLU T   3      69.487  48.251   1.660  1.00 35.17 LIG-0.65  OA
ATOM     10 OE1  GLU T   3      69.483  47.360  -0.354  1.00 32.66 LIG-0.65  OA
ENDBRANCH 7 8
ENDBRANCH 6 7
ENDBRANCH 5 6
BRANCH 5 11
ATOM     11  C   GLU T   3      72.139  44.768   3.872  1.00 21.48 LIG 0.24  C 
ATOM     12  N   THR T   4      71.746  44.233   5.012  1.00 23.46 LIG-0.34  N 
ATOM     13 H    THR T   4      70.977  44.405   5.359  1.00 23.46 LIG 0.16  HD
ATOM     14 O    GLU T   3      73.222  44.569   3.362  1.00 21.28 LIG-0.27  OA
BRANCH 12 15
ATOM     15  CA  THR T   4      72.525  43.315   5.808  1.00 25.11 LIG 0.20  C 
BRANCH 15 16
ATOM     16  C   THR T   4      71.586  42.442   6.639  1.00 26.24 LIG 0.24  C 
ATOM     17 O    THR T   4      70.414  42.762   6.799  1.00 26.41 LIG-0.27  OA
ATOM     18  N   PHE T   5      72.080  41.278   7.040  1.00 29.12 LIG-0.34  N 
ATOM     19 H    PHE T   5      72.863  40.997   6.823  1.00 29.12 LIG 0.16  HD
BRANCH 18 20
ATOM     20  CA  PHE T   5      71.339  40.362   7.891  1.00 29.36 LIG 0.19  C 
BRANCH 20 21
ATOM     21  C   PHE T   5      72.324  39.368   8.559  1.00 32.56 LIG 0.20  C 
ATOM     22 O    PHE T   5      73.130  39.830   9.401  1.00 36.67 LIG-0.65  OA
ATOM     23 OXT  PHE T   5      72.289  38.138   8.276  1.00 34.39 LIG-0.65  OA
ENDBRANCH 20 21
BRANCH 20 24
ATOM     24  CB  PHE T   5      70.339  39.561   7.068  1.00 26.24 LIG 0.07  C 
BRANCH 24 25
ATOM     25  CG  PHE T   5      68.946  39.574   7.602  1.00 22.58 LIG-0.06  A 
ATOM     26  CD1 PHE T   5      68.181  40.724   7.525  1.00 21.65 LIG 0.01  A 
ATOM     27  CE1 PHE T   5      66.949  40.786   8.122  1.00 20.51 LIG 0.00  A 
ATOM     28  CZ  PHE T   5      66.465  39.695   8.799  1.00 20.87 LIG 0.00  A 
ATOM     29  CE2 PHE T   5      67.222  38.536   8.869  1.00 20.50 LIG 0.00  A 
ATOM     30  CD2 PHE T   5      68.442  38.481   8.276  1.00 18.29 LIG 0.01  A 
ENDBRANCH 24 25
ENDBRANCH 20 24
ENDBRANCH 18 20
ENDBRANCH 15 16
BRANCH 15 31
ATOM     31  CB  THR T   4      73.485  44.178   6.701  1.00 25.29 LIG 0.15  C 
ATOM     32  CG2 THR T   4      74.458  43.354   7.509  1.00 28.15 LIG 0.04  C 
BRANCH 31 33
ATOM     33 OG1  THR T   4      74.174  45.142   5.889  1.00 26.44 LIG-0.39  OA
ATOM     34 HG1  THR T   4      74.334  44.809   5.134  1.00 26.44 LIG 0.21  HD
ENDBRANCH 31 33
ENDBRANCH 15 31
ENDBRANCH 12 15
ENDBRANCH 5 11
ENDBRANCH 3 5
BRANCH 1 35
ATOM     35  CA  TRP T   2      70.943  49.044   4.987  1.00 22.55 LIG 0.18  C 
BRANCH 35 36
ATOM     36  CB  TRP T   2      70.256  49.404   6.310  1.00 18.37 LIG 0.07  C 
BRANCH 36 37
ATOM     37  CG  TRP T   2      69.005  50.220   6.101  1.00 15.70 LIG-0.03  A 
ATOM     38  CD2 TRP T   2      67.737  49.732   5.658  1.00  9.74 LIG-0.00  A 
ATOM     39  CE2 TRP T   2      66.859  50.830   5.611  1.00 12.08 LIG 0.04  A 
ATOM     40  CE3 TRP T   2      67.261  48.480   5.282  1.00  8.42 LIG 0.01  A 
ATOM     41  CZ2 TRP T   2      65.533  50.700   5.208  1.00 12.57 LIG 0.03  A 
ATOM     42  NE1 TRP T   2      67.559  51.941   6.015  1.00 15.46 LIG-0.36  N 
ATOM     43  CH2 TRP T   2      65.113  49.456   4.850  1.00  9.29 LIG 0.00  A 
ATOM     44  CZ3 TRP T   2      65.969  48.358   4.890  1.00  5.55 LIG 0.00  A 
ATOM     45 HE1  TRP T   2      67.242  52.738   6.072  1.00 15.46 LIG 0.17  HD
ATOM     46  CD1 TRP T   2      68.847  51.569   6.313  1.00 15.83 LIG 0.10  A 
ENDBRANCH 36 37
ENDBRANCH 35 36
BRANCH 35 47
ATOM     47  N   TRP T   2      70.480  49.973   3.964  1.00 22.15 LIG-0.35  N 
ATOM     48  C   ASN T   1      71.177  50.263   2.876  1.00 24.32 LIG 0.24  C 
ATOM     49 O    ASN T   1      72.310  49.818   2.665  1.00 24.18 LIG-0.27  OA
ATOM     50 H    TRP T   2      69.710  50.315   4.133  1.00 22.15 LIG 0.16  HD
BRANCH 48 51
ATOM     51  CA  ASN T   1      70.571  51.333   1.974  1.00 25.81 LIG 0.18  C 
BRANCH 51 52
ATOM     52  N   ASN T   1      69.582  52.208   2.548  1.00 28.18 LIG-0.35  N 
ATOM     53  C   ACE T   0      68.300  52.057   2.234  1.00 27.70 LIG 0.21  C 
ATOM     54 O    ACE T   0      67.596  52.982   1.900  1.00 31.05 LIG-0.27  OA
ATOM     55  CH3 ACE T   0      67.736  50.655   2.229  1.00 28.48 LIG 0.12  C 
ATOM     56 H    ASN T   1      69.889  52.806   3.084  1.00 28.18 LIG 0.16  HD
ENDBRANCH 51 52
BRANCH 51 57
ATOM     57  CB  ASN T   1      71.613  52.096   1.110  1.00 27.81 LIG 0.14  C 
BRANCH 57 58
ATOM     58  CG  ASN T   1      72.042  51.349  -0.161  1.00 34.08 LIG 0.22  C 
ATOM     59 OD1  ASN T   1      71.729  51.752  -1.281  1.00 41.34 LIG-0.27  OA
ATOM     60  ND2 ASN T   1      72.835  50.302   0.015  1.00 39.83 LIG-0.37  N 
ATOM     61 22HD ASN T   1      73.037  50.044   0.810  1.00 39.83 LIG 0.16  HD
ATOM     62 21HD ASN T   1      73.149  49.882  -0.667  1.00 39.83 LIG 0.16  HD
ENDBRANCH 57 58
ENDBRANCH 51 57
ENDBRANCH 48 51
ENDBRANCH 35 47
ENDBRANCH 1 35
TORSDOF 21
ENDMDL
MODEL 17
USER: ADFR SOLUTION from run 12
USER: SCORE 18.157078 LL:  -4.078 LR: -15.717 RR:   0.000 FEB:  -9.453
USER: RMSD 11.124872
USER: SEED 438320
USER: STATUS searching
USER: GENES 23
USER: genes 0 Translation |==|  0.48422 0.60188 0.51678
USER: genes 1 Rotation |==|  0.62681 0.54121 0.01916 0.53186
USER: genes 2 Torsion [C]-N--CA-[CB] |==|  0.27133
USER: genes 3 Torsion [N]-CA--CB-[CG] |==|  0.67525
USER: genes 4 Torsion [CA]-CB--CG-[CD] |==|  0.28950
USER: genes 5 Torsion [CB]-CG--CD-[OE2] |==|  0.98955
USER: genes 6 Torsion [N]-CA--C-[N] |==|  0.40540
USER: genes 7 Torsion [C]-N--CA-[C] |==|  0.62856
USER: genes 8 Torsion [N]-CA--C-[N] |==|  0.43117
USER: genes 9 Torsion [C]-N--CA-[C] |==|  0.61737
USER: genes 10 Torsion [N]-CA--C-[O] |==|  0.49841
USER: genes 11 Torsion [N]-CA--CB-[CG] |==|  0.65699
USER: genes 12 Torsion [CA]-CB--CG-[CD1] |==|  0.34953
USER: genes 13 Torsion [N]-CA--CB-[CG2] |==|  0.34136
USER: genes 14 Torsion [CA]-CB--OG1-[HG1] |==|  0.79880
USER: genes 15 Torsion [N]-C--CA-[N] |==|  0.27778
USER: genes 16 Torsion [C]-CA--CB-[CG] |==|  0.76736
USER: genes 17 Torsion [CA]-CB--CG-[CD2] |==|  0.34128
USER: genes 18 Torsion [C]-CA--N-[C] |==|  0.59725
USER: genes 19 Torsion [N]-C--CA-[N] |==|  0.02910
USER: genes 20 Torsion [C]-CA--N-[C] |==|  0.71889
USER: genes 21 Torsion [C]-CA--CB-[CG] |==|  0.89771
USER: genes 22 Torsion [CA]-CB--CG-[OD1] |==|  0.34636
ROOT
ATOM      1  C   TRP T   2      70.136  47.786   5.403  1.00 22.72 LIG 0.24  C 
ATOM      2 O    TRP T   2      69.120  47.362   4.830  1.00 25.73 LIG-0.27  OA
ATOM      3  N   GLU T   3      71.259  47.085   5.484  1.00 22.46 LIG-0.35  N 
ATOM      4 H    GLU T   3      71.967  47.330   5.906  1.00 22.46 LIG 0.16  HD
ENDROOT
BRANCH 3 5
ATOM      5  CA  GLU T   3      71.339  45.803   4.823  1.00 22.12 LIG 0.18  C 
BRANCH 5 6
ATOM      6  CB  GLU T   3      72.029  45.946   3.469  1.00 23.21 LIG 0.04  C 
BRANCH 6 7
ATOM      7  CG  GLU T   3      71.116  45.590   2.322  1.00 26.62 LIG 0.12  C 
BRANCH 7 8
ATOM      8  CD  GLU T   3      70.610  46.789   1.592  1.00 29.06 LIG 0.17  C 
ATOM      9 OE2  GLU T   3      70.917  47.923   2.027  1.00 35.17 LIG-0.65  OA
ATOM     10 OE1  GLU T   3      69.903  46.606   0.582  1.00 32.66 LIG-0.65  OA
ENDBRANCH 7 8
ENDBRANCH 6 7
ENDBRANCH 5 6
BRANCH 5 11
ATOM     11  C   GLU T   3      72.066  44.780   5.655  1.00 21.48 LIG 0.24  C 
ATOM     12  N   THR T   4      71.607  43.551   5.521  1.00 23.46 LIG-0.34  N 
ATOM     13 H    THR T   4      70.952  43.360   4.996  1.00 23.46 LIG 0.16  HD
ATOM     14 O    GLU T   3      72.972  45.094   6.401  1.00 21.28 LIG-0.27  OA
BRANCH 12 15
ATOM     15  CA  THR T   4      72.123  42.394   6.214  1.00 25.11 LIG 0.20  C 
BRANCH 15 16
ATOM     16  C   THR T   4      72.304  41.247   5.221  1.00 26.24 LIG 0.24  C 
ATOM     17 O    THR T   4      71.735  41.266   4.136  1.00 26.41 LIG-0.27  OA
ATOM     18  N   PHE T   5      73.205  40.332   5.551  1.00 29.12 LIG-0.34  N 
ATOM     19 H    PHE T   5      73.695  40.383   6.255  1.00 29.12 LIG 0.16  HD
BRANCH 18 20
ATOM     20  CA  PHE T   5      73.450  39.146   4.747  1.00 29.36 LIG 0.19  C 
BRANCH 20 21
ATOM     21  C   PHE T   5      73.610  37.916   5.677  1.00 32.56 LIG 0.20  C 
ATOM     22 O    PHE T   5      73.817  36.804   5.135  1.00 36.67 LIG-0.65  OA
ATOM     23 OXT  PHE T   5      73.556  38.046   6.932  1.00 34.39 LIG-0.65  OA
ENDBRANCH 20 21
BRANCH 20 24
ATOM     24  CB  PHE T   5      74.733  39.304   3.941  1.00 26.24 LIG 0.07  C 
BRANCH 24 25
ATOM     25  CG  PHE T   5      74.563  39.143   2.467  1.00 22.58 LIG-0.06  A 
ATOM     26  CD1 PHE T   5      74.998  40.131   1.603  1.00 21.65 LIG 0.01  A 
ATOM     27  CE1 PHE T   5      74.735  40.052   0.261  1.00 20.51 LIG 0.00  A 
ATOM     28  CZ  PHE T   5      74.039  38.979  -0.235  1.00 20.87 LIG 0.00  A 
ATOM     29  CE2 PHE T   5      73.610  37.979   0.625  1.00 20.50 LIG 0.00  A 
ATOM     30  CD2 PHE T   5      73.873  38.064   1.954  1.00 18.29 LIG 0.01  A 
ENDBRANCH 24 25
ENDBRANCH 20 24
ENDBRANCH 18 20
ENDBRANCH 15 16
BRANCH 15 31
ATOM     31  CB  THR T   4      71.101  42.043   7.352  1.00 25.29 LIG 0.15  C 
ATOM     32  CG2 THR T   4      70.566  40.634   7.266  1.00 28.15 LIG 0.04  C 
BRANCH 31 33
ATOM     33 OG1  THR T   4      71.694  42.292   8.637  1.00 26.44 LIG-0.39  OA
ATOM     34 HG1  THR T   4      72.273  41.705   8.797  1.00 26.44 LIG 0.21  HD
ENDBRANCH 31 33
ENDBRANCH 15 31
ENDBRANCH 12 15
ENDBRANCH 5 11
ENDBRANCH 3 5
BRANCH 1 35
ATOM     35  CA  TRP T   2      70.133  49.136   6.107  1.00 22.55 LIG 0.18  C 
BRANCH 35 36
ATOM     36  CB  TRP T   2      68.789  49.341   6.818  1.00 18.37 LIG 0.07  C 
BRANCH 36 37
ATOM     37  CG  TRP T   2      67.728  49.877   5.890  1.00 15.70 LIG-0.03  A 
ATOM     38  CD2 TRP T   2      66.463  49.276   5.609  1.00  9.74 LIG-0.00  A 
ATOM     39  CE2 TRP T   2      65.793  50.114   4.700  1.00 12.08 LIG 0.04  A 
ATOM     40  CE3 TRP T   2      65.836  48.105   6.025  1.00  8.42 LIG 0.01  A 
ATOM     41  CZ2 TRP T   2      64.525  49.812   4.211  1.00 12.57 LIG 0.03  A 
ATOM     42  NE1 TRP T   2      66.612  51.186   4.440  1.00 15.46 LIG-0.36  N 
ATOM     43  CH2 TRP T   2      63.952  48.657   4.646  1.00  9.29 LIG 0.00  A 
ATOM     44  CZ3 TRP T   2      64.601  47.814   5.546  1.00  5.55 LIG 0.00  A 
ATOM     45 HE1  TRP T   2      66.427  51.840   3.913  1.00 15.46 LIG 0.17  HD
ATOM     46  CD1 TRP T   2      67.772  51.042   5.161  1.00 15.83 LIG 0.10  A 
ENDBRANCH 36 37
ENDBRANCH 35 36
BRANCH 35 47
ATOM     47  N   TRP T   2      70.351  50.261   5.207  1.00 22.15 LIG-0.35  N 
ATOM     48  C   ASN T   1      71.025  51.348   5.551  1.00 24.32 LIG 0.24  C 
ATOM     49 O    ASN T   1      71.476  51.528   6.686  1.00 24.18 LIG-0.27  OA
ATOM     50 H    TRP T   2      70.000  50.153   4.430  1.00 22.15 LIG 0.16  HD
BRANCH 48 51
ATOM     51  CA  ASN T   1      71.059  52.457   4.505  1.00 25.81 LIG 0.18  C 
BRANCH 51 52
ATOM     52  N   ASN T   1      70.187  52.328   3.366  1.00 28.18 LIG-0.35  N 
ATOM     53  C   ACE T   0      70.673  51.911   2.202  1.00 27.70 LIG 0.21  C 
ATOM     54 O    ACE T   0      70.445  52.479   1.158  1.00 31.05 LIG-0.27  OA
ATOM     55  CH3 ACE T   0      71.606  50.723   2.212  1.00 28.48 LIG 0.12  C 
ATOM     56 H    ASN T   1      69.366  52.538   3.508  1.00 28.18 LIG 0.16  HD
ENDBRANCH 51 52
BRANCH 51 57
ATOM     57  CB  ASN T   1      71.050  53.890   5.103  1.00 27.81 LIG 0.14  C 
BRANCH 57 58
ATOM     58  CG  ASN T   1      70.176  54.042   6.357  1.00 34.08 LIG 0.22  C 
ATOM     59 OD1  ASN T   1      70.634  54.480   7.412  1.00 41.34 LIG-0.27  OA
ATOM     60  ND2 ASN T   1      68.891  53.757   6.212  1.00 39.83 LIG-0.37  N 
ATOM     61 22HD ASN T   1      68.599  53.452   5.462  1.00 39.83 LIG 0.16  HD
ATOM     62 21HD ASN T   1      68.347  53.877   6.868  1.00 39.83 LIG 0.16  HD
ENDBRANCH 57 58
ENDBRANCH 51 57
ENDBRANCH 48 51
ENDBRANCH 35 47
ENDBRANCH 1 35
TORSDOF 21
ENDMDL
MODEL 18
USER: ADFR SOLUTION from run 53
USER: SCORE 17.248653 LL:  -3.888 LR: -15.659 RR:   0.000 FEB:  -9.395
USER: RMSD 9.922567
USER: SEED 52
USER: STATUS no improvement in best 4 clusters for 5 generations
USER: GENES 23
USER: genes 0 Translation |==|  0.56651 0.53652 0.48229
USER: genes 1 Rotation |==|  0.00896 0.40614 0.50698 0.50478
USER: genes 2 Torsion [C]-N--CA-[CB] |==|  0.18150
USER: genes 3 Torsion [N]-CA--CB-[CG] |==|  0.39064
USER: genes 4 Torsion [CA]-CB--CG-[CD] |==|  0.66766
USER: genes 5 Torsion [CB]-CG--CD-[OE2] |==|  0.19430
USER: genes 6 Torsion [N]-CA--C-[N] |==|  0.40258
USER: genes 7 Torsion [C]-N--CA-[C] |==|  0.78268
USER: genes 8 Torsion [N]-CA--C-[N] |==|  0.12788
USER: genes 9 Torsion [C]-N--CA-[C] |==|  0.09054
USER: genes 10 Torsion [N]-CA--C-[O] |==|  0.15326
USER: genes 11 Torsion [N]-CA--CB-[CG] |==|  0.86117
USER: genes 12 Torsion [CA]-CB--CG-[CD1] |==|  0.38402
USER: genes 13 Torsion [N]-CA--CB-[CG2] |==|  0.15585
USER: genes 14 Torsion [CA]-CB--OG1-[HG1] |==|  0.18104
USER: genes 15 Torsion [N]-C--CA-[N] |==|  0.77046
USER: genes 16 Torsion [C]-CA--CB-[CG] |==|  0.37574
USER: genes 17 Torsion [CA]-CB--CG-[CD2] |==|  0.36323
USER: genes 18 Torsion [C]-CA--N-[C] |==|  0.68854
USER: genes 19 Torsion [N]-C--CA-[N] |==|  0.92978
USER: genes 20 Torsion [C]-CA--N-[C] |==|  0.77110
USER: genes 21 Torsion [C]-CA--CB-[CG] |==|  0.93396
USER: genes 22 Torsion [CA]-CB--CG-[OD1] |==|  0.75873
ROOT
ATOM      1  C   TRP T   2      72.605  45.826   4.369  1.00 22.72 LIG 0.24  C 
ATOM      2 O    TRP T   2      73.833  45.971   4.259  1.00 25.73 LIG-0.27  OA
ATOM      3  N   GLU T   3      72.047  44.670   4.704  1.00 22.46 LIG-0.35  N 
ATOM      4 H    GLU T   3      71.201  44.523   4.751  1.00 22.46 LIG 0.16  HD
ENDROOT
BRANCH 3 5
ATOM      5  CA  GLU T   3      72.894  43.544   5.022  1.00 22.12 LIG 0.18  C 
BRANCH 5 6
ATOM      6  CB  GLU T   3      73.696  43.826   6.291  1.00 23.21 LIG 0.04  C 
BRANCH 6 7
ATOM      7  CG  GLU T   3      73.811  42.611   7.176  1.00 26.62 LIG 0.12  C 
BRANCH 7 8
ATOM      8  CD  GLU T   3      73.214  42.822   8.529  1.00 29.06 LIG 0.17  C 
ATOM      9 OE2  GLU T   3      71.969  42.918   8.619  1.00 35.17 LIG-0.65  OA
ATOM     10 OE1  GLU T   3      73.985  42.896   9.505  1.00 32.66 LIG-0.65  OA
ENDBRANCH 7 8
ENDBRANCH 6 7
ENDBRANCH 5 6
BRANCH 5 11
ATOM     11  C   GLU T   3      72.107  42.272   5.194  1.00 21.48 LIG 0.24  C 
ATOM     12  N   THR T   4      72.731  41.190   4.770  1.00 23.46 LIG-0.34  N 
ATOM     13 H    THR T   4      73.522  41.219   4.433  1.00 23.46 LIG 0.16  HD
ATOM     14 O    GLU T   3      70.984  42.277   5.655  1.00 21.28 LIG-0.27  OA
BRANCH 12 15
ATOM     15  CA  THR T   4      72.190  39.852   4.814  1.00 25.11 LIG 0.20  C 
BRANCH 15 16
ATOM     16  C   THR T   4      72.309  39.304   6.234  1.00 26.24 LIG 0.24  C 
ATOM     17 O    THR T   4      72.846  38.221   6.443  1.00 26.41 LIG-0.27  OA
ATOM     18  N   PHE T   5      71.931  40.124   7.206  1.00 29.12 LIG-0.34  N 
ATOM     19 H    PHE T   5      71.670  40.931   7.068  1.00 29.12 LIG 0.16  HD
BRANCH 18 20
ATOM     20  CA  PHE T   5      71.922  39.731   8.605  1.00 29.36 LIG 0.19  C 
BRANCH 20 21
ATOM     21  C   PHE T   5      73.074  38.726   8.867  1.00 32.56 LIG 0.20  C 
ATOM     22 O    PHE T   5      74.234  39.081   8.551  1.00 36.67 LIG-0.65  OA
ATOM     23 OXT  PHE T   5      72.841  37.605   9.400  1.00 34.39 LIG-0.65  OA
ENDBRANCH 20 21
BRANCH 20 24
ATOM     24  CB  PHE T   5      70.606  39.050   8.959  1.00 26.24 LIG 0.07  C 
BRANCH 24 25
ATOM     25  CG  PHE T   5      69.387  39.800   8.536  1.00 22.58 LIG-0.06  A 
ATOM     26  CD1 PHE T   5      68.313  39.129   7.983  1.00 21.65 LIG 0.01  A 
ATOM     27  CE1 PHE T   5      67.241  39.818   7.477  1.00 20.51 LIG 0.00  A 
ATOM     28  CZ  PHE T   5      67.231  41.190   7.525  1.00 20.87 LIG 0.00  A 
ATOM     29  CE2 PHE T   5      68.300  41.868   8.089  1.00 20.50 LIG 0.00  A 
ATOM     30  CD2 PHE T   5      69.358  41.179   8.588  1.00 18.29 LIG 0.01  A 
ENDBRANCH 24 25
ENDBRANCH 20 24
ENDBRANCH 18 20
ENDBRANCH 15 16
BRANCH 15 31
ATOM     31  CB  THR T   4      72.994  38.995   3.774  1.00 25.29 LIG 0.15  C 
ATOM     32  CG2 THR T   4      74.485  39.005   4.010  1.00 28.15 LIG 0.04  C 
BRANCH 31 33
ATOM     33 OG1  THR T   4      72.485  37.652   3.748  1.00 26.44 LIG-0.39  OA
ATOM     34 HG1  THR T   4      71.695  37.657   3.461  1.00 26.44 LIG 0.21  HD
ENDBRANCH 31 33
ENDBRANCH 15 31
ENDBRANCH 12 15
ENDBRANCH 5 11
ENDBRANCH 3 5
BRANCH 1 35
ATOM     35  CA  TRP T   2      71.650  46.972   4.066  1.00 22.55 LIG 0.18  C 
BRANCH 35 36
ATOM     36  CB  TRP T   2      70.464  46.923   5.038  1.00 18.37 LIG 0.07  C 
BRANCH 36 37
ATOM     37  CG  TRP T   2      70.126  48.282   5.595  1.00 15.70 LIG-0.03  A 
ATOM     38  CD2 TRP T   2      68.829  48.880   5.646  1.00  9.74 LIG-0.00  A 
ATOM     39  CE2 TRP T   2      68.973  50.143   6.250  1.00 12.08 LIG 0.04  A 
ATOM     40  CE3 TRP T   2      67.563  48.480   5.229  1.00  8.42 LIG 0.01  A 
ATOM     41  CZ2 TRP T   2      67.892  50.996   6.446  1.00 12.57 LIG 0.03  A 
ATOM     42  NE1 TRP T   2      70.301  50.307   6.560  1.00 15.46 LIG-0.36  N 
ATOM     43  CH2 TRP T   2      66.673  50.562   6.022  1.00  9.29 LIG 0.00  A 
ATOM     44  CZ3 TRP T   2      66.512  49.315   5.423  1.00  5.55 LIG 0.00  A 
ATOM     45 HE1  TRP T   2      70.645  50.999   6.937  1.00 15.46 LIG 0.17  HD
ATOM     46  CD1 TRP T   2      70.990  49.185   6.169  1.00 15.83 LIG 0.10  A 
ENDBRANCH 36 37
ENDBRANCH 35 36
BRANCH 35 47
ATOM     47  N   TRP T   2      71.128  46.948   2.705  1.00 22.15 LIG-0.35  N 
ATOM     48  C   ASN T   1      71.437  47.856   1.792  1.00 24.32 LIG 0.24  C 
ATOM     49 O    ASN T   1      72.147  48.838   2.033  1.00 24.18 LIG-0.27  OA
ATOM     50 H    TRP T   2      70.600  46.288   2.551  1.00 22.15 LIG 0.16  HD
BRANCH 48 51
ATOM     51  CA  ASN T   1      70.712  47.717   0.458  1.00 25.81 LIG 0.18  C 
BRANCH 51 52
ATOM     52  N   ASN T   1      70.235  46.409   0.089  1.00 28.18 LIG-0.35  N 
ATOM     53  C   ACE T   0      71.065  45.533  -0.468  1.00 27.70 LIG 0.21  C 
ATOM     54 O    ACE T   0      70.783  44.912  -1.467  1.00 31.05 LIG-0.27  OA
ATOM     55  CH3 ACE T   0      72.437  45.375   0.143  1.00 28.48 LIG 0.12  C 
ATOM     56 H    ASN T   1      69.405  46.261   0.257  1.00 28.18 LIG 0.16  HD
ENDBRANCH 51 52
BRANCH 51 57
ATOM     57  CB  ASN T   1      69.663  48.831   0.190  1.00 27.81 LIG 0.14  C 
BRANCH 57 58
ATOM     58  CG  ASN T   1      69.122  49.503   1.460  1.00 34.08 LIG 0.22  C 
ATOM     59 OD1  ASN T   1      68.161  49.040   2.075  1.00 41.34 LIG-0.27  OA
ATOM     60  ND2 ASN T   1      69.800  50.554   1.900  1.00 39.83 LIG-0.37  N 
ATOM     61 22HD ASN T   1      70.467  50.855   1.448  1.00 39.83 LIG 0.16  HD
ATOM     62 21HD ASN T   1      69.572  50.934   2.637  1.00 39.83 LIG 0.16  HD
ENDBRANCH 57 58
ENDBRANCH 51 57
ENDBRANCH 48 51
ENDBRANCH 35 47
ENDBRANCH 1 35
TORSDOF 21
ENDMDL
MODEL 19
USER: ADFR SOLUTION from run 59
USER: SCORE 19.088979 LL:  -4.386 LR: -15.647 RR:   0.000 FEB:  -9.383
USER: RMSD 10.447579
USER: SEED 58
USER: STATUS no improvement in best 6 clusters for 5 generations
USER: GENES 23
USER: genes 0 Translation |==|  0.52049 0.57305 0.50002
USER: genes 1 Rotation |==|  0.28317 0.30891 0.11785 0.64295
USER: genes 2 Torsion [C]-N--CA-[CB] |==|  0.82073
USER: genes 3 Torsion [N]-CA--CB-[CG] |==|  0.64945
USER: genes 4 Torsion [CA]-CB--CG-[CD] |==|  0.80916
USER: genes 5 Torsion [CB]-CG--CD-[OE2] |==|  0.80981
USER: genes 6 Torsion [N]-CA--C-[N] |==|  0.35463
USER: genes 7 Torsion [C]-N--CA-[C] |==|  0.79295
USER: genes 8 Torsion [N]-CA--C-[N] |==|  0.50420
USER: genes 9 Torsion [C]-N--CA-[C] |==|  0.69933
USER: genes 10 Torsion [N]-CA--C-[O] |==|  0.00899
USER: genes 11 Torsion [N]-CA--CB-[CG] |==|  0.91697
USER: genes 12 Torsion [CA]-CB--CG-[CD1] |==|  0.36163
USER: genes 13 Torsion [N]-CA--CB-[CG2] |==|  0.20934
USER: genes 14 Torsion [CA]-CB--OG1-[HG1] |==|  0.52128
USER: genes 15 Torsion [N]-C--CA-[N] |==|  0.44892
USER: genes 16 Torsion [C]-CA--CB-[CG] |==|  0.88816
USER: genes 17 Torsion [CA]-CB--CG-[CD2] |==|  0.29229
USER: genes 18 Torsion [C]-CA--N-[C] |==|  0.55267
USER: genes 19 Torsion [N]-C--CA-[N] |==|  0.88959
USER: genes 20 Torsion [C]-CA--N-[C] |==|  0.65427
USER: genes 21 Torsion [C]-CA--CB-[CG] |==|  0.76363
USER: genes 22 Torsion [CA]-CB--CG-[OD1] |==|  0.22931
ROOT
ATOM      1  C   TRP T   2      71.225  46.922   4.901  1.00 22.72 LIG 0.24  C 
ATOM      2 O    TRP T   2      70.952  46.683   6.088  1.00 25.73 LIG-0.27  OA
ATOM      3  N   GLU T   3      72.176  46.277   4.239  1.00 22.46 LIG-0.35  N 
ATOM      4 H    GLU T   3      72.418  46.442   3.431  1.00 22.46 LIG 0.16  HD
ENDROOT
BRANCH 3 5
ATOM      5  CA  GLU T   3      72.887  45.203   4.895  1.00 22.12 LIG 0.18  C 
BRANCH 5 6
ATOM      6  CB  GLU T   3      73.686  45.742   6.079  1.00 23.21 LIG 0.04  C 
BRANCH 6 7
ATOM      7  CG  GLU T   3      75.143  45.356   6.009  1.00 26.62 LIG 0.12  C 
BRANCH 7 8
ATOM      8  CD  GLU T   3      75.363  43.893   6.212  1.00 29.06 LIG 0.17  C 
ATOM      9 OE2  GLU T   3      75.141  43.411   7.346  1.00 35.17 LIG-0.65  OA
ATOM     10 OE1  GLU T   3      75.759  43.220   5.242  1.00 32.66 LIG-0.65  OA
ENDBRANCH 7 8
ENDBRANCH 6 7
ENDBRANCH 5 6
BRANCH 5 11
ATOM     11  C   GLU T   3      71.961  44.113   5.365  1.00 21.48 LIG 0.24  C 
ATOM     12  N   THR T   4      72.303  42.904   4.963  1.00 23.46 LIG-0.34  N 
ATOM     13 H    THR T   4      73.002  42.762   4.480  1.00 23.46 LIG 0.16  HD
ATOM     14 O    GLU T   3      70.973  44.359   6.026  1.00 21.28 LIG-0.27  OA
BRANCH 12 15
ATOM     15  CA  THR T   4      71.578  41.694   5.269  1.00 25.11 LIG 0.20  C 
BRANCH 15 16
ATOM     16  C   THR T   4      71.829  41.307   6.726  1.00 26.24 LIG 0.24  C 
ATOM     17 O    THR T   4      72.427  42.068   7.479  1.00 26.41 LIG-0.27  OA
ATOM     18  N   PHE T   5      71.245  40.190   7.137  1.00 29.12 LIG-0.34  N 
ATOM     19 H    PHE T   5      70.722  39.719   6.643  1.00 29.12 LIG 0.16  HD
BRANCH 18 20
ATOM     20  CA  PHE T   5      71.436  39.652   8.474  1.00 29.36 LIG 0.19  C 
BRANCH 20 21
ATOM     21  C   PHE T   5      72.314  38.375   8.395  1.00 32.56 LIG 0.20  C 
ATOM     22 O    PHE T   5      72.761  38.050   7.269  1.00 36.67 LIG-0.65  OA
ATOM     23 OXT  PHE T   5      72.583  37.713   9.436  1.00 34.39 LIG-0.65  OA
ENDBRANCH 20 21
BRANCH 20 24
ATOM     24  CB  PHE T   5      70.097  39.270   9.091  1.00 26.24 LIG 0.07  C 
BRANCH 24 25
ATOM     25  CG  PHE T   5      68.942  40.092   8.623  1.00 22.58 LIG-0.06  A 
ATOM     26  CD1 PHE T   5      67.785  39.480   8.178  1.00 21.65 LIG 0.01  A 
ATOM     27  CE1 PHE T   5      66.769  40.218   7.630  1.00 20.51 LIG 0.00  A 
ATOM     28  CZ  PHE T   5      66.896  41.580   7.527  1.00 20.87 LIG 0.00  A 
ATOM     29  CE2 PHE T   5      68.049  42.201   7.983  1.00 20.50 LIG 0.00  A 
ATOM     30  CD2 PHE T   5      69.052  41.464   8.523  1.00 18.29 LIG 0.01  A 
ENDBRANCH 24 25
ENDBRANCH 20 24
ENDBRANCH 18 20
ENDBRANCH 15 16
BRANCH 15 31
ATOM     31  CB  THR T   4      72.073  40.593   4.266  1.00 25.29 LIG 0.15  C 
ATOM     32  CG2 THR T   4      73.440  40.046   4.599  1.00 28.15 LIG 0.04  C 
BRANCH 31 33
ATOM     33 OG1  THR T   4      71.102  39.538   4.179  1.00 26.44 LIG-0.39  OA
ATOM     34 HG1  THR T   4      71.416  38.904   3.725  1.00 26.44 LIG 0.21  HD
ENDBRANCH 31 33
ENDBRANCH 15 31
ENDBRANCH 12 15
ENDBRANCH 5 11
ENDBRANCH 3 5
BRANCH 1 35
ATOM     35  CA  TRP T   2      70.506  48.027   4.139  1.00 22.55 LIG 0.18  C 
BRANCH 35 36
ATOM     36  CB  TRP T   2      71.397  49.275   4.085  1.00 18.37 LIG 0.07  C 
BRANCH 36 37
ATOM     37  CG  TRP T   2      72.116  49.521   5.387  1.00 15.70 LIG-0.03  A 
ATOM     38  CD2 TRP T   2      73.500  49.283   5.650  1.00  9.74 LIG-0.00  A 
ATOM     39  CE2 TRP T   2      73.744  49.658   6.984  1.00 12.08 LIG 0.04  A 
ATOM     40  CE3 TRP T   2      74.554  48.778   4.896  1.00  8.42 LIG 0.01  A 
ATOM     41  CZ2 TRP T   2      75.002  49.544   7.567  1.00 12.57 LIG 0.03  A 
ATOM     42  NE1 TRP T   2      72.559  50.111   7.512  1.00 15.46 LIG-0.36  N 
ATOM     43  CH2 TRP T   2      76.002  49.045   6.790  1.00  9.29 LIG 0.00  A 
ATOM     44  CZ3 TRP T   2      75.780  48.668   5.467  1.00  5.55 LIG 0.00  A 
ATOM     45 HE1  TRP T   2      72.447  50.398   8.315  1.00 15.46 LIG 0.17  HD
ATOM     46  CD1 TRP T   2      71.585  50.032   6.547  1.00 15.83 LIG 0.10  A 
ENDBRANCH 36 37
ENDBRANCH 35 36
BRANCH 35 47
ATOM     47  N   TRP T   2      69.228  48.402   4.730  1.00 22.15 LIG-0.35  N 
ATOM     48  C   ASN T   1      68.284  49.054   4.068  1.00 24.32 LIG 0.24  C 
ATOM     49 O    ASN T   1      68.431  49.455   2.909  1.00 24.18 LIG-0.27  OA
ATOM     50 H    TRP T   2      69.144  48.161   5.550  1.00 22.15 LIG 0.16  HD
BRANCH 48 51
ATOM     51  CA  ASN T   1      67.059  49.445   4.887  1.00 25.81 LIG 0.18  C 
BRANCH 51 52
ATOM     52  N   ASN T   1      66.566  48.492   5.847  1.00 28.18 LIG-0.35  N 
ATOM     53  C   ACE T   0      65.300  48.089   5.793  1.00 27.70 LIG 0.21  C 
ATOM     54 O    ACE T   0      64.582  48.062   6.766  1.00 31.05 LIG-0.27  OA
ATOM     55  CH3 ACE T   0      64.733  47.726   4.441  1.00 28.48 LIG 0.12  C 
ATOM     56 H    ASN T   1      67.141  48.225   6.427  1.00 28.18 LIG 0.16  HD
ENDBRANCH 51 52
BRANCH 51 57
ATOM     57  CB  ASN T   1      67.112  50.890   5.455  1.00 27.81 LIG 0.14  C 
BRANCH 57 58
ATOM     58  CG  ASN T   1      67.861  51.012   6.790  1.00 34.08 LIG 0.22  C 
ATOM     59 OD1  ASN T   1      69.089  51.099   6.834  1.00 41.34 LIG-0.27  OA
ATOM     60  ND2 ASN T   1      67.109  51.105   7.876  1.00 39.83 LIG-0.37  N 
ATOM     61 22HD ASN T   1      66.254  51.040   7.814  1.00 39.83 LIG 0.16  HD
ATOM     62 21HD ASN T   1      67.477  51.230   8.644  1.00 39.83 LIG 0.16  HD
ENDBRANCH 57 58
ENDBRANCH 51 57
ENDBRANCH 48 51
ENDBRANCH 35 47
ENDBRANCH 1 35
TORSDOF 21
ENDMDL
MODEL 20
USER: ADFR SOLUTION from run 97
USER: SCORE 18.935489 LL:  -3.736 LR: -15.644 RR:   0.000 FEB:  -9.380
USER: RMSD 10.664574
USER: SEED 96
USER: STATUS no improvement in best 20 clusters for 5 generations
USER: GENES 23
USER: genes 0 Translation |==|  0.46192 0.64184 0.49932
USER: genes 1 Rotation |==|  0.40160 0.36180 0.09096 0.73218
USER: genes 2 Torsion [C]-N--CA-[CB] |==|  0.81419
USER: genes 3 Torsion [N]-CA--CB-[CG] |==|  0.80769
USER: genes 4 Torsion [CA]-CB--CG-[CD] |==|  0.26517
USER: genes 5 Torsion [CB]-CG--CD-[OE2] |==|  0.58683
USER: genes 6 Torsion [N]-CA--C-[N] |==|  0.43905
USER: genes 7 Torsion [C]-N--CA-[C] |==|  0.67622
USER: genes 8 Torsion [N]-CA--C-[N] |==|  0.39889
USER: genes 9 Torsion [C]-N--CA-[C] |==|  0.60170
USER: genes 10 Torsion [N]-CA--C-[O] |==|  0.49005
USER: genes 11 Torsion [N]-CA--CB-[CG] |==|  0.19912
USER: genes 12 Torsion [CA]-CB--CG-[CD1] |==|  0.71544
USER: genes 13 Torsion [N]-CA--CB-[CG2] |==|  0.00369
USER: genes 14 Torsion [CA]-CB--OG1-[HG1] |==|  0.37950
USER: genes 15 Torsion [N]-C--CA-[N] |==|  0.87297
USER: genes 16 Torsion [C]-CA--CB-[CG] |==|  0.30278
USER: genes 17 Torsion [CA]-CB--CG-[CD2] |==|  0.94419
USER: genes 18 Torsion [C]-CA--N-[C] |==|  0.78889
USER: genes 19 Torsion [N]-C--CA-[N] |==|  0.98425
USER: genes 20 Torsion [C]-CA--N-[C] |==|  0.71430
USER: genes 21 Torsion [C]-CA--CB-[CG] |==|  0.25319
USER: genes 22 Torsion [CA]-CB--CG-[OD1] |==|  0.09849
ROOT
ATOM      1  C   TRP T   2      69.468  48.985   4.880  1.00 22.72 LIG 0.24  C 
ATOM      2 O    TRP T   2      69.162  48.120   5.716  1.00 25.73 LIG-0.27  OA
ATOM      3  N   GLU T   3      70.661  49.036   4.304  1.00 22.46 LIG-0.35  N 
ATOM      4 H    GLU T   3      70.920  49.642   3.752  1.00 22.46 LIG 0.16  HD
ENDROOT
BRANCH 3 5
ATOM      5  CA  GLU T   3      71.632  48.009   4.601  1.00 22.12 LIG 0.18  C 
BRANCH 5 6
ATOM      6  CB  GLU T   3      72.074  48.104   6.059  1.00 23.21 LIG 0.04  C 
BRANCH 6 7
ATOM      7  CG  GLU T   3      72.901  49.336   6.327  1.00 26.62 LIG 0.12  C 
BRANCH 7 8
ATOM      8  CD  GLU T   3      72.090  50.473   6.856  1.00 29.06 LIG 0.17  C 
ATOM      9 OE2  GLU T   3      72.448  51.639   6.573  1.00 35.17 LIG-0.65  OA
ATOM     10 OE1  GLU T   3      71.094  50.207   7.556  1.00 32.66 LIG-0.65  OA
ENDBRANCH 7 8
ENDBRANCH 6 7
ENDBRANCH 5 6
BRANCH 5 11
ATOM     11  C   GLU T   3      71.101  46.628   4.323  1.00 21.48 LIG 0.24  C 
ATOM     12  N   THR T   4      72.037  45.717   4.134  1.00 23.46 LIG-0.34  N 
ATOM     13 H    THR T   4      72.875  45.906   4.175  1.00 23.46 LIG 0.16  HD
ATOM     14 O    GLU T   3      69.909  46.407   4.251  1.00 21.28 LIG-0.27  OA
BRANCH 12 15
ATOM     15  CA  THR T   4      71.790  44.325   3.842  1.00 25.11 LIG 0.20  C 
BRANCH 15 16
ATOM     16  C   THR T   4      72.337  43.465   4.980  1.00 26.24 LIG 0.24  C 
ATOM     17 O    THR T   4      73.301  43.839   5.638  1.00 26.41 LIG-0.27  OA
ATOM     18  N   PHE T   5      71.626  42.388   5.286  1.00 29.12 LIG-0.34  N 
ATOM     19 H    PHE T   5      70.880  42.190   4.907  1.00 29.12 LIG 0.16  HD
BRANCH 18 20
ATOM     20  CA  PHE T   5      72.043  41.433   6.299  1.00 29.36 LIG 0.19  C 
BRANCH 20 21
ATOM     21  C   PHE T   5      71.656  40.001   5.848  1.00 32.56 LIG 0.20  C 
ATOM     22 O    PHE T   5      72.009  39.048   6.583  1.00 36.67 LIG-0.65  OA
ATOM     23 OXT  PHE T   5      70.989  39.816   4.792  1.00 34.39 LIG-0.65  OA
ENDBRANCH 20 21
BRANCH 20 24
ATOM     24  CB  PHE T   5      71.345  41.720   7.622  1.00 26.24 LIG 0.07  C 
BRANCH 24 25
ATOM     25  CG  PHE T   5      69.891  41.383   7.641  1.00 22.58 LIG-0.06  A 
ATOM     26  CD1 PHE T   5      68.942  42.383   7.526  1.00 21.65 LIG 0.01  A 
ATOM     27  CE1 PHE T   5      67.608  42.102   7.668  1.00 20.51 LIG 0.00  A 
ATOM     28  CZ  PHE T   5      67.207  40.814   7.920  1.00 20.87 LIG 0.00  A 
ATOM     29  CE2 PHE T   5      68.153  39.806   8.025  1.00 20.50 LIG 0.00  A 
ATOM     30  CD2 PHE T   5      69.472  40.091   7.884  1.00 18.29 LIG 0.01  A 
ENDBRANCH 24 25
ENDBRANCH 20 24
ENDBRANCH 18 20
ENDBRANCH 15 16
BRANCH 15 31
ATOM     31  CB  THR T   4      72.484  44.011   2.470  1.00 25.29 LIG 0.15  C 
ATOM     32  CG2 THR T   4      73.213  45.193   1.880  1.00 28.15 LIG 0.04  C 
BRANCH 31 33
ATOM     33 OG1  THR T   4      73.362  42.882   2.613  1.00 26.44 LIG-0.39  OA
ATOM     34 HG1  THR T   4      73.268  42.369   1.955  1.00 26.44 LIG 0.21  HD
ENDBRANCH 31 33
ENDBRANCH 15 31
ENDBRANCH 12 15
ENDBRANCH 5 11
ENDBRANCH 3 5
BRANCH 1 35
ATOM     35  CA  TRP T   2      68.490  50.090   4.503  1.00 22.55 LIG 0.18  C 
BRANCH 35 36
ATOM     36  CB  TRP T   2      67.934  49.826   3.098  1.00 18.37 LIG 0.07  C 
BRANCH 36 37
ATOM     37  CG  TRP T   2      66.485  49.408   3.127  1.00 15.70 LIG-0.03  A 
ATOM     38  CD2 TRP T   2      65.778  48.873   4.247  1.00  9.74 LIG-0.00  A 
ATOM     39  CE2 TRP T   2      64.456  48.632   3.832  1.00 12.08 LIG 0.04  A 
ATOM     40  CE3 TRP T   2      66.135  48.559   5.555  1.00  8.42 LIG 0.01  A 
ATOM     41  CZ2 TRP T   2      63.497  48.098   4.687  1.00 12.57 LIG 0.03  A 
ATOM     42  NE1 TRP T   2      64.357  49.011   2.515  1.00 15.46 LIG-0.36  N 
ATOM     43  CH2 TRP T   2      63.892  47.807   5.957  1.00  9.29 LIG 0.00  A 
ATOM     44  CZ3 TRP T   2      65.198  48.039   6.386  1.00  5.55 LIG 0.00  A 
ATOM     45 HE1  TRP T   2      63.647  48.961   2.032  1.00 15.46 LIG 0.17  HD
ATOM     46  CD1 TRP T   2      65.578  49.481   2.096  1.00 15.83 LIG 0.10  A 
ENDBRANCH 36 37
ENDBRANCH 35 36
BRANCH 35 47
ATOM     47  N   TRP T   2      69.085  51.420   4.517  1.00 22.15 LIG-0.35  N 
ATOM     48  C   ASN T   1      69.344  52.089   5.631  1.00 24.32 LIG 0.24  C 
ATOM     49 O    ASN T   1      69.046  51.668   6.753  1.00 24.18 LIG-0.27  OA
ATOM     50 H    TRP T   2      69.252  51.731   3.734  1.00 22.15 LIG 0.16  HD
BRANCH 48 51
ATOM     51  CA  ASN T   1      69.873  53.506   5.437  1.00 25.81 LIG 0.18  C 
BRANCH 51 52
ATOM     52  N   ASN T   1      70.158  53.935   4.092  1.00 28.18 LIG-0.35  N 
ATOM     53  C   ACE T   0      71.415  53.982   3.663  1.00 27.70 LIG 0.21  C 
ATOM     54 O    ACE T   0      71.873  54.943   3.089  1.00 31.05 LIG-0.27  OA
ATOM     55  CH3 ACE T   0      72.313  52.809   3.979  1.00 28.48 LIG 0.12  C 
ATOM     56 H    ASN T   1      69.471  54.145   3.621  1.00 28.18 LIG 0.16  HD
ENDBRANCH 51 52
BRANCH 51 57
ATOM     57  CB  ASN T   1      69.110  54.583   6.256  1.00 27.81 LIG 0.14  C 
BRANCH 57 58
ATOM     58  CG  ASN T   1      69.705  54.853   7.645  1.00 34.08 LIG 0.22  C 
ATOM     59 OD1  ASN T   1      70.920  54.817   7.844  1.00 41.34 LIG-0.27  OA
ATOM     60  ND2 ASN T   1      68.848  55.210   8.590  1.00 39.83 LIG-0.37  N 
ATOM     61 22HD ASN T   1      68.004  55.226   8.422  1.00 39.83 LIG 0.16  HD
ATOM     62 21HD ASN T   1      69.135  55.425   9.372  1.00 39.83 LIG 0.16  HD
ENDBRANCH 57 58
ENDBRANCH 51 57
ENDBRANCH 48 51
ENDBRANCH 35 47
ENDBRANCH 1 35
TORSDOF 21
ENDMDL
MODEL 21
USER: ADFR SOLUTION from run 157
USER: SCORE 19.338007 LL:  -4.991 LR: -15.623 RR:   0.000 FEB:  -9.359
USER: RMSD 10.821484
USER: SEED 156
USER: STATUS no improvement in best 9 clusters for 5 generations
USER: GENES 23
USER: genes 0 Translation |==|  0.49841 0.57704 0.48523
USER: genes 1 Rotation |==|  0.29685 0.50204 0.07219 0.66032
USER: genes 2 Torsion [C]-N--CA-[CB] |==|  0.51320
USER: genes 3 Torsion [N]-CA--CB-[CG] |==|  0.77859
USER: genes 4 Torsion [CA]-CB--CG-[CD] |==|  0.17843
USER: genes 5 Torsion [CB]-CG--CD-[OE2] |==|  0.10182
USER: genes 6 Torsion [N]-CA--C-[N] |==|  0.36667
USER: genes 7 Torsion [C]-N--CA-[C] |==|  0.62917
USER: genes 8 Torsion [N]-CA--C-[N] |==|  0.42289
USER: genes 9 Torsion [C]-N--CA-[C] |==|  0.62632
USER: genes 10 Torsion [N]-CA--C-[O] |==|  0.60513
USER: genes 11 Torsion [N]-CA--CB-[CG] |==|  0.73148
USER: genes 12 Torsion [CA]-CB--CG-[CD1] |==|  0.30814
USER: genes 13 Torsion [N]-CA--CB-[CG2] |==|  0.55324
USER: genes 14 Torsion [CA]-CB--OG1-[HG1] |==|  0.11642
USER: genes 15 Torsion [N]-C--CA-[N] |==|  0.39148
USER: genes 16 Torsion [C]-CA--CB-[CG] |==|  0.12932
USER: genes 17 Torsion [CA]-CB--CG-[CD2] |==|  0.15916
USER: genes 18 Torsion [C]-CA--N-[C] |==|  0.69159
USER: genes 19 Torsion [N]-C--CA-[N] |==|  0.84499
USER: genes 20 Torsion [C]-CA--N-[C] |==|  0.67684
USER: genes 21 Torsion [C]-CA--CB-[CG] |==|  0.95577
USER: genes 22 Torsion [CA]-CB--CG-[OD1] |==|  0.84073
ROOT
ATOM      1  C   TRP T   2      70.562  47.041   4.457  1.00 22.72 LIG 0.24  C 
ATOM      2 O    TRP T   2      70.233  46.145   5.250  1.00 25.73 LIG-0.27  OA
ATOM      3  N   GLU T   3      71.241  46.800   3.344  1.00 22.46 LIG-0.35  N 
ATOM      4 H    GLU T   3      71.520  47.398   2.793  1.00 22.46 LIG 0.16  HD
ENDROOT
BRANCH 3 5
ATOM      5  CA  GLU T   3      71.558  45.434   2.993  1.00 22.12 LIG 0.18  C 
BRANCH 5 6
ATOM      6  CB  GLU T   3      72.438  45.397   1.746  1.00 23.21 LIG 0.04  C 
BRANCH 6 7
ATOM      7  CG  GLU T   3      71.641  45.575   0.478  1.00 26.62 LIG 0.12  C 
BRANCH 7 8
ATOM      8  CD  GLU T   3      70.990  46.916   0.389  1.00 29.06 LIG 0.17  C 
ATOM      9 OE2  GLU T   3      71.610  47.908   0.836  1.00 35.17 LIG-0.65  OA
ATOM     10 OE1  GLU T   3      69.857  46.984  -0.126  1.00 32.66 LIG-0.65  OA
ENDBRANCH 7 8
ENDBRANCH 6 7
ENDBRANCH 5 6
BRANCH 5 11
ATOM     11  C   GLU T   3      72.243  44.704   4.118  1.00 21.48 LIG 0.24  C 
ATOM     12  N   THR T   4      71.735  43.515   4.378  1.00 23.46 LIG-0.34  N 
ATOM     13 H    THR T   4      71.073  43.191   3.932  1.00 23.46 LIG 0.16  HD
ATOM     14 O    GLU T   3      73.160  45.205   4.736  1.00 21.28 LIG-0.27  OA
BRANCH 12 15
ATOM     15  CA  THR T   4      72.204  42.621   5.410  1.00 25.11 LIG 0.20  C 
BRANCH 15 16
ATOM     16  C   THR T   4      72.344  41.213   4.836  1.00 26.24 LIG 0.24  C 
ATOM     17 O    THR T   4      71.736  40.889   3.822  1.00 26.41 LIG-0.27  OA
ATOM     18  N   PHE T   5      73.252  40.439   5.415  1.00 29.12 LIG-0.34  N 
ATOM     19 H    PHE T   5      73.768  40.707   6.049  1.00 29.12 LIG 0.16  HD
BRANCH 18 20
ATOM     20  CA  PHE T   5      73.462  39.053   5.030  1.00 29.36 LIG 0.19  C 
BRANCH 20 21
ATOM     21  C   PHE T   5      73.569  38.174   6.304  1.00 32.56 LIG 0.20  C 
ATOM     22 O    PHE T   5      74.398  37.234   6.289  1.00 36.67 LIG-0.65  OA
ATOM     23 OXT  PHE T   5      72.860  38.423   7.319  1.00 34.39 LIG-0.65  OA
ENDBRANCH 20 21
BRANCH 20 24
ATOM     24  CB  PHE T   5      74.758  38.909   4.243  1.00 26.24 LIG 0.07  C 
BRANCH 24 25
ATOM     25  CG  PHE T   5      74.587  38.912   2.761  1.00 22.58 LIG-0.06  A 
ATOM     26  CD1 PHE T   5      75.044  39.978   2.009  1.00 21.65 LIG 0.01  A 
ATOM     27  CE1 PHE T   5      74.782  40.052   0.665  1.00 20.51 LIG 0.00  A 
ATOM     28  CZ  PHE T   5      74.062  39.054   0.058  1.00 20.87 LIG 0.00  A 
ATOM     29  CE2 PHE T   5      73.610  37.977   0.804  1.00 20.50 LIG 0.00  A 
ATOM     30  CD2 PHE T   5      73.873  37.911   2.134  1.00 18.29 LIG 0.01  A 
ENDBRANCH 24 25
ENDBRANCH 20 24
ENDBRANCH 18 20
ENDBRANCH 15 16
BRANCH 15 31
ATOM     31  CB  THR T   4      71.166  42.687   6.585  1.00 25.29 LIG 0.15  C 
ATOM     32  CG2 THR T   4      71.713  42.190   7.901  1.00 28.15 LIG 0.04  C 
BRANCH 31 33
ATOM     33 OG1  THR T   4      70.653  44.023   6.711  1.00 26.44 LIG-0.39  OA
ATOM     34 HG1  THR T   4      70.502  44.339   5.947  1.00 26.44 LIG 0.21  HD
ENDBRANCH 31 33
ENDBRANCH 15 31
ENDBRANCH 12 15
ENDBRANCH 5 11
ENDBRANCH 3 5
BRANCH 1 35
ATOM     35  CA  TRP T   2      70.248  48.502   4.751  1.00 22.55 LIG 0.18  C 
BRANCH 35 36
ATOM     36  CB  TRP T   2      71.279  49.059   5.741  1.00 18.37 LIG 0.07  C 
BRANCH 36 37
ATOM     37  CG  TRP T   2      72.692  48.696   5.360  1.00 15.70 LIG-0.03  A 
ATOM     38  CD2 TRP T   2      73.342  48.996   4.124  1.00  9.74 LIG-0.00  A 
ATOM     39  CE2 TRP T   2      74.648  48.480   4.201  1.00 12.08 LIG 0.04  A 
ATOM     40  CE3 TRP T   2      72.944  49.636   2.954  1.00  8.42 LIG 0.01  A 
ATOM     41  CZ2 TRP T   2      75.552  48.596   3.150  1.00 12.57 LIG 0.03  A 
ATOM     42  NE1 TRP T   2      74.793  47.896   5.435  1.00 15.46 LIG-0.36  N 
ATOM     43  CH2 TRP T   2      75.119  49.230   2.026  1.00  9.29 LIG 0.00  A 
ATOM     44  CZ3 TRP T   2      73.829  49.747   1.932  1.00  5.55 LIG 0.00  A 
ATOM     45 HE1  TRP T   2      75.504  47.508   5.725  1.00 15.46 LIG 0.17  HD
ATOM     46  CD1 TRP T   2      73.616  48.031   6.131  1.00 15.83 LIG 0.10  A 
ENDBRANCH 36 37
ENDBRANCH 35 36
BRANCH 35 47
ATOM     47  N   TRP T   2      68.918  48.708   5.309  1.00 22.15 LIG-0.35  N 
ATOM     48  C   ASN T   1      67.939  49.312   4.652  1.00 24.32 LIG 0.24  C 
ATOM     49 O    ASN T   1      68.088  49.807   3.530  1.00 24.18 LIG-0.27  OA
ATOM     50 H    TRP T   2      68.828  48.401   6.107  1.00 22.15 LIG 0.16  HD
BRANCH 48 51
ATOM     51  CA  ASN T   1      66.652  49.522   5.441  1.00 25.81 LIG 0.18  C 
BRANCH 51 52
ATOM     52  N   ASN T   1      66.031  48.363   6.028  1.00 28.18 LIG-0.35  N 
ATOM     53  C   ACE T   0      64.822  47.983   5.626  1.00 27.70 LIG 0.21  C 
ATOM     54 O    ACE T   0      63.931  47.718   6.400  1.00 31.05 LIG-0.27  OA
ATOM     55  CH3 ACE T   0      64.548  47.959   4.141  1.00 28.48 LIG 0.12  C 
ATOM     56 H    ASN T   1      66.495  47.963   6.631  1.00 28.18 LIG 0.16  HD
ENDBRANCH 51 52
BRANCH 51 57
ATOM     57  CB  ASN T   1      66.699  50.730   6.417  1.00 27.81 LIG 0.14  C 
BRANCH 57 58
ATOM     58  CG  ASN T   1      68.114  51.251   6.703  1.00 34.08 LIG 0.22  C 
ATOM     59 OD1  ASN T   1      68.990  50.519   7.164  1.00 41.34 LIG-0.27  OA
ATOM     60  ND2 ASN T   1      68.361  52.503   6.346  1.00 39.83 LIG-0.37  N 
ATOM     61 22HD ASN T   1      67.728  52.992   6.026  1.00 39.83 LIG 0.16  HD
ATOM     62 21HD ASN T   1      69.152  52.827   6.433  1.00 39.83 LIG 0.16  HD
ENDBRANCH 57 58
ENDBRANCH 51 57
ENDBRANCH 48 51
ENDBRANCH 35 47
ENDBRANCH 1 35
TORSDOF 21
ENDMDL
MODEL 22
USER: ADFR SOLUTION from run 97
USER: SCORE 18.609340 LL:  -3.452 LR: -15.572 RR:   0.000 FEB:  -9.308
USER: RMSD 10.466310
USER: SEED 96
USER: STATUS no improvement in best 20 clusters for 5 generations
USER: GENES 23
USER: genes 0 Translation |==|  0.45306 0.64285 0.49559
USER: genes 1 Rotation |==|  0.37922 0.32507 0.11073 0.73083
USER: genes 2 Torsion [C]-N--CA-[CB] |==|  0.83548
USER: genes 3 Torsion [N]-CA--CB-[CG] |==|  0.83216
USER: genes 4 Torsion [CA]-CB--CG-[CD] |==|  0.25136
USER: genes 5 Torsion [CB]-CG--CD-[OE2] |==|  0.11419
USER: genes 6 Torsion [N]-CA--C-[N] |==|  0.37404
USER: genes 7 Torsion [C]-N--CA-[C] |==|  0.73113
USER: genes 8 Torsion [N]-CA--C-[N] |==|  0.37553
USER: genes 9 Torsion [C]-N--CA-[C] |==|  0.61606
USER: genes 10 Torsion [N]-CA--C-[O] |==|  0.48296
USER: genes 11 Torsion [N]-CA--CB-[CG] |==|  0.21301
USER: genes 12 Torsion [CA]-CB--CG-[CD1] |==|  0.71000
USER: genes 13 Torsion [N]-CA--CB-[CG2] |==|  0.02518
USER: genes 14 Torsion [CA]-CB--OG1-[HG1] |==|  0.37387
USER: genes 15 Torsion [N]-C--CA-[N] |==|  0.98579
USER: genes 16 Torsion [C]-CA--CB-[CG] |==|  0.23775
USER: genes 17 Torsion [CA]-CB--CG-[CD2] |==|  0.51232
USER: genes 18 Torsion [C]-CA--N-[C] |==|  0.70000
USER: genes 19 Torsion [N]-C--CA-[N] |==|  0.28356
USER: genes 20 Torsion [C]-CA--N-[C] |==|  0.74867
USER: genes 21 Torsion [C]-CA--CB-[CG] |==|  0.84391
USER: genes 22 Torsion [CA]-CB--CG-[OD1] |==|  0.75927
ROOT
ATOM      1  C   TRP T   2      69.202  49.016   4.768  1.00 22.72 LIG 0.24  C 
ATOM      2 O    TRP T   2      68.943  48.309   5.755  1.00 25.73 LIG-0.27  OA
ATOM      3  N   GLU T   3      70.383  49.001   4.166  1.00 22.46 LIG-0.35  N 
ATOM      4 H    GLU T   3      70.610  49.504   3.506  1.00 22.46 LIG 0.16  HD
ENDROOT
BRANCH 3 5
ATOM      5  CA  GLU T   3      71.397  48.080   4.625  1.00 22.12 LIG 0.18  C 
BRANCH 5 6
ATOM      6  CB  GLU T   3      71.722  48.339   6.094  1.00 23.21 LIG 0.04  C 
BRANCH 6 7
ATOM      7  CG  GLU T   3      72.246  49.733   6.327  1.00 26.62 LIG 0.12  C 
BRANCH 7 8
ATOM      8  CD  GLU T   3      71.162  50.714   6.633  1.00 29.06 LIG 0.17  C 
ATOM      9 OE2  GLU T   3      70.234  50.355   7.394  1.00 35.17 LIG-0.65  OA
ATOM     10 OE1  GLU T   3      71.231  51.845   6.114  1.00 32.66 LIG-0.65  OA
ENDBRANCH 7 8
ENDBRANCH 6 7
ENDBRANCH 5 6
BRANCH 5 11
ATOM     11  C   GLU T   3      70.984  46.644   4.444  1.00 21.48 LIG 0.24  C 
ATOM     12  N   THR T   4      71.922  45.872   3.930  1.00 23.46 LIG-0.34  N 
ATOM     13 H    THR T   4      72.702  46.173   3.725  1.00 23.46 LIG 0.16  HD
ATOM     14 O    GLU T   3      69.865  46.264   4.724  1.00 21.28 LIG-0.27  OA
BRANCH 12 15
ATOM     15  CA  THR T   4      71.775  44.464   3.649  1.00 25.11 LIG 0.20  C 
BRANCH 15 16
ATOM     16  C   THR T   4      72.349  43.654   4.809  1.00 26.24 LIG 0.24  C 
ATOM     17 O    THR T   4      73.365  44.024   5.387  1.00 26.41 LIG-0.27  OA
ATOM     18  N   PHE T   5      71.611  42.633   5.224  1.00 29.12 LIG-0.34  N 
ATOM     19 H    PHE T   5      70.837  42.446   4.900  1.00 29.12 LIG 0.16  HD
BRANCH 18 20
ATOM     20  CA  PHE T   5      72.046  41.726   6.274  1.00 29.36 LIG 0.19  C 
BRANCH 20 21
ATOM     21  C   PHE T   5      71.687  40.269   5.878  1.00 32.56 LIG 0.20  C 
ATOM     22 O    PHE T   5      72.100  39.350   6.623  1.00 36.67 LIG-0.65  OA
ATOM     23 OXT  PHE T   5      70.985  40.035   4.855  1.00 34.39 LIG-0.65  OA
ENDBRANCH 20 21
BRANCH 20 24
ATOM     24  CB  PHE T   5      71.340  42.050   7.584  1.00 26.24 LIG 0.07  C 
BRANCH 24 25
ATOM     25  CG  PHE T   5      69.925  41.580   7.658  1.00 22.58 LIG-0.06  A 
ATOM     26  CD1 PHE T   5      68.884  42.481   7.525  1.00 21.65 LIG 0.01  A 
ATOM     27  CE1 PHE T   5      67.586  42.084   7.716  1.00 20.51 LIG 0.00  A 
ATOM     28  CZ  PHE T   5      67.314  40.778   8.036  1.00 20.87 LIG 0.00  A 
ATOM     29  CE2 PHE T   5      68.353  39.868   8.160  1.00 20.50 LIG 0.00  A 
ATOM     30  CD2 PHE T   5      69.636  40.268   7.970  1.00 18.29 LIG 0.01  A 
ENDBRANCH 24 25
ENDBRANCH 20 24
ENDBRANCH 18 20
ENDBRANCH 15 16
BRANCH 15 31
ATOM     31  CB  THR T   4      72.521  44.182   2.297  1.00 25.29 LIG 0.15  C 
ATOM     32  CG2 THR T   4      73.337  45.352   1.804  1.00 28.15 LIG 0.04  C 
BRANCH 31 33
ATOM     33 OG1  THR T   4      73.333  43.003   2.423  1.00 26.44 LIG-0.39  OA
ATOM     34 HG1  THR T   4      73.225  42.515   1.747  1.00 26.44 LIG 0.21  HD
ENDBRANCH 31 33
ENDBRANCH 15 31
ENDBRANCH 12 15
ENDBRANCH 5 11
ENDBRANCH 3 5
BRANCH 1 35
ATOM     35  CA  TRP T   2      68.177  49.998   4.217  1.00 22.55 LIG 0.18  C 
BRANCH 35 36
ATOM     36  CB  TRP T   2      66.982  49.225   3.644  1.00 18.37 LIG 0.07  C 
BRANCH 36 37
ATOM     37  CG  TRP T   2      65.959  48.890   4.700  1.00 15.70 LIG-0.03  A 
ATOM     38  CD2 TRP T   2      64.779  48.106   4.521  1.00  9.74 LIG-0.00  A 
ATOM     39  CE2 TRP T   2      64.124  48.043   5.764  1.00 12.08 LIG 0.04  A 
ATOM     40  CE3 TRP T   2      64.203  47.463   3.429  1.00  8.42 LIG 0.01  A 
ATOM     41  CZ2 TRP T   2      62.926  47.355   5.935  1.00 12.57 LIG 0.03  A 
ATOM     42  NE1 TRP T   2      64.876  48.754   6.667  1.00 15.46 LIG-0.36  N 
ATOM     43  CH2 TRP T   2      62.401  46.742   4.840  1.00  9.29 LIG 0.00  A 
ATOM     44  CZ3 TRP T   2      63.035  46.794   3.600  1.00  5.55 LIG 0.00  A 
ATOM     45 HE1  TRP T   2      64.686  48.865   7.498  1.00 15.46 LIG 0.17  HD
ATOM     46  CD1 TRP T   2      65.981  49.257   6.025  1.00 15.83 LIG 0.10  A 
ENDBRANCH 36 37
ENDBRANCH 35 36
BRANCH 35 47
ATOM     47  N   TRP T   2      68.707  50.863   3.171  1.00 22.15 LIG-0.35  N 
ATOM     48  C   ASN T   1      68.951  52.152   3.348  1.00 24.32 LIG 0.24  C 
ATOM     49 O    ASN T   1      68.693  52.748   4.399  1.00 24.18 LIG-0.27  OA
ATOM     50 H    TRP T   2      68.846  50.457   2.426  1.00 22.15 LIG 0.16  HD
BRANCH 48 51
ATOM     51  CA  ASN T   1      69.408  52.910   2.106  1.00 25.81 LIG 0.18  C 
BRANCH 51 52
ATOM     52  N   ASN T   1      68.437  53.730   1.429  1.00 28.18 LIG-0.35  N 
ATOM     53  C   ACE T   0      67.698  53.214   0.453  1.00 27.70 LIG 0.21  C 
ATOM     54 O    ACE T   0      67.552  53.762  -0.616  1.00 31.05 LIG-0.27  OA
ATOM     55  CH3 ACE T   0      67.083  51.853   0.679  1.00 28.48 LIG 0.12  C 
ATOM     56 H    ASN T   1      68.388  54.543   1.705  1.00 28.18 LIG 0.16  HD
ENDBRANCH 51 52
BRANCH 51 57
ATOM     57  CB  ASN T   1      70.779  53.622   2.269  1.00 27.81 LIG 0.14  C 
BRANCH 57 58
ATOM     58  CG  ASN T   1      70.841  54.601   3.451  1.00 34.08 LIG 0.22  C 
ATOM     59 OD1  ASN T   1      70.481  55.773   3.336  1.00 41.34 LIG-0.27  OA
ATOM     60  ND2 ASN T   1      71.220  54.092   4.614  1.00 39.83 LIG-0.37  N 
ATOM     61 22HD ASN T   1      71.467  53.269   4.663  1.00 39.83 LIG 0.16  HD
ATOM     62 21HD ASN T   1      71.220  54.584   5.319  1.00 39.83 LIG 0.16  HD
ENDBRANCH 57 58
ENDBRANCH 51 57
ENDBRANCH 48 51
ENDBRANCH 35 47
ENDBRANCH 1 35
TORSDOF 21
ENDMDL
MODEL 23
USER: ADFR SOLUTION from run 97
USER: SCORE 18.998223 LL:  -3.836 LR: -15.532 RR:   0.000 FEB:  -9.268
USER: RMSD 11.282706
USER: SEED 96
USER: STATUS no improvement in best 20 clusters for 5 generations
USER: GENES 23
USER: genes 0 Translation |==|  0.44590 0.64068 0.48834
USER: genes 1 Rotation |==|  0.40364 0.30770 0.11419 0.73427
USER: genes 2 Torsion [C]-N--CA-[CB] |==|  0.82920
USER: genes 3 Torsion [N]-CA--CB-[CG] |==|  0.84813
USER: genes 4 Torsion [CA]-CB--CG-[CD] |==|  0.27698
USER: genes 5 Torsion [CB]-CG--CD-[OE2] |==|  0.09422
USER: genes 6 Torsion [N]-CA--C-[N] |==|  0.34474
USER: genes 7 Torsion [C]-N--CA-[C] |==|  0.75195
USER: genes 8 Torsion [N]-CA--C-[N] |==|  0.38439
USER: genes 9 Torsion [C]-N--CA-[C] |==|  0.59010
USER: genes 10 Torsion [N]-CA--C-[O] |==|  0.48059
USER: genes 11 Torsion [N]-CA--CB-[CG] |==|  0.22624
USER: genes 12 Torsion [CA]-CB--CG-[CD1] |==|  0.71924
USER: genes 13 Torsion [N]-CA--CB-[CG2] |==|  0.04283
USER: genes 14 Torsion [CA]-CB--OG1-[HG1] |==|  0.33726
USER: genes 15 Torsion [N]-C--CA-[N] |==|  0.46198
USER: genes 16 Torsion [C]-CA--CB-[CG] |==|  0.31035
USER: genes 17 Torsion [CA]-CB--CG-[CD2] |==|  0.19974
USER: genes 18 Torsion [C]-CA--N-[C] |==|  0.63643
USER: genes 19 Torsion [N]-C--CA-[N] |==|  0.00696
USER: genes 20 Torsion [C]-CA--N-[C] |==|  0.69345
USER: genes 21 Torsion [C]-CA--CB-[CG] |==|  0.81386
USER: genes 22 Torsion [CA]-CB--CG-[OD1] |==|  0.10051
ROOT
ATOM      1  C   TRP T   2      68.987  48.950   4.550  1.00 22.72 LIG 0.24  C 
ATOM      2 O    TRP T   2      68.679  48.235   5.516  1.00 25.73 LIG-0.27  OA
ATOM      3  N   GLU T   3      70.221  49.013   4.069  1.00 22.46 LIG-0.35  N 
ATOM      4 H    GLU T   3      70.478  49.525   3.428  1.00 22.46 LIG 0.16  HD
ENDROOT
BRANCH 3 5
ATOM      5  CA  GLU T   3      71.244  48.166   4.639  1.00 22.12 LIG 0.18  C 
BRANCH 5 6
ATOM      6  CB  GLU T   3      71.441  48.496   6.117  1.00 23.21 LIG 0.04  C 
BRANCH 6 7
ATOM      7  CG  GLU T   3      71.736  49.957   6.343  1.00 26.62 LIG 0.12  C 
BRANCH 7 8
ATOM      8  CD  GLU T   3      70.534  50.729   6.780  1.00 29.06 LIG 0.17  C 
ATOM      9 OE2  GLU T   3      69.690  50.153   7.505  1.00 35.17 LIG-0.65  OA
ATOM     10 OE1  GLU T   3      70.425  51.910   6.400  1.00 32.66 LIG-0.65  OA
ENDBRANCH 7 8
ENDBRANCH 6 7
ENDBRANCH 5 6
BRANCH 5 11
ATOM     11  C   GLU T   3      70.921  46.704   4.486  1.00 21.48 LIG 0.24  C 
ATOM     12  N   THR T   4      71.858  46.006   3.872  1.00 23.46 LIG-0.34  N 
ATOM     13 H    THR T   4      72.588  46.365   3.593  1.00 23.46 LIG 0.16  HD
ATOM     14 O    GLU T   3      69.868  46.240   4.874  1.00 21.28 LIG-0.27  OA
BRANCH 12 15
ATOM     15  CA  THR T   4      71.787  44.592   3.593  1.00 25.11 LIG 0.20  C 
BRANCH 15 16
ATOM     16  C   THR T   4      72.369  43.813   4.771  1.00 26.24 LIG 0.24  C 
ATOM     17 O    THR T   4      73.314  44.263   5.410  1.00 26.41 LIG-0.27  OA
ATOM     18  N   PHE T   5      71.707  42.721   5.128  1.00 29.12 LIG-0.34  N 
ATOM     19 H    PHE T   5      70.972  42.471   4.758  1.00 29.12 LIG 0.16  HD
BRANCH 18 20
ATOM     20  CA  PHE T   5      72.165  41.836   6.186  1.00 29.36 LIG 0.19  C 
BRANCH 20 21
ATOM     21  C   PHE T   5      71.751  40.379   5.855  1.00 32.56 LIG 0.20  C 
ATOM     22 O    PHE T   5      72.187  39.470   6.601  1.00 36.67 LIG-0.65  OA
ATOM     23 OXT  PHE T   5      70.985  40.132   4.882  1.00 34.39 LIG-0.65  OA
ENDBRANCH 20 21
BRANCH 20 24
ATOM     24  CB  PHE T   5      71.528  42.221   7.515  1.00 26.24 LIG 0.07  C 
BRANCH 24 25
ATOM     25  CG  PHE T   5      70.145  41.697   7.714  1.00 22.58 LIG-0.06  A 
ATOM     26  CD1 PHE T   5      69.053  42.523   7.523  1.00 21.65 LIG 0.01  A 
ATOM     27  CE1 PHE T   5      67.787  42.091   7.822  1.00 20.51 LIG 0.00  A 
ATOM     28  CZ  PHE T   5      67.599  40.823   8.312  1.00 20.87 LIG 0.00  A 
ATOM     29  CE2 PHE T   5      68.689  39.986   8.496  1.00 20.50 LIG 0.00  A 
ATOM     30  CD2 PHE T   5      69.940  40.421   8.197  1.00 18.29 LIG 0.01  A 
ENDBRANCH 24 25
ENDBRANCH 20 24
ENDBRANCH 18 20
ENDBRANCH 15 16
BRANCH 15 31
ATOM     31  CB  THR T   4      72.582  44.343   2.262  1.00 25.29 LIG 0.15  C 
ATOM     32  CG2 THR T   4      73.470  45.497   1.868  1.00 28.15 LIG 0.04  C 
BRANCH 31 33
ATOM     33 OG1  THR T   4      73.333  43.123   2.362  1.00 26.44 LIG-0.39  OA
ATOM     34 HG1  THR T   4      73.099  42.598   1.749  1.00 26.44 LIG 0.21  HD
ENDBRANCH 31 33
ENDBRANCH 15 31
ENDBRANCH 12 15
ENDBRANCH 5 11
ENDBRANCH 3 5
BRANCH 1 35
ATOM     35  CA  TRP T   2      67.959  49.856   3.887  1.00 22.55 LIG 0.18  C 
BRANCH 35 36
ATOM     36  CB  TRP T   2      68.219  51.312   4.294  1.00 18.37 LIG 0.07  C 
BRANCH 36 37
ATOM     37  CG  TRP T   2      68.701  52.151   3.138  1.00 15.70 LIG-0.03  A 
ATOM     38  CD2 TRP T   2      67.920  52.593   2.025  1.00  9.74 LIG-0.00  A 
ATOM     39  CE2 TRP T   2      68.765  53.352   1.195  1.00 12.08 LIG 0.04  A 
ATOM     40  CE3 TRP T   2      66.595  52.410   1.641  1.00  8.42 LIG 0.01  A 
ATOM     41  CZ2 TRP T   2      68.316  53.927   0.010  1.00 12.57 LIG 0.03  A 
ATOM     42  NE1 TRP T   2      70.008  53.378   1.779  1.00 15.46 LIG-0.36  N 
ATOM     43  CH2 TRP T   2      67.013  53.721  -0.325  1.00  9.29 LIG 0.00  A 
ATOM     44  CZ3 TRP T   2      66.161  52.972   0.486  1.00  5.55 LIG 0.00  A 
ATOM     45 HE1  TRP T   2      70.700  53.779   1.463  1.00 15.46 LIG 0.17  HD
ATOM     46  CD1 TRP T   2      69.964  52.660   2.948  1.00 15.83 LIG 0.10  A 
ENDBRANCH 36 37
ENDBRANCH 35 36
BRANCH 35 47
ATOM     47  N   TRP T   2      66.583  49.523   4.232  1.00 22.15 LIG-0.35  N 
ATOM     48  C   ASN T   1      65.622  49.377   3.333  1.00 24.32 LIG 0.24  C 
ATOM     49 O    ASN T   1      65.796  49.572   2.125  1.00 24.18 LIG-0.27  OA
ATOM     50 H    TRP T   2      66.453  49.430   5.077  1.00 22.15 LIG 0.16  HD
BRANCH 48 51
ATOM     51  CA  ASN T   1      64.228  49.128   3.896  1.00 25.81 LIG 0.18  C 
BRANCH 51 52
ATOM     52  N   ASN T   1      64.076  49.130   5.329  1.00 28.18 LIG-0.35  N 
ATOM     53  C   ACE T   0      63.813  47.996   5.969  1.00 27.70 LIG 0.21  C 
ATOM     54 O    ACE T   0      62.934  47.901   6.794  1.00 31.05 LIG-0.27  OA
ATOM     55  CH3 ACE T   0      64.607  46.769   5.586  1.00 28.48 LIG 0.12  C 
ATOM     56 H    ASN T   1      64.167  49.897   5.706  1.00 28.18 LIG 0.16  HD
ENDBRANCH 51 52
BRANCH 51 57
ATOM     57  CB  ASN T   1      63.104  49.923   3.178  1.00 27.81 LIG 0.14  C 
BRANCH 57 58
ATOM     58  CG  ASN T   1      63.182  51.443   3.381  1.00 34.08 LIG 0.22  C 
ATOM     59 OD1  ASN T   1      64.262  52.031   3.443  1.00 41.34 LIG-0.27  OA
ATOM     60  ND2 ASN T   1      62.026  52.091   3.400  1.00 39.83 LIG-0.37  N 
ATOM     61 22HD ASN T   1      61.286  51.654   3.356  1.00 39.83 LIG 0.16  HD
ATOM     62 21HD ASN T   1      62.016  52.950   3.457  1.00 39.83 LIG 0.16  HD
ENDBRANCH 57 58
ENDBRANCH 51 57
ENDBRANCH 48 51
ENDBRANCH 35 47
ENDBRANCH 1 35
TORSDOF 21
ENDMDL
MODEL 24
USER: ADFR SOLUTION from run 33
USER: SCORE 18.152014 LL:  -3.992 LR: -15.473 RR:   0.000 FEB:  -9.209
USER: RMSD 2.235176
USER: SEED 32
USER: STATUS no improvement in best 3 clusters for 5 generations
USER: GENES 23
USER: genes 0 Translation |==|  0.54212 0.50876 0.51219
USER: genes 1 Rotation |==|  0.49618 0.34542 0.57909 0.96887
USER: genes 2 Torsion [C]-N--CA-[CB] |==|  0.46803
USER: genes 3 Torsion [N]-CA--CB-[CG] |==|  0.77499
USER: genes 4 Torsion [CA]-CB--CG-[CD] |==|  0.39883
USER: genes 5 Torsion [CB]-CG--CD-[OE2] |==|  0.17154
USER: genes 6 Torsion [N]-CA--C-[N] |==|  0.42909
USER: genes 7 Torsion [C]-N--CA-[C] |==|  0.84276
USER: genes 8 Torsion [N]-CA--C-[N] |==|  0.87874
USER: genes 9 Torsion [C]-N--CA-[C] |==|  0.82240
USER: genes 10 Torsion [N]-CA--C-[O] |==|  0.41008
USER: genes 11 Torsion [N]-CA--CB-[CG] |==|  0.45342
USER: genes 12 Torsion [CA]-CB--CG-[CD1] |==|  0.20343
USER: genes 13 Torsion [N]-CA--CB-[CG2] |==|  0.65686
USER: genes 14 Torsion [CA]-CB--OG1-[HG1] |==|  0.13056
USER: genes 15 Torsion [N]-C--CA-[N] |==|  0.30713
USER: genes 16 Torsion [C]-CA--CB-[CG] |==|  0.44613
USER: genes 17 Torsion [CA]-CB--CG-[CD2] |==|  0.71663
USER: genes 18 Torsion [C]-CA--N-[C] |==|  0.63053
USER: genes 19 Torsion [N]-C--CA-[N] |==|  0.05172
USER: genes 20 Torsion [C]-CA--N-[C] |==|  0.71211
USER: genes 21 Torsion [C]-CA--CB-[CG] |==|  0.88241
USER: genes 22 Torsion [CA]-CB--CG-[OD1] |==|  0.75313
ROOT
ATOM      1  C   TRP T   2      71.873  44.993   5.266  1.00 22.72 LIG 0.24  C 
ATOM      2 O    TRP T   2      72.645  45.651   5.981  1.00 25.73 LIG-0.27  OA
ATOM      3  N   GLU T   3      71.093  45.550   4.350  1.00 22.46 LIG-0.35  N 
ATOM      4 H    GLU T   3      70.520  45.131   3.865  1.00 22.46 LIG 0.16  HD
ENDROOT
BRANCH 3 5
ATOM      5  CA  GLU T   3      71.184  46.973   4.117  1.00 22.12 LIG 0.18  C 
BRANCH 5 6
ATOM      6  CB  GLU T   3      70.423  47.353   2.850  1.00 23.21 LIG 0.04  C 
BRANCH 6 7
ATOM      7  CG  GLU T   3      71.226  47.091   1.600  1.00 26.62 LIG 0.12  C 
BRANCH 7 8
ATOM      8  CD  GLU T   3      70.385  46.612   0.463  1.00 29.06 LIG 0.17  C 
ATOM      9 OE2  GLU T   3      69.486  47.369   0.030  1.00 35.17 LIG-0.65  OA
ATOM     10 OE1  GLU T   3      70.617  45.480  -0.002  1.00 32.66 LIG-0.65  OA
ENDBRANCH 7 8
ENDBRANCH 6 7
ENDBRANCH 5 6
BRANCH 5 11
ATOM     11  C   GLU T   3      70.661  47.773   5.280  1.00 21.48 LIG 0.24  C 
ATOM     12  N   THR T   4      71.175  48.984   5.378  1.00 23.46 LIG-0.34  N 
ATOM     13 H    THR T   4      71.754  49.283   4.815  1.00 23.46 LIG 0.16  HD
ATOM     14 O    GLU T   3      69.860  47.307   6.064  1.00 21.28 LIG-0.27  OA
BRANCH 12 15
ATOM     15  CA  THR T   4      70.848  49.943   6.406  1.00 25.11 LIG 0.20  C 
BRANCH 15 16
ATOM     16  C   THR T   4      69.341  50.191   6.405  1.00 26.24 LIG 0.24  C 
ATOM     17 O    THR T   4      68.736  50.367   7.457  1.00 26.41 LIG-0.27  OA
ATOM     18  N   PHE T   5      68.779  50.342   5.213  1.00 29.12 LIG-0.34  N 
ATOM     19 H    PHE T   5      69.224  50.342   4.477  1.00 29.12 LIG 0.16  HD
BRANCH 18 20
ATOM     20  CA  PHE T   5      67.348  50.520   5.037  1.00 29.36 LIG 0.19  C 
BRANCH 20 21
ATOM     21  C   PHE T   5      66.605  49.246   5.518  1.00 32.56 LIG 0.20  C 
ATOM     22 O    PHE T   5      65.467  49.396   6.022  1.00 36.67 LIG-0.65  OA
ATOM     23 OXT  PHE T   5      67.129  48.105   5.380  1.00 34.39 LIG-0.65  OA
ENDBRANCH 20 21
BRANCH 20 24
ATOM     24  CB  PHE T   5      67.014  50.738   3.567  1.00 26.24 LIG 0.07  C 
BRANCH 24 25
ATOM     25  CG  PHE T   5      65.576  50.541   3.222  1.00 22.58 LIG-0.06  A 
ATOM     26  CD1 PHE T   5      64.634  51.480   3.600  1.00 21.65 LIG 0.01  A 
ATOM     27  CE1 PHE T   5      63.297  51.251   3.400  1.00 20.51 LIG 0.00  A 
ATOM     28  CZ  PHE T   5      62.888  50.080   2.814  1.00 20.87 LIG 0.00  A 
ATOM     29  CE2 PHE T   5      63.828  49.139   2.423  1.00 20.50 LIG 0.00  A 
ATOM     30  CD2 PHE T   5      65.150  49.372   2.624  1.00 18.29 LIG 0.01  A 
ENDBRANCH 24 25
ENDBRANCH 20 24
ENDBRANCH 18 20
ENDBRANCH 15 16
BRANCH 15 31
ATOM     31  CB  THR T   4      71.668  51.245   6.102  1.00 25.29 LIG 0.15  C 
ATOM     32  CG2 THR T   4      72.548  51.684   7.247  1.00 28.15 LIG 0.04  C 
BRANCH 31 33
ATOM     33 OG1  THR T   4      72.435  51.071   4.899  1.00 26.44 LIG-0.39  OA
ATOM     34 HG1  THR T   4      71.946  50.742   4.300  1.00 26.44 LIG 0.21  HD
ENDBRANCH 31 33
ENDBRANCH 15 31
ENDBRANCH 12 15
ENDBRANCH 5 11
ENDBRANCH 3 5
BRANCH 1 35
ATOM     35  CA  TRP T   2      71.736  43.487   5.441  1.00 22.55 LIG 0.18  C 
BRANCH 35 36
ATOM     36  CB  TRP T   2      71.514  43.161   6.924  1.00 18.37 LIG 0.07  C 
BRANCH 36 37
ATOM     37  CG  TRP T   2      70.914  41.792   7.124  1.00 15.70 LIG-0.03  A 
ATOM     38  CD2 TRP T   2      69.547  41.498   7.417  1.00  9.74 LIG-0.00  A 
ATOM     39  CE2 TRP T   2      69.430  40.100   7.513  1.00 12.08 LIG 0.04  A 
ATOM     40  CE3 TRP T   2      68.413  42.279   7.621  1.00  8.42 LIG 0.01  A 
ATOM     41  CZ2 TRP T   2      68.219  39.477   7.800  1.00 12.57 LIG 0.03  A 
ATOM     42  NE1 TRP T   2      70.673  39.561   7.283  1.00 15.46 LIG-0.36  N 
ATOM     43  CH2 TRP T   2      67.138  40.281   7.992  1.00  9.29 LIG 0.00  A 
ATOM     44  CZ3 TRP T   2      67.235  41.668   7.900  1.00  5.55 LIG 0.00  A 
ATOM     45 HE1  TRP T   2      70.863  38.722   7.288  1.00 15.46 LIG 0.17  HD
ATOM     46  CD1 TRP T   2      71.561  40.581   7.045  1.00 15.83 LIG 0.10  A 
ENDBRANCH 36 37
ENDBRANCH 35 36
BRANCH 35 47
ATOM     47  N   TRP T   2      72.898  42.740   4.978  1.00 22.15 LIG-0.35  N 
ATOM     48  C   ASN T   1      72.812  41.665   4.209  1.00 24.32 LIG 0.24  C 
ATOM     49 O    ASN T   1      71.735  41.166   3.868  1.00 24.18 LIG-0.27  OA
ATOM     50 H    TRP T   2      73.646  43.063   5.251  1.00 22.15 LIG 0.16  HD
BRANCH 48 51
ATOM     51  CA  ASN T   1      74.133  40.964   3.912  1.00 25.81 LIG 0.18  C 
BRANCH 51 52
ATOM     52  N   ASN T   1      75.249  41.246   4.778  1.00 28.18 LIG-0.35  N 
ATOM     53  C   ACE T   0      76.219  42.055   4.368  1.00 27.70 LIG 0.21  C 
ATOM     54 O    ACE T   0      77.391  41.772   4.469  1.00 31.05 LIG-0.27  OA
ATOM     55  CH3 ACE T   0      75.822  43.342   3.684  1.00 28.48 LIG 0.12  C 
ATOM     56 H    ASN T   1      75.224  40.858   5.545  1.00 28.18 LIG 0.16  HD
ENDBRANCH 51 52
BRANCH 51 57
ATOM     57  CB  ASN T   1      73.989  39.448   3.601  1.00 27.81 LIG 0.14  C 
BRANCH 57 58
ATOM     58  CG  ASN T   1      73.006  38.710   4.522  1.00 34.08 LIG 0.22  C 
ATOM     59 OD1  ASN T   1      73.372  38.207   5.584  1.00 41.34 LIG-0.27  OA
ATOM     60  ND2 ASN T   1      71.734  38.722   4.150  1.00 39.83 LIG-0.37  N 
ATOM     61 22HD ASN T   1      71.508  39.081   3.402  1.00 39.83 LIG 0.16  HD
ATOM     62 21HD ASN T   1      71.135  38.370   4.657  1.00 39.83 LIG 0.16  HD
ENDBRANCH 57 58
ENDBRANCH 51 57
ENDBRANCH 48 51
ENDBRANCH 35 47
ENDBRANCH 1 35
TORSDOF 21
ENDMDL
MODEL 25
USER: ADFR SOLUTION from run 99
USER: SCORE 17.766271 LL:  -3.085 LR: -15.451 RR:   0.000 FEB:  -9.187
USER: RMSD 10.764873
USER: SEED 98
USER: STATUS no improvement in best 20 clusters for 5 generations
USER: GENES 23
USER: genes 0 Translation |==|  0.52239 0.51244 0.52214
USER: genes 1 Rotation |==|  0.35547 0.41053 0.03261 0.55153
USER: genes 2 Torsion [C]-N--CA-[CB] |==|  0.57273
USER: genes 3 Torsion [N]-CA--CB-[CG] |==|  0.65019
USER: genes 4 Torsion [CA]-CB--CG-[CD] |==|  0.82930
USER: genes 5 Torsion [CB]-CG--CD-[OE2] |==|  0.29289
USER: genes 6 Torsion [N]-CA--C-[N] |==|  0.31232
USER: genes 7 Torsion [C]-N--CA-[C] |==|  0.72573
USER: genes 8 Torsion [N]-CA--C-[N] |==|  0.44844
USER: genes 9 Torsion [C]-N--CA-[C] |==|  0.19042
USER: genes 10 Torsion [N]-CA--C-[O] |==|  0.21125
USER: genes 11 Torsion [N]-CA--CB-[CG] |==|  0.58575
USER: genes 12 Torsion [CA]-CB--CG-[CD1] |==|  0.86849
USER: genes 13 Torsion [N]-CA--CB-[CG2] |==|  0.33392
USER: genes 14 Torsion [CA]-CB--OG1-[HG1] |==|  0.52536
USER: genes 15 Torsion [N]-C--CA-[N] |==|  0.47159
USER: genes 16 Torsion [C]-CA--CB-[CG] |==|  0.17392
USER: genes 17 Torsion [CA]-CB--CG-[CD2] |==|  0.71623
USER: genes 18 Torsion [C]-CA--N-[C] |==|  0.66625
USER: genes 19 Torsion [N]-C--CA-[N] |==|  0.11239
USER: genes 20 Torsion [C]-CA--N-[C] |==|  0.14021
USER: genes 21 Torsion [C]-CA--CB-[CG] |==|  0.43139
USER: genes 22 Torsion [CA]-CB--CG-[OD1] |==|  0.57760
ROOT
ATOM      1  C   TRP T   2      71.282  45.103   5.564  1.00 22.72 LIG 0.24  C 
ATOM      2 O    TRP T   2      70.442  44.733   6.400  1.00 25.73 LIG-0.27  OA
ATOM      3  N   GLU T   3      72.142  44.270   4.994  1.00 22.46 LIG-0.35  N 
ATOM      4 H    GLU T   3      72.761  44.497   4.443  1.00 22.46 LIG 0.16  HD
ENDROOT
BRANCH 3 5
ATOM      5  CA  GLU T   3      72.066  42.860   5.299  1.00 22.12 LIG 0.18  C 
BRANCH 5 6
ATOM      6  CB  GLU T   3      73.430  42.202   5.110  1.00 23.21 LIG 0.04  C 
BRANCH 6 7
ATOM      7  CG  GLU T   3      73.368  41.015   4.182  1.00 26.62 LIG 0.12  C 
BRANCH 7 8
ATOM      8  CD  GLU T   3      72.479  39.929   4.692  1.00 29.06 LIG 0.17  C 
ATOM      9 OE2  GLU T   3      71.360  39.774   4.150  1.00 35.17 LIG-0.65  OA
ATOM     10 OE1  GLU T   3      72.892  39.227   5.635  1.00 32.66 LIG-0.65  OA
ENDBRANCH 7 8
ENDBRANCH 6 7
ENDBRANCH 5 6
BRANCH 5 11
ATOM     11  C   GLU T   3      71.573  42.608   6.699  1.00 21.48 LIG 0.24  C 
ATOM     12  N   THR T   4      70.383  42.041   6.759  1.00 23.46 LIG-0.34  N 
ATOM     13 H    THR T   4      69.939  41.832   6.052  1.00 23.46 LIG 0.16  HD
ATOM     14 O    GLU T   3      72.221  42.939   7.671  1.00 21.28 LIG-0.27  OA
BRANCH 12 15
ATOM     15  CA  THR T   4      69.686  41.705   7.978  1.00 25.11 LIG 0.20  C 
BRANCH 15 16
ATOM     16  C   THR T   4      69.887  40.222   8.283  1.00 26.24 LIG 0.24  C 
ATOM     17 O    THR T   4      70.369  39.471   7.442  1.00 26.41 LIG-0.27  OA
ATOM     18  N   PHE T   5      69.644  39.849   9.532  1.00 29.12 LIG-0.34  N 
ATOM     19 H    PHE T   5      69.424  40.399  10.156  1.00 29.12 LIG 0.16  HD
BRANCH 18 20
ATOM     20  CA  PHE T   5      69.725  38.465   9.968  1.00 29.36 LIG 0.19  C 
BRANCH 20 21
ATOM     21  C   PHE T   5      71.205  38.000   9.936  1.00 32.56 LIG 0.20  C 
ATOM     22 O    PHE T   5      71.956  38.399  10.857  1.00 36.67 LIG-0.65  OA
ATOM     23 OXT  PHE T   5      71.618  37.230   9.025  1.00 34.39 LIG-0.65  OA
ENDBRANCH 20 21
BRANCH 20 24
ATOM     24  CB  PHE T   5      68.923  37.565   9.038  1.00 26.24 LIG 0.07  C 
BRANCH 24 25
ATOM     25  CG  PHE T   5      68.331  36.363   9.697  1.00 22.58 LIG-0.06  A 
ATOM     26  CD1 PHE T   5      69.104  35.573  10.528  1.00 21.65 LIG 0.01  A 
ATOM     27  CE1 PHE T   5      68.609  34.401  11.038  1.00 20.51 LIG 0.00  A 
ATOM     28  CZ  PHE T   5      67.332  34.009  10.725  1.00 20.87 LIG 0.00  A 
ATOM     29  CE2 PHE T   5      66.549  34.802   9.902  1.00 20.50 LIG 0.00  A 
ATOM     30  CD2 PHE T   5      67.045  35.962   9.400  1.00 18.29 LIG 0.01  A 
ENDBRANCH 24 25
ENDBRANCH 20 24
ENDBRANCH 18 20
ENDBRANCH 15 16
BRANCH 15 31
ATOM     31  CB  THR T   4      68.175  42.070   7.762  1.00 25.29 LIG 0.15  C 
ATOM     32  CG2 THR T   4      67.245  40.890   7.902  1.00 28.15 LIG 0.04  C 
BRANCH 31 33
ATOM     33 OG1  THR T   4      67.797  43.135   8.650  1.00 26.44 LIG-0.39  OA
ATOM     34 HG1  THR T   4      66.965  43.242   8.621  1.00 26.44 LIG 0.21  HD
ENDBRANCH 31 33
ENDBRANCH 15 31
ENDBRANCH 12 15
ENDBRANCH 5 11
ENDBRANCH 3 5
BRANCH 1 35
ATOM     35  CA  TRP T   2      71.410  46.571   5.180  1.00 22.55 LIG 0.18  C 
BRANCH 35 36
ATOM     36  CB  TRP T   2      72.711  47.141   5.761  1.00 18.37 LIG 0.07  C 
BRANCH 36 37
ATOM     37  CG  TRP T   2      73.933  46.459   5.202  1.00 15.70 LIG-0.03  A 
ATOM     38  CD2 TRP T   2      74.723  45.462   5.854  1.00  9.74 LIG-0.00  A 
ATOM     39  CE2 TRP T   2      75.755  45.100   4.971  1.00 12.08 LIG 0.04  A 
ATOM     40  CE3 TRP T   2      74.668  44.851   7.103  1.00  8.42 LIG 0.01  A 
ATOM     41  CZ2 TRP T   2      76.715  44.149   5.304  1.00 12.57 LIG 0.03  A 
ATOM     42  NE1 TRP T   2      75.600  45.840   3.824  1.00 15.46 LIG-0.36  N 
ATOM     43  CH2 TRP T   2      76.621  43.579   6.537  1.00  9.29 LIG 0.00  A 
ATOM     44  CZ3 TRP T   2      75.605  43.925   7.425  1.00  5.55 LIG 0.00  A 
ATOM     45 HE1  TRP T   2      76.108  45.800   3.131  1.00 15.46 LIG 0.17  HD
ATOM     46  CD1 TRP T   2      74.501  46.651   3.965  1.00 15.83 LIG 0.10  A 
ENDBRANCH 36 37
ENDBRANCH 35 36
BRANCH 35 47
ATOM     47  N   TRP T   2      70.301  47.393   5.648  1.00 22.15 LIG-0.35  N 
ATOM     48  C   ASN T   1      69.512  48.079   4.836  1.00 24.32 LIG 0.24  C 
ATOM     49 O    ASN T   1      69.685  48.131   3.614  1.00 24.18 LIG-0.27  OA
ATOM     50 H    TRP T   2      70.208  47.390   6.502  1.00 22.15 LIG 0.16  HD
BRANCH 48 51
ATOM     51  CA  ASN T   1      68.471  48.957   5.521  1.00 25.81 LIG 0.18  C 
BRANCH 51 52
ATOM     52  N   ASN T   1      68.877  49.681   6.698  1.00 28.18 LIG-0.35  N 
ATOM     53  C   ACE T   0      69.983  50.418   6.675  1.00 27.70 LIG 0.21  C 
ATOM     54 O    ACE T   0      70.827  50.355   7.539  1.00 31.05 LIG-0.27  OA
ATOM     55  CH3 ACE T   0      70.212  51.308   5.476  1.00 28.48 LIG 0.12  C 
ATOM     56 H    ASN T   1      68.360  49.593   7.379  1.00 28.18 LIG 0.16  HD
ENDBRANCH 51 52
BRANCH 51 57
ATOM     57  CB  ASN T   1      67.638  49.831   4.542  1.00 27.81 LIG 0.14  C 
BRANCH 57 58
ATOM     58  CG  ASN T   1      66.259  50.238   5.082  1.00 34.08 LIG 0.22  C 
ATOM     59 OD1  ASN T   1      65.313  50.463   4.327  1.00 41.34 LIG-0.27  OA
ATOM     60  ND2 ASN T   1      66.126  50.247   6.400  1.00 39.83 LIG-0.37  N 
ATOM     61 22HD ASN T   1      66.806  50.086   6.902  1.00 39.83 LIG 0.16  HD
ATOM     62 21HD ASN T   1      65.360  50.415   6.753  1.00 39.83 LIG 0.16  HD
ENDBRANCH 57 58
ENDBRANCH 51 57
ENDBRANCH 48 51
ENDBRANCH 35 47
ENDBRANCH 1 35
TORSDOF 21
ENDMDL
MODEL 26
USER: ADFR SOLUTION from run 97
USER: SCORE 19.219261 LL:  -4.243 LR: -15.404 RR:   0.000 FEB:  -9.140
USER: RMSD 10.612680
USER: SEED 96
USER: STATUS no improvement in best 20 clusters for 5 generations
USER: GENES 23
USER: genes 0 Translation |==|  0.43186 0.63575 0.50316
USER: genes 1 Rotation |==|  0.36039 0.32817 0.15121 0.78165
USER: genes 2 Torsion [C]-N--CA-[CB] |==|  0.84112
USER: genes 3 Torsion [N]-CA--CB-[CG] |==|  0.84832
USER: genes 4 Torsion [CA]-CB--CG-[CD] |==|  0.26875
USER: genes 5 Torsion [CB]-CG--CD-[OE2] |==|  0.60291
USER: genes 6 Torsion [N]-CA--C-[N] |==|  0.34860
USER: genes 7 Torsion [C]-N--CA-[C] |==|  0.79148
USER: genes 8 Torsion [N]-CA--C-[N] |==|  0.37866
USER: genes 9 Torsion [C]-N--CA-[C] |==|  0.57811
USER: genes 10 Torsion [N]-CA--C-[O] |==|  0.47296
USER: genes 11 Torsion [N]-CA--CB-[CG] |==|  0.24521
USER: genes 12 Torsion [CA]-CB--CG-[CD1] |==|  0.73590
USER: genes 13 Torsion [N]-CA--CB-[CG2] |==|  0.06513
USER: genes 14 Torsion [CA]-CB--OG1-[HG1] |==|  0.18733
USER: genes 15 Torsion [N]-C--CA-[N] |==|  0.08839
USER: genes 16 Torsion [C]-CA--CB-[CG] |==|  0.60413
USER: genes 17 Torsion [CA]-CB--CG-[CD2] |==|  0.83196
USER: genes 18 Torsion [C]-CA--N-[C] |==|  0.70556
USER: genes 19 Torsion [N]-C--CA-[N] |==|  0.95046
USER: genes 20 Torsion [C]-CA--N-[C] |==|  0.76381
USER: genes 21 Torsion [C]-CA--CB-[CG] |==|  0.19283
USER: genes 22 Torsion [CA]-CB--CG-[OD1] |==|  0.00939
ROOT
ATOM      1  C   TRP T   2      68.566  48.802   4.995  1.00 22.72 LIG 0.24  C 
ATOM      2 O    TRP T   2      68.628  48.109   6.022  1.00 25.73 LIG-0.27  OA
ATOM      3  N   GLU T   3      69.606  48.993   4.194  1.00 22.46 LIG-0.35  N 
ATOM      4 H    GLU T   3      69.610  49.497   3.498  1.00 22.46 LIG 0.16  HD
ENDROOT
BRANCH 3 5
ATOM      5  CA  GLU T   3      70.850  48.316   4.481  1.00 22.12 LIG 0.18  C 
BRANCH 5 6
ATOM      6  CB  GLU T   3      71.333  48.669   5.885  1.00 23.21 LIG 0.04  C 
BRANCH 6 7
ATOM      7  CG  GLU T   3      71.445  50.158   6.095  1.00 26.62 LIG 0.12  C 
BRANCH 7 8
ATOM      8  CD  GLU T   3      70.244  50.739   6.764  1.00 29.06 LIG 0.17  C 
ATOM      9 OE2  GLU T   3      69.854  51.874   6.403  1.00 35.17 LIG-0.65  OA
ATOM     10 OE1  GLU T   3      69.684  50.068   7.652  1.00 32.66 LIG-0.65  OA
ENDBRANCH 7 8
ENDBRANCH 6 7
ENDBRANCH 5 6
BRANCH 5 11
ATOM     11  C   GLU T   3      70.726  46.822   4.348  1.00 21.48 LIG 0.24  C 
ATOM     12  N   THR T   4      71.607  46.278   3.531  1.00 23.46 LIG-0.34  N 
ATOM     13 H    THR T   4      72.201  46.746   3.119  1.00 23.46 LIG 0.16  HD
ATOM     14 O    GLU T   3      69.860  46.201   4.930  1.00 21.28 LIG-0.27  OA
BRANCH 12 15
ATOM     15  CA  THR T   4      71.694  44.869   3.225  1.00 25.11 LIG 0.20  C 
BRANCH 15 16
ATOM     16  C   THR T   4      72.317  44.132   4.409  1.00 26.24 LIG 0.24  C 
ATOM     17 O    THR T   4      73.215  44.649   5.064  1.00 26.41 LIG-0.27  OA
ATOM     18  N   PHE T   5      71.735  42.990   4.751  1.00 29.12 LIG-0.34  N 
ATOM     19 H    PHE T   5      71.027  42.687   4.369  1.00 29.12 LIG 0.16  HD
BRANCH 18 20
ATOM     20  CA  PHE T   5      72.244  42.138   5.812  1.00 29.36 LIG 0.19  C 
BRANCH 20 21
ATOM     21  C   PHE T   5      71.853  40.665   5.523  1.00 32.56 LIG 0.20  C 
ATOM     22 O    PHE T   5      72.372  39.777   6.240  1.00 36.67 LIG-0.65  OA
ATOM     23 OXT  PHE T   5      71.023  40.386   4.612  1.00 34.39 LIG-0.65  OA
ENDBRANCH 20 21
BRANCH 20 24
ATOM     24  CB  PHE T   5      71.639  42.535   7.152  1.00 26.24 LIG 0.07  C 
BRANCH 24 25
ATOM     25  CG  PHE T   5      70.347  41.860   7.474  1.00 22.58 LIG-0.06  A 
ATOM     26  CD1 PHE T   5      69.146  42.481   7.185  1.00 21.65 LIG 0.01  A 
ATOM     27  CE1 PHE T   5      67.958  41.929   7.588  1.00 20.51 LIG 0.00  A 
ATOM     28  CZ  PHE T   5      67.959  40.744   8.281  1.00 20.87 LIG 0.00  A 
ATOM     29  CE2 PHE T   5      69.159  40.111   8.563  1.00 20.50 LIG 0.00  A 
ATOM     30  CD2 PHE T   5      70.332  40.664   8.161  1.00 18.29 LIG 0.01  A 
ENDBRANCH 24 25
ENDBRANCH 20 24
ENDBRANCH 18 20
ENDBRANCH 15 16
BRANCH 15 31
ATOM     31  CB  THR T   4      72.552  44.732   1.918  1.00 25.29 LIG 0.15  C 
ATOM     32  CG2 THR T   4      73.472  45.904   1.677  1.00 28.15 LIG 0.04  C 
BRANCH 31 33
ATOM     33 OG1  THR T   4      73.284  43.497   1.940  1.00 26.44 LIG-0.39  OA
ATOM     34 HG1  THR T   4      72.748  42.852   1.885  1.00 26.44 LIG 0.21  HD
ENDBRANCH 31 33
ENDBRANCH 15 31
ENDBRANCH 12 15
ENDBRANCH 5 11
ENDBRANCH 3 5
BRANCH 1 35
ATOM     35  CA  TRP T   2      67.284  49.532   4.619  1.00 22.55 LIG 0.18  C 
BRANCH 35 36
ATOM     36  CB  TRP T   2      66.074  48.753   5.152  1.00 18.37 LIG 0.07  C 
BRANCH 36 37
ATOM     37  CG  TRP T   2      64.908  48.787   4.198  1.00 15.70 LIG-0.03  A 
ATOM     38  CD2 TRP T   2      64.214  49.952   3.745  1.00  9.74 LIG-0.00  A 
ATOM     39  CE2 TRP T   2      63.205  49.523   2.864  1.00 12.08 LIG 0.04  A 
ATOM     40  CE3 TRP T   2      64.337  51.313   4.008  1.00  8.42 LIG 0.01  A 
ATOM     41  CZ2 TRP T   2      62.334  50.415   2.246  1.00 12.57 LIG 0.03  A 
ATOM     42  NE1 TRP T   2      63.283  48.154   2.777  1.00 15.46 LIG-0.36  N 
ATOM     43  CH2 TRP T   2      62.492  51.736   2.534  1.00  9.29 LIG 0.00  A 
ATOM     44  CZ3 TRP T   2      63.486  52.179   3.404  1.00  5.55 LIG 0.00  A 
ATOM     45 HE1  TRP T   2      62.771  47.654   2.299  1.00 15.46 LIG 0.17  HD
ATOM     46  CD1 TRP T   2      64.310  47.716   3.576  1.00 15.83 LIG 0.10  A 
ENDBRANCH 36 37
ENDBRANCH 35 36
BRANCH 35 47
ATOM     47  N   TRP T   2      67.117  49.709   3.182  1.00 22.15 LIG-0.35  N 
ATOM     48  C   ASN T   1      67.282  50.871   2.569  1.00 24.32 LIG 0.24  C 
ATOM     49 O    ASN T   1      67.532  51.920   3.171  1.00 24.18 LIG-0.27  OA
ATOM     50 H    TRP T   2      66.900  48.987   2.769  1.00 22.15 LIG 0.16  HD
BRANCH 48 51
ATOM     51  CA  ASN T   1      66.964  50.876   1.077  1.00 25.81 LIG 0.18  C 
BRANCH 51 52
ATOM     52  N   ASN T   1      66.908  49.606   0.402  1.00 28.18 LIG-0.35  N 
ATOM     53  C   ACE T   0      68.023  49.051  -0.062  1.00 27.70 LIG 0.21  C 
ATOM     54 O    ACE T   0      68.113  48.608  -1.184  1.00 31.05 LIG-0.27  OA
ATOM     55  CH3 ACE T   0      69.236  49.047   0.838  1.00 28.48 LIG 0.12  C 
ATOM     56 H    ASN T   1      66.123  49.262   0.333  1.00 28.18 LIG 0.16  HD
ENDBRANCH 51 52
BRANCH 51 57
ATOM     57  CB  ASN T   1      65.788  51.812   0.685  1.00 27.81 LIG 0.14  C 
BRANCH 57 58
ATOM     58  CG  ASN T   1      66.105  53.309   0.822  1.00 34.08 LIG 0.22  C 
ATOM     59 OD1  ASN T   1      67.223  53.704   1.153  1.00 41.34 LIG-0.27  OA
ATOM     60  ND2 ASN T   1      65.135  54.145   0.481  1.00 39.83 LIG-0.37  N 
ATOM     61 22HD ASN T   1      64.363  53.840   0.254  1.00 39.83 LIG 0.16  HD
ATOM     62 21HD ASN T   1      65.278  54.994   0.487  1.00 39.83 LIG 0.16  HD
ENDBRANCH 57 58
ENDBRANCH 51 57
ENDBRANCH 48 51
ENDBRANCH 35 47
ENDBRANCH 1 35
TORSDOF 21
ENDMDL
MODEL 27
USER: ADFR SOLUTION from run 44
USER: SCORE 18.098337 LL:  -4.085 LR: -15.375 RR:   0.000 FEB:  -9.111
USER: RMSD 10.648267
USER: SEED 43
USER: STATUS no improvement in best 9 clusters for 5 generations
USER: GENES 23
USER: genes 0 Translation |==|  0.49613 0.58154 0.50134
USER: genes 1 Rotation |==|  0.29007 0.51975 0.08065 0.67229
USER: genes 2 Torsion [C]-N--CA-[CB] |==|  0.51374
USER: genes 3 Torsion [N]-CA--CB-[CG] |==|  0.88717
USER: genes 4 Torsion [CA]-CB--CG-[CD] |==|  0.82291
USER: genes 5 Torsion [CB]-CG--CD-[OE2] |==|  0.46371
USER: genes 6 Torsion [N]-CA--C-[N] |==|  0.36838
USER: genes 7 Torsion [C]-N--CA-[C] |==|  0.62360
USER: genes 8 Torsion [N]-CA--C-[N] |==|  0.43009
USER: genes 9 Torsion [C]-N--CA-[C] |==|  0.63363
USER: genes 10 Torsion [N]-CA--C-[O] |==|  0.09265
USER: genes 11 Torsion [N]-CA--CB-[CG] |==|  0.71204
USER: genes 12 Torsion [CA]-CB--CG-[CD1] |==|  0.30386
USER: genes 13 Torsion [N]-CA--CB-[CG2] |==|  0.57782
USER: genes 14 Torsion [CA]-CB--OG1-[HG1] |==|  0.08797
USER: genes 15 Torsion [N]-C--CA-[N] |==|  0.83170
USER: genes 16 Torsion [C]-CA--CB-[CG] |==|  0.32516
USER: genes 17 Torsion [CA]-CB--CG-[CD2] |==|  0.61997
USER: genes 18 Torsion [C]-CA--N-[C] |==|  0.60565
USER: genes 19 Torsion [N]-C--CA-[N] |==|  0.96683
USER: genes 20 Torsion [C]-CA--N-[C] |==|  0.75061
USER: genes 21 Torsion [C]-CA--CB-[CG] |==|  0.27828
USER: genes 22 Torsion [CA]-CB--CG-[OD1] |==|  0.65930
ROOT
ATOM      1  C   TRP T   2      70.494  47.176   4.940  1.00 22.72 LIG 0.24  C 
ATOM      2 O    TRP T   2      70.232  46.218   5.684  1.00 25.73 LIG-0.27  OA
ATOM      3  N   GLU T   3      71.109  47.031   3.775  1.00 22.46 LIG-0.35  N 
ATOM      4 H    GLU T   3      71.342  47.674   3.253  1.00 22.46 LIG 0.16  HD
ENDROOT
BRANCH 3 5
ATOM      5  CA  GLU T   3      71.433  45.703   3.309  1.00 22.12 LIG 0.18  C 
BRANCH 5 6
ATOM      6  CB  GLU T   3      72.241  45.776   2.015  1.00 23.21 LIG 0.04  C 
BRANCH 6 7
ATOM      7  CG  GLU T   3      71.729  46.843   1.081  1.00 26.62 LIG 0.12  C 
BRANCH 7 8
ATOM      8  CD  GLU T   3      70.339  46.575   0.604  1.00 29.06 LIG 0.17  C 
ATOM      9 OE2  GLU T   3      69.719  47.501   0.031  1.00 35.17 LIG-0.65  OA
ATOM     10 OE1  GLU T   3      69.860  45.442   0.800  1.00 32.66 LIG-0.65  OA
ENDBRANCH 7 8
ENDBRANCH 6 7
ENDBRANCH 5 6
BRANCH 5 11
ATOM     11  C   GLU T   3      72.196  44.910   4.337  1.00 21.48 LIG 0.24  C 
ATOM     12  N   THR T   4      71.735  43.689   4.528  1.00 23.46 LIG-0.34  N 
ATOM     13 H    THR T   4      71.060  43.380   4.093  1.00 23.46 LIG 0.16  HD
ATOM     14 O    GLU T   3      73.129  45.391   4.946  1.00 21.28 LIG-0.27  OA
BRANCH 12 15
ATOM     15  CA  THR T   4      72.282  42.735   5.463  1.00 25.11 LIG 0.20  C 
BRANCH 15 16
ATOM     16  C   THR T   4      72.384  41.367   4.790  1.00 26.24 LIG 0.24  C 
ATOM     17 O    THR T   4      71.740  41.121   3.776  1.00 26.41 LIG-0.27  OA
ATOM     18  N   PHE T   5      73.299  40.545   5.285  1.00 29.12 LIG-0.34  N 
ATOM     19 H    PHE T   5      73.839  40.763   5.918  1.00 29.12 LIG 0.16  HD
BRANCH 18 20
ATOM     20  CA  PHE T   5      73.478  39.187   4.799  1.00 29.36 LIG 0.19  C 
BRANCH 20 21
ATOM     21  C   PHE T   5      73.547  38.213   6.005  1.00 32.56 LIG 0.20  C 
ATOM     22 O    PHE T   5      72.858  38.494   7.014  1.00 36.67 LIG-0.65  OA
ATOM     23 OXT  PHE T   5      74.254  37.168   5.949  1.00 34.39 LIG-0.65  OA
ENDBRANCH 20 21
BRANCH 20 24
ATOM     24  CB  PHE T   5      74.780  39.068   4.017  1.00 26.24 LIG 0.07  C 
BRANCH 24 25
ATOM     25  CG  PHE T   5      74.610  39.021   2.535  1.00 22.58 LIG-0.06  A 
ATOM     26  CD1 PHE T   5      75.000  40.094   1.755  1.00 21.65 LIG 0.01  A 
ATOM     27  CE1 PHE T   5      74.735  40.116   0.410  1.00 20.51 LIG 0.00  A 
ATOM     28  CZ  PHE T   5      74.080  39.059  -0.171  1.00 20.87 LIG 0.00  A 
ATOM     29  CE2 PHE T   5      73.697  37.975   0.604  1.00 20.50 LIG 0.00  A 
ATOM     30  CD2 PHE T   5      73.962  37.961   1.935  1.00 18.29 LIG 0.01  A 
ENDBRANCH 24 25
ENDBRANCH 20 24
ENDBRANCH 18 20
ENDBRANCH 15 16
BRANCH 15 31
ATOM     31  CB  THR T   4      71.332  42.716   6.712  1.00 25.29 LIG 0.15  C 
ATOM     32  CG2 THR T   4      72.033  42.340   7.995  1.00 28.15 LIG 0.04  C 
BRANCH 31 33
ATOM     33 OG1  THR T   4      70.666  43.982   6.840  1.00 26.44 LIG-0.39  OA
ATOM     34 HG1  THR T   4      70.545  44.314   6.077  1.00 26.44 LIG 0.21  HD
ENDBRANCH 31 33
ENDBRANCH 15 31
ENDBRANCH 12 15
ENDBRANCH 5 11
ENDBRANCH 3 5
BRANCH 1 35
ATOM     35  CA  TRP T   2      70.167  48.604   5.356  1.00 22.55 LIG 0.18  C 
BRANCH 35 36
ATOM     36  CB  TRP T   2      69.235  49.241   4.318  1.00 18.37 LIG 0.07  C 
BRANCH 36 37
ATOM     37  CG  TRP T   2      67.894  49.606   4.902  1.00 15.70 LIG-0.03  A 
ATOM     38  CD2 TRP T   2      66.617  49.392   4.297  1.00  9.74 LIG-0.00  A 
ATOM     39  CE2 TRP T   2      65.644  49.874   5.190  1.00 12.08 LIG 0.04  A 
ATOM     40  CE3 TRP T   2      66.201  48.855   3.083  1.00  8.42 LIG 0.01  A 
ATOM     41  CZ2 TRP T   2      64.284  49.825   4.900  1.00 12.57 LIG 0.03  A 
ATOM     42  NE1 TRP T   2      66.298  50.357   6.298  1.00 15.46 LIG-0.36  N 
ATOM     43  CH2 TRP T   2      63.924  49.291   3.701  1.00  9.29 LIG 0.00  A 
ATOM     44  CZ3 TRP T   2      64.875  48.808   2.803  1.00  5.55 LIG 0.00  A 
ATOM     45 HE1  TRP T   2      65.921  50.706   6.988  1.00 15.46 LIG 0.17  HD
ATOM     46  CD1 TRP T   2      67.649  50.189   6.123  1.00 15.83 LIG 0.10  A 
ENDBRANCH 36 37
ENDBRANCH 35 36
BRANCH 35 47
ATOM     47  N   TRP T   2      71.345  49.451   5.495  1.00 22.15 LIG-0.35  N 
ATOM     48  C   ASN T   1      71.475  50.366   6.444  1.00 24.32 LIG 0.24  C 
ATOM     49 O    ASN T   1      70.581  50.623   7.257  1.00 24.18 LIG-0.27  OA
ATOM     50 H    TRP T   2      71.949  49.302   4.902  1.00 22.15 LIG 0.16  HD
BRANCH 48 51
ATOM     51  CA  ASN T   1      72.735  51.221   6.363  1.00 25.81 LIG 0.18  C 
BRANCH 51 52
ATOM     52  N   ASN T   1      73.771  50.799   5.456  1.00 28.18 LIG-0.35  N 
ATOM     53  C   ACE T   0      74.725  49.975   5.876  1.00 27.70 LIG 0.21  C 
ATOM     54 O    ACE T   0      75.900  50.179   5.674  1.00 31.05 LIG-0.27  OA
ATOM     55  CH3 ACE T   0      74.311  48.779   6.700  1.00 28.48 LIG 0.12  C 
ATOM     56 H    ASN T   1      73.713  51.118   4.660  1.00 28.18 LIG 0.16  HD
ENDBRANCH 51 52
BRANCH 51 57
ATOM     57  CB  ASN T   1      72.459  52.748   6.284  1.00 27.81 LIG 0.14  C 
BRANCH 57 58
ATOM     58  CG  ASN T   1      72.626  53.486   7.619  1.00 34.08 LIG 0.22  C 
ATOM     59 OD1  ASN T   1      71.707  54.140   8.114  1.00 41.34 LIG-0.27  OA
ATOM     60  ND2 ASN T   1      73.780  53.309   8.246  1.00 39.83 LIG-0.37  N 
ATOM     61 22HD ASN T   1      74.405  52.847   7.875  1.00 39.83 LIG 0.16  HD
ATOM     62 21HD ASN T   1      73.905  53.656   9.023  1.00 39.83 LIG 0.16  HD
ENDBRANCH 57 58
ENDBRANCH 51 57
ENDBRANCH 48 51
ENDBRANCH 35 47
ENDBRANCH 1 35
TORSDOF 21
ENDMDL
MODEL 28
USER: ADFR SOLUTION from run 138
USER: SCORE 17.702203 LL:  -3.994 LR: -15.300 RR:   0.000 FEB:  -9.036
USER: RMSD 10.789724
USER: SEED 137
USER: STATUS no improvement in best 5 clusters for 5 generations
USER: GENES 23
USER: genes 0 Translation |==|  0.49722 0.56704 0.50847
USER: genes 1 Rotation |==|  0.90398 0.50788 0.20615 0.51971
USER: genes 2 Torsion [C]-N--CA-[CB] |==|  0.19952
USER: genes 3 Torsion [N]-CA--CB-[CG] |==|  0.55727
USER: genes 4 Torsion [CA]-CB--CG-[CD] |==|  0.11484
USER: genes 5 Torsion [CB]-CG--CD-[OE2] |==|  0.16811
USER: genes 6 Torsion [N]-CA--C-[N] |==|  0.30589
USER: genes 7 Torsion [C]-N--CA-[C] |==|  0.75036
USER: genes 8 Torsion [N]-CA--C-[N] |==|  0.99737
USER: genes 9 Torsion [C]-N--CA-[C] |==|  0.86842
USER: genes 10 Torsion [N]-CA--C-[O] |==|  0.88984
USER: genes 11 Torsion [N]-CA--CB-[CG] |==|  0.69041
USER: genes 12 Torsion [CA]-CB--CG-[CD1] |==|  0.42551
USER: genes 13 Torsion [N]-CA--CB-[CG2] |==|  0.44980
USER: genes 14 Torsion [CA]-CB--OG1-[HG1] |==|  0.31655
USER: genes 15 Torsion [N]-C--CA-[N] |==|  0.28895
USER: genes 16 Torsion [C]-CA--CB-[CG] |==|  0.38038
USER: genes 17 Torsion [CA]-CB--CG-[CD2] |==|  0.57499
USER: genes 18 Torsion [C]-CA--N-[C] |==|  0.61208
USER: genes 19 Torsion [N]-C--CA-[N] |==|  0.91892
USER: genes 20 Torsion [C]-CA--N-[C] |==|  0.76418
USER: genes 21 Torsion [C]-CA--CB-[CG] |==|  0.16612
USER: genes 22 Torsion [CA]-CB--CG-[OD1] |==|  0.26394
ROOT
ATOM      1  C   TRP T   2      70.527  46.741   5.154  1.00 22.72 LIG 0.24  C 
ATOM      2 O    TRP T   2      70.849  46.391   4.008  1.00 25.73 LIG-0.27  OA
ATOM      3  N   GLU T   3      70.610  45.932   6.201  1.00 22.46 LIG-0.35  N 
ATOM      4 H    GLU T   3      70.360  46.126   7.000  1.00 22.46 LIG 0.16  HD
ENDROOT
BRANCH 3 5
ATOM      5  CA  GLU T   3      71.161  44.607   6.026  1.00 22.12 LIG 0.18  C 
BRANCH 5 6
ATOM      6  CB  GLU T   3      72.669  44.686   5.801  1.00 23.21 LIG 0.04  C 
BRANCH 6 7
ATOM      7  CG  GLU T   3      73.213  43.447   5.135  1.00 26.62 LIG 0.12  C 
BRANCH 7 8
ATOM      8  CD  GLU T   3      72.329  42.944   4.041  1.00 29.06 LIG 0.17  C 
ATOM      9 OE2  GLU T   3      72.102  43.698   3.067  1.00 35.17 LIG-0.65  OA
ATOM     10 OE1  GLU T   3      71.857  41.796   4.151  1.00 32.66 LIG-0.65  OA
ENDBRANCH 7 8
ENDBRANCH 6 7
ENDBRANCH 5 6
BRANCH 5 11
ATOM     11  C   GLU T   3      70.871  43.712   7.202  1.00 21.48 LIG 0.24  C 
ATOM     12  N   THR T   4      70.009  42.747   6.946  1.00 23.46 LIG-0.34  N 
ATOM     13 H    THR T   4      69.654  42.643   6.169  1.00 23.46 LIG 0.16  HD
ATOM     14 O    GLU T   3      71.377  43.906   8.288  1.00 21.28 LIG-0.27  OA
BRANCH 12 15
ATOM     15  CA  THR T   4      69.558  41.764   7.902  1.00 25.11 LIG 0.20  C 
BRANCH 15 16
ATOM     16  C   THR T   4      70.487  40.553   7.860  1.00 26.24 LIG 0.24  C 
ATOM     17 O    THR T   4      70.233  39.548   8.514  1.00 26.41 LIG-0.27  OA
ATOM     18  N   PHE T   5      71.478  40.613   6.981  1.00 29.12 LIG-0.34  N 
ATOM     19 H    PHE T   5      71.585  41.266   6.432  1.00 29.12 LIG 0.16  HD
BRANCH 18 20
ATOM     20  CA  PHE T   5      72.485  39.572   6.861  1.00 29.36 LIG 0.19  C 
BRANCH 20 21
ATOM     21  C   PHE T   5      73.016  39.203   8.271  1.00 32.56 LIG 0.20  C 
ATOM     22 O    PHE T   5      73.192  40.139   9.085  1.00 36.67 LIG-0.65  OA
ATOM     23 OXT  PHE T   5      73.234  37.998   8.581  1.00 34.39 LIG-0.65  OA
ENDBRANCH 20 21
BRANCH 20 24
ATOM     24  CB  PHE T   5      73.660  40.061   6.023  1.00 26.24 LIG 0.07  C 
BRANCH 24 25
ATOM     25  CG  PHE T   5      73.795  39.393   4.696  1.00 22.58 LIG-0.06  A 
ATOM     26  CD1 PHE T   5      74.403  40.051   3.643  1.00 21.65 LIG 0.01  A 
ATOM     27  CE1 PHE T   5      74.422  39.499   2.389  1.00 20.51 LIG 0.00  A 
ATOM     28  CZ  PHE T   5      73.836  38.277   2.175  1.00 20.87 LIG 0.00  A 
ATOM     29  CE2 PHE T   5      73.235  37.606   3.229  1.00 20.50 LIG 0.00  A 
ATOM     30  CD2 PHE T   5      73.220  38.159   4.468  1.00 18.29 LIG 0.01  A 
ENDBRANCH 24 25
ENDBRANCH 20 24
ENDBRANCH 18 20
ENDBRANCH 15 16
BRANCH 15 31
ATOM     31  CB  THR T   4      68.080  41.397   7.525  1.00 25.29 LIG 0.15  C 
ATOM     32  CG2 THR T   4      67.608  40.099   8.135  1.00 28.15 LIG 0.04  C 
BRANCH 31 33
ATOM     33 OG1  THR T   4      67.202  42.480   7.872  1.00 26.44 LIG-0.39  OA
ATOM     34 HG1  THR T   4      66.876  42.812   7.173  1.00 26.44 LIG 0.21  HD
ENDBRANCH 31 33
ENDBRANCH 15 31
ENDBRANCH 12 15
ENDBRANCH 5 11
ENDBRANCH 3 5
BRANCH 1 35
ATOM     35  CA  TRP T   2      69.954  48.127   5.418  1.00 22.55 LIG 0.18  C 
BRANCH 35 36
ATOM     36  CB  TRP T   2      68.936  48.479   4.326  1.00 18.37 LIG 0.07  C 
BRANCH 36 37
ATOM     37  CG  TRP T   2      67.695  49.124   4.889  1.00 15.70 LIG-0.03  A 
ATOM     38  CD2 TRP T   2      66.387  49.092   4.316  1.00  9.74 LIG-0.00  A 
ATOM     39  CE2 TRP T   2      65.535  49.813   5.173  1.00 12.08 LIG 0.04  A 
ATOM     40  CE3 TRP T   2      65.853  48.538   3.156  1.00  8.42 LIG 0.01  A 
ATOM     41  CZ2 TRP T   2      64.182  49.983   4.900  1.00 12.57 LIG 0.03  A 
ATOM     42  NE1 TRP T   2      66.291  50.261   6.229  1.00 15.46 LIG-0.36  N 
ATOM     43  CH2 TRP T   2      63.705  49.424   3.754  1.00  9.29 LIG 0.00  A 
ATOM     44  CZ3 TRP T   2      64.533  48.706   2.894  1.00  5.55 LIG 0.00  A 
ATOM     45 HE1  TRP T   2      65.999  50.729   6.890  1.00 15.46 LIG 0.17  HD
ATOM     46  CD1 TRP T   2      67.587  49.841   6.057  1.00 15.83 LIG 0.10  A 
ENDBRANCH 36 37
ENDBRANCH 35 36
BRANCH 35 47
ATOM     47  N   TRP T   2      70.966  49.175   5.456  1.00 22.15 LIG-0.35  N 
ATOM     48  C   ASN T   1      70.950  50.170   6.329  1.00 24.32 LIG 0.24  C 
ATOM     49 O    ASN T   1      70.041  50.330   7.150  1.00 24.18 LIG-0.27  OA
ATOM     50 H    TRP T   2      71.575  49.087   4.856  1.00 22.15 LIG 0.16  HD
BRANCH 48 51
ATOM     51  CA  ASN T   1      72.038  51.223   6.144  1.00 25.81 LIG 0.18  C 
BRANCH 51 52
ATOM     52  N   ASN T   1      73.284  50.800   5.560  1.00 28.18 LIG-0.35  N 
ATOM     53  C   ACE T   0      74.231  50.271   6.328  1.00 27.70 LIG 0.21  C 
ATOM     54 O    ACE T   0      75.386  50.630   6.281  1.00 31.05 LIG-0.27  OA
ATOM     55  CH3 ACE T   0      73.817  49.234   7.345  1.00 28.48 LIG 0.12  C 
ATOM     56 H    ASN T   1      73.350  50.919   4.711  1.00 28.18 LIG 0.16  HD
ENDBRANCH 51 52
BRANCH 51 57
ATOM     57  CB  ASN T   1      71.526  52.563   5.549  1.00 27.81 LIG 0.14  C 
BRANCH 57 58
ATOM     58  CG  ASN T   1      70.453  53.258   6.400  1.00 34.08 LIG 0.22  C 
ATOM     59 OD1  ASN T   1      70.744  54.134   7.215  1.00 41.34 LIG-0.27  OA
ATOM     60  ND2 ASN T   1      69.196  52.924   6.145  1.00 39.83 LIG-0.37  N 
ATOM     61 22HD ASN T   1      69.023  52.308   5.570  1.00 39.83 LIG 0.16  HD
ATOM     62 21HD ASN T   1      68.554  53.324   6.555  1.00 39.83 LIG 0.16  HD
ENDBRANCH 57 58
ENDBRANCH 51 57
ENDBRANCH 48 51
ENDBRANCH 35 47
ENDBRANCH 1 35
TORSDOF 21
ENDMDL
MODEL 29
USER: ADFR SOLUTION from run 154
USER: SCORE 18.898443 LL:  -4.413 LR: -15.294 RR:   0.000 FEB:  -9.030
USER: RMSD 9.867368
USER: SEED 153
USER: STATUS no improvement in best 7 clusters for 5 generations
USER: GENES 23
USER: genes 0 Translation |==|  0.54925 0.50184 0.53678
USER: genes 1 Rotation |==|  0.07147 0.47628 0.24353 0.50523
USER: genes 2 Torsion [C]-N--CA-[CB] |==|  0.84639
USER: genes 3 Torsion [N]-CA--CB-[CG] |==|  0.59307
USER: genes 4 Torsion [CA]-CB--CG-[CD] |==|  0.04441
USER: genes 5 Torsion [CB]-CG--CD-[OE2] |==|  0.21888
USER: genes 6 Torsion [N]-CA--C-[N] |==|  0.34603
USER: genes 7 Torsion [C]-N--CA-[C] |==|  0.75781
USER: genes 8 Torsion [N]-CA--C-[N] |==|  0.97575
USER: genes 9 Torsion [C]-N--CA-[C] |==|  0.61165
USER: genes 10 Torsion [N]-CA--C-[O] |==|  0.16053
USER: genes 11 Torsion [N]-CA--CB-[CG] |==|  0.78929
USER: genes 12 Torsion [CA]-CB--CG-[CD1] |==|  0.67407
USER: genes 13 Torsion [N]-CA--CB-[CG2] |==|  0.43992
USER: genes 14 Torsion [CA]-CB--OG1-[HG1] |==|  0.46779
USER: genes 15 Torsion [N]-C--CA-[N] |==|  0.83952
USER: genes 16 Torsion [C]-CA--CB-[CG] |==|  0.39549
USER: genes 17 Torsion [CA]-CB--CG-[CD2] |==|  0.49760
USER: genes 18 Torsion [C]-CA--N-[C] |==|  0.20418
USER: genes 19 Torsion [N]-C--CA-[N] |==|  0.35005
USER: genes 20 Torsion [C]-CA--N-[C] |==|  0.77334
USER: genes 21 Torsion [C]-CA--CB-[CG] |==|  0.91764
USER: genes 22 Torsion [CA]-CB--CG-[OD1] |==|  0.76257
ROOT
ATOM      1  C   TRP T   2      72.088  44.785   6.003  1.00 22.72 LIG 0.24  C 
ATOM      2 O    TRP T   2      72.744  44.556   7.032  1.00 25.73 LIG-0.27  OA
ATOM      3  N   GLU T   3      71.427  43.840   5.349  1.00 22.46 LIG-0.35  N 
ATOM      4 H    GLU T   3      70.996  43.954   4.614  1.00 22.46 LIG 0.16  HD
ENDROOT
BRANCH 3 5
ATOM      5  CA  GLU T   3      71.406  42.497   5.881  1.00 22.12 LIG 0.18  C 
BRANCH 5 6
ATOM      6  CB  GLU T   3      72.830  41.989   6.095  1.00 23.21 LIG 0.04  C 
BRANCH 6 7
ATOM      7  CG  GLU T   3      72.950  40.505   5.856  1.00 26.62 LIG 0.12  C 
BRANCH 7 8
ATOM      8  CD  GLU T   3      71.783  39.943   5.113  1.00 29.06 LIG 0.17  C 
ATOM      9 OE2  GLU T   3      71.735  40.107   3.872  1.00 35.17 LIG-0.65  OA
ATOM     10 OE1  GLU T   3      70.909  39.339   5.763  1.00 32.66 LIG-0.65  OA
ENDBRANCH 7 8
ENDBRANCH 6 7
ENDBRANCH 5 6
BRANCH 5 11
ATOM     11  C   GLU T   3      70.639  42.411   7.174  1.00 21.48 LIG 0.24  C 
ATOM     12  N   THR T   4      69.663  41.523   7.164  1.00 23.46 LIG-0.34  N 
ATOM     13 H    THR T   4      69.493  41.036   6.475  1.00 23.46 LIG 0.16  HD
ATOM     14 O    GLU T   3      70.897  43.132   8.116  1.00 21.28 LIG-0.27  OA
BRANCH 12 15
ATOM     15  CA  THR T   4      68.777  41.255   8.272  1.00 25.11 LIG 0.20  C 
BRANCH 15 16
ATOM     16  C   THR T   4      69.409  40.205   9.184  1.00 26.24 LIG 0.24  C 
ATOM     17 O    THR T   4      68.844  39.849  10.212  1.00 26.41 LIG-0.27  OA
ATOM     18  N   PHE T   5      70.508  39.623   8.723  1.00 29.12 LIG-0.34  N 
ATOM     19 H    PHE T   5      70.837  39.783   7.945  1.00 29.12 LIG 0.16  HD
BRANCH 18 20
ATOM     20  CA  PHE T   5      71.265  38.652   9.495  1.00 29.36 LIG 0.19  C 
BRANCH 20 21
ATOM     21  C   PHE T   5      72.782  38.900   9.291  1.00 32.56 LIG 0.20  C 
ATOM     22 O    PHE T   5      73.227  40.034   9.589  1.00 36.67 LIG-0.65  OA
ATOM     23 OXT  PHE T   5      73.533  37.980   8.864  1.00 34.39 LIG-0.65  OA
ENDBRANCH 20 21
BRANCH 20 24
ATOM     24  CB  PHE T   5      70.948  37.237   9.029  1.00 26.24 LIG 0.07  C 
BRANCH 24 25
ATOM     25  CG  PHE T   5      69.628  36.714   9.490  1.00 22.58 LIG-0.06  A 
ATOM     26  CD1 PHE T   5      69.566  35.608  10.316  1.00 21.65 LIG 0.01  A 
ATOM     27  CE1 PHE T   5      68.360  35.044  10.643  1.00 20.51 LIG 0.00  A 
ATOM     28  CZ  PHE T   5      67.200  35.586  10.150  1.00 20.87 LIG 0.00  A 
ATOM     29  CE2 PHE T   5      67.255  36.702   9.330  1.00 20.50 LIG 0.00  A 
ATOM     30  CD2 PHE T   5      68.452  37.255   9.010  1.00 18.29 LIG 0.01  A 
ENDBRANCH 24 25
ENDBRANCH 20 24
ENDBRANCH 18 20
ENDBRANCH 15 16
BRANCH 15 31
ATOM     31  CB  THR T   4      67.412  40.774   7.665  1.00 25.29 LIG 0.15  C 
ATOM     32  CG2 THR T   4      66.570  39.978   8.633  1.00 28.15 LIG 0.04  C 
BRANCH 31 33
ATOM     33 OG1  THR T   4      66.682  41.899   7.150  1.00 26.44 LIG-0.39  OA
ATOM     34 HG1  THR T   4      66.034  41.626   6.689  1.00 26.44 LIG 0.21  HD
ENDBRANCH 31 33
ENDBRANCH 15 31
ENDBRANCH 12 15
ENDBRANCH 5 11
ENDBRANCH 3 5
BRANCH 1 35
ATOM     35  CA  TRP T   2      72.049  46.179   5.393  1.00 22.55 LIG 0.18  C 
BRANCH 35 36
ATOM     36  CB  TRP T   2      70.605  46.697   5.386  1.00 18.37 LIG 0.07  C 
BRANCH 36 37
ATOM     37  CG  TRP T   2      70.525  48.172   5.686  1.00 15.70 LIG-0.03  A 
ATOM     38  CD2 TRP T   2      69.338  48.966   5.739  1.00  9.74 LIG-0.00  A 
ATOM     39  CE2 TRP T   2      69.725  50.279   6.059  1.00 12.08 LIG 0.04  A 
ATOM     40  CE3 TRP T   2      67.988  48.699   5.534  1.00  8.42 LIG 0.01  A 
ATOM     41  CZ2 TRP T   2      68.803  51.314   6.181  1.00 12.57 LIG 0.03  A 
ATOM     42  NE1 TRP T   2      71.092  50.288   6.202  1.00 15.46 LIG-0.36  N 
ATOM     43  CH2 TRP T   2      67.493  51.005   5.971  1.00  9.29 LIG 0.00  A 
ATOM     44  CZ3 TRP T   2      67.092  49.709   5.654  1.00  5.55 LIG 0.00  A 
ATOM     45 HE1  TRP T   2      71.570  50.975   6.397  1.00 15.46 LIG 0.17  HD
ATOM     46  CD1 TRP T   2      71.568  49.019   5.982  1.00 15.83 LIG 0.10  A 
ENDBRANCH 36 37
ENDBRANCH 35 36
BRANCH 35 47
ATOM     47  N   TRP T   2      72.560  46.230   4.029  1.00 22.15 LIG-0.35  N 
ATOM     48  C   ASN T   1      71.896  45.757   2.986  1.00 24.32 LIG 0.24  C 
ATOM     49 O    ASN T   1      70.811  45.174   3.087  1.00 24.18 LIG-0.27  OA
ATOM     50 H    TRP T   2      73.334  46.597   3.965  1.00 22.15 LIG 0.16  HD
BRANCH 48 51
ATOM     51  CA  ASN T   1      72.639  45.811   1.656  1.00 25.81 LIG 0.18  C 
BRANCH 51 52
ATOM     52  N   ASN T   1      72.762  44.586   0.909  1.00 28.18 LIG-0.35  N 
ATOM     53  C   ACE T   0      73.712  43.711   1.221  1.00 27.70 LIG 0.21  C 
ATOM     54 O    ACE T   0      74.442  43.217   0.393  1.00 31.05 LIG-0.27  OA
ATOM     55  CH3 ACE T   0      73.922  43.390   2.682  1.00 28.48 LIG 0.12  C 
ATOM     56 H    ASN T   1      72.190  44.484   0.275  1.00 28.18 LIG 0.16  HD
ENDBRANCH 51 52
BRANCH 51 57
ATOM     57  CB  ASN T   1      72.243  47.017   0.760  1.00 27.81 LIG 0.14  C 
BRANCH 57 58
ATOM     58  CG  ASN T   1      70.798  47.497   0.955  1.00 34.08 LIG 0.22  C 
ATOM     59 OD1  ASN T   1      69.860  46.980   0.347  1.00 41.34 LIG-0.27  OA
ATOM     60  ND2 ASN T   1      70.610  48.433   1.873  1.00 39.83 LIG-0.37  N 
ATOM     61 22HD ASN T   1      71.285  48.777   2.281  1.00 39.83 LIG 0.16  HD
ATOM     62 21HD ASN T   1      69.813  48.698   2.060  1.00 39.83 LIG 0.16  HD
ENDBRANCH 57 58
ENDBRANCH 51 57
ENDBRANCH 48 51
ENDBRANCH 35 47
ENDBRANCH 1 35
TORSDOF 21
ENDMDL
MODEL 30
USER: ADFR SOLUTION from run 97
USER: SCORE 19.064339 LL:  -4.118 LR: -15.288 RR:   0.000 FEB:  -9.023
USER: RMSD 10.829115
USER: SEED 96
USER: STATUS no improvement in best 20 clusters for 5 generations
USER: GENES 23
USER: genes 0 Translation |==|  0.42909 0.63781 0.48775
USER: genes 1 Rotation |==|  0.39024 0.26910 0.15790 0.76001
USER: genes 2 Torsion [C]-N--CA-[CB] |==|  0.83333
USER: genes 3 Torsion [N]-CA--CB-[CG] |==|  0.83931
USER: genes 4 Torsion [CA]-CB--CG-[CD] |==|  0.28506
USER: genes 5 Torsion [CB]-CG--CD-[OE2] |==|  0.58309
USER: genes 6 Torsion [N]-CA--C-[N] |==|  0.34003
USER: genes 7 Torsion [C]-N--CA-[C] |==|  0.82963
USER: genes 8 Torsion [N]-CA--C-[N] |==|  0.38685
USER: genes 9 Torsion [C]-N--CA-[C] |==|  0.86529
USER: genes 10 Torsion [N]-CA--C-[O] |==|  0.37089
USER: genes 11 Torsion [N]-CA--CB-[CG] |==|  0.72543
USER: genes 12 Torsion [CA]-CB--CG-[CD1] |==|  0.52345
USER: genes 13 Torsion [N]-CA--CB-[CG2] |==|  0.52123
USER: genes 14 Torsion [CA]-CB--OG1-[HG1] |==|  0.01561
USER: genes 15 Torsion [N]-C--CA-[N] |==|  0.43370
USER: genes 16 Torsion [C]-CA--CB-[CG] |==|  0.44067
USER: genes 17 Torsion [CA]-CB--CG-[CD2] |==|  0.23942
USER: genes 18 Torsion [C]-CA--N-[C] |==|  0.63070
USER: genes 19 Torsion [N]-C--CA-[N] |==|  0.07770
USER: genes 20 Torsion [C]-CA--N-[C] |==|  0.69134
USER: genes 21 Torsion [C]-CA--CB-[CG] |==|  0.19483
USER: genes 22 Torsion [CA]-CB--CG-[OD1] |==|  0.03643
ROOT
ATOM      1  C   TRP T   2      68.483  48.864   4.533  1.00 22.72 LIG 0.24  C 
ATOM      2 O    TRP T   2      68.328  48.308   5.632  1.00 25.73 LIG-0.27  OA
ATOM      3  N   GLU T   3      69.675  49.035   3.977  1.00 22.46 LIG-0.35  N 
ATOM      4 H    GLU T   3      69.823  49.449   3.238  1.00 22.46 LIG 0.16  HD
ENDROOT
BRANCH 3 5
ATOM      5  CA  GLU T   3      70.843  48.496   4.634  1.00 22.12 LIG 0.18  C 
BRANCH 5 6
ATOM      6  CB  GLU T   3      70.997  49.106   6.026  1.00 23.21 LIG 0.04  C 
BRANCH 6 7
ATOM      7  CG  GLU T   3      71.099  50.610   5.982  1.00 26.62 LIG 0.12  C 
BRANCH 7 8
ATOM      8  CD  GLU T   3      69.827  51.287   6.372  1.00 29.06 LIG 0.17  C 
ATOM      9 OE2  GLU T   3      69.570  52.405   5.867  1.00 35.17 LIG-0.65  OA
ATOM     10 OE1  GLU T   3      69.080  50.709   7.184  1.00 32.66 LIG-0.65  OA
ENDBRANCH 7 8
ENDBRANCH 6 7
ENDBRANCH 5 6
BRANCH 5 11
ATOM     11  C   GLU T   3      70.791  46.995   4.744  1.00 21.48 LIG 0.24  C 
ATOM     12  N   THR T   4      71.813  46.377   4.182  1.00 23.46 LIG-0.34  N 
ATOM     13 H    THR T   4      72.451  46.806   3.796  1.00 23.46 LIG 0.16  HD
ATOM     14 O    GLU T   3      69.860  46.428   5.278  1.00 21.28 LIG-0.27  OA
BRANCH 12 15
ATOM     15  CA  THR T   4      71.994  44.946   4.141  1.00 25.11 LIG 0.20  C 
BRANCH 15 16
ATOM     16  C   THR T   4      72.095  44.407   5.567  1.00 26.24 LIG 0.24  C 
ATOM     17 O    THR T   4      72.625  45.073   6.450  1.00 26.41 LIG-0.27  OA
ATOM     18  N   PHE T   5      71.461  43.266   5.802  1.00 29.12 LIG-0.34  N 
ATOM     19 H    PHE T   5      70.984  42.860   5.213  1.00 29.12 LIG 0.16  HD
BRANCH 18 20
ATOM     20  CA  PHE T   5      71.513  42.590   7.087  1.00 29.36 LIG 0.19  C 
BRANCH 20 21
ATOM     21  C   PHE T   5      72.987  42.492   7.559  1.00 32.56 LIG 0.20  C 
ATOM     22 O    PHE T   5      73.235  42.804   8.748  1.00 36.67 LIG-0.65  OA
ATOM     23 OXT  PHE T   5      73.890  42.088   6.773  1.00 34.39 LIG-0.65  OA
ENDBRANCH 20 21
BRANCH 20 24
ATOM     24  CB  PHE T   5      70.957  41.177   6.968  1.00 26.24 LIG 0.07  C 
BRANCH 24 25
ATOM     25  CG  PHE T   5      69.540  41.029   7.414  1.00 22.58 LIG-0.06  A 
ATOM     26  CD1 PHE T   5      68.971  39.774   7.523  1.00 21.65 LIG 0.01  A 
ATOM     27  CE1 PHE T   5      67.638  39.631   7.809  1.00 20.51 LIG 0.00  A 
ATOM     28  CZ  PHE T   5      66.860  40.746   7.996  1.00 20.87 LIG 0.00  A 
ATOM     29  CE2 PHE T   5      67.427  42.007   7.900  1.00 20.50 LIG 0.00  A 
ATOM     30  CD2 PHE T   5      68.748  42.141   7.615  1.00 18.29 LIG 0.01  A 
ENDBRANCH 24 25
ENDBRANCH 20 24
ENDBRANCH 18 20
ENDBRANCH 15 16
BRANCH 15 31
ATOM     31  CB  THR T   4      73.292  44.668   3.305  1.00 25.29 LIG 0.15  C 
ATOM     32  CG2 THR T   4      73.520  43.205   3.015  1.00 28.15 LIG 0.04  C 
BRANCH 31 33
ATOM     33 OG1  THR T   4      73.266  45.437   2.091  1.00 26.44 LIG-0.39  OA
ATOM     34 HG1  THR T   4      72.598  45.947   2.097  1.00 26.44 LIG 0.21  HD
ENDBRANCH 31 33
ENDBRANCH 15 31
ENDBRANCH 12 15
ENDBRANCH 5 11
ENDBRANCH 3 5
BRANCH 1 35
ATOM     35  CA  TRP T   2      67.297  49.442   3.773  1.00 22.55 LIG 0.18  C 
BRANCH 35 36
ATOM     36  CB  TRP T   2      67.162  50.937   4.091  1.00 18.37 LIG 0.07  C 
BRANCH 36 37
ATOM     37  CG  TRP T   2      66.383  51.678   3.035  1.00 15.70 LIG-0.03  A 
ATOM     38  CD2 TRP T   2      64.962  51.821   2.970  1.00  9.74 LIG-0.00  A 
ATOM     39  CE2 TRP T   2      64.669  52.591   1.830  1.00 12.08 LIG 0.04  A 
ATOM     40  CE3 TRP T   2      63.909  51.363   3.755  1.00  8.42 LIG 0.01  A 
ATOM     41  CZ2 TRP T   2      63.364  52.912   1.469  1.00 12.57 LIG 0.03  A 
ATOM     42  NE1 TRP T   2      65.861  52.911   1.226  1.00 15.46 LIG-0.36  N 
ATOM     43  CH2 TRP T   2      62.367  52.441   2.267  1.00  9.29 LIG 0.00  A 
ATOM     44  CZ3 TRP T   2      62.638  51.677   3.400  1.00  5.55 LIG 0.00  A 
ATOM     45 HE1  TRP T   2      65.949  53.377   0.509  1.00 15.46 LIG 0.17  HD
ATOM     46  CD1 TRP T   2      66.888  52.364   1.956  1.00 15.83 LIG 0.10  A 
ENDBRANCH 36 37
ENDBRANCH 35 36
BRANCH 35 47
ATOM     47  N   TRP T   2      66.032  48.791   4.089  1.00 22.15 LIG-0.35  N 
ATOM     48  C   ASN T   1      65.169  48.393   3.167  1.00 24.32 LIG 0.24  C 
ATOM     49 O    ASN T   1      65.333  48.594   1.960  1.00 24.18 LIG-0.27  OA
ATOM     50 H    TRP T   2      65.898  48.690   4.932  1.00 22.15 LIG 0.16  HD
BRANCH 48 51
ATOM     51  CA  ASN T   1      63.858  47.824   3.698  1.00 25.81 LIG 0.18  C 
BRANCH 51 52
ATOM     52  N   ASN T   1      63.393  48.296   4.977  1.00 28.18 LIG-0.35  N 
ATOM     53  C   ACE T   0      63.387  47.479   6.024  1.00 27.70 LIG 0.21  C 
ATOM     54 O    ACE T   0      62.427  47.355   6.750  1.00 31.05 LIG-0.27  OA
ATOM     55  CH3 ACE T   0      64.610  46.624   6.259  1.00 28.48 LIG 0.12  C 
ATOM     56 H    ASN T   1      63.134  49.116   4.992  1.00 28.18 LIG 0.16  HD
ENDBRANCH 51 52
BRANCH 51 57
ATOM     57  CB  ASN T   1      62.722  47.757   2.640  1.00 27.81 LIG 0.14  C 
BRANCH 57 58
ATOM     58  CG  ASN T   1      62.945  46.703   1.546  1.00 34.08 LIG 0.22  C 
ATOM     59 OD1  ASN T   1      63.810  45.833   1.655  1.00 41.34 LIG-0.27  OA
ATOM     60  ND2 ASN T   1      62.102  46.733   0.524  1.00 39.83 LIG-0.37  N 
ATOM     61 22HD ASN T   1      61.509  47.354   0.474  1.00 39.83 LIG 0.16  HD
ATOM     62 21HD ASN T   1      62.149  46.131  -0.089  1.00 39.83 LIG 0.16  HD
ENDBRANCH 57 58
ENDBRANCH 51 57
ENDBRANCH 48 51
ENDBRANCH 35 47
ENDBRANCH 1 35
TORSDOF 21
ENDMDL
MODEL 31
USER: ADFR SOLUTION from run 23
USER: SCORE 17.389740 LL:  -4.820 LR: -15.243 RR:   0.000 FEB:  -8.978
USER: RMSD 9.879019
USER: SEED 22
USER: STATUS no improvement in best 7 clusters for 5 generations
USER: GENES 23
USER: genes 0 Translation |==|  0.62301 0.31367 0.35979
USER: genes 1 Rotation |==|  0.84852 0.22393 0.27322 0.52986
USER: genes 2 Torsion [C]-N--CA-[CB] |==|  0.21034
USER: genes 3 Torsion [N]-CA--CB-[CG] |==|  0.23790
USER: genes 4 Torsion [CA]-CB--CG-[CD] |==|  0.35684
USER: genes 5 Torsion [CB]-CG--CD-[OE2] |==|  0.01552
USER: genes 6 Torsion [N]-CA--C-[N] |==|  0.88667
USER: genes 7 Torsion [C]-N--CA-[C] |==|  0.16498
USER: genes 8 Torsion [N]-CA--C-[N] |==|  0.52304
USER: genes 9 Torsion [C]-N--CA-[C] |==|  0.16182
USER: genes 10 Torsion [N]-CA--C-[O] |==|  0.69822
USER: genes 11 Torsion [N]-CA--CB-[CG] |==|  0.78392
USER: genes 12 Torsion [CA]-CB--CG-[CD1] |==|  0.08976
USER: genes 13 Torsion [N]-CA--CB-[CG2] |==|  0.58753
USER: genes 14 Torsion [CA]-CB--OG1-[HG1] |==|  0.54687
USER: genes 15 Torsion [N]-C--CA-[N] |==|  0.75593
USER: genes 16 Torsion [C]-CA--CB-[CG] |==|  0.63700
USER: genes 17 Torsion [CA]-CB--CG-[CD2] |==|  0.24175
USER: genes 18 Torsion [C]-CA--N-[C] |==|  0.63730
USER: genes 19 Torsion [N]-C--CA-[N] |==|  0.97839
USER: genes 20 Torsion [C]-CA--N-[C] |==|  0.64495
USER: genes 21 Torsion [C]-CA--CB-[CG] |==|  0.72908
USER: genes 22 Torsion [CA]-CB--CG-[OD1] |==|  0.33923
ROOT
ATOM      1  C   TRP T   2      74.300  39.140   0.694  1.00 22.72 LIG 0.24  C 
ATOM      2 O    TRP T   2      73.994  38.062   0.160  1.00 25.73 LIG-0.27  OA
ATOM      3  N   GLU T   3      73.938  39.457   1.929  1.00 22.46 LIG-0.35  N 
ATOM      4 H    GLU T   3      74.097  40.208   2.316  1.00 22.46 LIG 0.16  HD
ENDROOT
BRANCH 3 5
ATOM      5  CA  GLU T   3      73.215  38.489   2.722  1.00 22.12 LIG 0.18  C 
BRANCH 5 6
ATOM      6  CB  GLU T   3      74.162  37.402   3.225  1.00 23.21 LIG 0.04  C 
BRANCH 6 7
ATOM      7  CG  GLU T   3      74.849  37.792   4.509  1.00 26.62 LIG 0.12  C 
BRANCH 7 8
ATOM      8  CD  GLU T   3      74.721  36.752   5.573  1.00 29.06 LIG 0.17  C 
ATOM      9 OE2  GLU T   3      74.178  35.662   5.275  1.00 35.17 LIG-0.65  OA
ATOM     10 OE1  GLU T   3      75.158  37.017   6.708  1.00 32.66 LIG-0.65  OA
ENDBRANCH 7 8
ENDBRANCH 6 7
ENDBRANCH 5 6
BRANCH 5 11
ATOM     11  C   GLU T   3      72.509  39.125   3.890  1.00 21.48 LIG 0.24  C 
ATOM     12  N   THR T   4      73.213  40.058   4.503  1.00 23.46 LIG-0.34  N 
ATOM     13 H    THR T   4      74.003  40.280   4.245  1.00 23.46 LIG 0.16  HD
ATOM     14 O    GLU T   3      71.401  38.767   4.235  1.00 21.28 LIG-0.27  OA
BRANCH 12 15
ATOM     15  CA  THR T   4      72.768  40.809   5.652  1.00 25.11 LIG 0.20  C 
BRANCH 15 16
ATOM     16  C   THR T   4      72.461  39.847   6.799  1.00 26.24 LIG 0.24  C 
ATOM     17 O    THR T   4      72.857  38.687   6.763  1.00 26.41 LIG-0.27  OA
ATOM     18  N   PHE T   5      71.880  40.382   7.864  1.00 29.12 LIG-0.34  N 
ATOM     19 H    PHE T   5      71.714  41.222   7.941  1.00 29.12 LIG 0.16  HD
BRANCH 18 20
ATOM     20  CA  PHE T   5      71.465  39.591   9.011  1.00 29.36 LIG 0.19  C 
BRANCH 20 21
ATOM     21  C   PHE T   5      72.694  38.846   9.596  1.00 32.56 LIG 0.20  C 
ATOM     22 O    PHE T   5      72.750  37.605   9.429  1.00 36.67 LIG-0.65  OA
ATOM     23 OXT  PHE T   5      73.607  39.481  10.193  1.00 34.39 LIG-0.65  OA
ENDBRANCH 20 21
BRANCH 20 24
ATOM     24  CB  PHE T   5      70.432  38.552   8.597  1.00 26.24 LIG 0.07  C 
BRANCH 24 25
ATOM     25  CG  PHE T   5      69.053  39.092   8.404  1.00 22.58 LIG-0.06  A 
ATOM     26  CD1 PHE T   5      68.868  40.381   7.942  1.00 21.65 LIG 0.01  A 
ATOM     27  CE1 PHE T   5      67.614  40.930   7.880  1.00 20.51 LIG 0.00  A 
ATOM     28  CZ  PHE T   5      66.528  40.190   8.275  1.00 20.87 LIG 0.00  A 
ATOM     29  CE2 PHE T   5      66.706  38.892   8.729  1.00 20.50 LIG 0.00  A 
ATOM     30  CD2 PHE T   5      67.951  38.356   8.788  1.00 18.29 LIG 0.01  A 
ENDBRANCH 24 25
ENDBRANCH 20 24
ENDBRANCH 18 20
ENDBRANCH 15 16
BRANCH 15 31
ATOM     31  CB  THR T   4      71.506  41.629   5.208  1.00 25.29 LIG 0.15  C 
ATOM     32  CG2 THR T   4      71.360  42.947   5.929  1.00 28.15 LIG 0.04  C 
BRANCH 31 33
ATOM     33 OG1  THR T   4      71.521  41.818   3.784  1.00 26.44 LIG-0.39  OA
ATOM     34 HG1  THR T   4      70.991  42.436   3.577  1.00 26.44 LIG 0.21  HD
ENDBRANCH 31 33
ENDBRANCH 15 31
ENDBRANCH 12 15
ENDBRANCH 5 11
ENDBRANCH 3 5
BRANCH 1 35
ATOM     35  CA  TRP T   2      75.076  40.202  -0.073  1.00 22.55 LIG 0.18  C 
BRANCH 35 36
ATOM     36  CB  TRP T   2      75.954  41.000   0.900  1.00 18.37 LIG 0.07  C 
BRANCH 36 37
ATOM     37  CG  TRP T   2      75.797  42.489   0.722  1.00 15.70 LIG-0.03  A 
ATOM     38  CD2 TRP T   2      74.816  43.320   1.345  1.00  9.74 LIG-0.00  A 
ATOM     39  CE2 TRP T   2      75.040  44.636   0.904  1.00 12.08 LIG 0.04  A 
ATOM     40  CE3 TRP T   2      73.762  43.079   2.222  1.00  8.42 LIG 0.01  A 
ATOM     41  CZ2 TRP T   2      74.247  45.701   1.321  1.00 12.57 LIG 0.03  A 
ATOM     42  NE1 TRP T   2      76.117  44.612   0.052  1.00 15.46 LIG-0.36  N 
ATOM     43  CH2 TRP T   2      73.228  45.418   2.178  1.00  9.29 LIG 0.00  A 
ATOM     44  CZ3 TRP T   2      72.991  44.120   2.625  1.00  5.55 LIG 0.00  A 
ATOM     45 HE1  TRP T   2      76.451  45.295  -0.351  1.00 15.46 LIG 0.17  HD
ATOM     46  CD1 TRP T   2      76.571  43.321  -0.052  1.00 15.83 LIG 0.10  A 
ENDBRANCH 36 37
ENDBRANCH 35 36
BRANCH 35 47
ATOM     47  N   TRP T   2      74.222  41.139  -0.792  1.00 22.15 LIG-0.35  N 
ATOM     48  C   ASN T   1      74.396  41.452  -2.066  1.00 24.32 LIG 0.24  C 
ATOM     49 O    ASN T   1      75.338  41.023  -2.741  1.00 24.18 LIG-0.27  OA
ATOM     50 H    TRP T   2      73.592  41.470  -0.309  1.00 22.15 LIG 0.16  HD
BRANCH 48 51
ATOM     51  CA  ASN T   1      73.462  42.527  -2.612  1.00 25.81 LIG 0.18  C 
BRANCH 51 52
ATOM     52  N   ASN T   1      72.385  42.969  -1.765  1.00 28.18 LIG-0.35  N 
ATOM     53  C   ACE T   0      71.139  42.976  -2.225  1.00 27.70 LIG 0.21  C 
ATOM     54 O    ACE T   0      70.404  43.929  -2.105  1.00 31.05 LIG-0.27  OA
ATOM     55  CH3 ACE T   0      70.663  41.763  -2.990  1.00 28.48 LIG 0.12  C 
ATOM     56 H    ASN T   1      72.618  43.215  -0.975  1.00 28.18 LIG 0.16  HD
ENDBRANCH 51 52
BRANCH 51 57
ATOM     57  CB  ASN T   1      74.195  43.706  -3.309  1.00 27.81 LIG 0.14  C 
BRANCH 57 58
ATOM     58  CG  ASN T   1      74.396  44.937  -2.414  1.00 34.08 LIG 0.22  C 
ATOM     59 OD1  ASN T   1      75.517  45.393  -2.187  1.00 41.34 LIG-0.27  OA
ATOM     60  ND2 ASN T   1      73.294  45.527  -1.973  1.00 39.83 LIG-0.37  N 
ATOM     61 22HD ASN T   1      72.524  45.185  -2.147  1.00 39.83 LIG 0.16  HD
ATOM     62 21HD ASN T   1      73.349  46.252  -1.513  1.00 39.83 LIG 0.16  HD
ENDBRANCH 57 58
ENDBRANCH 51 57
ENDBRANCH 48 51
ENDBRANCH 35 47
ENDBRANCH 1 35
TORSDOF 21
ENDMDL
MODEL 32
USER: ADFR SOLUTION from run 159
USER: SCORE 16.799289 LL:  -3.283 LR: -15.233 RR:   0.000 FEB:  -8.968
USER: RMSD 10.447157
USER: SEED 158
USER: STATUS no improvement in best 27 clusters for 5 generations
USER: GENES 23
USER: genes 0 Translation |==|  0.55156 0.39346 0.48767
USER: genes 1 Rotation |==|  0.85732 0.26339 0.24245 0.50163
USER: genes 2 Torsion [C]-N--CA-[CB] |==|  0.22020
USER: genes 3 Torsion [N]-CA--CB-[CG] |==|  0.12877
USER: genes 4 Torsion [CA]-CB--CG-[CD] |==|  0.34685
USER: genes 5 Torsion [CB]-CG--CD-[OE2] |==|  0.17518
USER: genes 6 Torsion [N]-CA--C-[N] |==|  0.48333
USER: genes 7 Torsion [C]-N--CA-[C] |==|  0.63288
USER: genes 8 Torsion [N]-CA--C-[N] |==|  0.82306
USER: genes 9 Torsion [C]-N--CA-[C] |==|  0.77544
USER: genes 10 Torsion [N]-CA--C-[O] |==|  0.98443
USER: genes 11 Torsion [N]-CA--CB-[CG] |==|  0.71541
USER: genes 12 Torsion [CA]-CB--CG-[CD1] |==|  0.81341
USER: genes 13 Torsion [N]-CA--CB-[CG2] |==|  0.82274
USER: genes 14 Torsion [CA]-CB--OG1-[HG1] |==|  0.31623
USER: genes 15 Torsion [N]-C--CA-[N] |==|  0.46419
USER: genes 16 Torsion [C]-CA--CB-[CG] |==|  0.38597
USER: genes 17 Torsion [CA]-CB--CG-[CD2] |==|  0.55688
USER: genes 18 Torsion [C]-CA--N-[C] |==|  0.76476
USER: genes 19 Torsion [N]-C--CA-[N] |==|  0.33397
USER: genes 20 Torsion [C]-CA--N-[C] |==|  0.73451
USER: genes 21 Torsion [C]-CA--CB-[CG] |==|  0.97959
USER: genes 22 Torsion [CA]-CB--CG-[OD1] |==|  0.79704
ROOT
ATOM      1  C   TRP T   2      72.157  41.534   4.530  1.00 22.72 LIG 0.24  C 
ATOM      2 O    TRP T   2      71.913  40.579   3.775  1.00 25.73 LIG-0.27  OA
ATOM      3  N   GLU T   3      71.804  41.546   5.808  1.00 22.46 LIG-0.35  N 
ATOM      4 H    GLU T   3      71.921  42.204   6.349  1.00 22.46 LIG 0.16  HD
ENDROOT
BRANCH 3 5
ATOM      5  CA  GLU T   3      71.169  40.379   6.375  1.00 22.12 LIG 0.18  C 
BRANCH 5 6
ATOM      6  CB  GLU T   3      72.212  39.313   6.701  1.00 23.21 LIG 0.04  C 
BRANCH 6 7
ATOM      7  CG  GLU T   3      73.408  39.884   7.421  1.00 26.62 LIG 0.12  C 
BRANCH 7 8
ATOM      8  CD  GLU T   3      73.686  39.195   8.716  1.00 29.06 LIG 0.17  C 
ATOM      9 OE2  GLU T   3      73.991  37.980   8.688  1.00 35.17 LIG-0.65  OA
ATOM     10 OE1  GLU T   3      73.600  39.861   9.765  1.00 32.66 LIG-0.65  OA
ENDBRANCH 7 8
ENDBRANCH 6 7
ENDBRANCH 5 6
BRANCH 5 11
ATOM     11  C   GLU T   3      70.379  40.708   7.614  1.00 21.48 LIG 0.24  C 
ATOM     12  N   THR T   4      69.681  39.696   8.094  1.00 23.46 LIG-0.34  N 
ATOM     13 H    THR T   4      69.689  38.918   7.726  1.00 23.46 LIG 0.16  HD
ATOM     14 O    GLU T   3      70.377  41.825   8.089  1.00 21.28 LIG-0.27  OA
BRANCH 12 15
ATOM     15  CA  THR T   4      68.836  39.754   9.263  1.00 25.11 LIG 0.20  C 
BRANCH 15 16
ATOM     16  C   THR T   4      69.140  38.560  10.167  1.00 26.24 LIG 0.24  C 
ATOM     17 O    THR T   4      69.482  38.730  11.332  1.00 26.41 LIG-0.27  OA
ATOM     18  N   PHE T   5      68.877  37.365   9.656  1.00 29.12 LIG-0.34  N 
ATOM     19 H    PHE T   5      68.519  37.249   8.883  1.00 29.12 LIG 0.16  HD
BRANCH 18 20
ATOM     20  CA  PHE T   5      69.169  36.128  10.362  1.00 29.36 LIG 0.19  C 
BRANCH 20 21
ATOM     21  C   PHE T   5      70.671  35.779  10.189  1.00 32.56 LIG 0.20  C 
ATOM     22 O    PHE T   5      71.348  36.503   9.422  1.00 36.67 LIG-0.65  OA
ATOM     23 OXT  PHE T   5      71.184  34.814  10.822  1.00 34.39 LIG-0.65  OA
ENDBRANCH 20 21
BRANCH 20 24
ATOM     24  CB  PHE T   5      68.345  34.981   9.791  1.00 26.24 LIG 0.07  C 
BRANCH 24 25
ATOM     25  CG  PHE T   5      67.164  34.596  10.617  1.00 22.58 LIG-0.06  A 
ATOM     26  CD1 PHE T   5      67.342  34.024  11.863  1.00 21.65 LIG 0.01  A 
ATOM     27  CE1 PHE T   5      66.271  33.552  12.577  1.00 20.51 LIG 0.00  A 
ATOM     28  CZ  PHE T   5      65.007  33.653  12.053  1.00 20.87 LIG 0.00  A 
ATOM     29  CE2 PHE T   5      64.821  34.236  10.809  1.00 20.50 LIG 0.00  A 
ATOM     30  CD2 PHE T   5      65.886  34.701  10.108  1.00 18.29 LIG 0.01  A 
ENDBRANCH 24 25
ENDBRANCH 20 24
ENDBRANCH 18 20
ENDBRANCH 15 16
BRANCH 15 31
ATOM     31  CB  THR T   4      67.350  39.758   8.760  1.00 25.29 LIG 0.15  C 
ATOM     32  CG2 THR T   4      66.995  40.976   7.942  1.00 28.15 LIG 0.04  C 
BRANCH 31 33
ATOM     33 OG1  THR T   4      67.076  38.549   8.032  1.00 26.44 LIG-0.39  OA
ATOM     34 HG1  THR T   4      66.513  38.089   8.454  1.00 26.44 LIG 0.21  HD
ENDBRANCH 31 33
ENDBRANCH 15 31
ENDBRANCH 12 15
ENDBRANCH 5 11
ENDBRANCH 3 5
BRANCH 1 35
ATOM     35  CA  TRP T   2      72.839  42.791   4.008  1.00 22.55 LIG 0.18  C 
BRANCH 35 36
ATOM     36  CB  TRP T   2      71.811  43.925   3.899  1.00 18.37 LIG 0.07  C 
BRANCH 36 37
ATOM     37  CG  TRP T   2      72.369  45.247   4.362  1.00 15.70 LIG-0.03  A 
ATOM     38  CD2 TRP T   2      71.615  46.387   4.779  1.00  9.74 LIG-0.00  A 
ATOM     39  CE2 TRP T   2      72.535  47.391   5.132  1.00 12.08 LIG 0.04  A 
ATOM     40  CE3 TRP T   2      70.255  46.664   4.875  1.00  8.42 LIG 0.01  A 
ATOM     41  CZ2 TRP T   2      72.127  48.645   5.578  1.00 12.57 LIG 0.03  A 
ATOM     42  NE1 TRP T   2      73.798  46.884   4.945  1.00 15.46 LIG-0.36  N 
ATOM     43  CH2 TRP T   2      70.787  48.870   5.656  1.00  9.29 LIG 0.00  A 
ATOM     44  CZ3 TRP T   2      69.861  47.887   5.310  1.00  5.55 LIG 0.00  A 
ATOM     45 HE1  TRP T   2      74.533  47.306   5.091  1.00 15.46 LIG 0.17  HD
ATOM     46  CD1 TRP T   2      73.694  45.594   4.487  1.00 15.83 LIG 0.10  A 
ENDBRANCH 36 37
ENDBRANCH 35 36
BRANCH 35 47
ATOM     47  N   TRP T   2      73.463  42.613   2.703  1.00 22.15 LIG-0.35  N 
ATOM     48  C   ASN T   1      74.682  42.122   2.542  1.00 24.32 LIG 0.24  C 
ATOM     49 O    ASN T   1      75.420  41.828   3.488  1.00 24.18 LIG-0.27  OA
ATOM     50 H    TRP T   2      72.965  42.858   2.047  1.00 22.15 LIG 0.16  HD
BRANCH 48 51
ATOM     51  CA  ASN T   1      75.199  42.106   1.107  1.00 25.81 LIG 0.18  C 
BRANCH 51 52
ATOM     52  N   ASN T   1      76.401  42.846   0.822  1.00 28.18 LIG-0.35  N 
ATOM     53  C   ACE T   0      76.321  44.084   0.347  1.00 27.70 LIG 0.21  C 
ATOM     54 O    ACE T   0      76.958  44.458  -0.611  1.00 31.05 LIG-0.27  OA
ATOM     55  CH3 ACE T   0      75.337  45.027   0.998  1.00 28.48 LIG 0.12  C 
ATOM     56 H    ASN T   1      77.135  42.427   0.981  1.00 28.18 LIG 0.16  HD
ENDBRANCH 51 52
BRANCH 51 57
ATOM     57  CB  ASN T   1      75.195  40.699   0.449  1.00 27.81 LIG 0.14  C 
BRANCH 57 58
ATOM     58  CG  ASN T   1      74.843  39.556   1.413  1.00 34.08 LIG 0.22  C 
ATOM     59 OD1  ASN T   1      75.636  39.170   2.271  1.00 41.34 LIG-0.27  OA
ATOM     60  ND2 ASN T   1      73.612  39.073   1.323  1.00 39.83 LIG-0.37  N 
ATOM     61 22HD ASN T   1      73.080  39.363   0.713  1.00 39.83 LIG 0.16  HD
ATOM     62 21HD ASN T   1      73.346  38.470   1.876  1.00 39.83 LIG 0.16  HD
ENDBRANCH 57 58
ENDBRANCH 51 57
ENDBRANCH 48 51
ENDBRANCH 35 47
ENDBRANCH 1 35
TORSDOF 21
ENDMDL
MODEL 33
USER: ADFR SOLUTION from run 97
USER: SCORE 19.304354 LL:  -4.663 LR: -15.180 RR:   0.000 FEB:  -8.916
USER: RMSD 11.052869
USER: SEED 96
USER: STATUS no improvement in best 20 clusters for 5 generations
USER: GENES 23
USER: genes 0 Translation |==|  0.45018 0.62629 0.47527
USER: genes 1 Rotation |==|  0.38539 0.25648 0.14362 0.72484
USER: genes 2 Torsion [C]-N--CA-[CB] |==|  0.84392
USER: genes 3 Torsion [N]-CA--CB-[CG] |==|  0.83653
USER: genes 4 Torsion [CA]-CB--CG-[CD] |==|  0.42242
USER: genes 5 Torsion [CB]-CG--CD-[OE2] |==|  0.37970
USER: genes 6 Torsion [N]-CA--C-[N] |==|  0.39684
USER: genes 7 Torsion [C]-N--CA-[C] |==|  0.79043
USER: genes 8 Torsion [N]-CA--C-[N] |==|  0.47778
USER: genes 9 Torsion [C]-N--CA-[C] |==|  0.75300
USER: genes 10 Torsion [N]-CA--C-[O] |==|  0.48197
USER: genes 11 Torsion [N]-CA--CB-[CG] |==|  0.73006
USER: genes 12 Torsion [CA]-CB--CG-[CD1] |==|  0.51522
USER: genes 13 Torsion [N]-CA--CB-[CG2] |==|  0.91179
USER: genes 14 Torsion [CA]-CB--OG1-[HG1] |==|  0.14830
USER: genes 15 Torsion [N]-C--CA-[N] |==|  0.50174
USER: genes 16 Torsion [C]-CA--CB-[CG] |==|  0.82747
USER: genes 17 Torsion [CA]-CB--CG-[CD2] |==|  0.41815
USER: genes 18 Torsion [C]-CA--N-[C] |==|  0.58062
USER: genes 19 Torsion [N]-C--CA-[N] |==|  0.00087
USER: genes 20 Torsion [C]-CA--N-[C] |==|  0.68918
USER: genes 21 Torsion [C]-CA--CB-[CG] |==|  0.80946
USER: genes 22 Torsion [CA]-CB--CG-[OD1] |==|  0.13764
ROOT
ATOM      1  C   TRP T   2      69.115  48.519   4.158  1.00 22.72 LIG 0.24  C 
ATOM      2 O    TRP T   2      68.797  48.046   5.261  1.00 25.73 LIG-0.27  OA
ATOM      3  N   GLU T   3      70.363  48.513   3.709  1.00 22.46 LIG-0.35  N 
ATOM      4 H    GLU T   3      70.626  48.865   2.970  1.00 22.46 LIG 0.16  HD
ENDROOT
BRANCH 3 5
ATOM      5  CA  GLU T   3      71.392  47.873   4.495  1.00 22.12 LIG 0.18  C 
BRANCH 5 6
ATOM      6  CB  GLU T   3      71.436  48.472   5.899  1.00 23.21 LIG 0.04  C 
BRANCH 6 7
ATOM      7  CG  GLU T   3      71.702  49.956   5.880  1.00 26.62 LIG 0.12  C 
BRANCH 7 8
ATOM      8  CD  GLU T   3      71.120  50.663   7.059  1.00 29.06 LIG 0.17  C 
ATOM      9 OE2  GLU T   3      71.816  51.531   7.634  1.00 35.17 LIG-0.65  OA
ATOM     10 OE1  GLU T   3      69.967  50.355   7.417  1.00 32.66 LIG-0.65  OA
ENDBRANCH 7 8
ENDBRANCH 6 7
ENDBRANCH 5 6
BRANCH 5 11
ATOM     11  C   GLU T   3      71.193  46.383   4.587  1.00 21.48 LIG 0.24  C 
ATOM     12  N   THR T   4      72.313  45.686   4.561  1.00 23.46 LIG-0.34  N 
ATOM     13 H    THR T   4      73.085  46.061   4.503  1.00 23.46 LIG 0.16  HD
ATOM     14 O    GLU T   3      70.084  45.892   4.646  1.00 21.28 LIG-0.27  OA
BRANCH 12 15
ATOM     15  CA  THR T   4      72.393  44.246   4.625  1.00 25.11 LIG 0.20  C 
BRANCH 15 16
ATOM     16  C   THR T   4      72.134  43.787   6.059  1.00 26.24 LIG 0.24  C 
ATOM     17 O    THR T   4      71.924  44.605   6.948  1.00 26.41 LIG-0.27  OA
ATOM     18  N   PHE T   5      72.013  42.479   6.235  1.00 29.12 LIG-0.34  N 
ATOM     19 H    PHE T   5      72.037  41.910   5.591  1.00 29.12 LIG 0.16  HD
BRANCH 18 20
ATOM     20  CA  PHE T   5      71.829  41.877   7.546  1.00 29.36 LIG 0.19  C 
BRANCH 20 21
ATOM     21  C   PHE T   5      73.215  41.576   8.174  1.00 32.56 LIG 0.20  C 
ATOM     22 O    PHE T   5      73.235  41.168   9.360  1.00 36.67 LIG-0.65  OA
ATOM     23 OXT  PHE T   5      74.273  41.716   7.499  1.00 34.39 LIG-0.65  OA
ENDBRANCH 20 21
BRANCH 20 24
ATOM     24  CB  PHE T   5      71.065  40.565   7.427  1.00 26.24 LIG 0.07  C 
BRANCH 24 25
ATOM     25  CG  PHE T   5      69.600  40.675   7.689  1.00 22.58 LIG-0.06  A 
ATOM     26  CD1 PHE T   5      68.811  39.541   7.725  1.00 21.65 LIG 0.01  A 
ATOM     27  CE1 PHE T   5      67.449  39.638   7.839  1.00 20.51 LIG 0.00  A 
ATOM     28  CZ  PHE T   5      66.860  40.875   7.924  1.00 20.87 LIG 0.00  A 
ATOM     29  CE2 PHE T   5      67.647  42.016   7.900  1.00 20.50 LIG 0.00  A 
ATOM     30  CD2 PHE T   5      68.995  41.912   7.786  1.00 18.29 LIG 0.01  A 
ENDBRANCH 24 25
ENDBRANCH 20 24
ENDBRANCH 18 20
ENDBRANCH 15 16
BRANCH 15 31
ATOM     31  CB  THR T   4      73.822  43.841   4.118  1.00 25.29 LIG 0.15  C 
ATOM     32  CG2 THR T   4      74.377  44.776   3.071  1.00 28.15 LIG 0.04  C 
BRANCH 31 33
ATOM     33 OG1  THR T   4      74.721  43.721   5.232  1.00 26.44 LIG-0.39  OA
ATOM     34 HG1  THR T   4      74.393  43.200   5.803  1.00 26.44 LIG 0.21  HD
ENDBRANCH 31 33
ENDBRANCH 15 31
ENDBRANCH 12 15
ENDBRANCH 5 11
ENDBRANCH 3 5
BRANCH 1 35
ATOM     35  CA  TRP T   2      68.082  49.194   3.267  1.00 22.55 LIG 0.18  C 
BRANCH 35 36
ATOM     36  CB  TRP T   2      68.487  50.654   3.026  1.00 18.37 LIG 0.07  C 
BRANCH 36 37
ATOM     37  CG  TRP T   2      68.531  51.452   4.305  1.00 15.70 LIG-0.03  A 
ATOM     38  CD2 TRP T   2      69.372  52.574   4.577  1.00  9.74 LIG-0.00  A 
ATOM     39  CE2 TRP T   2      69.077  53.013   5.880  1.00 12.08 LIG 0.04  A 
ATOM     40  CE3 TRP T   2      70.355  53.242   3.854  1.00  8.42 LIG 0.01  A 
ATOM     41  CZ2 TRP T   2      69.732  54.094   6.463  1.00 12.57 LIG 0.03  A 
ATOM     42  NE1 TRP T   2      68.092  52.197   6.381  1.00 15.46 LIG-0.36  N 
ATOM     43  CH2 TRP T   2      70.686  54.716   5.718  1.00  9.29 LIG 0.00  A 
ATOM     44  CZ3 TRP T   2      70.992  54.295   4.425  1.00  5.55 LIG 0.00  A 
ATOM     45 HE1  TRP T   2      67.739  52.261   7.163  1.00 15.46 LIG 0.17  HD
ATOM     46  CD1 TRP T   2      67.763  51.264   5.430  1.00 15.83 LIG 0.10  A 
ENDBRANCH 36 37
ENDBRANCH 35 36
BRANCH 35 47
ATOM     47  N   TRP T   2      66.736  49.178   3.824  1.00 22.15 LIG-0.35  N 
ATOM     48  C   ASN T   1      65.641  49.174   3.080  1.00 24.32 LIG 0.24  C 
ATOM     49 O    ASN T   1      65.665  49.245   1.847  1.00 24.18 LIG-0.27  OA
ATOM     50 H    TRP T   2      66.719  49.172   4.683  1.00 22.15 LIG 0.16  HD
BRANCH 48 51
ATOM     51  CA  ASN T   1      64.326  49.259   3.847  1.00 25.81 LIG 0.18  C 
BRANCH 51 52
ATOM     52  N   ASN T   1      64.394  49.341   5.283  1.00 28.18 LIG-0.35  N 
ATOM     53  C   ACE T   0      63.965  48.327   6.027  1.00 27.70 LIG 0.21  C 
ATOM     54 O    ACE T   0      63.221  48.478   6.969  1.00 31.05 LIG-0.27  OA
ATOM     55  CH3 ACE T   0      64.373  46.931   5.620  1.00 28.48 LIG 0.12  C 
ATOM     56 H    ASN T   1      64.723  50.073   5.593  1.00 28.18 LIG 0.16  HD
ENDBRANCH 51 52
BRANCH 51 57
ATOM     57  CB  ASN T   1      63.304  50.260   3.241  1.00 27.81 LIG 0.14  C 
BRANCH 57 58
ATOM     58  CG  ASN T   1      63.718  51.733   3.367  1.00 34.08 LIG 0.22  C 
ATOM     59 OD1  ASN T   1      64.838  52.119   3.032  1.00 41.34 LIG-0.27  OA
ATOM     60  ND2 ASN T   1      62.777  52.573   3.774  1.00 39.83 LIG-0.37  N 
ATOM     61 22HD ASN T   1      62.003  52.274   4.002  1.00 39.83 LIG 0.16  HD
ATOM     62 21HD ASN T   1      62.941  53.417   3.809  1.00 39.83 LIG 0.16  HD
ENDBRANCH 57 58
ENDBRANCH 51 57
ENDBRANCH 48 51
ENDBRANCH 35 47
ENDBRANCH 1 35
TORSDOF 21
ENDMDL
MODEL 34
USER: ADFR SOLUTION from run 69
USER: SCORE 18.094943 LL:  -4.716 LR: -15.182 RR:   0.000 FEB:  -8.918
USER: RMSD 9.210523
USER: SEED 68
USER: STATUS no improvement in best 32 clusters for 5 generations
USER: GENES 23
USER: genes 0 Translation |==|  0.53627 0.55181 0.51445
USER: genes 1 Rotation |==|  0.58352 0.72391 0.93918 0.50270
USER: genes 2 Torsion [C]-N--CA-[CB] |==|  0.20634
USER: genes 3 Torsion [N]-CA--CB-[CG] |==|  0.16116
USER: genes 4 Torsion [CA]-CB--CG-[CD] |==|  0.32885
USER: genes 5 Torsion [CB]-CG--CD-[OE2] |==|  0.40103
USER: genes 6 Torsion [N]-CA--C-[N] |==|  0.47478
USER: genes 7 Torsion [C]-N--CA-[C] |==|  0.56590
USER: genes 8 Torsion [N]-CA--C-[N] |==|  0.08795
USER: genes 9 Torsion [C]-N--CA-[C] |==|  0.85903
USER: genes 10 Torsion [N]-CA--C-[O] |==|  0.92195
USER: genes 11 Torsion [N]-CA--CB-[CG] |==|  0.80741
USER: genes 12 Torsion [CA]-CB--CG-[CD1] |==|  0.15938
USER: genes 13 Torsion [N]-CA--CB-[CG2] |==|  0.74976
USER: genes 14 Torsion [CA]-CB--OG1-[HG1] |==|  0.22909
USER: genes 15 Torsion [N]-C--CA-[N] |==|  0.11802
USER: genes 16 Torsion [C]-CA--CB-[CG] |==|  0.20185
USER: genes 17 Torsion [CA]-CB--CG-[CD2] |==|  0.58730
USER: genes 18 Torsion [C]-CA--N-[C] |==|  0.15054
USER: genes 19 Torsion [N]-C--CA-[N] |==|  0.35249
USER: genes 20 Torsion [C]-CA--N-[C] |==|  0.73625
USER: genes 21 Torsion [C]-CA--CB-[CG] |==|  0.85542
USER: genes 22 Torsion [CA]-CB--CG-[OD1] |==|  0.20477
ROOT
ATOM      1  C   TRP T   2      71.698  46.284   5.334  1.00 22.72 LIG 0.24  C 
ATOM      2 O    TRP T   2      70.635  46.341   5.971  1.00 25.73 LIG-0.27  OA
ATOM      3  N   GLU T   3      72.619  45.356   5.556  1.00 22.46 LIG-0.35  N 
ATOM      4 H    GLU T   3      73.382  45.310   5.162  1.00 22.46 LIG 0.16  HD
ENDROOT
BRANCH 3 5
ATOM      5  CA  GLU T   3      72.357  44.323   6.531  1.00 22.12 LIG 0.18  C 
BRANCH 5 6
ATOM      6  CB  GLU T   3      71.357  43.311   5.975  1.00 23.21 LIG 0.04  C 
BRANCH 6 7
ATOM      7  CG  GLU T   3      71.839  42.674   4.696  1.00 26.62 LIG 0.12  C 
BRANCH 7 8
ATOM      8  CD  GLU T   3      72.009  41.196   4.815  1.00 29.06 LIG 0.17  C 
ATOM      9 OE2  GLU T   3      71.735  40.484   3.821  1.00 35.17 LIG-0.65  OA
ATOM     10 OE1  GLU T   3      72.414  40.737   5.901  1.00 32.66 LIG-0.65  OA
ENDBRANCH 7 8
ENDBRANCH 6 7
ENDBRANCH 5 6
BRANCH 5 11
ATOM     11  C   GLU T   3      73.615  43.610   6.954  1.00 21.48 LIG 0.24  C 
ATOM     12  N   THR T   4      73.453  42.792   7.976  1.00 23.46 LIG-0.34  N 
ATOM     13 H    THR T   4      72.689  42.677   8.356  1.00 23.46 LIG 0.16  HD
ATOM     14 O    GLU T   3      74.678  43.816   6.406  1.00 21.28 LIG-0.27  OA
BRANCH 12 15
ATOM     15  CA  THR T   4      74.500  42.001   8.577  1.00 25.11 LIG 0.20  C 
BRANCH 15 16
ATOM     16  C   THR T   4      73.883  40.796   9.284  1.00 26.24 LIG 0.24  C 
ATOM     17 O    THR T   4      74.331  40.403  10.356  1.00 26.41 LIG-0.27  OA
ATOM     18  N   PHE T   5      72.773  40.312   8.743  1.00 29.12 LIG-0.34  N 
ATOM     19 H    PHE T   5      72.387  40.665   8.060  1.00 29.12 LIG 0.16  HD
BRANCH 18 20
ATOM     20  CA  PHE T   5      72.099  39.132   9.257  1.00 29.36 LIG 0.19  C 
BRANCH 20 21
ATOM     21  C   PHE T   5      73.125  37.978   9.410  1.00 32.56 LIG 0.20  C 
ATOM     22 O    PHE T   5      74.117  37.981   8.644  1.00 36.67 LIG-0.65  OA
ATOM     23 OXT  PHE T   5      72.967  37.090  10.294  1.00 34.39 LIG-0.65  OA
ENDBRANCH 20 21
BRANCH 20 24
ATOM     24  CB  PHE T   5      71.012  38.676   8.292  1.00 26.24 LIG 0.07  C 
BRANCH 24 25
ATOM     25  CG  PHE T   5      69.838  39.593   8.203  1.00 22.58 LIG-0.06  A 
ATOM     26  CD1 PHE T   5      70.014  40.918   7.848  1.00 21.65 LIG 0.01  A 
ATOM     27  CE1 PHE T   5      68.964  41.798   7.885  1.00 20.51 LIG 0.00  A 
ATOM     28  CZ  PHE T   5      67.723  41.361   8.274  1.00 20.87 LIG 0.00  A 
ATOM     29  CE2 PHE T   5      67.538  40.031   8.620  1.00 20.50 LIG 0.00  A 
ATOM     30  CD2 PHE T   5      68.582  39.165   8.581  1.00 18.29 LIG 0.01  A 
ENDBRANCH 24 25
ENDBRANCH 20 24
ENDBRANCH 18 20
ENDBRANCH 15 16
BRANCH 15 31
ATOM     31  CB  THR T   4      75.278  42.939   9.565  1.00 25.29 LIG 0.15  C 
ATOM     32  CG2 THR T   4      76.438  43.660   8.923  1.00 28.15 LIG 0.04  C 
BRANCH 31 33
ATOM     33 OG1  THR T   4      74.368  43.867  10.178  1.00 26.44 LIG-0.39  OA
ATOM     34 HG1  THR T   4      73.985  43.497  10.827  1.00 26.44 LIG 0.21  HD
ENDBRANCH 31 33
ENDBRANCH 15 31
ENDBRANCH 12 15
ENDBRANCH 5 11
ENDBRANCH 3 5
BRANCH 1 35
ATOM     35  CA  TRP T   2      72.036  47.329   4.279  1.00 22.55 LIG 0.18  C 
BRANCH 35 36
ATOM     36  CB  TRP T   2      70.756  48.059   3.851  1.00 18.37 LIG 0.07  C 
BRANCH 36 37
ATOM     37  CG  TRP T   2      70.254  49.002   4.915  1.00 15.70 LIG-0.03  A 
ATOM     38  CD2 TRP T   2      68.891  49.346   5.171  1.00  9.74 LIG-0.00  A 
ATOM     39  CE2 TRP T   2      68.881  50.246   6.251  1.00 12.08 LIG 0.04  A 
ATOM     40  CE3 TRP T   2      67.679  48.992   4.585  1.00  8.42 LIG 0.01  A 
ATOM     41  CZ2 TRP T   2      67.701  50.787   6.752  1.00 12.57 LIG 0.03  A 
ATOM     42  NE1 TRP T   2      70.183  50.440   6.643  1.00 15.46 LIG-0.36  N 
ATOM     43  CH2 TRP T   2      66.541  50.413   6.148  1.00  9.29 LIG 0.00  A 
ATOM     44  CZ3 TRP T   2      66.531  49.522   5.076  1.00  5.55 LIG 0.00  A 
ATOM     45 HE1  TRP T   2      70.441  50.950   7.286  1.00 15.46 LIG 0.17  HD
ATOM     46  CD1 TRP T   2      71.005  49.687   5.841  1.00 15.83 LIG 0.10  A 
ENDBRANCH 36 37
ENDBRANCH 35 36
BRANCH 35 47
ATOM     47  N   TRP T   2      72.663  46.770   3.088  1.00 22.15 LIG-0.35  N 
ATOM     48  C   ASN T   1      72.133  45.784   2.381  1.00 24.32 LIG 0.24  C 
ATOM     49 O    ASN T   1      71.088  45.211   2.705  1.00 24.18 LIG-0.27  OA
ATOM     50 H    TRP T   2      73.412  47.141   2.888  1.00 22.15 LIG 0.16  HD
BRANCH 48 51
ATOM     51  CA  ASN T   1      72.987  45.270   1.228  1.00 25.81 LIG 0.18  C 
BRANCH 51 52
ATOM     52  N   ASN T   1      73.249  43.855   1.171  1.00 28.18 LIG-0.35  N 
ATOM     53  C   ACE T   0      74.368  43.365   1.695  1.00 27.70 LIG 0.21  C 
ATOM     54 O    ACE T   0      75.084  42.593   1.100  1.00 31.05 LIG-0.27  OA
ATOM     55  CH3 ACE T   0      74.783  43.861   3.060  1.00 28.48 LIG 0.12  C 
ATOM     56 H    ASN T   1      72.642  43.385   0.784  1.00 28.18 LIG 0.16  HD
ENDBRANCH 51 52
BRANCH 51 57
ATOM     57  CB  ASN T   1      72.604  45.861  -0.156  1.00 27.81 LIG 0.14  C 
BRANCH 57 58
ATOM     58  CG  ASN T   1      71.113  45.735  -0.502  1.00 34.08 LIG 0.22  C 
ATOM     59 OD1  ASN T   1      70.263  46.441   0.041  1.00 41.34 LIG-0.27  OA
ATOM     60  ND2 ASN T   1      70.807  44.887  -1.473  1.00 39.83 LIG-0.37  N 
ATOM     61 22HD ASN T   1      71.422  44.406  -1.834  1.00 39.83 LIG 0.16  HD
ATOM     62 21HD ASN T   1      69.993  44.818  -1.743  1.00 39.83 LIG 0.16  HD
ENDBRANCH 57 58
ENDBRANCH 51 57
ENDBRANCH 48 51
ENDBRANCH 35 47
ENDBRANCH 1 35
TORSDOF 21
ENDMDL
MODEL 35
USER: ADFR SOLUTION from run 159
USER: SCORE 16.977757 LL:  -3.384 LR: -15.157 RR:   0.000 FEB:  -8.893
USER: RMSD 10.433777
USER: SEED 158
USER: STATUS no improvement in best 27 clusters for 5 generations
USER: GENES 23
USER: genes 0 Translation |==|  0.54419 0.40634 0.50231
USER: genes 1 Rotation |==|  0.13624 0.73634 0.74287 0.55324
USER: genes 2 Torsion [C]-N--CA-[CB] |==|  0.18186
USER: genes 3 Torsion [N]-CA--CB-[CG] |==|  0.12886
USER: genes 4 Torsion [CA]-CB--CG-[CD] |==|  0.51109
USER: genes 5 Torsion [CB]-CG--CD-[OE2] |==|  0.08734
USER: genes 6 Torsion [N]-CA--C-[N] |==|  0.54417
USER: genes 7 Torsion [C]-N--CA-[C] |==|  0.65047
USER: genes 8 Torsion [N]-CA--C-[N] |==|  0.81156
USER: genes 9 Torsion [C]-N--CA-[C] |==|  0.77225
USER: genes 10 Torsion [N]-CA--C-[O] |==|  0.06852
USER: genes 11 Torsion [N]-CA--CB-[CG] |==|  0.81386
USER: genes 12 Torsion [CA]-CB--CG-[CD1] |==|  0.76318
USER: genes 13 Torsion [N]-CA--CB-[CG2] |==|  0.83596
USER: genes 14 Torsion [CA]-CB--OG1-[HG1] |==|  0.30127
USER: genes 15 Torsion [N]-C--CA-[N] |==|  0.35606
USER: genes 16 Torsion [C]-CA--CB-[CG] |==|  0.28839
USER: genes 17 Torsion [CA]-CB--CG-[CD2] |==|  0.46248
USER: genes 18 Torsion [C]-CA--N-[C] |==|  0.82667
USER: genes 19 Torsion [N]-C--CA-[N] |==|  0.42796
USER: genes 20 Torsion [C]-CA--N-[C] |==|  0.72439
USER: genes 21 Torsion [C]-CA--CB-[CG] |==|  0.94440
USER: genes 22 Torsion [CA]-CB--CG-[OD1] |==|  0.83466
ROOT
ATOM      1  C   TRP T   2      71.936  41.920   4.969  1.00 22.72 LIG 0.24  C 
ATOM      2 O    TRP T   2      71.735  41.096   4.063  1.00 25.73 LIG-0.27  OA
ATOM      3  N   GLU T   3      71.380  41.816   6.169  1.00 22.46 LIG-0.35  N 
ATOM      4 H    GLU T   3      71.464  42.387   6.806  1.00 22.46 LIG 0.16  HD
ENDROOT
BRANCH 3 5
ATOM      5  CA  GLU T   3      70.558  40.666   6.468  1.00 22.12 LIG 0.18  C 
BRANCH 5 6
ATOM      6  CB  GLU T   3      71.404  39.395   6.462  1.00 23.21 LIG 0.04  C 
BRANCH 6 7
ATOM      7  CG  GLU T   3      72.691  39.561   7.232  1.00 26.62 LIG 0.12  C 
BRANCH 7 8
ATOM      8  CD  GLU T   3      73.570  38.356   7.154  1.00 29.06 LIG 0.17  C 
ATOM      9 OE2  GLU T   3      73.535  37.662   6.112  1.00 35.17 LIG-0.65  OA
ATOM     10 OE1  GLU T   3      74.298  38.097   8.132  1.00 32.66 LIG-0.65  OA
ENDBRANCH 7 8
ENDBRANCH 6 7
ENDBRANCH 5 6
BRANCH 5 11
ATOM     11  C   GLU T   3      69.855  40.799   7.793  1.00 21.48 LIG 0.24  C 
ATOM     12  N   THR T   4      69.369  39.666   8.262  1.00 23.46 LIG-0.34  N 
ATOM     13 H    THR T   4      69.457  38.920   7.842  1.00 23.46 LIG 0.16  HD
ATOM     14 O    GLU T   3      69.733  41.875   8.342  1.00 21.28 LIG-0.27  OA
BRANCH 12 15
ATOM     15  CA  THR T   4      68.645  39.527   9.504  1.00 25.11 LIG 0.20  C 
BRANCH 15 16
ATOM     16  C   THR T   4      69.313  38.453  10.361  1.00 26.24 LIG 0.24  C 
ATOM     17 O    THR T   4      69.775  38.730  11.462  1.00 26.41 LIG-0.27  OA
ATOM     18  N   PHE T   5      69.228  37.211   9.902  1.00 29.12 LIG-0.34  N 
ATOM     19 H    PHE T   5      68.796  36.998   9.190  1.00 29.12 LIG 0.16  HD
BRANCH 18 20
ATOM     20  CA  PHE T   5      69.865  36.085  10.565  1.00 29.36 LIG 0.19  C 
BRANCH 20 21
ATOM     21  C   PHE T   5      71.359  36.022  10.153  1.00 32.56 LIG 0.20  C 
ATOM     22 O    PHE T   5      71.900  37.088   9.775  1.00 36.67 LIG-0.65  OA
ATOM     23 OXT  PHE T   5      72.001  34.936  10.224  1.00 34.39 LIG-0.65  OA
ENDBRANCH 20 21
BRANCH 20 24
ATOM     24  CB  PHE T   5      69.202  34.778  10.150  1.00 26.24 LIG 0.07  C 
BRANCH 24 25
ATOM     25  CG  PHE T   5      67.794  34.621  10.621  1.00 22.58 LIG-0.06  A 
ATOM     26  CD1 PHE T   5      67.533  34.121  11.883  1.00 21.65 LIG 0.01  A 
ATOM     27  CE1 PHE T   5      66.248  33.855  12.279  1.00 20.51 LIG 0.00  A 
ATOM     28  CZ  PHE T   5      65.208  34.093  11.417  1.00 20.87 LIG 0.00  A 
ATOM     29  CE2 PHE T   5      65.462  34.605  10.154  1.00 20.50 LIG 0.00  A 
ATOM     30  CD2 PHE T   5      66.737  34.866   9.769  1.00 18.29 LIG 0.01  A 
ENDBRANCH 24 25
ENDBRANCH 20 24
ENDBRANCH 18 20
ENDBRANCH 15 16
BRANCH 15 31
ATOM     31  CB  THR T   4      67.164  39.163   9.137  1.00 25.29 LIG 0.15  C 
ATOM     32  CG2 THR T   4      66.486  40.199   8.273  1.00 28.15 LIG 0.04  C 
BRANCH 31 33
ATOM     33 OG1  THR T   4      67.116  37.866   8.521  1.00 26.44 LIG-0.39  OA
ATOM     34 HG1  THR T   4      66.769  37.316   9.052  1.00 26.44 LIG 0.21  HD
ENDBRANCH 31 33
ENDBRANCH 15 31
ENDBRANCH 12 15
ENDBRANCH 5 11
ENDBRANCH 3 5
BRANCH 1 35
ATOM     35  CA  TRP T   2      72.803  43.149   4.733  1.00 22.55 LIG 0.18  C 
BRANCH 35 36
ATOM     36  CB  TRP T   2      72.108  44.084   3.735  1.00 18.37 LIG 0.07  C 
BRANCH 36 37
ATOM     37  CG  TRP T   2      71.485  45.279   4.411  1.00 15.70 LIG-0.03  A 
ATOM     38  CD2 TRP T   2      71.005  46.463   3.770  1.00  9.74 LIG-0.00  A 
ATOM     39  CE2 TRP T   2      70.501  47.308   4.775  1.00 12.08 LIG 0.04  A 
ATOM     40  CE3 TRP T   2      70.965  46.898   2.449  1.00  8.42 LIG 0.01  A 
ATOM     41  CZ2 TRP T   2      69.960  48.558   4.487  1.00 12.57 LIG 0.03  A 
ATOM     42  NE1 TRP T   2      70.660  46.666   5.978  1.00 15.46 LIG-0.36  N 
ATOM     43  CH2 TRP T   2      69.942  48.941   3.181  1.00  9.29 LIG 0.00  A 
ATOM     44  CZ3 TRP T   2      70.438  48.116   2.173  1.00  5.55 LIG 0.00  A 
ATOM     45 HE1  TRP T   2      70.429  46.978   6.746  1.00 15.46 LIG 0.17  HD
ATOM     46  CD1 TRP T   2      71.248  45.445   5.755  1.00 15.83 LIG 0.10  A 
ENDBRANCH 36 37
ENDBRANCH 35 36
BRANCH 35 47
ATOM     47  N   TRP T   2      74.129  42.833   4.218  1.00 22.15 LIG-0.35  N 
ATOM     48  C   ASN T   1      75.016  42.111   4.885  1.00 24.32 LIG 0.24  C 
ATOM     49 O    ASN T   1      74.818  41.694   6.031  1.00 24.18 LIG-0.27  OA
ATOM     50 H    TRP T   2      74.282  43.160   3.437  1.00 22.15 LIG 0.16  HD
BRANCH 48 51
ATOM     51  CA  ASN T   1      76.382  41.973   4.222  1.00 25.81 LIG 0.18  C 
BRANCH 51 52
ATOM     52  N   ASN T   1      77.517  41.728   5.075  1.00 28.18 LIG-0.35  N 
ATOM     53  C   ACE T   0      78.313  42.733   5.424  1.00 27.70 LIG 0.21  C 
ATOM     54 O    ACE T   0      79.519  42.668   5.344  1.00 31.05 LIG-0.27  OA
ATOM     55  CH3 ACE T   0      77.667  44.024   5.867  1.00 28.48 LIG 0.12  C 
ATOM     56 H    ASN T   1      77.620  40.911   5.321  1.00 28.18 LIG 0.16  HD
ENDBRANCH 51 52
BRANCH 51 57
ATOM     57  CB  ASN T   1      76.383  41.072   2.957  1.00 27.81 LIG 0.14  C 
BRANCH 57 58
ATOM     58  CG  ASN T   1      75.186  40.115   2.867  1.00 34.08 LIG 0.22  C 
ATOM     59 OD1  ASN T   1      74.966  39.273   3.739  1.00 41.34 LIG-0.27  OA
ATOM     60  ND2 ASN T   1      74.360  40.304   1.848  1.00 39.83 LIG-0.37  N 
ATOM     61 22HD ASN T   1      74.540  40.900   1.254  1.00 39.83 LIG 0.16  HD
ATOM     62 21HD ASN T   1      73.645  39.831   1.781  1.00 39.83 LIG 0.16  HD
ENDBRANCH 57 58
ENDBRANCH 51 57
ENDBRANCH 48 51
ENDBRANCH 35 47
ENDBRANCH 1 35
TORSDOF 21
ENDMDL
MODEL 36
USER: ADFR SOLUTION from run 138
USER: SCORE 18.739080 LL:  -5.120 LR: -15.154 RR:   0.000 FEB:  -8.890
USER: RMSD 10.779720
USER: SEED 137
USER: STATUS no improvement in best 5 clusters for 5 generations
USER: GENES 23
USER: genes 0 Translation |==|  0.50514 0.56052 0.50279
USER: genes 1 Rotation |==|  0.84374 0.45876 0.13977 0.51949
USER: genes 2 Torsion [C]-N--CA-[CB] |==|  0.24751
USER: genes 3 Torsion [N]-CA--CB-[CG] |==|  0.53675
USER: genes 4 Torsion [CA]-CB--CG-[CD] |==|  0.12891
USER: genes 5 Torsion [CB]-CG--CD-[OE2] |==|  0.10602
USER: genes 6 Torsion [N]-CA--C-[N] |==|  0.34751
USER: genes 7 Torsion [C]-N--CA-[C] |==|  0.74108
USER: genes 8 Torsion [N]-CA--C-[N] |==|  0.00001
USER: genes 9 Torsion [C]-N--CA-[C] |==|  0.86640
USER: genes 10 Torsion [N]-CA--C-[O] |==|  0.87320
USER: genes 11 Torsion [N]-CA--CB-[CG] |==|  0.72127
USER: genes 12 Torsion [CA]-CB--CG-[CD1] |==|  0.45157
USER: genes 13 Torsion [N]-CA--CB-[CG2] |==|  0.43001
USER: genes 14 Torsion [CA]-CB--OG1-[HG1] |==|  0.32369
USER: genes 15 Torsion [N]-C--CA-[N] |==|  0.51796
USER: genes 16 Torsion [C]-CA--CB-[CG] |==|  0.59715
USER: genes 17 Torsion [CA]-CB--CG-[CD2] |==|  0.22992
USER: genes 18 Torsion [C]-CA--N-[C] |==|  0.63314
USER: genes 19 Torsion [N]-C--CA-[N] |==|  0.98017
USER: genes 20 Torsion [C]-CA--N-[C] |==|  0.75556
USER: genes 21 Torsion [C]-CA--CB-[CG] |==|  0.56485
USER: genes 22 Torsion [CA]-CB--CG-[OD1] |==|  0.35626
ROOT
ATOM      1  C   TRP T   2      70.764  46.546   4.984  1.00 22.72 LIG 0.24  C 
ATOM      2 O    TRP T   2      70.610  46.033   3.864  1.00 25.73 LIG-0.27  OA
ATOM      3  N   GLU T   3      71.096  45.840   6.056  1.00 22.46 LIG-0.35  N 
ATOM      4 H    GLU T   3      71.173  46.154   6.853  1.00 22.46 LIG 0.16  HD
ENDROOT
BRANCH 3 5
ATOM      5  CA  GLU T   3      71.359  44.426   5.916  1.00 22.12 LIG 0.18  C 
BRANCH 5 6
ATOM      6  CB  GLU T   3      72.834  44.190   5.600  1.00 23.21 LIG 0.04  C 
BRANCH 6 7
ATOM      7  CG  GLU T   3      73.100  42.781   5.133  1.00 26.62 LIG 0.12  C 
BRANCH 7 8
ATOM      8  CD  GLU T   3      72.122  42.319   4.103  1.00 29.06 LIG 0.17  C 
ATOM      9 OE2  GLU T   3      71.735  43.142   3.241  1.00 35.17 LIG-0.65  OA
ATOM     10 OE1  GLU T   3      71.735  41.136   4.150  1.00 32.66 LIG-0.65  OA
ENDBRANCH 7 8
ENDBRANCH 6 7
ENDBRANCH 5 6
BRANCH 5 11
ATOM     11  C   GLU T   3      70.976  43.653   7.150  1.00 21.48 LIG 0.24  C 
ATOM     12  N   THR T   4      70.141  42.657   6.925  1.00 23.46 LIG-0.34  N 
ATOM     13 H    THR T   4      69.852  42.470   6.136  1.00 23.46 LIG 0.16  HD
ATOM     14 O    GLU T   3      71.390  43.962   8.249  1.00 21.28 LIG-0.27  OA
BRANCH 12 15
ATOM     15  CA  THR T   4      69.616  41.772   7.938  1.00 25.11 LIG 0.20  C 
BRANCH 15 16
ATOM     16  C   THR T   4      70.504  40.533   8.038  1.00 26.24 LIG 0.24  C 
ATOM     17 O    THR T   4      70.179  39.587   8.747  1.00 26.41 LIG-0.27  OA
ATOM     18  N   PHE T   5      71.544  40.498   7.216  1.00 29.12 LIG-0.34  N 
ATOM     19 H    PHE T   5      71.704  41.105   6.629  1.00 29.12 LIG 0.16  HD
BRANCH 18 20
ATOM     20  CA  PHE T   5      72.520  39.421   7.231  1.00 29.36 LIG 0.19  C 
BRANCH 20 21
ATOM     21  C   PHE T   5      72.971  39.153   8.691  1.00 32.56 LIG 0.20  C 
ATOM     22 O    PHE T   5      73.252  40.148   9.400  1.00 36.67 LIG-0.65  OA
ATOM     23 OXT  PHE T   5      73.026  37.975   9.142  1.00 34.39 LIG-0.65  OA
ENDBRANCH 20 21
BRANCH 20 24
ATOM     24  CB  PHE T   5      73.749  39.804   6.416  1.00 26.24 LIG 0.07  C 
BRANCH 24 25
ATOM     25  CG  PHE T   5      73.788  39.220   5.043  1.00 22.58 LIG-0.06  A 
ATOM     26  CD1 PHE T   5      74.630  39.752   4.084  1.00 21.65 LIG 0.01  A 
ATOM     27  CE1 PHE T   5      74.585  39.307   2.788  1.00 20.51 LIG 0.00  A 
ATOM     28  CZ  PHE T   5      73.699  38.318   2.439  1.00 20.87 LIG 0.00  A 
ATOM     29  CE2 PHE T   5      72.860  37.773   3.399  1.00 20.50 LIG 0.00  A 
ATOM     30  CD2 PHE T   5      72.910  38.219   4.680  1.00 18.29 LIG 0.01  A 
ENDBRANCH 24 25
ENDBRANCH 20 24
ENDBRANCH 18 20
ENDBRANCH 15 16
BRANCH 15 31
ATOM     31  CB  THR T   4      68.144  41.419   7.525  1.00 25.29 LIG 0.15  C 
ATOM     32  CG2 THR T   4      67.661  40.103   8.083  1.00 28.15 LIG 0.04  C 
BRANCH 31 33
ATOM     33 OG1  THR T   4      67.262  42.492   7.895  1.00 26.44 LIG-0.39  OA
ATOM     34 HG1  THR T   4      66.920  42.825   7.203  1.00 26.44 LIG 0.21  HD
ENDBRANCH 31 33
ENDBRANCH 15 31
ENDBRANCH 12 15
ENDBRANCH 5 11
ENDBRANCH 3 5
BRANCH 1 35
ATOM     35  CA  TRP T   2      70.521  48.032   5.205  1.00 22.55 LIG 0.18  C 
BRANCH 35 36
ATOM     36  CB  TRP T   2      69.510  48.224   6.342  1.00 18.37 LIG 0.07  C 
BRANCH 36 37
ATOM     37  CG  TRP T   2      68.609  49.410   6.111  1.00 15.70 LIG-0.03  A 
ATOM     38  CD2 TRP T   2      67.427  49.435   5.308  1.00  9.74 LIG-0.00  A 
ATOM     39  CE2 TRP T   2      66.898  50.737   5.380  1.00 12.08 LIG 0.04  A 
ATOM     40  CE3 TRP T   2      66.771  48.491   4.525  1.00  8.42 LIG 0.01  A 
ATOM     41  CZ2 TRP T   2      65.742  51.105   4.699  1.00 12.57 LIG 0.03  A 
ATOM     42  NE1 TRP T   2      67.719  51.475   6.198  1.00 15.46 LIG-0.36  N 
ATOM     43  CH2 TRP T   2      65.134  50.148   3.945  1.00  9.29 LIG 0.00  A 
ATOM     44  CZ3 TRP T   2      65.644  48.853   3.862  1.00  5.55 LIG 0.00  A 
ATOM     45 HE1  TRP T   2      67.609  52.304   6.400  1.00 15.46 LIG 0.17  HD
ATOM     46  CD1 TRP T   2      68.743  50.673   6.638  1.00 15.83 LIG 0.10  A 
ENDBRANCH 36 37
ENDBRANCH 35 36
BRANCH 35 47
ATOM     47  N   TRP T   2      70.017  48.720   4.023  1.00 22.15 LIG-0.35  N 
ATOM     48  C   ASN T   1      70.518  49.861   3.576  1.00 24.32 LIG 0.24  C 
ATOM     49 O    ASN T   1      71.419  50.474   4.159  1.00 24.18 LIG-0.27  OA
ATOM     50 H    TRP T   2      69.362  48.314   3.642  1.00 22.15 LIG 0.16  HD
BRANCH 48 51
ATOM     51  CA  ASN T   1      69.791  50.476   2.385  1.00 25.81 LIG 0.18  C 
BRANCH 51 52
ATOM     52  N   ASN T   1      68.748  49.700   1.766  1.00 28.18 LIG-0.35  N 
ATOM     53  C   ACE T   0      69.046  48.844   0.794  1.00 27.70 LIG 0.21  C 
ATOM     54 O    ACE T   0      68.435  48.803  -0.249  1.00 31.05 LIG-0.27  OA
ATOM     55  CH3 ACE T   0      70.244  47.945   0.989  1.00 28.48 LIG 0.12  C 
ATOM     56 H    ASN T   1      67.957  49.839   2.072  1.00 28.18 LIG 0.16  HD
ENDBRANCH 51 52
BRANCH 51 57
ATOM     57  CB  ASN T   1      69.386  51.962   2.590  1.00 27.81 LIG 0.14  C 
BRANCH 57 58
ATOM     58  CG  ASN T   1      68.214  52.420   1.711  1.00 34.08 LIG 0.22  C 
ATOM     59 OD1  ASN T   1      67.228  52.980   2.191  1.00 41.34 LIG-0.27  OA
ATOM     60  ND2 ASN T   1      68.363  52.255   0.404  1.00 39.83 LIG-0.37  N 
ATOM     61 22HD ASN T   1      69.063  51.859   0.098  1.00 39.83 LIG 0.16  HD
ATOM     62 21HD ASN T   1      67.760  52.544  -0.137  1.00 39.83 LIG 0.16  HD
ENDBRANCH 57 58
ENDBRANCH 51 57
ENDBRANCH 48 51
ENDBRANCH 35 47
ENDBRANCH 1 35
TORSDOF 21
ENDMDL
MODEL 37
USER: ADFR SOLUTION from run 123
USER: SCORE 17.381682 LL:  -4.045 LR: -15.119 RR:   0.000 FEB:  -8.854
USER: RMSD 10.361015
USER: SEED 122
USER: STATUS no improvement in best 23 clusters for 5 generations
USER: GENES 23
USER: genes 0 Translation |==|  0.49696 0.59717 0.44721
USER: genes 1 Rotation |==|  0.22951 0.41035 0.90874 0.54163
USER: genes 2 Torsion [C]-N--CA-[CB] |==|  0.15471
USER: genes 3 Torsion [N]-CA--CB-[CG] |==|  0.55516
USER: genes 4 Torsion [CA]-CB--CG-[CD] |==|  0.29065
USER: genes 5 Torsion [CB]-CG--CD-[OE2] |==|  0.47215
USER: genes 6 Torsion [N]-CA--C-[N] |==|  0.13738
USER: genes 7 Torsion [C]-N--CA-[C] |==|  0.57132
USER: genes 8 Torsion [N]-CA--C-[N] |==|  0.43356
USER: genes 9 Torsion [C]-N--CA-[C] |==|  0.53935
USER: genes 10 Torsion [N]-CA--C-[O] |==|  0.37701
USER: genes 11 Torsion [N]-CA--CB-[CG] |==|  0.58388
USER: genes 12 Torsion [CA]-CB--CG-[CD1] |==|  0.79650
USER: genes 13 Torsion [N]-CA--CB-[CG2] |==|  0.77067
USER: genes 14 Torsion [CA]-CB--OG1-[HG1] |==|  0.76299
USER: genes 15 Torsion [N]-C--CA-[N] |==|  0.70416
USER: genes 16 Torsion [C]-CA--CB-[CG] |==|  0.42064
USER: genes 17 Torsion [CA]-CB--CG-[CD2] |==|  0.96729
USER: genes 18 Torsion [C]-CA--N-[C] |==|  0.74840
USER: genes 19 Torsion [N]-C--CA-[N] |==|  0.86232
USER: genes 20 Torsion [C]-CA--N-[C] |==|  0.61115
USER: genes 21 Torsion [C]-CA--CB-[CG] |==|  0.95725
USER: genes 22 Torsion [CA]-CB--CG-[OD1] |==|  0.80729
ROOT
ATOM      1  C   TRP T   2      70.519  47.645   3.316  1.00 22.72 LIG 0.24  C 
ATOM      2 O    TRP T   2      69.990  47.730   2.197  1.00 25.73 LIG-0.27  OA
ATOM      3  N   GLU T   3      71.255  46.605   3.684  1.00 22.46 LIG-0.35  N 
ATOM      4 H    GLU T   3      71.603  46.495   4.463  1.00 22.46 LIG 0.16  HD
ENDROOT
BRANCH 3 5
ATOM      5  CA  GLU T   3      71.516  45.553   2.729  1.00 22.12 LIG 0.18  C 
BRANCH 5 6
ATOM      6  CB  GLU T   3      72.157  46.129   1.469  1.00 23.21 LIG 0.04  C 
BRANCH 6 7
ATOM      7  CG  GLU T   3      72.016  45.206   0.284  1.00 26.62 LIG 0.12  C 
BRANCH 7 8
ATOM      8  CD  GLU T   3      70.980  45.667  -0.687  1.00 29.06 LIG 0.17  C 
ATOM      9 OE2  GLU T   3      70.908  45.090  -1.797  1.00 35.17 LIG-0.65  OA
ATOM     10 OE1  GLU T   3      70.235  46.607  -0.349  1.00 32.66 LIG-0.65  OA
ENDBRANCH 7 8
ENDBRANCH 6 7
ENDBRANCH 5 6
BRANCH 5 11
ATOM     11  C   GLU T   3      72.401  44.476   3.299  1.00 21.48 LIG 0.24  C 
ATOM     12  N   THR T   4      72.013  44.026   4.477  1.00 23.46 LIG-0.34  N 
ATOM     13 H    THR T   4      71.310  44.325   4.874  1.00 23.46 LIG 0.16  HD
ATOM     14 O    GLU T   3      73.397  44.098   2.718  1.00 21.28 LIG-0.27  OA
BRANCH 12 15
ATOM     15  CA  THR T   4      72.692  43.005   5.238  1.00 25.11 LIG 0.20  C 
BRANCH 15 16
ATOM     16  C   THR T   4      71.691  42.311   6.161  1.00 26.24 LIG 0.24  C 
ATOM     17 O    THR T   4      70.609  42.830   6.412  1.00 26.41 LIG-0.27  OA
ATOM     18  N   PHE T   5      72.010  41.081   6.541  1.00 29.12 LIG-0.34  N 
ATOM     19 H    PHE T   5      72.711  40.667   6.265  1.00 29.12 LIG 0.16  HD
BRANCH 18 20
ATOM     20  CA  PHE T   5      71.197  40.311   7.468  1.00 29.36 LIG 0.19  C 
BRANCH 20 21
ATOM     21  C   PHE T   5      72.009  39.091   7.975  1.00 32.56 LIG 0.20  C 
ATOM     22 O    PHE T   5      71.963  38.835   9.201  1.00 36.67 LIG-0.65  OA
ATOM     23 OXT  PHE T   5      72.667  38.376   7.169  1.00 34.39 LIG-0.65  OA
ENDBRANCH 20 21
BRANCH 20 24
ATOM     24  CB  PHE T   5      69.943  39.794   6.775  1.00 26.24 LIG 0.07  C 
BRANCH 24 25
ATOM     25  CG  PHE T   5      68.760  39.636   7.671  1.00 22.58 LIG-0.06  A 
ATOM     26  CD1 PHE T   5      68.711  38.601   8.586  1.00 21.65 LIG 0.01  A 
ATOM     27  CE1 PHE T   5      67.580  38.371   9.325  1.00 20.51 LIG 0.00  A 
ATOM     28  CZ  PHE T   5      66.485  39.182   9.161  1.00 20.87 LIG 0.00  A 
ATOM     29  CE2 PHE T   5      66.532  40.229   8.254  1.00 20.50 LIG 0.00  A 
ATOM     30  CD2 PHE T   5      67.655  40.450   7.525  1.00 18.29 LIG 0.01  A 
ENDBRANCH 24 25
ENDBRANCH 20 24
ENDBRANCH 18 20
ENDBRANCH 15 16
BRANCH 15 31
ATOM     31  CB  THR T   4      73.846  43.711   6.033  1.00 25.29 LIG 0.15  C 
ATOM     32  CG2 THR T   4      75.097  43.924   5.215  1.00 28.15 LIG 0.04  C 
BRANCH 31 33
ATOM     33 OG1  THR T   4      73.373  44.949   6.586  1.00 26.44 LIG-0.39  OA
ATOM     34 HG1  THR T   4      73.444  45.558   6.011  1.00 26.44 LIG 0.21  HD
ENDBRANCH 31 33
ENDBRANCH 15 31
ENDBRANCH 12 15
ENDBRANCH 5 11
ENDBRANCH 3 5
BRANCH 1 35
ATOM     35  CA  TRP T   2      70.302  48.723   4.369  1.00 22.55 LIG 0.18  C 
BRANCH 35 36
ATOM     36  CB  TRP T   2      71.298  48.525   5.519  1.00 18.37 LIG 0.07  C 
BRANCH 36 37
ATOM     37  CG  TRP T   2      71.640  49.822   6.208  1.00 15.70 LIG-0.03  A 
ATOM     38  CD2 TRP T   2      71.327  51.137   5.746  1.00  9.74 LIG-0.00  A 
ATOM     39  CE2 TRP T   2      71.825  52.046   6.698  1.00 12.08 LIG 0.04  A 
ATOM     40  CE3 TRP T   2      70.688  51.638   4.615  1.00  8.42 LIG 0.01  A 
ATOM     41  CZ2 TRP T   2      71.692  53.423   6.546  1.00 12.57 LIG 0.03  A 
ATOM     42  NE1 TRP T   2      72.412  51.316   7.702  1.00 15.46 LIG-0.36  N 
ATOM     43  CH2 TRP T   2      71.061  53.866   5.425  1.00  9.29 LIG 0.00  A 
ATOM     44  CZ3 TRP T   2      70.562  52.980   4.471  1.00  5.55 LIG 0.00  A 
ATOM     45 HE1  TRP T   2      72.791  51.643   8.402  1.00 15.46 LIG 0.17  HD
ATOM     46  CD1 TRP T   2      72.295  49.980   7.407  1.00 15.83 LIG 0.10  A 
ENDBRANCH 36 37
ENDBRANCH 35 36
BRANCH 35 47
ATOM     47  N   TRP T   2      68.955  48.729   4.926  1.00 22.15 LIG-0.35  N 
ATOM     48  C   ASN T   1      67.963  49.445   4.421  1.00 24.32 LIG 0.24  C 
ATOM     49 O    ASN T   1      68.108  50.220   3.470  1.00 24.18 LIG-0.27  OA
ATOM     50 H    TRP T   2      68.865  48.222   5.614  1.00 22.15 LIG 0.16  HD
BRANCH 48 51
ATOM     51  CA  ASN T   1      66.654  49.396   5.203  1.00 25.81 LIG 0.18  C 
BRANCH 51 52
ATOM     52  N   ASN T   1      66.145  48.100   5.571  1.00 28.18 LIG-0.35  N 
ATOM     53  C   ACE T   0      64.841  47.855   5.497  1.00 27.70 LIG 0.21  C 
ATOM     54 O    ACE T   0      64.222  47.340   6.400  1.00 31.05 LIG-0.27  OA
ATOM     55  CH3 ACE T   0      64.106  48.310   4.259  1.00 28.48 LIG 0.12  C 
ATOM     56 H    ASN T   1      66.737  47.533   5.829  1.00 28.18 LIG 0.16  HD
ENDBRANCH 51 52
BRANCH 51 57
ATOM     57  CB  ASN T   1      66.575  50.420   6.368  1.00 27.81 LIG 0.14  C 
BRANCH 57 58
ATOM     58  CG  ASN T   1      67.929  51.027   6.763  1.00 34.08 LIG 0.22  C 
ATOM     59 OD1  ASN T   1      68.800  50.355   7.315  1.00 41.34 LIG-0.27  OA
ATOM     60  ND2 ASN T   1      68.135  52.285   6.400  1.00 39.83 LIG-0.37  N 
ATOM     61 22HD ASN T   1      67.507  52.730   6.016  1.00 39.83 LIG 0.16  HD
ATOM     62 21HD ASN T   1      68.897  52.656   6.548  1.00 39.83 LIG 0.16  HD
ENDBRANCH 57 58
ENDBRANCH 51 57
ENDBRANCH 48 51
ENDBRANCH 35 47
ENDBRANCH 1 35
TORSDOF 21
ENDMDL
MODEL 38
USER: ADFR SOLUTION from run 97
USER: SCORE 18.709024 LL:  -3.928 LR: -15.112 RR:   0.000 FEB:  -8.848
USER: RMSD 10.830611
USER: SEED 96
USER: STATUS no improvement in best 20 clusters for 5 generations
USER: GENES 23
USER: genes 0 Translation |==|  0.44076 0.63833 0.49742
USER: genes 1 Rotation |==|  0.37521 0.31958 0.13124 0.75669
USER: genes 2 Torsion [C]-N--CA-[CB] |==|  0.83454
USER: genes 3 Torsion [N]-CA--CB-[CG] |==|  0.80257
USER: genes 4 Torsion [CA]-CB--CG-[CD] |==|  0.33932
USER: genes 5 Torsion [CB]-CG--CD-[OE2] |==|  0.41029
USER: genes 6 Torsion [N]-CA--C-[N] |==|  0.35556
USER: genes 7 Torsion [C]-N--CA-[C] |==|  0.77080
USER: genes 8 Torsion [N]-CA--C-[N] |==|  0.38572
USER: genes 9 Torsion [C]-N--CA-[C] |==|  0.58399
USER: genes 10 Torsion [N]-CA--C-[O] |==|  0.47801
USER: genes 11 Torsion [N]-CA--CB-[CG] |==|  0.23308
USER: genes 12 Torsion [CA]-CB--CG-[CD1] |==|  0.72714
USER: genes 13 Torsion [N]-CA--CB-[CG2] |==|  0.07253
USER: genes 14 Torsion [CA]-CB--OG1-[HG1] |==|  0.31261
USER: genes 15 Torsion [N]-C--CA-[N] |==|  0.40948
USER: genes 16 Torsion [C]-CA--CB-[CG] |==|  0.21264
USER: genes 17 Torsion [CA]-CB--CG-[CD2] |==|  0.56429
USER: genes 18 Torsion [C]-CA--N-[C] |==|  0.68337
USER: genes 19 Torsion [N]-C--CA-[N] |==|  0.06108
USER: genes 20 Torsion [C]-CA--N-[C] |==|  0.67893
USER: genes 21 Torsion [C]-CA--CB-[CG] |==|  0.23715
USER: genes 22 Torsion [CA]-CB--CG-[OD1] |==|  0.02075
ROOT
ATOM      1  C   TRP T   2      68.833  48.880   4.823  1.00 22.72 LIG 0.24  C 
ATOM      2 O    TRP T   2      68.716  48.180   5.841  1.00 25.73 LIG-0.27  OA
ATOM      3  N   GLU T   3      69.972  48.985   4.151  1.00 22.46 LIG-0.35  N 
ATOM      4 H    GLU T   3      70.100  49.489   3.467  1.00 22.46 LIG 0.16  HD
ENDROOT
BRANCH 3 5
ATOM      5  CA  GLU T   3      71.112  48.204   4.572  1.00 22.12 LIG 0.18  C 
BRANCH 5 6
ATOM      6  CB  GLU T   3      71.492  48.551   6.009  1.00 23.21 LIG 0.04  C 
BRANCH 6 7
ATOM      7  CG  GLU T   3      72.104  49.924   6.123  1.00 26.62 LIG 0.12  C 
BRANCH 7 8
ATOM      8  CD  GLU T   3      71.355  50.815   7.058  1.00 29.06 LIG 0.17  C 
ATOM      9 OE2  GLU T   3      72.000  51.670   7.708  1.00 35.17 LIG-0.65  OA
ATOM     10 OE1  GLU T   3      70.122  50.665   7.150  1.00 32.66 LIG-0.65  OA
ENDBRANCH 7 8
ENDBRANCH 6 7
ENDBRANCH 5 6
BRANCH 5 11
ATOM     11  C   GLU T   3      70.859  46.724   4.459  1.00 21.48 LIG 0.24  C 
ATOM     12  N   THR T   4      71.785  46.068   3.786  1.00 23.46 LIG-0.34  N 
ATOM     13 H    THR T   4      72.474  46.461   3.451  1.00 23.46 LIG 0.16  HD
ATOM     14 O    GLU T   3      69.864  46.211   4.928  1.00 21.28 LIG-0.27  OA
BRANCH 12 15
ATOM     15  CA  THR T   4      71.772  44.647   3.529  1.00 25.11 LIG 0.20  C 
BRANCH 15 16
ATOM     16  C   THR T   4      72.326  43.907   4.745  1.00 26.24 LIG 0.24  C 
ATOM     17 O    THR T   4      73.221  44.401   5.422  1.00 26.41 LIG-0.27  OA
ATOM     18  N   PHE T   5      71.689  42.795   5.086  1.00 29.12 LIG-0.34  N 
ATOM     19 H    PHE T   5      70.983  42.512   4.686  1.00 29.12 LIG 0.16  HD
BRANCH 18 20
ATOM     20  CA  PHE T   5      72.129  41.942   6.178  1.00 29.36 LIG 0.19  C 
BRANCH 20 21
ATOM     21  C   PHE T   5      71.738  40.472   5.874  1.00 32.56 LIG 0.20  C 
ATOM     22 O    PHE T   5      72.179  39.586   6.644  1.00 36.67 LIG-0.65  OA
ATOM     23 OXT  PHE T   5      70.985  40.195   4.899  1.00 34.39 LIG-0.65  OA
ENDBRANCH 20 21
BRANCH 20 24
ATOM     24  CB  PHE T   5      71.455  42.354   7.481  1.00 26.24 LIG 0.07  C 
BRANCH 24 25
ATOM     25  CG  PHE T   5      70.095  41.774   7.684  1.00 22.58 LIG-0.06  A 
ATOM     26  CD1 PHE T   5      68.969  42.518   7.387  1.00 21.65 LIG 0.01  A 
ATOM     27  CE1 PHE T   5      67.718  42.045   7.686  1.00 20.51 LIG 0.00  A 
ATOM     28  CZ  PHE T   5      67.580  40.817   8.283  1.00 20.87 LIG 0.00  A 
ATOM     29  CE2 PHE T   5      68.705  40.061   8.574  1.00 20.50 LIG 0.00  A 
ATOM     30  CD2 PHE T   5      69.941  40.536   8.275  1.00 18.29 LIG 0.01  A 
ENDBRANCH 24 25
ENDBRANCH 20 24
ENDBRANCH 18 20
ENDBRANCH 15 16
BRANCH 15 31
ATOM     31  CB  THR T   4      72.632  44.403   2.239  1.00 25.29 LIG 0.15  C 
ATOM     32  CG2 THR T   4      73.681  45.463   2.006  1.00 28.15 LIG 0.04  C 
BRANCH 31 33
ATOM     33 OG1  THR T   4      73.221  43.093   2.285  1.00 26.44 LIG-0.39  OA
ATOM     34 HG1  THR T   4      72.881  42.612   1.686  1.00 26.44 LIG 0.21  HD
ENDBRANCH 31 33
ENDBRANCH 15 31
ENDBRANCH 12 15
ENDBRANCH 5 11
ENDBRANCH 3 5
BRANCH 1 35
ATOM     35  CA  TRP T   2      67.669  49.718   4.310  1.00 22.55 LIG 0.18  C 
BRANCH 35 36
ATOM     36  CB  TRP T   2      67.662  51.076   5.022  1.00 18.37 LIG 0.07  C 
BRANCH 36 37
ATOM     37  CG  TRP T   2      68.720  52.008   4.486  1.00 15.70 LIG-0.03  A 
ATOM     38  CD2 TRP T   2      69.300  53.119   5.172  1.00  9.74 LIG-0.00  A 
ATOM     39  CE2 TRP T   2      70.244  53.700   4.306  1.00 12.08 LIG 0.04  A 
ATOM     40  CE3 TRP T   2      69.106  53.688   6.426  1.00  8.42 LIG 0.01  A 
ATOM     41  CZ2 TRP T   2      70.990  54.818   4.667  1.00 12.57 LIG 0.03  A 
ATOM     42  NE1 TRP T   2      70.245  52.971   3.141  1.00 15.46 LIG-0.36  N 
ATOM     43  CH2 TRP T   2      70.765  55.340   5.903  1.00  9.29 LIG 0.00  A 
ATOM     44  CZ3 TRP T   2      69.834  54.778   6.775  1.00  5.55 LIG 0.00  A 
ATOM     45 HE1  TRP T   2      70.737  53.127   2.454  1.00 15.46 LIG 0.17  HD
ATOM     46  CD1 TRP T   2      69.331  51.952   3.255  1.00 15.83 LIG 0.10  A 
ENDBRANCH 36 37
ENDBRANCH 35 36
BRANCH 35 47
ATOM     47  N   TRP T   2      66.370  49.090   4.509  1.00 22.15 LIG-0.35  N 
ATOM     48  C   ASN T   1      65.597  48.684   3.513  1.00 24.32 LIG 0.24  C 
ATOM     49 O    ASN T   1      65.886  48.859   2.325  1.00 24.18 LIG-0.27  OA
ATOM     50 H    TRP T   2      66.151  49.007   5.337  1.00 22.15 LIG 0.16  HD
BRANCH 48 51
ATOM     51  CA  ASN T   1      64.231  48.143   3.920  1.00 25.81 LIG 0.18  C 
BRANCH 51 52
ATOM     52  N   ASN T   1      63.707  48.546   5.200  1.00 28.18 LIG-0.35  N 
ATOM     53  C   ACE T   0      63.515  47.641   6.153  1.00 27.70 LIG 0.21  C 
ATOM     54 O    ACE T   0      62.484  47.565   6.783  1.00 31.05 LIG-0.27  OA
ATOM     55  CH3 ACE T   0      64.609  46.628   6.395  1.00 28.48 LIG 0.12  C 
ATOM     56 H    ASN T   1      63.540  49.386   5.279  1.00 28.18 LIG 0.16  HD
ENDBRANCH 51 52
BRANCH 51 57
ATOM     57  CB  ASN T   1      63.165  48.206   2.793  1.00 27.81 LIG 0.14  C 
BRANCH 57 58
ATOM     58  CG  ASN T   1      63.187  47.003   1.839  1.00 34.08 LIG 0.22  C 
ATOM     59 OD1  ASN T   1      63.898  46.021   2.057  1.00 41.34 LIG-0.27  OA
ATOM     60  ND2 ASN T   1      62.339  47.047   0.822  1.00 39.83 LIG-0.37  N 
ATOM     61 22HD ASN T   1      61.856  47.747   0.694  1.00 39.83 LIG 0.16  HD
ATOM     62 21HD ASN T   1      62.273  46.375   0.289  1.00 39.83 LIG 0.16  HD
ENDBRANCH 57 58
ENDBRANCH 51 57
ENDBRANCH 48 51
ENDBRANCH 35 47
ENDBRANCH 1 35
TORSDOF 21
ENDMDL
MODEL 39
USER: ADFR SOLUTION from run 128
USER: SCORE 17.244862 LL:  -3.847 LR: -15.109 RR:   0.000 FEB:  -8.845
USER: RMSD 10.849838
USER: SEED 127
USER: STATUS no improvement in best 33 clusters for 5 generations
USER: GENES 23
USER: genes 0 Translation |==|  0.53440 0.40962 0.50066
USER: genes 1 Rotation |==|  0.09764 0.68415 0.73258 0.51019
USER: genes 2 Torsion [C]-N--CA-[CB] |==|  0.19444
USER: genes 3 Torsion [N]-CA--CB-[CG] |==|  0.14362
USER: genes 4 Torsion [CA]-CB--CG-[CD] |==|  0.35653
USER: genes 5 Torsion [CB]-CG--CD-[OE2] |==|  0.12103
USER: genes 6 Torsion [N]-CA--C-[N] |==|  0.52302
USER: genes 7 Torsion [C]-N--CA-[C] |==|  0.62971
USER: genes 8 Torsion [N]-CA--C-[N] |==|  0.13681
USER: genes 9 Torsion [C]-N--CA-[C] |==|  0.22375
USER: genes 10 Torsion [N]-CA--C-[O] |==|  0.87655
USER: genes 11 Torsion [N]-CA--CB-[CG] |==|  0.78460
USER: genes 12 Torsion [CA]-CB--CG-[CD1] |==|  0.41302
USER: genes 13 Torsion [N]-CA--CB-[CG2] |==|  0.68594
USER: genes 14 Torsion [CA]-CB--OG1-[HG1] |==|  0.64123
USER: genes 15 Torsion [N]-C--CA-[N] |==|  0.22512
USER: genes 16 Torsion [C]-CA--CB-[CG] |==|  0.40466
USER: genes 17 Torsion [CA]-CB--CG-[CD2] |==|  0.98483
USER: genes 18 Torsion [C]-CA--N-[C] |==|  0.77161
USER: genes 19 Torsion [N]-C--CA-[N] |==|  0.30054
USER: genes 20 Torsion [C]-CA--N-[C] |==|  0.75998
USER: genes 21 Torsion [C]-CA--CB-[CG] |==|  0.83052
USER: genes 22 Torsion [CA]-CB--CG-[OD1] |==|  0.33528
ROOT
ATOM      1  C   TRP T   2      71.642  42.019   4.920  1.00 22.72 LIG 0.24  C 
ATOM      2 O    TRP T   2      71.746  41.127   4.063  1.00 25.73 LIG-0.27  OA
ATOM      3  N   GLU T   3      71.078  41.815   6.103  1.00 22.46 LIG-0.35  N 
ATOM      4 H    GLU T   3      70.954  42.417   6.703  1.00 22.46 LIG 0.16  HD
ENDROOT
BRANCH 3 5
ATOM      5  CA  GLU T   3      70.623  40.487   6.447  1.00 22.12 LIG 0.18  C 
BRANCH 5 6
ATOM      6  CB  GLU T   3      71.816  39.559   6.666  1.00 23.21 LIG 0.04  C 
BRANCH 6 7
ATOM      7  CG  GLU T   3      72.818  40.134   7.635  1.00 26.62 LIG 0.12  C 
BRANCH 7 8
ATOM      8  CD  GLU T   3      73.170  39.185   8.733  1.00 29.06 LIG 0.17  C 
ATOM      9 OE2  GLU T   3      73.381  37.986   8.436  1.00 35.17 LIG-0.65  OA
ATOM     10 OE1  GLU T   3      73.236  39.630   9.894  1.00 32.66 LIG-0.65  OA
ENDBRANCH 7 8
ENDBRANCH 6 7
ENDBRANCH 5 6
BRANCH 5 11
ATOM     11  C   GLU T   3      69.750  40.487   7.674  1.00 21.48 LIG 0.24  C 
ATOM     12  N   THR T   4      69.454  39.283   8.125  1.00 23.46 LIG-0.34  N 
ATOM     13 H    THR T   4      69.746  38.567   7.747  1.00 23.46 LIG 0.16  HD
ATOM     14 O    GLU T   3      69.342  41.519   8.164  1.00 21.28 LIG-0.27  OA
BRANCH 12 15
ATOM     15  CA  THR T   4      68.628  39.011   9.277  1.00 25.11 LIG 0.20  C 
BRANCH 15 16
ATOM     16  C   THR T   4      69.313  37.965  10.156  1.00 26.24 LIG 0.24  C 
ATOM     17 O    THR T   4      68.737  36.925  10.453  1.00 26.41 LIG-0.27  OA
ATOM     18  N   PHE T   5      70.587  38.196  10.444  1.00 29.12 LIG-0.34  N 
ATOM     19 H    PHE T   5      71.029  38.864  10.133  1.00 29.12 LIG 0.16  HD
BRANCH 18 20
ATOM     20  CA  PHE T   5      71.362  37.333  11.320  1.00 29.36 LIG 0.19  C 
BRANCH 20 21
ATOM     21  C   PHE T   5      71.846  36.092  10.525  1.00 32.56 LIG 0.20  C 
ATOM     22 O    PHE T   5      71.014  35.524   9.778  1.00 36.67 LIG-0.65  OA
ATOM     23 OXT  PHE T   5      73.040  35.693  10.618  1.00 34.39 LIG-0.65  OA
ENDBRANCH 20 21
BRANCH 20 24
ATOM     24  CB  PHE T   5      70.508  36.849  12.484  1.00 26.24 LIG 0.07  C 
BRANCH 24 25
ATOM     25  CG  PHE T   5      70.303  37.859  13.564  1.00 22.58 LIG-0.06  A 
ATOM     26  CD1 PHE T   5      69.133  37.864  14.300  1.00 21.65 LIG 0.01  A 
ATOM     27  CE1 PHE T   5      68.880  38.861  15.207  1.00 20.51 LIG 0.00  A 
ATOM     28  CZ  PHE T   5      69.801  39.862  15.391  1.00 20.87 LIG 0.00  A 
ATOM     29  CE2 PHE T   5      70.982  39.855  14.664  1.00 20.50 LIG 0.00  A 
ATOM     30  CD2 PHE T   5      71.225  38.865  13.768  1.00 18.29 LIG 0.01  A 
ENDBRANCH 24 25
ENDBRANCH 20 24
ENDBRANCH 18 20
ENDBRANCH 15 16
BRANCH 15 31
ATOM     31  CB  THR T   4      67.236  38.521   8.743  1.00 25.29 LIG 0.15  C 
ATOM     32  CG2 THR T   4      66.109  39.482   9.033  1.00 28.15 LIG 0.04  C 
BRANCH 31 33
ATOM     33 OG1  THR T   4      67.324  38.237   7.337  1.00 26.44 LIG-0.39  OA
ATOM     34 HG1  THR T   4      66.703  38.632   6.932  1.00 26.44 LIG 0.21  HD
ENDBRANCH 31 33
ENDBRANCH 15 31
ENDBRANCH 12 15
ENDBRANCH 5 11
ENDBRANCH 3 5
BRANCH 1 35
ATOM     35  CA  TRP T   2      72.114  43.438   4.635  1.00 22.55 LIG 0.18  C 
BRANCH 35 36
ATOM     36  CB  TRP T   2      72.214  43.651   3.119  1.00 18.37 LIG 0.07  C 
BRANCH 36 37
ATOM     37  CG  TRP T   2      71.856  45.059   2.715  1.00 15.70 LIG-0.03  A 
ATOM     38  CD2 TRP T   2      71.358  46.088   3.572  1.00  9.74 LIG-0.00  A 
ATOM     39  CE2 TRP T   2      71.170  47.236   2.783  1.00 12.08 LIG 0.04  A 
ATOM     40  CE3 TRP T   2      71.040  46.148   4.926  1.00  8.42 LIG 0.01  A 
ATOM     41  CZ2 TRP T   2      70.682  48.427   3.314  1.00 12.57 LIG 0.03  A 
ATOM     42  NE1 TRP T   2      71.543  46.925   1.498  1.00 15.46 LIG-0.36  N 
ATOM     43  CH2 TRP T   2      70.384  48.438   4.642  1.00  9.29 LIG 0.00  A 
ATOM     44  CZ3 TRP T   2      70.564  47.309   5.439  1.00  5.55 LIG 0.00  A 
ATOM     45 HE1  TRP T   2      71.519  47.461   0.827  1.00 15.46 LIG 0.17  HD
ATOM     46  CD1 TRP T   2      71.959  45.617   1.463  1.00 15.83 LIG 0.10  A 
ENDBRANCH 36 37
ENDBRANCH 35 36
BRANCH 35 47
ATOM     47  N   TRP T   2      73.408  43.749   5.227  1.00 22.15 LIG-0.35  N 
ATOM     48  C   ASN T   1      73.561  44.115   6.491  1.00 24.32 LIG 0.24  C 
ATOM     49 O    ASN T   1      72.610  44.284   7.261  1.00 24.18 LIG-0.27  OA
ATOM     50 H    TRP T   2      74.065  43.672   4.678  1.00 22.15 LIG 0.16  HD
BRANCH 48 51
ATOM     51  CA  ASN T   1      74.981  44.495   6.897  1.00 25.81 LIG 0.18  C 
BRANCH 51 52
ATOM     52  N   ASN T   1      75.256  45.888   7.138  1.00 28.18 LIG-0.35  N 
ATOM     53  C   ACE T   0      75.595  46.682   6.128  1.00 27.70 LIG 0.21  C 
ATOM     54 O    ACE T   0      76.545  47.429   6.176  1.00 31.05 LIG-0.27  OA
ATOM     55  CH3 ACE T   0      74.795  46.579   4.851  1.00 28.48 LIG 0.12  C 
ATOM     56 H    ASN T   1      75.184  46.139   7.957  1.00 28.18 LIG 0.16  HD
ENDBRANCH 51 52
BRANCH 51 57
ATOM     57  CB  ASN T   1      75.597  43.569   7.982  1.00 27.81 LIG 0.14  C 
BRANCH 57 58
ATOM     58  CG  ASN T   1      74.827  43.560   9.310  1.00 34.08 LIG 0.22  C 
ATOM     59 OD1  ASN T   1      74.351  42.523   9.773  1.00 41.34 LIG-0.27  OA
ATOM     60  ND2 ASN T   1      74.780  44.710   9.967  1.00 39.83 LIG-0.37  N 
ATOM     61 22HD ASN T   1      75.121  45.419   9.619  1.00 39.83 LIG 0.16  HD
ATOM     62 21HD ASN T   1      74.408  44.747  10.742  1.00 39.83 LIG 0.16  HD
ENDBRANCH 57 58
ENDBRANCH 51 57
ENDBRANCH 48 51
ENDBRANCH 35 47
ENDBRANCH 1 35
TORSDOF 21
ENDMDL
MODEL 40
USER: ADFR SOLUTION from run 153
USER: SCORE 17.991587 LL:  -3.206 LR: -15.102 RR:   0.000 FEB:  -8.838
USER: RMSD 9.365914
USER: SEED 152
USER: STATUS no improvement in best 12 clusters for 5 generations
USER: GENES 23
USER: genes 0 Translation |==|  0.46816 0.64600 0.47384
USER: genes 1 Rotation |==|  0.43333 0.25867 0.10983 0.68730
USER: genes 2 Torsion [C]-N--CA-[CB] |==|  0.82623
USER: genes 3 Torsion [N]-CA--CB-[CG] |==|  0.90638
USER: genes 4 Torsion [CA]-CB--CG-[CD] |==|  0.30761
USER: genes 5 Torsion [CB]-CG--CD-[OE2] |==|  0.58572
USER: genes 6 Torsion [N]-CA--C-[N] |==|  0.34510
USER: genes 7 Torsion [C]-N--CA-[C] |==|  0.77309
USER: genes 8 Torsion [N]-CA--C-[N] |==|  0.40583
USER: genes 9 Torsion [C]-N--CA-[C] |==|  0.87553
USER: genes 10 Torsion [N]-CA--C-[O] |==|  0.86915
USER: genes 11 Torsion [N]-CA--CB-[CG] |==|  0.71998
USER: genes 12 Torsion [CA]-CB--CG-[CD1] |==|  0.53493
USER: genes 13 Torsion [N]-CA--CB-[CG2] |==|  0.37289
USER: genes 14 Torsion [CA]-CB--OG1-[HG1] |==|  0.72659
USER: genes 15 Torsion [N]-C--CA-[N] |==|  0.08349
USER: genes 16 Torsion [C]-CA--CB-[CG] |==|  0.17095
USER: genes 17 Torsion [CA]-CB--CG-[CD2] |==|  0.55919
USER: genes 18 Torsion [C]-CA--N-[C] |==|  0.15071
USER: genes 19 Torsion [N]-C--CA-[N] |==|  0.43661
USER: genes 20 Torsion [C]-CA--N-[C] |==|  0.77177
USER: genes 21 Torsion [C]-CA--CB-[CG] |==|  0.80765
USER: genes 22 Torsion [CA]-CB--CG-[OD1] |==|  0.06204
ROOT
ATOM      1  C   TRP T   2      69.655  49.110   4.115  1.00 22.72 LIG 0.24  C 
ATOM      2 O    TRP T   2      69.053  48.546   5.043  1.00 25.73 LIG-0.27  OA
ATOM      3  N   GLU T   3      70.971  49.043   3.968  1.00 22.46 LIG-0.35  N 
ATOM      4 H    GLU T   3      71.424  49.451   3.363  1.00 22.46 LIG 0.16  HD
ENDROOT
BRANCH 3 5
ATOM      5  CA  GLU T   3      71.741  48.227   4.879  1.00 22.12 LIG 0.18  C 
BRANCH 5 6
ATOM      6  CB  GLU T   3      71.608  48.755   6.305  1.00 23.21 LIG 0.04  C 
BRANCH 6 7
ATOM      7  CG  GLU T   3      71.476  50.256   6.349  1.00 26.62 LIG 0.12  C 
BRANCH 7 8
ATOM      8  CD  GLU T   3      70.116  50.705   6.774  1.00 29.06 LIG 0.17  C 
ATOM      9 OE2  GLU T   3      69.679  51.787   6.320  1.00 35.17 LIG-0.65  OA
ATOM     10 OE1  GLU T   3      69.480  49.981   7.563  1.00 32.66 LIG-0.65  OA
ENDBRANCH 7 8
ENDBRANCH 6 7
ENDBRANCH 5 6
BRANCH 5 11
ATOM     11  C   GLU T   3      71.327  46.780   4.834  1.00 21.48 LIG 0.24  C 
ATOM     12  N   THR T   4      72.313  45.944   4.570  1.00 23.46 LIG-0.34  N 
ATOM     13 H    THR T   4      73.120  46.213   4.442  1.00 23.46 LIG 0.16  HD
ATOM     14 O    GLU T   3      70.172  46.444   4.998  1.00 21.28 LIG-0.27  OA
BRANCH 12 15
ATOM     15  CA  THR T   4      72.177  44.511   4.463  1.00 25.11 LIG 0.20  C 
BRANCH 15 16
ATOM     16  C   THR T   4      72.189  43.895   5.860  1.00 26.24 LIG 0.24  C 
ATOM     17 O    THR T   4      72.769  44.455   6.784  1.00 26.41 LIG-0.27  OA
ATOM     18  N   PHE T   5      71.431  42.820   6.027  1.00 29.12 LIG-0.34  N 
ATOM     19 H    PHE T   5      70.925  42.498   5.411  1.00 29.12 LIG 0.16  HD
BRANCH 18 20
ATOM     20  CA  PHE T   5      71.382  42.080   7.276  1.00 29.36 LIG 0.19  C 
BRANCH 20 21
ATOM     21  C   PHE T   5      72.824  41.879   7.813  1.00 32.56 LIG 0.20  C 
ATOM     22 O    PHE T   5      73.692  41.479   7.002  1.00 36.67 LIG-0.65  OA
ATOM     23 OXT  PHE T   5      73.104  42.137   9.017  1.00 34.39 LIG-0.65  OA
ENDBRANCH 20 21
BRANCH 20 24
ATOM     24  CB  PHE T   5      70.761  40.706   7.058  1.00 26.24 LIG 0.07  C 
BRANCH 24 25
ATOM     25  CG  PHE T   5      69.331  40.601   7.470  1.00 22.58 LIG-0.06  A 
ATOM     26  CD1 PHE T   5      68.724  39.363   7.571  1.00 21.65 LIG 0.01  A 
ATOM     27  CE1 PHE T   5      67.381  39.259   7.825  1.00 20.51 LIG 0.00  A 
ATOM     28  CZ  PHE T   5      66.630  40.396   7.988  1.00 20.87 LIG 0.00  A 
ATOM     29  CE2 PHE T   5      67.235  41.641   7.899  1.00 20.50 LIG 0.00  A 
ATOM     30  CD2 PHE T   5      68.565  41.735   7.646  1.00 18.29 LIG 0.01  A 
ENDBRANCH 24 25
ENDBRANCH 20 24
ENDBRANCH 18 20
ENDBRANCH 15 16
BRANCH 15 31
ATOM     31  CB  THR T   4      73.365  44.000   3.574  1.00 25.29 LIG 0.15  C 
ATOM     32  CG2 THR T   4      74.058  42.783   4.139  1.00 28.15 LIG 0.04  C 
BRANCH 31 33
ATOM     33 OG1  THR T   4      72.905  43.757   2.235  1.00 26.44 LIG-0.39  OA
ATOM     34 HG1  THR T   4      72.749  42.937   2.136  1.00 26.44 LIG 0.21  HD
ENDBRANCH 31 33
ENDBRANCH 15 31
ENDBRANCH 12 15
ENDBRANCH 5 11
ENDBRANCH 3 5
BRANCH 1 35
ATOM     35  CA  TRP T   2      68.908  49.973   3.107  1.00 22.55 LIG 0.18  C 
BRANCH 35 36
ATOM     36  CB  TRP T   2      67.486  49.429   2.920  1.00 18.37 LIG 0.07  C 
BRANCH 36 37
ATOM     37  CG  TRP T   2      66.688  49.465   4.200  1.00 15.70 LIG-0.03  A 
ATOM     38  CD2 TRP T   2      65.533  48.681   4.502  1.00  9.74 LIG-0.00  A 
ATOM     39  CE2 TRP T   2      65.118  49.029   5.800  1.00 12.08 LIG 0.04  A 
ATOM     40  CE3 TRP T   2      64.799  47.730   3.799  1.00  8.42 LIG 0.01  A 
ATOM     41  CZ2 TRP T   2      64.005  48.449   6.402  1.00 12.57 LIG 0.03  A 
ATOM     42  NE1 TRP T   2      65.987  49.981   6.274  1.00 15.46 LIG-0.36  N 
ATOM     43  CH2 TRP T   2      63.318  47.525   5.676  1.00  9.29 LIG 0.00  A 
ATOM     44  CZ3 TRP T   2      63.715  47.168   4.389  1.00  5.55 LIG 0.00  A 
ATOM     45 HE1  TRP T   2      65.946  50.356   7.047  1.00 15.46 LIG 0.17  HD
ATOM     46  CD1 TRP T   2      66.932  50.237   5.311  1.00 15.83 LIG 0.10  A 
ENDBRANCH 36 37
ENDBRANCH 35 36
BRANCH 35 47
ATOM     47  N   TRP T   2      69.552  50.028   1.801  1.00 22.15 LIG-0.35  N 
ATOM     48  C   ASN T   1      69.870  48.950   1.101  1.00 24.32 LIG 0.24  C 
ATOM     49 O    ASN T   1      69.704  47.801   1.523  1.00 24.18 LIG-0.27  OA
ATOM     50 H    TRP T   2      69.706  50.828   1.527  1.00 22.15 LIG 0.16  HD
BRANCH 48 51
ATOM     51  CA  ASN T   1      70.627  49.210  -0.196  1.00 25.81 LIG 0.18  C 
BRANCH 51 52
ATOM     52  N   ASN T   1      71.423  48.135  -0.732  1.00 28.18 LIG-0.35  N 
ATOM     53  C   ACE T   0      72.646  47.916  -0.261  1.00 27.70 LIG 0.21  C 
ATOM     54 O    ACE T   0      73.605  47.762  -0.981  1.00 31.05 LIG-0.27  OA
ATOM     55  CH3 ACE T   0      72.838  47.937   1.237  1.00 28.48 LIG 0.12  C 
ATOM     56 H    ASN T   1      71.047  47.676  -1.354  1.00 28.18 LIG 0.16  HD
ENDBRANCH 51 52
BRANCH 51 57
ATOM     57  CB  ASN T   1      69.786  49.928  -1.287  1.00 27.81 LIG 0.14  C 
BRANCH 57 58
ATOM     58  CG  ASN T   1      68.663  49.067  -1.882  1.00 34.08 LIG 0.22  C 
ATOM     59 OD1  ASN T   1      68.199  48.102  -1.274  1.00 41.34 LIG-0.27  OA
ATOM     60  ND2 ASN T   1      68.167  49.472  -3.042  1.00 39.83 LIG-0.37  N 
ATOM     61 22HD ASN T   1      68.512  50.150  -3.444  1.00 39.83 LIG 0.16  HD
ATOM     62 21HD ASN T   1      67.500  49.057  -3.392  1.00 39.83 LIG 0.16  HD
ENDBRANCH 57 58
ENDBRANCH 51 57
ENDBRANCH 48 51
ENDBRANCH 35 47
ENDBRANCH 1 35
TORSDOF 21
ENDMDL
MODEL 41
USER: ADFR SOLUTION from run 159
USER: SCORE 16.987658 LL:  -4.167 LR: -15.087 RR:   0.000 FEB:  -8.823
USER: RMSD 10.761318
USER: SEED 158
USER: STATUS no improvement in best 27 clusters for 5 generations
USER: GENES 23
USER: genes 0 Translation |==|  0.53792 0.41391 0.50393
USER: genes 1 Rotation |==|  0.11144 0.70060 0.74099 0.52654
USER: genes 2 Torsion [C]-N--CA-[CB] |==|  0.18804
USER: genes 3 Torsion [N]-CA--CB-[CG] |==|  0.12652
USER: genes 4 Torsion [CA]-CB--CG-[CD] |==|  0.33514
USER: genes 5 Torsion [CB]-CG--CD-[OE2] |==|  0.15098
USER: genes 6 Torsion [N]-CA--C-[N] |==|  0.53191
USER: genes 7 Torsion [C]-N--CA-[C] |==|  0.63212
USER: genes 8 Torsion [N]-CA--C-[N] |==|  0.14205
USER: genes 9 Torsion [C]-N--CA-[C] |==|  0.21343
USER: genes 10 Torsion [N]-CA--C-[O] |==|  0.91696
USER: genes 11 Torsion [N]-CA--CB-[CG] |==|  0.82409
USER: genes 12 Torsion [CA]-CB--CG-[CD1] |==|  0.86921
USER: genes 13 Torsion [N]-CA--CB-[CG2] |==|  0.82911
USER: genes 14 Torsion [CA]-CB--OG1-[HG1] |==|  0.08925
USER: genes 15 Torsion [N]-C--CA-[N] |==|  0.61826
USER: genes 16 Torsion [C]-CA--CB-[CG] |==|  0.51016
USER: genes 17 Torsion [CA]-CB--CG-[CD2] |==|  0.36436
USER: genes 18 Torsion [C]-CA--N-[C] |==|  0.65338
USER: genes 19 Torsion [N]-C--CA-[N] |==|  0.29716
USER: genes 20 Torsion [C]-CA--N-[C] |==|  0.70730
USER: genes 21 Torsion [C]-CA--CB-[CG] |==|  0.89954
USER: genes 22 Torsion [CA]-CB--CG-[OD1] |==|  0.76317
ROOT
ATOM      1  C   TRP T   2      71.748  42.147   5.018  1.00 22.72 LIG 0.24  C 
ATOM      2 O    TRP T   2      71.735  41.282   4.128  1.00 25.73 LIG-0.27  OA
ATOM      3  N   GLU T   3      71.199  41.958   6.211  1.00 22.46 LIG-0.35  N 
ATOM      4 H    GLU T   3      71.155  42.547   6.835  1.00 22.46 LIG 0.16  HD
ENDROOT
BRANCH 3 5
ATOM      5  CA  GLU T   3      70.620  40.673   6.524  1.00 22.12 LIG 0.18  C 
BRANCH 5 6
ATOM      6  CB  GLU T   3      71.710  39.608   6.617  1.00 23.21 LIG 0.04  C 
BRANCH 6 7
ATOM      7  CG  GLU T   3      72.898  40.075   7.420  1.00 26.62 LIG 0.12  C 
BRANCH 7 8
ATOM      8  CD  GLU T   3      73.170  39.211   8.607  1.00 29.06 LIG 0.17  C 
ATOM      9 OE2  GLU T   3      73.316  37.980   8.424  1.00 35.17 LIG-0.65  OA
ATOM     10 OE1  GLU T   3      73.236  39.755   9.725  1.00 32.66 LIG-0.65  OA
ENDBRANCH 7 8
ENDBRANCH 6 7
ENDBRANCH 5 6
BRANCH 5 11
ATOM     11  C   GLU T   3      69.832  40.703   7.807  1.00 21.48 LIG 0.24  C 
ATOM     12  N   THR T   4      69.487  39.511   8.257  1.00 23.46 LIG-0.34  N 
ATOM     13 H    THR T   4      69.705  38.786   7.848  1.00 23.46 LIG 0.16  HD
ATOM     14 O    GLU T   3      69.526  41.749   8.341  1.00 21.28 LIG-0.27  OA
BRANCH 12 15
ATOM     15  CA  THR T   4      68.724  39.269   9.457  1.00 25.11 LIG 0.20  C 
BRANCH 15 16
ATOM     16  C   THR T   4      69.407  38.178  10.280  1.00 26.24 LIG 0.24  C 
ATOM     17 O    THR T   4      68.807  37.150  10.575  1.00 26.41 LIG-0.27  OA
ATOM     18  N   PHE T   5      70.698  38.357  10.520  1.00 29.12 LIG-0.34  N 
ATOM     19 H    PHE T   5      71.151  39.018  10.208  1.00 29.12 LIG 0.16  HD
BRANCH 18 20
ATOM     20  CA  PHE T   5      71.478  37.445  11.341  1.00 29.36 LIG 0.19  C 
BRANCH 20 21
ATOM     21  C   PHE T   5      71.804  36.167  10.525  1.00 32.56 LIG 0.20  C 
ATOM     22 O    PHE T   5      70.981  35.816   9.647  1.00 36.67 LIG-0.65  OA
ATOM     23 OXT  PHE T   5      72.873  35.527  10.731  1.00 34.39 LIG-0.65  OA
ENDBRANCH 20 21
BRANCH 20 24
ATOM     24  CB  PHE T   5      70.688  37.032  12.576  1.00 26.24 LIG 0.07  C 
BRANCH 24 25
ATOM     25  CG  PHE T   5      70.360  38.153  13.505  1.00 22.58 LIG-0.06  A 
ATOM     26  CD1 PHE T   5      71.336  39.058  13.877  1.00 21.65 LIG 0.01  A 
ATOM     27  CE1 PHE T   5      71.080  40.015  14.825  1.00 20.51 LIG 0.00  A 
ATOM     28  CZ  PHE T   5      69.840  40.080  15.408  1.00 20.87 LIG 0.00  A 
ATOM     29  CE2 PHE T   5      68.853  39.182  15.031  1.00 20.50 LIG 0.00  A 
ATOM     30  CD2 PHE T   5      69.114  38.237  14.092  1.00 18.29 LIG 0.01  A 
ENDBRANCH 24 25
ENDBRANCH 20 24
ENDBRANCH 18 20
ENDBRANCH 15 16
BRANCH 15 31
ATOM     31  CB  THR T   4      67.276  38.860   9.009  1.00 25.29 LIG 0.15  C 
ATOM     32  CG2 THR T   4      66.562  39.936   8.227  1.00 28.15 LIG 0.04  C 
BRANCH 31 33
ATOM     33 OG1  THR T   4      67.322  37.628   8.271  1.00 26.44 LIG-0.39  OA
ATOM     34 HG1  THR T   4      67.947  37.149   8.564  1.00 26.44 LIG 0.21  HD
ENDBRANCH 31 33
ENDBRANCH 15 31
ENDBRANCH 12 15
ENDBRANCH 5 11
ENDBRANCH 3 5
BRANCH 1 35
ATOM     35  CA  TRP T   2      72.356  43.520   4.766  1.00 22.55 LIG 0.18  C 
BRANCH 35 36
ATOM     36  CB  TRP T   2      71.838  44.511   5.817  1.00 18.37 LIG 0.07  C 
BRANCH 36 37
ATOM     37  CG  TRP T   2      72.334  45.914   5.572  1.00 15.70 LIG-0.03  A 
ATOM     38  CD2 TRP T   2      71.542  47.103   5.553  1.00  9.74 LIG-0.00  A 
ATOM     39  CE2 TRP T   2      72.410  48.181   5.298  1.00 12.08 LIG 0.04  A 
ATOM     40  CE3 TRP T   2      70.185  47.363   5.711  1.00  8.42 LIG 0.01  A 
ATOM     41  CZ2 TRP T   2      71.954  49.492   5.205  1.00 12.57 LIG 0.03  A 
ATOM     42  NE1 TRP T   2      73.680  47.672   5.173  1.00 15.46 LIG-0.36  N 
ATOM     43  CH2 TRP T   2      70.618  49.697   5.367  1.00  9.29 LIG 0.00  A 
ATOM     44  CZ3 TRP T   2      69.744  48.642   5.621  1.00  5.55 LIG 0.00  A 
ATOM     45 HE1  TRP T   2      74.389  48.131   5.014  1.00 15.46 LIG 0.17  HD
ATOM     46  CD1 TRP T   2      73.631  46.310   5.343  1.00 15.83 LIG 0.10  A 
ENDBRANCH 36 37
ENDBRANCH 35 36
BRANCH 35 47
ATOM     47  N   TRP T   2      72.053  44.056   3.445  1.00 22.15 LIG-0.35  N 
ATOM     48  C   ASN T   1      72.984  44.450   2.590  1.00 24.32 LIG 0.24  C 
ATOM     49 O    ASN T   1      74.189  44.456   2.863  1.00 24.18 LIG-0.27  OA
ATOM     50 H    TRP T   2      71.212  44.092   3.272  1.00 22.15 LIG 0.16  HD
BRANCH 48 51
ATOM     51  CA  ASN T   1      72.467  45.074   1.299  1.00 25.81 LIG 0.18  C 
BRANCH 51 52
ATOM     52  N   ASN T   1      72.607  46.499   1.142  1.00 28.18 LIG-0.35  N 
ATOM     53  C   ACE T   0      71.545  47.287   1.265  1.00 27.70 LIG 0.21  C 
ATOM     54 O    ACE T   0      71.274  48.148   0.460  1.00 31.05 LIG-0.27  OA
ATOM     55  CH3 ACE T   0      70.610  47.035   2.425  1.00 28.48 LIG 0.12  C 
ATOM     56 H    ASN T   1      73.404  46.772   0.970  1.00 28.18 LIG 0.16  HD
ENDBRANCH 51 52
BRANCH 51 57
ATOM     57  CB  ASN T   1      72.864  44.292   0.016  1.00 27.81 LIG 0.14  C 
BRANCH 57 58
ATOM     58  CG  ASN T   1      74.264  43.665   0.071  1.00 34.08 LIG 0.22  C 
ATOM     59 OD1  ASN T   1      75.270  44.307  -0.233  1.00 41.34 LIG-0.27  OA
ATOM     60  ND2 ASN T   1      74.334  42.429   0.543  1.00 39.83 LIG-0.37  N 
ATOM     61 22HD ASN T   1      73.614  42.005   0.747  1.00 39.83 LIG 0.16  HD
ATOM     62 21HD ASN T   1      75.100  42.052   0.646  1.00 39.83 LIG 0.16  HD
ENDBRANCH 57 58
ENDBRANCH 51 57
ENDBRANCH 48 51
ENDBRANCH 35 47
ENDBRANCH 1 35
TORSDOF 21
ENDMDL
MODEL 42
USER: ADFR SOLUTION from run 108
USER: SCORE 17.578973 LL:  -3.770 LR: -15.017 RR:   0.000 FEB:  -8.752
USER: RMSD 10.520334
USER: SEED 107
USER: STATUS no improvement in best 35 clusters for 5 generations
USER: GENES 23
USER: genes 0 Translation |==|  0.53132 0.50658 0.51691
USER: genes 1 Rotation |==|  0.08870 0.60643 0.76149 0.53361
USER: genes 2 Torsion [C]-N--CA-[CB] |==|  0.19194
USER: genes 3 Torsion [N]-CA--CB-[CG] |==|  0.53075
USER: genes 4 Torsion [CA]-CB--CG-[CD] |==|  0.15559
USER: genes 5 Torsion [CB]-CG--CD-[OE2] |==|  0.11834
USER: genes 6 Torsion [N]-CA--C-[N] |==|  0.40109
USER: genes 7 Torsion [C]-N--CA-[C] |==|  0.70459
USER: genes 8 Torsion [N]-CA--C-[N] |==|  0.41599
USER: genes 9 Torsion [C]-N--CA-[C] |==|  0.18566
USER: genes 10 Torsion [N]-CA--C-[O] |==|  0.68684
USER: genes 11 Torsion [N]-CA--CB-[CG] |==|  0.66991
USER: genes 12 Torsion [CA]-CB--CG-[CD1] |==|  0.32225
USER: genes 13 Torsion [N]-CA--CB-[CG2] |==|  0.48553
USER: genes 14 Torsion [CA]-CB--OG1-[HG1] |==|  0.41020
USER: genes 15 Torsion [N]-C--CA-[N] |==|  0.37779
USER: genes 16 Torsion [C]-CA--CB-[CG] |==|  0.40431
USER: genes 17 Torsion [CA]-CB--CG-[CD2] |==|  0.59159
USER: genes 18 Torsion [C]-CA--N-[C] |==|  0.83179
USER: genes 19 Torsion [N]-C--CA-[N] |==|  0.88519
USER: genes 20 Torsion [C]-CA--N-[C] |==|  0.80236
USER: genes 21 Torsion [C]-CA--CB-[CG] |==|  0.85391
USER: genes 22 Torsion [CA]-CB--CG-[OD1] |==|  0.24882
ROOT
ATOM      1  C   TRP T   2      71.549  44.927   5.407  1.00 22.72 LIG 0.24  C 
ATOM      2 O    TRP T   2      71.787  44.329   4.346  1.00 25.73 LIG-0.27  OA
ATOM      3  N   GLU T   3      71.120  44.309   6.499  1.00 22.46 LIG-0.35  N 
ATOM      4 H    GLU T   3      70.908  44.695   7.237  1.00 22.46 LIG 0.16  HD
ENDROOT
BRANCH 3 5
ATOM      5  CA  GLU T   3      70.983  42.871   6.486  1.00 22.12 LIG 0.18  C 
BRANCH 5 6
ATOM      6  CB  GLU T   3      72.357  42.208   6.425  1.00 23.21 LIG 0.04  C 
BRANCH 6 7
ATOM      7  CG  GLU T   3      72.266  40.729   6.142  1.00 26.62 LIG 0.12  C 
BRANCH 7 8
ATOM      8  CD  GLU T   3      71.516  40.426   4.887  1.00 29.06 LIG 0.17  C 
ATOM      9 OE2  GLU T   3      71.735  41.135   3.878  1.00 35.17 LIG-0.65  OA
ATOM     10 OE1  GLU T   3      70.704  39.481   4.904  1.00 32.66 LIG-0.65  OA
ENDBRANCH 7 8
ENDBRANCH 6 7
ENDBRANCH 5 6
BRANCH 5 11
ATOM     11  C   GLU T   3      70.229  42.362   7.687  1.00 21.48 LIG 0.24  C 
ATOM     12  N   THR T   4      69.456  41.322   7.437  1.00 23.46 LIG-0.34  N 
ATOM     13 H    THR T   4      69.400  40.970   6.654  1.00 23.46 LIG 0.16  HD
ATOM     14 O    GLU T   3      70.320  42.901   8.770  1.00 21.28 LIG-0.27  OA
BRANCH 12 15
ATOM     15  CA  THR T   4      68.626  40.655   8.412  1.00 25.11 LIG 0.20  C 
BRANCH 15 16
ATOM     16  C   THR T   4      69.253  39.311   8.777  1.00 26.24 LIG 0.24  C 
ATOM     17 O    THR T   4      70.023  38.752   8.004  1.00 26.41 LIG-0.27  OA
ATOM     18  N   PHE T   5      69.022  38.879  10.009  1.00 29.12 LIG-0.34  N 
ATOM     19 H    PHE T   5      68.583  39.331  10.594  1.00 29.12 LIG 0.16  HD
BRANCH 18 20
ATOM     20  CA  PHE T   5      69.493  37.591  10.490  1.00 29.36 LIG 0.19  C 
BRANCH 20 21
ATOM     21  C   PHE T   5      71.042  37.602  10.563  1.00 32.56 LIG 0.20  C 
ATOM     22 O    PHE T   5      71.663  36.857   9.768  1.00 36.67 LIG-0.65  OA
ATOM     23 OXT  PHE T   5      71.643  38.355  11.379  1.00 34.39 LIG-0.65  OA
ENDBRANCH 20 21
BRANCH 20 24
ATOM     24  CB  PHE T   5      69.069  36.479   9.539  1.00 26.24 LIG 0.07  C 
BRANCH 24 25
ATOM     25  CG  PHE T   5      68.182  35.446  10.149  1.00 22.58 LIG-0.06  A 
ATOM     26  CD1 PHE T   5      66.887  35.282   9.692  1.00 21.65 LIG 0.01  A 
ATOM     27  CE1 PHE T   5      66.024  34.426  10.326  1.00 20.51 LIG 0.00  A 
ATOM     28  CZ  PHE T   5      66.450  33.720  11.423  1.00 20.87 LIG 0.00  A 
ATOM     29  CE2 PHE T   5      67.750  33.872  11.879  1.00 20.50 LIG 0.00  A 
ATOM     30  CD2 PHE T   5      68.599  34.722  11.247  1.00 18.29 LIG 0.01  A 
ENDBRANCH 24 25
ENDBRANCH 20 24
ENDBRANCH 18 20
ENDBRANCH 15 16
BRANCH 15 31
ATOM     31  CB  THR T   4      67.201  40.496   7.774  1.00 25.29 LIG 0.15  C 
ATOM     32  CG2 THR T   4      66.245  39.700   8.629  1.00 28.15 LIG 0.04  C 
BRANCH 31 33
ATOM     33 OG1  THR T   4      66.659  41.789   7.458  1.00 26.44 LIG-0.39  OA
ATOM     34 HG1  THR T   4      66.173  41.730   6.775  1.00 26.44 LIG 0.21  HD
ENDBRANCH 31 33
ENDBRANCH 15 31
ENDBRANCH 12 15
ENDBRANCH 5 11
ENDBRANCH 3 5
BRANCH 1 35
ATOM     35  CA  TRP T   2      71.687  46.441   5.501  1.00 22.55 LIG 0.18  C 
BRANCH 35 36
ATOM     36  CB  TRP T   2      70.505  47.109   4.788  1.00 18.37 LIG 0.07  C 
BRANCH 36 37
ATOM     37  CG  TRP T   2      70.081  48.389   5.462  1.00 15.70 LIG-0.03  A 
ATOM     38  CD2 TRP T   2      68.752  48.908   5.541  1.00  9.74 LIG-0.00  A 
ATOM     39  CE2 TRP T   2      68.814  50.113   6.263  1.00 12.08 LIG 0.04  A 
ATOM     40  CE3 TRP T   2      67.518  48.480   5.060  1.00  8.42 LIG 0.01  A 
ATOM     41  CZ2 TRP T   2      67.683  50.883   6.515  1.00 12.57 LIG 0.03  A 
ATOM     42  NE1 TRP T   2      70.125  50.319   6.617  1.00 15.46 LIG-0.36  N 
ATOM     43  CH2 TRP T   2      66.498  50.426   6.025  1.00  9.29 LIG 0.00  A 
ATOM     44  CZ3 TRP T   2      66.418  49.234   5.308  1.00  5.55 LIG 0.00  A 
ATOM     45 HE1  TRP T   2      70.422  50.990   7.065  1.00 15.46 LIG 0.17  HD
ATOM     46  CD1 TRP T   2      70.882  49.279   6.138  1.00 15.83 LIG 0.10  A 
ENDBRANCH 36 37
ENDBRANCH 35 36
BRANCH 35 47
ATOM     47  N   TRP T   2      72.921  46.948   4.915  1.00 22.15 LIG-0.35  N 
ATOM     48  C   ASN T   1      74.126  46.602   5.342  1.00 24.32 LIG 0.24  C 
ATOM     49 O    ASN T   1      74.307  45.864   6.316  1.00 24.18 LIG-0.27  OA
ATOM     50 H    TRP T   2      72.794  47.496   4.265  1.00 22.15 LIG 0.16  HD
BRANCH 48 51
ATOM     51  CA  ASN T   1      75.292  47.316   4.668  1.00 25.81 LIG 0.18  C 
BRANCH 51 52
ATOM     52  N   ASN T   1      75.220  47.515   3.244  1.00 28.18 LIG-0.35  N 
ATOM     53  C   ACE T   0      75.351  46.479   2.421  1.00 27.70 LIG 0.21  C 
ATOM     54 O    ACE T   0      76.089  46.496   1.463  1.00 31.05 LIG-0.27  OA
ATOM     55  CH3 ACE T   0      74.595  45.215   2.754  1.00 28.48 LIG 0.12  C 
ATOM     56 H    ASN T   1      75.091  48.327   2.993  1.00 28.18 LIG 0.16  HD
ENDBRANCH 51 52
BRANCH 51 57
ATOM     57  CB  ASN T   1      75.778  48.583   5.423  1.00 27.81 LIG 0.14  C 
BRANCH 57 58
ATOM     58  CG  ASN T   1      74.664  49.590   5.742  1.00 34.08 LIG 0.22  C 
ATOM     59 OD1  ASN T   1      74.019  49.528   6.790  1.00 41.34 LIG-0.27  OA
ATOM     60  ND2 ASN T   1      74.496  50.574   4.870  1.00 39.83 LIG-0.37  N 
ATOM     61 22HD ASN T   1      74.960  50.591   4.146  1.00 39.83 LIG 0.16  HD
ATOM     62 21HD ASN T   1      73.922  51.195   5.029  1.00 39.83 LIG 0.16  HD
ENDBRANCH 57 58
ENDBRANCH 51 57
ENDBRANCH 48 51
ENDBRANCH 35 47
ENDBRANCH 1 35
TORSDOF 21
ENDMDL
MODEL 43
USER: ADFR SOLUTION from run 132
USER: SCORE 18.329572 LL:  -5.380 LR: -14.957 RR:   0.000 FEB:  -8.693
USER: RMSD 10.543452
USER: SEED 131
USER: STATUS no improvement in best 8 clusters for 5 generations
USER: GENES 23
USER: genes 0 Translation |==|  0.51774 0.56505 0.50411
USER: genes 1 Rotation |==|  0.49155 0.39309 0.01383 0.54621
USER: genes 2 Torsion [C]-N--CA-[CB] |==|  0.25287
USER: genes 3 Torsion [N]-CA--CB-[CG] |==|  0.40969
USER: genes 4 Torsion [CA]-CB--CG-[CD] |==|  0.23488
USER: genes 5 Torsion [CB]-CG--CD-[OE2] |==|  0.90106
USER: genes 6 Torsion [N]-CA--C-[N] |==|  0.35975
USER: genes 7 Torsion [C]-N--CA-[C] |==|  0.57222
USER: genes 8 Torsion [N]-CA--C-[N] |==|  0.06789
USER: genes 9 Torsion [C]-N--CA-[C] |==|  0.81590
USER: genes 10 Torsion [N]-CA--C-[O] |==|  0.87021
USER: genes 11 Torsion [N]-CA--CB-[CG] |==|  0.79904
USER: genes 12 Torsion [CA]-CB--CG-[CD1] |==|  0.56730
USER: genes 13 Torsion [N]-CA--CB-[CG2] |==|  0.54723
USER: genes 14 Torsion [CA]-CB--OG1-[HG1] |==|  0.88955
USER: genes 15 Torsion [N]-C--CA-[N] |==|  0.46524
USER: genes 16 Torsion [C]-CA--CB-[CG] |==|  0.52757
USER: genes 17 Torsion [CA]-CB--CG-[CD2] |==|  0.20485
USER: genes 18 Torsion [C]-CA--N-[C] |==|  0.70829
USER: genes 19 Torsion [N]-C--CA-[N] |==|  0.44161
USER: genes 20 Torsion [C]-CA--N-[C] |==|  0.72281
USER: genes 21 Torsion [C]-CA--CB-[CG] |==|  0.24755
USER: genes 22 Torsion [CA]-CB--CG-[OD1] |==|  0.28810
ROOT
ATOM      1  C   TRP T   2      71.142  46.682   5.023  1.00 22.72 LIG 0.24  C 
ATOM      2 O    TRP T   2      70.026  46.221   5.309  1.00 25.73 LIG-0.27  OA
ATOM      3  N   GLU T   3      72.241  45.940   5.007  1.00 22.46 LIG-0.35  N 
ATOM      4 H    GLU T   3      73.035  46.232   4.853  1.00 22.46 LIG 0.16  HD
ENDROOT
BRANCH 3 5
ATOM      5  CA  GLU T   3      72.139  44.522   5.264  1.00 22.12 LIG 0.18  C 
BRANCH 5 6
ATOM      6  CB  GLU T   3      71.944  43.759   3.956  1.00 23.21 LIG 0.04  C 
BRANCH 6 7
ATOM      7  CG  GLU T   3      72.581  42.392   3.991  1.00 26.62 LIG 0.12  C 
BRANCH 7 8
ATOM      8  CD  GLU T   3      71.699  41.359   4.611  1.00 29.06 LIG 0.17  C 
ATOM      9 OE2  GLU T   3      70.966  41.701   5.568  1.00 35.17 LIG-0.65  OA
ATOM     10 OE1  GLU T   3      71.734  40.203   4.147  1.00 32.66 LIG-0.65  OA
ENDBRANCH 7 8
ENDBRANCH 6 7
ENDBRANCH 5 6
BRANCH 5 11
ATOM     11  C   GLU T   3      73.347  43.987   5.986  1.00 21.48 LIG 0.24  C 
ATOM     12  N   THR T   4      73.063  43.272   7.057  1.00 23.46 LIG-0.34  N 
ATOM     13 H    THR T   4      72.253  43.124   7.309  1.00 23.46 LIG 0.16  HD
ATOM     14 O    GLU T   3      74.474  44.236   5.611  1.00 21.28 LIG-0.27  OA
BRANCH 12 15
ATOM     15  CA  THR T   4      74.039  42.658   7.926  1.00 25.11 LIG 0.20  C 
BRANCH 15 16
ATOM     16  C   THR T   4      73.412  41.447   8.616  1.00 26.24 LIG 0.24  C 
ATOM     17 O    THR T   4      73.768  41.117   9.742  1.00 26.41 LIG-0.27  OA
ATOM     18  N   PHE T   5      72.389  40.886   7.986  1.00 29.12 LIG-0.34  N 
ATOM     19 H    PHE T   5      72.058  41.194   7.254  1.00 29.12 LIG 0.16  HD
BRANCH 18 20
ATOM     20  CA  PHE T   5      71.725  39.690   8.476  1.00 29.36 LIG 0.19  C 
BRANCH 20 21
ATOM     21  C   PHE T   5      72.706  38.491   8.407  1.00 32.56 LIG 0.20  C 
ATOM     22 O    PHE T   5      73.355  38.336   7.345  1.00 36.67 LIG-0.65  OA
ATOM     23 OXT  PHE T   5      72.854  37.722   9.397  1.00 34.39 LIG-0.65  OA
ENDBRANCH 20 21
BRANCH 20 24
ATOM     24  CB  PHE T   5      70.512  39.363   7.616  1.00 26.24 LIG 0.07  C 
BRANCH 24 25
ATOM     25  CG  PHE T   5      69.354  40.286   7.801  1.00 22.58 LIG-0.06  A 
ATOM     26  CD1 PHE T   5      68.071  39.864   7.505  1.00 21.65 LIG 0.01  A 
ATOM     27  CE1 PHE T   5      67.017  40.739   7.550  1.00 20.51 LIG 0.00  A 
ATOM     28  CZ  PHE T   5      67.235  42.048   7.899  1.00 20.87 LIG 0.00  A 
ATOM     29  CE2 PHE T   5      68.517  42.475   8.209  1.00 20.50 LIG 0.00  A 
ATOM     30  CD2 PHE T   5      69.556  41.603   8.161  1.00 18.29 LIG 0.01  A 
ENDBRANCH 24 25
ENDBRANCH 20 24
ENDBRANCH 18 20
ENDBRANCH 15 16
BRANCH 15 31
ATOM     31  CB  THR T   4      74.502  43.754   8.949  1.00 25.29 LIG 0.15  C 
ATOM     32  CG2 THR T   4      75.791  43.412   9.655  1.00 28.15 LIG 0.04  C 
BRANCH 31 33
ATOM     33 OG1  THR T   4      74.596  45.028   8.291  1.00 26.44 LIG-0.39  OA
ATOM     34 HG1  THR T   4      74.921  44.924   7.523  1.00 26.44 LIG 0.21  HD
ENDBRANCH 31 33
ENDBRANCH 15 31
ENDBRANCH 12 15
ENDBRANCH 5 11
ENDBRANCH 3 5
BRANCH 1 35
ATOM     35  CA  TRP T   2      71.325  48.163   4.724  1.00 22.55 LIG 0.18  C 
BRANCH 35 36
ATOM     36  CB  TRP T   2      72.028  48.843   5.907  1.00 18.37 LIG 0.07  C 
BRANCH 36 37
ATOM     37  CG  TRP T   2      72.027  50.345   5.785  1.00 15.70 LIG-0.03  A 
ATOM     38  CD2 TRP T   2      70.909  51.213   5.981  1.00  9.74 LIG-0.00  A 
ATOM     39  CE2 TRP T   2      71.359  52.530   5.775  1.00 12.08 LIG 0.04  A 
ATOM     40  CE3 TRP T   2      69.570  51.007   6.296  1.00  8.42 LIG 0.01  A 
ATOM     41  CZ2 TRP T   2      70.510  53.627   5.882  1.00 12.57 LIG 0.03  A 
ATOM     42  NE1 TRP T   2      72.697  52.470   5.471  1.00 15.46 LIG-0.36  N 
ATOM     43  CH2 TRP T   2      69.208  53.377   6.192  1.00  9.29 LIG 0.00  A 
ATOM     44  CZ3 TRP T   2      68.745  52.079   6.400  1.00  5.55 LIG 0.00  A 
ATOM     45 HE1  TRP T   2      73.202  53.145   5.302  1.00 15.46 LIG 0.17  HD
ATOM     46  CD1 TRP T   2      73.096  51.156   5.483  1.00 15.83 LIG 0.10  A 
ENDBRANCH 36 37
ENDBRANCH 35 36
BRANCH 35 47
ATOM     47  N   TRP T   2      70.072  48.863   4.473  1.00 22.15 LIG-0.35  N 
ATOM     48  C   ASN T   1      69.678  49.236   3.265  1.00 24.32 LIG 0.24  C 
ATOM     49 O    ASN T   1      70.368  49.077   2.253  1.00 24.18 LIG-0.27  OA
ATOM     50 H    TRP T   2      69.612  49.012   5.183  1.00 22.15 LIG 0.16  HD
BRANCH 48 51
ATOM     51  CA  ASN T   1      68.386  50.045   3.217  1.00 25.81 LIG 0.18  C 
BRANCH 51 52
ATOM     52  N   ASN T   1      68.149  50.857   2.051  1.00 28.18 LIG-0.35  N 
ATOM     53  C   ACE T   0      68.397  52.162   2.090  1.00 27.70 LIG 0.21  C 
ATOM     54 O    ACE T   0      67.605  52.988   1.698  1.00 31.05 LIG-0.27  OA
ATOM     55  CH3 ACE T   0      69.694  52.615   2.718  1.00 28.48 LIG 0.12  C 
ATOM     56 H    ASN T   1      67.848  50.435   1.366  1.00 28.18 LIG 0.16  HD
ENDBRANCH 51 52
BRANCH 51 57
ATOM     57  CB  ASN T   1      67.126  49.250   3.656  1.00 27.81 LIG 0.14  C 
BRANCH 57 58
ATOM     58  CG  ASN T   1      66.834  49.317   5.162  1.00 34.08 LIG 0.22  C 
ATOM     59 OD1  ASN T   1      65.937  50.030   5.613  1.00 41.34 LIG-0.27  OA
ATOM     60  ND2 ASN T   1      67.541  48.504   5.932  1.00 39.83 LIG-0.37  N 
ATOM     61 22HD ASN T   1      68.162  48.018   5.588  1.00 39.83 LIG 0.16  HD
ATOM     62 21HD ASN T   1      67.379  48.462   6.776  1.00 39.83 LIG 0.16  HD
ENDBRANCH 57 58
ENDBRANCH 51 57
ENDBRANCH 48 51
ENDBRANCH 35 47
ENDBRANCH 1 35
TORSDOF 21
ENDMDL
MODEL 44
USER: ADFR SOLUTION from run 82
USER: SCORE 19.783346 LL:  -5.849 LR: -14.916 RR:   0.000 FEB:  -8.651
USER: RMSD 10.338150
USER: SEED 81
USER: STATUS searching
USER: GENES 23
USER: genes 0 Translation |==|  0.54248 0.52322 0.46640
USER: genes 1 Rotation |==|  0.94500 0.69445 0.61410 0.53377
USER: genes 2 Torsion [C]-N--CA-[CB] |==|  0.21079
USER: genes 3 Torsion [N]-CA--CB-[CG] |==|  0.58205
USER: genes 4 Torsion [CA]-CB--CG-[CD] |==|  0.61885
USER: genes 5 Torsion [CB]-CG--CD-[OE2] |==|  0.05077
USER: genes 6 Torsion [N]-CA--C-[N] |==|  0.45556
USER: genes 7 Torsion [C]-N--CA-[C] |==|  0.78333
USER: genes 8 Torsion [N]-CA--C-[N] |==|  0.94013
USER: genes 9 Torsion [C]-N--CA-[C] |==|  0.15329
USER: genes 10 Torsion [N]-CA--C-[O] |==|  0.58045
USER: genes 11 Torsion [N]-CA--CB-[CG] |==|  0.73055
USER: genes 12 Torsion [CA]-CB--CG-[CD1] |==|  0.56752
USER: genes 13 Torsion [N]-CA--CB-[CG2] |==|  0.88281
USER: genes 14 Torsion [CA]-CB--OG1-[HG1] |==|  0.11989
USER: genes 15 Torsion [N]-C--CA-[N] |==|  0.43474
USER: genes 16 Torsion [C]-CA--CB-[CG] |==|  0.88616
USER: genes 17 Torsion [CA]-CB--CG-[CD2] |==|  0.25252
USER: genes 18 Torsion [C]-CA--N-[C] |==|  0.81017
USER: genes 19 Torsion [N]-C--CA-[N] |==|  0.00287
USER: genes 20 Torsion [C]-CA--N-[C] |==|  0.74015
USER: genes 21 Torsion [C]-CA--CB-[CG] |==|  0.23838
USER: genes 22 Torsion [CA]-CB--CG-[OD1] |==|  0.36424
ROOT
ATOM      1  C   TRP T   2      71.884  45.427   3.892  1.00 22.72 LIG 0.24  C 
ATOM      2 O    TRP T   2      72.840  46.076   4.345  1.00 25.73 LIG-0.27  OA
ATOM      3  N   GLU T   3      71.735  44.127   4.106  1.00 22.46 LIG-0.35  N 
ATOM      4 H    GLU T   3      71.109  43.638   3.777  1.00 22.46 LIG 0.16  HD
ENDROOT
BRANCH 3 5
ATOM      5  CA  GLU T   3      72.679  43.439   4.956  1.00 22.12 LIG 0.18  C 
BRANCH 5 6
ATOM      6  CB  GLU T   3      72.403  43.760   6.423  1.00 23.21 LIG 0.04  C 
BRANCH 6 7
ATOM      7  CG  GLU T   3      73.653  43.708   7.265  1.00 26.62 LIG 0.12  C 
BRANCH 7 8
ATOM      8  CD  GLU T   3      73.440  43.025   8.575  1.00 29.06 LIG 0.17  C 
ATOM      9 OE2  GLU T   3      72.435  42.288   8.704  1.00 35.17 LIG-0.65  OA
ATOM     10 OE1  GLU T   3      74.272  43.221   9.482  1.00 32.66 LIG-0.65  OA
ENDBRANCH 7 8
ENDBRANCH 6 7
ENDBRANCH 5 6
BRANCH 5 11
ATOM     11  C   GLU T   3      72.648  41.948   4.750  1.00 21.48 LIG 0.24  C 
ATOM     12  N   THR T   4      73.696  41.313   5.240  1.00 23.46 LIG-0.34  N 
ATOM     13 H    THR T   4      74.333  41.725   5.647  1.00 23.46 LIG 0.16  HD
ATOM     14 O    GLU T   3      71.741  41.408   4.151  1.00 21.28 LIG-0.27  OA
BRANCH 12 15
ATOM     15  CA  THR T   4      73.910  39.887   5.165  1.00 25.11 LIG 0.20  C 
BRANCH 15 16
ATOM     16  C   THR T   4      73.051  39.190   6.219  1.00 26.24 LIG 0.24  C 
ATOM     17 O    THR T   4      72.861  37.980   6.168  1.00 26.41 LIG-0.27  OA
ATOM     18  N   PHE T   5      72.659  39.943   7.237  1.00 29.12 LIG-0.34  N 
ATOM     19 H    PHE T   5      72.895  40.763   7.338  1.00 29.12 LIG 0.16  HD
BRANCH 18 20
ATOM     20  CA  PHE T   5      71.785  39.448   8.288  1.00 29.36 LIG 0.19  C 
BRANCH 20 21
ATOM     21  C   PHE T   5      72.404  38.173   8.917  1.00 32.56 LIG 0.20  C 
ATOM     22 O    PHE T   5      71.616  37.325   9.398  1.00 36.67 LIG-0.65  OA
ATOM     23 OXT  PHE T   5      73.655  37.997   8.915  1.00 34.39 LIG-0.65  OA
ENDBRANCH 20 21
BRANCH 20 24
ATOM     24  CB  PHE T   5      70.420  39.083   7.718  1.00 26.24 LIG 0.07  C 
BRANCH 24 25
ATOM     25  CG  PHE T   5      69.382  40.145   7.869  1.00 22.58 LIG-0.06  A 
ATOM     26  CD1 PHE T   5      68.040  39.811   7.876  1.00 21.65 LIG 0.01  A 
ATOM     27  CE1 PHE T   5      67.076  40.785   7.888  1.00 20.51 LIG 0.00  A 
ATOM     28  CZ  PHE T   5      67.445  42.107   7.897  1.00 20.87 LIG 0.00  A 
ATOM     29  CE2 PHE T   5      68.789  42.448   7.902  1.00 20.50 LIG 0.00  A 
ATOM     30  CD2 PHE T   5      69.738  41.478   7.890  1.00 18.29 LIG 0.01  A 
ENDBRANCH 24 25
ENDBRANCH 20 24
ENDBRANCH 18 20
ENDBRANCH 15 16
BRANCH 15 31
ATOM     31  CB  THR T   4      75.443  39.638   5.385  1.00 25.29 LIG 0.15  C 
ATOM     32  CG2 THR T   4      76.324  40.622   4.654  1.00 28.15 LIG 0.04  C 
BRANCH 31 33
ATOM     33 OG1  THR T   4      75.740  39.625   6.791  1.00 26.44 LIG-0.39  OA
ATOM     34 HG1  THR T   4      75.152  39.184   7.198  1.00 26.44 LIG 0.21  HD
ENDBRANCH 31 33
ENDBRANCH 15 31
ENDBRANCH 12 15
ENDBRANCH 5 11
ENDBRANCH 3 5
BRANCH 1 35
ATOM     35  CA  TRP T   2      70.840  46.087   3.002  1.00 22.55 LIG 0.18  C 
BRANCH 35 36
ATOM     36  CB  TRP T   2      71.203  45.858   1.529  1.00 18.37 LIG 0.07  C 
BRANCH 36 37
ATOM     37  CG  TRP T   2      72.681  46.006   1.275  1.00 15.70 LIG-0.03  A 
ATOM     38  CD2 TRP T   2      73.660  44.966   1.325  1.00  9.74 LIG-0.00  A 
ATOM     39  CE2 TRP T   2      74.904  45.545   1.016  1.00 12.08 LIG 0.04  A 
ATOM     40  CE3 TRP T   2      73.610  43.605   1.614  1.00  8.42 LIG 0.01  A 
ATOM     41  CZ2 TRP T   2      76.079  44.801   0.985  1.00 12.57 LIG 0.03  A 
ATOM     42  NE1 TRP T   2      74.694  46.882   0.781  1.00 15.46 LIG-0.36  N 
ATOM     43  CH2 TRP T   2      75.982  43.474   1.275  1.00  9.29 LIG 0.00  A 
ATOM     44  CZ3 TRP T   2      74.758  42.883   1.583  1.00  5.55 LIG 0.00  A 
ATOM     45 HE1  TRP T   2      75.301  47.454   0.572  1.00 15.46 LIG 0.17  HD
ATOM     46  CD1 TRP T   2      73.356  47.154   0.933  1.00 15.83 LIG 0.10  A 
ENDBRANCH 36 37
ENDBRANCH 35 36
BRANCH 35 47
ATOM     47  N   TRP T   2      70.712  47.521   3.224  1.00 22.15 LIG-0.35  N 
ATOM     48  C   ASN T   1      70.218  48.044   4.336  1.00 24.32 LIG 0.24  C 
ATOM     49 O    ASN T   1      69.766  47.358   5.259  1.00 24.18 LIG-0.27  OA
ATOM     50 H    TRP T   2      70.987  47.998   2.563  1.00 22.15 LIG 0.16  HD
BRANCH 48 51
ATOM     51  CA  ASN T   1      70.072  49.562   4.339  1.00 25.81 LIG 0.18  C 
BRANCH 51 52
ATOM     52  N   ASN T   1      70.455  50.272   3.147  1.00 28.18 LIG-0.35  N 
ATOM     53  C   ACE T   0      71.684  50.764   3.033  1.00 27.70 LIG 0.21  C 
ATOM     54 O    ACE T   0      71.903  51.899   2.677  1.00 31.05 LIG-0.27  OA
ATOM     55  CH3 ACE T   0      72.838  49.878   3.439  1.00 28.48 LIG 0.12  C 
ATOM     56 H    ASN T   1      69.841  50.343   2.549  1.00 28.18 LIG 0.16  HD
ENDBRANCH 51 52
BRANCH 51 57
ATOM     57  CB  ASN T   1      68.725  50.065   4.926  1.00 27.81 LIG 0.14  C 
BRANCH 57 58
ATOM     58  CG  ASN T   1      68.726  50.225   6.453  1.00 34.08 LIG 0.22  C 
ATOM     59 OD1  ASN T   1      68.316  51.252   6.994  1.00 41.34 LIG-0.27  OA
ATOM     60  ND2 ASN T   1      69.110  49.167   7.152  1.00 39.83 LIG-0.37  N 
ATOM     61 22HD ASN T   1      69.393  48.463   6.746  1.00 39.83 LIG 0.16  HD
ATOM     62 21HD ASN T   1      69.077  49.184   8.011  1.00 39.83 LIG 0.16  HD
ENDBRANCH 57 58
ENDBRANCH 51 57
ENDBRANCH 48 51
ENDBRANCH 35 47
ENDBRANCH 1 35
TORSDOF 21
ENDMDL
MODEL 45
USER: ADFR SOLUTION from run 113
USER: SCORE 18.904956 LL:  -4.855 LR: -14.910 RR:   0.000 FEB:  -8.646
USER: RMSD 10.756834
USER: SEED 112
USER: STATUS 1 or 2 clusters left
USER: GENES 23
USER: genes 0 Translation |==|  0.52598 0.51851 0.50452
USER: genes 1 Rotation |==|  0.26512 0.28381 0.14040 0.63704
USER: genes 2 Torsion [C]-N--CA-[CB] |==|  0.85556
USER: genes 3 Torsion [N]-CA--CB-[CG] |==|  0.47394
USER: genes 4 Torsion [CA]-CB--CG-[CD] |==|  0.68877
USER: genes 5 Torsion [CB]-CG--CD-[OE2] |==|  0.57081
USER: genes 6 Torsion [N]-CA--C-[N] |==|  0.36584
USER: genes 7 Torsion [C]-N--CA-[C] |==|  0.78719
USER: genes 8 Torsion [N]-CA--C-[N] |==|  0.34211
USER: genes 9 Torsion [C]-N--CA-[C] |==|  0.78708
USER: genes 10 Torsion [N]-CA--C-[O] |==|  0.28257
USER: genes 11 Torsion [N]-CA--CB-[CG] |==|  0.94947
USER: genes 12 Torsion [CA]-CB--CG-[CD1] |==|  0.81699
USER: genes 13 Torsion [N]-CA--CB-[CG2] |==|  0.31915
USER: genes 14 Torsion [CA]-CB--OG1-[HG1] |==|  0.06461
USER: genes 15 Torsion [N]-C--CA-[N] |==|  0.68028
USER: genes 16 Torsion [C]-CA--CB-[CG] |==|  0.68260
USER: genes 17 Torsion [CA]-CB--CG-[CD2] |==|  0.18779
USER: genes 18 Torsion [C]-CA--N-[C] |==|  0.67288
USER: genes 19 Torsion [N]-C--CA-[N] |==|  0.03225
USER: genes 20 Torsion [C]-CA--N-[C] |==|  0.72856
USER: genes 21 Torsion [C]-CA--CB-[CG] |==|  0.30826
USER: genes 22 Torsion [CA]-CB--CG-[OD1] |==|  0.88380
ROOT
ATOM      1  C   TRP T   2      71.389  45.285   5.036  1.00 22.72 LIG 0.24  C 
ATOM      2 O    TRP T   2      71.189  45.212   6.258  1.00 25.73 LIG-0.27  OA
ATOM      3  N   GLU T   3      72.321  44.572   4.418  1.00 22.46 LIG-0.35  N 
ATOM      4 H    GLU T   3      72.513  44.625   3.582  1.00 22.46 LIG 0.16  HD
ENDROOT
BRANCH 3 5
ATOM      5  CA  GLU T   3      73.096  43.617   5.176  1.00 22.12 LIG 0.18  C 
BRANCH 5 6
ATOM      6  CB  GLU T   3      73.698  44.283   6.410  1.00 23.21 LIG 0.04  C 
BRANCH 6 7
ATOM      7  CG  GLU T   3      74.325  43.285   7.351  1.00 26.62 LIG 0.12  C 
BRANCH 7 8
ATOM      8  CD  GLU T   3      73.583  43.162   8.641  1.00 29.06 LIG 0.17  C 
ATOM      9 OE2  GLU T   3      74.213  42.777   9.653  1.00 35.17 LIG-0.65  OA
ATOM     10 OE1  GLU T   3      72.370  43.447   8.650  1.00 32.66 LIG-0.65  OA
ENDBRANCH 7 8
ENDBRANCH 6 7
ENDBRANCH 5 6
BRANCH 5 11
ATOM     11  C   GLU T   3      72.276  42.425   5.594  1.00 21.48 LIG 0.24  C 
ATOM     12  N   THR T   4      72.848  41.262   5.346  1.00 23.46 LIG-0.34  N 
ATOM     13 H    THR T   4      73.626  41.202   4.982  1.00 23.46 LIG 0.16  HD
ATOM     14 O    GLU T   3      71.173  42.552   6.084  1.00 21.28 LIG-0.27  OA
BRANCH 12 15
ATOM     15  CA  THR T   4      72.268  39.974   5.641  1.00 25.11 LIG 0.20  C 
BRANCH 15 16
ATOM     16  C   THR T   4      72.389  39.695   7.138  1.00 26.24 LIG 0.24  C 
ATOM     17 O    THR T   4      73.464  39.826   7.712  1.00 26.41 LIG-0.27  OA
ATOM     18  N   PHE T   5      71.253  39.448   7.775  1.00 29.12 LIG-0.34  N 
ATOM     19 H    PHE T   5      70.482  39.477   7.396  1.00 29.12 LIG 0.16  HD
BRANCH 18 20
ATOM     20  CA  PHE T   5      71.204  39.101   9.186  1.00 29.36 LIG 0.19  C 
BRANCH 20 21
ATOM     21  C   PHE T   5      71.634  37.621   9.368  1.00 32.56 LIG 0.20  C 
ATOM     22 O    PHE T   5      72.801  37.405   9.773  1.00 36.67 LIG-0.65  OA
ATOM     23 OXT  PHE T   5      70.823  36.682   9.137  1.00 34.39 LIG-0.65  OA
ENDBRANCH 20 21
BRANCH 20 24
ATOM     24  CB  PHE T   5      69.787  39.253   9.723  1.00 26.24 LIG 0.07  C 
BRANCH 24 25
ATOM     25  CG  PHE T   5      68.891  40.096   8.877  1.00 22.58 LIG-0.06  A 
ATOM     26  CD1 PHE T   5      69.145  41.446   8.724  1.00 21.65 LIG 0.01  A 
ATOM     27  CE1 PHE T   5      68.262  42.253   8.055  1.00 20.51 LIG 0.00  A 
ATOM     28  CZ  PHE T   5      67.116  41.715   7.525  1.00 20.87 LIG 0.00  A 
ATOM     29  CE2 PHE T   5      66.862  40.360   7.665  1.00 20.50 LIG 0.00  A 
ATOM     30  CD2 PHE T   5      67.740  39.567   8.330  1.00 18.29 LIG 0.01  A 
ENDBRANCH 24 25
ENDBRANCH 20 24
ENDBRANCH 18 20
ENDBRANCH 15 16
BRANCH 15 31
ATOM     31  CB  THR T   4      73.031  38.913   4.772  1.00 25.29 LIG 0.15  C 
ATOM     32  CG2 THR T   4      73.822  37.922   5.591  1.00 28.15 LIG 0.04  C 
BRANCH 31 33
ATOM     33 OG1  THR T   4      72.110  38.242   3.898  1.00 26.44 LIG-0.39  OA
ATOM     34 HG1  THR T   4      71.435  38.728   3.775  1.00 26.44 LIG 0.21  HD
ENDBRANCH 31 33
ENDBRANCH 15 31
ENDBRANCH 12 15
ENDBRANCH 5 11
ENDBRANCH 3 5
BRANCH 1 35
ATOM     35  CA  TRP T   2      70.600  46.257   4.169  1.00 22.55 LIG 0.18  C 
BRANCH 35 36
ATOM     36  CB  TRP T   2      70.990  46.065   2.698  1.00 18.37 LIG 0.07  C 
BRANCH 36 37
ATOM     37  CG  TRP T   2      71.690  47.274   2.130  1.00 15.70 LIG-0.03  A 
ATOM     38  CD2 TRP T   2      72.984  47.756   2.497  1.00  9.74 LIG-0.00  A 
ATOM     39  CE2 TRP T   2      73.243  48.897   1.716  1.00 12.08 LIG 0.04  A 
ATOM     40  CE3 TRP T   2      73.942  47.346   3.419  1.00  8.42 LIG 0.01  A 
ATOM     41  CZ2 TRP T   2      74.427  49.620   1.833  1.00 12.57 LIG 0.03  A 
ATOM     42  NE1 TRP T   2      72.156  49.100   0.901  1.00 15.46 LIG-0.36  N 
ATOM     43  CH2 TRP T   2      75.334  49.181   2.747  1.00  9.29 LIG 0.00  A 
ATOM     44  CZ3 TRP T   2      75.094  48.053   3.529  1.00  5.55 LIG 0.00  A 
ATOM     45 HE1  TRP T   2      72.072  49.736   0.329  1.00 15.46 LIG 0.17  HD
ATOM     46  CD1 TRP T   2      71.227  48.120   1.150  1.00 15.83 LIG 0.10  A 
ENDBRANCH 36 37
ENDBRANCH 35 36
BRANCH 35 47
ATOM     47  N   TRP T   2      70.815  47.655   4.521  1.00 22.15 LIG-0.35  N 
ATOM     48  C   ASN T   1      69.850  48.452   4.954  1.00 24.32 LIG 0.24  C 
ATOM     49 O    ASN T   1      68.670  48.096   5.038  1.00 24.18 LIG-0.27  OA
ATOM     50 H    TRP T   2      71.628  47.914   4.421  1.00 22.15 LIG 0.16  HD
BRANCH 48 51
ATOM     51  CA  ASN T   1      70.250  49.906   5.174  1.00 25.81 LIG 0.18  C 
BRANCH 51 52
ATOM     52  N   ASN T   1      71.527  50.333   4.662  1.00 28.18 LIG-0.35  N 
ATOM     53  C   ACE T   0      72.581  50.387   5.469  1.00 27.70 LIG 0.21  C 
ATOM     54 O    ACE T   0      73.312  51.349   5.524  1.00 31.05 LIG-0.27  OA
ATOM     55  CH3 ACE T   0      72.818  49.220   6.398  1.00 28.48 LIG 0.12  C 
ATOM     56 H    ASN T   1      71.537  50.538   3.827  1.00 28.18 LIG 0.16  HD
ENDBRANCH 51 52
BRANCH 51 57
ATOM     57  CB  ASN T   1      69.117  50.926   4.874  1.00 27.81 LIG 0.14  C 
BRANCH 57 58
ATOM     58  CG  ASN T   1      68.567  51.637   6.119  1.00 34.08 LIG 0.22  C 
ATOM     59 OD1  ASN T   1      68.359  51.029   7.169  1.00 41.34 LIG-0.27  OA
ATOM     60  ND2 ASN T   1      68.413  52.949   6.024  1.00 39.83 LIG-0.37  N 
ATOM     61 22HD ASN T   1      68.566  53.347   5.277  1.00 39.83 LIG 0.16  HD
ATOM     62 21HD ASN T   1      68.160  53.403   6.709  1.00 39.83 LIG 0.16  HD
ENDBRANCH 57 58
ENDBRANCH 51 57
ENDBRANCH 48 51
ENDBRANCH 35 47
ENDBRANCH 1 35
TORSDOF 21
ENDMDL
