MODEL 1
USER: ADFR SOLUTION from run 56
USER: SCORE 16.497771 LL:  -3.428 LR: -14.236 RR:   0.000 FEB:  -8.867
USER: RMSD 1.377913
USER: SEED 55
USER: STATUS 1 or 2 clusters left
USER: GENES 20
USER: genes 0 Translation |==|  0.48730 0.47246 0.47441
USER: genes 1 Rotation |==|  0.48580 0.45567 0.49511 0.99781
USER: genes 2 Torsion [C]-CA--CB-[CG2] |==|  0.92674
USER: genes 3 Torsion [CA]-CB--OG1-[HG1] |==|  0.19717
USER: genes 4 Torsion [N]-CA--C-[N] |==|  0.44360
USER: genes 5 Torsion [C]-N--CA-[C] |==|  0.73458
USER: genes 6 Torsion [N]-CA--CB-[OG] |==|  0.85559
USER: genes 7 Torsion [CA]-CB--OG-[HG] |==|  0.74464
USER: genes 8 Torsion [N]-CA--C-[N] |==|  0.42402
USER: genes 9 Torsion [C]-N--CA-[CB] |==|  0.25348
USER: genes 10 Torsion [N]-CA--CB-[CG1] |==|  0.70294
USER: genes 11 Torsion [N]-CA--C-[OXT] |==|  0.41467
USER: genes 12 Torsion [CB]-CA--N-[C] |==|  0.22685
USER: genes 13 Torsion [N]-C--CA-[N] |==|  0.41848
USER: genes 14 Torsion [C]-CA--N-[C] |==|  0.61009
USER: genes 15 Torsion [N]-C--CA-[N] |==|  0.54695
USER: genes 16 Torsion [C]-CA--N-[H1] |==|  0.65816
USER: genes 17 Torsion [C]-CA--CB-[CG] |==|  0.07116
USER: genes 18 Torsion [CA]-CB--CG-[CD] |==|  0.30132
USER: genes 19 Torsion [CB]-CG--CD-[NE2] |==|  0.73730
ROOT
ATOM      1  CA  THR B   7      38.619  55.904  21.502  1.00 17.88 LIG 0.20  C 
ENDROOT
BRANCH 1 2
ATOM      2  CB  THR B   7      37.080  55.988  21.323  1.00 14.05 LIG 0.15  C 
ATOM      3  CG2 THR B   7      36.481  57.018  22.257  1.00 13.72 LIG 0.04  C 
BRANCH 2 4
ATOM      4 OG1  THR B   7      36.779  56.354  19.971  1.00 17.31 LIG-0.39  OA
ATOM      5 HG1  THR B   7      36.955  55.710  19.461  1.00 17.31 LIG 0.21  HD
ENDBRANCH 2 4
ENDBRANCH 1 2
BRANCH 1 6
ATOM      6  C   THR B   7      39.132  57.240  22.022  1.00 17.05 LIG 0.24  C 
ATOM      7 O    THR B   7      39.446  57.380  23.201  1.00 16.06 LIG-0.27  OA
ATOM      8  N   SER B   8      39.237  58.216  21.126  1.00 14.96 LIG-0.34  N 
ATOM      9 H    SER B   8      39.054  58.130  20.291  1.00 14.96 LIG 0.16  HD
BRANCH 8 10
ATOM     10  CA  SER B   8      39.682  59.540  21.518  1.00 16.48 LIG 0.20  C 
BRANCH 10 11
ATOM     11  CB  SER B   8      40.554  60.158  20.417  1.00 16.65 LIG 0.20  C 
BRANCH 11 12
ATOM     12 OG   SER B   8      41.598  59.286  20.031  1.00 27.09 LIG-0.40  OA
ATOM     13 HG   SER B   8      42.284  59.450  20.488  1.00 27.09 LIG 0.21  HD
ENDBRANCH 11 12
ENDBRANCH 10 11
BRANCH 10 14
ATOM     14  C   SER B   8      38.427  60.383  21.768  1.00 17.61 LIG 0.24  C 
ATOM     15 O    SER B   8      37.361  60.125  21.197  1.00 19.05 LIG-0.27  OA
ATOM     16  N   VAL B   9      38.552  61.382  22.633  1.00 16.11 LIG-0.34  N 
ATOM     17 H    VAL B   9      39.284  61.578  23.038  1.00 16.11 LIG 0.16  HD
BRANCH 16 18
ATOM     18  CA  VAL B   9      37.426  62.243  22.972  1.00 15.65 LIG 0.19  C 
BRANCH 18 19
ATOM     19  CB  VAL B   9      36.662  61.690  24.201  1.00 11.15 LIG 0.01  C 
ATOM     20  CG1 VAL B   9      35.327  61.092  23.769  1.00 14.96 LIG 0.01  C 
ATOM     21  CG2 VAL B   9      37.500  60.637  24.896  1.00  9.83 LIG 0.01  C 
ENDBRANCH 18 19
BRANCH 18 22
ATOM     22  C   VAL B   9      37.877  63.669  23.281  1.00 14.44 LIG 0.20  C 
ATOM     23 O    VAL B   9      39.013  63.840  23.770  1.00 16.00 LIG-0.65  OA
ATOM     24 OXT  VAL B   9      37.098  64.605  23.020  1.00 15.84 LIG-0.65  OA
ENDBRANCH 18 22
ENDBRANCH 16 18
ENDBRANCH 10 14
ENDBRANCH 8 10
ENDBRANCH 1 6
BRANCH 1 25
ATOM     25  N   THR B   7      38.978  54.810  22.392  1.00 17.70 LIG-0.34  N 
ATOM     26 H    THR B   7      39.132  55.043  23.205  1.00 17.70 LIG 0.16  HD
ATOM     27  C   GLN B   6      39.053  53.564  21.945  1.00 20.89 LIG 0.24  C 
ATOM     28 O    GLN B   6      38.847  53.260  20.771  1.00 21.39 LIG-0.27  OA
BRANCH 27 29
ATOM     29  CA  GLN B   6      39.423  52.504  22.962  1.00 22.72 LIG 0.18  C 
BRANCH 29 30
ATOM     30  N   GLN B   6      38.811  51.239  22.566  1.00 25.12 LIG-0.35  N 
ATOM     31  C   LYS B   5      38.276  50.403  23.452  1.00 28.85 LIG 0.25  C 
ATOM     32 O    LYS B   5      38.276  50.618  24.665  1.00 29.08 LIG-0.27  OA
ATOM     33 H    GLN B   6      38.829  51.088  21.720  1.00 25.12 LIG 0.16  HD
BRANCH 31 34
ATOM     34  CA  LYS B   5      37.659  49.131  22.884  1.00 31.70 LIG 0.28  C 
ATOM     35  CB  LYS B   5      36.886  49.448  21.599  1.00 33.53 LIG 0.03  C 
BRANCH 34 36
ATOM     36  N   LYS B   5      36.752  48.480  23.876  1.00 35.61 LIG-0.07  N 
ATOM     37 H1   LYS B   5      37.021  47.644  24.022  1.00 35.61 LIG 0.28  HD
ATOM     38 H3   LYS B   5      35.920  48.473  23.558  1.00 35.61 LIG 0.28  HD
ATOM     39 H2   LYS B   5      36.772  48.936  24.641  1.00 35.61 LIG 0.28  HD
ENDBRANCH 34 36
ENDBRANCH 31 34
ENDBRANCH 29 30
BRANCH 29 40
ATOM     40  CB  GLN B   6      40.942  52.377  23.015  1.00 21.86 LIG 0.04  C 
BRANCH 40 41
ATOM     41  CG  GLN B   6      41.664  53.618  22.598  1.00 24.26 LIG 0.10  C 
BRANCH 41 42
ATOM     42  CD  GLN B   6      42.330  54.335  23.756  1.00 23.46 LIG 0.21  C 
ATOM     43  NE2 GLN B   6      41.625  55.307  24.310  1.00 26.30 LIG-0.37  N 
ATOM     44 22HE GLN B   6      41.953  55.755  24.966  1.00 26.30 LIG 0.16  HD
ATOM     45 21HE GLN B   6      40.839  55.491  24.014  1.00 26.30 LIG 0.16  HD
ATOM     46 OE1  GLN B   6      43.466  54.030  24.145  1.00 21.71 LIG-0.27  OA
ENDBRANCH 41 42
ENDBRANCH 40 41
ENDBRANCH 29 40
ENDBRANCH 27 29
ENDBRANCH 1 25
TORSDOF 18
ENDMDL
MODEL 2
USER: ADFR SOLUTION from run 98
USER: SCORE 14.720757 LL:  -3.762 LR: -13.159 RR:   0.000 FEB:  -7.790
USER: RMSD 7.758442
USER: SEED 97
USER: STATUS no improvement in best 10 clusters for 5 generations
USER: GENES 20
USER: genes 0 Translation |==|  0.44572 0.70738 0.52891
USER: genes 1 Rotation |==|  0.40540 0.86776 0.51075 0.82510
USER: genes 2 Torsion [C]-CA--CB-[CG2] |==|  0.42888
USER: genes 3 Torsion [CA]-CB--OG1-[HG1] |==|  0.95186
USER: genes 4 Torsion [N]-CA--C-[N] |==|  0.29794
USER: genes 5 Torsion [C]-N--CA-[C] |==|  0.68754
USER: genes 6 Torsion [N]-CA--CB-[OG] |==|  0.20840
USER: genes 7 Torsion [CA]-CB--OG-[HG] |==|  0.20370
USER: genes 8 Torsion [N]-CA--C-[N] |==|  0.55000
USER: genes 9 Torsion [C]-N--CA-[CB] |==|  0.33559
USER: genes 10 Torsion [N]-CA--CB-[CG1] |==|  0.22932
USER: genes 11 Torsion [N]-CA--C-[OXT] |==|  0.01335
USER: genes 12 Torsion [CB]-CA--N-[C] |==|  0.43532
USER: genes 13 Torsion [N]-C--CA-[N] |==|  0.37839
USER: genes 14 Torsion [C]-CA--N-[C] |==|  0.73779
USER: genes 15 Torsion [N]-C--CA-[N] |==|  0.46592
USER: genes 16 Torsion [C]-CA--N-[H1] |==|  0.48022
USER: genes 17 Torsion [C]-CA--CB-[CG] |==|  0.13963
USER: genes 18 Torsion [CA]-CB--CG-[CD] |==|  0.14112
USER: genes 19 Torsion [CB]-CG--CD-[NE2] |==|  0.13727
ROOT
ATOM      1  CA  THR B   7      37.372  62.951  23.137  1.00 17.88 LIG 0.20  C 
ENDROOT
BRANCH 1 2
ATOM      2  CB  THR B   7      37.577  63.418  24.602  1.00 14.05 LIG 0.15  C 
ATOM      3  CG2 THR B   7      36.967  62.431  25.577  1.00 13.72 LIG 0.04  C 
BRANCH 2 4
ATOM      4 OG1  THR B   7      38.978  63.533  24.873  1.00 17.31 LIG-0.39  OA
ATOM      5 HG1  THR B   7      39.412  63.111  24.290  1.00 17.31 LIG 0.21  HD
ENDBRANCH 2 4
ENDBRANCH 1 2
BRANCH 1 6
ATOM      6  C   THR B   7      37.392  64.167  22.221  1.00 17.05 LIG 0.24  C 
ATOM      7 O    THR B   7      38.308  64.983  22.276  1.00 16.06 LIG-0.27  OA
ATOM      8  N   SER B   8      36.385  64.270  21.361  1.00 14.96 LIG-0.34  N 
ATOM      9 H    SER B   8      35.752  63.694  21.283  1.00 14.96 LIG 0.16  HD
BRANCH 8 10
ATOM     10  CA  SER B   8      36.286  65.407  20.464  1.00 16.48 LIG 0.20  C 
BRANCH 10 11
ATOM     11  CB  SER B   8      36.149  64.930  19.012  1.00 16.65 LIG 0.20  C 
BRANCH 11 12
ATOM     12 OG   SER B   8      34.852  64.433  18.748  1.00 27.09 LIG-0.40  OA
ATOM     13 HG   SER B   8      34.310  65.073  18.703  1.00 27.09 LIG 0.21  HD
ENDBRANCH 11 12
ENDBRANCH 10 11
BRANCH 10 14
ATOM     14  C   SER B   8      35.060  66.218  20.897  1.00 17.61 LIG 0.24  C 
ATOM     15 O    SER B   8      34.569  66.082  22.024  1.00 19.05 LIG-0.27  OA
ATOM     16  N   VAL B   9      34.577  67.075  20.006  1.00 16.11 LIG-0.34  N 
ATOM     17 H    VAL B   9      34.902  67.182  19.217  1.00 16.11 LIG 0.16  HD
BRANCH 16 18
ATOM     18  CA  VAL B   9      33.427  67.920  20.304  1.00 15.65 LIG 0.19  C 
BRANCH 18 19
ATOM     19  CB  VAL B   9      33.799  69.418  20.173  1.00 11.15 LIG 0.01  C 
ATOM     20  CG1 VAL B   9      33.724  69.855  18.714  1.00 14.96 LIG 0.01  C 
ATOM     21  CG2 VAL B   9      32.858  70.256  21.013  1.00  9.83 LIG 0.01  C 
ENDBRANCH 18 19
BRANCH 18 22
ATOM     22  C   VAL B   9      32.253  67.627  19.373  1.00 14.44 LIG 0.20  C 
ATOM     23 O    VAL B   9      31.238  68.350  19.450  1.00 16.00 LIG-0.65  OA
ATOM     24 OXT  VAL B   9      32.360  66.685  18.565  1.00 15.84 LIG-0.65  OA
ENDBRANCH 18 22
ENDBRANCH 16 18
ENDBRANCH 10 14
ENDBRANCH 8 10
ENDBRANCH 1 6
BRANCH 1 25
ATOM     25  N   THR B   7      38.383  61.977  22.757  1.00 17.70 LIG-0.34  N 
ATOM     26 H    THR B   7      39.108  62.012  23.218  1.00 17.70 LIG 0.16  HD
ATOM     27  C   GLN B   6      38.166  61.118  21.770  1.00 20.89 LIG 0.24  C 
ATOM     28 O    GLN B   6      37.127  61.103  21.113  1.00 21.39 LIG-0.27  OA
BRANCH 27 29
ATOM     29  CA  GLN B   6      39.284  60.141  21.469  1.00 22.72 LIG 0.18  C 
BRANCH 29 30
ATOM     30  N   GLN B   6      38.707  58.815  21.268  1.00 25.12 LIG-0.35  N 
ATOM     31  C   LYS B   5      38.614  57.927  22.253  1.00 28.85 LIG 0.25  C 
ATOM     32 O    LYS B   5      39.024  58.142  23.395  1.00 29.08 LIG-0.27  OA
ATOM     33 H    GLN B   6      38.437  58.666  20.466  1.00 25.12 LIG 0.16  HD
BRANCH 31 34
ATOM     34  CA  LYS B   5      37.971  56.592  21.893  1.00 31.70 LIG 0.28  C 
ATOM     35  CB  LYS B   5      36.471  56.781  21.642  1.00 33.53 LIG 0.03  C 
BRANCH 34 36
ATOM     36  N   LYS B   5      38.184  55.581  22.972  1.00 35.61 LIG-0.07  N 
ATOM     37 H1   LYS B   5      37.715  54.847  22.787  1.00 35.61 LIG 0.28  HD
ATOM     38 H3   LYS B   5      37.915  55.917  23.751  1.00 35.61 LIG 0.28  HD
ATOM     39 H2   LYS B   5      39.049  55.376  23.020  1.00 35.61 LIG 0.28  HD
ENDBRANCH 34 36
ENDBRANCH 31 34
ENDBRANCH 29 30
BRANCH 29 40
ATOM     40  CB  GLN B   6      40.024  60.604  20.219  1.00 21.86 LIG 0.04  C 
BRANCH 40 41
ATOM     41  CG  GLN B   6      40.436  62.041  20.261  1.00 24.26 LIG 0.10  C 
BRANCH 41 42
ATOM     42  CD  GLN B   6      41.179  62.408  21.531  1.00 23.46 LIG 0.21  C 
ATOM     43  NE2 GLN B   6      42.174  61.605  21.866  1.00 26.30 LIG-0.37  N 
ATOM     44 22HE GLN B   6      42.628  61.758  22.580  1.00 26.30 LIG 0.16  HD
ATOM     45 21HE GLN B   6      42.367  60.930  21.370  1.00 26.30 LIG 0.16  HD
ATOM     46 OE1  GLN B   6      40.860  63.394  22.210  1.00 21.71 LIG-0.27  OA
ENDBRANCH 41 42
ENDBRANCH 40 41
ENDBRANCH 29 40
ENDBRANCH 27 29
ENDBRANCH 1 25
TORSDOF 18
ENDMDL
MODEL 3
USER: ADFR SOLUTION from run 111
USER: SCORE 14.130337 LL:  -3.189 LR: -13.009 RR:   0.000 FEB:  -7.640
USER: RMSD 8.259239
USER: SEED 110
USER: STATUS no improvement in best 18 clusters for 5 generations
USER: GENES 20
USER: genes 0 Translation |==|  0.43888 0.70561 0.53317
USER: genes 1 Rotation |==|  0.40753 0.87230 0.49013 0.82054
USER: genes 2 Torsion [C]-CA--CB-[CG2] |==|  0.43177
USER: genes 3 Torsion [CA]-CB--OG1-[HG1] |==|  0.91217
USER: genes 4 Torsion [N]-CA--C-[N] |==|  0.29209
USER: genes 5 Torsion [C]-N--CA-[C] |==|  0.67456
USER: genes 6 Torsion [N]-CA--CB-[OG] |==|  0.88904
USER: genes 7 Torsion [CA]-CB--OG-[HG] |==|  0.87024
USER: genes 8 Torsion [N]-CA--C-[N] |==|  0.59095
USER: genes 9 Torsion [C]-N--CA-[CB] |==|  0.31148
USER: genes 10 Torsion [N]-CA--CB-[CG1] |==|  0.68491
USER: genes 11 Torsion [N]-CA--C-[OXT] |==|  0.53630
USER: genes 12 Torsion [CB]-CA--N-[C] |==|  0.46124
USER: genes 13 Torsion [N]-C--CA-[N] |==|  0.88212
USER: genes 14 Torsion [C]-CA--N-[C] |==|  0.85315
USER: genes 15 Torsion [N]-C--CA-[N] |==|  0.20128
USER: genes 16 Torsion [C]-CA--N-[H1] |==|  0.61118
USER: genes 17 Torsion [C]-CA--CB-[CG] |==|  0.32768
USER: genes 18 Torsion [CA]-CB--CG-[CD] |==|  0.38756
USER: genes 19 Torsion [CB]-CG--CD-[NE2] |==|  0.39071
ROOT
ATOM      1  CA  THR B   7      37.167  62.898  23.265  1.00 17.88 LIG 0.20  C 
ENDROOT
BRANCH 1 2
ATOM      2  CB  THR B   7      37.417  63.436  24.698  1.00 14.05 LIG 0.15  C 
ATOM      3  CG2 THR B   7      36.780  62.534  25.736  1.00 13.72 LIG 0.04  C 
BRANCH 2 4
ATOM      4 OG1  THR B   7      38.827  63.501  24.942  1.00 17.31 LIG-0.39  OA
ATOM      5 HG1  THR B   7      39.214  62.888  24.516  1.00 17.31 LIG 0.21  HD
ENDBRANCH 2 4
ENDBRANCH 1 2
BRANCH 1 6
ATOM      6  C   THR B   7      37.253  64.055  22.278  1.00 17.05 LIG 0.24  C 
ATOM      7 O    THR B   7      38.200  64.836  22.302  1.00 16.06 LIG-0.27  OA
ATOM      8  N   SER B   8      36.265  64.145  21.393  1.00 14.96 LIG-0.34  N 
ATOM      9 H    SER B   8      35.611  63.590  21.337  1.00 14.96 LIG 0.16  HD
BRANCH 8 10
ATOM     10  CA  SER B   8      36.228  65.228  20.428  1.00 16.48 LIG 0.20  C 
BRANCH 10 11
ATOM     11  CB  SER B   8      36.216  64.669  18.999  1.00 16.65 LIG 0.20  C 
BRANCH 11 12
ATOM     12 OG   SER B   8      37.080  63.557  18.869  1.00 27.09 LIG-0.40  OA
ATOM     13 HG   SER B   8      37.819  63.734  19.225  1.00 27.09 LIG 0.21  HD
ENDBRANCH 11 12
ENDBRANCH 10 11
BRANCH 10 14
ATOM     14  C   SER B   8      34.963  66.044  20.714  1.00 17.61 LIG 0.24  C 
ATOM     15 O    SER B   8      34.537  66.179  21.867  1.00 19.05 LIG-0.27  OA
ATOM     16  N   VAL B   9      34.374  66.602  19.664  1.00 16.11 LIG-0.34  N 
ATOM     17 H    VAL B   9      34.653  66.518  18.855  1.00 16.11 LIG 0.16  HD
BRANCH 16 18
ATOM     18  CA  VAL B   9      33.175  67.420  19.806  1.00 15.65 LIG 0.19  C 
BRANCH 18 19
ATOM     19  CB  VAL B   9      33.480  68.901  19.471  1.00 11.15 LIG 0.01  C 
ATOM     20  CG1 VAL B   9      33.342  69.764  20.722  1.00 14.96 LIG 0.01  C 
ATOM     21  CG2 VAL B   9      34.880  69.024  18.910  1.00  9.83 LIG 0.01  C 
ENDBRANCH 18 19
BRANCH 18 22
ATOM     22  C   VAL B   9      32.049  66.936  18.895  1.00 14.44 LIG 0.20  C 
ATOM     23 O    VAL B   9      32.156  65.812  18.364  1.00 16.00 LIG-0.65  OA
ATOM     24 OXT  VAL B   9      31.064  67.680  18.729  1.00 15.84 LIG-0.65  OA
ENDBRANCH 18 22
ENDBRANCH 16 18
ENDBRANCH 10 14
ENDBRANCH 8 10
ENDBRANCH 1 6
BRANCH 1 25
ATOM     25  N   THR B   7      38.110  61.841  22.935  1.00 17.70 LIG-0.34  N 
ATOM     26 H    THR B   7      38.782  61.779  23.468  1.00 17.70 LIG 0.16  HD
ATOM     27  C   GLN B   6      37.915  61.055  21.885  1.00 20.89 LIG 0.24  C 
ATOM     28 O    GLN B   6      36.955  61.178  21.126  1.00 21.39 LIG-0.27  OA
BRANCH 27 29
ATOM     29  CA  GLN B   6      38.956  59.980  21.645  1.00 22.72 LIG 0.18  C 
BRANCH 29 30
ATOM     30  N   GLN B   6      40.281  60.553  21.859  1.00 25.12 LIG-0.35  N 
ATOM     31  C   LYS B   5      40.680  61.663  21.245  1.00 28.85 LIG 0.25  C 
ATOM     32 O    LYS B   5      39.978  62.276  20.438  1.00 29.08 LIG-0.27  OA
ATOM     33 H    GLN B   6      40.771  60.112  22.411  1.00 25.12 LIG 0.16  HD
BRANCH 31 34
ATOM     34  CA  LYS B   5      42.084  62.148  21.584  1.00 31.70 LIG 0.28  C 
ATOM     35  CB  LYS B   5      42.273  63.593  21.105  1.00 33.53 LIG 0.03  C 
BRANCH 34 36
ATOM     36  N   LYS B   5      43.124  61.269  20.971  1.00 35.61 LIG-0.07  N 
ATOM     37 H1   LYS B   5      43.792  61.152  21.548  1.00 35.61 LIG 0.28  HD
ATOM     38 H3   LYS B   5      43.436  61.650  20.229  1.00 35.61 LIG 0.28  HD
ATOM     39 H2   LYS B   5      42.765  60.480  20.770  1.00 35.61 LIG 0.28  HD
ENDBRANCH 34 36
ENDBRANCH 31 34
ENDBRANCH 29 30
BRANCH 29 40
ATOM     40  CB  GLN B   6      38.704  58.824  22.606  1.00 21.86 LIG 0.04  C 
BRANCH 40 41
ATOM     41  CG  GLN B   6      38.382  57.533  21.923  1.00 24.26 LIG 0.10  C 
BRANCH 41 42
ATOM     42  CD  GLN B   6      39.044  56.335  22.575  1.00 23.46 LIG 0.21  C 
ATOM     43  NE2 GLN B   6      38.307  55.240  22.645  1.00 26.30 LIG-0.37  N 
ATOM     44 22HE GLN B   6      38.625  54.530  23.011  1.00 26.30 LIG 0.16  HD
ATOM     45 21HE GLN B   6      37.509  55.238  22.325  1.00 26.30 LIG 0.16  HD
ATOM     46 OE1  GLN B   6      40.199  56.391  23.020  1.00 21.71 LIG-0.27  OA
ENDBRANCH 41 42
ENDBRANCH 40 41
ENDBRANCH 29 40
ENDBRANCH 27 29
ENDBRANCH 1 25
TORSDOF 18
ENDMDL
MODEL 4
USER: ADFR SOLUTION from run 133
USER: SCORE 14.822893 LL:  -4.094 LR: -12.870 RR:   0.000 FEB:  -7.501
USER: RMSD 8.923116
USER: SEED 132
USER: STATUS no improvement in best 13 clusters for 5 generations
USER: GENES 20
USER: genes 0 Translation |==|  0.44396 0.75235 0.52690
USER: genes 1 Rotation |==|  0.93962 0.39844 0.52071 0.71445
USER: genes 2 Torsion [C]-CA--CB-[CG2] |==|  0.08605
USER: genes 3 Torsion [CA]-CB--OG1-[HG1] |==|  0.93060
USER: genes 4 Torsion [N]-CA--C-[N] |==|  0.84728
USER: genes 5 Torsion [C]-N--CA-[C] |==|  0.62290
USER: genes 6 Torsion [N]-CA--CB-[OG] |==|  0.03665
USER: genes 7 Torsion [CA]-CB--OG-[HG] |==|  0.52204
USER: genes 8 Torsion [N]-CA--C-[N] |==|  0.81472
USER: genes 9 Torsion [C]-N--CA-[CB] |==|  0.20813
USER: genes 10 Torsion [N]-CA--CB-[CG1] |==|  0.73110
USER: genes 11 Torsion [N]-CA--C-[OXT] |==|  0.72561
USER: genes 12 Torsion [CB]-CA--N-[C] |==|  0.50652
USER: genes 13 Torsion [N]-C--CA-[N] |==|  0.52517
USER: genes 14 Torsion [C]-CA--N-[C] |==|  0.75556
USER: genes 15 Torsion [N]-C--CA-[N] |==|  0.92594
USER: genes 16 Torsion [C]-CA--N-[H1] |==|  0.67145
USER: genes 17 Torsion [C]-CA--CB-[CG] |==|  0.87212
USER: genes 18 Torsion [CA]-CB--CG-[CD] |==|  0.81078
USER: genes 19 Torsion [CB]-CG--CD-[NE2] |==|  0.26560
ROOT
ATOM      1  CA  THR B   7      37.319  64.300  23.077  1.00 17.88 LIG 0.20  C 
ENDROOT
BRANCH 1 2
ATOM      2  CB  THR B   7      35.873  64.691  22.674  1.00 14.05 LIG 0.15  C 
ATOM      3  CG2 THR B   7      34.875  64.226  23.715  1.00 13.72 LIG 0.04  C 
BRANCH 2 4
ATOM      4 OG1  THR B   7      35.783  66.115  22.546  1.00 17.31 LIG-0.39  OA
ATOM      5 HG1  THR B   7      36.375  66.476  23.020  1.00 17.31 LIG 0.21  HD
ENDBRANCH 2 4
ENDBRANCH 1 2
BRANCH 1 6
ATOM      6  C   THR B   7      37.279  63.006  23.879  1.00 17.05 LIG 0.24  C 
ATOM      7 O    THR B   7      37.548  62.998  25.077  1.00 16.06 LIG-0.27  OA
ATOM      8  N   SER B   8      36.920  61.914  23.212  1.00 14.96 LIG-0.34  N 
ATOM      9 H    SER B   8      36.696  61.904  22.382  1.00 14.96 LIG 0.16  HD
BRANCH 8 10
ATOM     10  CA  SER B   8      36.881  60.621  23.868  1.00 16.48 LIG 0.20  C 
BRANCH 10 11
ATOM     11  CB  SER B   8      35.433  60.228  24.189  1.00 16.65 LIG 0.20  C 
BRANCH 11 12
ATOM     12 OG   SER B   8      34.508  61.056  23.511  1.00 27.09 LIG-0.40  OA
ATOM     13 HG   SER B   8      33.732  60.892  23.785  1.00 27.09 LIG 0.21  HD
ENDBRANCH 11 12
ENDBRANCH 10 11
BRANCH 10 14
ATOM     14  C   SER B   8      37.530  59.612  22.916  1.00 17.61 LIG 0.24  C 
ATOM     15 O    SER B   8      38.595  59.053  23.206  1.00 19.05 LIG-0.27  OA
ATOM     16  N   VAL B   9      36.879  59.367  21.785  1.00 16.11 LIG-0.34  N 
ATOM     17 H    VAL B   9      36.140  59.747  21.565  1.00 16.11 LIG 0.16  HD
BRANCH 16 18
ATOM     18  CA  VAL B   9      37.382  58.411  20.806  1.00 15.65 LIG 0.19  C 
BRANCH 18 19
ATOM     19  CB  VAL B   9      37.154  56.958  21.291  1.00 11.15 LIG 0.01  C 
ATOM     20  CG1 VAL B   9      38.417  56.417  21.953  1.00 14.96 LIG 0.01  C 
ATOM     21  CG2 VAL B   9      36.000  56.918  22.271  1.00  9.83 LIG 0.01  C 
ENDBRANCH 18 19
BRANCH 18 22
ATOM     22  C   VAL B   9      36.703  58.583  19.448  1.00 14.44 LIG 0.20  C 
ATOM     23 O    VAL B   9      37.125  59.474  18.682  1.00 16.00 LIG-0.65  OA
ATOM     24 OXT  VAL B   9      35.765  57.818  19.156  1.00 15.84 LIG-0.65  OA
ENDBRANCH 18 22
ENDBRANCH 16 18
ENDBRANCH 10 14
ENDBRANCH 8 10
ENDBRANCH 1 6
BRANCH 1 25
ATOM     25  N   THR B   7      38.169  64.177  21.903  1.00 17.70 LIG-0.34  N 
ATOM     26 H    THR B   7      37.783  64.362  21.157  1.00 17.70 LIG 0.16  HD
ATOM     27  C   GLN B   6      39.437  63.805  22.015  1.00 20.89 LIG 0.24  C 
ATOM     28 O    GLN B   6      39.960  63.526  23.092  1.00 21.39 LIG-0.27  OA
BRANCH 27 29
ATOM     29  CA  GLN B   6      40.232  63.723  20.727  1.00 22.72 LIG 0.18  C 
BRANCH 29 30
ATOM     30  N   GLN B   6      41.520  63.098  21.010  1.00 25.12 LIG-0.35  N 
ATOM     31  C   LYS B   5      42.579  63.803  21.395  1.00 28.85 LIG 0.25  C 
ATOM     32 O    LYS B   5      42.563  65.029  21.520  1.00 29.08 LIG-0.27  OA
ATOM     33 H    GLN B   6      41.528  62.245  20.906  1.00 25.12 LIG 0.16  HD
BRANCH 31 34
ATOM     34  CA  LYS B   5      43.850  63.008  21.671  1.00 31.70 LIG 0.28  C 
ATOM     35  CB  LYS B   5      44.749  63.004  20.429  1.00 33.53 LIG 0.03  C 
BRANCH 34 36
ATOM     36  N   LYS B   5      43.534  61.605  22.075  1.00 35.61 LIG-0.07  N 
ATOM     37 H1   LYS B   5      43.836  61.458  22.899  1.00 35.61 LIG 0.28  HD
ATOM     38 H3   LYS B   5      43.923  61.038  21.510  1.00 35.61 LIG 0.28  HD
ATOM     39 H2   LYS B   5      42.652  61.482  22.056  1.00 35.61 LIG 0.28  HD
ENDBRANCH 34 36
ENDBRANCH 31 34
ENDBRANCH 29 30
BRANCH 29 40
ATOM     40  CB  GLN B   6      39.444  62.903  19.710  1.00 21.86 LIG 0.04  C 
BRANCH 40 41
ATOM     41  CG  GLN B   6      38.876  61.637  20.268  1.00 24.26 LIG 0.10  C 
BRANCH 41 42
ATOM     42  CD  GLN B   6      39.938  60.616  20.624  1.00 23.46 LIG 0.21  C 
ATOM     43  NE2 GLN B   6      40.325  60.608  21.889  1.00 26.30 LIG-0.37  N 
ATOM     44 22HE GLN B   6      40.930  60.056  22.150  1.00 26.30 LIG 0.16  HD
ATOM     45 21HE GLN B   6      39.971  61.155  22.450  1.00 26.30 LIG 0.16  HD
ATOM     46 OE1  GLN B   6      40.416  59.849  19.776  1.00 21.71 LIG-0.27  OA
ENDBRANCH 41 42
ENDBRANCH 40 41
ENDBRANCH 29 40
ENDBRANCH 27 29
ENDBRANCH 1 25
TORSDOF 18
ENDMDL
MODEL 5
USER: ADFR SOLUTION from run 8
USER: SCORE 14.631455 LL:  -3.270 LR: -12.698 RR:   0.000 FEB:  -7.328
USER: RMSD 5.571965
USER: SEED 906869
USER: STATUS no improvement in best 8 clusters for 5 generations
USER: GENES 20
USER: genes 0 Translation |==|  0.52629 0.62059 0.48364
USER: genes 1 Rotation |==|  0.66985 0.06003 0.50233 0.66604
USER: genes 2 Torsion [C]-CA--CB-[CG2] |==|  0.21445
USER: genes 3 Torsion [CA]-CB--OG1-[HG1] |==|  0.88280
USER: genes 4 Torsion [N]-CA--C-[N] |==|  0.40289
USER: genes 5 Torsion [C]-N--CA-[C] |==|  0.72952
USER: genes 6 Torsion [N]-CA--CB-[OG] |==|  0.09271
USER: genes 7 Torsion [CA]-CB--OG-[HG] |==|  0.96912
USER: genes 8 Torsion [N]-CA--C-[N] |==|  0.31148
USER: genes 9 Torsion [C]-N--CA-[CB] |==|  0.39009
USER: genes 10 Torsion [N]-CA--CB-[CG1] |==|  0.56701
USER: genes 11 Torsion [N]-CA--C-[OXT] |==|  0.56582
USER: genes 12 Torsion [CB]-CA--N-[C] |==|  0.45575
USER: genes 13 Torsion [N]-C--CA-[N] |==|  0.40398
USER: genes 14 Torsion [C]-CA--N-[C] |==|  0.69573
USER: genes 15 Torsion [N]-C--CA-[N] |==|  0.15404
USER: genes 16 Torsion [C]-CA--N-[H1] |==|  0.74192
USER: genes 17 Torsion [C]-CA--CB-[CG] |==|  0.03490
USER: genes 18 Torsion [CA]-CB--CG-[CD] |==|  0.72968
USER: genes 19 Torsion [CB]-CG--CD-[NE2] |==|  0.89433
ROOT
ATOM      1  CA  THR B   7      39.789  60.348  21.779  1.00 17.88 LIG 0.20  C 
ENDROOT
BRANCH 1 2
ATOM      2  CB  THR B   7      40.546  61.288  20.805  1.00 14.05 LIG 0.15  C 
ATOM      3  CG2 THR B   7      41.031  62.533  21.520  1.00 13.72 LIG 0.04  C 
BRANCH 2 4
ATOM      4 OG1  THR B   7      41.675  60.596  20.259  1.00 17.31 LIG-0.39  OA
ATOM      5 HG1  THR B   7      42.056  60.158  20.866  1.00 17.31 LIG 0.21  HD
ENDBRANCH 2 4
ENDBRANCH 1 2
BRANCH 1 6
ATOM      6  C   THR B   7      38.390  60.901  22.017  1.00 17.05 LIG 0.24  C 
ATOM      7 O    THR B   7      37.455  60.588  21.286  1.00 16.06 LIG-0.27  OA
ATOM      8  N   SER B   8      38.250  61.711  23.061  1.00 14.96 LIG-0.34  N 
ATOM      9 H    SER B   8      38.883  61.917  23.605  1.00 14.96 LIG 0.16  HD
BRANCH 8 10
ATOM     10  CA  SER B   8      36.969  62.323  23.361  1.00 16.48 LIG 0.20  C 
BRANCH 10 11
ATOM     11  CB  SER B   8      36.739  62.363  24.878  1.00 16.65 LIG 0.20  C 
BRANCH 11 12
ATOM     12 OG   SER B   8      37.952  62.543  25.582  1.00 27.09 LIG-0.40  OA
ATOM     13 HG   SER B   8      38.599  62.444  25.056  1.00 27.09 LIG 0.21  HD
ENDBRANCH 11 12
ENDBRANCH 10 11
BRANCH 10 14
ATOM     14  C   SER B   8      36.994  63.736  22.768  1.00 17.61 LIG 0.24  C 
ATOM     15 O    SER B   8      37.748  64.605  23.220  1.00 19.05 LIG-0.27  OA
ATOM     16  N   VAL B   9      36.179  63.958  21.744  1.00 16.11 LIG-0.34  N 
ATOM     17 H    VAL B   9      35.646  63.368  21.418  1.00 16.11 LIG 0.16  HD
BRANCH 16 18
ATOM     18  CA  VAL B   9      36.125  65.254  21.079  1.00 15.65 LIG 0.19  C 
BRANCH 18 19
ATOM     19  CB  VAL B   9      35.985  65.079  19.546  1.00 11.15 LIG 0.01  C 
ATOM     20  CG1 VAL B   9      36.513  66.314  18.824  1.00 14.96 LIG 0.01  C 
ATOM     21  CG2 VAL B   9      36.750  63.852  19.098  1.00  9.83 LIG 0.01  C 
ENDBRANCH 18 19
BRANCH 18 22
ATOM     22  C   VAL B   9      34.955  66.099  21.581  1.00 14.44 LIG 0.20  C 
ATOM     23 O    VAL B   9      34.500  65.867  22.720  1.00 16.00 LIG-0.65  OA
ATOM     24 OXT  VAL B   9      34.511  66.994  20.837  1.00 15.84 LIG-0.65  OA
ENDBRANCH 18 22
ENDBRANCH 16 18
ENDBRANCH 10 14
ENDBRANCH 8 10
ENDBRANCH 1 6
BRANCH 1 25
ATOM     25  N   THR B   7      39.746  58.989  21.261  1.00 17.70 LIG-0.34  N 
ATOM     26 H    THR B   7      39.935  58.917  20.425  1.00 17.70 LIG 0.16  HD
ATOM     27  C   GLN B   6      39.434  57.968  22.047  1.00 20.89 LIG 0.24  C 
ATOM     28 O    GLN B   6      39.148  58.102  23.236  1.00 21.39 LIG-0.27  OA
BRANCH 27 29
ATOM     29  CA  GLN B   6      39.433  56.596  21.403  1.00 22.72 LIG 0.18  C 
BRANCH 29 30
ATOM     30  N   GLN B   6      39.892  55.617  22.384  1.00 25.12 LIG-0.35  N 
ATOM     31  C   LYS B   5      41.074  55.017  22.285  1.00 28.85 LIG 0.25  C 
ATOM     32 O    LYS B   5      41.858  55.221  21.356  1.00 29.08 LIG-0.27  OA
ATOM     33 H    GLN B   6      39.334  55.468  23.020  1.00 25.12 LIG 0.16  HD
BRANCH 31 34
ATOM     34  CA  LYS B   5      41.420  54.031  23.395  1.00 31.70 LIG 0.28  C 
ATOM     35  CB  LYS B   5      42.779  53.378  23.115  1.00 33.53 LIG 0.03  C 
BRANCH 34 36
ATOM     36  N   LYS B   5      40.368  52.980  23.533  1.00 35.61 LIG-0.07  N 
ATOM     37 H1   LYS B   5      39.774  53.233  24.145  1.00 35.61 LIG 0.28  HD
ATOM     38 H3   LYS B   5      40.745  52.214  23.784  1.00 35.61 LIG 0.28  HD
ATOM     39 H2   LYS B   5      39.958  52.866  22.751  1.00 35.61 LIG 0.28  HD
ENDBRANCH 34 36
ENDBRANCH 31 34
ENDBRANCH 29 30
BRANCH 29 40
ATOM     40  CB  GLN B   6      38.019  56.271  20.933  1.00 21.86 LIG 0.04  C 
BRANCH 40 41
ATOM     41  CG  GLN B   6      37.096  57.447  20.943  1.00 24.26 LIG 0.10  C 
BRANCH 41 42
ATOM     42  CD  GLN B   6      36.234  57.515  22.188  1.00 23.46 LIG 0.21  C 
ATOM     43  NE2 GLN B   6      35.795  56.355  22.645  1.00 26.30 LIG-0.37  N 
ATOM     44 22HE GLN B   6      35.294  56.330  23.344  1.00 26.30 LIG 0.16  HD
ATOM     45 21HE GLN B   6      36.009  55.626  22.243  1.00 26.30 LIG 0.16  HD
ATOM     46 OE1  GLN B   6      35.955  58.594  22.729  1.00 21.71 LIG-0.27  OA
ENDBRANCH 41 42
ENDBRANCH 40 41
ENDBRANCH 29 40
ENDBRANCH 27 29
ENDBRANCH 1 25
TORSDOF 18
ENDMDL
MODEL 6
USER: ADFR SOLUTION from run 17
USER: SCORE 14.142767 LL:  -2.903 LR: -12.603 RR:   0.000 FEB:  -7.234
USER: RMSD 6.761914
USER: SEED 16
USER: STATUS no improvement in best 15 clusters for 5 generations
USER: GENES 20
USER: genes 0 Translation |==|  0.42393 0.51612 0.49942
USER: genes 1 Rotation |==|  0.49273 0.01855 0.36929 0.53260
USER: genes 2 Torsion [C]-CA--CB-[CG2] |==|  0.92873
USER: genes 3 Torsion [CA]-CB--OG1-[HG1] |==|  0.20352
USER: genes 4 Torsion [N]-CA--C-[N] |==|  0.49927
USER: genes 5 Torsion [C]-N--CA-[C] |==|  0.79894
USER: genes 6 Torsion [N]-CA--CB-[OG] |==|  0.14182
USER: genes 7 Torsion [CA]-CB--OG-[HG] |==|  0.19576
USER: genes 8 Torsion [N]-CA--C-[N] |==|  0.55556
USER: genes 9 Torsion [C]-N--CA-[CB] |==|  0.36563
USER: genes 10 Torsion [N]-CA--CB-[CG1] |==|  0.65126
USER: genes 11 Torsion [N]-CA--C-[OXT] |==|  0.99081
USER: genes 12 Torsion [CB]-CA--N-[C] |==|  0.80528
USER: genes 13 Torsion [N]-C--CA-[N] |==|  0.31788
USER: genes 14 Torsion [C]-CA--N-[C] |==|  0.62520
USER: genes 15 Torsion [N]-C--CA-[N] |==|  0.47488
USER: genes 16 Torsion [C]-CA--N-[H1] |==|  0.95201
USER: genes 17 Torsion [C]-CA--CB-[CG] |==|  0.70194
USER: genes 18 Torsion [CA]-CB--CG-[CD] |==|  0.29316
USER: genes 19 Torsion [CB]-CG--CD-[NE2] |==|  0.35511
ROOT
ATOM      1  CA  THR B   7      36.718  57.214  22.253  1.00 17.88 LIG 0.20  C 
ENDROOT
BRANCH 1 2
ATOM      2  CB  THR B   7      38.243  57.321  21.990  1.00 14.05 LIG 0.15  C 
ATOM      3  CG2 THR B   7      38.613  58.708  21.504  1.00 13.72 LIG 0.04  C 
BRANCH 2 4
ATOM      4 OG1  THR B   7      38.955  57.047  23.202  1.00 17.31 LIG-0.39  OA
ATOM      5 HG1  THR B   7      38.917  56.225  23.370  1.00 17.31 LIG 0.21  HD
ENDBRANCH 2 4
ENDBRANCH 1 2
BRANCH 1 6
ATOM      6  C   THR B   7      36.168  58.599  22.565  1.00 17.05 LIG 0.24  C 
ATOM      7 O    THR B   7      35.250  59.077  21.904  1.00 16.06 LIG-0.27  OA
ATOM      8  N   SER B   8      36.723  59.232  23.593  1.00 14.96 LIG-0.34  N 
ATOM      9 H    SER B   8      37.343  58.902  24.089  1.00 14.96 LIG 0.16  HD
BRANCH 8 10
ATOM     10  CA  SER B   8      36.301  60.571  23.958  1.00 16.48 LIG 0.20  C 
BRANCH 10 11
ATOM     11  CB  SER B   8      36.836  60.939  25.348  1.00 16.65 LIG 0.20  C 
BRANCH 11 12
ATOM     12 OG   SER B   8      38.228  60.707  25.446  1.00 27.09 LIG-0.40  OA
ATOM     13 HG   SER B   8      38.640  61.271  24.980  1.00 27.09 LIG 0.21  HD
ENDBRANCH 11 12
ENDBRANCH 10 11
BRANCH 10 14
ATOM     14  C   SER B   8      36.843  61.523  22.886  1.00 17.61 LIG 0.24  C 
ATOM     15 O    SER B   8      37.163  61.108  21.766  1.00 19.05 LIG-0.27  OA
ATOM     16  N   VAL B   9      36.929  62.803  23.226  1.00 16.11 LIG-0.34  N 
ATOM     17 H    VAL B   9      36.714  63.110  24.000  1.00 16.11 LIG 0.16  HD
BRANCH 16 18
ATOM     18  CA  VAL B   9      37.409  63.811  22.289  1.00 15.65 LIG 0.19  C 
BRANCH 18 19
ATOM     19  CB  VAL B   9      36.455  65.031  22.260  1.00 11.15 LIG 0.01  C 
ATOM     20  CG1 VAL B   9      36.003  65.314  20.831  1.00 14.96 LIG 0.01  C 
ATOM     21  CG2 VAL B   9      35.253  64.765  23.140  1.00  9.83 LIG 0.01  C 
ENDBRANCH 18 19
BRANCH 18 22
ATOM     22  C   VAL B   9      38.811  64.298  22.651  1.00 14.44 LIG 0.20  C 
ATOM     23 O    VAL B   9      39.364  65.128  21.899  1.00 16.00 LIG-0.65  OA
ATOM     24 OXT  VAL B   9      39.341  63.856  23.687  1.00 15.84 LIG-0.65  OA
ENDBRANCH 18 22
ENDBRANCH 16 18
ENDBRANCH 10 14
ENDBRANCH 8 10
ENDBRANCH 1 6
BRANCH 1 25
ATOM     25  N   THR B   7      36.037  56.611  21.117  1.00 17.70 LIG-0.34  N 
ATOM     26 H    THR B   7      35.734  55.818  21.257  1.00 17.70 LIG 0.16  HD
ATOM     27  C   GLN B   6      35.914  57.265  19.970  1.00 20.89 LIG 0.24  C 
ATOM     28 O    GLN B   6      36.374  58.391  19.789  1.00 21.39 LIG-0.27  OA
BRANCH 27 29
ATOM     29  CA  GLN B   6      35.175  56.546  18.860  1.00 22.72 LIG 0.18  C 
BRANCH 29 30
ATOM     30  N   GLN B   6      33.941  57.270  18.571  1.00 25.12 LIG-0.35  N 
ATOM     31  C   LYS B   5      32.777  56.648  18.411  1.00 28.85 LIG 0.25  C 
ATOM     32 O    LYS B   5      32.654  55.423  18.470  1.00 29.08 LIG-0.27  OA
ATOM     33 H    GLN B   6      34.037  58.122  18.516  1.00 25.12 LIG 0.16  HD
BRANCH 31 34
ATOM     34  CA  LYS B   5      31.573  57.540  18.133  1.00 31.70 LIG 0.28  C 
ATOM     35  CB  LYS B   5      31.259  58.400  19.363  1.00 33.53 LIG 0.03  C 
BRANCH 34 36
ATOM     36  N   LYS B   5      30.375  56.732  17.757  1.00 35.61 LIG-0.07  N 
ATOM     37 H1   LYS B   5      30.631  55.913  17.521  1.00 35.61 LIG 0.28  HD
ATOM     38 H3   LYS B   5      29.956  57.120  17.074  1.00 35.61 LIG 0.28  HD
ATOM     39 H2   LYS B   5      29.821  56.680  18.453  1.00 35.61 LIG 0.28  HD
ENDBRANCH 34 36
ENDBRANCH 31 34
ENDBRANCH 29 30
BRANCH 29 40
ATOM     40  CB  GLN B   6      36.070  56.489  17.626  1.00 21.86 LIG 0.04  C 
BRANCH 40 41
ATOM     41  CG  GLN B   6      35.638  57.406  16.527  1.00 24.26 LIG 0.10  C 
BRANCH 41 42
ATOM     42  CD  GLN B   6      36.523  58.630  16.393  1.00 23.46 LIG 0.21  C 
ATOM     43  NE2 GLN B   6      36.998  58.864  15.182  1.00 26.30 LIG-0.37  N 
ATOM     44 22HE GLN B   6      37.513  59.539  15.045  1.00 26.30 LIG 0.16  HD
ATOM     45 21HE GLN B   6      36.794  58.341  14.531  1.00 26.30 LIG 0.16  HD
ATOM     46 OE1  GLN B   6      36.787  59.352  17.365  1.00 21.71 LIG-0.27  OA
ENDBRANCH 41 42
ENDBRANCH 40 41
ENDBRANCH 29 40
ENDBRANCH 27 29
ENDBRANCH 1 25
TORSDOF 18
ENDMDL
MODEL 7
USER: ADFR SOLUTION from run 109
USER: SCORE 14.103848 LL:  -3.084 LR: -12.522 RR:   0.000 FEB:  -7.153
USER: RMSD 5.773798
USER: SEED 108
USER: STATUS no improvement in best 12 clusters for 5 generations
USER: GENES 20
USER: genes 0 Translation |==|  0.46624 0.48708 0.50093
USER: genes 1 Rotation |==|  0.67595 0.95343 0.60725 0.54400
USER: genes 2 Torsion [C]-CA--CB-[CG2] |==|  0.74075
USER: genes 3 Torsion [CA]-CB--OG1-[HG1] |==|  0.19043
USER: genes 4 Torsion [N]-CA--C-[N] |==|  0.87813
USER: genes 5 Torsion [C]-N--CA-[C] |==|  0.81295
USER: genes 6 Torsion [N]-CA--CB-[OG] |==|  0.75185
USER: genes 7 Torsion [CA]-CB--OG-[HG] |==|  0.90958
USER: genes 8 Torsion [N]-CA--C-[N] |==|  0.36063
USER: genes 9 Torsion [C]-N--CA-[CB] |==|  0.26115
USER: genes 10 Torsion [N]-CA--CB-[CG1] |==|  0.74501
USER: genes 11 Torsion [N]-CA--C-[OXT] |==|  0.92666
USER: genes 12 Torsion [CB]-CA--N-[C] |==|  0.36340
USER: genes 13 Torsion [N]-C--CA-[N] |==|  0.36805
USER: genes 14 Torsion [C]-CA--N-[C] |==|  0.63832
USER: genes 15 Torsion [N]-C--CA-[N] |==|  0.38176
USER: genes 16 Torsion [C]-CA--N-[H1] |==|  0.66879
USER: genes 17 Torsion [C]-CA--CB-[CG] |==|  0.60181
USER: genes 18 Torsion [CA]-CB--CG-[CD] |==|  0.39489
USER: genes 19 Torsion [CB]-CG--CD-[NE2] |==|  0.71165
ROOT
ATOM      1  CA  THR B   7      37.987  56.342  22.298  1.00 17.88 LIG 0.20  C 
ENDROOT
BRANCH 1 2
ATOM      2  CB  THR B   7      39.192  55.366  22.248  1.00 14.05 LIG 0.15  C 
ATOM      3  CG2 THR B   7      39.606  55.088  20.817  1.00 13.72 LIG 0.04  C 
BRANCH 2 4
ATOM      4 OG1  THR B   7      40.300  55.942  22.950  1.00 17.31 LIG-0.39  OA
ATOM      5 HG1  THR B   7      40.126  55.972  23.771  1.00 17.31 LIG 0.21  HD
ENDBRANCH 2 4
ENDBRANCH 1 2
BRANCH 1 6
ATOM      6  C   THR B   7      38.508  57.766  22.443  1.00 17.05 LIG 0.24  C 
ATOM      7 O    THR B   7      38.519  58.325  23.536  1.00 16.06 LIG-0.27  OA
ATOM      8  N   SER B   8      38.959  58.341  21.333  1.00 14.96 LIG-0.34  N 
ATOM      9 H    SER B   8      38.991  57.956  20.565  1.00 14.96 LIG 0.16  HD
BRANCH 8 10
ATOM     10  CA  SER B   8      39.446  59.708  21.349  1.00 16.48 LIG 0.20  C 
BRANCH 10 11
ATOM     11  CB  SER B   8      40.098  60.058  20.005  1.00 16.65 LIG 0.20  C 
BRANCH 11 12
ATOM     12 OG   SER B   8      41.477  59.743  19.999  1.00 27.09 LIG-0.40  OA
ATOM     13 HG   SER B   8      41.792  59.849  20.770  1.00 27.09 LIG 0.21  HD
ENDBRANCH 11 12
ENDBRANCH 10 11
BRANCH 10 14
ATOM     14  C   SER B   8      38.242  60.613  21.631  1.00 17.61 LIG 0.24  C 
ATOM     15 O    SER B   8      37.191  60.495  20.990  1.00 19.05 LIG-0.27  OA
ATOM     16  N   VAL B   9      38.391  61.505  22.602  1.00 16.11 LIG-0.34  N 
ATOM     17 H    VAL B   9      39.114  61.604  23.056  1.00 16.11 LIG 0.16  HD
BRANCH 16 18
ATOM     18  CA  VAL B   9      37.312  62.410  22.980  1.00 15.65 LIG 0.19  C 
BRANCH 18 19
ATOM     19  CB  VAL B   9      36.492  61.823  24.156  1.00 11.15 LIG 0.01  C 
ATOM     20  CG1 VAL B   9      35.315  61.011  23.626  1.00 14.96 LIG 0.01  C 
ATOM     21  CG2 VAL B   9      37.379  60.948  25.016  1.00  9.83 LIG 0.01  C 
ENDBRANCH 18 19
BRANCH 18 22
ATOM     22  C   VAL B   9      37.843  63.781  23.393  1.00 14.44 LIG 0.20  C 
ATOM     23 O    VAL B   9      37.090  64.770  23.271  1.00 16.00 LIG-0.65  OA
ATOM     24 OXT  VAL B   9      39.000  63.855  23.846  1.00 15.84 LIG-0.65  OA
ENDBRANCH 18 22
ENDBRANCH 16 18
ENDBRANCH 10 14
ENDBRANCH 8 10
ENDBRANCH 1 6
BRANCH 1 25
ATOM     25  N   THR B   7      37.151  56.196  21.116  1.00 17.70 LIG-0.34  N 
ATOM     26 H    THR B   7      37.578  56.206  20.369  1.00 17.70 LIG 0.16  HD
ATOM     27  C   GLN B   6      35.837  56.058  21.223  1.00 20.89 LIG 0.24  C 
ATOM     28 O    GLN B   6      35.249  56.067  22.303  1.00 21.39 LIG-0.27  OA
BRANCH 27 29
ATOM     29  CA  GLN B   6      35.068  55.900  19.927  1.00 22.72 LIG 0.18  C 
BRANCH 29 30
ATOM     30  N   GLN B   6      34.142  54.780  20.065  1.00 25.12 LIG-0.35  N 
ATOM     31  C   LYS B   5      34.064  53.811  19.159  1.00 28.85 LIG 0.25  C 
ATOM     32 O    LYS B   5      34.745  53.792  18.131  1.00 29.08 LIG-0.27  OA
ATOM     33 H    GLN B   6      33.659  54.807  20.776  1.00 25.12 LIG 0.16  HD
BRANCH 31 34
ATOM     34  CA  LYS B   5      33.062  52.700  19.450  1.00 31.70 LIG 0.28  C 
ATOM     35  CB  LYS B   5      33.786  51.473  20.018  1.00 33.53 LIG 0.03  C 
BRANCH 34 36
ATOM     36  N   LYS B   5      32.302  52.319  18.222  1.00 35.61 LIG-0.07  N 
ATOM     37 H1   LYS B   5      31.434  52.465  18.353  1.00 35.61 LIG 0.28  HD
ATOM     38 H3   LYS B   5      32.435  51.457  18.045  1.00 35.61 LIG 0.28  HD
ATOM     39 H2   LYS B   5      32.585  52.809  17.534  1.00 35.61 LIG 0.28  HD
ENDBRANCH 34 36
ENDBRANCH 31 34
ENDBRANCH 29 30
BRANCH 29 40
ATOM     40  CB  GLN B   6      34.314  57.194  19.637  1.00 21.86 LIG 0.04  C 
BRANCH 40 41
ATOM     41  CG  GLN B   6      32.970  56.981  19.018  1.00 24.26 LIG 0.10  C 
BRANCH 41 42
ATOM     42  CD  GLN B   6      31.923  57.954  19.523  1.00 23.46 LIG 0.21  C 
ATOM     43  NE2 GLN B   6      31.058  57.465  20.395  1.00 26.30 LIG-0.37  N 
ATOM     44 22HE GLN B   6      30.436  57.967  20.711  1.00 26.30 LIG 0.16  HD
ATOM     45 21HE GLN B   6      31.117  56.645  20.645  1.00 26.30 LIG 0.16  HD
ATOM     46 OE1  GLN B   6      31.881  59.129  19.129  1.00 21.71 LIG-0.27  OA
ENDBRANCH 41 42
ENDBRANCH 40 41
ENDBRANCH 29 40
ENDBRANCH 27 29
ENDBRANCH 1 25
TORSDOF 18
ENDMDL
MODEL 8
USER: ADFR SOLUTION from run 140
USER: SCORE 14.618419 LL:  -3.532 LR: -12.495 RR:   0.000 FEB:  -7.126
USER: RMSD 6.036774
USER: SEED 139
USER: STATUS no improvement in best 8 clusters for 5 generations
USER: GENES 20
USER: genes 0 Translation |==|  0.44868 0.49246 0.49526
USER: genes 1 Rotation |==|  0.67372 0.94855 0.60987 0.58094
USER: genes 2 Torsion [C]-CA--CB-[CG2] |==|  0.72738
USER: genes 3 Torsion [CA]-CB--OG1-[HG1] |==|  0.24433
USER: genes 4 Torsion [N]-CA--C-[N] |==|  0.83605
USER: genes 5 Torsion [C]-N--CA-[C] |==|  0.86431
USER: genes 6 Torsion [N]-CA--CB-[OG] |==|  0.61265
USER: genes 7 Torsion [CA]-CB--OG-[HG] |==|  0.19749
USER: genes 8 Torsion [N]-CA--C-[N] |==|  0.35567
USER: genes 9 Torsion [C]-N--CA-[CB] |==|  0.26560
USER: genes 10 Torsion [N]-CA--CB-[CG1] |==|  0.76639
USER: genes 11 Torsion [N]-CA--C-[OXT] |==|  0.43708
USER: genes 12 Torsion [CB]-CA--N-[C] |==|  0.51265
USER: genes 13 Torsion [N]-C--CA-[N] |==|  0.43237
USER: genes 14 Torsion [C]-CA--N-[C] |==|  0.59604
USER: genes 15 Torsion [N]-C--CA-[N] |==|  0.51467
USER: genes 16 Torsion [C]-CA--N-[H1] |==|  0.04579
USER: genes 17 Torsion [C]-CA--CB-[CG] |==|  0.03298
USER: genes 18 Torsion [CA]-CB--CG-[CD] |==|  0.60184
USER: genes 19 Torsion [CB]-CG--CD-[NE2] |==|  0.64362
ROOT
ATOM      1  CA  THR B   7      37.461  56.504  22.128  1.00 17.88 LIG 0.20  C 
ENDROOT
BRANCH 1 2
ATOM      2  CB  THR B   7      38.628  55.494  22.285  1.00 14.05 LIG 0.15  C 
ATOM      3  CG2 THR B   7      39.152  55.057  20.932  1.00 13.72 LIG 0.04  C 
BRANCH 2 4
ATOM      4 OG1  THR B   7      39.692  56.109  23.020  1.00 17.31 LIG-0.39  OA
ATOM      5 HG1  THR B   7      39.568  55.992  23.843  1.00 17.31 LIG 0.21  HD
ENDBRANCH 2 4
ENDBRANCH 1 2
BRANCH 1 6
ATOM      6  C   THR B   7      38.001  57.918  22.292  1.00 17.05 LIG 0.24  C 
ATOM      7 O    THR B   7      37.648  58.623  23.234  1.00 16.06 LIG-0.27  OA
ATOM      8  N   SER B   8      38.878  58.320  21.379  1.00 14.96 LIG-0.34  N 
ATOM      9 H    SER B   8      39.164  57.832  20.732  1.00 14.96 LIG 0.16  HD
BRANCH 8 10
ATOM     10  CA  SER B   8      39.431  59.661  21.419  1.00 16.48 LIG 0.20  C 
BRANCH 10 11
ATOM     11  CB  SER B   8      40.214  59.954  20.132  1.00 16.65 LIG 0.20  C 
BRANCH 11 12
ATOM     12 OG   SER B   8      41.408  60.663  20.400  1.00 27.09 LIG-0.40  OA
ATOM     13 HG   SER B   8      41.957  60.154  20.780  1.00 27.09 LIG 0.21  HD
ENDBRANCH 11 12
ENDBRANCH 10 11
BRANCH 10 14
ATOM     14  C   SER B   8      38.255  60.630  21.583  1.00 17.61 LIG 0.24  C 
ATOM     15 O    SER B   8      37.273  60.574  20.834  1.00 19.05 LIG-0.27  OA
ATOM     16  N   VAL B   9      38.350  61.507  22.574  1.00 16.11 LIG-0.34  N 
ATOM     17 H    VAL B   9      39.025  61.563  23.104  1.00 16.11 LIG 0.16  HD
BRANCH 16 18
ATOM     18  CA  VAL B   9      37.288  62.468  22.848  1.00 15.65 LIG 0.19  C 
BRANCH 18 19
ATOM     19  CB  VAL B   9      36.340  61.938  23.953  1.00 11.15 LIG 0.01  C 
ATOM     20  CG1 VAL B   9      35.284  61.019  23.347  1.00 14.96 LIG 0.01  C 
ATOM     21  CG2 VAL B   9      37.138  61.190  24.999  1.00  9.83 LIG 0.01  C 
ENDBRANCH 18 19
BRANCH 18 22
ATOM     22  C   VAL B   9      37.847  63.818  23.292  1.00 14.44 LIG 0.20  C 
ATOM     23 O    VAL B   9      39.000  63.855  23.770  1.00 16.00 LIG-0.65  OA
ATOM     24 OXT  VAL B   9      37.134  64.828  23.149  1.00 15.84 LIG-0.65  OA
ENDBRANCH 18 22
ENDBRANCH 16 18
ENDBRANCH 10 14
ENDBRANCH 8 10
ENDBRANCH 1 6
BRANCH 1 25
ATOM     25  N   THR B   7      36.794  56.331  20.846  1.00 17.70 LIG-0.34  N 
ATOM     26 H    THR B   7      37.082  55.670  20.377  1.00 17.70 LIG 0.16  HD
ATOM     27  C   GLN B   6      35.824  57.150  20.465  1.00 20.89 LIG 0.24  C 
ATOM     28 O    GLN B   6      35.445  58.101  21.147  1.00 21.39 LIG-0.27  OA
BRANCH 27 29
ATOM     29  CA  GLN B   6      35.193  56.868  19.117  1.00 22.72 LIG 0.18  C 
BRANCH 29 30
ATOM     30  N   GLN B   6      33.845  57.427  19.103  1.00 25.12 LIG-0.35  N 
ATOM     31  C   LYS B   5      32.843  56.844  18.452  1.00 28.85 LIG 0.25  C 
ATOM     32 O    LYS B   5      32.977  55.808  17.798  1.00 29.08 LIG-0.27  OA
ATOM     33 H    GLN B   6      33.762  58.158  19.549  1.00 25.12 LIG 0.16  HD
BRANCH 31 34
ATOM     34  CA  LYS B   5      31.489  57.538  18.546  1.00 31.70 LIG 0.28  C 
ATOM     35  CB  LYS B   5      31.125  57.788  20.014  1.00 33.53 LIG 0.03  C 
BRANCH 34 36
ATOM     36  N   LYS B   5      30.420  56.730  17.886  1.00 35.61 LIG-0.07  N 
ATOM     37 H1   LYS B   5      30.707  55.896  17.770  1.00 35.61 LIG 0.28  HD
ATOM     38 H3   LYS B   5      30.221  57.088  17.096  1.00 35.61 LIG 0.28  HD
ATOM     39 H2   LYS B   5      29.692  56.725  18.400  1.00 35.61 LIG 0.28  HD
ENDBRANCH 34 36
ENDBRANCH 31 34
ENDBRANCH 29 30
BRANCH 29 40
ATOM     40  CB  GLN B   6      36.052  57.498  18.026  1.00 21.86 LIG 0.04  C 
BRANCH 40 41
ATOM     41  CG  GLN B   6      37.389  57.963  18.507  1.00 24.26 LIG 0.10  C 
BRANCH 41 42
ATOM     42  CD  GLN B   6      37.845  59.247  17.842  1.00 23.46 LIG 0.21  C 
ATOM     43  NE2 GLN B   6      39.056  59.220  17.312  1.00 26.30 LIG-0.37  N 
ATOM     44 22HE GLN B   6      39.373  59.921  16.928  1.00 26.30 LIG 0.16  HD
ATOM     45 21HE GLN B   6      39.526  58.501  17.352  1.00 26.30 LIG 0.16  HD
ATOM     46 OE1  GLN B   6      37.127  60.257  17.812  1.00 21.71 LIG-0.27  OA
ENDBRANCH 41 42
ENDBRANCH 40 41
ENDBRANCH 29 40
ENDBRANCH 27 29
ENDBRANCH 1 25
TORSDOF 18
ENDMDL
MODEL 9
USER: ADFR SOLUTION from run 134
USER: SCORE 14.151229 LL:  -3.557 LR: -12.483 RR:   0.000 FEB:  -7.113
USER: RMSD 9.114570
USER: SEED 133
USER: STATUS no improvement in best 3 clusters for 5 generations
USER: GENES 20
USER: genes 0 Translation |==|  0.44300 0.62622 0.55818
USER: genes 1 Rotation |==|  0.00282 0.51256 0.48595 0.54959
USER: genes 2 Torsion [C]-CA--CB-[CG2] |==|  0.84474
USER: genes 3 Torsion [CA]-CB--OG1-[HG1] |==|  0.24401
USER: genes 4 Torsion [N]-CA--C-[N] |==|  0.10006
USER: genes 5 Torsion [C]-N--CA-[C] |==|  0.21704
USER: genes 6 Torsion [N]-CA--CB-[OG] |==|  0.64739
USER: genes 7 Torsion [CA]-CB--OG-[HG] |==|  0.56159
USER: genes 8 Torsion [N]-CA--C-[N] |==|  0.78667
USER: genes 9 Torsion [C]-N--CA-[CB] |==|  0.43383
USER: genes 10 Torsion [N]-CA--CB-[CG1] |==|  0.85430
USER: genes 11 Torsion [N]-CA--C-[OXT] |==|  0.49722
USER: genes 12 Torsion [CB]-CA--N-[C] |==|  0.14016
USER: genes 13 Torsion [N]-C--CA-[N] |==|  0.91761
USER: genes 14 Torsion [C]-CA--N-[C] |==|  0.21893
USER: genes 15 Torsion [N]-C--CA-[N] |==|  0.36926
USER: genes 16 Torsion [C]-CA--N-[H1] |==|  0.54159
USER: genes 17 Torsion [C]-CA--CB-[CG] |==|  0.06602
USER: genes 18 Torsion [CA]-CB--CG-[CD] |==|  0.25380
USER: genes 19 Torsion [CB]-CG--CD-[NE2] |==|  0.71738
ROOT
ATOM      1  CA  THR B   7      37.290  60.517  24.015  1.00 17.88 LIG 0.20  C 
ENDROOT
BRANCH 1 2
ATOM      2  CB  THR B   7      35.751  60.567  23.829  1.00 14.05 LIG 0.15  C 
ATOM      3  CG2 THR B   7      35.382  60.554  22.359  1.00 13.72 LIG 0.04  C 
BRANCH 2 4
ATOM      4 OG1  THR B   7      35.157  59.431  24.468  1.00 17.31 LIG-0.39  OA
ATOM      5 HG1  THR B   7      35.000  59.613  25.273  1.00 17.31 LIG 0.21  HD
ENDBRANCH 2 4
ENDBRANCH 1 2
BRANCH 1 6
ATOM      6  C   THR B   7      37.838  59.292  23.296  1.00 17.05 LIG 0.24  C 
ATOM      7 O    THR B   7      37.106  58.348  23.011  1.00 16.06 LIG-0.27  OA
ATOM      8  N   SER B   8      39.129  59.324  22.984  1.00 14.96 LIG-0.34  N 
ATOM      9 H    SER B   8      39.651  59.988  23.144  1.00 14.96 LIG 0.16  HD
BRANCH 8 10
ATOM     10  CA  SER B   8      39.764  58.196  22.328  1.00 16.48 LIG 0.20  C 
BRANCH 10 11
ATOM     11  CB  SER B   8      39.302  56.879  22.965  1.00 16.65 LIG 0.20  C 
BRANCH 11 12
ATOM     12 OG   SER B   8      40.400  56.081  23.362  1.00 27.09 LIG-0.40  OA
ATOM     13 HG   SER B   8      40.157  55.279  23.418  1.00 27.09 LIG 0.21  HD
ENDBRANCH 11 12
ENDBRANCH 10 11
BRANCH 10 14
ATOM     14  C   SER B   8      39.377  58.259  20.847  1.00 17.61 LIG 0.24  C 
ATOM     15 O    SER B   8      40.181  58.651  19.993  1.00 19.05 LIG-0.27  OA
ATOM     16  N   VAL B   9      38.150  57.857  20.542  1.00 16.11 LIG-0.34  N 
ATOM     17 H    VAL B   9      37.577  57.583  21.121  1.00 16.11 LIG 0.16  HD
BRANCH 16 18
ATOM     18  CA  VAL B   9      37.669  57.848  19.166  1.00 15.65 LIG 0.19  C 
BRANCH 18 19
ATOM     19  CB  VAL B   9      36.514  56.830  18.995  1.00 11.15 LIG 0.01  C 
ATOM     20  CG1 VAL B   9      36.933  55.462  19.522  1.00 14.96 LIG 0.01  C 
ATOM     21  CG2 VAL B   9      35.286  57.316  19.736  1.00  9.83 LIG 0.01  C 
ENDBRANCH 18 19
BRANCH 18 22
ATOM     22  C   VAL B   9      37.172  59.226  18.732  1.00 14.44 LIG 0.20  C 
ATOM     23 O    VAL B   9      37.220  60.162  19.557  1.00 16.00 LIG-0.65  OA
ATOM     24 OXT  VAL B   9      36.750  59.362  17.568  1.00 15.84 LIG-0.65  OA
ENDBRANCH 18 22
ENDBRANCH 16 18
ENDBRANCH 10 14
ENDBRANCH 8 10
ENDBRANCH 1 6
BRANCH 1 25
ATOM     25  N   THR B   7      37.911  61.742  23.536  1.00 17.70 LIG-0.34  N 
ATOM     26 H    THR B   7      38.571  61.624  22.997  1.00 17.70 LIG 0.16  HD
ATOM     27  C   GLN B   6      37.467  62.929  23.924  1.00 20.89 LIG 0.24  C 
ATOM     28 O    GLN B   6      36.534  63.070  24.713  1.00 21.39 LIG-0.27  OA
BRANCH 27 29
ATOM     29  CA  GLN B   6      38.181  64.137  23.351  1.00 22.72 LIG 0.18  C 
BRANCH 29 30
ATOM     30  N   GLN B   6      39.570  63.777  23.082  1.00 25.12 LIG-0.35  N 
ATOM     31  C   LYS B   5      39.925  63.083  22.006  1.00 28.85 LIG 0.25  C 
ATOM     32 O    LYS B   5      39.116  62.673  21.171  1.00 29.08 LIG-0.27  OA
ATOM     33 H    GLN B   6      40.126  64.052  23.677  1.00 25.12 LIG 0.16  HD
BRANCH 31 34
ATOM     34  CA  LYS B   5      41.415  62.800  21.853  1.00 31.70 LIG 0.28  C 
ATOM     35  CB  LYS B   5      42.015  63.704  20.770  1.00 33.53 LIG 0.03  C 
BRANCH 34 36
ATOM     36  N   LYS B   5      41.662  61.366  21.513  1.00 35.61 LIG-0.07  N 
ATOM     37 H1   LYS B   5      42.522  61.175  21.641  1.00 35.61 LIG 0.28  HD
ATOM     38 H3   LYS B   5      41.449  61.222  20.661  1.00 35.61 LIG 0.28  HD
ATOM     39 H2   LYS B   5      41.161  60.847  22.035  1.00 35.61 LIG 0.28  HD
ENDBRANCH 34 36
ENDBRANCH 31 34
ENDBRANCH 29 30
BRANCH 29 40
ATOM     40  CB  GLN B   6      37.476  64.568  22.070  1.00 21.86 LIG 0.04  C 
BRANCH 40 41
ATOM     41  CG  GLN B   6      36.046  64.137  21.996  1.00 24.26 LIG 0.10  C 
BRANCH 41 42
ATOM     42  CD  GLN B   6      35.085  65.170  22.552  1.00 23.46 LIG 0.21  C 
ATOM     43  NE2 GLN B   6      34.626  64.930  23.769  1.00 26.30 LIG-0.37  N 
ATOM     44 22HE GLN B   6      34.071  65.476  24.134  1.00 26.30 LIG 0.16  HD
ATOM     45 21HE GLN B   6      34.882  64.228  24.194  1.00 26.30 LIG 0.16  HD
ATOM     46 OE1  GLN B   6      34.748  66.166  21.897  1.00 21.71 LIG-0.27  OA
ENDBRANCH 41 42
ENDBRANCH 40 41
ENDBRANCH 29 40
ENDBRANCH 27 29
ENDBRANCH 1 25
TORSDOF 18
ENDMDL
MODEL 10
USER: ADFR SOLUTION from run 124
USER: SCORE 14.974115 LL:  -3.925 LR: -12.472 RR:   0.000 FEB:  -7.103
USER: RMSD 6.275726
USER: SEED 123
USER: STATUS no improvement in best 3 clusters for 5 generations
USER: GENES 20
USER: genes 0 Translation |==|  0.46284 0.49579 0.50153
USER: genes 1 Rotation |==|  0.69071 0.94546 0.61614 0.54132
USER: genes 2 Torsion [C]-CA--CB-[CG2] |==|  0.74927
USER: genes 3 Torsion [CA]-CB--OG1-[HG1] |==|  0.25043
USER: genes 4 Torsion [N]-CA--C-[N] |==|  0.88996
USER: genes 5 Torsion [C]-N--CA-[C] |==|  0.78802
USER: genes 6 Torsion [N]-CA--CB-[OG] |==|  0.80892
USER: genes 7 Torsion [CA]-CB--OG-[HG] |==|  0.83040
USER: genes 8 Torsion [N]-CA--C-[N] |==|  0.33404
USER: genes 9 Torsion [C]-N--CA-[CB] |==|  0.29291
USER: genes 10 Torsion [N]-CA--CB-[CG1] |==|  0.75998
USER: genes 11 Torsion [N]-CA--C-[OXT] |==|  0.41998
USER: genes 12 Torsion [CB]-CA--N-[C] |==|  0.50153
USER: genes 13 Torsion [N]-C--CA-[N] |==|  0.89952
USER: genes 14 Torsion [C]-CA--N-[C] |==|  0.79792
USER: genes 15 Torsion [N]-C--CA-[N] |==|  0.55206
USER: genes 16 Torsion [C]-CA--N-[H1] |==|  0.43031
USER: genes 17 Torsion [C]-CA--CB-[CG] |==|  0.42668
USER: genes 18 Torsion [CA]-CB--CG-[CD] |==|  0.81042
USER: genes 19 Torsion [CB]-CG--CD-[NE2] |==|  0.74682
ROOT
ATOM      1  CA  THR B   7      37.885  56.604  22.316  1.00 17.88 LIG 0.20  C 
ENDROOT
BRANCH 1 2
ATOM      2  CB  THR B   7      39.029  55.561  22.209  1.00 14.05 LIG 0.15  C 
ATOM      3  CG2 THR B   7      39.469  55.384  20.770  1.00 13.72 LIG 0.04  C 
BRANCH 2 4
ATOM      4 OG1  THR B   7      40.148  56.002  22.987  1.00 17.31 LIG-0.39  OA
ATOM      5 HG1  THR B   7      40.079  55.705  23.770  1.00 17.31 LIG 0.21  HD
ENDBRANCH 2 4
ENDBRANCH 1 2
BRANCH 1 6
ATOM      6  C   THR B   7      38.490  57.986  22.524  1.00 17.05 LIG 0.24  C 
ATOM      7 O    THR B   7      38.612  58.458  23.652  1.00 16.06 LIG-0.27  OA
ATOM      8  N   SER B   8      38.889  58.622  21.428  1.00 14.96 LIG-0.34  N 
ATOM      9 H    SER B   8      38.844  58.297  20.634  1.00 14.96 LIG 0.16  HD
BRANCH 8 10
ATOM     10  CA  SER B   8      39.448  59.959  21.507  1.00 16.48 LIG 0.20  C 
BRANCH 10 11
ATOM     11  CB  SER B   8      40.212  60.294  20.219  1.00 16.65 LIG 0.20  C 
BRANCH 11 12
ATOM     12 OG   SER B   8      41.389  59.521  20.098  1.00 27.09 LIG-0.40  OA
ATOM     13 HG   SER B   8      41.900  59.683  20.745  1.00 27.09 LIG 0.21  HD
ENDBRANCH 11 12
ENDBRANCH 10 11
BRANCH 10 14
ATOM     14  C   SER B   8      38.278  60.926  21.723  1.00 17.61 LIG 0.24  C 
ATOM     15 O    SER B   8      37.351  60.999  20.908  1.00 19.05 LIG-0.27  OA
ATOM     16  N   VAL B   9      38.315  61.655  22.831  1.00 16.11 LIG-0.34  N 
ATOM     17 H    VAL B   9      38.951  61.620  23.408  1.00 16.11 LIG 0.16  HD
BRANCH 16 18
ATOM     18  CA  VAL B   9      37.252  62.595  23.161  1.00 15.65 LIG 0.19  C 
BRANCH 18 19
ATOM     19  CB  VAL B   9      36.358  62.036  24.297  1.00 11.15 LIG 0.01  C 
ATOM     20  CG1 VAL B   9      35.257  61.155  23.717  1.00 14.96 LIG 0.01  C 
ATOM     21  CG2 VAL B   9      37.202  61.238  25.269  1.00  9.83 LIG 0.01  C 
ENDBRANCH 18 19
BRANCH 18 22
ATOM     22  C   VAL B   9      37.809  63.948  23.602  1.00 14.44 LIG 0.20  C 
ATOM     23 O    VAL B   9      38.935  63.979  24.140  1.00 16.00 LIG-0.65  OA
ATOM     24 OXT  VAL B   9      37.122  64.965  23.395  1.00 15.84 LIG-0.65  OA
ENDBRANCH 18 22
ENDBRANCH 16 18
ENDBRANCH 10 14
ENDBRANCH 8 10
ENDBRANCH 1 6
BRANCH 1 25
ATOM     25  N   THR B   7      37.035  56.564  21.136  1.00 17.70 LIG-0.34  N 
ATOM     26 H    THR B   7      37.263  55.979  20.548  1.00 17.70 LIG 0.16  HD
ATOM     27  C   GLN B   6      35.999  57.382  21.013  1.00 20.89 LIG 0.24  C 
ATOM     28 O    GLN B   6      35.707  58.224  21.861  1.00 21.39 LIG-0.27  OA
BRANCH 27 29
ATOM     29  CA  GLN B   6      35.177  57.243  19.748  1.00 22.72 LIG 0.18  C 
BRANCH 29 30
ATOM     30  N   GLN B   6      36.071  56.929  18.638  1.00 25.12 LIG-0.35  N 
ATOM     31  C   LYS B   5      36.890  57.834  18.112  1.00 28.85 LIG 0.25  C 
ATOM     32 O    LYS B   5      36.943  59.002  18.500  1.00 29.08 LIG-0.27  OA
ATOM     33 H    GLN B   6      36.018  56.116  18.362  1.00 25.12 LIG 0.16  HD
BRANCH 31 34
ATOM     34  CA  LYS B   5      37.777  57.350  16.969  1.00 31.70 LIG 0.28  C 
ATOM     35  CB  LYS B   5      38.277  55.930  17.255  1.00 33.53 LIG 0.03  C 
BRANCH 34 36
ATOM     36  N   LYS B   5      38.938  58.267  16.760  1.00 35.61 LIG-0.07  N 
ATOM     37 H1   LYS B   5      39.605  57.818  16.379  1.00 35.61 LIG 0.28  HD
ATOM     38 H3   LYS B   5      39.207  58.589  17.545  1.00 35.61 LIG 0.28  HD
ATOM     39 H2   LYS B   5      38.693  58.940  16.231  1.00 35.61 LIG 0.28  HD
ENDBRANCH 34 36
ENDBRANCH 31 34
ENDBRANCH 29 30
BRANCH 29 40
ATOM     40  CB  GLN B   6      34.148  56.135  19.945  1.00 21.86 LIG 0.04  C 
BRANCH 40 41
ATOM     41  CG  GLN B   6      32.924  56.292  19.101  1.00 24.26 LIG 0.10  C 
BRANCH 41 42
ATOM     42  CD  GLN B   6      32.071  57.478  19.507  1.00 23.46 LIG 0.21  C 
ATOM     43  NE2 GLN B   6      31.125  57.226  20.395  1.00 26.30 LIG-0.37  N 
ATOM     44 22HE GLN B   6      30.604  57.857  20.658  1.00 26.30 LIG 0.16  HD
ATOM     45 21HE GLN B   6      31.030  56.431  20.709  1.00 26.30 LIG 0.16  HD
ATOM     46 OE1  GLN B   6      32.250  58.605  19.024  1.00 21.71 LIG-0.27  OA
ENDBRANCH 41 42
ENDBRANCH 40 41
ENDBRANCH 29 40
ENDBRANCH 27 29
ENDBRANCH 1 25
TORSDOF 18
ENDMDL
MODEL 11
USER: ADFR SOLUTION from run 34
USER: SCORE 15.331573 LL:  -3.308 LR: -12.467 RR:   0.000 FEB:  -7.098
USER: RMSD 7.183092
USER: SEED 33
USER: STATUS no improvement in best 7 clusters for 5 generations
USER: GENES 20
USER: genes 0 Translation |==|  0.40603 0.62051 0.49771
USER: genes 1 Rotation |==|  0.57844 0.76301 0.71743 0.85693
USER: genes 2 Torsion [C]-CA--CB-[CG2] |==|  0.09102
USER: genes 3 Torsion [CA]-CB--OG1-[HG1] |==|  0.35482
USER: genes 4 Torsion [N]-CA--C-[N] |==|  0.91016
USER: genes 5 Torsion [C]-N--CA-[C] |==|  0.81673
USER: genes 6 Torsion [N]-CA--CB-[OG] |==|  0.15469
USER: genes 7 Torsion [CA]-CB--OG-[HG] |==|  0.76637
USER: genes 8 Torsion [N]-CA--C-[N] |==|  0.92190
USER: genes 9 Torsion [C]-N--CA-[CB] |==|  0.49696
USER: genes 10 Torsion [N]-CA--CB-[CG1] |==|  0.56097
USER: genes 11 Torsion [N]-CA--C-[OXT] |==|  0.19459
USER: genes 12 Torsion [CB]-CA--N-[C] |==|  0.87063
USER: genes 13 Torsion [N]-C--CA-[N] |==|  0.37788
USER: genes 14 Torsion [C]-CA--N-[C] |==|  0.71667
USER: genes 15 Torsion [N]-C--CA-[N] |==|  0.11835
USER: genes 16 Torsion [C]-CA--N-[H1] |==|  0.73989
USER: genes 17 Torsion [C]-CA--CB-[CG] |==|  0.07680
USER: genes 18 Torsion [CA]-CB--CG-[CD] |==|  0.71100
USER: genes 19 Torsion [CB]-CG--CD-[NE2] |==|  0.73750
ROOT
ATOM      1  CA  THR B   7      36.181  60.345  22.201  1.00 17.88 LIG 0.20  C 
ENDROOT
BRANCH 1 2
ATOM      2  CB  THR B   7      36.137  59.185  23.229  1.00 14.05 LIG 0.15  C 
ATOM      3  CG2 THR B   7      35.250  59.536  24.407  1.00 13.72 LIG 0.04  C 
BRANCH 2 4
ATOM      4 OG1  THR B   7      35.625  58.007  22.596  1.00 17.31 LIG-0.39  OA
ATOM      5 HG1  THR B   7      36.154  57.367  22.725  1.00 17.31 LIG 0.21  HD
ENDBRANCH 2 4
ENDBRANCH 1 2
BRANCH 1 6
ATOM      6  C   THR B   7      36.062  61.671  22.942  1.00 17.05 LIG 0.24  C 
ATOM      7 O    THR B   7      34.962  62.163  23.182  1.00 16.06 LIG-0.27  OA
ATOM      8  N   SER B   8      37.203  62.234  23.323  1.00 14.96 LIG-0.34  N 
ATOM      9 H    SER B   8      37.981  61.890  23.195  1.00 14.96 LIG 0.16  HD
BRANCH 8 10
ATOM     10  CA  SER B   8      37.209  63.515  24.005  1.00 16.48 LIG 0.20  C 
BRANCH 10 11
ATOM     11  CB  SER B   8      38.625  63.855  24.489  1.00 16.65 LIG 0.20  C 
BRANCH 11 12
ATOM     12 OG   SER B   8      39.556  63.835  23.424  1.00 27.09 LIG-0.40  OA
ATOM     13 HG   SER B   8      39.818  63.048  23.297  1.00 27.09 LIG 0.21  HD
ENDBRANCH 11 12
ENDBRANCH 10 11
BRANCH 10 14
ATOM     14  C   SER B   8      36.699  64.560  23.008  1.00 17.61 LIG 0.24  C 
ATOM     15 O    SER B   8      36.131  65.588  23.395  1.00 19.05 LIG-0.27  OA
ATOM     16  N   VAL B   9      36.916  64.303  21.724  1.00 16.11 LIG-0.34  N 
ATOM     17 H    VAL B   9      37.307  63.594  21.436  1.00 16.11 LIG 0.16  HD
BRANCH 16 18
ATOM     18  CA  VAL B   9      36.499  65.230  20.679  1.00 15.65 LIG 0.19  C 
BRANCH 18 19
ATOM     19  CB  VAL B   9      36.900  64.696  19.281  1.00 11.15 LIG 0.01  C 
ATOM     20  CG1 VAL B   9      36.969  65.843  18.278  1.00 14.96 LIG 0.01  C 
ATOM     21  CG2 VAL B   9      38.242  63.999  19.363  1.00  9.83 LIG 0.01  C 
ENDBRANCH 18 19
BRANCH 18 22
ATOM     22  C   VAL B   9      34.989  65.459  20.697  1.00 14.44 LIG 0.20  C 
ATOM     23 O    VAL B   9      34.304  64.980  19.770  1.00 16.00 LIG-0.65  OA
ATOM     24 OXT  VAL B   9      34.501  66.105  21.644  1.00 15.84 LIG-0.65  OA
ENDBRANCH 18 22
ENDBRANCH 16 18
ENDBRANCH 10 14
ENDBRANCH 8 10
ENDBRANCH 1 6
BRANCH 1 25
ATOM     25  N   THR B   7      37.396  60.286  21.403  1.00 17.70 LIG-0.34  N 
ATOM     26 H    THR B   7      37.275  60.383  20.557  1.00 17.70 LIG 0.16  HD
ATOM     27  C   GLN B   6      38.578  60.095  21.972  1.00 20.89 LIG 0.24  C 
ATOM     28 O    GLN B   6      38.720  59.940  23.184  1.00 21.39 LIG-0.27  OA
BRANCH 27 29
ATOM     29  CA  GLN B   6      39.776  60.064  21.045  1.00 22.72 LIG 0.18  C 
BRANCH 29 30
ATOM     30  N   GLN B   6      40.850  60.853  21.639  1.00 25.12 LIG-0.35  N 
ATOM     31  C   LYS B   5      41.133  62.086  21.229  1.00 28.85 LIG 0.25  C 
ATOM     32 O    LYS B   5      40.532  62.644  20.310  1.00 29.08 LIG-0.27  OA
ATOM     33 H    GLN B   6      41.275  60.452  22.270  1.00 25.12 LIG 0.16  HD
BRANCH 31 34
ATOM     34  CA  LYS B   5      42.271  62.790  21.959  1.00 31.70 LIG 0.28  C 
ATOM     35  CB  LYS B   5      42.734  64.013  21.157  1.00 33.53 LIG 0.03  C 
BRANCH 34 36
ATOM     36  N   LYS B   5      43.422  61.866  22.187  1.00 35.61 LIG-0.07  N 
ATOM     37 H1   LYS B   5      43.348  61.493  22.992  1.00 35.61 LIG 0.28  HD
ATOM     38 H3   LYS B   5      44.184  62.324  22.141  1.00 35.61 LIG 0.28  HD
ATOM     39 H2   LYS B   5      43.421  61.230  21.564  1.00 35.61 LIG 0.28  HD
ENDBRANCH 34 36
ENDBRANCH 31 34
ENDBRANCH 29 30
BRANCH 29 40
ATOM     40  CB  GLN B   6      40.213  58.616  20.849  1.00 21.86 LIG 0.04  C 
BRANCH 40 41
ATOM     41  CG  GLN B   6      39.102  57.627  21.003  1.00 24.26 LIG 0.10  C 
BRANCH 41 42
ATOM     42  CD  GLN B   6      39.147  56.883  22.323  1.00 23.46 LIG 0.21  C 
ATOM     43  NE2 GLN B   6      39.767  55.716  22.303  1.00 26.30 LIG-0.37  N 
ATOM     44 22HE GLN B   6      39.818  55.244  23.020  1.00 26.30 LIG 0.16  HD
ATOM     45 21HE GLN B   6      40.118  55.428  21.573  1.00 26.30 LIG 0.16  HD
ATOM     46 OE1  GLN B   6      38.625  57.344  23.348  1.00 21.71 LIG-0.27  OA
ENDBRANCH 41 42
ENDBRANCH 40 41
ENDBRANCH 29 40
ENDBRANCH 27 29
ENDBRANCH 1 25
TORSDOF 18
ENDMDL
MODEL 12
USER: ADFR SOLUTION from run 62
USER: SCORE 14.560909 LL:  -4.304 LR: -12.428 RR:   0.000 FEB:  -7.059
USER: RMSD 7.851365
USER: SEED 61
USER: STATUS no improvement in best 12 clusters for 5 generations
USER: GENES 20
USER: genes 0 Translation |==|  0.43644 0.70876 0.53073
USER: genes 1 Rotation |==|  0.41558 0.86585 0.48800 0.82998
USER: genes 2 Torsion [C]-CA--CB-[CG2] |==|  0.45394
USER: genes 3 Torsion [CA]-CB--OG1-[HG1] |==|  0.87530
USER: genes 4 Torsion [N]-CA--C-[N] |==|  0.03536
USER: genes 5 Torsion [C]-N--CA-[C] |==|  0.63900
USER: genes 6 Torsion [N]-CA--CB-[OG] |==|  0.89963
USER: genes 7 Torsion [CA]-CB--OG-[HG] |==|  0.07130
USER: genes 8 Torsion [N]-CA--C-[N] |==|  0.90601
USER: genes 9 Torsion [C]-N--CA-[CB] |==|  0.27584
USER: genes 10 Torsion [N]-CA--CB-[CG1] |==|  0.72917
USER: genes 11 Torsion [N]-CA--C-[OXT] |==|  0.43452
USER: genes 12 Torsion [CB]-CA--N-[C] |==|  0.44047
USER: genes 13 Torsion [N]-C--CA-[N] |==|  0.89707
USER: genes 14 Torsion [C]-CA--N-[C] |==|  0.83701
USER: genes 15 Torsion [N]-C--CA-[N] |==|  0.22600
USER: genes 16 Torsion [C]-CA--N-[H1] |==|  0.27353
USER: genes 17 Torsion [C]-CA--CB-[CG] |==|  0.33388
USER: genes 18 Torsion [CA]-CB--CG-[CD] |==|  0.37778
USER: genes 19 Torsion [CB]-CG--CD-[NE2] |==|  0.39075
ROOT
ATOM      1  CA  THR B   7      37.093  62.993  23.192  1.00 17.88 LIG 0.20  C 
ENDROOT
BRANCH 1 2
ATOM      2  CB  THR B   7      37.289  63.495  24.646  1.00 14.05 LIG 0.15  C 
ATOM      3  CG2 THR B   7      36.752  62.490  25.645  1.00 13.72 LIG 0.04  C 
BRANCH 2 4
ATOM      4 OG1  THR B   7      38.685  63.699  24.895  1.00 17.31 LIG-0.39  OA
ATOM      5 HG1  THR B   7      39.121  63.046  24.597  1.00 17.31 LIG 0.21  HD
ENDBRANCH 2 4
ENDBRANCH 1 2
BRANCH 1 6
ATOM      6  C   THR B   7      37.253  64.167  22.235  1.00 17.05 LIG 0.24  C 
ATOM      7 O    THR B   7      36.740  65.255  22.480  1.00 16.06 LIG-0.27  OA
ATOM      8  N   SER B   8      37.988  63.943  21.150  1.00 14.96 LIG-0.34  N 
ATOM      9 H    SER B   8      38.383  63.200  20.976  1.00 14.96 LIG 0.16  HD
BRANCH 8 10
ATOM     10  CA  SER B   8      38.177  64.981  20.154  1.00 16.48 LIG 0.20  C 
BRANCH 10 11
ATOM     11  CB  SER B   8      39.619  65.505  20.197  1.00 16.65 LIG 0.20  C 
BRANCH 11 12
ATOM     12 OG   SER B   8      40.118  65.544  21.520  1.00 27.09 LIG-0.40  OA
ATOM     13 HG   SER B   8      39.713  64.977  21.989  1.00 27.09 LIG 0.21  HD
ENDBRANCH 11 12
ENDBRANCH 10 11
BRANCH 10 14
ATOM     14  C   SER B   8      37.855  64.361  18.790  1.00 17.61 LIG 0.24  C 
ATOM     15 O    SER B   8      37.347  65.035  17.886  1.00 19.05 LIG-0.27  OA
ATOM     16  N   VAL B   9      38.166  63.080  18.638  1.00 16.11 LIG-0.34  N 
ATOM     17 H    VAL B   9      38.517  62.594  19.255  1.00 16.11 LIG 0.16  HD
BRANCH 16 18
ATOM     18  CA  VAL B   9      37.930  62.380  17.381  1.00 15.65 LIG 0.19  C 
BRANCH 18 19
ATOM     19  CB  VAL B   9      39.234  62.291  16.549  1.00 11.15 LIG 0.01  C 
ATOM     20  CG1 VAL B   9      39.270  63.402  15.505  1.00 14.96 LIG 0.01  C 
ATOM     21  CG2 VAL B   9      40.435  62.402  17.463  1.00  9.83 LIG 0.01  C 
ENDBRANCH 18 19
BRANCH 18 22
ATOM     22  C   VAL B   9      37.402  60.966  17.611  1.00 14.44 LIG 0.20  C 
ATOM     23 O    VAL B   9      37.636  60.416  18.708  1.00 16.00 LIG-0.65  OA
ATOM     24 OXT  VAL B   9      36.750  60.423  16.700  1.00 15.84 LIG-0.65  OA
ENDBRANCH 18 22
ENDBRANCH 16 18
ENDBRANCH 10 14
ENDBRANCH 8 10
ENDBRANCH 1 6
BRANCH 1 25
ATOM     25  N   THR B   7      38.027  61.920  22.884  1.00 17.70 LIG-0.34  N 
ATOM     26 H    THR B   7      38.724  61.894  23.386  1.00 17.70 LIG 0.16  HD
ATOM     27  C   GLN B   6      37.786  61.069  21.897  1.00 20.89 LIG 0.24  C 
ATOM     28 O    GLN B   6      36.789  61.140  21.179  1.00 21.39 LIG-0.27  OA
BRANCH 27 29
ATOM     29  CA  GLN B   6      38.820  59.984  21.674  1.00 22.72 LIG 0.18  C 
BRANCH 29 30
ATOM     30  N   GLN B   6      40.147  60.544  21.913  1.00 25.12 LIG-0.35  N 
ATOM     31  C   LYS B   5      40.611  61.583  21.225  1.00 28.85 LIG 0.25  C 
ATOM     32 O    LYS B   5      39.973  62.135  20.327  1.00 29.08 LIG-0.27  OA
ATOM     33 H    GLN B   6      40.592  60.144  22.530  1.00 25.12 LIG 0.16  HD
BRANCH 31 34
ATOM     34  CA  LYS B   5      42.007  62.066  21.601  1.00 31.70 LIG 0.28  C 
ATOM     35  CB  LYS B   5      42.182  63.534  21.199  1.00 33.53 LIG 0.03  C 
BRANCH 34 36
ATOM     36  N   LYS B   5      43.061  61.230  20.953  1.00 35.61 LIG-0.07  N 
ATOM     37 H1   LYS B   5      43.359  61.642  20.222  1.00 35.61 LIG 0.28  HD
ATOM     38 H3   LYS B   5      42.718  60.440  20.729  1.00 35.61 LIG 0.28  HD
ATOM     39 H2   LYS B   5      43.736  61.110  21.521  1.00 35.61 LIG 0.28  HD
ENDBRANCH 34 36
ENDBRANCH 31 34
ENDBRANCH 29 30
BRANCH 29 40
ATOM     40  CB  GLN B   6      38.540  58.829  22.629  1.00 21.86 LIG 0.04  C 
BRANCH 40 41
ATOM     41  CG  GLN B   6      38.269  57.530  21.940  1.00 24.26 LIG 0.10  C 
BRANCH 41 42
ATOM     42  CD  GLN B   6      38.986  56.358  22.580  1.00 23.46 LIG 0.21  C 
ATOM     43  NE2 GLN B   6      38.297  55.231  22.647  1.00 26.30 LIG-0.37  N 
ATOM     44 22HE GLN B   6      38.648  54.533  23.007  1.00 26.30 LIG 0.16  HD
ATOM     45 21HE GLN B   6      37.498  55.197  22.331  1.00 26.30 LIG 0.16  HD
ATOM     46 OE1  GLN B   6      40.140  56.460  23.020  1.00 21.71 LIG-0.27  OA
ENDBRANCH 41 42
ENDBRANCH 40 41
ENDBRANCH 29 40
ENDBRANCH 27 29
ENDBRANCH 1 25
TORSDOF 18
ENDMDL
MODEL 13
USER: ADFR SOLUTION from run 110
USER: SCORE 13.917435 LL:  -3.396 LR: -12.359 RR:   0.000 FEB:  -6.990
USER: RMSD 7.712681
USER: SEED 109
USER: STATUS no improvement in best 12 clusters for 5 generations
USER: GENES 20
USER: genes 0 Translation |==|  0.44798 0.71260 0.51183
USER: genes 1 Rotation |==|  0.40519 0.84989 0.46100 0.84215
USER: genes 2 Torsion [C]-CA--CB-[CG2] |==|  0.44475
USER: genes 3 Torsion [CA]-CB--OG1-[HG1] |==|  0.83769
USER: genes 4 Torsion [N]-CA--C-[N] |==|  0.13749
USER: genes 5 Torsion [C]-N--CA-[C] |==|  0.84161
USER: genes 6 Torsion [N]-CA--CB-[OG] |==|  0.05825
USER: genes 7 Torsion [CA]-CB--OG-[HG] |==|  0.02434
USER: genes 8 Torsion [N]-CA--C-[N] |==|  0.91108
USER: genes 9 Torsion [C]-N--CA-[CB] |==|  0.36422
USER: genes 10 Torsion [N]-CA--CB-[CG1] |==|  0.55035
USER: genes 11 Torsion [N]-CA--C-[OXT] |==|  0.46540
USER: genes 12 Torsion [CB]-CA--N-[C] |==|  0.43512
USER: genes 13 Torsion [N]-C--CA-[N] |==|  0.89983
USER: genes 14 Torsion [C]-CA--N-[C] |==|  0.85861
USER: genes 15 Torsion [N]-C--CA-[N] |==|  0.23942
USER: genes 16 Torsion [C]-CA--N-[H1] |==|  0.30390
USER: genes 17 Torsion [C]-CA--CB-[CG] |==|  0.30399
USER: genes 18 Torsion [CA]-CB--CG-[CD] |==|  0.35426
USER: genes 19 Torsion [CB]-CG--CD-[NE2] |==|  0.42011
ROOT
ATOM      1  CA  THR B   7      37.439  63.108  22.625  1.00 17.88 LIG 0.20  C 
ENDROOT
BRANCH 1 2
ATOM      2  CB  THR B   7      37.515  63.750  24.035  1.00 14.05 LIG 0.15  C 
ATOM      3  CG2 THR B   7      36.784  62.903  25.057  1.00 13.72 LIG 0.04  C 
BRANCH 2 4
ATOM      4 OG1  THR B   7      38.887  63.873  24.428  1.00 17.31 LIG-0.39  OA
ATOM      5 HG1  THR B   7      39.248  63.114  24.426  1.00 17.31 LIG 0.21  HD
ENDBRANCH 2 4
ENDBRANCH 1 2
BRANCH 1 6
ATOM      6  C   THR B   7      37.727  64.175  21.577  1.00 17.05 LIG 0.24  C 
ATOM      7 O    THR B   7      37.850  65.355  21.895  1.00 16.06 LIG-0.27  OA
ATOM      8  N   SER B   8      37.855  63.748  20.325  1.00 14.96 LIG-0.34  N 
ATOM      9 H    SER B   8      37.805  62.924  20.086  1.00 14.96 LIG 0.16  HD
BRANCH 8 10
ATOM     10  CA  SER B   8      38.095  64.682  19.241  1.00 16.48 LIG 0.20  C 
BRANCH 10 11
ATOM     11  CB  SER B   8      38.156  63.939  17.900  1.00 16.65 LIG 0.20  C 
BRANCH 11 12
ATOM     12 OG   SER B   8      37.514  62.682  17.973  1.00 27.09 LIG-0.40  OA
ATOM     13 HG   SER B   8      37.109  62.616  18.706  1.00 27.09 LIG 0.21  HD
ENDBRANCH 11 12
ENDBRANCH 10 11
BRANCH 10 14
ATOM     14  C   SER B   8      36.948  65.699  19.259  1.00 17.61 LIG 0.24  C 
ATOM     15 O    SER B   8      37.125  66.867  18.895  1.00 19.05 LIG-0.27  OA
ATOM     16  N   VAL B   9      35.769  65.247  19.667  1.00 16.11 LIG-0.34  N 
ATOM     17 H    VAL B   9      35.627  64.440  19.926  1.00 16.11 LIG 0.16  HD
BRANCH 16 18
ATOM     18  CA  VAL B   9      34.594  66.110  19.708  1.00 15.65 LIG 0.19  C 
BRANCH 18 19
ATOM     19  CB  VAL B   9      33.385  65.423  19.026  1.00 11.15 LIG 0.01  C 
ATOM     20  CG1 VAL B   9      32.321  66.456  18.672  1.00 14.96 LIG 0.01  C 
ATOM     21  CG2 VAL B   9      33.841  64.701  17.776  1.00  9.83 LIG 0.01  C 
ENDBRANCH 18 19
BRANCH 18 22
ATOM     22  C   VAL B   9      34.206  66.468  21.142  1.00 14.44 LIG 0.20  C 
ATOM     23 O    VAL B   9      34.746  65.842  22.077  1.00 16.00 LIG-0.65  OA
ATOM     24 OXT  VAL B   9      33.375  67.378  21.318  1.00 15.84 LIG-0.65  OA
ENDBRANCH 18 22
ENDBRANCH 16 18
ENDBRANCH 10 14
ENDBRANCH 8 10
ENDBRANCH 1 6
BRANCH 1 25
ATOM     25  N   THR B   7      38.361  61.987  22.515  1.00 17.70 LIG-0.34  N 
ATOM     26 H    THR B   7      39.022  62.009  23.065  1.00 17.70 LIG 0.16  HD
ATOM     27  C   GLN B   6      38.164  61.027  21.622  1.00 20.89 LIG 0.24  C 
ATOM     28 O    GLN B   6      37.221  61.030  20.833  1.00 21.39 LIG-0.27  OA
BRANCH 27 29
ATOM     29  CA  GLN B   6      39.180  59.903  21.606  1.00 22.72 LIG 0.18  C 
BRANCH 29 30
ATOM     30  N   GLN B   6      40.499  60.458  21.892  1.00 25.12 LIG-0.35  N 
ATOM     31  C   LYS B   5      40.984  61.506  21.234  1.00 28.85 LIG 0.25  C 
ATOM     32 O    LYS B   5      40.375  62.070  20.324  1.00 29.08 LIG-0.27  OA
ATOM     33 H    GLN B   6      40.925  60.049  22.518  1.00 25.12 LIG 0.16  HD
BRANCH 31 34
ATOM     34  CA  LYS B   5      42.369  61.981  21.658  1.00 31.70 LIG 0.28  C 
ATOM     35  CB  LYS B   5      42.515  63.484  21.391  1.00 33.53 LIG 0.03  C 
BRANCH 34 36
ATOM     36  N   LYS B   5      43.443  61.230  20.942  1.00 35.61 LIG-0.07  N 
ATOM     37 H1   LYS B   5      43.842  61.768  20.357  1.00 35.61 LIG 0.28  HD
ATOM     38 H3   LYS B   5      43.085  60.537  20.513  1.00 35.61 LIG 0.28  HD
ATOM     39 H2   LYS B   5      44.042  60.936  21.531  1.00 35.61 LIG 0.28  HD
ENDBRANCH 34 36
ENDBRANCH 31 34
ENDBRANCH 29 30
BRANCH 29 40
ATOM     40  CB  GLN B   6      38.789  58.866  22.654  1.00 21.86 LIG 0.04  C 
BRANCH 40 41
ATOM     41  CG  GLN B   6      38.292  57.581  22.073  1.00 24.26 LIG 0.10  C 
BRANCH 41 42
ATOM     42  CD  GLN B   6      39.013  56.365  22.618  1.00 23.46 LIG 0.21  C 
ATOM     43  NE2 GLN B   6      38.310  55.245  22.645  1.00 26.30 LIG-0.37  N 
ATOM     44 22HE GLN B   6      38.663  54.524  22.951  1.00 26.30 LIG 0.16  HD
ATOM     45 21HE GLN B   6      37.500  55.239  22.357  1.00 26.30 LIG 0.16  HD
ATOM     46 OE1  GLN B   6      40.183  56.427  23.021  1.00 21.71 LIG-0.27  OA
ENDBRANCH 41 42
ENDBRANCH 40 41
ENDBRANCH 29 40
ENDBRANCH 27 29
ENDBRANCH 1 25
TORSDOF 18
ENDMDL
MODEL 14
USER: ADFR SOLUTION from run 108
USER: SCORE 14.355573 LL:  -3.422 LR: -12.327 RR:   0.000 FEB:  -6.957
USER: RMSD 7.297104
USER: SEED 107
USER: STATUS no improvement in best 21 clusters for 5 generations
USER: GENES 20
USER: genes 0 Translation |==|  0.46003 0.59658 0.48239
USER: genes 1 Rotation |==|  0.50685 0.74211 0.79838 0.81985
USER: genes 2 Torsion [C]-CA--CB-[CG2] |==|  0.41265
USER: genes 3 Torsion [CA]-CB--OG1-[HG1] |==|  0.12122
USER: genes 4 Torsion [N]-CA--C-[N] |==|  0.86687
USER: genes 5 Torsion [C]-N--CA-[C] |==|  0.74905
USER: genes 6 Torsion [N]-CA--CB-[OG] |==|  0.21403
USER: genes 7 Torsion [CA]-CB--OG-[HG] |==|  0.88219
USER: genes 8 Torsion [N]-CA--C-[N] |==|  0.24821
USER: genes 9 Torsion [C]-N--CA-[CB] |==|  0.33614
USER: genes 10 Torsion [N]-CA--CB-[CG1] |==|  0.55469
USER: genes 11 Torsion [N]-CA--C-[OXT] |==|  0.54602
USER: genes 12 Torsion [CB]-CA--N-[C] |==|  0.26667
USER: genes 13 Torsion [N]-C--CA-[N] |==|  0.03912
USER: genes 14 Torsion [C]-CA--N-[C] |==|  0.73814
USER: genes 15 Torsion [N]-C--CA-[N] |==|  0.01581
USER: genes 16 Torsion [C]-CA--N-[H1] |==|  0.12707
USER: genes 17 Torsion [C]-CA--CB-[CG] |==|  0.51357
USER: genes 18 Torsion [CA]-CB--CG-[CD] |==|  0.25105
USER: genes 19 Torsion [CB]-CG--CD-[NE2] |==|  0.70174
ROOT
ATOM      1  CA  THR B   7      37.801  59.627  21.742  1.00 17.88 LIG 0.20  C 
ENDROOT
BRANCH 1 2
ATOM      2  CB  THR B   7      38.102  58.497  22.761  1.00 14.05 LIG 0.15  C 
ATOM      3  CG2 THR B   7      38.143  57.146  22.076  1.00 13.72 LIG 0.04  C 
BRANCH 2 4
ATOM      4 OG1  THR B   7      39.369  58.743  23.382  1.00 17.31 LIG-0.39  OA
ATOM      5 HG1  THR B   7      39.429  59.556  23.585  1.00 17.31 LIG 0.21  HD
ENDBRANCH 2 4
ENDBRANCH 1 2
BRANCH 1 6
ATOM      6  C   THR B   7      37.024  60.734  22.442  1.00 17.05 LIG 0.24  C 
ATOM      7 O    THR B   7      35.816  60.866  22.265  1.00 16.06 LIG-0.27  OA
ATOM      8  N   SER B   8      37.724  61.516  23.258  1.00 14.96 LIG-0.34  N 
ATOM      9 H    SER B   8      38.562  61.420  23.421  1.00 14.96 LIG 0.16  HD
BRANCH 8 10
ATOM     10  CA  SER B   8      37.092  62.623  23.950  1.00 16.48 LIG 0.20  C 
BRANCH 10 11
ATOM     11  CB  SER B   8      37.767  62.859  25.308  1.00 16.65 LIG 0.20  C 
BRANCH 11 12
ATOM     12 OG   SER B   8      39.004  63.529  25.163  1.00 27.09 LIG-0.40  OA
ATOM     13 HG   SER B   8      39.424  63.205  24.513  1.00 27.09 LIG 0.21  HD
ENDBRANCH 11 12
ENDBRANCH 10 11
BRANCH 10 14
ATOM     14  C   SER B   8      37.223  63.854  23.047  1.00 17.61 LIG 0.24  C 
ATOM     15 O    SER B   8      38.202  64.605  23.129  1.00 19.05 LIG-0.27  OA
ATOM     16  N   VAL B   9      36.242  64.050  22.174  1.00 16.11 LIG-0.34  N 
ATOM     17 H    VAL B   9      35.553  63.542  22.104  1.00 16.11 LIG 0.16  HD
BRANCH 16 18
ATOM     18  CA  VAL B   9      36.261  65.174  21.245  1.00 15.65 LIG 0.19  C 
BRANCH 18 19
ATOM     19  CB  VAL B   9      36.215  64.674  19.779  1.00 11.15 LIG 0.01  C 
ATOM     20  CG1 VAL B   9      36.715  65.762  18.835  1.00 14.96 LIG 0.01  C 
ATOM     21  CG2 VAL B   9      37.069  63.431  19.634  1.00  9.83 LIG 0.01  C 
ENDBRANCH 18 19
BRANCH 18 22
ATOM     22  C   VAL B   9      35.081  66.117  21.474  1.00 14.44 LIG 0.20  C 
ATOM     23 O    VAL B   9      34.463  66.043  22.557  1.00 16.00 LIG-0.65  OA
ATOM     24 OXT  VAL B   9      34.792  66.929  20.576  1.00 15.84 LIG-0.65  OA
ENDBRANCH 18 22
ENDBRANCH 16 18
ENDBRANCH 10 14
ENDBRANCH 8 10
ENDBRANCH 1 6
BRANCH 1 25
ATOM     25  N   THR B   7      39.030  60.130  21.146  1.00 17.70 LIG-0.34  N 
ATOM     26 H    THR B   7      39.436  60.729  21.611  1.00 17.70 LIG 0.16  HD
ATOM     27  C   GLN B   6      39.457  59.675  19.977  1.00 20.89 LIG 0.24  C 
ATOM     28 O    GLN B   6      38.845  58.832  19.322  1.00 21.39 LIG-0.27  OA
BRANCH 27 29
ATOM     29  CA  GLN B   6      40.755  60.260  19.458  1.00 22.72 LIG 0.18  C 
BRANCH 29 30
ATOM     30  N   GLN B   6      41.418  60.970  20.548  1.00 25.12 LIG-0.35  N 
ATOM     31  C   LYS B   5      41.263  62.277  20.739  1.00 28.85 LIG 0.25  C 
ATOM     32 O    LYS B   5      40.574  62.988  20.006  1.00 29.08 LIG-0.27  OA
ATOM     33 H    GLN B   6      41.909  60.471  21.046  1.00 25.12 LIG 0.16  HD
BRANCH 31 34
ATOM     34  CA  LYS B   5      42.006  62.872  21.930  1.00 31.70 LIG 0.28  C 
ATOM     35  CB  LYS B   5      42.839  64.079  21.482  1.00 33.53 LIG 0.03  C 
BRANCH 34 36
ATOM     36  N   LYS B   5      42.888  61.858  22.580  1.00 35.61 LIG-0.07  N 
ATOM     37 H1   LYS B   5      43.344  61.417  21.956  1.00 35.61 LIG 0.28  HD
ATOM     38 H3   LYS B   5      42.389  61.285  23.044  1.00 35.61 LIG 0.28  HD
ATOM     39 H2   LYS B   5      43.457  62.267  23.129  1.00 35.61 LIG 0.28  HD
ENDBRANCH 34 36
ENDBRANCH 31 34
ENDBRANCH 29 30
BRANCH 29 40
ATOM     40  CB  GLN B   6      41.634  59.130  18.935  1.00 21.86 LIG 0.04  C 
BRANCH 40 41
ATOM     41  CG  GLN B   6      42.994  59.576  18.502  1.00 24.26 LIG 0.10  C 
BRANCH 41 42
ATOM     42  CD  GLN B   6      44.019  59.523  19.617  1.00 23.46 LIG 0.21  C 
ATOM     43  NE2 GLN B   6      44.397  60.693  20.104  1.00 26.30 LIG-0.37  N 
ATOM     44 22HE GLN B   6      44.982  60.727  20.733  1.00 26.30 LIG 0.16  HD
ATOM     45 21HE GLN B   6      44.058  61.418  19.792  1.00 26.30 LIG 0.16  HD
ATOM     46 OE1  GLN B   6      44.476  58.449  20.032  1.00 21.71 LIG-0.27  OA
ENDBRANCH 41 42
ENDBRANCH 40 41
ENDBRANCH 29 40
ENDBRANCH 27 29
ENDBRANCH 1 25
TORSDOF 18
ENDMDL
MODEL 15
USER: ADFR SOLUTION from run 126
USER: SCORE 13.791552 LL:  -3.260 LR: -12.301 RR:   0.000 FEB:  -6.931
USER: RMSD 8.571836
USER: SEED 125
USER: STATUS no improvement in best 16 clusters for 5 generations
USER: GENES 20
USER: genes 0 Translation |==|  0.45040 0.70633 0.51740
USER: genes 1 Rotation |==|  0.36471 0.87564 0.55060 0.79670
USER: genes 2 Torsion [C]-CA--CB-[CG2] |==|  0.42562
USER: genes 3 Torsion [CA]-CB--OG1-[HG1] |==|  0.84525
USER: genes 4 Torsion [N]-CA--C-[N] |==|  0.28671
USER: genes 5 Torsion [C]-N--CA-[C] |==|  0.18636
USER: genes 6 Torsion [N]-CA--CB-[OG] |==|  0.82521
USER: genes 7 Torsion [CA]-CB--OG-[HG] |==|  0.78645
USER: genes 8 Torsion [N]-CA--C-[N] |==|  0.62960
USER: genes 9 Torsion [C]-N--CA-[CB] |==|  0.35961
USER: genes 10 Torsion [N]-CA--CB-[CG1] |==|  0.68095
USER: genes 11 Torsion [N]-CA--C-[OXT] |==|  0.71575
USER: genes 12 Torsion [CB]-CA--N-[C] |==|  0.49519
USER: genes 13 Torsion [N]-C--CA-[N] |==|  0.95004
USER: genes 14 Torsion [C]-CA--N-[C] |==|  0.79255
USER: genes 15 Torsion [N]-C--CA-[N] |==|  0.13999
USER: genes 16 Torsion [C]-CA--N-[H1] |==|  0.70300
USER: genes 17 Torsion [C]-CA--CB-[CG] |==|  0.96926
USER: genes 18 Torsion [CA]-CB--CG-[CD] |==|  0.72039
USER: genes 19 Torsion [CB]-CG--CD-[NE2] |==|  0.23336
ROOT
ATOM      1  CA  THR B   7      37.512  62.920  22.792  1.00 17.88 LIG 0.20  C 
ENDROOT
BRANCH 1 2
ATOM      2  CB  THR B   7      37.796  63.457  24.219  1.00 14.05 LIG 0.15  C 
ATOM      3  CG2 THR B   7      37.520  62.394  25.263  1.00 13.72 LIG 0.04  C 
BRANCH 2 4
ATOM      4 OG1  THR B   7      39.169  63.855  24.313  1.00 17.31 LIG-0.39  OA
ATOM      5 HG1  THR B   7      39.663  63.209  24.100  1.00 17.31 LIG 0.21  HD
ENDBRANCH 2 4
ENDBRANCH 1 2
BRANCH 1 6
ATOM      6  C   THR B   7      37.148  64.088  21.885  1.00 17.05 LIG 0.24  C 
ATOM      7 O    THR B   7      37.822  65.114  21.877  1.00 16.06 LIG-0.27  OA
ATOM      8  N   SER B   8      36.088  63.915  21.103  1.00 14.96 LIG-0.34  N 
ATOM      9 H    SER B   8      35.623  63.193  21.069  1.00 14.96 LIG 0.16  HD
BRANCH 8 10
ATOM     10  CA  SER B   8      35.631  64.976  20.224  1.00 16.48 LIG 0.20  C 
BRANCH 10 11
ATOM     11  CB  SER B   8      35.400  66.266  21.022  1.00 16.65 LIG 0.20  C 
BRANCH 11 12
ATOM     12 OG   SER B   8      34.379  66.105  21.987  1.00 27.09 LIG-0.40  OA
ATOM     13 HG   SER B   8      33.630  66.128  21.608  1.00 27.09 LIG 0.21  HD
ENDBRANCH 11 12
ENDBRANCH 10 11
BRANCH 10 14
ATOM     14  C   SER B   8      36.711  65.172  19.155  1.00 17.61 LIG 0.24  C 
ATOM     15 O    SER B   8      37.199  64.207  18.556  1.00 19.05 LIG-0.27  OA
ATOM     16  N   VAL B   9      37.070  66.425  18.906  1.00 16.11 LIG-0.34  N 
ATOM     17 H    VAL B   9      36.744  67.108  19.313  1.00 16.11 LIG 0.16  HD
BRANCH 16 18
ATOM     18  CA  VAL B   9      38.072  66.745  17.896  1.00 15.65 LIG 0.19  C 
BRANCH 18 19
ATOM     19  CB  VAL B   9      37.548  67.839  16.931  1.00 11.15 LIG 0.01  C 
ATOM     20  CG1 VAL B   9      37.400  67.273  15.523  1.00 14.96 LIG 0.01  C 
ATOM     21  CG2 VAL B   9      36.214  68.361  17.422  1.00  9.83 LIG 0.01  C 
ENDBRANCH 18 19
BRANCH 18 22
ATOM     22  C   VAL B   9      39.374  67.236  18.526  1.00 14.44 LIG 0.20  C 
ATOM     23 O    VAL B   9      40.154  66.390  19.012  1.00 16.00 LIG-0.65  OA
ATOM     24 OXT  VAL B   9      39.610  68.458  18.518  1.00 15.84 LIG-0.65  OA
ENDBRANCH 18 22
ENDBRANCH 16 18
ENDBRANCH 10 14
ENDBRANCH 8 10
ENDBRANCH 1 6
BRANCH 1 25
ATOM     25  N   THR B   7      38.655  62.179  22.279  1.00 17.70 LIG-0.34  N 
ATOM     26 H    THR B   7      39.333  62.154  22.807  1.00 17.70 LIG 0.16  HD
ATOM     27  C   GLN B   6      38.614  61.603  21.086  1.00 20.89 LIG 0.24  C 
ATOM     28 O    GLN B   6      37.637  61.672  20.342  1.00 21.39 LIG-0.27  OA
BRANCH 27 29
ATOM     29  CA  GLN B   6      39.856  60.848  20.659  1.00 22.72 LIG 0.18  C 
BRANCH 29 30
ATOM     30  N   GLN B   6      40.977  61.281  21.487  1.00 25.12 LIG-0.35  N 
ATOM     31  C   LYS B   5      41.570  62.459  21.316  1.00 28.85 LIG 0.25  C 
ATOM     32 O    LYS B   5      41.237  63.259  20.440  1.00 29.08 LIG-0.27  OA
ATOM     33 H    GLN B   6      41.214  60.712  22.086  1.00 25.12 LIG 0.16  HD
BRANCH 31 34
ATOM     34  CA  LYS B   5      42.715  62.779  22.270  1.00 31.70 LIG 0.28  C 
ATOM     35  CB  LYS B   5      43.415  64.073  21.839  1.00 33.53 LIG 0.03  C 
BRANCH 34 36
ATOM     36  N   LYS B   5      43.702  61.659  22.324  1.00 35.61 LIG-0.07  N 
ATOM     37 H1   LYS B   5      43.622  61.230  23.100  1.00 35.61 LIG 0.28  HD
ATOM     38 H3   LYS B   5      44.527  61.987  22.250  1.00 35.61 LIG 0.28  HD
ATOM     39 H2   LYS B   5      43.547  61.094  21.655  1.00 35.61 LIG 0.28  HD
ENDBRANCH 34 36
ENDBRANCH 31 34
ENDBRANCH 29 30
BRANCH 29 40
ATOM     40  CB  GLN B   6      39.608  59.352  20.825  1.00 21.86 LIG 0.04  C 
BRANCH 40 41
ATOM     41  CG  GLN B   6      38.362  59.030  21.586  1.00 24.26 LIG 0.10  C 
BRANCH 41 42
ATOM     42  CD  GLN B   6      38.629  58.661  23.032  1.00 23.46 LIG 0.21  C 
ATOM     43  NE2 GLN B   6      38.746  59.677  23.871  1.00 26.30 LIG-0.37  N 
ATOM     44 22HE GLN B   6      38.906  59.531  24.703  1.00 26.30 LIG 0.16  HD
ATOM     45 21HE GLN B   6      38.664  60.483  23.584  1.00 26.30 LIG 0.16  HD
ATOM     46 OE1  GLN B   6      38.739  57.481  23.395  1.00 21.71 LIG-0.27  OA
ENDBRANCH 41 42
ENDBRANCH 40 41
ENDBRANCH 29 40
ENDBRANCH 27 29
ENDBRANCH 1 25
TORSDOF 18
ENDMDL
MODEL 16
USER: ADFR SOLUTION from run 5
USER: SCORE 14.841944 LL:  -3.850 LR: -12.299 RR:   0.000 FEB:  -6.929
USER: RMSD 6.390538
USER: SEED 419711
USER: STATUS no improvement in best 10 clusters for 5 generations
USER: GENES 20
USER: genes 0 Translation |==|  0.57821 0.69131 0.48870
USER: genes 1 Rotation |==|  0.54153 0.00817 0.52909 0.57437
USER: genes 2 Torsion [C]-CA--CB-[CG2] |==|  0.30272
USER: genes 3 Torsion [CA]-CB--OG1-[HG1] |==|  0.88940
USER: genes 4 Torsion [N]-CA--C-[N] |==|  0.88900
USER: genes 5 Torsion [C]-N--CA-[C] |==|  0.77191
USER: genes 6 Torsion [N]-CA--CB-[OG] |==|  0.02288
USER: genes 7 Torsion [CA]-CB--OG-[HG] |==|  0.26312
USER: genes 8 Torsion [N]-CA--C-[N] |==|  0.23459
USER: genes 9 Torsion [C]-N--CA-[CB] |==|  0.35327
USER: genes 10 Torsion [N]-CA--CB-[CG1] |==|  0.67800
USER: genes 11 Torsion [N]-CA--C-[OXT] |==|  0.09948
USER: genes 12 Torsion [CB]-CA--N-[C] |==|  0.54003
USER: genes 13 Torsion [N]-C--CA-[N] |==|  0.00794
USER: genes 14 Torsion [C]-CA--N-[C] |==|  0.75548
USER: genes 15 Torsion [N]-C--CA-[N] |==|  0.78649
USER: genes 16 Torsion [C]-CA--N-[H1] |==|  0.43535
USER: genes 17 Torsion [C]-CA--CB-[CG] |==|  0.51439
USER: genes 18 Torsion [CA]-CB--CG-[CD] |==|  0.29033
USER: genes 19 Torsion [CB]-CG--CD-[NE2] |==|  0.44913
ROOT
ATOM      1  CA  THR B   7      41.346  62.469  21.931  1.00 17.88 LIG 0.20  C 
ENDROOT
BRANCH 1 2
ATOM      2  CB  THR B   7      42.766  62.736  21.364  1.00 14.05 LIG 0.15  C 
ATOM      3  CG2 THR B   7      43.731  63.106  22.472  1.00 13.72 LIG 0.04  C 
BRANCH 2 4
ATOM      4 OG1  THR B   7      43.243  61.558  20.705  1.00 17.31 LIG-0.39  OA
ATOM      5 HG1  THR B   7      43.022  60.880  21.148  1.00 17.31 LIG 0.21  HD
ENDBRANCH 2 4
ENDBRANCH 1 2
BRANCH 1 6
ATOM      6  C   THR B   7      40.423  63.606  21.515  1.00 17.05 LIG 0.24  C 
ATOM      7 O    THR B   7      40.206  64.551  22.269  1.00 16.06 LIG-0.27  OA
ATOM      8  N   SER B   8      39.897  63.519  20.298  1.00 14.96 LIG-0.34  N 
ATOM      9 H    SER B   8      40.062  62.884  19.742  1.00 14.96 LIG 0.16  HD
BRANCH 8 10
ATOM     10  CA  SER B   8      38.976  64.529  19.811  1.00 16.48 LIG 0.20  C 
BRANCH 10 11
ATOM     11  CB  SER B   8      38.965  64.546  18.277  1.00 16.65 LIG 0.20  C 
BRANCH 11 12
ATOM     12 OG   SER B   8      39.700  63.464  17.740  1.00 27.09 LIG-0.40  OA
ATOM     13 HG   SER B   8      39.179  62.827  17.573  1.00 27.09 LIG 0.21  HD
ENDBRANCH 11 12
ENDBRANCH 10 11
BRANCH 10 14
ATOM     14  C   SER B   8      37.591  64.185  20.370  1.00 17.61 LIG 0.24  C 
ATOM     15 O    SER B   8      36.783  63.521  19.710  1.00 19.05 LIG-0.27  OA
ATOM     16  N   VAL B   9      37.326  64.623  21.594  1.00 16.11 LIG-0.34  N 
ATOM     17 H    VAL B   9      37.873  65.087  22.068  1.00 16.11 LIG 0.16  HD
BRANCH 16 18
ATOM     18  CA  VAL B   9      36.052  64.343  22.246  1.00 15.65 LIG 0.19  C 
BRANCH 18 19
ATOM     19  CB  VAL B   9      36.277  63.709  23.641  1.00 11.15 LIG 0.01  C 
ATOM     20  CG1 VAL B   9      35.722  62.289  23.673  1.00 14.96 LIG 0.01  C 
ATOM     21  CG2 VAL B   9      37.756  63.693  23.966  1.00  9.83 LIG 0.01  C 
ENDBRANCH 18 19
BRANCH 18 22
ATOM     22  C   VAL B   9      35.213  65.608  22.415  1.00 14.44 LIG 0.20  C 
ATOM     23 O    VAL B   9      34.525  65.730  23.450  1.00 16.00 LIG-0.65  OA
ATOM     24 OXT  VAL B   9      35.260  66.472  21.520  1.00 15.84 LIG-0.65  OA
ENDBRANCH 18 22
ENDBRANCH 16 18
ENDBRANCH 10 14
ENDBRANCH 8 10
ENDBRANCH 1 6
BRANCH 1 25
ATOM     25  N   THR B   7      40.843  61.180  21.483  1.00 17.70 LIG-0.34  N 
ATOM     26 H    THR B   7      41.438  60.659  21.144  1.00 17.70 LIG 0.16  HD
ATOM     27  C   GLN B   6      39.561  60.868  21.605  1.00 20.89 LIG 0.24  C 
ATOM     28 O    GLN B   6      38.726  61.639  22.076  1.00 21.39 LIG-0.27  OA
BRANCH 27 29
ATOM     29  CA  GLN B   6      39.151  59.493  21.117  1.00 22.72 LIG 0.18  C 
BRANCH 29 30
ATOM     30  N   GLN B   6      40.342  58.781  20.665  1.00 25.12 LIG-0.35  N 
ATOM     31  C   LYS B   5      40.795  58.878  19.419  1.00 28.85 LIG 0.25  C 
ATOM     32 O    LYS B   5      40.238  59.552  18.551  1.00 29.08 LIG-0.27  OA
ATOM     33 H    GLN B   6      40.717  58.301  21.272  1.00 25.12 LIG 0.16  HD
BRANCH 31 34
ATOM     34  CA  LYS B   5      42.060  58.090  19.102  1.00 31.70 LIG 0.28  C 
ATOM     35  CB  LYS B   5      41.956  56.672  19.678  1.00 33.53 LIG 0.03  C 
BRANCH 34 36
ATOM     36  N   LYS B   5      43.273  58.771  19.645  1.00 35.61 LIG-0.07  N 
ATOM     37 H1   LYS B   5      43.924  58.175  19.756  1.00 35.61 LIG 0.28  HD
ATOM     38 H3   LYS B   5      43.077  59.147  20.428  1.00 35.61 LIG 0.28  HD
ATOM     39 H2   LYS B   5      43.541  59.400  19.074  1.00 35.61 LIG 0.28  HD
ENDBRANCH 34 36
ENDBRANCH 31 34
ENDBRANCH 29 30
BRANCH 29 40
ATOM     40  CB  GLN B   6      38.473  58.744  22.259  1.00 21.86 LIG 0.04  C 
BRANCH 40 41
ATOM     41  CG  GLN B   6      38.133  57.325  21.930  1.00 24.26 LIG 0.10  C 
BRANCH 41 42
ATOM     42  CD  GLN B   6      39.071  56.325  22.577  1.00 23.46 LIG 0.21  C 
ATOM     43  NE2 GLN B   6      38.625  55.082  22.645  1.00 26.30 LIG-0.37  N 
ATOM     44 22HE GLN B   6      39.109  54.471  23.009  1.00 26.30 LIG 0.16  HD
ATOM     45 21HE GLN B   6      37.851  54.885  22.327  1.00 26.30 LIG 0.16  HD
ATOM     46 OE1  GLN B   6      40.178  56.662  23.020  1.00 21.71 LIG-0.27  OA
ENDBRANCH 41 42
ENDBRANCH 40 41
ENDBRANCH 29 40
ENDBRANCH 27 29
ENDBRANCH 1 25
TORSDOF 18
ENDMDL
MODEL 17
USER: ADFR SOLUTION from run 113
USER: SCORE 14.122222 LL:  -3.491 LR: -12.290 RR:   0.000 FEB:  -6.921
USER: RMSD 7.839250
USER: SEED 112
USER: STATUS no improvement in best 9 clusters for 5 generations
USER: GENES 20
USER: genes 0 Translation |==|  0.44942 0.59192 0.48940
USER: genes 1 Rotation |==|  0.50660 0.79332 0.78820 0.78437
USER: genes 2 Torsion [C]-CA--CB-[CG2] |==|  0.42099
USER: genes 3 Torsion [CA]-CB--OG1-[HG1] |==|  0.17649
USER: genes 4 Torsion [N]-CA--C-[N] |==|  0.84757
USER: genes 5 Torsion [C]-N--CA-[C] |==|  0.73637
USER: genes 6 Torsion [N]-CA--CB-[OG] |==|  0.20854
USER: genes 7 Torsion [CA]-CB--OG-[HG] |==|  0.87650
USER: genes 8 Torsion [N]-CA--C-[N] |==|  0.23582
USER: genes 9 Torsion [C]-N--CA-[CB] |==|  0.37901
USER: genes 10 Torsion [N]-CA--CB-[CG1] |==|  0.33319
USER: genes 11 Torsion [N]-CA--C-[OXT] |==|  0.96957
USER: genes 12 Torsion [CB]-CA--N-[C] |==|  0.42174
USER: genes 13 Torsion [N]-C--CA-[N] |==|  0.92900
USER: genes 14 Torsion [C]-CA--N-[C] |==|  0.82983
USER: genes 15 Torsion [N]-C--CA-[N] |==|  0.89818
USER: genes 16 Torsion [C]-CA--N-[H1] |==|  0.79336
USER: genes 17 Torsion [C]-CA--CB-[CG] |==|  0.15290
USER: genes 18 Torsion [CA]-CB--CG-[CD] |==|  0.12737
USER: genes 19 Torsion [CB]-CG--CD-[NE2] |==|  0.17145
ROOT
ATOM      1  CA  THR B   7      37.483  59.487  21.952  1.00 17.88 LIG 0.20  C 
ENDROOT
BRANCH 1 2
ATOM      2  CB  THR B   7      38.060  58.534  23.030  1.00 14.05 LIG 0.15  C 
ATOM      3  CG2 THR B   7      38.138  57.112  22.511  1.00 13.72 LIG 0.04  C 
BRANCH 2 4
ATOM      4 OG1  THR B   7      39.375  58.969  23.395  1.00 17.31 LIG-0.39  OA
ATOM      5 HG1  THR B   7      39.330  59.730  23.747  1.00 17.31 LIG 0.21  HD
ENDBRANCH 2 4
ENDBRANCH 1 2
BRANCH 1 6
ATOM      6  C   THR B   7      36.775  60.646  22.641  1.00 17.05 LIG 0.24  C 
ATOM      7 O    THR B   7      35.553  60.761  22.588  1.00 16.06 LIG-0.27  OA
ATOM      8  N   SER B   8      37.551  61.494  23.309  1.00 14.96 LIG-0.34  N 
ATOM      9 H    SER B   8      38.403  61.413  23.386  1.00 14.96 LIG 0.16  HD
BRANCH 8 10
ATOM     10  CA  SER B   8      36.986  62.653  23.974  1.00 16.48 LIG 0.20  C 
BRANCH 10 11
ATOM     11  CB  SER B   8      37.733  62.932  25.285  1.00 16.65 LIG 0.20  C 
BRANCH 11 12
ATOM     12 OG   SER B   8      39.000  63.514  25.047  1.00 27.09 LIG-0.40  OA
ATOM     13 HG   SER B   8      39.383  63.106  24.421  1.00 27.09 LIG 0.21  HD
ENDBRANCH 11 12
ENDBRANCH 10 11
BRANCH 10 14
ATOM     14  C   SER B   8      37.110  63.834  23.005  1.00 17.61 LIG 0.24  C 
ATOM     15 O    SER B   8      38.075  64.605  23.058  1.00 19.05 LIG-0.27  OA
ATOM     16  N   VAL B   9      36.139  63.965  22.110  1.00 16.11 LIG-0.34  N 
ATOM     17 H    VAL B   9      35.459  63.441  22.059  1.00 16.11 LIG 0.16  HD
BRANCH 16 18
ATOM     18  CA  VAL B   9      36.151  65.035  21.121  1.00 15.65 LIG 0.19  C 
BRANCH 18 19
ATOM     19  CB  VAL B   9      35.750  64.496  19.725  1.00 11.15 LIG 0.01  C 
ATOM     20  CG1 VAL B   9      34.500  65.210  19.222  1.00 14.96 LIG 0.01  C 
ATOM     21  CG2 VAL B   9      36.890  64.699  18.748  1.00  9.83 LIG 0.01  C 
ENDBRANCH 18 19
BRANCH 18 22
ATOM     22  C   VAL B   9      35.197  66.166  21.498  1.00 14.44 LIG 0.20  C 
ATOM     23 O    VAL B   9      35.250  67.230  20.846  1.00 16.00 LIG-0.65  OA
ATOM     24 OXT  VAL B   9      34.396  65.976  22.432  1.00 15.84 LIG-0.65  OA
ENDBRANCH 18 22
ENDBRANCH 16 18
ENDBRANCH 10 14
ENDBRANCH 8 10
ENDBRANCH 1 6
BRANCH 1 25
ATOM     25  N   THR B   7      38.531  59.956  21.059  1.00 17.70 LIG-0.34  N 
ATOM     26 H    THR B   7      39.315  59.991  21.411  1.00 17.70 LIG 0.16  HD
ATOM     27  C   GLN B   6      38.260  60.293  19.806  1.00 20.89 LIG 0.24  C 
ATOM     28 O    GLN B   6      37.125  60.252  19.332  1.00 21.39 LIG-0.27  OA
BRANCH 27 29
ATOM     29  CA  GLN B   6      39.431  60.754  18.962  1.00 22.72 LIG 0.18  C 
BRANCH 29 30
ATOM     30  N   GLN B   6      40.461  61.294  19.844  1.00 25.12 LIG-0.35  N 
ATOM     31  C   LYS B   5      40.242  62.346  20.627  1.00 28.85 LIG 0.25  C 
ATOM     32 O    LYS B   5      39.171  62.955  20.652  1.00 29.08 LIG-0.27  OA
ATOM     33 H    GLN B   6      41.210  60.874  19.810  1.00 25.12 LIG 0.16  HD
BRANCH 31 34
ATOM     34  CA  LYS B   5      41.409  62.782  21.505  1.00 31.70 LIG 0.28  C 
ATOM     35  CB  LYS B   5      42.335  63.721  20.723  1.00 33.53 LIG 0.03  C 
BRANCH 34 36
ATOM     36  N   LYS B   5      42.180  61.605  22.004  1.00 35.61 LIG-0.07  N 
ATOM     37 H1   LYS B   5      41.717  61.196  22.645  1.00 35.61 LIG 0.28  HD
ATOM     38 H3   LYS B   5      42.961  61.879  22.332  1.00 35.61 LIG 0.28  HD
ATOM     39 H2   LYS B   5      42.323  61.038  21.333  1.00 35.61 LIG 0.28  HD
ENDBRANCH 34 36
ENDBRANCH 31 34
ENDBRANCH 29 30
BRANCH 29 40
ATOM     40  CB  GLN B   6      39.966  59.568  18.167  1.00 21.86 LIG 0.04  C 
BRANCH 40 41
ATOM     41  CG  GLN B   6      38.930  58.884  17.335  1.00 24.26 LIG 0.10  C 
BRANCH 41 42
ATOM     42  CD  GLN B   6      38.062  59.851  16.554  1.00 23.46 LIG 0.21  C 
ATOM     43  NE2 GLN B   6      38.695  60.608  15.674  1.00 26.30 LIG-0.37  N 
ATOM     44 22HE GLN B   6      38.257  61.182  15.207  1.00 26.30 LIG 0.16  HD
ATOM     45 21HE GLN B   6      39.544  60.526  15.569  1.00 26.30 LIG 0.16  HD
ATOM     46 OE1  GLN B   6      36.840  59.930  16.744  1.00 21.71 LIG-0.27  OA
ENDBRANCH 41 42
ENDBRANCH 40 41
ENDBRANCH 29 40
ENDBRANCH 27 29
ENDBRANCH 1 25
TORSDOF 18
ENDMDL
