MODEL 1
USER: ADFR SOLUTION from run 43
USER: SCORE 17.800939 LL:  -4.702 LR: -16.339 RR:   0.000 FEB:  -9.777
USER: RMSD 8.535527
USER: SEED 42
USER: STATUS no improvement in best 6 clusters for 5 generations
USER: GENES 24
USER: genes 0 Translation |==|  0.50313 0.34646 0.65429
USER: genes 1 Rotation |==|  0.50107 0.34990 0.84213 0.83229
USER: genes 2 Torsion [C]-CA--CB-[CG] |==|  0.91597
USER: genes 3 Torsion [CA]-CB--CG-[CD] |==|  0.76662
USER: genes 4 Torsion [CB]-CG--CD-[OE1] |==|  0.50221
USER: genes 5 Torsion [N]-CA--C-[N] |==|  0.37509
USER: genes 6 Torsion [C]-N--CA-[CB] |==|  0.19282
USER: genes 7 Torsion [N]-CA--CB-[CG] |==|  0.04082
USER: genes 8 Torsion [CA]-CB--CG-[CD] |==|  0.67182
USER: genes 9 Torsion [CB]-CG--CD-[OE1] |==|  0.22067
USER: genes 10 Torsion [N]-CA--C-[N] |==|  0.46863
USER: genes 11 Torsion [C]-N--CA-[C] |==|  0.56008
USER: genes 12 Torsion [N]-CA--C-[OXT] |==|  0.93256
USER: genes 13 Torsion [N]-CA--CB-[CG2] |==|  0.24400
USER: genes 14 Torsion [CA]-CB--CG1-[CD1] |==|  0.61023
USER: genes 15 Torsion [CB]-CA--N-[C] |==|  0.45675
USER: genes 16 Torsion [N]-C--CA-[N] |==|  0.28888
USER: genes 17 Torsion [C]-CA--N-[C] |==|  0.15960
USER: genes 18 Torsion [N]-C--CA-[N] |==|  0.59929
USER: genes 19 Torsion [C]-CA--CB-[CG] |==|  0.80797
USER: genes 20 Torsion [CA]-CB--CG-[OD1] |==|  0.87895
USER: genes 21 Torsion [C]-CA--N-[H3] |==|  0.37507
USER: genes 22 Torsion [C]-CA--CB-[CG] |==|  0.50564
USER: genes 23 Torsion [CA]-CB--CG-[CD1] |==|  0.78946
ROOT
ATOM      1  CA  GLU E  57       8.044 -11.256   3.819  1.00 37.57 LIG 0.18  C 
ENDROOT
BRANCH 1 2
ATOM      2  CB  GLU E  57       7.176 -12.247   3.071  1.00 31.17 LIG 0.04  C 
BRANCH 2 3
ATOM      3  CG  GLU E  57       5.717 -11.914   3.077  1.00 31.87 LIG 0.12  C 
BRANCH 3 4
ATOM      4  CD  GLU E  57       5.023 -12.401   4.320  1.00 37.45 LIG 0.17  C 
ATOM      5 OE1  GLU E  57       3.801 -12.203   4.445  1.00 40.31 LIG-0.65  OA
ATOM      6 OE2  GLU E  57       5.701 -12.979   5.190  1.00 37.89 LIG-0.65  OA
ENDBRANCH 3 4
ENDBRANCH 2 3
ENDBRANCH 1 2
BRANCH 1 7
ATOM      7  C   GLU E  57       7.443  -9.852   3.765  1.00 41.20 LIG 0.24  C 
ATOM      8  N   GLU E  58       8.076  -9.037   2.958  1.00 46.60 LIG-0.35  N 
ATOM      9 H    GLU E  58       8.764  -9.285   2.506  1.00 46.60 LIG 0.16  HD
ATOM     10 O    GLU E  57       6.470  -9.502   4.428  1.00 39.74 LIG-0.27  OA
BRANCH 8 11
ATOM     11  CA  GLU E  58       7.721  -7.653   2.724  1.00 48.53 LIG 0.18  C 
BRANCH 11 12
ATOM     12  CB  GLU E  58       8.030  -6.856   4.013  1.00 56.76 LIG 0.04  C 
BRANCH 12 13
ATOM     13  CG  GLU E  58       8.939  -7.499   5.138  1.00 68.50 LIG 0.12  C 
BRANCH 13 14
ATOM     14  CD  GLU E  58       8.316  -7.736   6.557  1.00 69.79 LIG 0.17  C 
ATOM     15 OE2  GLU E  58       8.594  -6.928   7.476  1.00 69.71 LIG-0.65  OA
ATOM     16 OE1  GLU E  58       7.575  -8.723   6.782  1.00 71.02 LIG-0.65  OA
ENDBRANCH 13 14
ENDBRANCH 12 13
ENDBRANCH 11 12
BRANCH 11 17
ATOM     17  C   GLU E  58       8.409  -7.111   1.479  1.00 48.41 LIG 0.24  C 
ATOM     18  N   ILE E  59       7.945  -5.938   1.081  1.00 45.67 LIG-0.34  N 
ATOM     19 H    ILE E  59       7.313  -5.510   1.477  1.00 45.67 LIG 0.16  HD
ATOM     20 O    GLU E  58       9.245  -7.782   0.849  1.00 49.96 LIG-0.27  OA
BRANCH 18 21
ATOM     21  CA  ILE E  59       8.482  -5.269  -0.085  1.00 48.61 LIG 0.19  C 
BRANCH 21 22
ATOM     22  C   ILE E  59       8.178  -3.766  -0.010  1.00 51.92 LIG 0.20  C 
ATOM     23 OXT  ILE E  59       7.200  -3.360   0.676  1.00 54.21 LIG-0.65  OA
ATOM     24 O    ILE E  59       8.930  -3.008  -0.669  1.00 54.03 LIG-0.65  OA
ENDBRANCH 21 22
BRANCH 21 25
ATOM     25  CB  ILE E  59       7.943  -5.934  -1.397  1.00 45.36 LIG 0.01  C 
ATOM     26  CG2 ILE E  59       6.620  -5.277  -1.786  1.00 47.34 LIG 0.01  C 
BRANCH 25 27
ATOM     27  CG1 ILE E  59       8.917  -5.771  -2.555  1.00 43.95 LIG 0.00  C 
ATOM     28  CD1 ILE E  59       8.229  -5.482  -3.859  1.00 41.62 LIG 0.01  C 
ENDBRANCH 25 27
ENDBRANCH 21 25
ENDBRANCH 18 21
ENDBRANCH 11 17
ENDBRANCH 8 11
ENDBRANCH 1 7
BRANCH 1 29
ATOM     29  N   GLU E  57       8.089 -11.601   5.216  1.00 40.65 LIG-0.35  N 
ATOM     30  C   PHE E  56       8.992 -11.107   6.053  1.00 43.72 LIG 0.24  C 
ATOM     31 O    PHE E  56       9.938 -10.372   5.719  1.00 43.94 LIG-0.27  OA
ATOM     32 H    GLU E  57       7.477 -12.156   5.455  1.00 40.65 LIG 0.16  HD
BRANCH 30 33
ATOM     33  CA  PHE E  56       8.842 -11.590   7.495  1.00 42.97 LIG 0.18  C 
BRANCH 33 34
ATOM     34  N   PHE E  56       9.827 -12.596   7.868  1.00 46.55 LIG-0.35  N 
ATOM     35 H    PHE E  56       9.484 -13.335   8.142  1.00 46.55 LIG 0.16  HD
ATOM     36  C   ASP E  55      11.135 -12.380   7.787  1.00 50.93 LIG 0.25  C 
ATOM     37 O    ASP E  55      11.628 -11.306   7.441  1.00 52.54 LIG-0.27  OA
BRANCH 36 38
ATOM     38  CA  ASP E  55      12.006 -13.566   8.221  1.00 54.04 LIG 0.28  C 
BRANCH 38 39
ATOM     39  CB  ASP E  55      11.258 -14.490   9.211  1.00 59.52 LIG 0.15  C 
BRANCH 39 40
ATOM     40  CG  ASP E  55      11.010 -13.863  10.601  1.00 62.29 LIG 0.17  C 
ATOM     41 OD2  ASP E  55       9.875 -14.017  11.090  1.00 64.60 LIG-0.65  OA
ATOM     42 OD1  ASP E  55      11.895 -13.215  11.208  1.00 62.89 LIG-0.65  OA
ENDBRANCH 39 40
ENDBRANCH 38 39
BRANCH 38 43
ATOM     43  N   ASP E  55      13.220 -13.000   8.907  1.00 53.57 LIG-0.07  N 
ATOM     44 H3   ASP E  55      13.380 -13.456   9.654  1.00 53.57 LIG 0.28  HD
ATOM     45 H2   ASP E  55      13.076 -12.144   9.107  1.00 53.57 LIG 0.28  HD
ATOM     46 H1   ASP E  55      13.924 -13.063   8.365  1.00 53.57 LIG 0.28  HD
ENDBRANCH 38 43
ENDBRANCH 36 38
ENDBRANCH 33 34
BRANCH 33 47
ATOM     47  CB  PHE E  56       8.915 -10.397   8.470  1.00 40.20 LIG 0.07  C 
BRANCH 47 48
ATOM     48  CG  PHE E  56       8.823 -10.790   9.932  1.00 37.86 LIG-0.06  A 
ATOM     49  CD1 PHE E  56       7.602 -11.155  10.510  1.00 37.96 LIG 0.01  A 
ATOM     50  CE1 PHE E  56       7.502 -11.523  11.863  1.00 36.63 LIG 0.00  A 
ATOM     51  CZ  PHE E  56       8.643 -11.517  12.650  1.00 33.67 LIG 0.00  A 
ATOM     52  CE2 PHE E  56       9.871 -11.153  12.088  1.00 33.57 LIG 0.00  A 
ATOM     53  CD2 PHE E  56       9.955 -10.796  10.735  1.00 33.78 LIG 0.01  A 
ENDBRANCH 47 48
ENDBRANCH 33 47
ENDBRANCH 30 33
ENDBRANCH 1 29
TORSDOF 22
ENDMDL
MODEL 2
USER: ADFR SOLUTION from run 70
USER: SCORE 18.013218 LL:  -4.563 LR: -15.456 RR:   0.000 FEB:  -8.893
USER: RMSD 8.625039
USER: SEED 69
USER: STATUS no improvement in best 3 clusters for 5 generations
USER: GENES 24
USER: genes 0 Translation |==|  0.48976 0.43220 0.69476
USER: genes 1 Rotation |==|  0.45822 0.70471 0.16440 0.80614
USER: genes 2 Torsion [C]-CA--CB-[CG] |==|  0.27953
USER: genes 3 Torsion [CA]-CB--CG-[CD] |==|  0.75131
USER: genes 4 Torsion [CB]-CG--CD-[OE1] |==|  0.49574
USER: genes 5 Torsion [N]-CA--C-[N] |==|  0.34446
USER: genes 6 Torsion [C]-N--CA-[CB] |==|  0.35052
USER: genes 7 Torsion [N]-CA--CB-[CG] |==|  0.74472
USER: genes 8 Torsion [CA]-CB--CG-[CD] |==|  0.26680
USER: genes 9 Torsion [CB]-CG--CD-[OE1] |==|  0.74808
USER: genes 10 Torsion [N]-CA--C-[N] |==|  0.95434
USER: genes 11 Torsion [C]-N--CA-[C] |==|  0.21765
USER: genes 12 Torsion [N]-CA--C-[OXT] |==|  0.90764
USER: genes 13 Torsion [N]-CA--CB-[CG2] |==|  0.49707
USER: genes 14 Torsion [CA]-CB--CG1-[CD1] |==|  0.73810
USER: genes 15 Torsion [CB]-CA--N-[C] |==|  0.87171
USER: genes 16 Torsion [N]-C--CA-[N] |==|  0.50133
USER: genes 17 Torsion [C]-CA--N-[C] |==|  0.69555
USER: genes 18 Torsion [N]-C--CA-[N] |==|  0.91907
USER: genes 19 Torsion [C]-CA--CB-[CG] |==|  0.67445
USER: genes 20 Torsion [CA]-CB--CG-[OD1] |==|  0.33286
USER: genes 21 Torsion [C]-CA--N-[H3] |==|  0.15837
USER: genes 22 Torsion [C]-CA--CB-[CG] |==|  0.50459
USER: genes 23 Torsion [CA]-CB--CG-[CD1] |==|  0.19596
ROOT
ATOM      1  CA  GLU E  57       7.643  -8.684   5.033  1.00 37.57 LIG 0.18  C 
ENDROOT
BRANCH 1 2
ATOM      2  CB  GLU E  57       8.766  -7.681   4.880  1.00 31.17 LIG 0.04  C 
BRANCH 2 3
ATOM      3  CG  GLU E  57       8.326  -6.330   4.409  1.00 31.87 LIG 0.12  C 
BRANCH 3 4
ATOM      4  CD  GLU E  57       8.324  -6.218   2.909  1.00 37.45 LIG 0.17  C 
ATOM      5 OE1  GLU E  57       7.950  -5.154   2.384  1.00 40.31 LIG-0.65  OA
ATOM      6 OE2  GLU E  57       8.688  -7.203   2.241  1.00 37.89 LIG-0.65  OA
ENDBRANCH 3 4
ENDBRANCH 2 3
ENDBRANCH 1 2
BRANCH 1 7
ATOM      7  C   GLU E  57       7.588  -9.634   3.837  1.00 41.20 LIG 0.24  C 
ATOM      8  N   GLU E  58       6.479  -9.550   3.146  1.00 46.60 LIG-0.35  N 
ATOM      9 H    GLU E  58       5.849  -9.005   3.356  1.00 46.60 LIG 0.16  HD
ATOM     10 O    GLU E  57       8.486 -10.422   3.552  1.00 39.74 LIG-0.27  OA
BRANCH 8 11
ATOM     11  CA  GLU E  58       6.167 -10.337   1.970  1.00 48.53 LIG 0.18  C 
BRANCH 11 12
ATOM     12  CB  GLU E  58       4.805 -11.029   2.208  1.00 56.76 LIG 0.04  C 
BRANCH 12 13
ATOM     13  CG  GLU E  58       4.756 -12.479   2.839  1.00 68.50 LIG 0.12  C 
BRANCH 13 14
ATOM     14  CD  GLU E  58       4.528 -12.615   4.385  1.00 69.79 LIG 0.17  C 
ATOM     15 OE2  GLU E  58       3.351 -12.663   4.815  1.00 69.71 LIG-0.65  OA
ATOM     16 OE1  GLU E  58       5.497 -12.650   5.181  1.00 71.02 LIG-0.65  OA
ENDBRANCH 13 14
ENDBRANCH 12 13
ENDBRANCH 11 12
BRANCH 11 17
ATOM     17  C   GLU E  58       6.221  -9.487   0.709  1.00 48.41 LIG 0.24  C 
ATOM     18  N   ILE E  59       6.191  -8.185   0.940  1.00 45.67 LIG-0.34  N 
ATOM     19 H    ILE E  59       6.145  -7.837   1.725  1.00 45.67 LIG 0.16  HD
ATOM     20 O    GLU E  58       6.179  -9.997  -0.426  1.00 49.96 LIG-0.27  OA
BRANCH 18 21
ATOM     21  CA  ILE E  59       6.237  -7.224  -0.141  1.00 48.61 LIG 0.19  C 
BRANCH 21 22
ATOM     22  C   ILE E  59       4.854  -7.115  -0.798  1.00 51.92 LIG 0.20  C 
ATOM     23 OXT  ILE E  59       4.110  -8.132  -0.863  1.00 54.21 LIG-0.65  OA
ATOM     24 O    ILE E  59       4.540  -5.991  -1.262  1.00 54.03 LIG-0.65  OA
ENDBRANCH 21 22
BRANCH 21 25
ATOM     25  CB  ILE E  59       7.367  -7.595  -1.160  1.00 45.36 LIG 0.01  C 
ATOM     26  CG2 ILE E  59       7.370  -6.578  -2.299  1.00 47.34 LIG 0.01  C 
BRANCH 25 27
ATOM     27  CG1 ILE E  59       8.742  -7.588  -0.507  1.00 43.95 LIG 0.00  C 
ATOM     28  CD1 ILE E  59       9.458  -6.278  -0.671  1.00 41.62 LIG 0.01  C 
ENDBRANCH 25 27
ENDBRANCH 21 25
ENDBRANCH 18 21
ENDBRANCH 11 17
ENDBRANCH 8 11
ENDBRANCH 1 7
BRANCH 1 29
ATOM     29  N   GLU E  57       7.887  -9.522   6.177  1.00 40.65 LIG-0.35  N 
ATOM     30  C   PHE E  56       9.065 -10.081   6.425  1.00 43.72 LIG 0.24  C 
ATOM     31 O    PHE E  56      10.050 -10.019   5.668  1.00 43.94 LIG-0.27  OA
ATOM     32 H    GLU E  57       7.200  -9.626   6.683  1.00 40.65 LIG 0.16  HD
BRANCH 30 33
ATOM     33  CA  PHE E  56       9.109 -10.913   7.706  1.00 42.97 LIG 0.18  C 
BRANCH 33 34
ATOM     34  N   PHE E  56      10.415 -11.505   7.960  1.00 46.55 LIG-0.35  N 
ATOM     35 H    PHE E  56      11.019 -10.936   8.184  1.00 46.55 LIG 0.16  HD
ATOM     36  C   ASP E  55      10.641 -12.810   7.853  1.00 50.93 LIG 0.25  C 
ATOM     37 O    ASP E  55       9.790 -13.621   7.486  1.00 52.54 LIG-0.27  OA
BRANCH 36 38
ATOM     38  CA  ASP E  55      12.081 -13.236   8.167  1.00 54.04 LIG 0.28  C 
BRANCH 38 39
ATOM     39  CB  ASP E  55      12.262 -13.569   9.667  1.00 59.52 LIG 0.15  C 
BRANCH 39 40
ATOM     40  CG  ASP E  55      13.260 -12.650  10.406  1.00 62.29 LIG 0.17  C 
ATOM     41 OD2  ASP E  55      14.436 -12.655   9.995  1.00 64.60 LIG-0.65  OA
ATOM     42 OD1  ASP E  55      12.917 -11.943  11.384  1.00 62.89 LIG-0.65  OA
ENDBRANCH 39 40
ENDBRANCH 38 39
BRANCH 38 43
ATOM     43  N   ASP E  55      12.975 -12.077   7.815  1.00 53.57 LIG-0.07  N 
ATOM     44 H3   ASP E  55      12.718 -11.355   8.268  1.00 53.57 LIG 0.28  HD
ATOM     45 H2   ASP E  55      12.920 -11.915   6.941  1.00 53.57 LIG 0.28  HD
ATOM     46 H1   ASP E  55      13.817 -12.276   8.027  1.00 53.57 LIG 0.28  HD
ENDBRANCH 38 43
ENDBRANCH 36 38
ENDBRANCH 33 34
BRANCH 33 47
ATOM     47  CB  PHE E  56       8.675 -10.059   8.915  1.00 40.20 LIG 0.07  C 
BRANCH 47 48
ATOM     48  CG  PHE E  56       8.727 -10.797  10.240  1.00 37.86 LIG-0.06  A 
ATOM     49  CD1 PHE E  56       9.948 -11.140  10.832  1.00 37.96 LIG 0.01  A 
ATOM     50  CE1 PHE E  56      10.012 -11.821  12.059  1.00 36.63 LIG 0.00  A 
ATOM     51  CZ  PHE E  56       8.832 -12.171  12.699  1.00 33.67 LIG 0.00  A 
ATOM     52  CE2 PHE E  56       7.604 -11.837  12.120  1.00 33.57 LIG 0.00  A 
ATOM     53  CD2 PHE E  56       7.558 -11.150  10.899  1.00 33.78 LIG 0.01  A 
ENDBRANCH 47 48
ENDBRANCH 33 47
ENDBRANCH 30 33
ENDBRANCH 1 29
TORSDOF 22
ENDMDL
MODEL 3
USER: ADFR SOLUTION from run 39
USER: SCORE 16.356846 LL:  -3.839 LR: -15.059 RR:   0.000 FEB:  -8.496
USER: RMSD 7.210934
USER: SEED 38
USER: STATUS no improvement in best 2 clusters for 5 generations
USER: GENES 24
USER: genes 0 Translation |==|  0.54049 0.39433 0.63337
USER: genes 1 Rotation |==|  0.52779 0.76275 0.43565 0.91958
USER: genes 2 Torsion [C]-CA--CB-[CG] |==|  0.56380
USER: genes 3 Torsion [CA]-CB--CG-[CD] |==|  0.70345
USER: genes 4 Torsion [CB]-CG--CD-[OE1] |==|  0.48108
USER: genes 5 Torsion [N]-CA--C-[N] |==|  0.57406
USER: genes 6 Torsion [C]-N--CA-[CB] |==|  0.20484
USER: genes 7 Torsion [N]-CA--CB-[CG] |==|  0.03181
USER: genes 8 Torsion [CA]-CB--CG-[CD] |==|  0.19820
USER: genes 9 Torsion [CB]-CG--CD-[OE1] |==|  0.26459
USER: genes 10 Torsion [N]-CA--C-[N] |==|  0.41895
USER: genes 11 Torsion [C]-N--CA-[C] |==|  0.81166
USER: genes 12 Torsion [N]-CA--C-[OXT] |==|  0.22598
USER: genes 13 Torsion [N]-CA--CB-[CG2] |==|  0.47728
USER: genes 14 Torsion [CA]-CB--CG1-[CD1] |==|  0.74034
USER: genes 15 Torsion [CB]-CA--N-[C] |==|  0.27222
USER: genes 16 Torsion [N]-C--CA-[N] |==|  0.36636
USER: genes 17 Torsion [C]-CA--N-[C] |==|  0.85873
USER: genes 18 Torsion [N]-C--CA-[N] |==|  0.27828
USER: genes 19 Torsion [C]-CA--CB-[CG] |==|  0.51371
USER: genes 20 Torsion [CA]-CB--CG-[OD1] |==|  0.10094
USER: genes 21 Torsion [C]-CA--N-[H3] |==|  0.18198
USER: genes 22 Torsion [C]-CA--CB-[CG] |==|  0.20342
USER: genes 23 Torsion [CA]-CB--CG-[CD1] |==|  0.76628
ROOT
ATOM      1  CA  GLU E  57       9.165  -9.820   3.191  1.00 37.57 LIG 0.18  C 
ENDROOT
BRANCH 1 2
ATOM      2  CB  GLU E  57       9.115  -8.688   4.195  1.00 31.17 LIG 0.04  C 
BRANCH 2 3
ATOM      3  CG  GLU E  57       9.277  -9.120   5.619  1.00 31.87 LIG 0.12  C 
BRANCH 3 4
ATOM      4  CD  GLU E  57       7.986  -9.055   6.388  1.00 37.45 LIG 0.17  C 
ATOM      5 OE1  GLU E  57       7.950  -9.507   7.546  1.00 40.31 LIG-0.65  OA
ATOM      6 OE2  GLU E  57       6.988  -8.559   5.831  1.00 37.89 LIG-0.65  OA
ENDBRANCH 3 4
ENDBRANCH 2 3
ENDBRANCH 1 2
BRANCH 1 7
ATOM      7  C   GLU E  57       9.558  -9.308   1.806  1.00 41.20 LIG 0.24  C 
ATOM      8  N   GLU E  58       9.105  -8.109   1.537  1.00 46.60 LIG-0.35  N 
ATOM      9 H    GLU E  58       8.633  -7.662   2.100  1.00 46.60 LIG 0.16  HD
ATOM     10 O    GLU E  57      10.220  -9.960   1.002  1.00 39.74 LIG-0.27  OA
BRANCH 8 11
ATOM     11  CA  GLU E  58       9.327  -7.392   0.299  1.00 48.53 LIG 0.18  C 
BRANCH 11 12
ATOM     12  CB  GLU E  58       8.443  -8.039  -0.792  1.00 56.76 LIG 0.04  C 
BRANCH 12 13
ATOM     13  CG  GLU E  58       7.323  -9.080  -0.385  1.00 68.50 LIG 0.12  C 
BRANCH 13 14
ATOM     14  CD  GLU E  58       6.044  -8.552   0.353  1.00 69.79 LIG 0.17  C 
ATOM     15 OE2  GLU E  58       6.078  -8.433   1.601  1.00 69.71 LIG-0.65  OA
ATOM     16 OE1  GLU E  58       4.998  -8.277  -0.283  1.00 71.02 LIG-0.65  OA
ENDBRANCH 13 14
ENDBRANCH 12 13
ENDBRANCH 11 12
BRANCH 11 17
ATOM     17  C   GLU E  58       9.098  -5.898   0.479  1.00 48.41 LIG 0.24  C 
ATOM     18  N   ILE E  59       9.822  -5.145  -0.333  1.00 45.67 LIG-0.34  N 
ATOM     19 H    ILE E  59      10.376  -5.456  -0.912  1.00 45.67 LIG 0.16  HD
ATOM     20 O    GLU E  58       8.378  -5.451   1.390  1.00 49.96 LIG-0.27  OA
BRANCH 18 21
ATOM     21  CA  ILE E  59       9.732  -3.700  -0.304  1.00 48.61 LIG 0.19  C 
BRANCH 21 22
ATOM     22  C   ILE E  59       8.351  -3.255  -0.805  1.00 51.92 LIG 0.20  C 
ATOM     23 OXT  ILE E  59       7.364  -3.274  -0.020  1.00 54.21 LIG-0.65  OA
ATOM     24 O    ILE E  59       8.278  -2.903  -2.009  1.00 54.03 LIG-0.65  OA
ENDBRANCH 21 22
BRANCH 21 25
ATOM     25  CB  ILE E  59      10.910  -3.060  -1.115  1.00 45.36 LIG 0.01  C 
ATOM     26  CG2 ILE E  59      10.676  -1.555  -1.237  1.00 47.34 LIG 0.01  C 
BRANCH 25 27
ATOM     27  CG1 ILE E  59      12.252  -3.282  -0.433  1.00 43.95 LIG 0.00  C 
ATOM     28  CD1 ILE E  59      12.645  -2.144   0.466  1.00 41.62 LIG 0.01  C 
ENDBRANCH 25 27
ENDBRANCH 21 25
ENDBRANCH 18 21
ENDBRANCH 11 17
ENDBRANCH 8 11
ENDBRANCH 1 7
BRANCH 1 29
ATOM     29  N   GLU E  57      10.194 -10.757   3.560  1.00 40.65 LIG-0.35  N 
ATOM     30  C   PHE E  56       9.945 -11.879   4.224  1.00 43.72 LIG 0.24  C 
ATOM     31 O    PHE E  56       8.830 -12.204   4.670  1.00 43.94 LIG-0.27  OA
ATOM     32 H    GLU E  57      10.982 -10.521   3.311  1.00 40.65 LIG 0.16  HD
BRANCH 30 33
ATOM     33  CA  PHE E  56      11.181 -12.737   4.492  1.00 42.97 LIG 0.18  C 
BRANCH 33 34
ATOM     34  N   PHE E  56      11.279 -13.184   5.874  1.00 46.55 LIG-0.35  N 
ATOM     35 H    PHE E  56      11.406 -14.030   5.959  1.00 46.55 LIG 0.16  HD
ATOM     36  C   ASP E  55      11.178 -12.351   6.904  1.00 50.93 LIG 0.25  C 
ATOM     37 O    ASP E  55      10.948 -11.147   6.786  1.00 52.54 LIG-0.27  OA
BRANCH 36 38
ATOM     38  CA  ASP E  55      11.314 -13.016   8.280  1.00 54.04 LIG 0.28  C 
BRANCH 38 39
ATOM     39  CB  ASP E  55      10.327 -12.411   9.305  1.00 59.52 LIG 0.15  C 
BRANCH 39 40
ATOM     40  CG  ASP E  55      10.493 -12.952  10.742  1.00 62.29 LIG 0.17  C 
ATOM     41 OD2  ASP E  55       9.453 -13.086  11.414  1.00 64.60 LIG-0.65  OA
ATOM     42 OD1  ASP E  55      11.617 -13.229  11.226  1.00 62.89 LIG-0.65  OA
ENDBRANCH 39 40
ENDBRANCH 38 39
BRANCH 38 43
ATOM     43  N   ASP E  55      12.721 -12.771   8.755  1.00 53.57 LIG-0.07  N 
ATOM     44 H3   ASP E  55      12.841 -11.900   8.893  1.00 53.57 LIG 0.28  HD
ATOM     45 H2   ASP E  55      13.297 -13.057   8.139  1.00 53.57 LIG 0.28  HD
ATOM     46 H1   ASP E  55      12.859 -13.213   9.516  1.00 53.57 LIG 0.28  HD
ENDBRANCH 38 43
ENDBRANCH 36 38
ENDBRANCH 33 34
BRANCH 33 47
ATOM     47  CB  PHE E  56      11.205 -13.953   3.544  1.00 40.20 LIG 0.07  C 
BRANCH 47 48
ATOM     48  CG  PHE E  56      11.557 -13.608   2.109  1.00 37.86 LIG-0.06  A 
ATOM     49  CD1 PHE E  56      10.582 -13.159   1.210  1.00 37.96 LIG 0.01  A 
ATOM     50  CE1 PHE E  56      10.893 -12.834  -0.121  1.00 36.63 LIG 0.00  A 
ATOM     51  CZ  PHE E  56      12.200 -12.971  -0.561  1.00 33.67 LIG 0.00  A 
ATOM     52  CE2 PHE E  56      13.186 -13.420   0.324  1.00 33.57 LIG 0.00  A 
ATOM     53  CD2 PHE E  56      12.861 -13.733   1.651  1.00 33.78 LIG 0.01  A 
ENDBRANCH 47 48
ENDBRANCH 33 47
ENDBRANCH 30 33
ENDBRANCH 1 29
TORSDOF 22
ENDMDL
MODEL 4
USER: ADFR SOLUTION from run 112
USER: SCORE 17.791247 LL:  -5.643 LR: -14.996 RR:   0.000 FEB:  -8.434
USER: RMSD 16.212750
USER: SEED 111
USER: STATUS no improvement in best 3 clusters for 5 generations
USER: GENES 24
USER: genes 0 Translation |==|  0.72913 0.29148 0.89765
USER: genes 1 Rotation |==|  0.46955 0.87803 0.38691 0.80558
USER: genes 2 Torsion [C]-CA--CB-[CG] |==|  0.73732
USER: genes 3 Torsion [CA]-CB--CG-[CD] |==|  0.64598
USER: genes 4 Torsion [CB]-CG--CD-[OE1] |==|  0.13568
USER: genes 5 Torsion [N]-CA--C-[N] |==|  0.25230
USER: genes 6 Torsion [C]-N--CA-[CB] |==|  0.31829
USER: genes 7 Torsion [N]-CA--CB-[CG] |==|  0.48649
USER: genes 8 Torsion [CA]-CB--CG-[CD] |==|  0.27205
USER: genes 9 Torsion [CB]-CG--CD-[OE1] |==|  0.23737
USER: genes 10 Torsion [N]-CA--C-[N] |==|  0.17286
USER: genes 11 Torsion [C]-N--CA-[C] |==|  0.71927
USER: genes 12 Torsion [N]-CA--C-[OXT] |==|  0.50740
USER: genes 13 Torsion [N]-CA--CB-[CG2] |==|  0.61591
USER: genes 14 Torsion [CA]-CB--CG1-[CD1] |==|  0.77690
USER: genes 15 Torsion [CB]-CA--N-[C] |==|  0.22778
USER: genes 16 Torsion [N]-C--CA-[N] |==|  0.97681
USER: genes 17 Torsion [C]-CA--N-[C] |==|  0.80296
USER: genes 18 Torsion [N]-C--CA-[N] |==|  0.79185
USER: genes 19 Torsion [C]-CA--CB-[CG] |==|  0.66212
USER: genes 20 Torsion [CA]-CB--CG-[OD1] |==|  0.16876
USER: genes 21 Torsion [C]-CA--N-[H3] |==|  0.20092
USER: genes 22 Torsion [C]-CA--CB-[CG] |==|  0.69733
USER: genes 23 Torsion [CA]-CB--CG-[CD1] |==|  0.68439
ROOT
ATOM      1  CA  GLU E  57      14.824 -12.906  11.119  1.00 37.57 LIG 0.18  C 
ENDROOT
BRANCH 1 2
ATOM      2  CB  GLU E  57      15.418 -11.620  11.654  1.00 31.17 LIG 0.04  C 
BRANCH 2 3
ATOM      3  CG  GLU E  57      16.891 -11.480  11.424  1.00 31.87 LIG 0.12  C 
BRANCH 3 4
ATOM      4  CD  GLU E  57      17.641 -11.168  12.690  1.00 37.45 LIG 0.17  C 
ATOM      5 OE1  GLU E  57      17.425 -11.854  13.705  1.00 40.31 LIG-0.65  OA
ATOM      6 OE2  GLU E  57      18.448 -10.220  12.683  1.00 37.89 LIG-0.65  OA
ENDBRANCH 3 4
ENDBRANCH 2 3
ENDBRANCH 1 2
BRANCH 1 7
ATOM      7  C   GLU E  57      14.252 -12.704   9.717  1.00 41.20 LIG 0.24  C 
ATOM      8  N   GLU E  58      13.239 -13.488   9.441  1.00 46.60 LIG-0.35  N 
ATOM      9 H    GLU E  58      12.934 -14.057  10.009  1.00 46.60 LIG 0.16  HD
ATOM     10 O    GLU E  57      14.704 -11.900   8.906  1.00 39.74 LIG-0.27  OA
BRANCH 8 11
ATOM     11  CA  GLU E  58      12.516 -13.507   8.187  1.00 48.53 LIG 0.18  C 
BRANCH 11 12
ATOM     12  CB  GLU E  58      12.759 -14.880   7.517  1.00 56.76 LIG 0.04  C 
BRANCH 12 13
ATOM     13  CG  GLU E  58      12.003 -15.249   6.177  1.00 68.50 LIG 0.12  C 
BRANCH 13 14
ATOM     14  CD  GLU E  58      12.757 -15.058   4.816  1.00 69.79 LIG 0.17  C 
ATOM     15 OE2  GLU E  58      12.573 -13.996   4.173  1.00 69.71 LIG-0.65  OA
ATOM     16 OE1  GLU E  58      13.509 -15.953   4.362  1.00 71.02 LIG-0.65  OA
ENDBRANCH 13 14
ENDBRANCH 12 13
ENDBRANCH 11 12
BRANCH 11 17
ATOM     17  C   GLU E  58      11.047 -13.167   8.393  1.00 48.41 LIG 0.24  C 
ATOM     18  N   ILE E  59      10.842 -11.953   8.877  1.00 45.67 LIG-0.34  N 
ATOM     19 H    ILE E  59      11.471 -11.397   9.064  1.00 45.67 LIG 0.16  HD
ATOM     20 O    GLU E  58      10.150 -14.012   8.223  1.00 49.96 LIG-0.27  OA
BRANCH 18 21
ATOM     21  CA  ILE E  59       9.507 -11.458   9.135  1.00 48.61 LIG 0.19  C 
BRANCH 21 22
ATOM     22  C   ILE E  59       9.070 -10.524   7.997  1.00 51.92 LIG 0.20  C 
ATOM     23 OXT  ILE E  59       7.951  -9.946   8.058  1.00 54.21 LIG-0.65  OA
ATOM     24 O    ILE E  59       9.867 -10.401   7.035  1.00 54.03 LIG-0.65  OA
ENDBRANCH 21 22
BRANCH 21 25
ATOM     25  CB  ILE E  59       9.437 -10.775  10.543  1.00 45.36 LIG 0.01  C 
ATOM     26  CG2 ILE E  59       8.135 -11.180  11.233  1.00 47.34 LIG 0.01  C 
BRANCH 25 27
ATOM     27  CG1 ILE E  59      10.600 -11.190  11.432  1.00 43.95 LIG 0.00  C 
ATOM     28  CD1 ILE E  59      10.393 -12.533  12.073  1.00 41.62 LIG 0.01  C 
ENDBRANCH 25 27
ENDBRANCH 21 25
ENDBRANCH 18 21
ENDBRANCH 11 17
ENDBRANCH 8 11
ENDBRANCH 1 7
BRANCH 1 29
ATOM     29  N   GLU E  57      15.856 -13.899  10.974  1.00 40.65 LIG-0.35  N 
ATOM     30  C   PHE E  56      16.295 -14.639  11.984  1.00 43.72 LIG 0.24  C 
ATOM     31 O    PHE E  56      15.935 -14.504  13.167  1.00 43.94 LIG-0.27  OA
ATOM     32 H    GLU E  57      16.161 -13.966  10.172  1.00 40.65 LIG 0.16  HD
BRANCH 30 33
ATOM     33  CA  PHE E  56      17.378 -15.646  11.601  1.00 42.97 LIG 0.18  C 
BRANCH 33 34
ATOM     34  N   PHE E  56      17.591 -15.740  10.164  1.00 46.55 LIG-0.35  N 
ATOM     35 H    PHE E  56      18.337 -15.404   9.899  1.00 46.55 LIG 0.16  HD
ATOM     36  C   ASP E  55      16.706 -16.297   9.345  1.00 50.93 LIG 0.25  C 
ATOM     37 O    ASP E  55      15.617 -16.736   9.716  1.00 52.54 LIG-0.27  OA
BRANCH 36 38
ATOM     38  CA  ASP E  55      17.119 -16.303   7.867  1.00 54.04 LIG 0.28  C 
BRANCH 38 39
ATOM     39  CB  ASP E  55      18.598 -16.721   7.690  1.00 59.52 LIG 0.15  C 
BRANCH 39 40
ATOM     40  CG  ASP E  55      19.474 -15.669   6.975  1.00 62.29 LIG 0.17  C 
ATOM     41 OD2  ASP E  55      20.021 -16.025   5.914  1.00 64.60 LIG-0.65  OA
ATOM     42 OD1  ASP E  55      19.648 -14.518   7.440  1.00 62.89 LIG-0.65  OA
ENDBRANCH 39 40
ENDBRANCH 38 39
BRANCH 38 43
ATOM     43  N   ASP E  55      16.945 -14.900   7.351  1.00 53.57 LIG-0.07  N 
ATOM     44 H3   ASP E  55      17.582 -14.378   7.688  1.00 53.57 LIG 0.28  HD
ATOM     45 H2   ASP E  55      16.147 -14.590   7.596  1.00 53.57 LIG 0.28  HD
ATOM     46 H1   ASP E  55      17.002 -14.901   6.463  1.00 53.57 LIG 0.28  HD
ENDBRANCH 38 43
ENDBRANCH 36 38
ENDBRANCH 33 34
BRANCH 33 47
ATOM     47  CB  PHE E  56      18.705 -15.301  12.308  1.00 40.20 LIG 0.07  C 
BRANCH 47 48
ATOM     48  CG  PHE E  56      19.775 -14.762  11.378  1.00 37.86 LIG-0.06  A 
ATOM     49  CD1 PHE E  56      20.949 -15.483  11.127  1.00 37.96 LIG 0.01  A 
ATOM     50  CE1 PHE E  56      21.948 -14.997  10.267  1.00 36.63 LIG 0.00  A 
ATOM     51  CZ  PHE E  56      21.773 -13.765   9.656  1.00 33.67 LIG 0.00  A 
ATOM     52  CE2 PHE E  56      20.607 -13.031   9.898  1.00 33.57 LIG 0.00  A 
ATOM     53  CD2 PHE E  56      19.616 -13.533  10.752  1.00 33.78 LIG 0.01  A 
ENDBRANCH 47 48
ENDBRANCH 33 47
ENDBRANCH 30 33
ENDBRANCH 1 29
TORSDOF 22
ENDMDL
MODEL 5
USER: ADFR SOLUTION from run 51
USER: SCORE 17.229334 LL:  -4.524 LR: -14.969 RR:   0.000 FEB:  -8.406
USER: RMSD 13.073858
USER: SEED 50
USER: STATUS no improvement in best 12 clusters for 5 generations
USER: GENES 24
USER: genes 0 Translation |==|  0.59256 0.29784 0.83599
USER: genes 1 Rotation |==|  0.51370 0.79182 0.40783 0.89517
USER: genes 2 Torsion [C]-CA--CB-[CG] |==|  0.45155
USER: genes 3 Torsion [CA]-CB--CG-[CD] |==|  0.91850
USER: genes 4 Torsion [CB]-CG--CD-[OE1] |==|  0.72404
USER: genes 5 Torsion [N]-CA--C-[N] |==|  0.26859
USER: genes 6 Torsion [C]-N--CA-[CB] |==|  0.51193
USER: genes 7 Torsion [N]-CA--CB-[CG] |==|  0.17204
USER: genes 8 Torsion [CA]-CB--CG-[CD] |==|  0.28199
USER: genes 9 Torsion [CB]-CG--CD-[OE1] |==|  0.02439
USER: genes 10 Torsion [N]-CA--C-[N] |==|  0.88798
USER: genes 11 Torsion [C]-N--CA-[C] |==|  0.54766
USER: genes 12 Torsion [N]-CA--C-[OXT] |==|  0.46369
USER: genes 13 Torsion [N]-CA--CB-[CG2] |==|  0.28542
USER: genes 14 Torsion [CA]-CB--CG1-[CD1] |==|  0.72151
USER: genes 15 Torsion [CB]-CA--N-[C] |==|  0.83324
USER: genes 16 Torsion [N]-C--CA-[N] |==|  0.35836
USER: genes 17 Torsion [C]-CA--N-[C] |==|  0.56830
USER: genes 18 Torsion [N]-C--CA-[N] |==|  0.87155
USER: genes 19 Torsion [C]-CA--CB-[CG] |==|  0.50494
USER: genes 20 Torsion [CA]-CB--CG-[OD1] |==|  0.53598
USER: genes 21 Torsion [C]-CA--N-[H3] |==|  0.31736
USER: genes 22 Torsion [C]-CA--CB-[CG] |==|  0.74964
USER: genes 23 Torsion [CA]-CB--CG-[CD1] |==|  0.68626
ROOT
ATOM      1  CA  GLU E  57      10.727 -12.715   9.270  1.00 37.57 LIG 0.18  C 
ENDROOT
BRANCH 1 2
ATOM      2  CB  GLU E  57      10.913 -11.506  10.162  1.00 31.17 LIG 0.04  C 
BRANCH 2 3
ATOM      3  CG  GLU E  57      10.354 -11.666  11.541  1.00 31.87 LIG 0.12  C 
BRANCH 3 4
ATOM      4  CD  GLU E  57       9.174 -12.599  11.575  1.00 37.45 LIG 0.17  C 
ATOM      5 OE1  GLU E  57       8.026 -12.119  11.592  1.00 40.31 LIG-0.65  OA
ATOM      6 OE2  GLU E  57       9.388 -13.825  11.598  1.00 37.89 LIG-0.65  OA
ENDBRANCH 3 4
ENDBRANCH 2 3
ENDBRANCH 1 2
BRANCH 1 7
ATOM      7  C   GLU E  57      10.918 -12.346   7.799  1.00 41.20 LIG 0.24  C 
ATOM      8  N   GLU E  58      10.127 -12.997   6.983  1.00 46.60 LIG-0.35  N 
ATOM      9 H    GLU E  58       9.556 -13.575   7.265  1.00 46.60 LIG 0.16  HD
ATOM     10 O    GLU E  57      11.748 -11.531   7.404  1.00 39.74 LIG-0.27  OA
BRANCH 8 11
ATOM     11  CA  GLU E  58      10.104 -12.843   5.544  1.00 48.53 LIG 0.18  C 
BRANCH 11 12
ATOM     12  CB  GLU E  58       8.954 -13.715   4.989  1.00 56.76 LIG 0.04  C 
BRANCH 12 13
ATOM     13  CG  GLU E  58       7.460 -13.417   5.419  1.00 68.50 LIG 0.12  C 
BRANCH 13 14
ATOM     14  CD  GLU E  58       6.534 -12.644   4.418  1.00 69.79 LIG 0.17  C 
ATOM     15 OE2  GLU E  58       5.399 -12.282   4.809  1.00 69.71 LIG-0.65  OA
ATOM     16 OE1  GLU E  58       6.905 -12.411   3.242  1.00 71.02 LIG-0.65  OA
ENDBRANCH 13 14
ENDBRANCH 12 13
ENDBRANCH 11 12
BRANCH 11 17
ATOM     17  C   GLU E  58      10.016 -11.375   5.149  1.00 48.41 LIG 0.24  C 
ATOM     18  N   ILE E  59       9.199 -10.666   5.910  1.00 45.67 LIG-0.34  N 
ATOM     19 H    ILE E  59       8.751 -10.990   6.568  1.00 45.67 LIG 0.16  HD
ATOM     20 O    GLU E  58      10.582 -10.936   4.132  1.00 49.96 LIG-0.27  OA
BRANCH 18 21
ATOM     21  CA  ILE E  59       8.992  -9.252   5.683  1.00 48.61 LIG 0.19  C 
BRANCH 21 22
ATOM     22  C   ILE E  59       8.361  -8.612   6.927  1.00 51.92 LIG 0.20  C 
ATOM     23 OXT  ILE E  59       8.326  -7.355   7.035  1.00 54.21 LIG-0.65  OA
ATOM     24 O    ILE E  59       7.920  -9.399   7.800  1.00 54.03 LIG-0.65  OA
ENDBRANCH 21 22
BRANCH 21 25
ATOM     25  CB  ILE E  59       8.146  -9.021   4.385  1.00 45.36 LIG 0.01  C 
ATOM     26  CG2 ILE E  59       6.708  -8.682   4.776  1.00 47.34 LIG 0.01  C 
BRANCH 25 27
ATOM     27  CG1 ILE E  59       8.697  -7.876   3.546  1.00 43.95 LIG 0.00  C 
ATOM     28  CD1 ILE E  59       7.933  -6.596   3.734  1.00 41.62 LIG 0.01  C 
ENDBRANCH 25 27
ENDBRANCH 21 25
ENDBRANCH 18 21
ENDBRANCH 11 17
ENDBRANCH 8 11
ENDBRANCH 1 7
BRANCH 1 29
ATOM     29  N   GLU E  57      11.742 -13.695   9.555  1.00 40.65 LIG-0.35  N 
ATOM     30  C   PHE E  56      13.039 -13.451   9.423  1.00 43.72 LIG 0.24  C 
ATOM     31 O    PHE E  56      13.517 -12.398   8.964  1.00 43.94 LIG-0.27  OA
ATOM     32 H    GLU E  57      11.428 -14.451   9.818  1.00 40.65 LIG 0.16  HD
BRANCH 30 33
ATOM     33  CA  PHE E  56      13.941 -14.625   9.801  1.00 42.97 LIG 0.18  C 
BRANCH 33 34
ATOM     34  N   PHE E  56      14.924 -14.947   8.775  1.00 46.55 LIG-0.35  N 
ATOM     35 H    PHE E  56      15.119 -14.286   8.260  1.00 46.55 LIG 0.16  HD
ATOM     36  C   ASP E  55      15.464 -16.154   8.656  1.00 50.93 LIG 0.25  C 
ATOM     37 O    ASP E  55      15.151 -17.113   9.362  1.00 52.54 LIG-0.27  OA
BRANCH 36 38
ATOM     38  CA  ASP E  55      16.482 -16.289   7.516  1.00 54.04 LIG 0.28  C 
BRANCH 38 39
ATOM     39  CB  ASP E  55      17.808 -15.566   7.849  1.00 59.52 LIG 0.15  C 
BRANCH 39 40
ATOM     40  CG  ASP E  55      18.864 -15.625   6.723  1.00 62.29 LIG 0.17  C 
ATOM     41 OD2  ASP E  55      18.474 -16.028   5.610  1.00 64.60 LIG-0.65  OA
ATOM     42 OD1  ASP E  55      20.061 -15.304   6.913  1.00 62.89 LIG-0.65  OA
ENDBRANCH 39 40
ENDBRANCH 38 39
BRANCH 38 43
ATOM     43  N   ASP E  55      15.872 -15.650   6.297  1.00 53.57 LIG-0.07  N 
ATOM     44 H3   ASP E  55      16.343 -14.929   6.072  1.00 53.57 LIG 0.28  HD
ATOM     45 H2   ASP E  55      15.033 -15.412   6.475  1.00 53.57 LIG 0.28  HD
ATOM     46 H1   ASP E  55      15.879 -16.231   5.622  1.00 53.57 LIG 0.28  HD
ENDBRANCH 38 43
ENDBRANCH 36 38
ENDBRANCH 33 34
BRANCH 33 47
ATOM     47  CB  PHE E  56      14.652 -14.345  11.140  1.00 40.20 LIG 0.07  C 
BRANCH 47 48
ATOM     48  CG  PHE E  56      15.991 -13.647  10.993  1.00 37.86 LIG-0.06  A 
ATOM     49  CD1 PHE E  56      17.187 -14.294  11.323  1.00 37.96 LIG 0.01  A 
ATOM     50  CE1 PHE E  56      18.435 -13.661  11.190  1.00 36.63 LIG 0.00  A 
ATOM     51  CZ  PHE E  56      18.483 -12.355  10.727  1.00 33.67 LIG 0.00  A 
ATOM     52  CE2 PHE E  56      17.296 -11.693  10.394  1.00 33.57 LIG 0.00  A 
ATOM     53  CD2 PHE E  56      16.060 -12.342  10.525  1.00 33.78 LIG 0.01  A 
ENDBRANCH 47 48
ENDBRANCH 33 47
ENDBRANCH 30 33
ENDBRANCH 1 29
TORSDOF 22
ENDMDL
MODEL 6
USER: ADFR SOLUTION from run 49
USER: SCORE 18.479134 LL:  -4.521 LR: -14.879 RR:   0.000 FEB:  -8.316
USER: RMSD 5.435181
USER: SEED 48
USER: STATUS searching
USER: GENES 24
USER: genes 0 Translation |==|  0.48759 0.47522 0.63087
USER: genes 1 Rotation |==|  0.68472 0.80179 0.36744 0.82746
USER: genes 2 Torsion [C]-CA--CB-[CG] |==|  0.62430
USER: genes 3 Torsion [CA]-CB--CG-[CD] |==|  0.79279
USER: genes 4 Torsion [CB]-CG--CD-[OE1] |==|  0.59777
USER: genes 5 Torsion [N]-CA--C-[N] |==|  0.20691
USER: genes 6 Torsion [C]-N--CA-[CB] |==|  0.53913
USER: genes 7 Torsion [N]-CA--CB-[CG] |==|  0.35580
USER: genes 8 Torsion [CA]-CB--CG-[CD] |==|  0.63188
USER: genes 9 Torsion [CB]-CG--CD-[OE1] |==|  0.48738
USER: genes 10 Torsion [N]-CA--C-[N] |==|  0.31228
USER: genes 11 Torsion [C]-N--CA-[C] |==|  0.75380
USER: genes 12 Torsion [N]-CA--C-[OXT] |==|  0.97951
USER: genes 13 Torsion [N]-CA--CB-[CG2] |==|  0.25753
USER: genes 14 Torsion [CA]-CB--CG1-[CD1] |==|  0.66451
USER: genes 15 Torsion [CB]-CA--N-[C] |==|  0.79444
USER: genes 16 Torsion [N]-C--CA-[N] |==|  0.98085
USER: genes 17 Torsion [C]-CA--N-[C] |==|  0.75702
USER: genes 18 Torsion [N]-C--CA-[N] |==|  0.51452
USER: genes 19 Torsion [C]-CA--CB-[CG] |==|  0.53230
USER: genes 20 Torsion [CA]-CB--CG-[OD1] |==|  0.55065
USER: genes 21 Torsion [C]-CA--N-[H3] |==|  0.67890
USER: genes 22 Torsion [C]-CA--CB-[CG] |==|  0.32688
USER: genes 23 Torsion [CA]-CB--CG-[CD1] |==|  0.62738
ROOT
ATOM      1  CA  GLU E  57       7.578  -7.393   3.116  1.00 37.57 LIG 0.18  C 
ENDROOT
BRANCH 1 2
ATOM      2  CB  GLU E  57       8.336  -7.010   4.369  1.00 31.17 LIG 0.04  C 
BRANCH 2 3
ATOM      3  CG  GLU E  57       8.808  -8.174   5.184  1.00 31.87 LIG 0.12  C 
BRANCH 3 4
ATOM      4  CD  GLU E  57       7.688  -8.834   5.941  1.00 37.45 LIG 0.17  C 
ATOM      5 OE1  GLU E  57       7.918  -9.303   7.070  1.00 40.31 LIG-0.65  OA
ATOM      6 OE2  GLU E  57       6.566  -8.899   5.404  1.00 37.89 LIG-0.65  OA
ENDBRANCH 3 4
ENDBRANCH 2 3
ENDBRANCH 1 2
BRANCH 1 7
ATOM      7  C   GLU E  57       8.043  -6.566   1.918  1.00 41.20 LIG 0.24  C 
ATOM      8  N   GLU E  58       7.248  -6.646   0.880  1.00 46.60 LIG-0.35  N 
ATOM      9 H    GLU E  58       6.533  -7.123   0.888  1.00 46.60 LIG 0.16  HD
ATOM     10 O    GLU E  57       9.075  -5.900   1.911  1.00 39.74 LIG-0.27  OA
BRANCH 8 11
ATOM     11  CA  GLU E  58       7.455  -5.967  -0.382  1.00 48.53 LIG 0.18  C 
BRANCH 11 12
ATOM     12  CB  GLU E  58       6.134  -6.041  -1.184  1.00 56.76 LIG 0.04  C 
BRANCH 12 13
ATOM     13  CG  GLU E  58       5.499  -4.720  -1.780  1.00 68.50 LIG 0.12  C 
BRANCH 13 14
ATOM     14  CD  GLU E  58       3.969  -4.461  -1.560  1.00 69.79 LIG 0.17  C 
ATOM     15 OE2  GLU E  58       3.281  -5.359  -1.018  1.00 69.71 LIG-0.65  OA
ATOM     16 OE1  GLU E  58       3.432  -3.391  -1.937  1.00 71.02 LIG-0.65  OA
ENDBRANCH 13 14
ENDBRANCH 12 13
ENDBRANCH 11 12
BRANCH 11 17
ATOM     17  C   GLU E  58       7.974  -4.552  -0.168  1.00 48.41 LIG 0.24  C 
ATOM     18  N   ILE E  59       9.217  -4.371  -0.582  1.00 45.67 LIG-0.34  N 
ATOM     19 H    ILE E  59       9.700  -4.987  -0.940  1.00 45.67 LIG 0.16  HD
ATOM     20 O    GLU E  58       7.310  -3.698   0.446  1.00 49.96 LIG-0.27  OA
BRANCH 18 21
ATOM     21  CA  ILE E  59       9.874  -3.088  -0.461  1.00 48.61 LIG 0.19  C 
BRANCH 21 22
ATOM     22  C   ILE E  59       9.593  -2.239  -1.709  1.00 51.92 LIG 0.20  C 
ATOM     23 OXT  ILE E  59       8.996  -2.753  -2.694  1.00 54.21 LIG-0.65  OA
ATOM     24 O    ILE E  59      10.000  -1.051  -1.683  1.00 54.03 LIG-0.65  OA
ENDBRANCH 21 22
BRANCH 21 25
ATOM     25  CB  ILE E  59      11.405  -3.278  -0.187  1.00 45.36 LIG 0.01  C 
ATOM     26  CG2 ILE E  59      12.158  -3.267  -1.516  1.00 47.34 LIG 0.01  C 
BRANCH 25 27
ATOM     27  CG1 ILE E  59      11.965  -2.168   0.690  1.00 43.95 LIG 0.00  C 
ATOM     28  CD1 ILE E  59      13.074  -1.402   0.025  1.00 41.62 LIG 0.01  C 
ENDBRANCH 25 27
ENDBRANCH 21 25
ENDBRANCH 18 21
ENDBRANCH 11 17
ENDBRANCH 8 11
ENDBRANCH 1 7
BRANCH 1 29
ATOM     29  N   GLU E  57       7.863  -8.762   2.771  1.00 40.65 LIG-0.35  N 
ATOM     30  C   PHE E  56       9.016  -9.148   2.242  1.00 43.72 LIG 0.24  C 
ATOM     31 O    PHE E  56       9.935  -8.378   1.909  1.00 43.94 LIG-0.27  OA
ATOM     32 H    GLU E  57       7.216  -9.303   2.939  1.00 40.65 LIG 0.16  HD
BRANCH 30 33
ATOM     33  CA  PHE E  56       9.114 -10.650   1.975  1.00 42.97 LIG 0.18  C 
BRANCH 33 34
ATOM     34  N   PHE E  56       7.981 -11.399   2.498  1.00 46.55 LIG-0.35  N 
ATOM     35 H    PHE E  56       7.344 -11.512   1.931  1.00 46.55 LIG 0.16  HD
ATOM     36  C   ASP E  55       7.943 -11.863   3.742  1.00 50.93 LIG 0.25  C 
ATOM     37 O    ASP E  55       8.832 -11.663   4.570  1.00 52.54 LIG-0.27  OA
BRANCH 36 38
ATOM     38  CA  ASP E  55       6.664 -12.632   4.099  1.00 54.04 LIG 0.28  C 
BRANCH 38 39
ATOM     39  CB  ASP E  55       5.398 -11.781   3.844  1.00 59.52 LIG 0.15  C 
BRANCH 39 40
ATOM     40  CG  ASP E  55       4.103 -12.376   4.440  1.00 62.29 LIG 0.17  C 
ATOM     41 OD2  ASP E  55       4.240 -13.252   5.315  1.00 64.60 LIG-0.65  OA
ATOM     42 OD1  ASP E  55       2.965 -12.014   4.057  1.00 62.89 LIG-0.65  OA
ENDBRANCH 39 40
ENDBRANCH 38 39
BRANCH 38 43
ATOM     43  N   ASP E  55       6.740 -12.965   5.565  1.00 53.57 LIG-0.07  N 
ATOM     44 H3   ASP E  55       6.779 -13.849   5.668  1.00 53.57 LIG 0.28  HD
ATOM     45 H2   ASP E  55       6.018 -12.650   5.979  1.00 53.57 LIG 0.28  HD
ATOM     46 H1   ASP E  55       7.469 -12.594   5.917  1.00 53.57 LIG 0.28  HD
ENDBRANCH 38 43
ENDBRANCH 36 38
ENDBRANCH 33 34
BRANCH 33 47
ATOM     47  CB  PHE E  56       9.267 -10.916   0.464  1.00 40.20 LIG 0.07  C 
BRANCH 47 48
ATOM     48  CG  PHE E  56      10.570 -11.597   0.088  1.00 37.86 LIG-0.06  A 
ATOM     49  CD1 PHE E  56      11.339 -11.147  -0.992  1.00 37.96 LIG 0.01  A 
ATOM     50  CE1 PHE E  56      12.548 -11.766  -1.351  1.00 36.63 LIG 0.00  A 
ATOM     51  CZ  PHE E  56      12.989 -12.860  -0.622  1.00 33.67 LIG 0.00  A 
ATOM     52  CE2 PHE E  56      12.231 -13.324   0.459  1.00 33.57 LIG 0.00  A 
ATOM     53  CD2 PHE E  56      11.031 -12.690   0.809  1.00 33.78 LIG 0.01  A 
ENDBRANCH 47 48
ENDBRANCH 33 47
ENDBRANCH 30 33
ENDBRANCH 1 29
TORSDOF 22
ENDMDL
MODEL 7
USER: ADFR SOLUTION from run 106
USER: SCORE 16.454999 LL:  -4.458 LR: -14.833 RR:   0.000 FEB:  -8.270
USER: RMSD 10.182542
USER: SEED 105
USER: STATUS searching
USER: GENES 24
USER: genes 0 Translation |==|  0.46343 0.42370 0.65022
USER: genes 1 Rotation |==|  0.41406 0.72361 0.11269 0.70641
USER: genes 2 Torsion [C]-CA--CB-[CG] |==|  0.20549
USER: genes 3 Torsion [CA]-CB--CG-[CD] |==|  0.29107
USER: genes 4 Torsion [CB]-CG--CD-[OE1] |==|  0.46312
USER: genes 5 Torsion [N]-CA--C-[N] |==|  0.17563
USER: genes 6 Torsion [C]-N--CA-[CB] |==|  0.17800
USER: genes 7 Torsion [N]-CA--CB-[CG] |==|  0.26144
USER: genes 8 Torsion [CA]-CB--CG-[CD] |==|  0.84799
USER: genes 9 Torsion [CB]-CG--CD-[OE1] |==|  0.82779
USER: genes 10 Torsion [N]-CA--C-[N] |==|  0.25529
USER: genes 11 Torsion [C]-N--CA-[C] |==|  0.51714
USER: genes 12 Torsion [N]-CA--C-[OXT] |==|  0.99381
USER: genes 13 Torsion [N]-CA--CB-[CG2] |==|  0.23519
USER: genes 14 Torsion [CA]-CB--CG1-[CD1] |==|  0.14204
USER: genes 15 Torsion [CB]-CA--N-[C] |==|  0.82778
USER: genes 16 Torsion [N]-C--CA-[N] |==|  0.51955
USER: genes 17 Torsion [C]-CA--N-[C] |==|  0.18709
USER: genes 18 Torsion [N]-C--CA-[N] |==|  0.67663
USER: genes 19 Torsion [C]-CA--CB-[CG] |==|  0.75877
USER: genes 20 Torsion [CA]-CB--CG-[OD1] |==|  0.07390
USER: genes 21 Torsion [C]-CA--N-[H3] |==|  0.16563
USER: genes 22 Torsion [C]-CA--CB-[CG] |==|  0.47516
USER: genes 23 Torsion [CA]-CB--CG-[CD1] |==|  0.75667
ROOT
ATOM      1  CA  GLU E  57       6.853  -8.939   3.697  1.00 37.57 LIG 0.18  C 
ENDROOT
BRANCH 1 2
ATOM      2  CB  GLU E  57       8.103  -8.412   3.025  1.00 31.17 LIG 0.04  C 
BRANCH 2 3
ATOM      3  CG  GLU E  57       7.843  -7.440   1.916  1.00 31.87 LIG 0.12  C 
BRANCH 3 4
ATOM      4  CD  GLU E  57       8.139  -6.021   2.318  1.00 37.45 LIG 0.17  C 
ATOM      5 OE1  GLU E  57       8.208  -5.146   1.437  1.00 40.31 LIG-0.65  OA
ATOM      6 OE2  GLU E  57       8.316  -5.771   3.525  1.00 37.89 LIG-0.65  OA
ENDBRANCH 3 4
ENDBRANCH 2 3
ENDBRANCH 1 2
BRANCH 1 7
ATOM      7  C   GLU E  57       6.132  -9.947   2.802  1.00 41.20 LIG 0.24  C 
ATOM      8  N   GLU E  58       5.016 -10.404   3.313  1.00 46.60 LIG-0.35  N 
ATOM      9 H    GLU E  58       4.727 -10.149   4.081  1.00 46.60 LIG 0.16  HD
ATOM     10 O    GLU E  57       6.560 -10.317   1.712  1.00 39.74 LIG-0.27  OA
BRANCH 8 11
ATOM     11  CA  GLU E  58       4.142 -11.368   2.678  1.00 48.53 LIG 0.18  C 
BRANCH 11 12
ATOM     12  CB  GLU E  58       4.919 -12.698   2.542  1.00 56.76 LIG 0.04  C 
BRANCH 12 13
ATOM     13  CG  GLU E  58       4.780 -13.811   3.658  1.00 68.50 LIG 0.12  C 
BRANCH 13 14
ATOM     14  CD  GLU E  58       5.080 -13.420   5.146  1.00 69.79 LIG 0.17  C 
ATOM     15 OE2  GLU E  58       4.148 -13.489   5.983  1.00 69.71 LIG-0.65  OA
ATOM     16 OE1  GLU E  58       6.218 -13.022   5.494  1.00 71.02 LIG-0.65  OA
ENDBRANCH 13 14
ENDBRANCH 12 13
ENDBRANCH 11 12
BRANCH 11 17
ATOM     17  C   GLU E  58       2.823 -11.494   3.428  1.00 48.41 LIG 0.24  C 
ATOM     18  N   ILE E  59       1.876 -10.687   2.981  1.00 45.67 LIG-0.34  N 
ATOM     19 H    ILE E  59       1.981 -10.136   2.328  1.00 45.67 LIG 0.16  HD
ATOM     20 O    GLU E  58       2.710 -12.213   4.437  1.00 49.96 LIG-0.27  OA
BRANCH 18 21
ATOM     21  CA  ILE E  59       0.555 -10.670   3.572  1.00 48.61 LIG 0.19  C 
BRANCH 21 22
ATOM     22  C   ILE E  59      -0.370  -9.757   2.756  1.00 51.92 LIG 0.20  C 
ATOM     23 OXT  ILE E  59       0.089  -9.130   1.762  1.00 54.21 LIG-0.65  OA
ATOM     24 O    ILE E  59      -1.560  -9.670   3.147  1.00 54.03 LIG-0.65  OA
ENDBRANCH 21 22
BRANCH 21 25
ATOM     25  CB  ILE E  59       0.634 -10.263   5.083  1.00 45.36 LIG 0.01  C 
ATOM     26  CG2 ILE E  59       0.646  -8.739   5.192  1.00 47.34 LIG 0.01  C 
BRANCH 25 27
ATOM     27  CG1 ILE E  59      -0.553 -10.790   5.874  1.00 43.95 LIG 0.00  C 
ATOM     28  CD1 ILE E  59      -0.781 -12.262   5.672  1.00 41.62 LIG 0.01  C 
ENDBRANCH 25 27
ENDBRANCH 21 25
ENDBRANCH 18 21
ENDBRANCH 11 17
ENDBRANCH 8 11
ENDBRANCH 1 7
BRANCH 1 29
ATOM     29  N   GLU E  57       7.207  -9.667   4.887  1.00 40.65 LIG-0.35  N 
ATOM     30  C   PHE E  56       7.955 -10.763   4.868  1.00 43.72 LIG 0.24  C 
ATOM     31 O    PHE E  56       8.358 -11.326   3.834  1.00 43.94 LIG-0.27  OA
ATOM     32 H    GLU E  57       6.888  -9.326   5.609  1.00 40.65 LIG 0.16  HD
BRANCH 30 33
ATOM     33  CA  PHE E  56       8.227 -11.362   6.247  1.00 42.97 LIG 0.18  C 
BRANCH 33 34
ATOM     34  N   PHE E  56       9.180 -12.463   6.216  1.00 46.55 LIG-0.35  N 
ATOM     35 H    PHE E  56       8.837 -13.227   6.412  1.00 46.55 LIG 0.16  HD
ATOM     36  C   ASP E  55      10.461 -12.291   5.911  1.00 50.93 LIG 0.25  C 
ATOM     37 O    ASP E  55      10.963 -11.192   5.677  1.00 52.54 LIG-0.27  OA
BRANCH 36 38
ATOM     38  CA  ASP E  55      11.300 -13.576   5.928  1.00 54.04 LIG 0.28  C 
BRANCH 38 39
ATOM     39  CB  ASP E  55      10.432 -14.818   6.239  1.00 59.52 LIG 0.15  C 
BRANCH 39 40
ATOM     40  CG  ASP E  55      10.254 -15.108   7.746  1.00 62.29 LIG 0.17  C 
ATOM     41 OD2  ASP E  55      10.019 -16.288   8.065  1.00 64.60 LIG-0.65  OA
ATOM     42 OD1  ASP E  55      10.323 -14.203   8.612  1.00 62.89 LIG-0.65  OA
ENDBRANCH 39 40
ENDBRANCH 38 39
BRANCH 38 43
ATOM     43  N   ASP E  55      12.331 -13.419   7.013  1.00 53.57 LIG-0.07  N 
ATOM     44 H3   ASP E  55      11.924 -13.295   7.795  1.00 53.57 LIG 0.28  HD
ATOM     45 H2   ASP E  55      12.848 -12.717   6.832  1.00 53.57 LIG 0.28  HD
ATOM     46 H1   ASP E  55      12.834 -14.153   7.053  1.00 53.57 LIG 0.28  HD
ENDBRANCH 38 43
ENDBRANCH 36 38
ENDBRANCH 33 34
BRANCH 33 47
ATOM     47  CB  PHE E  56       8.717 -10.270   7.219  1.00 40.20 LIG 0.07  C 
BRANCH 47 48
ATOM     48  CG  PHE E  56       8.807 -10.726   8.663  1.00 37.86 LIG-0.06  A 
ATOM     49  CD1 PHE E  56       7.704 -10.643   9.521  1.00 37.96 LIG 0.01  A 
ATOM     50  CE1 PHE E  56       7.772 -11.063  10.860  1.00 36.63 LIG 0.00  A 
ATOM     51  CZ  PHE E  56       8.967 -11.567  11.350  1.00 33.67 LIG 0.00  A 
ATOM     52  CE2 PHE E  56      10.080 -11.655  10.506  1.00 33.57 LIG 0.00  A 
ATOM     53  CD2 PHE E  56       9.993 -11.238   9.170  1.00 33.78 LIG 0.01  A 
ENDBRANCH 47 48
ENDBRANCH 33 47
ENDBRANCH 30 33
ENDBRANCH 1 29
TORSDOF 22
ENDMDL
MODEL 8
USER: ADFR SOLUTION from run 141
USER: SCORE 18.314241 LL:  -5.440 LR: -14.686 RR:   0.000 FEB:  -8.124
USER: RMSD 13.431354
USER: SEED 140
USER: STATUS no improvement in best 1 clusters for 5 generations
USER: GENES 24
USER: genes 0 Translation |==|  0.62266 0.27747 0.82949
USER: genes 1 Rotation |==|  0.33477 0.84395 0.46619 0.82133
USER: genes 2 Torsion [C]-CA--CB-[CG] |==|  0.17421
USER: genes 3 Torsion [CA]-CB--CG-[CD] |==|  0.71307
USER: genes 4 Torsion [CB]-CG--CD-[OE1] |==|  0.97826
USER: genes 5 Torsion [N]-CA--C-[N] |==|  0.89411
USER: genes 6 Torsion [C]-N--CA-[CB] |==|  0.86283
USER: genes 7 Torsion [N]-CA--CB-[CG] |==|  0.68279
USER: genes 8 Torsion [CA]-CB--CG-[CD] |==|  0.16695
USER: genes 9 Torsion [CB]-CG--CD-[OE1] |==|  0.66639
USER: genes 10 Torsion [N]-CA--C-[N] |==|  0.87778
USER: genes 11 Torsion [C]-N--CA-[C] |==|  0.21589
USER: genes 12 Torsion [N]-CA--C-[OXT] |==|  0.88774
USER: genes 13 Torsion [N]-CA--CB-[CG2] |==|  0.29978
USER: genes 14 Torsion [CA]-CB--CG1-[CD1] |==|  0.40032
USER: genes 15 Torsion [CB]-CA--N-[C] |==|  0.24417
USER: genes 16 Torsion [N]-C--CA-[N] |==|  0.86182
USER: genes 17 Torsion [C]-CA--N-[C] |==|  0.59454
USER: genes 18 Torsion [N]-C--CA-[N] |==|  0.11264
USER: genes 19 Torsion [C]-CA--CB-[CG] |==|  0.79594
USER: genes 20 Torsion [CA]-CB--CG-[OD1] |==|  0.67247
USER: genes 21 Torsion [C]-CA--N-[H3] |==|  0.56512
USER: genes 22 Torsion [C]-CA--CB-[CG] |==|  0.23883
USER: genes 23 Torsion [CA]-CB--CG-[CD1] |==|  0.89259
ROOT
ATOM      1  CA  GLU E  57      11.630 -13.326   9.075  1.00 37.57 LIG 0.18  C 
ENDROOT
BRANCH 1 2
ATOM      2  CB  GLU E  57      11.333 -11.887   9.440  1.00 31.17 LIG 0.04  C 
BRANCH 2 3
ATOM      3  CG  GLU E  57       9.874 -11.564   9.532  1.00 31.87 LIG 0.12  C 
BRANCH 3 4
ATOM      4  CD  GLU E  57       9.377 -10.807   8.330  1.00 37.45 LIG 0.17  C 
ATOM      5 OE1  GLU E  57      10.200 -10.404   7.489  1.00 40.31 LIG-0.65  OA
ATOM      6 OE2  GLU E  57       8.154 -10.599   8.225  1.00 37.89 LIG-0.65  OA
ENDBRANCH 3 4
ENDBRANCH 2 3
ENDBRANCH 1 2
BRANCH 1 7
ATOM      7  C   GLU E  57      11.087 -13.663   7.686  1.00 41.20 LIG 0.24  C 
ATOM      8  N   GLU E  58      11.861 -13.267   6.706  1.00 46.60 LIG-0.35  N 
ATOM      9 H    GLU E  58      12.604 -12.858   6.847  1.00 46.60 LIG 0.16  HD
ATOM     10 O    GLU E  57      10.017 -14.234   7.494  1.00 39.74 LIG-0.27  OA
BRANCH 8 11
ATOM     11  CA  GLU E  58      11.583 -13.455   5.297  1.00 48.53 LIG 0.18  C 
BRANCH 11 12
ATOM     12  CB  GLU E  58      11.206 -14.939   5.080  1.00 56.76 LIG 0.04  C 
BRANCH 12 13
ATOM     13  CG  GLU E  58      12.148 -15.875   4.220  1.00 68.50 LIG 0.12  C 
BRANCH 13 14
ATOM     14  CD  GLU E  58      13.627 -16.088   4.696  1.00 69.79 LIG 0.17  C 
ATOM     15 OE2  GLU E  58      13.825 -16.569   5.838  1.00 69.71 LIG-0.65  OA
ATOM     16 OE1  GLU E  58      14.595 -15.766   3.966  1.00 71.02 LIG-0.65  OA
ENDBRANCH 13 14
ENDBRANCH 12 13
ENDBRANCH 11 12
BRANCH 11 17
ATOM     17  C   GLU E  58      10.533 -12.468   4.806  1.00 48.41 LIG 0.24  C 
ATOM     18  N   ILE E  59       9.504 -12.332   5.627  1.00 45.67 LIG-0.34  N 
ATOM     19 H    ILE E  59       9.422 -12.756   6.370  1.00 45.67 LIG 0.16  HD
ATOM     20 O    GLU E  58      10.606 -11.941   3.682  1.00 49.96 LIG-0.27  OA
BRANCH 18 21
ATOM     21  CA  ILE E  59       8.411 -11.434   5.324  1.00 48.61 LIG 0.19  C 
BRANCH 21 22
ATOM     22  C   ILE E  59       7.483 -12.076   4.283  1.00 51.92 LIG 0.20  C 
ATOM     23 OXT  ILE E  59       7.977 -12.722   3.319  1.00 54.21 LIG-0.65  OA
ATOM     24 O    ILE E  59       6.250 -11.901   4.446  1.00 54.03 LIG-0.65  OA
ENDBRANCH 21 22
BRANCH 21 25
ATOM     25  CB  ILE E  59       8.955 -10.036   4.873  1.00 45.36 LIG 0.01  C 
ATOM     26  CG2 ILE E  59       8.726  -9.868   3.372  1.00 47.34 LIG 0.01  C 
BRANCH 25 27
ATOM     27  CG1 ILE E  59       8.254  -8.896   5.596  1.00 43.95 LIG 0.00  C 
ATOM     28  CD1 ILE E  59       9.172  -7.745   5.899  1.00 41.62 LIG 0.01  C 
ENDBRANCH 25 27
ENDBRANCH 21 25
ENDBRANCH 18 21
ENDBRANCH 11 17
ENDBRANCH 8 11
ENDBRANCH 1 7
BRANCH 1 29
ATOM     29  N   GLU E  57      13.053 -13.525   8.989  1.00 40.65 LIG-0.35  N 
ATOM     30  C   PHE E  56      13.801 -13.854  10.035  1.00 43.72 LIG 0.24  C 
ATOM     31 O    PHE E  56      13.383 -13.941  11.203  1.00 43.94 LIG-0.27  OA
ATOM     32 H    GLU E  57      13.372 -13.411   8.198  1.00 40.65 LIG 0.16  HD
BRANCH 30 33
ATOM     33  CA  PHE E  56      15.284 -14.038   9.714  1.00 42.97 LIG 0.18  C 
BRANCH 33 34
ATOM     34  N   PHE E  56      15.519 -14.908   8.570  1.00 46.55 LIG-0.35  N 
ATOM     35 H    PHE E  56      14.918 -14.850   7.958  1.00 46.55 LIG 0.16  HD
ATOM     36  C   ASP E  55      16.570 -15.716   8.491  1.00 50.93 LIG 0.25  C 
ATOM     37 O    ASP E  55      17.406 -15.836   9.388  1.00 52.54 LIG-0.27  OA
BRANCH 36 38
ATOM     38  CA  ASP E  55      16.641 -16.548   7.204  1.00 54.04 LIG 0.28  C 
BRANCH 38 39
ATOM     39  CB  ASP E  55      18.075 -17.061   6.934  1.00 59.52 LIG 0.15  C 
BRANCH 39 40
ATOM     40  CG  ASP E  55      19.058 -15.972   6.450  1.00 62.29 LIG 0.17  C 
ATOM     41 OD2  ASP E  55      19.265 -15.019   7.225  1.00 64.60 LIG-0.65  OA
ATOM     42 OD1  ASP E  55      19.613 -16.025   5.326  1.00 62.89 LIG-0.65  OA
ENDBRANCH 39 40
ENDBRANCH 38 39
BRANCH 38 43
ATOM     43  N   ASP E  55      16.224 -15.650   6.070  1.00 53.57 LIG-0.07  N 
ATOM     44 H3   ASP E  55      15.927 -16.145   5.392  1.00 53.57 LIG 0.28  HD
ATOM     45 H2   ASP E  55      16.923 -15.167   5.802  1.00 53.57 LIG 0.28  HD
ATOM     46 H1   ASP E  55      15.576 -15.105   6.345  1.00 53.57 LIG 0.28  HD
ENDBRANCH 38 43
ENDBRANCH 36 38
ENDBRANCH 33 34
BRANCH 33 47
ATOM     47  CB  PHE E  56      15.955 -12.670   9.480  1.00 40.20 LIG 0.07  C 
BRANCH 47 48
ATOM     48  CG  PHE E  56      16.440 -11.996  10.750  1.00 37.86 LIG-0.06  A 
ATOM     49  CD1 PHE E  56      15.696 -12.059  11.934  1.00 37.96 LIG 0.01  A 
ATOM     50  CE1 PHE E  56      16.133 -11.442  13.118  1.00 36.63 LIG 0.00  A 
ATOM     51  CZ  PHE E  56      17.330 -10.743  13.113  1.00 33.67 LIG 0.00  A 
ATOM     52  CE2 PHE E  56      18.085 -10.669  11.937  1.00 33.57 LIG 0.00  A 
ATOM     53  CD2 PHE E  56      17.639 -11.297  10.766  1.00 33.78 LIG 0.01  A 
ENDBRANCH 47 48
ENDBRANCH 33 47
ENDBRANCH 30 33
ENDBRANCH 1 29
TORSDOF 22
ENDMDL
MODEL 9
USER: ADFR SOLUTION from run 147
USER: SCORE 17.946840 LL:  -4.970 LR: -14.684 RR:   0.000 FEB:  -8.121
USER: RMSD 9.280357
USER: SEED 146
USER: STATUS no improvement in best 4 clusters for 5 generations
USER: GENES 24
USER: genes 0 Translation |==|  0.32796 0.53962 0.49134
USER: genes 1 Rotation |==|  0.03191 0.52026 0.64665 0.59473
USER: genes 2 Torsion [C]-CA--CB-[CG] |==|  0.74427
USER: genes 3 Torsion [CA]-CB--CG-[CD] |==|  0.64899
USER: genes 4 Torsion [CB]-CG--CD-[OE1] |==|  0.20319
USER: genes 5 Torsion [N]-CA--C-[N] |==|  0.37106
USER: genes 6 Torsion [C]-N--CA-[CB] |==|  0.23804
USER: genes 7 Torsion [N]-CA--CB-[CG] |==|  0.06916
USER: genes 8 Torsion [CA]-CB--CG-[CD] |==|  0.22661
USER: genes 9 Torsion [CB]-CG--CD-[OE1] |==|  0.11938
USER: genes 10 Torsion [N]-CA--C-[N] |==|  0.80575
USER: genes 11 Torsion [C]-N--CA-[C] |==|  0.56346
USER: genes 12 Torsion [N]-CA--C-[OXT] |==|  0.89373
USER: genes 13 Torsion [N]-CA--CB-[CG2] |==|  0.70323
USER: genes 14 Torsion [CA]-CB--CG1-[CD1] |==|  0.69144
USER: genes 15 Torsion [CB]-CA--N-[C] |==|  0.51111
USER: genes 16 Torsion [N]-C--CA-[N] |==|  0.23232
USER: genes 17 Torsion [C]-CA--N-[C] |==|  0.77169
USER: genes 18 Torsion [N]-C--CA-[N] |==|  0.87860
USER: genes 19 Torsion [C]-CA--CB-[CG] |==|  0.82180
USER: genes 20 Torsion [CA]-CB--CG-[OD1] |==|  0.33440
USER: genes 21 Torsion [C]-CA--N-[H3] |==|  0.94606
USER: genes 22 Torsion [C]-CA--CB-[CG] |==|  0.10988
USER: genes 23 Torsion [CA]-CB--CG-[CD1] |==|  0.67291
ROOT
ATOM      1  CA  GLU E  57       2.789  -5.461  -1.070  1.00 37.57 LIG 0.18  C 
ENDROOT
BRANCH 1 2
ATOM      2  CB  GLU E  57       1.614  -6.401  -0.897  1.00 31.17 LIG 0.04  C 
BRANCH 2 3
ATOM      3  CG  GLU E  57       0.635  -6.376  -2.029  1.00 31.87 LIG 0.12  C 
BRANCH 3 4
ATOM      4  CD  GLU E  57      -0.773  -6.123  -1.563  1.00 37.45 LIG 0.17  C 
ATOM      5 OE1  GLU E  57      -1.086  -4.980  -1.185  1.00 40.31 LIG-0.65  OA
ATOM      6 OE2  GLU E  57      -1.577  -7.073  -1.561  1.00 37.89 LIG-0.65  OA
ENDBRANCH 3 4
ENDBRANCH 2 3
ENDBRANCH 1 2
BRANCH 1 7
ATOM      7  C   GLU E  57       3.964  -6.170  -1.742  1.00 41.20 LIG 0.24  C 
ATOM      8  N   GLU E  58       4.962  -6.423  -0.933  1.00 46.60 LIG-0.35  N 
ATOM      9 H    GLU E  58       4.942  -6.206  -0.101  1.00 46.60 LIG 0.16  HD
ATOM     10 O    GLU E  57       3.991  -6.461  -2.935  1.00 39.74 LIG-0.27  OA
BRANCH 8 11
ATOM     11  CA  GLU E  58       6.197  -7.079  -1.310  1.00 48.53 LIG 0.18  C 
BRANCH 11 12
ATOM     12  CB  GLU E  58       7.159  -6.003  -1.863  1.00 56.76 LIG 0.04  C 
BRANCH 12 13
ATOM     13  CG  GLU E  58       6.995  -4.493  -1.416  1.00 68.50 LIG 0.12  C 
BRANCH 13 14
ATOM     14  CD  GLU E  58       7.605  -4.049  -0.042  1.00 69.79 LIG 0.17  C 
ATOM     15 OE2  GLU E  58       6.937  -3.281   0.690  1.00 69.71 LIG-0.65  OA
ATOM     16 OE1  GLU E  58       8.747  -4.431   0.312  1.00 71.02 LIG-0.65  OA
ENDBRANCH 13 14
ENDBRANCH 12 13
ENDBRANCH 11 12
BRANCH 11 17
ATOM     17  C   GLU E  58       6.767  -7.887  -0.153  1.00 48.41 LIG 0.24  C 
ATOM     18  N   ILE E  59       7.237  -7.145   0.836  1.00 45.67 LIG-0.34  N 
ATOM     19 H    ILE E  59       7.229  -6.285   0.838  1.00 45.67 LIG 0.16  HD
ATOM     20 O    GLU E  58       6.873  -9.125  -0.209  1.00 49.96 LIG-0.27  OA
BRANCH 18 21
ATOM     21  CA  ILE E  59       7.815  -7.742   2.021  1.00 48.61 LIG 0.19  C 
BRANCH 21 22
ATOM     22  C   ILE E  59       7.746  -6.750   3.190  1.00 51.92 LIG 0.20  C 
ATOM     23 OXT  ILE E  59       7.947  -5.522   2.982  1.00 54.21 LIG-0.65  OA
ATOM     24 O    ILE E  59       7.505  -7.234   4.323  1.00 54.03 LIG-0.65  OA
ENDBRANCH 21 22
BRANCH 21 25
ATOM     25  CB  ILE E  59       9.271  -8.241   1.730  1.00 45.36 LIG 0.01  C 
ATOM     26  CG2 ILE E  59       9.274  -9.767   1.653  1.00 47.34 LIG 0.01  C 
BRANCH 25 27
ATOM     27  CG1 ILE E  59       9.805  -7.693   0.414  1.00 43.95 LIG 0.00  C 
ATOM     28  CD1 ILE E  59       9.962  -8.755  -0.638  1.00 41.62 LIG 0.01  C 
ENDBRANCH 25 27
ENDBRANCH 21 25
ENDBRANCH 18 21
ENDBRANCH 11 17
ENDBRANCH 8 11
ENDBRANCH 1 7
BRANCH 1 29
ATOM     29  N   GLU E  57       2.430  -4.387  -1.958  1.00 40.65 LIG-0.35  N 
ATOM     30  C   PHE E  56       3.290  -3.456  -2.351  1.00 43.72 LIG 0.24  C 
ATOM     31 O    PHE E  56       4.459  -3.355  -1.938  1.00 43.94 LIG-0.27  OA
ATOM     32 H    GLU E  57       1.607  -4.405  -2.208  1.00 40.65 LIG 0.16  HD
BRANCH 30 33
ATOM     33  CA  PHE E  56       2.702  -2.423  -3.311  1.00 42.97 LIG 0.18  C 
BRANCH 33 34
ATOM     34  N   PHE E  56       2.000  -1.343  -2.632  1.00 46.55 LIG-0.35  N 
ATOM     35 H    PHE E  56       2.470  -0.631  -2.529  1.00 46.55 LIG 0.16  HD
ATOM     36  C   ASP E  55       0.744  -1.459  -2.215  1.00 50.93 LIG 0.25  C 
ATOM     37 O    ASP E  55       0.084  -2.494  -2.319  1.00 52.54 LIG-0.27  OA
BRANCH 36 38
ATOM     38  CA  ASP E  55       0.182  -0.208  -1.527  1.00 54.04 LIG 0.28  C 
BRANCH 38 39
ATOM     39  CB  ASP E  55      -0.164   0.898  -2.551  1.00 59.52 LIG 0.15  C 
BRANCH 39 40
ATOM     40  CG  ASP E  55       1.055   1.455  -3.319  1.00 62.29 LIG 0.17  C 
ATOM     41 OD2  ASP E  55       1.950   1.990  -2.637  1.00 64.60 LIG-0.65  OA
ATOM     42 OD1  ASP E  55       1.142   1.394  -4.569  1.00 62.89 LIG-0.65  OA
ENDBRANCH 39 40
ENDBRANCH 38 39
BRANCH 38 43
ATOM     43  N   ASP E  55       1.248   0.305  -0.597  1.00 53.57 LIG-0.07  N 
ATOM     44 H3   ASP E  55       1.833  -0.344  -0.428  1.00 53.57 LIG 0.28  HD
ATOM     45 H2   ASP E  55       0.873   0.573   0.165  1.00 53.57 LIG 0.28  HD
ATOM     46 H1   ASP E  55       1.669   0.992  -0.977  1.00 53.57 LIG 0.28  HD
ENDBRANCH 38 43
ENDBRANCH 36 38
ENDBRANCH 33 34
BRANCH 33 47
ATOM     47  CB  PHE E  56       3.809  -1.843  -4.216  1.00 40.20 LIG 0.07  C 
BRANCH 47 48
ATOM     48  CG  PHE E  56       4.822  -2.869  -4.686  1.00 37.86 LIG-0.06  A 
ATOM     49  CD1 PHE E  56       6.174  -2.766  -4.337  1.00 37.96 LIG 0.01  A 
ATOM     50  CE1 PHE E  56       7.124  -3.710  -4.763  1.00 36.63 LIG 0.00  A 
ATOM     51  CZ  PHE E  56       6.714  -4.769  -5.558  1.00 33.67 LIG 0.00  A 
ATOM     52  CE2 PHE E  56       5.366  -4.885  -5.917  1.00 33.57 LIG 0.00  A 
ATOM     53  CD2 PHE E  56       4.430  -3.939  -5.477  1.00 33.78 LIG 0.01  A 
ENDBRANCH 47 48
ENDBRANCH 33 47
ENDBRANCH 30 33
ENDBRANCH 1 29
TORSDOF 22
ENDMDL
MODEL 10
USER: ADFR SOLUTION from run 152
USER: SCORE 16.708641 LL:  -4.327 LR: -14.681 RR:   0.000 FEB:  -8.119
USER: RMSD 13.379702
USER: SEED 151
USER: STATUS no improvement in best 7 clusters for 5 generations
USER: GENES 24
USER: genes 0 Translation |==|  0.60101 0.29893 0.84880
USER: genes 1 Rotation |==|  0.48074 0.79814 0.61250 0.88482
USER: genes 2 Torsion [C]-CA--CB-[CG] |==|  0.01024
USER: genes 3 Torsion [CA]-CB--CG-[CD] |==|  0.28972
USER: genes 4 Torsion [CB]-CG--CD-[OE1] |==|  0.67685
USER: genes 5 Torsion [N]-CA--C-[N] |==|  0.46524
USER: genes 6 Torsion [C]-N--CA-[CB] |==|  0.78514
USER: genes 7 Torsion [N]-CA--CB-[CG] |==|  0.40022
USER: genes 8 Torsion [CA]-CB--CG-[CD] |==|  0.20429
USER: genes 9 Torsion [CB]-CG--CD-[OE1] |==|  0.59231
USER: genes 10 Torsion [N]-CA--C-[N] |==|  0.24485
USER: genes 11 Torsion [C]-N--CA-[C] |==|  0.51533
USER: genes 12 Torsion [N]-CA--C-[OXT] |==|  0.43121
USER: genes 13 Torsion [N]-CA--CB-[CG2] |==|  0.16409
USER: genes 14 Torsion [CA]-CB--CG1-[CD1] |==|  0.55362
USER: genes 15 Torsion [CB]-CA--N-[C] |==|  0.26667
USER: genes 16 Torsion [N]-C--CA-[N] |==|  0.68071
USER: genes 17 Torsion [C]-CA--N-[C] |==|  0.60205
USER: genes 18 Torsion [N]-C--CA-[N] |==|  0.12524
USER: genes 19 Torsion [C]-CA--CB-[CG] |==|  0.71754
USER: genes 20 Torsion [CA]-CB--CG-[OD1] |==|  0.28026
USER: genes 21 Torsion [C]-CA--N-[H3] |==|  0.55747
USER: genes 22 Torsion [C]-CA--CB-[CG] |==|  0.43597
USER: genes 23 Torsion [CA]-CB--CG-[CD1] |==|  0.22339
ROOT
ATOM      1  CA  GLU E  57      10.980 -12.682   9.654  1.00 37.57 LIG 0.18  C 
ENDROOT
BRANCH 1 2
ATOM      2  CB  GLU E  57      10.496 -12.041  10.938  1.00 31.17 LIG 0.04  C 
BRANCH 2 3
ATOM      3  CG  GLU E  57       9.714 -10.781  10.740  1.00 31.87 LIG 0.12  C 
BRANCH 3 4
ATOM      4  CD  GLU E  57       8.236 -10.987  10.933  1.00 37.45 LIG 0.17  C 
ATOM      5 OE1  GLU E  57       7.471 -10.811   9.968  1.00 40.31 LIG-0.65  OA
ATOM      6 OE2  GLU E  57       7.826 -11.318  12.061  1.00 37.89 LIG-0.65  OA
ENDBRANCH 3 4
ENDBRANCH 2 3
ENDBRANCH 1 2
BRANCH 1 7
ATOM      7  C   GLU E  57      10.622 -11.822   8.443  1.00 41.20 LIG 0.24  C 
ATOM      8  N   GLU E  58       9.351 -11.854   8.129  1.00 46.60 LIG-0.35  N 
ATOM      9 H    GLU E  58       8.782 -12.319   8.575  1.00 46.60 LIG 0.16  HD
ATOM     10 O    GLU E  57      11.445 -11.173   7.802  1.00 39.74 LIG-0.27  OA
BRANCH 8 11
ATOM     11  CA  GLU E  58       8.745 -11.136   7.027  1.00 48.53 LIG 0.18  C 
BRANCH 11 12
ATOM     12  CB  GLU E  58       8.593  -9.655   7.449  1.00 56.76 LIG 0.04  C 
BRANCH 12 13
ATOM     13  CG  GLU E  58       8.794  -8.506   6.380  1.00 68.50 LIG 0.12  C 
BRANCH 13 14
ATOM     14  CD  GLU E  58       7.674  -8.280   5.306  1.00 69.79 LIG 0.17  C 
ATOM     15 OE2  GLU E  58       6.483  -8.515   5.624  1.00 69.71 LIG-0.65  OA
ATOM     16 OE1  GLU E  58       7.957  -7.895   4.146  1.00 71.02 LIG-0.65  OA
ENDBRANCH 13 14
ENDBRANCH 12 13
ENDBRANCH 11 12
BRANCH 11 17
ATOM     17  C   GLU E  58       9.533 -11.337   5.740  1.00 48.41 LIG 0.24  C 
ATOM     18  N   ILE E  59       9.160 -12.400   5.047  1.00 45.67 LIG-0.34  N 
ATOM     19 H    ILE E  59       8.534 -12.938   5.289  1.00 45.67 LIG 0.16  HD
ATOM     20 O    GLU E  58      10.507 -10.620   5.450  1.00 49.96 LIG-0.27  OA
BRANCH 18 21
ATOM     21  CA  ILE E  59       9.797 -12.747   3.795  1.00 48.61 LIG 0.19  C 
BRANCH 21 22
ATOM     22  C   ILE E  59       9.071 -13.938   3.154  1.00 51.92 LIG 0.20  C 
ATOM     23 OXT  ILE E  59       9.131 -14.110   1.906  1.00 54.21 LIG-0.65  OA
ATOM     24 O    ILE E  59       8.425 -14.685   3.930  1.00 54.03 LIG-0.65  OA
ENDBRANCH 21 22
BRANCH 21 25
ATOM     25  CB  ILE E  59      11.326 -13.011   4.010  1.00 45.36 LIG 0.01  C 
ATOM     26  CG2 ILE E  59      11.503 -14.149   5.014  1.00 47.34 LIG 0.01  C 
BRANCH 25 27
ATOM     27  CG1 ILE E  59      12.021 -13.403   2.714  1.00 43.95 LIG 0.00  C 
ATOM     28  CD1 ILE E  59      13.334 -14.097   2.943  1.00 41.62 LIG 0.01  C 
ENDBRANCH 25 27
ENDBRANCH 21 25
ENDBRANCH 18 21
ENDBRANCH 11 17
ENDBRANCH 8 11
ENDBRANCH 1 7
BRANCH 1 29
ATOM     29  N   GLU E  57      12.418 -12.760   9.658  1.00 40.65 LIG-0.35  N 
ATOM     30  C   PHE E  56      13.082 -13.846  10.031  1.00 43.72 LIG 0.24  C 
ATOM     31 O    PHE E  56      12.553 -14.873  10.495  1.00 43.94 LIG-0.27  OA
ATOM     32 H    GLU E  57      12.804 -12.038   9.396  1.00 40.65 LIG 0.16  HD
BRANCH 30 33
ATOM     33  CA  PHE E  56      14.601 -13.718   9.936  1.00 42.97 LIG 0.18  C 
BRANCH 33 34
ATOM     34  N   PHE E  56      15.191 -14.613   8.950  1.00 46.55 LIG-0.35  N 
ATOM     35 H    PHE E  56      14.712 -14.720   8.244  1.00 46.55 LIG 0.16  HD
ATOM     36  C   ASP E  55      16.365 -15.207   9.135  1.00 50.93 LIG 0.25  C 
ATOM     37 O    ASP E  55      17.030 -15.094  10.165  1.00 52.54 LIG-0.27  OA
BRANCH 36 38
ATOM     38  CA  ASP E  55      16.815 -16.107   7.977  1.00 54.04 LIG 0.28  C 
BRANCH 38 39
ATOM     39  CB  ASP E  55      18.321 -16.445   8.070  1.00 59.52 LIG 0.15  C 
BRANCH 39 40
ATOM     40  CG  ASP E  55      19.217 -15.623   7.117  1.00 62.29 LIG 0.17  C 
ATOM     41 OD2  ASP E  55      19.263 -15.996   5.930  1.00 64.60 LIG-0.65  OA
ATOM     42 OD1  ASP E  55      19.883 -14.636   7.512  1.00 62.89 LIG-0.65  OA
ENDBRANCH 39 40
ENDBRANCH 38 39
BRANCH 38 43
ATOM     43  N   ASP E  55      16.564 -15.349   6.701  1.00 53.57 LIG-0.07  N 
ATOM     44 H3   ASP E  55      16.524 -15.920   6.019  1.00 53.57 LIG 0.28  HD
ATOM     45 H2   ASP E  55      17.226 -14.770   6.564  1.00 53.57 LIG 0.28  HD
ATOM     46 H1   ASP E  55      15.793 -14.908   6.764  1.00 53.57 LIG 0.28  HD
ENDBRANCH 38 43
ENDBRANCH 36 38
ENDBRANCH 33 34
BRANCH 33 47
ATOM     47  CB  PHE E  56      14.998 -12.260   9.626  1.00 40.20 LIG 0.07  C 
BRANCH 47 48
ATOM     48  CG  PHE E  56      16.412 -11.905  10.044  1.00 37.86 LIG-0.06  A 
ATOM     49  CD1 PHE E  56      17.512 -12.254   9.251  1.00 37.96 LIG 0.01  A 
ATOM     50  CE1 PHE E  56      18.828 -11.929   9.625  1.00 36.63 LIG 0.00  A 
ATOM     51  CZ  PHE E  56      19.045 -11.253  10.815  1.00 33.67 LIG 0.00  A 
ATOM     52  CE2 PHE E  56      17.956 -10.899  11.619  1.00 33.57 LIG 0.00  A 
ATOM     53  CD2 PHE E  56      16.649 -11.223  11.229  1.00 33.78 LIG 0.01  A 
ENDBRANCH 47 48
ENDBRANCH 33 47
ENDBRANCH 30 33
ENDBRANCH 1 29
TORSDOF 22
ENDMDL
MODEL 11
USER: ADFR SOLUTION from run 37
USER: SCORE 16.546971 LL:  -3.946 LR: -14.606 RR:   0.000 FEB:  -8.043
USER: RMSD 5.509950
USER: SEED 36
USER: STATUS no improvement in best 14 clusters for 5 generations
USER: GENES 24
USER: genes 0 Translation |==|  0.48436 0.47090 0.64234
USER: genes 1 Rotation |==|  0.64538 0.73373 0.21380 0.80385
USER: genes 2 Torsion [C]-CA--CB-[CG] |==|  0.51668
USER: genes 3 Torsion [CA]-CB--CG-[CD] |==|  0.24144
USER: genes 4 Torsion [CB]-CG--CD-[OE1] |==|  0.13651
USER: genes 5 Torsion [N]-CA--C-[N] |==|  0.43333
USER: genes 6 Torsion [C]-N--CA-[CB] |==|  0.26109
USER: genes 7 Torsion [N]-CA--CB-[CG] |==|  0.30037
USER: genes 8 Torsion [CA]-CB--CG-[CD] |==|  0.64820
USER: genes 9 Torsion [CB]-CG--CD-[OE1] |==|  0.46753
USER: genes 10 Torsion [N]-CA--C-[N] |==|  0.38667
USER: genes 11 Torsion [C]-N--CA-[C] |==|  0.23191
USER: genes 12 Torsion [N]-CA--C-[OXT] |==|  0.82146
USER: genes 13 Torsion [N]-CA--CB-[CG2] |==|  0.40384
USER: genes 14 Torsion [CA]-CB--CG1-[CD1] |==|  0.26311
USER: genes 15 Torsion [CB]-CA--N-[C] |==|  0.85520
USER: genes 16 Torsion [N]-C--CA-[N] |==|  0.16164
USER: genes 17 Torsion [C]-CA--N-[C] |==|  0.57414
USER: genes 18 Torsion [N]-C--CA-[N] |==|  0.43538
USER: genes 19 Torsion [C]-CA--CB-[CG] |==|  0.81922
USER: genes 20 Torsion [CA]-CB--CG-[OD1] |==|  0.45973
USER: genes 21 Torsion [C]-CA--N-[H3] |==|  0.02942
USER: genes 22 Torsion [C]-CA--CB-[CG] |==|  0.22763
USER: genes 23 Torsion [CA]-CB--CG-[CD1] |==|  0.06783
ROOT
ATOM      1  CA  GLU E  57       7.481  -7.523   3.460  1.00 37.57 LIG 0.18  C 
ENDROOT
BRANCH 1 2
ATOM      2  CB  GLU E  57       8.614  -7.001   4.318  1.00 31.17 LIG 0.04  C 
BRANCH 2 3
ATOM      3  CG  GLU E  57       8.326  -7.006   5.787  1.00 31.87 LIG 0.12  C 
BRANCH 3 4
ATOM      4  CD  GLU E  57       8.666  -8.321   6.434  1.00 37.45 LIG 0.17  C 
ATOM      5 OE1  GLU E  57       9.779  -8.832   6.214  1.00 40.31 LIG-0.65  OA
ATOM      6 OE2  GLU E  57       7.812  -8.862   7.161  1.00 37.89 LIG-0.65  OA
ENDBRANCH 3 4
ENDBRANCH 2 3
ENDBRANCH 1 2
BRANCH 1 7
ATOM      7  C   GLU E  57       7.904  -7.625   1.995  1.00 41.20 LIG 0.24  C 
ATOM      8  N   GLU E  58       7.770  -6.506   1.328  1.00 46.60 LIG-0.35  N 
ATOM      9 H    GLU E  58       7.473  -5.788   1.694  1.00 46.60 LIG 0.16  HD
ATOM     10 O    GLU E  57       8.314  -8.660   1.476  1.00 39.74 LIG-0.27  OA
BRANCH 8 11
ATOM     11  CA  GLU E  58       8.094  -6.327  -0.073  1.00 48.53 LIG 0.18  C 
BRANCH 11 12
ATOM     12  CB  GLU E  58       6.802  -6.551  -0.892  1.00 56.76 LIG 0.04  C 
BRANCH 12 13
ATOM     13  CG  GLU E  58       6.076  -5.321  -1.574  1.00 68.50 LIG 0.12  C 
BRANCH 13 14
ATOM     14  CD  GLU E  58       4.552  -5.096  -1.281  1.00 69.79 LIG 0.17  C 
ATOM     15 OE2  GLU E  58       3.905  -6.018  -0.729  1.00 69.71 LIG-0.65  OA
ATOM     16 OE1  GLU E  58       3.981  -4.029  -1.612  1.00 71.02 LIG-0.65  OA
ENDBRANCH 13 14
ENDBRANCH 12 13
ENDBRANCH 11 12
BRANCH 11 17
ATOM     17  C   GLU E  58       8.758  -4.979  -0.316  1.00 48.41 LIG 0.24  C 
ATOM     18  N   ILE E  59       9.765  -5.027  -1.173  1.00 45.67 LIG-0.34  N 
ATOM     19 H    ILE E  59      10.031  -5.746  -1.563  1.00 45.67 LIG 0.16  HD
ATOM     20 O    GLU E  58       8.438  -3.965   0.330  1.00 49.96 LIG-0.27  OA
BRANCH 18 21
ATOM     21  CA  ILE E  59      10.512  -3.840  -1.528  1.00 48.61 LIG 0.19  C 
BRANCH 21 22
ATOM     22  C   ILE E  59      11.596  -3.573  -0.474  1.00 51.92 LIG 0.20  C 
ATOM     23 OXT  ILE E  59      11.262  -3.296   0.711  1.00 54.21 LIG-0.65  OA
ATOM     24 O    ILE E  59      12.787  -3.631  -0.867  1.00 54.03 LIG-0.65  OA
ENDBRANCH 21 22
BRANCH 21 25
ATOM     25  CB  ILE E  59       9.548  -2.622  -1.730  1.00 45.36 LIG 0.01  C 
ATOM     26  CG2 ILE E  59      10.242  -1.347  -1.254  1.00 47.34 LIG 0.01  C 
BRANCH 25 27
ATOM     27  CG1 ILE E  59       9.163  -2.442  -3.191  1.00 43.95 LIG 0.00  C 
ATOM     28  CD1 ILE E  59       7.865  -3.113  -3.539  1.00 41.62 LIG 0.01  C 
ENDBRANCH 25 27
ENDBRANCH 21 25
ENDBRANCH 18 21
ENDBRANCH 11 17
ENDBRANCH 8 11
ENDBRANCH 1 7
BRANCH 1 29
ATOM     29  N   GLU E  57       7.145  -8.866   3.857  1.00 40.65 LIG-0.35  N 
ATOM     30  C   PHE E  56       8.044  -9.835   3.959  1.00 43.72 LIG 0.24  C 
ATOM     31 O    PHE E  56       9.243  -9.723   3.646  1.00 43.94 LIG-0.27  OA
ATOM     32 H    GLU E  57       6.308  -8.979   4.020  1.00 40.65 LIG 0.16  HD
BRANCH 30 33
ATOM     33  CA  PHE E  56       7.473 -11.177   4.417  1.00 42.97 LIG 0.18  C 
BRANCH 33 34
ATOM     34  N   PHE E  56       6.426 -11.683   3.541  1.00 46.55 LIG-0.35  N 
ATOM     35 H    PHE E  56       6.487 -11.407   2.728  1.00 46.55 LIG 0.16  HD
ATOM     36  C   ASP E  55       5.467 -12.497   3.969  1.00 50.93 LIG 0.25  C 
ATOM     37 O    ASP E  55       5.351 -12.854   5.141  1.00 52.54 LIG-0.27  OA
BRANCH 36 38
ATOM     38  CA  ASP E  55       4.462 -12.922   2.890  1.00 54.04 LIG 0.28  C 
BRANCH 38 39
ATOM     39  CB  ASP E  55       3.343 -11.870   2.708  1.00 59.52 LIG 0.15  C 
BRANCH 39 40
ATOM     40  CG  ASP E  55       2.430 -11.693   3.941  1.00 62.29 LIG 0.17  C 
ATOM     41 OD2  ASP E  55       2.484 -12.584   4.810  1.00 64.60 LIG-0.65  OA
ATOM     42 OD1  ASP E  55       1.657 -10.713   4.064  1.00 62.89 LIG-0.65  OA
ENDBRANCH 39 40
ENDBRANCH 38 39
BRANCH 38 43
ATOM     43  N   ASP E  55       3.843 -14.216   3.345  1.00 53.57 LIG-0.07  N 
ATOM     44 H3   ASP E  55       4.070 -14.374   4.191  1.00 53.57 LIG 0.28  HD
ATOM     45 H2   ASP E  55       4.135 -14.882   2.831  1.00 53.57 LIG 0.28  HD
ATOM     46 H1   ASP E  55       2.956 -14.160   3.282  1.00 53.57 LIG 0.28  HD
ENDBRANCH 38 43
ENDBRANCH 36 38
ENDBRANCH 33 34
BRANCH 33 47
ATOM     47  CB  PHE E  56       8.600 -12.222   4.548  1.00 40.20 LIG 0.07  C 
BRANCH 47 48
ATOM     48  CG  PHE E  56       9.368 -12.140   5.853  1.00 37.86 LIG-0.06  A 
ATOM     49  CD1 PHE E  56       8.791 -11.582   7.000  1.00 37.96 LIG 0.01  A 
ATOM     50  CE1 PHE E  56       9.489 -11.501   8.217  1.00 36.63 LIG 0.00  A 
ATOM     51  CZ  PHE E  56      10.790 -11.977   8.282  1.00 33.67 LIG 0.00  A 
ATOM     52  CE2 PHE E  56      11.381 -12.535   7.144  1.00 33.57 LIG 0.00  A 
ATOM     53  CD2 PHE E  56      10.668 -12.616   5.940  1.00 33.78 LIG 0.01  A 
ENDBRANCH 47 48
ENDBRANCH 33 47
ENDBRANCH 30 33
ENDBRANCH 1 29
TORSDOF 22
ENDMDL
MODEL 12
USER: ADFR SOLUTION from run 49
USER: SCORE 18.263386 LL:  -4.448 LR: -14.593 RR:   0.000 FEB:  -8.031
USER: RMSD 5.856880
USER: SEED 48
USER: STATUS searching
USER: GENES 24
USER: genes 0 Translation |==|  0.48736 0.47394 0.62722
USER: genes 1 Rotation |==|  0.67551 0.81225 0.39310 0.83207
USER: genes 2 Torsion [C]-CA--CB-[CG] |==|  0.60986
USER: genes 3 Torsion [CA]-CB--CG-[CD] |==|  0.78028
USER: genes 4 Torsion [CB]-CG--CD-[OE1] |==|  0.60047
USER: genes 5 Torsion [N]-CA--C-[N] |==|  0.20314
USER: genes 6 Torsion [C]-N--CA-[CB] |==|  0.55791
USER: genes 7 Torsion [N]-CA--CB-[CG] |==|  0.36627
USER: genes 8 Torsion [CA]-CB--CG-[CD] |==|  0.62750
USER: genes 9 Torsion [CB]-CG--CD-[OE1] |==|  0.48752
USER: genes 10 Torsion [N]-CA--C-[N] |==|  0.31206
USER: genes 11 Torsion [C]-N--CA-[C] |==|  0.73610
USER: genes 12 Torsion [N]-CA--C-[OXT] |==|  0.01396
USER: genes 13 Torsion [N]-CA--CB-[CG2] |==|  0.20038
USER: genes 14 Torsion [CA]-CB--CG1-[CD1] |==|  0.46664
USER: genes 15 Torsion [CB]-CA--N-[C] |==|  0.78889
USER: genes 16 Torsion [N]-C--CA-[N] |==|  0.39910
USER: genes 17 Torsion [C]-CA--N-[C] |==|  0.83265
USER: genes 18 Torsion [N]-C--CA-[N] |==|  0.69737
USER: genes 19 Torsion [C]-CA--CB-[CG] |==|  0.59190
USER: genes 20 Torsion [CA]-CB--CG-[OD1] |==|  0.91721
USER: genes 21 Torsion [C]-CA--N-[H3] |==|  0.75290
USER: genes 22 Torsion [C]-CA--CB-[CG] |==|  0.23942
USER: genes 23 Torsion [CA]-CB--CG-[CD1] |==|  0.08381
ROOT
ATOM      1  CA  GLU E  57       7.571  -7.432   3.007  1.00 37.57 LIG 0.18  C 
ENDROOT
BRANCH 1 2
ATOM      2  CB  GLU E  57       8.271  -7.022   4.285  1.00 31.17 LIG 0.04  C 
BRANCH 2 3
ATOM      3  CG  GLU E  57       8.752  -8.168   5.118  1.00 31.87 LIG 0.12  C 
BRANCH 3 4
ATOM      4  CD  GLU E  57       7.646  -8.797   5.921  1.00 37.45 LIG 0.17  C 
ATOM      5 OE1  GLU E  57       7.895  -9.222   7.063  1.00 40.31 LIG-0.65  OA
ATOM      6 OE2  GLU E  57       6.515  -8.882   5.407  1.00 37.89 LIG-0.65  OA
ENDBRANCH 3 4
ENDBRANCH 2 3
ENDBRANCH 1 2
BRANCH 1 7
ATOM      7  C   GLU E  57       7.954  -6.508   1.851  1.00 41.20 LIG 0.24  C 
ATOM      8  N   GLU E  58       7.200  -6.650   0.789  1.00 46.60 LIG-0.35  N 
ATOM      9 H    GLU E  58       6.552  -7.214   0.761  1.00 46.60 LIG 0.16  HD
ATOM     10 O    GLU E  57       8.892  -5.716   1.895  1.00 39.74 LIG-0.27  OA
BRANCH 8 11
ATOM     11  CA  GLU E  58       7.347  -5.904  -0.444  1.00 48.53 LIG 0.18  C 
BRANCH 11 12
ATOM     12  CB  GLU E  58       6.003  -5.974  -1.206  1.00 56.76 LIG 0.04  C 
BRANCH 12 13
ATOM     13  CG  GLU E  58       5.359  -4.652  -1.792  1.00 68.50 LIG 0.12  C 
BRANCH 13 14
ATOM     14  CD  GLU E  58       3.829  -4.400  -1.560  1.00 69.79 LIG 0.17  C 
ATOM     15 OE2  GLU E  58       3.148  -5.303  -1.017  1.00 69.71 LIG-0.65  OA
ATOM     16 OE1  GLU E  58       3.287  -3.331  -1.930  1.00 71.02 LIG-0.65  OA
ENDBRANCH 13 14
ENDBRANCH 12 13
ENDBRANCH 11 12
BRANCH 11 17
ATOM     17  C   GLU E  58       7.836  -4.488  -0.175  1.00 48.41 LIG 0.24  C 
ATOM     18  N   ILE E  59       9.061  -4.253  -0.618  1.00 45.67 LIG-0.34  N 
ATOM     19 H    ILE E  59       9.548  -4.837  -1.020  1.00 45.67 LIG 0.16  HD
ATOM     20 O    GLU E  58       7.171  -3.683   0.501  1.00 49.96 LIG-0.27  OA
BRANCH 18 21
ATOM     21  CA  ILE E  59       9.689  -2.960  -0.453  1.00 48.61 LIG 0.19  C 
BRANCH 21 22
ATOM     22  C   ILE E  59       9.480  -2.114  -1.717  1.00 51.92 LIG 0.20  C 
ATOM     23 OXT  ILE E  59       8.756  -2.555  -2.651  1.00 54.21 LIG-0.65  OA
ATOM     24 O    ILE E  59      10.073  -1.009  -1.757  1.00 54.03 LIG-0.65  OA
ENDBRANCH 21 22
BRANCH 21 25
ATOM     25  CB  ILE E  59      11.200  -3.127  -0.076  1.00 45.36 LIG 0.01  C 
ATOM     26  CG2 ILE E  59      11.973  -3.612  -1.301  1.00 47.34 LIG 0.01  C 
BRANCH 25 27
ATOM     27  CG1 ILE E  59      11.816  -1.816   0.390  1.00 43.95 LIG 0.00  C 
ATOM     28  CD1 ILE E  59      13.165  -1.998   1.025  1.00 41.62 LIG 0.01  C 
ENDBRANCH 25 27
ENDBRANCH 21 25
ENDBRANCH 18 21
ENDBRANCH 11 17
ENDBRANCH 8 11
ENDBRANCH 1 7
BRANCH 1 29
ATOM     29  N   GLU E  57       8.008  -8.745   2.609  1.00 40.65 LIG-0.35  N 
ATOM     30  C   PHE E  56       9.187  -8.974   2.046  1.00 43.72 LIG 0.24  C 
ATOM     31 O    PHE E  56      10.000  -8.089   1.722  1.00 43.94 LIG-0.27  OA
ATOM     32 H    GLU E  57       7.433  -9.364   2.770  1.00 40.65 LIG 0.16  HD
BRANCH 30 33
ATOM     33  CA  PHE E  56       9.455 -10.444   1.725  1.00 42.97 LIG 0.18  C 
BRANCH 33 34
ATOM     34  N   PHE E  56      10.198 -10.634   0.487  1.00 46.55 LIG-0.35  N 
ATOM     35 H    PHE E  56      10.952 -11.035   0.591  1.00 46.55 LIG 0.16  HD
ATOM     36  C   ASP E  55       9.743 -10.221  -0.691  1.00 50.93 LIG 0.25  C 
ATOM     37 O    ASP E  55       8.687  -9.606  -0.834  1.00 52.54 LIG-0.27  OA
BRANCH 36 38
ATOM     38  CA  ASP E  55      10.672 -10.521  -1.875  1.00 54.04 LIG 0.28  C 
BRANCH 38 39
ATOM     39  CB  ASP E  55      11.827 -11.465  -1.468  1.00 59.52 LIG 0.15  C 
BRANCH 39 40
ATOM     40  CG  ASP E  55      13.153 -11.207  -2.218  1.00 62.29 LIG 0.17  C 
ATOM     41 OD2  ASP E  55      14.204 -11.459  -1.599  1.00 64.60 LIG-0.65  OA
ATOM     42 OD1  ASP E  55      13.181 -10.749  -3.385  1.00 62.89 LIG-0.65  OA
ENDBRANCH 39 40
ENDBRANCH 38 39
BRANCH 38 43
ATOM     43  N   ASP E  55      11.253  -9.208  -2.327  1.00 53.57 LIG-0.07  N 
ATOM     44 H3   ASP E  55      10.717  -8.840  -2.935  1.00 53.57 LIG 0.28  HD
ATOM     45 H2   ASP E  55      12.057  -9.346  -2.684  1.00 53.57 LIG 0.28  HD
ATOM     46 H1   ASP E  55      11.329  -8.660  -1.629  1.00 53.57 LIG 0.28  HD
ENDBRANCH 38 43
ENDBRANCH 36 38
ENDBRANCH 33 34
BRANCH 33 47
ATOM     47  CB  PHE E  56      10.199 -11.120   2.894  1.00 40.20 LIG 0.07  C 
BRANCH 47 48
ATOM     48  CG  PHE E  56       9.284 -11.657   3.979  1.00 37.86 LIG-0.06  A 
ATOM     49  CD1 PHE E  56       7.993 -12.107   3.681  1.00 37.96 LIG 0.01  A 
ATOM     50  CE1 PHE E  56       7.135 -12.608   4.675  1.00 36.63 LIG 0.00  A 
ATOM     51  CZ  PHE E  56       7.575 -12.650   5.989  1.00 33.67 LIG 0.00  A 
ATOM     52  CE2 PHE E  56       8.863 -12.202   6.303  1.00 33.57 LIG 0.00  A 
ATOM     53  CD2 PHE E  56       9.709 -11.712   5.299  1.00 33.78 LIG 0.01  A 
ENDBRANCH 47 48
ENDBRANCH 33 47
ENDBRANCH 30 33
ENDBRANCH 1 29
TORSDOF 22
ENDMDL
MODEL 13
USER: ADFR SOLUTION from run 106
USER: SCORE 17.313026 LL:  -4.008 LR: -14.581 RR:   0.000 FEB:  -8.019
USER: RMSD 6.769157
USER: SEED 105
USER: STATUS searching
USER: GENES 24
USER: genes 0 Translation |==|  0.51454 0.42330 0.65327
USER: genes 1 Rotation |==|  0.56444 0.85657 0.43234 0.83782
USER: genes 2 Torsion [C]-CA--CB-[CG] |==|  0.36809
USER: genes 3 Torsion [CA]-CB--CG-[CD] |==|  0.22780
USER: genes 4 Torsion [CB]-CG--CD-[OE1] |==|  0.05745
USER: genes 5 Torsion [N]-CA--C-[N] |==|  0.90448
USER: genes 6 Torsion [C]-N--CA-[CB] |==|  0.82306
USER: genes 7 Torsion [N]-CA--CB-[CG] |==|  0.28166
USER: genes 8 Torsion [CA]-CB--CG-[CD] |==|  0.67779
USER: genes 9 Torsion [CB]-CG--CD-[OE1] |==|  0.04571
USER: genes 10 Torsion [N]-CA--C-[N] |==|  0.40666
USER: genes 11 Torsion [C]-N--CA-[C] |==|  0.81201
USER: genes 12 Torsion [N]-CA--C-[OXT] |==|  0.75061
USER: genes 13 Torsion [N]-CA--CB-[CG2] |==|  0.46921
USER: genes 14 Torsion [CA]-CB--CG1-[CD1] |==|  0.75435
USER: genes 15 Torsion [CB]-CA--N-[C] |==|  0.25556
USER: genes 16 Torsion [N]-C--CA-[N] |==|  0.42812
USER: genes 17 Torsion [C]-CA--N-[C] |==|  0.54961
USER: genes 18 Torsion [N]-C--CA-[N] |==|  0.79124
USER: genes 19 Torsion [C]-CA--CB-[CG] |==|  0.75379
USER: genes 20 Torsion [CA]-CB--CG-[OD1] |==|  0.08000
USER: genes 21 Torsion [C]-CA--N-[H3] |==|  0.93422
USER: genes 22 Torsion [C]-CA--CB-[CG] |==|  0.29823
USER: genes 23 Torsion [CA]-CB--CG-[CD1] |==|  0.75233
ROOT
ATOM      1  CA  GLU E  57       8.386  -8.951   3.788  1.00 37.57 LIG 0.18  C 
ENDROOT
BRANCH 1 2
ATOM      2  CB  GLU E  57       8.955  -8.044   4.859  1.00 31.17 LIG 0.04  C 
BRANCH 2 3
ATOM      3  CG  GLU E  57       8.243  -8.122   6.173  1.00 31.87 LIG 0.12  C 
BRANCH 3 4
ATOM      4  CD  GLU E  57       8.700  -9.290   7.004  1.00 37.45 LIG 0.17  C 
ATOM      5 OE1  GLU E  57       9.806  -9.807   6.762  1.00 40.31 LIG-0.65  OA
ATOM      6 OE2  GLU E  57       7.947  -9.710   7.902  1.00 37.89 LIG-0.65  OA
ENDBRANCH 3 4
ENDBRANCH 2 3
ENDBRANCH 1 2
BRANCH 1 7
ATOM      7  C   GLU E  57       8.197  -8.196   2.473  1.00 41.20 LIG 0.24  C 
ATOM      8  N   GLU E  58       9.277  -8.141   1.735  1.00 46.60 LIG-0.35  N 
ATOM      9 H    GLU E  58      10.017  -8.504   1.980  1.00 46.60 LIG 0.16  HD
ATOM     10 O    GLU E  57       7.140  -7.666   2.138  1.00 39.74 LIG-0.27  OA
BRANCH 8 11
ATOM     11  CA  GLU E  58       9.375  -7.485   0.447  1.00 48.53 LIG 0.18  C 
BRANCH 11 12
ATOM     12  CB  GLU E  58       8.428  -8.217  -0.533  1.00 56.76 LIG 0.04  C 
BRANCH 12 13
ATOM     13  CG  GLU E  58       7.019  -7.589  -0.884  1.00 68.50 LIG 0.12  C 
BRANCH 13 14
ATOM     14  CD  GLU E  58       5.727  -8.373  -0.466  1.00 69.79 LIG 0.17  C 
ATOM     15 OE2  GLU E  58       4.632  -8.042  -0.982  1.00 69.71 LIG-0.65  OA
ATOM     16 OE1  GLU E  58       5.775  -9.295   0.384  1.00 71.02 LIG-0.65  OA
ENDBRANCH 13 14
ENDBRANCH 12 13
ENDBRANCH 11 12
BRANCH 11 17
ATOM     17  C   GLU E  58       9.110  -5.991   0.569  1.00 48.41 LIG 0.24  C 
ATOM     18  N   ILE E  59       9.811  -5.254  -0.277  1.00 45.67 LIG-0.34  N 
ATOM     19 H    ILE E  59      10.370  -5.575  -0.847  1.00 45.67 LIG 0.16  HD
ATOM     20 O    GLU E  58       8.384  -5.526   1.465  1.00 49.96 LIG-0.27  OA
BRANCH 18 21
ATOM     21  CA  ILE E  59       9.687  -3.813  -0.306  1.00 48.61 LIG 0.19  C 
BRANCH 21 22
ATOM     22  C   ILE E  59       8.292  -3.421  -0.814  1.00 51.92 LIG 0.20  C 
ATOM     23 OXT  ILE E  59       8.101  -3.254  -2.049  1.00 54.21 LIG-0.65  OA
ATOM     24 O    ILE E  59       7.400  -3.268   0.057  1.00 54.03 LIG-0.65  OA
ENDBRANCH 21 22
BRANCH 21 25
ATOM     25  CB  ILE E  59      10.843  -3.178  -1.151  1.00 45.36 LIG 0.01  C 
ATOM     26  CG2 ILE E  59      10.535  -1.701  -1.394  1.00 47.34 LIG 0.01  C 
BRANCH 25 27
ATOM     27  CG1 ILE E  59      12.184  -3.277  -0.440  1.00 43.95 LIG 0.00  C 
ATOM     28  CD1 ILE E  59      12.451  -2.108   0.467  1.00 41.62 LIG 0.01  C 
ENDBRANCH 25 27
ENDBRANCH 21 25
ENDBRANCH 18 21
ENDBRANCH 11 17
ENDBRANCH 8 11
ENDBRANCH 1 7
BRANCH 1 29
ATOM     29  N   GLU E  57       9.321 -10.006   3.493  1.00 40.65 LIG-0.35  N 
ATOM     30  C   PHE E  56       9.297 -11.184   4.104  1.00 43.72 LIG 0.24  C 
ATOM     31 O    PHE E  56       8.537 -11.477   5.044  1.00 43.94 LIG-0.27  OA
ATOM     32 H    GLU E  57       9.894  -9.801   2.886  1.00 40.65 LIG 0.16  HD
BRANCH 30 33
ATOM     33  CA  PHE E  56      10.366 -12.164   3.621  1.00 42.97 LIG 0.18  C 
BRANCH 33 34
ATOM     34  N   PHE E  56      10.732 -13.153   4.625  1.00 46.55 LIG-0.35  N 
ATOM     35 H    PHE E  56      10.159 -13.232   5.262  1.00 46.55 LIG 0.16  HD
ATOM     36  C   ASP E  55      11.853 -13.862   4.554  1.00 50.93 LIG 0.25  C 
ATOM     37 O    ASP E  55      12.696 -13.715   3.670  1.00 52.54 LIG-0.27  OA
BRANCH 36 38
ATOM     38  CA  ASP E  55      12.054 -14.856   5.706  1.00 54.04 LIG 0.28  C 
BRANCH 38 39
ATOM     39  CB  ASP E  55      10.752 -15.626   6.028  1.00 59.52 LIG 0.15  C 
BRANCH 39 40
ATOM     40  CG  ASP E  55       9.839 -14.928   7.059  1.00 62.29 LIG 0.17  C 
ATOM     41 OD2  ASP E  55       9.105 -15.663   7.747  1.00 64.60 LIG-0.65  OA
ATOM     42 OD1  ASP E  55       9.815 -13.681   7.195  1.00 62.89 LIG-0.65  OA
ENDBRANCH 39 40
ENDBRANCH 38 39
BRANCH 38 43
ATOM     43  N   ASP E  55      12.458 -14.057   6.917  1.00 53.57 LIG-0.07  N 
ATOM     44 H3   ASP E  55      12.821 -13.287   6.657  1.00 53.57 LIG 0.28  HD
ATOM     45 H2   ASP E  55      13.052 -14.519   7.392  1.00 53.57 LIG 0.28  HD
ATOM     46 H1   ASP E  55      11.741 -13.893   7.418  1.00 53.57 LIG 0.28  HD
ENDBRANCH 38 43
ENDBRANCH 36 38
ENDBRANCH 33 34
BRANCH 33 47
ATOM     47  CB  PHE E  56       9.900 -12.871   2.332  1.00 40.20 LIG 0.07  C 
BRANCH 47 48
ATOM     48  CG  PHE E  56      10.621 -12.407   1.080  1.00 37.86 LIG-0.06  A 
ATOM     49  CD1 PHE E  56      10.145 -11.328   0.327  1.00 37.96 LIG 0.01  A 
ATOM     50  CE1 PHE E  56      10.802 -10.886  -0.833  1.00 36.63 LIG 0.00  A 
ATOM     51  CZ  PHE E  56      11.951 -11.541  -1.250  1.00 33.67 LIG 0.00  A 
ATOM     52  CE2 PHE E  56      12.439 -12.623  -0.509  1.00 33.57 LIG 0.00  A 
ATOM     53  CD2 PHE E  56      11.775 -13.047   0.651  1.00 33.78 LIG 0.01  A 
ENDBRANCH 47 48
ENDBRANCH 33 47
ENDBRANCH 30 33
ENDBRANCH 1 29
TORSDOF 22
ENDMDL
MODEL 14
USER: ADFR SOLUTION from run 51
USER: SCORE 17.194721 LL:  -4.953 LR: -14.477 RR:   0.000 FEB:  -7.914
USER: RMSD 13.124981
USER: SEED 50
USER: STATUS no improvement in best 12 clusters for 5 generations
USER: GENES 24
USER: genes 0 Translation |==|  0.58618 0.30705 0.84064
USER: genes 1 Rotation |==|  0.49042 0.76483 0.40890 0.91409
USER: genes 2 Torsion [C]-CA--CB-[CG] |==|  0.46953
USER: genes 3 Torsion [CA]-CB--CG-[CD] |==|  0.89771
USER: genes 4 Torsion [CB]-CG--CD-[OE1] |==|  0.72253
USER: genes 5 Torsion [N]-CA--C-[N] |==|  0.30387
USER: genes 6 Torsion [C]-N--CA-[CB] |==|  0.47471
USER: genes 7 Torsion [N]-CA--CB-[CG] |==|  0.16526
USER: genes 8 Torsion [CA]-CB--CG-[CD] |==|  0.25067
USER: genes 9 Torsion [CB]-CG--CD-[OE1] |==|  0.03318
USER: genes 10 Torsion [N]-CA--C-[N] |==|  0.92970
USER: genes 11 Torsion [C]-N--CA-[C] |==|  0.52263
USER: genes 12 Torsion [N]-CA--C-[OXT] |==|  0.46298
USER: genes 13 Torsion [N]-CA--CB-[CG2] |==|  0.30275
USER: genes 14 Torsion [CA]-CB--CG1-[CD1] |==|  0.45556
USER: genes 15 Torsion [CB]-CA--N-[C] |==|  0.51156
USER: genes 16 Torsion [N]-C--CA-[N] |==|  0.00657
USER: genes 17 Torsion [C]-CA--N-[C] |==|  0.76186
USER: genes 18 Torsion [N]-C--CA-[N] |==|  0.12362
USER: genes 19 Torsion [C]-CA--CB-[CG] |==|  0.56457
USER: genes 20 Torsion [CA]-CB--CG-[OD1] |==|  0.66975
USER: genes 21 Torsion [C]-CA--N-[H3] |==|  0.95227
USER: genes 22 Torsion [C]-CA--CB-[CG] |==|  0.91367
USER: genes 23 Torsion [CA]-CB--CG-[CD1] |==|  0.79831
ROOT
ATOM      1  CA  GLU E  57      10.535 -12.438   9.409  1.00 37.57 LIG 0.18  C 
ENDROOT
BRANCH 1 2
ATOM      2  CB  GLU E  57      10.541 -11.144  10.195  1.00 31.17 LIG 0.04  C 
BRANCH 2 3
ATOM      3  CG  GLU E  57       9.974 -11.260  11.576  1.00 31.87 LIG 0.12  C 
BRANCH 3 4
ATOM      4  CD  GLU E  57       8.804 -12.204  11.637  1.00 37.45 LIG 0.17  C 
ATOM      5 OE1  GLU E  57       7.651 -11.737  11.638  1.00 40.31 LIG-0.65  OA
ATOM      6 OE2  GLU E  57       9.031 -13.427  11.696  1.00 37.89 LIG-0.65  OA
ENDBRANCH 3 4
ENDBRANCH 2 3
ENDBRANCH 1 2
BRANCH 1 7
ATOM      7  C   GLU E  57      10.872 -12.189   7.939  1.00 41.20 LIG 0.24  C 
ATOM      8  N   GLU E  58      10.047 -12.768   7.103  1.00 46.60 LIG-0.35  N 
ATOM      9 H    GLU E  58       9.381 -13.241   7.371  1.00 46.60 LIG 0.16  HD
ATOM     10 O    GLU E  57      11.835 -11.525   7.565  1.00 39.74 LIG-0.27  OA
BRANCH 8 11
ATOM     11  CA  GLU E  58      10.138 -12.698   5.659  1.00 48.53 LIG 0.18  C 
BRANCH 11 12
ATOM     12  CB  GLU E  58       9.119 -13.701   5.068  1.00 56.76 LIG 0.04  C 
BRANCH 12 13
ATOM     13  CG  GLU E  58       7.580 -13.549   5.400  1.00 68.50 LIG 0.12  C 
BRANCH 13 14
ATOM     14  CD  GLU E  58       6.693 -12.672   4.450  1.00 69.79 LIG 0.17  C 
ATOM     15 OE2  GLU E  58       5.528 -12.383   4.815  1.00 69.71 LIG-0.65  OA
ATOM     16 OE1  GLU E  58       7.124 -12.284   3.337  1.00 71.02 LIG-0.65  OA
ENDBRANCH 13 14
ENDBRANCH 12 13
ENDBRANCH 11 12
BRANCH 11 17
ATOM     17  C   GLU E  58       9.960 -11.269   5.165  1.00 48.41 LIG 0.24  C 
ATOM     18  N   ILE E  59       9.264 -10.502   5.989  1.00 45.67 LIG-0.34  N 
ATOM     19 H    ILE E  59       8.935 -10.773   6.736  1.00 45.67 LIG 0.16  HD
ATOM     20 O    GLU E  58      10.345 -10.914   4.037  1.00 49.96 LIG-0.27  OA
BRANCH 18 21
ATOM     21  CA  ILE E  59       8.998  -9.113   5.684  1.00 48.61 LIG 0.19  C 
BRANCH 21 22
ATOM     22  C   ILE E  59       8.354  -8.428   6.898  1.00 51.92 LIG 0.20  C 
ATOM     23 OXT  ILE E  59       8.274  -7.170   6.936  1.00 54.21 LIG-0.65  OA
ATOM     24 O    ILE E  59       7.950  -9.181   7.818  1.00 54.03 LIG-0.65  OA
ENDBRANCH 21 22
BRANCH 21 25
ATOM     25  CB  ILE E  59       8.130  -8.991   4.386  1.00 45.36 LIG 0.01  C 
ATOM     26  CG2 ILE E  59       6.721  -8.536   4.764  1.00 47.34 LIG 0.01  C 
BRANCH 25 27
ATOM     27  CG1 ILE E  59       8.713  -7.981   3.408  1.00 43.95 LIG 0.00  C 
ATOM     28  CD1 ILE E  59       8.143  -8.114   2.024  1.00 41.62 LIG 0.01  C 
ENDBRANCH 25 27
ENDBRANCH 21 25
ENDBRANCH 18 21
ENDBRANCH 11 17
ENDBRANCH 8 11
ENDBRANCH 1 7
BRANCH 1 29
ATOM     29  N   GLU E  57      11.571 -13.312   9.896  1.00 40.65 LIG-0.35  N 
ATOM     30  C   PHE E  56      11.849 -14.483   9.339  1.00 43.72 LIG 0.24  C 
ATOM     31 O    PHE E  56      11.205 -14.993   8.405  1.00 43.94 LIG-0.27  OA
ATOM     32 H    GLU E  57      11.990 -13.003  10.581  1.00 40.65 LIG 0.16  HD
BRANCH 30 33
ATOM     33  CA  PHE E  56      13.001 -15.237  10.003  1.00 42.97 LIG 0.18  C 
BRANCH 33 34
ATOM     34  N   PHE E  56      13.544 -14.547  11.164  1.00 46.55 LIG-0.35  N 
ATOM     35 H    PHE E  56      13.202 -14.799  11.912  1.00 46.55 LIG 0.16  HD
ATOM     36  C   ASP E  55      14.483 -13.613  11.066  1.00 50.93 LIG 0.25  C 
ATOM     37 O    ASP E  55      14.940 -13.217   9.994  1.00 52.54 LIG-0.27  OA
BRANCH 36 38
ATOM     38  CA  ASP E  55      14.926 -13.009  12.406  1.00 54.04 LIG 0.28  C 
BRANCH 38 39
ATOM     39  CB  ASP E  55      16.268 -12.251  12.273  1.00 59.52 LIG 0.15  C 
BRANCH 39 40
ATOM     40  CG  ASP E  55      17.051 -12.111  13.597  1.00 62.29 LIG 0.17  C 
ATOM     41 OD2  ASP E  55      17.388 -13.168  14.163  1.00 64.60 LIG-0.65  OA
ATOM     42 OD1  ASP E  55      17.325 -10.993  14.096  1.00 62.89 LIG-0.65  OA
ENDBRANCH 39 40
ENDBRANCH 38 39
BRANCH 38 43
ATOM     43  N   ASP E  55      15.104 -14.150  13.371  1.00 53.57 LIG-0.07  N 
ATOM     44 H3   ASP E  55      14.690 -14.873  13.057  1.00 53.57 LIG 0.28  HD
ATOM     45 H2   ASP E  55      14.758 -13.928  14.160  1.00 53.57 LIG 0.28  HD
ATOM     46 H1   ASP E  55      15.972 -14.325  13.467  1.00 53.57 LIG 0.28  HD
ENDBRANCH 38 43
ENDBRANCH 36 38
ENDBRANCH 33 34
BRANCH 33 47
ATOM     47  CB  PHE E  56      12.553 -16.659  10.399  1.00 40.20 LIG 0.07  C 
BRANCH 47 48
ATOM     48  CG  PHE E  56      11.083 -16.764  10.759  1.00 37.86 LIG-0.06  A 
ATOM     49  CD1 PHE E  56      10.592 -16.240  11.961  1.00 37.96 LIG 0.01  A 
ATOM     50  CE1 PHE E  56       9.233 -16.328  12.308  1.00 36.63 LIG 0.00  A 
ATOM     51  CZ  PHE E  56       8.355 -16.960  11.441  1.00 33.67 LIG 0.00  A 
ATOM     52  CE2 PHE E  56       8.831 -17.491  10.237  1.00 33.57 LIG 0.00  A 
ATOM     53  CD2 PHE E  56      10.188 -17.387   9.902  1.00 33.78 LIG 0.01  A 
ENDBRANCH 47 48
ENDBRANCH 33 47
ENDBRANCH 30 33
ENDBRANCH 1 29
TORSDOF 22
ENDMDL
MODEL 15
USER: ADFR SOLUTION from run 159
USER: SCORE 17.775201 LL:  -4.537 LR: -14.454 RR:   0.000 FEB:  -7.891
USER: RMSD 6.261928
USER: SEED 158
USER: STATUS no improvement in best 4 clusters for 5 generations
USER: GENES 24
USER: genes 0 Translation |==|  0.50009 0.43140 0.66073
USER: genes 1 Rotation |==|  0.60254 0.85558 0.33902 0.79518
USER: genes 2 Torsion [C]-CA--CB-[CG] |==|  0.42163
USER: genes 3 Torsion [CA]-CB--CG-[CD] |==|  0.18009
USER: genes 4 Torsion [CB]-CG--CD-[OE1] |==|  0.62838
USER: genes 5 Torsion [N]-CA--C-[N] |==|  0.80829
USER: genes 6 Torsion [C]-N--CA-[CB] |==|  0.84983
USER: genes 7 Torsion [N]-CA--CB-[CG] |==|  0.77920
USER: genes 8 Torsion [CA]-CB--CG-[CD] |==|  0.97809
USER: genes 9 Torsion [CB]-CG--CD-[OE1] |==|  0.65220
USER: genes 10 Torsion [N]-CA--C-[N] |==|  0.39877
USER: genes 11 Torsion [C]-N--CA-[C] |==|  0.82518
USER: genes 12 Torsion [N]-CA--C-[OXT] |==|  0.23254
USER: genes 13 Torsion [N]-CA--CB-[CG2] |==|  0.49130
USER: genes 14 Torsion [CA]-CB--CG1-[CD1] |==|  0.71813
USER: genes 15 Torsion [CB]-CA--N-[C] |==|  0.51865
USER: genes 16 Torsion [N]-C--CA-[N] |==|  0.36239
USER: genes 17 Torsion [C]-CA--N-[C] |==|  0.85398
USER: genes 18 Torsion [N]-C--CA-[N] |==|  0.38092
USER: genes 19 Torsion [C]-CA--CB-[CG] |==|  0.80899
USER: genes 20 Torsion [CA]-CB--CG-[OD1] |==|  0.83804
USER: genes 21 Torsion [C]-CA--N-[H3] |==|  0.26467
USER: genes 22 Torsion [C]-CA--CB-[CG] |==|  0.35287
USER: genes 23 Torsion [CA]-CB--CG-[CD1] |==|  0.99892
ROOT
ATOM      1  CA  GLU E  57       7.953  -8.708   4.012  1.00 37.57 LIG 0.18  C 
ENDROOT
BRANCH 1 2
ATOM      2  CB  GLU E  57       8.986  -7.978   4.844  1.00 31.17 LIG 0.04  C 
BRANCH 2 3
ATOM      3  CG  GLU E  57       8.736  -8.028   6.319  1.00 31.87 LIG 0.12  C 
BRANCH 3 4
ATOM      4  CD  GLU E  57       8.834  -9.424   6.870  1.00 37.45 LIG 0.17  C 
ATOM      5 OE1  GLU E  57       7.950  -9.830   7.646  1.00 40.31 LIG-0.65  OA
ATOM      6 OE2  GLU E  57       9.807 -10.126   6.538  1.00 37.89 LIG-0.65  OA
ENDBRANCH 3 4
ENDBRANCH 2 3
ENDBRANCH 1 2
BRANCH 1 7
ATOM      7  C   GLU E  57       7.831  -8.088   2.620  1.00 41.20 LIG 0.24  C 
ATOM      8  N   GLU E  58       8.980  -7.923   2.013  1.00 46.60 LIG-0.35  N 
ATOM      9 H    GLU E  58       9.726  -8.150   2.376  1.00 46.60 LIG 0.16  HD
ATOM     10 O    GLU E  57       6.763  -7.752   2.116  1.00 39.74 LIG-0.27  OA
BRANCH 8 11
ATOM     11  CA  GLU E  58       9.151  -7.355   0.692  1.00 48.53 LIG 0.18  C 
BRANCH 11 12
ATOM     12  CB  GLU E  58       8.255  -8.149  -0.287  1.00 56.76 LIG 0.04  C 
BRANCH 12 13
ATOM     13  CG  GLU E  58       8.736  -9.554  -0.834  1.00 68.50 LIG 0.12  C 
BRANCH 13 14
ATOM     14  CD  GLU E  58      10.198 -10.021  -0.513  1.00 69.79 LIG 0.17  C 
ATOM     15 OE2  GLU E  58      10.575 -10.031   0.684  1.00 69.71 LIG-0.65  OA
ATOM     16 OE1  GLU E  58      10.987 -10.355  -1.430  1.00 71.02 LIG-0.65  OA
ENDBRANCH 13 14
ENDBRANCH 12 13
ENDBRANCH 11 12
BRANCH 11 17
ATOM     17  C   GLU E  58       8.887  -5.856   0.699  1.00 48.41 LIG 0.24  C 
ATOM     18  N   ILE E  59       9.678  -5.172  -0.112  1.00 45.67 LIG-0.34  N 
ATOM     19 H    ILE E  59      10.289  -5.527  -0.601  1.00 45.67 LIG 0.16  HD
ATOM     20 O    GLU E  58       8.077  -5.338   1.487  1.00 49.96 LIG-0.27  OA
BRANCH 18 21
ATOM     21  CA  ILE E  59       9.569  -3.734  -0.237  1.00 48.61 LIG 0.19  C 
BRANCH 21 22
ATOM     22  C   ILE E  59       8.189  -3.364  -0.799  1.00 51.92 LIG 0.20  C 
ATOM     23 OXT  ILE E  59       7.201  -3.271  -0.020  1.00 54.21 LIG-0.65  OA
ATOM     24 O    ILE E  59       8.118  -3.187  -2.040  1.00 54.03 LIG-0.65  OA
ENDBRANCH 21 22
BRANCH 21 25
ATOM     25  CB  ILE E  59      10.749  -3.166  -1.097  1.00 45.36 LIG 0.01  C 
ATOM     26  CG2 ILE E  59      10.561  -1.660  -1.275  1.00 47.34 LIG 0.01  C 
BRANCH 25 27
ATOM     27  CG1 ILE E  59      12.098  -3.406  -0.436  1.00 43.95 LIG 0.00  C 
ATOM     28  CD1 ILE E  59      12.637  -2.182   0.250  1.00 41.62 LIG 0.01  C 
ENDBRANCH 25 27
ENDBRANCH 21 25
ENDBRANCH 18 21
ENDBRANCH 11 17
ENDBRANCH 8 11
ENDBRANCH 1 7
BRANCH 1 29
ATOM     29  N   GLU E  57       8.373 -10.067   3.791  1.00 40.65 LIG-0.35  N 
ATOM     30  C   PHE E  56       7.727 -10.902   2.987  1.00 43.72 LIG 0.24  C 
ATOM     31 O    PHE E  56       6.655 -10.641   2.411  1.00 43.94 LIG-0.27  OA
ATOM     32 H    GLU E  57       9.081 -10.286   4.228  1.00 40.65 LIG 0.16  HD
BRANCH 30 33
ATOM     33  CA  PHE E  56       8.359 -12.289   2.882  1.00 42.97 LIG 0.18  C 
BRANCH 33 34
ATOM     34  N   PHE E  56       7.404 -13.370   3.077  1.00 46.55 LIG-0.35  N 
ATOM     35 H    PHE E  56       7.406 -13.956   2.447  1.00 46.55 LIG 0.16  HD
ATOM     36  C   ASP E  55       6.604 -13.436   4.136  1.00 50.93 LIG 0.25  C 
ATOM     37 O    ASP E  55       6.565 -12.574   5.014  1.00 52.54 LIG-0.27  OA
BRANCH 36 38
ATOM     38  CA  ASP E  55       5.674 -14.656   4.159  1.00 54.04 LIG 0.28  C 
BRANCH 38 39
ATOM     39  CB  ASP E  55       4.225 -14.274   3.777  1.00 59.52 LIG 0.15  C 
BRANCH 39 40
ATOM     40  CG  ASP E  55       3.501 -13.400   4.824  1.00 62.29 LIG 0.17  C 
ATOM     41 OD2  ASP E  55       3.096 -12.286   4.440  1.00 64.60 LIG-0.65  OA
ATOM     42 OD1  ASP E  55       3.339 -13.775   6.010  1.00 62.89 LIG-0.65  OA
ENDBRANCH 39 40
ENDBRANCH 38 39
BRANCH 38 43
ATOM     43  N   ASP E  55       5.681 -15.194   5.565  1.00 53.57 LIG-0.07  N 
ATOM     44 H3   ASP E  55       4.988 -14.860   6.014  1.00 53.57 LIG 0.28  HD
ATOM     45 H2   ASP E  55       6.438 -14.958   5.969  1.00 53.57 LIG 0.28  HD
ATOM     46 H1   ASP E  55       5.620 -16.082   5.544  1.00 53.57 LIG 0.28  HD
ENDBRANCH 38 43
ENDBRANCH 36 38
ENDBRANCH 33 34
BRANCH 33 47
ATOM     47  CB  PHE E  56       9.068 -12.453   1.522  1.00 40.20 LIG 0.07  C 
BRANCH 47 48
ATOM     48  CG  PHE E  56      10.513 -12.901   1.630  1.00 37.86 LIG-0.06  A 
ATOM     49  CD1 PHE E  56      11.111 -13.125   2.876  1.00 37.96 LIG 0.01  A 
ATOM     50  CE1 PHE E  56      12.448 -13.542   2.992  1.00 36.63 LIG 0.00  A 
ATOM     51  CZ  PHE E  56      13.200 -13.728   1.842  1.00 33.67 LIG 0.00  A 
ATOM     52  CE2 PHE E  56      12.617 -13.506   0.590  1.00 33.57 LIG 0.00  A 
ATOM     53  CD2 PHE E  56      11.280 -13.098   0.491  1.00 33.78 LIG 0.01  A 
ENDBRANCH 47 48
ENDBRANCH 33 47
ENDBRANCH 30 33
ENDBRANCH 1 29
TORSDOF 22
ENDMDL
MODEL 16
USER: ADFR SOLUTION from run 107
USER: SCORE 15.275414 LL:  -4.444 LR: -14.439 RR:   0.000 FEB:  -7.876
USER: RMSD 9.730382
USER: SEED 106
USER: STATUS no improvement in best 13 clusters for 5 generations
USER: GENES 24
USER: genes 0 Translation |==|  0.46018 0.49978 0.52436
USER: genes 1 Rotation |==|  0.05057 0.57318 0.31345 0.58863
USER: genes 2 Torsion [C]-CA--CB-[CG] |==|  0.49457
USER: genes 3 Torsion [CA]-CB--CG-[CD] |==|  0.81993
USER: genes 4 Torsion [CB]-CG--CD-[OE1] |==|  0.41205
USER: genes 5 Torsion [N]-CA--C-[N] |==|  0.32203
USER: genes 6 Torsion [C]-N--CA-[CB] |==|  0.46715
USER: genes 7 Torsion [N]-CA--CB-[CG] |==|  0.69198
USER: genes 8 Torsion [CA]-CB--CG-[CD] |==|  0.74325
USER: genes 9 Torsion [CB]-CG--CD-[OE1] |==|  0.77927
USER: genes 10 Torsion [N]-CA--C-[N] |==|  0.71127
USER: genes 11 Torsion [C]-N--CA-[C] |==|  0.55667
USER: genes 12 Torsion [N]-CA--C-[OXT] |==|  0.17355
USER: genes 13 Torsion [N]-CA--CB-[CG2] |==|  0.70846
USER: genes 14 Torsion [CA]-CB--CG1-[CD1] |==|  0.50933
USER: genes 15 Torsion [CB]-CA--N-[C] |==|  0.38674
USER: genes 16 Torsion [N]-C--CA-[N] |==|  0.05406
USER: genes 17 Torsion [C]-CA--N-[C] |==|  0.18882
USER: genes 18 Torsion [N]-C--CA-[N] |==|  0.00178
USER: genes 19 Torsion [C]-CA--CB-[CG] |==|  0.74492
USER: genes 20 Torsion [CA]-CB--CG-[OD1] |==|  0.61607
USER: genes 21 Torsion [C]-CA--N-[H3] |==|  0.17960
USER: genes 22 Torsion [C]-CA--CB-[CG] |==|  0.45557
USER: genes 23 Torsion [CA]-CB--CG-[CD1] |==|  0.32464
ROOT
ATOM      1  CA  GLU E  57       6.755  -6.657  -0.079  1.00 37.57 LIG 0.18  C 
ENDROOT
BRANCH 1 2
ATOM      2  CB  GLU E  57       5.976  -7.116  -1.294  1.00 31.17 LIG 0.04  C 
BRANCH 2 3
ATOM      3  CG  GLU E  57       5.381  -6.003  -2.099  1.00 31.87 LIG 0.12  C 
BRANCH 3 4
ATOM      4  CD  GLU E  57       4.332  -5.241  -1.336  1.00 37.45 LIG 0.17  C 
ATOM      5 OE1  GLU E  57       4.181  -4.028  -1.567  1.00 40.31 LIG-0.65  OA
ATOM      6 OE2  GLU E  57       3.657  -5.850  -0.486  1.00 37.89 LIG-0.65  OA
ENDBRANCH 3 4
ENDBRANCH 2 3
ENDBRANCH 1 2
BRANCH 1 7
ATOM      7  C   GLU E  57       7.288  -7.850   0.713  1.00 41.20 LIG 0.24  C 
ATOM      8  N   GLU E  58       6.937  -7.845   1.975  1.00 46.60 LIG-0.35  N 
ATOM      9 H    GLU E  58       6.449  -7.222   2.312  1.00 46.60 LIG 0.16  HD
ATOM     10 O    GLU E  57       7.998  -8.727   0.228  1.00 39.74 LIG-0.27  OA
BRANCH 8 11
ATOM     11  CA  GLU E  58       7.308  -8.852   2.948  1.00 48.53 LIG 0.18  C 
BRANCH 11 12
ATOM     12  CB  GLU E  58       6.946  -8.314   4.352  1.00 56.76 LIG 0.04  C 
BRANCH 12 13
ATOM     13  CG  GLU E  58       8.095  -7.928   5.369  1.00 68.50 LIG 0.12  C 
BRANCH 13 14
ATOM     14  CD  GLU E  58       8.595  -9.016   6.381  1.00 69.79 LIG 0.17  C 
ATOM     15 OE2  GLU E  58       9.650  -9.642   6.115  1.00 69.71 LIG-0.65  OA
ATOM     16 OE1  GLU E  58       7.948  -9.277   7.423  1.00 71.02 LIG-0.65  OA
ENDBRANCH 13 14
ENDBRANCH 12 13
ENDBRANCH 11 12
BRANCH 11 17
ATOM     17  C   GLU E  58       6.677 -10.197   2.616  1.00 48.41 LIG 0.24  C 
ATOM     18  N   ILE E  59       5.644 -10.505   3.382  1.00 45.67 LIG-0.34  N 
ATOM     19 H    ILE E  59       5.346 -10.004   4.015  1.00 45.67 LIG 0.16  HD
ATOM     20 O    GLU E  58       7.176 -10.964   1.774  1.00 49.96 LIG-0.27  OA
BRANCH 18 21
ATOM     21  CA  ILE E  59       4.918 -11.745   3.209  1.00 48.61 LIG 0.19  C 
BRANCH 21 22
ATOM     22  C   ILE E  59       3.523 -11.625   3.840  1.00 51.92 LIG 0.20  C 
ATOM     23 OXT  ILE E  59       2.706 -10.775   3.392  1.00 54.21 LIG-0.65  OA
ATOM     24 O    ILE E  59       3.277 -12.389   4.805  1.00 54.03 LIG-0.65  OA
ENDBRANCH 21 22
BRANCH 21 25
ATOM     25  CB  ILE E  59       5.742 -12.949   3.779  1.00 45.36 LIG 0.01  C 
ATOM     26  CG2 ILE E  59       6.335 -13.747   2.619  1.00 47.34 LIG 0.01  C 
BRANCH 25 27
ATOM     27  CG1 ILE E  59       6.882 -12.482   4.672  1.00 43.95 LIG 0.00  C 
ATOM     28  CD1 ILE E  59       7.737 -13.615   5.167  1.00 41.62 LIG 0.01  C 
ENDBRANCH 25 27
ENDBRANCH 21 25
ENDBRANCH 18 21
ENDBRANCH 11 17
ENDBRANCH 8 11
ENDBRANCH 1 7
BRANCH 1 29
ATOM     29  N   GLU E  57       7.921  -5.921  -0.495  1.00 40.65 LIG-0.35  N 
ATOM     30  C   PHE E  56       8.336  -4.819   0.117  1.00 43.72 LIG 0.24  C 
ATOM     31 O    PHE E  56       7.730  -4.256   1.047  1.00 43.94 LIG-0.27  OA
ATOM     32 H    GLU E  57       8.321  -6.262  -1.175  1.00 40.65 LIG 0.16  HD
BRANCH 30 33
ATOM     33  CA  PHE E  56       9.607  -4.212  -0.475  1.00 42.97 LIG 0.18  C 
BRANCH 33 34
ATOM     34  N   PHE E  56       9.877  -4.661  -1.834  1.00 46.55 LIG-0.35  N 
ATOM     35 H    PHE E  56      10.574  -5.160  -1.904  1.00 46.55 LIG 0.16  HD
ATOM     36  C   ASP E  55       9.110  -4.323  -2.864  1.00 50.93 LIG 0.25  C 
ATOM     37 O    ASP E  55       8.141  -3.570  -2.773  1.00 52.54 LIG-0.27  OA
BRANCH 36 38
ATOM     38  CA  ASP E  55       9.560  -4.902  -4.212  1.00 54.04 LIG 0.28  C 
BRANCH 38 39
ATOM     39  CB  ASP E  55       8.470  -5.803  -4.838  1.00 59.52 LIG 0.15  C 
BRANCH 39 40
ATOM     40  CG  ASP E  55       8.592  -7.298  -4.469  1.00 62.29 LIG 0.17  C 
ATOM     41 OD2  ASP E  55       8.894  -7.560  -3.289  1.00 64.60 LIG-0.65  OA
ATOM     42 OD1  ASP E  55       8.417  -8.210  -5.311  1.00 62.89 LIG-0.65  OA
ENDBRANCH 39 40
ENDBRANCH 38 39
BRANCH 38 43
ATOM     43  N   ASP E  55      10.788  -5.733  -3.952  1.00 53.57 LIG-0.07  N 
ATOM     44 H3   ASP E  55      10.574  -6.426  -3.435  1.00 53.57 LIG 0.28  HD
ATOM     45 H2   ASP E  55      11.402  -5.235  -3.542  1.00 53.57 LIG 0.28  HD
ATOM     46 H1   ASP E  55      11.115  -6.030  -4.724  1.00 53.57 LIG 0.28  HD
ENDBRANCH 38 43
ENDBRANCH 36 38
ENDBRANCH 33 34
BRANCH 33 47
ATOM     47  CB  PHE E  56       9.534  -2.672  -0.435  1.00 40.20 LIG 0.07  C 
BRANCH 47 48
ATOM     48  CG  PHE E  56      10.873  -1.987  -0.637  1.00 37.86 LIG-0.06  A 
ATOM     49  CD1 PHE E  56      11.104  -1.157  -1.740  1.00 37.96 LIG 0.01  A 
ATOM     50  CE1 PHE E  56      12.338  -0.514  -1.939  1.00 36.63 LIG 0.00  A 
ATOM     51  CZ  PHE E  56      13.359  -0.714  -1.022  1.00 33.67 LIG 0.00  A 
ATOM     52  CE2 PHE E  56      13.144  -1.542   0.085  1.00 33.57 LIG 0.00  A 
ATOM     53  CD2 PHE E  56      11.905  -2.169   0.273  1.00 33.78 LIG 0.01  A 
ENDBRANCH 47 48
ENDBRANCH 33 47
ENDBRANCH 30 33
ENDBRANCH 1 29
TORSDOF 22
ENDMDL
MODEL 17
USER: ADFR SOLUTION from run 70
USER: SCORE 16.733028 LL:  -4.261 LR: -14.426 RR:   0.000 FEB:  -7.864
USER: RMSD 8.452088
USER: SEED 69
USER: STATUS no improvement in best 3 clusters for 5 generations
USER: GENES 24
USER: genes 0 Translation |==|  0.49991 0.41108 0.70924
USER: genes 1 Rotation |==|  0.45260 0.75687 0.20494 0.80775
USER: genes 2 Torsion [C]-CA--CB-[CG] |==|  0.27511
USER: genes 3 Torsion [CA]-CB--CG-[CD] |==|  0.77165
USER: genes 4 Torsion [CB]-CG--CD-[OE1] |==|  0.65028
USER: genes 5 Torsion [N]-CA--C-[N] |==|  0.36567
USER: genes 6 Torsion [C]-N--CA-[CB] |==|  0.37882
USER: genes 7 Torsion [N]-CA--CB-[CG] |==|  0.87672
USER: genes 8 Torsion [CA]-CB--CG-[CD] |==|  0.44228
USER: genes 9 Torsion [CB]-CG--CD-[OE1] |==|  0.43634
USER: genes 10 Torsion [N]-CA--C-[N] |==|  0.18996
USER: genes 11 Torsion [C]-N--CA-[C] |==|  0.57808
USER: genes 12 Torsion [N]-CA--C-[OXT] |==|  0.42196
USER: genes 13 Torsion [N]-CA--CB-[CG2] |==|  0.32265
USER: genes 14 Torsion [CA]-CB--CG1-[CD1] |==|  0.55324
USER: genes 15 Torsion [CB]-CA--N-[C] |==|  0.87222
USER: genes 16 Torsion [N]-C--CA-[N] |==|  0.41670
USER: genes 17 Torsion [C]-CA--N-[C] |==|  0.64184
USER: genes 18 Torsion [N]-C--CA-[N] |==|  0.19460
USER: genes 19 Torsion [C]-CA--CB-[CG] |==|  0.65688
USER: genes 20 Torsion [CA]-CB--CG-[OD1] |==|  0.67307
USER: genes 21 Torsion [C]-CA--N-[H3] |==|  0.20576
USER: genes 22 Torsion [C]-CA--CB-[CG] |==|  0.30557
USER: genes 23 Torsion [CA]-CB--CG-[CD1] |==|  0.33835
ROOT
ATOM      1  CA  GLU E  57       7.947  -9.317   5.467  1.00 37.57 LIG 0.18  C 
ENDROOT
BRANCH 1 2
ATOM      2  CB  GLU E  57       8.948  -8.186   5.357  1.00 31.17 LIG 0.04  C 
BRANCH 2 3
ATOM      3  CG  GLU E  57       8.331  -6.832   5.195  1.00 31.87 LIG 0.12  C 
BRANCH 3 4
ATOM      4  CD  GLU E  57       7.946  -6.545   3.770  1.00 37.45 LIG 0.17  C 
ATOM      5 OE1  GLU E  57       8.371  -5.510   3.227  1.00 40.31 LIG-0.65  OA
ATOM      6 OE2  GLU E  57       7.200  -7.351   3.183  1.00 37.89 LIG-0.65  OA
ENDBRANCH 3 4
ENDBRANCH 2 3
ENDBRANCH 1 2
BRANCH 1 7
ATOM      7  C   GLU E  57       7.776 -10.031   4.126  1.00 41.20 LIG 0.24  C 
ATOM      8  N   GLU E  58       6.618  -9.813   3.556  1.00 46.60 LIG-0.35  N 
ATOM      9 H    GLU E  58       6.019  -9.310   3.914  1.00 46.60 LIG 0.16  HD
ATOM     10 O    GLU E  57       8.630 -10.761   3.630  1.00 39.74 LIG-0.27  OA
BRANCH 8 11
ATOM     11  CA  GLU E  58       6.195 -10.368   2.286  1.00 48.53 LIG 0.18  C 
BRANCH 11 12
ATOM     12  CB  GLU E  58       4.734 -10.851   2.440  1.00 56.76 LIG 0.04  C 
BRANCH 12 13
ATOM     13  CG  GLU E  58       4.304 -11.665   3.726  1.00 68.50 LIG 0.12  C 
BRANCH 13 14
ATOM     14  CD  GLU E  58       2.784 -11.715   4.106  1.00 69.79 LIG 0.17  C 
ATOM     15 OE2  GLU E  58       2.035 -10.791   3.705  1.00 69.71 LIG-0.65  OA
ATOM     16 OE1  GLU E  58       2.323 -12.642   4.815  1.00 71.02 LIG-0.65  OA
ENDBRANCH 13 14
ENDBRANCH 12 13
ENDBRANCH 11 12
BRANCH 11 17
ATOM     17  C   GLU E  58       6.405  -9.373   1.153  1.00 48.41 LIG 0.24  C 
ATOM     18  N   ILE E  59       7.678  -9.135   0.881  1.00 45.67 LIG-0.34  N 
ATOM     19 H    ILE E  59       8.336  -9.500   1.297  1.00 45.67 LIG 0.16  HD
ATOM     20 O    GLU E  58       5.453  -8.769   0.628  1.00 49.96 LIG-0.27  OA
BRANCH 18 21
ATOM     21  CA  ILE E  59       8.067  -8.218  -0.169  1.00 48.61 LIG 0.19  C 
BRANCH 21 22
ATOM     22  C   ILE E  59       9.433  -8.626  -0.737  1.00 51.92 LIG 0.20  C 
ATOM     23 OXT  ILE E  59       9.722  -8.348  -1.933  1.00 54.21 LIG-0.65  OA
ATOM     24 O    ILE E  59      10.200  -9.248   0.039  1.00 54.03 LIG-0.65  OA
ENDBRANCH 21 22
BRANCH 21 25
ATOM     25  CB  ILE E  59       8.042  -6.741   0.355  1.00 45.36 LIG 0.01  C 
ATOM     26  CG2 ILE E  59       9.459  -6.170   0.315  1.00 47.34 LIG 0.01  C 
BRANCH 25 27
ATOM     27  CG1 ILE E  59       7.144  -5.855  -0.495  1.00 43.95 LIG 0.00  C 
ATOM     28  CD1 ILE E  59       7.440  -4.391  -0.325  1.00 41.62 LIG 0.01  C 
ENDBRANCH 25 27
ENDBRANCH 21 25
ENDBRANCH 18 21
ENDBRANCH 11 17
ENDBRANCH 8 11
ENDBRANCH 1 7
BRANCH 1 29
ATOM     29  N   GLU E  57       8.440 -10.320   6.375  1.00 40.65 LIG-0.35  N 
ATOM     30  C   PHE E  56       9.684 -10.780   6.338  1.00 43.72 LIG 0.24  C 
ATOM     31 O    PHE E  56      10.527 -10.470   5.477  1.00 43.94 LIG-0.27  OA
ATOM     32 H    GLU E  57       7.853 -10.592   6.942  1.00 40.65 LIG 0.16  HD
BRANCH 30 33
ATOM     33  CA  PHE E  56      10.000 -11.825   7.408  1.00 42.97 LIG 0.18  C 
BRANCH 33 34
ATOM     34  N   PHE E  56      11.011 -12.786   6.989  1.00 46.55 LIG-0.35  N 
ATOM     35 H    PHE E  56      11.727 -12.426   6.677  1.00 46.55 LIG 0.16  HD
ATOM     36  C   ASP E  55      10.833 -14.098   7.086  1.00 50.93 LIG 0.25  C 
ATOM     37 O    ASP E  55       9.791 -14.616   7.489  1.00 52.54 LIG-0.27  OA
BRANCH 36 38
ATOM     38  CA  ASP E  55      12.018 -14.942   6.597  1.00 54.04 LIG 0.28  C 
BRANCH 38 39
ATOM     39  CB  ASP E  55      11.657 -16.444   6.525  1.00 59.52 LIG 0.15  C 
BRANCH 39 40
ATOM     40  CG  ASP E  55      12.586 -17.360   7.353  1.00 62.29 LIG 0.17  C 
ATOM     41 OD2  ASP E  55      12.616 -17.163   8.582  1.00 64.60 LIG-0.65  OA
ATOM     42 OD1  ASP E  55      13.292 -18.250   6.821  1.00 62.89 LIG-0.65  OA
ENDBRANCH 39 40
ENDBRANCH 38 39
BRANCH 38 43
ATOM     43  N   ASP E  55      13.135 -14.756   7.588  1.00 53.57 LIG-0.07  N 
ATOM     44 H3   ASP E  55      12.950 -15.208   8.333  1.00 53.57 LIG 0.28  HD
ATOM     45 H2   ASP E  55      13.221 -13.891   7.780  1.00 53.57 LIG 0.28  HD
ATOM     46 H1   ASP E  55      13.896 -15.059   7.239  1.00 53.57 LIG 0.28  HD
ENDBRANCH 38 43
ENDBRANCH 36 38
ENDBRANCH 33 34
BRANCH 33 47
ATOM     47  CB  PHE E  56      10.439 -11.136   8.716  1.00 40.20 LIG 0.07  C 
BRANCH 47 48
ATOM     48  CG  PHE E  56       9.429 -11.252   9.842  1.00 37.86 LIG-0.06  A 
ATOM     49  CD1 PHE E  56       9.771 -11.842  11.065  1.00 37.96 LIG 0.01  A 
ATOM     50  CE1 PHE E  56       8.847 -11.955  12.118  1.00 36.63 LIG 0.00  A 
ATOM     51  CZ  PHE E  56       7.558 -11.477  11.939  1.00 33.67 LIG 0.00  A 
ATOM     52  CE2 PHE E  56       7.200 -10.887  10.722  1.00 33.57 LIG 0.00  A 
ATOM     53  CD2 PHE E  56       8.136 -10.775   9.685  1.00 33.78 LIG 0.01  A 
ENDBRANCH 47 48
ENDBRANCH 33 47
ENDBRANCH 30 33
ENDBRANCH 1 29
TORSDOF 22
ENDMDL
MODEL 18
USER: ADFR SOLUTION from run 70
USER: SCORE 16.675598 LL:  -4.452 LR: -14.404 RR:   0.000 FEB:  -7.842
USER: RMSD 8.917350
USER: SEED 69
USER: STATUS no improvement in best 3 clusters for 5 generations
USER: GENES 24
USER: genes 0 Translation |==|  0.49787 0.41908 0.70853
USER: genes 1 Rotation |==|  0.44801 0.70964 0.17178 0.80922
USER: genes 2 Torsion [C]-CA--CB-[CG] |==|  0.29842
USER: genes 3 Torsion [CA]-CB--CG-[CD] |==|  0.77884
USER: genes 4 Torsion [CB]-CG--CD-[OE1] |==|  0.65343
USER: genes 5 Torsion [N]-CA--C-[N] |==|  0.36536
USER: genes 6 Torsion [C]-N--CA-[CB] |==|  0.36651
USER: genes 7 Torsion [N]-CA--CB-[CG] |==|  0.86899
USER: genes 8 Torsion [CA]-CB--CG-[CD] |==|  0.43651
USER: genes 9 Torsion [CB]-CG--CD-[OE1] |==|  0.42678
USER: genes 10 Torsion [N]-CA--C-[N] |==|  0.18797
USER: genes 11 Torsion [C]-N--CA-[C] |==|  0.58330
USER: genes 12 Torsion [N]-CA--C-[OXT] |==|  0.42473
USER: genes 13 Torsion [N]-CA--CB-[CG2] |==|  0.32511
USER: genes 14 Torsion [CA]-CB--CG1-[CD1] |==|  0.55075
USER: genes 15 Torsion [CB]-CA--N-[C] |==|  0.86445
USER: genes 16 Torsion [N]-C--CA-[N] |==|  0.50749
USER: genes 17 Torsion [C]-CA--N-[C] |==|  0.66382
USER: genes 18 Torsion [N]-C--CA-[N] |==|  0.95494
USER: genes 19 Torsion [C]-CA--CB-[CG] |==|  0.66817
USER: genes 20 Torsion [CA]-CB--CG-[OD1] |==|  0.33867
USER: genes 21 Torsion [C]-CA--N-[H3] |==|  0.14234
USER: genes 22 Torsion [C]-CA--CB-[CG] |==|  0.51550
USER: genes 23 Torsion [CA]-CB--CG-[CD1] |==|  0.17780
ROOT
ATOM      1  CA  GLU E  57       7.886  -9.078   5.446  1.00 37.57 LIG 0.18  C 
ENDROOT
BRANCH 1 2
ATOM      2  CB  GLU E  57       8.961  -8.029   5.253  1.00 31.17 LIG 0.04  C 
BRANCH 2 3
ATOM      3  CG  GLU E  57       8.437  -6.658   4.959  1.00 31.87 LIG 0.12  C 
BRANCH 3 4
ATOM      4  CD  GLU E  57       8.032  -6.496   3.520  1.00 37.45 LIG 0.17  C 
ATOM      5 OE1  GLU E  57       8.530  -5.572   2.853  1.00 40.31 LIG-0.65  OA
ATOM      6 OE2  GLU E  57       7.197  -7.290   3.046  1.00 37.89 LIG-0.65  OA
ENDBRANCH 3 4
ENDBRANCH 2 3
ENDBRANCH 1 2
BRANCH 1 7
ATOM      7  C   GLU E  57       7.827 -10.028   4.251  1.00 41.20 LIG 0.24  C 
ATOM      8  N   GLU E  58       6.756  -9.880   3.510  1.00 46.60 LIG-0.35  N 
ATOM      9 H    GLU E  58       6.153  -9.296   3.692  1.00 46.60 LIG 0.16  HD
ATOM     10 O    GLU E  57       8.687 -10.871   4.008  1.00 39.74 LIG-0.27  OA
BRANCH 8 11
ATOM     11  CA  GLU E  58       6.450 -10.652   2.324  1.00 48.53 LIG 0.18  C 
BRANCH 11 12
ATOM     12  CB  GLU E  58       4.985 -11.137   2.436  1.00 56.76 LIG 0.04  C 
BRANCH 12 13
ATOM     13  CG  GLU E  58       4.473 -11.792   3.782  1.00 68.50 LIG 0.12  C 
BRANCH 13 14
ATOM     14  CD  GLU E  58       2.934 -11.775   4.083  1.00 69.79 LIG 0.17  C 
ATOM     15 OE2  GLU E  58       2.237 -10.854   3.593  1.00 69.71 LIG-0.65  OA
ATOM     16 OE1  GLU E  58       2.408 -12.647   4.816  1.00 71.02 LIG-0.65  OA
ENDBRANCH 13 14
ENDBRANCH 12 13
ENDBRANCH 11 12
BRANCH 11 17
ATOM     17  C   GLU E  58       6.747  -9.859   1.059  1.00 48.41 LIG 0.24  C 
ATOM     18  N   ILE E  59       8.035  -9.628   0.864  1.00 45.67 LIG-0.34  N 
ATOM     19 H    ILE E  59       8.657  -9.894   1.394  1.00 45.67 LIG 0.16  HD
ATOM     20 O    GLU E  58       5.837  -9.387   0.354  1.00 49.96 LIG-0.27  OA
BRANCH 18 21
ATOM     21  CA  ILE E  59       8.503  -8.891  -0.290  1.00 48.61 LIG 0.19  C 
BRANCH 21 22
ATOM     22  C   ILE E  59       9.906  -9.376  -0.683  1.00 51.92 LIG 0.20  C 
ATOM     23 OXT  ILE E  59      10.289  -9.277  -1.881  1.00 54.21 LIG-0.65  OA
ATOM     24 O    ILE E  59      10.604  -9.875   0.233  1.00 54.03 LIG-0.65  OA
ENDBRANCH 21 22
BRANCH 21 25
ATOM     25  CB  ILE E  59       8.447  -7.349  -0.017  1.00 45.36 LIG 0.01  C 
ATOM     26  CG2 ILE E  59       9.863  -6.778  -0.068  1.00 47.34 LIG 0.01  C 
BRANCH 25 27
ATOM     27  CG1 ILE E  59       7.600  -6.622  -1.051  1.00 43.95 LIG 0.00  C 
ATOM     28  CD1 ILE E  59       7.869  -5.144  -1.090  1.00 41.62 LIG 0.01  C 
ENDBRANCH 25 27
ENDBRANCH 21 25
ENDBRANCH 18 21
ENDBRANCH 11 17
ENDBRANCH 8 11
ENDBRANCH 1 7
BRANCH 1 29
ATOM     29  N   GLU E  57       8.207  -9.906   6.579  1.00 40.65 LIG-0.35  N 
ATOM     30  C   PHE E  56       9.401 -10.456   6.756  1.00 43.72 LIG 0.24  C 
ATOM     31 O    PHE E  56      10.336 -10.395   5.937  1.00 43.94 LIG-0.27  OA
ATOM     32 H    GLU E  57       7.554 -10.009   7.128  1.00 40.65 LIG 0.16  HD
BRANCH 30 33
ATOM     33  CA  PHE E  56       9.531 -11.278   8.038  1.00 42.97 LIG 0.18  C 
BRANCH 33 34
ATOM     34  N   PHE E  56      10.868 -11.819   8.239  1.00 46.55 LIG-0.35  N 
ATOM     35 H    PHE E  56      11.484 -11.221   8.280  1.00 46.55 LIG 0.16  HD
ATOM     36  C   ASP E  55      11.103 -13.122   8.348  1.00 50.93 LIG 0.25  C 
ATOM     37 O    ASP E  55      10.229 -13.983   8.241  1.00 52.54 LIG-0.27  OA
BRANCH 36 38
ATOM     38  CA  ASP E  55      12.577 -13.490   8.561  1.00 54.04 LIG 0.28  C 
BRANCH 38 39
ATOM     39  CB  ASP E  55      12.866 -13.854  10.036  1.00 59.52 LIG 0.15  C 
BRANCH 39 40
ATOM     40  CG  ASP E  55      13.907 -12.943  10.723  1.00 62.29 LIG 0.17  C 
ATOM     41 OD2  ASP E  55      15.040 -12.898  10.207  1.00 64.60 LIG-0.65  OA
ATOM     42 OD1  ASP E  55      13.641 -12.290  11.761  1.00 62.89 LIG-0.65  OA
ENDBRANCH 39 40
ENDBRANCH 38 39
BRANCH 38 43
ATOM     43  N   ASP E  55      13.395 -12.282   8.189  1.00 53.57 LIG-0.07  N 
ATOM     44 H3   ASP E  55      13.080 -11.567   8.616  1.00 53.57 LIG 0.28  HD
ATOM     45 H2   ASP E  55      13.345 -12.149   7.310  1.00 53.57 LIG 0.28  HD
ATOM     46 H1   ASP E  55      14.244 -12.415   8.420  1.00 53.57 LIG 0.28  HD
ENDBRANCH 38 43
ENDBRANCH 36 38
ENDBRANCH 33 34
BRANCH 33 47
ATOM     47  CB  PHE E  56       9.116 -10.434   9.260  1.00 40.20 LIG 0.07  C 
BRANCH 47 48
ATOM     48  CG  PHE E  56       9.340 -11.126  10.591  1.00 37.86 LIG-0.06  A 
ATOM     49  CD1 PHE E  56      10.628 -11.462  11.026  1.00 37.96 LIG 0.01  A 
ATOM     50  CE1 PHE E  56      10.851 -12.102  12.258  1.00 36.63 LIG 0.00  A 
ATOM     51  CZ  PHE E  56       9.766 -12.418  13.061  1.00 33.67 LIG 0.00  A 
ATOM     52  CE2 PHE E  56       8.473 -12.090  12.639  1.00 33.57 LIG 0.00  A 
ATOM     53  CD2 PHE E  56       8.268 -11.445  11.412  1.00 33.78 LIG 0.01  A 
ENDBRANCH 47 48
ENDBRANCH 33 47
ENDBRANCH 30 33
ENDBRANCH 1 29
TORSDOF 22
ENDMDL
MODEL 19
USER: ADFR SOLUTION from run 51
USER: SCORE 16.142688 LL:  -4.143 LR: -14.399 RR:   0.000 FEB:  -7.836
USER: RMSD 12.358144
USER: SEED 50
USER: STATUS no improvement in best 12 clusters for 5 generations
USER: GENES 24
USER: genes 0 Translation |==|  0.56976 0.31080 0.81498
USER: genes 1 Rotation |==|  0.52937 0.78269 0.38519 0.89502
USER: genes 2 Torsion [C]-CA--CB-[CG] |==|  0.36079
USER: genes 3 Torsion [CA]-CB--CG-[CD] |==|  0.87087
USER: genes 4 Torsion [CB]-CG--CD-[OE1] |==|  0.92354
USER: genes 5 Torsion [N]-CA--C-[N] |==|  0.28416
USER: genes 6 Torsion [C]-N--CA-[CB] |==|  0.51149
USER: genes 7 Torsion [N]-CA--CB-[CG] |==|  0.17100
USER: genes 8 Torsion [CA]-CB--CG-[CD] |==|  0.58307
USER: genes 9 Torsion [CB]-CG--CD-[OE1] |==|  0.48692
USER: genes 10 Torsion [N]-CA--C-[N] |==|  0.87546
USER: genes 11 Torsion [C]-N--CA-[C] |==|  0.58918
USER: genes 12 Torsion [N]-CA--C-[OXT] |==|  0.40790
USER: genes 13 Torsion [N]-CA--CB-[CG2] |==|  0.74705
USER: genes 14 Torsion [CA]-CB--CG1-[CD1] |==|  0.61055
USER: genes 15 Torsion [CB]-CA--N-[C] |==|  0.84277
USER: genes 16 Torsion [N]-C--CA-[N] |==|  0.45000
USER: genes 17 Torsion [C]-CA--N-[C] |==|  0.50076
USER: genes 18 Torsion [N]-C--CA-[N] |==|  0.82452
USER: genes 19 Torsion [C]-CA--CB-[CG] |==|  0.52962
USER: genes 20 Torsion [CA]-CB--CG-[OD1] |==|  0.49687
USER: genes 21 Torsion [C]-CA--N-[H3] |==|  0.37052
USER: genes 22 Torsion [C]-CA--CB-[CG] |==|  0.83142
USER: genes 23 Torsion [CA]-CB--CG-[CD1] |==|  0.74976
ROOT
ATOM      1  CA  GLU E  57      10.043 -12.326   8.639  1.00 37.57 LIG 0.18  C 
ENDROOT
BRANCH 1 2
ATOM      2  CB  GLU E  57      10.327 -11.134   9.528  1.00 31.17 LIG 0.04  C 
BRANCH 2 3
ATOM      3  CG  GLU E  57       9.217 -10.790  10.471  1.00 31.87 LIG 0.12  C 
BRANCH 3 4
ATOM      4  CD  GLU E  57       7.874 -10.774   9.793  1.00 37.45 LIG 0.17  C 
ATOM      5 OE1  GLU E  57       7.815 -10.515   8.578  1.00 40.31 LIG-0.65  OA
ATOM      6 OE2  GLU E  57       6.861 -11.010  10.478  1.00 37.89 LIG-0.65  OA
ENDBRANCH 3 4
ENDBRANCH 2 3
ENDBRANCH 1 2
BRANCH 1 7
ATOM      7  C   GLU E  57      10.328 -11.998   7.174  1.00 41.20 LIG 0.24  C 
ATOM      8  N   GLU E  58       9.435 -12.473   6.343  1.00 46.60 LIG-0.35  N 
ATOM      9 H    GLU E  58       8.754 -12.925   6.612  1.00 46.60 LIG 0.16  HD
ATOM     10 O    GLU E  57      11.312 -11.366   6.797  1.00 39.74 LIG-0.27  OA
BRANCH 8 11
ATOM     11  CA  GLU E  58       9.465 -12.312   4.904  1.00 48.53 LIG 0.18  C 
BRANCH 11 12
ATOM     12  CB  GLU E  58       8.173 -12.936   4.327  1.00 56.76 LIG 0.04  C 
BRANCH 12 13
ATOM     13  CG  GLU E  58       6.762 -12.353   4.743  1.00 68.50 LIG 0.12  C 
BRANCH 13 14
ATOM     14  CD  GLU E  58       5.532 -13.325   4.773  1.00 69.79 LIG 0.17  C 
ATOM     15 OE2  GLU E  58       5.685 -14.499   4.359  1.00 69.71 LIG-0.65  OA
ATOM     16 OE1  GLU E  58       4.410 -12.936   5.180  1.00 71.02 LIG-0.65  OA
ENDBRANCH 13 14
ENDBRANCH 12 13
ENDBRANCH 11 12
BRANCH 11 17
ATOM     17  C   GLU E  58       9.678 -10.855   4.518  1.00 48.41 LIG 0.24  C 
ATOM     18  N   ILE E  59       8.935 -10.006   5.208  1.00 45.67 LIG-0.34  N 
ATOM     19 H    ILE E  59       8.378 -10.241   5.820  1.00 45.67 LIG 0.16  HD
ATOM     20 O    GLU E  58      10.404 -10.530   3.561  1.00 49.96 LIG-0.27  OA
BRANCH 18 21
ATOM     21  CA  ILE E  59       9.006  -8.579   4.978  1.00 48.61 LIG 0.19  C 
BRANCH 21 22
ATOM     22  C   ILE E  59       8.744  -7.826   6.290  1.00 51.92 LIG 0.20  C 
ATOM     23 OXT  ILE E  59       9.328  -6.730   6.510  1.00 54.21 LIG-0.65  OA
ATOM     24 O    ILE E  59       7.954  -8.370   7.101  1.00 54.03 LIG-0.65  OA
ENDBRANCH 21 22
BRANCH 21 25
ATOM     25  CB  ILE E  59       8.028  -8.157   3.829  1.00 45.36 LIG 0.01  C 
ATOM     26  CG2 ILE E  59       8.770  -8.206   2.495  1.00 47.34 LIG 0.01  C 
BRANCH 25 27
ATOM     27  CG1 ILE E  59       6.825  -9.085   3.742  1.00 43.95 LIG 0.00  C 
ATOM     28  CD1 ILE E  59       6.426  -9.391   2.326  1.00 41.62 LIG 0.01  C 
ENDBRANCH 25 27
ENDBRANCH 21 25
ENDBRANCH 18 21
ENDBRANCH 11 17
ENDBRANCH 8 11
ENDBRANCH 1 7
BRANCH 1 29
ATOM     29  N   GLU E  57      10.933 -13.407   8.971  1.00 40.65 LIG-0.35  N 
ATOM     30  C   PHE E  56      12.255 -13.288   8.950  1.00 43.72 LIG 0.24  C 
ATOM     31 O    PHE E  56      12.867 -12.275   8.565  1.00 43.94 LIG-0.27  OA
ATOM     32 H    GLU E  57      10.529 -14.136   9.183  1.00 40.65 LIG 0.16  HD
BRANCH 30 33
ATOM     33  CA  PHE E  56      13.007 -14.553   9.358  1.00 42.97 LIG 0.18  C 
BRANCH 33 34
ATOM     34  N   PHE E  56      14.402 -14.551   8.941  1.00 46.55 LIG-0.35  N 
ATOM     35 H    PHE E  56      14.639 -13.839   8.520  1.00 46.55 LIG 0.16  HD
ATOM     36  C   ASP E  55      15.227 -15.561   9.195  1.00 50.93 LIG 0.25  C 
ATOM     37 O    ASP E  55      14.877 -16.600   9.756  1.00 52.54 LIG-0.27  OA
BRANCH 36 38
ATOM     38  CA  ASP E  55      16.657 -15.363   8.677  1.00 54.04 LIG 0.28  C 
BRANCH 38 39
ATOM     39  CB  ASP E  55      17.287 -14.061   9.226  1.00 59.52 LIG 0.15  C 
BRANCH 39 40
ATOM     40  CG  ASP E  55      18.618 -13.665   8.550  1.00 62.29 LIG 0.17  C 
ATOM     41 OD2  ASP E  55      19.056 -14.441   7.679  1.00 64.60 LIG-0.65  OA
ATOM     42 OD1  ASP E  55      19.244 -12.625   8.866  1.00 62.89 LIG-0.65  OA
ENDBRANCH 39 40
ENDBRANCH 38 39
BRANCH 38 43
ATOM     43  N   ASP E  55      16.579 -15.271   7.177  1.00 53.57 LIG-0.07  N 
ATOM     44 H3   ASP E  55      17.067 -14.582   6.896  1.00 53.57 LIG 0.28  HD
ATOM     45 H2   ASP E  55      15.731 -15.156   6.931  1.00 53.57 LIG 0.28  HD
ATOM     46 H1   ASP E  55      16.893 -16.023   6.816  1.00 53.57 LIG 0.28  HD
ENDBRANCH 38 43
ENDBRANCH 36 38
ENDBRANCH 33 34
BRANCH 33 47
ATOM     47  CB  PHE E  56      12.915 -14.763  10.883  1.00 40.20 LIG 0.07  C 
BRANCH 47 48
ATOM     48  CG  PHE E  56      13.516 -13.633  11.698  1.00 37.86 LIG-0.06  A 
ATOM     49  CD1 PHE E  56      14.864 -13.649  12.077  1.00 37.96 LIG 0.01  A 
ATOM     50  CE1 PHE E  56      15.435 -12.609  12.829  1.00 36.63 LIG 0.00  A 
ATOM     51  CZ  PHE E  56      14.640 -11.540  13.216  1.00 33.67 LIG 0.00  A 
ATOM     52  CE2 PHE E  56      13.291 -11.510  12.847  1.00 33.57 LIG 0.00  A 
ATOM     53  CD2 PHE E  56      12.739 -12.552  12.089  1.00 33.78 LIG 0.01  A 
ENDBRANCH 47 48
ENDBRANCH 33 47
ENDBRANCH 30 33
ENDBRANCH 1 29
TORSDOF 22
ENDMDL
MODEL 20
USER: ADFR SOLUTION from run 144
USER: SCORE 18.457990 LL:  -4.762 LR: -14.350 RR:   0.000 FEB:  -7.787
USER: RMSD 13.802391
USER: SEED 143
USER: STATUS no improvement in best 7 clusters for 5 generations
USER: GENES 24
USER: genes 0 Translation |==|  0.70236 0.88004 0.42661
USER: genes 1 Rotation |==|  0.77633 0.30277 0.38437 0.84839
USER: genes 2 Torsion [C]-CA--CB-[CG] |==|  0.97779
USER: genes 3 Torsion [CA]-CB--CG-[CD] |==|  0.43978
USER: genes 4 Torsion [CB]-CG--CD-[OE1] |==|  0.36506
USER: genes 5 Torsion [N]-CA--C-[N] |==|  0.38321
USER: genes 6 Torsion [C]-N--CA-[CB] |==|  0.75841
USER: genes 7 Torsion [N]-CA--CB-[CG] |==|  0.81862
USER: genes 8 Torsion [CA]-CB--CG-[CD] |==|  0.75954
USER: genes 9 Torsion [CB]-CG--CD-[OE1] |==|  0.66503
USER: genes 10 Torsion [N]-CA--C-[N] |==|  0.21045
USER: genes 11 Torsion [C]-N--CA-[C] |==|  0.69170
USER: genes 12 Torsion [N]-CA--C-[OXT] |==|  0.65872
USER: genes 13 Torsion [N]-CA--CB-[CG2] |==|  0.56562
USER: genes 14 Torsion [CA]-CB--CG1-[CD1] |==|  0.27521
USER: genes 15 Torsion [CB]-CA--N-[C] |==|  0.86667
USER: genes 16 Torsion [N]-C--CA-[N] |==|  0.87550
USER: genes 17 Torsion [C]-CA--N-[C] |==|  0.87669
USER: genes 18 Torsion [N]-C--CA-[N] |==|  0.10824
USER: genes 19 Torsion [C]-CA--CB-[CG] |==|  0.80912
USER: genes 20 Torsion [CA]-CB--CG-[OD1] |==|  0.83398
USER: genes 21 Torsion [C]-CA--N-[H3] |==|  0.33213
USER: genes 22 Torsion [C]-CA--CB-[CG] |==|  0.25402
USER: genes 23 Torsion [CA]-CB--CG-[CD1] |==|  0.65951
ROOT
ATOM      1  CA  GLU E  57      14.021   4.751  -3.012  1.00 37.57 LIG 0.18  C 
ENDROOT
BRANCH 1 2
ATOM      2  CB  GLU E  57      13.150   5.793  -2.341  1.00 31.17 LIG 0.04  C 
BRANCH 2 3
ATOM      3  CG  GLU E  57      13.327   5.879  -0.857  1.00 31.87 LIG 0.12  C 
BRANCH 3 4
ATOM      4  CD  GLU E  57      12.881   7.205  -0.303  1.00 37.45 LIG 0.17  C 
ATOM      5 OE1  GLU E  57      12.130   7.223   0.688  1.00 40.31 LIG-0.65  OA
ATOM      6 OE2  GLU E  57      13.271   8.245  -0.867  1.00 37.89 LIG-0.65  OA
ENDBRANCH 3 4
ENDBRANCH 2 3
ENDBRANCH 1 2
BRANCH 1 7
ATOM      7  C   GLU E  57      15.028   4.160  -2.026  1.00 41.20 LIG 0.24  C 
ATOM      8  N   GLU E  58      16.244   4.626  -2.170  1.00 46.60 LIG-0.35  N 
ATOM      9 H    GLU E  58      16.441   5.211  -2.768  1.00 46.60 LIG 0.16  HD
ATOM     10 O    GLU E  57      14.740   3.312  -1.185  1.00 39.74 LIG-0.27  OA
BRANCH 8 11
ATOM     11  CA  GLU E  58      17.387   4.233  -1.372  1.00 48.53 LIG 0.18  C 
BRANCH 11 12
ATOM     12  CB  GLU E  58      17.420   5.131  -0.113  1.00 56.76 LIG 0.04  C 
BRANCH 12 13
ATOM     13  CG  GLU E  58      17.673   6.686  -0.260  1.00 68.50 LIG 0.12  C 
BRANCH 13 14
ATOM     14  CD  GLU E  58      19.152   7.203  -0.297  1.00 69.79 LIG 0.17  C 
ATOM     15 OE2  GLU E  58      19.918   6.765  -1.189  1.00 69.71 LIG-0.65  OA
ATOM     16 OE1  GLU E  58      19.575   8.018   0.558  1.00 71.02 LIG-0.65  OA
ENDBRANCH 13 14
ENDBRANCH 12 13
ENDBRANCH 11 12
BRANCH 11 17
ATOM     17  C   GLU E  58      17.362   2.741  -1.070  1.00 48.41 LIG 0.24  C 
ATOM     18  N   ILE E  59      17.711   1.984  -2.097  1.00 45.67 LIG-0.34  N 
ATOM     19 H    ILE E  59      17.933   2.291  -2.869  1.00 45.67 LIG 0.16  HD
ATOM     20 O    GLU E  58      16.938   2.300   0.013  1.00 49.96 LIG-0.27  OA
BRANCH 18 21
ATOM     21  CA  ILE E  59      17.747   0.541  -1.993  1.00 48.61 LIG 0.19  C 
BRANCH 21 22
ATOM     22  C   ILE E  59      19.201   0.051  -2.055  1.00 51.92 LIG 0.20  C 
ATOM     23 OXT  ILE E  59      19.544  -0.778  -2.941  1.00 54.21 LIG-0.65  OA
ATOM     24 O    ILE E  59      19.983   0.502  -1.182  1.00 54.03 LIG-0.65  OA
ENDBRANCH 21 22
BRANCH 21 25
ATOM     25  CB  ILE E  59      16.838  -0.112  -3.088  1.00 45.36 LIG 0.01  C 
ATOM     26  CG2 ILE E  59      16.420  -1.508  -2.628  1.00 47.34 LIG 0.01  C 
BRANCH 25 27
ATOM     27  CG1 ILE E  59      15.580   0.706  -3.341  1.00 43.95 LIG 0.00  C 
ATOM     28  CD1 ILE E  59      15.689   1.584  -4.555  1.00 41.62 LIG 0.01  C 
ENDBRANCH 25 27
ENDBRANCH 21 25
ENDBRANCH 18 21
ENDBRANCH 11 17
ENDBRANCH 8 11
ENDBRANCH 1 7
BRANCH 1 29
ATOM     29  N   GLU E  57      13.211   3.642  -3.444  1.00 40.65 LIG-0.35  N 
ATOM     30  C   PHE E  56      12.317   3.052  -2.662  1.00 43.72 LIG 0.24  C 
ATOM     31 O    PHE E  56      12.139   3.325  -1.461  1.00 43.94 LIG-0.27  OA
ATOM     32 H    GLU E  57      13.362   3.399  -4.255  1.00 40.65 LIG 0.16  HD
BRANCH 30 33
ATOM     33  CA  PHE E  56      11.553   1.910  -3.331  1.00 42.97 LIG 0.18  C 
BRANCH 33 34
ATOM     34  N   PHE E  56      11.097   2.235  -4.675  1.00 46.55 LIG-0.35  N 
ATOM     35 H    PHE E  56      11.228   1.609  -5.250  1.00 46.55 LIG 0.16  HD
ATOM     36  C   ASP E  55      10.529   3.398  -4.975  1.00 50.93 LIG 0.25  C 
ATOM     37 O    ASP E  55      10.384   4.314  -4.165  1.00 52.54 LIG-0.27  OA
BRANCH 36 38
ATOM     38  CA  ASP E  55      10.114   3.546  -6.445  1.00 54.04 LIG 0.28  C 
BRANCH 38 39
ATOM     39  CB  ASP E  55       9.016   4.621  -6.621  1.00 59.52 LIG 0.15  C 
BRANCH 39 40
ATOM     40  CG  ASP E  55       7.646   4.235  -6.020  1.00 62.29 LIG 0.17  C 
ATOM     41 OD2  ASP E  55       7.201   4.973  -5.121  1.00 64.60 LIG-0.65  OA
ATOM     42 OD1  ASP E  55       7.013   3.221  -6.399  1.00 62.89 LIG-0.65  OA
ENDBRANCH 39 40
ENDBRANCH 38 39
BRANCH 38 43
ATOM     43  N   ASP E  55       9.567   2.215  -6.888  1.00 53.57 LIG-0.07  N 
ATOM     44 H3   ASP E  55       8.720   2.312  -7.143  1.00 53.57 LIG 0.28  HD
ATOM     45 H2   ASP E  55       9.609   1.637  -6.212  1.00 53.57 LIG 0.28  HD
ATOM     46 H1   ASP E  55      10.049   1.908  -7.571  1.00 53.57 LIG 0.28  HD
ENDBRANCH 38 43
ENDBRANCH 36 38
ENDBRANCH 33 34
BRANCH 33 47
ATOM     47  CB  PHE E  56      12.418   0.633  -3.365  1.00 40.20 LIG 0.07  C 
BRANCH 47 48
ATOM     48  CG  PHE E  56      12.227  -0.273  -2.163  1.00 37.86 LIG-0.06  A 
ATOM     49  CD1 PHE E  56      13.305  -0.631  -1.345  1.00 37.96 LIG 0.01  A 
ATOM     50  CE1 PHE E  56      13.142  -1.468  -0.228  1.00 36.63 LIG 0.00  A 
ATOM     51  CZ  PHE E  56      11.881  -1.960   0.069  1.00 33.67 LIG 0.00  A 
ATOM     52  CE2 PHE E  56      10.793  -1.613  -0.740  1.00 33.57 LIG 0.00  A 
ATOM     53  CD2 PHE E  56      10.971  -0.771  -1.846  1.00 33.78 LIG 0.01  A 
ENDBRANCH 47 48
ENDBRANCH 33 47
ENDBRANCH 30 33
ENDBRANCH 1 29
TORSDOF 22
ENDMDL
