MODEL 1
USER: ADFR SOLUTION from run 151
USER: SCORE 13.630361 LL:  -3.398 LR: -10.391 RR:   0.000 FEB:  -8.004
USER: RMSD 1.121690
USER: SEED 150
USER: STATUS no improvement in best 8 clusters for 5 generations
USER: GENES 10
USER: genes 0 Translation |==|  0.50061 0.52819 0.52206
USER: genes 1 Rotation |==|  0.44373 0.47457 0.53050 0.99523
USER: genes 2 Torsion [O]-C--CA-[N] |==|  0.94521
USER: genes 3 Torsion [N]-C--CA-[N] |==|  0.36160
USER: genes 4 Torsion [C]-CA--N-[C] |==|  0.64473
USER: genes 5 Torsion [C]-CA--CB-[CG] |==|  0.43465
USER: genes 6 Torsion [CA]-CB--CG-[CD1] |==|  0.85194
USER: genes 7 Torsion [N]-CA--C-[O] |==|  0.97255
USER: genes 8 Torsion [N]-CA--C-[N] |==|  0.45355
USER: genes 9 Torsion [N]-CA--C-[O] |==|  0.90119
ROOT
ATOM      1  C   PRO B1002      19.858  21.846  18.832  1.00 33.09 LIG 0.24  C 
ATOM      2 O    PRO B1002      19.848  21.000  17.931  1.00 32.82 LIG-0.27  OA
ATOM      3  N   PRO B1003      20.077  23.143  18.582  1.00 33.61 LIG-0.34  N 
ATOM      4  CA  PRO B1003      20.322  23.598  17.213  1.00 34.05 LIG 0.18  C 
ATOM      5  CB  PRO B1003      20.318  25.117  17.355  1.00 34.65 LIG 0.04  C 
ATOM      6  CG  PRO B1003      20.877  25.319  18.725  1.00 34.15 LIG 0.02  C 
ATOM      7  CD  PRO B1003      20.143  24.268  19.531  1.00 34.31 LIG 0.13  C 
ENDROOT
BRANCH 1 8
ATOM      8  CA  PRO B1002      19.613  21.444  20.281  1.00 32.09 LIG 0.18  C 
ATOM      9  N   PRO B1002      18.942  20.145  20.300  1.00 31.87 LIG-0.34  N 
ATOM     10  C   PHE B1001      17.626  20.075  20.054  1.00 31.39 LIG 0.24  C 
ATOM     11  CD  PRO B1002      19.868  19.085  20.738  1.00 31.65 LIG 0.13  C 
ATOM     12 O    PHE B1001      16.948  21.080  19.821  1.00 31.36 LIG-0.27  OA
ATOM     13  CG  PRO B1002      21.224  19.767  20.621  1.00 31.59 LIG 0.02  C 
ATOM     14  CB  PRO B1002      20.911  21.169  21.036  1.00 32.35 LIG 0.04  C 
BRANCH 10 15
ATOM     15  CA  PHE B1001      16.989  18.695  20.078  1.00 30.70 LIG 0.18  C 
BRANCH 15 16
ATOM     16  N   PHE B1001      15.792  18.683  20.916  1.00 31.26 LIG-0.35  N 
ATOM     17  C   ACE B1000      15.620  17.787  21.885  1.00 32.54 LIG 0.21  C 
ATOM     18  CH3 ACE B1000      14.177  17.699  22.385  1.00 32.86 LIG 0.12  C 
ATOM     19 O    ACE B1000      16.424  16.875  22.113  1.00 32.71 LIG-0.27  OA
ATOM     20 H    PHE B1001      15.222  19.297  20.726  1.00 31.26 LIG 0.16  HD
ENDBRANCH 15 16
BRANCH 15 21
ATOM     21  CB  PHE B1001      16.659  18.316  18.630  1.00 29.45 LIG 0.07  C 
BRANCH 21 22
ATOM     22  CG  PHE B1001      16.553  16.843  18.390  1.00 29.10 LIG-0.06  A 
ATOM     23  CD2 PHE B1001      15.416  16.306  17.796  1.00 29.14 LIG 0.01  A 
ATOM     24  CE2 PHE B1001      15.311  14.937  17.576  1.00 28.22 LIG 0.00  A 
ATOM     25  CZ  PHE B1001      16.345  14.096  17.951  1.00 28.72 LIG 0.00  A 
ATOM     26  CE1 PHE B1001      17.486  14.624  18.544  1.00 29.15 LIG 0.00  A 
ATOM     27  CD1 PHE B1001      17.585  15.991  18.760  1.00 28.88 LIG 0.01  A 
ENDBRANCH 21 22
ENDBRANCH 15 21
ENDBRANCH 10 15
ENDBRANCH 1 8
BRANCH 4 28
ATOM     28  C   PRO B1003      21.649  23.065  16.674  1.00 33.85 LIG 0.24  C 
ATOM     29 O    PRO B1003      22.450  22.501  17.420  1.00 33.94 LIG-0.27  OA
ATOM     30  N   PRO B1004      21.888  23.220  15.363  1.00 34.14 LIG-0.34  N 
ATOM     31  CA  PRO B1004      23.138  22.743  14.769  1.00 34.66 LIG 0.18  C 
ATOM     32  CD  PRO B1004      20.989  23.765  14.330  1.00 34.36 LIG 0.13  C 
ATOM     33  CB  PRO B1004      22.876  22.875  13.269  1.00 34.44 LIG 0.04  C 
ATOM     34  CG  PRO B1004      21.942  24.039  13.193  1.00 34.41 LIG 0.02  C 
BRANCH 31 35
ATOM     35  C   PRO B1004      24.324  23.584  15.247  1.00 35.04 LIG 0.24  C 
ATOM     36  N   PRO B1005      25.553  23.076  15.075  1.00 35.67 LIG-0.34  N 
ATOM     37  CD  PRO B1005      25.871  21.750  14.519  1.00 35.53 LIG 0.13  C 
ATOM     38  CA  PRO B1005      26.781  23.767  15.485  1.00 36.27 LIG 0.17  C 
ATOM     39  CG  PRO B1005      27.254  21.501  15.066  1.00 36.24 LIG 0.02  C 
ATOM     40  CB  PRO B1005      27.882  22.845  14.970  1.00 36.11 LIG 0.04  C 
ATOM     41 O    PRO B1004      24.141  24.680  15.780  1.00 35.22 LIG-0.27  OA
BRANCH 38 42
ATOM     42  C   PRO B1005      26.896  25.179  14.913  1.00 36.62 LIG 0.22  C 
ATOM     43 O    PRO B1005      26.455  25.380  13.761  1.00 36.45 LIG-0.29  OA
ENDBRANCH 38 42
ENDBRANCH 31 35
ENDBRANCH 4 28
TORSDOF 8
ENDMDL
MODEL 2
USER: ADFR SOLUTION from run 4
USER: SCORE 12.755225 LL:  -2.581 LR: -10.377 RR:   0.000 FEB:  -7.990
USER: RMSD 16.384211
USER: SEED 100309
USER: STATUS no improvement in best 17 clusters for 5 generations
USER: GENES 10
USER: genes 0 Translation |==|  0.80011 0.18226 0.77730
USER: genes 1 Rotation |==|  0.75228 0.72723 0.81902 0.68151
USER: genes 2 Torsion [O]-C--CA-[N] |==|  0.92062
USER: genes 3 Torsion [N]-C--CA-[N] |==|  0.32945
USER: genes 4 Torsion [C]-CA--N-[C] |==|  0.68619
USER: genes 5 Torsion [C]-CA--CB-[CG] |==|  0.44465
USER: genes 6 Torsion [CA]-CB--CG-[CD1] |==|  0.96503
USER: genes 7 Torsion [N]-CA--C-[O] |==|  0.42675
USER: genes 8 Torsion [N]-CA--C-[N] |==|  0.35724
USER: genes 9 Torsion [N]-CA--C-[O] |==|  0.27336
ROOT
ATOM      1  C   PRO B1002      28.843  11.468  26.489  1.00 33.09 LIG 0.24  C 
ATOM      2 O    PRO B1002      27.864  11.255  25.767  1.00 32.82 LIG-0.27  OA
ATOM      3  N   PRO B1003      28.768  11.392  27.824  1.00 33.61 LIG-0.34  N 
ATOM      4  CA  PRO B1003      27.499  11.057  28.471  1.00 34.05 LIG 0.18  C 
ATOM      5  CB  PRO B1003      27.900  10.885  29.933  1.00 34.65 LIG 0.04  C 
ATOM      6  CG  PRO B1003      29.016  11.866  30.084  1.00 34.15 LIG 0.02  C 
ATOM      7  CD  PRO B1003      29.822  11.632  28.824  1.00 34.31 LIG 0.13  C 
ENDROOT
BRANCH 1 8
ATOM      8  CA  PRO B1002      30.196  11.824  25.884  1.00 32.09 LIG 0.18  C 
ATOM      9  N   PRO B1002      30.290  11.217  24.558  1.00 31.87 LIG-0.34  N 
ATOM     10  C   PHE B1001      30.579   9.912  24.444  1.00 31.39 LIG 0.24  C 
ATOM     11  CD  PRO B1002      30.166  12.240  23.504  1.00 31.65 LIG 0.13  C 
ATOM     12 O    PHE B1001      30.783   9.198  25.430  1.00 31.36 LIG-0.27  OA
ATOM     13  CG  PRO B1002      29.622  13.436  24.273  1.00 31.59 LIG 0.02  C 
ATOM     14  CB  PRO B1002      30.325  13.315  25.586  1.00 32.35 LIG 0.04  C 
BRANCH 10 15
ATOM     15  CA  PHE B1001      30.653   9.338  23.039  1.00 30.70 LIG 0.18  C 
BRANCH 15 16
ATOM     16  N   PHE B1001      31.986   8.815  22.754  1.00 31.26 LIG-0.35  N 
ATOM     17  C   ACE B1000      32.784   9.375  21.847  1.00 32.54 LIG 0.21  C 
ATOM     18  CH3 ACE B1000      33.954   8.483  21.430  1.00 32.86 LIG 0.12  C 
ATOM     19 O    ACE B1000      32.442  10.336  21.148  1.00 32.71 LIG-0.27  OA
ATOM     20 H    PHE B1001      32.202   8.124  23.218  1.00 31.26 LIG 0.16  HD
ENDBRANCH 15 16
BRANCH 15 21
ATOM     21  CB  PHE B1001      29.590   8.238  22.936  1.00 29.45 LIG 0.07  C 
BRANCH 21 22
ATOM     22  CG  PHE B1001      29.198   7.893  21.534  1.00 29.10 LIG-0.06  A 
ATOM     23  CD2 PHE B1001      28.454   6.747  21.272  1.00 29.14 LIG 0.01  A 
ATOM     24  CE2 PHE B1001      28.092   6.418  19.970  1.00 28.22 LIG 0.00  A 
ATOM     25  CZ  PHE B1001      28.475   7.236  18.920  1.00 28.72 LIG 0.00  A 
ATOM     26  CE1 PHE B1001      29.218   8.384  19.172  1.00 29.15 LIG 0.00  A 
ATOM     27  CD1 PHE B1001      29.574   8.706  20.474  1.00 28.88 LIG 0.01  A 
ENDBRANCH 21 22
ENDBRANCH 15 21
ENDBRANCH 10 15
ENDBRANCH 1 8
BRANCH 4 28
ATOM     28  C   PRO B1003      26.461  12.162  28.276  1.00 33.85 LIG 0.24  C 
ATOM     29 O    PRO B1003      25.257  11.904  28.300  1.00 33.94 LIG-0.27  OA
ATOM     30  N   PRO B1004      26.917  13.411  28.102  1.00 34.14 LIG-0.34  N 
ATOM     31  CA  PRO B1004      25.988  14.525  27.902  1.00 34.66 LIG 0.18  C 
ATOM     32  CD  PRO B1004      28.309  13.891  28.163  1.00 34.36 LIG 0.13  C 
ATOM     33  CB  PRO B1004      26.895  15.750  28.017  1.00 34.44 LIG 0.04  C 
ATOM     34  CG  PRO B1004      28.207  15.246  27.508  1.00 34.41 LIG 0.02  C 
BRANCH 31 35
ATOM     35  C   PRO B1004      25.294  14.418  26.543  1.00 35.04 LIG 0.24  C 
ATOM     36  N   PRO B1005      23.956  14.500  26.523  1.00 35.67 LIG-0.34  N 
ATOM     37  CD  PRO B1005      23.078  14.625  27.699  1.00 35.53 LIG 0.13  C 
ATOM     38  CA  PRO B1005      23.156  14.411  25.295  1.00 36.27 LIG 0.17  C 
ATOM     39  CG  PRO B1005      21.761  14.118  27.167  1.00 36.24 LIG 0.02  C 
ATOM     40  CB  PRO B1005      21.738  14.677  25.790  1.00 36.11 LIG 0.04  C 
ATOM     41 O    PRO B1004      25.951  14.250  25.514  1.00 35.22 LIG-0.27  OA
BRANCH 38 42
ATOM     42  C   PRO B1005      23.590  15.409  24.223  1.00 36.62 LIG 0.22  C 
ATOM     43 O    PRO B1005      24.340  14.999  23.311  1.00 36.45 LIG-0.29  OA
ENDBRANCH 38 42
ENDBRANCH 31 35
ENDBRANCH 4 28
TORSDOF 8
ENDMDL
MODEL 3
USER: ADFR SOLUTION from run 141
USER: SCORE 13.074367 LL:  -3.049 LR: -10.030 RR:   0.000 FEB:  -7.643
USER: RMSD 12.671993
USER: SEED 140
USER: STATUS no improvement in best 7 clusters for 5 generations
USER: GENES 10
USER: genes 0 Translation |==|  0.53864 0.35010 0.73374
USER: genes 1 Rotation |==|  0.16349 0.32698 0.23494 0.69124
USER: genes 2 Torsion [O]-C--CA-[N] |==|  0.88718
USER: genes 3 Torsion [N]-C--CA-[N] |==|  0.39987
USER: genes 4 Torsion [C]-CA--N-[C] |==|  0.83098
USER: genes 5 Torsion [C]-CA--CB-[CG] |==|  0.55074
USER: genes 6 Torsion [CA]-CB--CG-[CD1] |==|  0.38349
USER: genes 7 Torsion [N]-CA--C-[O] |==|  0.82921
USER: genes 8 Torsion [N]-CA--C-[N] |==|  0.52660
USER: genes 9 Torsion [N]-CA--C-[O] |==|  0.26507
ROOT
ATOM      1  C   PRO B1002      20.999  16.503  25.182  1.00 33.09 LIG 0.24  C 
ATOM      2 O    PRO B1002      19.954  15.846  25.230  1.00 32.82 LIG-0.27  OA
ATOM      3  N   PRO B1003      22.200  15.935  25.348  1.00 33.61 LIG-0.34  N 
ATOM      4  CA  PRO B1003      22.306  14.497  25.602  1.00 34.05 LIG 0.18  C 
ATOM      5  CB  PRO B1003      23.809  14.250  25.526  1.00 34.65 LIG 0.04  C 
ATOM      6  CG  PRO B1003      24.378  15.530  26.045  1.00 34.15 LIG 0.02  C 
ATOM      7  CD  PRO B1003      23.531  16.567  25.341  1.00 34.31 LIG 0.13  C 
ENDROOT
BRANCH 1 8
ATOM      8  CA  PRO B1002      20.965  18.004  24.924  1.00 32.09 LIG 0.18  C 
ATOM      9  N   PRO B1002      19.960  18.281  23.899  1.00 31.87 LIG-0.34  N 
ATOM     10  C   PHE B1001      20.251  18.062  22.608  1.00 31.39 LIG 0.24  C 
ATOM     11  CD  PRO B1002      18.767  18.912  24.493  1.00 31.65 LIG 0.13  C 
ATOM     12 O    PHE B1001      21.354  17.641  22.248  1.00 31.36 LIG-0.27  OA
ATOM     13  CG  PRO B1002      18.970  18.655  25.980  1.00 31.59 LIG 0.02  C 
ATOM     14  CB  PRO B1002      20.451  18.790  26.127  1.00 32.35 LIG 0.04  C 
BRANCH 10 15
ATOM     15  CA  PHE B1001      19.160  18.359  21.592  1.00 30.70 LIG 0.18  C 
BRANCH 15 16
ATOM     16  N   PHE B1001      19.724  18.902  20.359  1.00 31.26 LIG-0.35  N 
ATOM     17  C   ACE B1000      20.413  20.041  20.341  1.00 32.54 LIG 0.21  C 
ATOM     18  CH3 ACE B1000      20.590  20.625  18.939  1.00 32.86 LIG 0.12  C 
ATOM     19 O    ACE B1000      20.580  20.745  21.344  1.00 32.71 LIG-0.27  OA
ATOM     20 H    PHE B1001      19.572  18.424  19.660  1.00 31.26 LIG 0.16  HD
ENDBRANCH 15 16
BRANCH 15 21
ATOM     21  CB  PHE B1001      18.408  17.049  21.330  1.00 29.45 LIG 0.07  C 
BRANCH 21 22
ATOM     22  CG  PHE B1001      17.603  17.046  20.069  1.00 29.10 LIG-0.06  A 
ATOM     23  CD2 PHE B1001      16.853  18.160  19.709  1.00 29.14 LIG 0.01  A 
ATOM     24  CE2 PHE B1001      16.098  18.161  18.541  1.00 28.22 LIG 0.00  A 
ATOM     25  CZ  PHE B1001      16.090  17.042  17.724  1.00 28.72 LIG 0.00  A 
ATOM     26  CE1 PHE B1001      16.839  15.924  18.074  1.00 29.15 LIG 0.00  A 
ATOM     27  CD1 PHE B1001      17.590  15.932  19.241  1.00 28.88 LIG 0.01  A 
ENDBRANCH 21 22
ENDBRANCH 15 21
ENDBRANCH 10 15
ENDBRANCH 1 8
BRANCH 4 28
ATOM     28  C   PRO B1003      21.720  14.124  26.963  1.00 33.85 LIG 0.24  C 
ATOM     29 O    PRO B1003      22.196  14.586  28.001  1.00 33.94 LIG-0.27  OA
ATOM     30  N   PRO B1004      20.664  13.297  26.973  1.00 34.14 LIG-0.34  N 
ATOM     31  CA  PRO B1004      20.048  12.886  28.236  1.00 34.66 LIG 0.18  C 
ATOM     32  CD  PRO B1004      19.917  12.756  25.823  1.00 34.36 LIG 0.13  C 
ATOM     33  CB  PRO B1004      18.764  12.194  27.780  1.00 34.44 LIG 0.04  C 
ATOM     34  CG  PRO B1004      19.143  11.625  26.451  1.00 34.41 LIG 0.02  C 
BRANCH 31 35
ATOM     35  C   PRO B1004      20.981  11.961  29.021  1.00 35.04 LIG 0.24  C 
ATOM     36  N   PRO B1005      20.478  11.348  30.102  1.00 35.67 LIG-0.34  N 
ATOM     37  CD  PRO B1005      19.121  11.524  30.645  1.00 35.53 LIG 0.13  C 
ATOM     38  CA  PRO B1005      21.255  10.437  30.952  1.00 36.27 LIG 0.17  C 
ATOM     39  CG  PRO B1005      19.293  11.085  32.077  1.00 36.24 LIG 0.02  C 
ATOM     40  CB  PRO B1005      20.216   9.927  31.946  1.00 36.11 LIG 0.04  C 
ATOM     41 O    PRO B1004      22.152  11.806  28.670  1.00 35.22 LIG-0.27  OA
BRANCH 38 42
ATOM     42  C   PRO B1005      21.912   9.300  30.171  1.00 36.62 LIG 0.22  C 
ATOM     43 O    PRO B1005      23.099   9.449  29.809  1.00 36.45 LIG-0.29  OA
ENDBRANCH 38 42
ENDBRANCH 31 35
ENDBRANCH 4 28
TORSDOF 8
ENDMDL
MODEL 4
USER: ADFR SOLUTION from run 80
USER: SCORE 12.927086 LL:  -3.269 LR:  -9.928 RR:   0.000 FEB:  -7.542
USER: RMSD 10.464481
USER: SEED 79
USER: STATUS no improvement in best 22 clusters for 5 generations
USER: GENES 10
USER: genes 0 Translation |==|  0.54752 0.56478 0.48183
USER: genes 1 Rotation |==|  0.65542 0.08688 0.26584 0.51843
USER: genes 2 Torsion [O]-C--CA-[N] |==|  0.03062
USER: genes 3 Torsion [N]-C--CA-[N] |==|  0.32241
USER: genes 4 Torsion [C]-CA--N-[C] |==|  0.61829
USER: genes 5 Torsion [C]-CA--CB-[CG] |==|  0.64611
USER: genes 6 Torsion [CA]-CB--CG-[CD1] |==|  0.73816
USER: genes 7 Torsion [N]-CA--C-[O] |==|  0.99206
USER: genes 8 Torsion [N]-CA--C-[N] |==|  0.45713
USER: genes 9 Torsion [N]-CA--C-[O] |==|  0.85170
ROOT
ATOM      1  C   PRO B1002      21.265  22.943  17.625  1.00 33.09 LIG 0.24  C 
ATOM      2 O    PRO B1002      22.090  22.036  17.774  1.00 32.82 LIG-0.27  OA
ATOM      3  N   PRO B1003      20.349  23.227  18.559  1.00 33.61 LIG-0.34  N 
ATOM      4  CA  PRO B1003      20.296  22.451  19.799  1.00 34.05 LIG 0.18  C 
ATOM      5  CB  PRO B1003      19.275  23.216  20.634  1.00 34.65 LIG 0.04  C 
ATOM      6  CG  PRO B1003      18.339  23.750  19.599  1.00 34.15 LIG 0.02  C 
ATOM      7  CD  PRO B1003      19.290  24.251  18.534  1.00 34.31 LIG 0.13  C 
ENDROOT
BRANCH 1 8
ATOM      8  CA  PRO B1002      21.260  23.791  16.359  1.00 32.09 LIG 0.18  C 
ATOM      9  N   PRO B1002      22.144  23.170  15.375  1.00 31.87 LIG-0.34  N 
ATOM     10  C   PHE B1001      23.471  23.330  15.480  1.00 31.39 LIG 0.24  C 
ATOM     11  CD  PRO B1002      21.363  22.538  14.296  1.00 31.65 LIG 0.13  C 
ATOM     12 O    PHE B1001      23.981  24.001  16.382  1.00 31.36 LIG-0.27  OA
ATOM     13  CG  PRO B1002      19.961  22.498  14.889  1.00 31.59 LIG 0.02  C 
ATOM     14  CB  PRO B1002      19.905  23.779  15.657  1.00 32.35 LIG 0.04  C 
BRANCH 10 15
ATOM     15  CA  PHE B1001      24.337  22.650  14.433  1.00 30.70 LIG 0.18  C 
BRANCH 15 16
ATOM     16  N   PHE B1001      25.063  23.632  13.632  1.00 31.26 LIG-0.35  N 
ATOM     17  C   ACE B1000      25.181  23.517  12.311  1.00 32.54 LIG 0.21  C 
ATOM     18  CH3 ACE B1000      26.268  24.412  11.715  1.00 32.86 LIG 0.12  C 
ATOM     19 O    ACE B1000      24.736  22.553  11.675  1.00 32.71 LIG-0.27  OA
ATOM     20 H    PHE B1001      25.400  24.280  14.087  1.00 31.26 LIG 0.16  HD
ENDBRANCH 15 16
BRANCH 15 21
ATOM     21  CB  PHE B1001      25.300  21.712  15.170  1.00 29.45 LIG 0.07  C 
BRANCH 21 22
ATOM     22  CG  PHE B1001      26.740  21.911  14.817  1.00 29.10 LIG-0.06  A 
ATOM     23  CD2 PHE B1001      27.500  22.875  15.473  1.00 29.14 LIG 0.01  A 
ATOM     24  CE2 PHE B1001      28.837  23.068  15.145  1.00 28.22 LIG 0.00  A 
ATOM     25  CZ  PHE B1001      29.423  22.297  14.155  1.00 28.72 LIG 0.00  A 
ATOM     26  CE1 PHE B1001      28.673  21.331  13.495  1.00 29.15 LIG 0.00  A 
ATOM     27  CD1 PHE B1001      27.339  21.142  13.829  1.00 28.88 LIG 0.01  A 
ENDBRANCH 21 22
ENDBRANCH 15 21
ENDBRANCH 10 15
ENDBRANCH 1 8
BRANCH 4 28
ATOM     28  C   PRO B1003      19.872  21.006  19.537  1.00 33.85 LIG 0.24  C 
ATOM     29 O    PRO B1003      19.573  20.634  18.402  1.00 33.94 LIG-0.27  OA
ATOM     30  N   PRO B1004      19.863  20.168  20.585  1.00 34.14 LIG-0.34  N 
ATOM     31  CA  PRO B1004      19.464  18.769  20.420  1.00 34.66 LIG 0.18  C 
ATOM     32  CD  PRO B1004      20.300  20.431  21.968  1.00 34.36 LIG 0.13  C 
ATOM     33  CB  PRO B1004      19.850  18.144  21.760  1.00 34.44 LIG 0.04  C 
ATOM     34  CG  PRO B1004      19.684  19.278  22.720  1.00 34.41 LIG 0.02  C 
BRANCH 31 35
ATOM     35  C   PRO B1004      17.967  18.662  20.117  1.00 35.04 LIG 0.24  C 
ATOM     36  N   PRO B1005      17.515  17.496  19.633  1.00 35.67 LIG-0.34  N 
ATOM     37  CD  PRO B1005      18.336  16.318  19.307  1.00 35.53 LIG 0.13  C 
ATOM     38  CA  PRO B1005      16.108  17.249  19.295  1.00 36.27 LIG 0.17  C 
ATOM     39  CG  PRO B1005      17.456  15.579  18.330  1.00 36.24 LIG 0.02  C 
ATOM     40  CB  PRO B1005      16.102  15.773  18.913  1.00 36.11 LIG 0.04  C 
ATOM     41 O    PRO B1004      17.219  19.623  20.304  1.00 35.22 LIG-0.27  OA
BRANCH 38 42
ATOM     42  C   PRO B1005      15.152  17.551  20.447  1.00 36.62 LIG 0.22  C 
ATOM     43 O    PRO B1005      15.375  17.007  21.550  1.00 36.45 LIG-0.29  OA
ENDBRANCH 38 42
ENDBRANCH 31 35
ENDBRANCH 4 28
TORSDOF 8
ENDMDL
MODEL 5
USER: ADFR SOLUTION from run 120
USER: SCORE 12.353314 LL:  -2.614 LR:  -9.906 RR:   0.000 FEB:  -7.520
USER: RMSD 14.554736
USER: SEED 119
USER: STATUS no improvement in best 13 clusters for 5 generations
USER: GENES 10
USER: genes 0 Translation |==|  0.78968 0.26043 0.76318
USER: genes 1 Rotation |==|  0.44119 0.46293 0.33417 0.96655
USER: genes 2 Torsion [O]-C--CA-[N] |==|  0.91498
USER: genes 3 Torsion [N]-C--CA-[N] |==|  0.30001
USER: genes 4 Torsion [C]-CA--N-[C] |==|  0.73833
USER: genes 5 Torsion [C]-CA--CB-[CG] |==|  0.59071
USER: genes 6 Torsion [CA]-CB--CG-[CD1] |==|  0.33899
USER: genes 7 Torsion [N]-CA--C-[O] |==|  0.42319
USER: genes 8 Torsion [N]-CA--C-[N] |==|  0.30347
USER: genes 9 Torsion [N]-CA--C-[O] |==|  0.30484
ROOT
ATOM      1  C   PRO B1002      28.530  13.813  26.065  1.00 33.09 LIG 0.24  C 
ATOM      2 O    PRO B1002      28.052  13.191  25.112  1.00 32.82 LIG-0.27  OA
ATOM      3  N   PRO B1003      29.631  14.565  25.939  1.00 33.61 LIG-0.34  N 
ATOM      4  CA  PRO B1003      30.310  14.665  24.646  1.00 34.05 LIG 0.18  C 
ATOM      5  CB  PRO B1003      31.357  15.746  24.896  1.00 34.65 LIG 0.04  C 
ATOM      6  CG  PRO B1003      31.700  15.542  26.335  1.00 34.15 LIG 0.02  C 
ATOM      7  CD  PRO B1003      30.338  15.348  26.967  1.00 34.31 LIG 0.13  C 
ENDROOT
BRANCH 1 8
ATOM      8  CA  PRO B1002      27.877  13.754  27.441  1.00 32.09 LIG 0.18  C 
ATOM      9  N   PRO B1002      26.438  13.568  27.269  1.00 31.87 LIG-0.34  N 
ATOM     10  C   PHE B1001      25.668  14.617  26.944  1.00 31.39 LIG 0.24  C 
ATOM     11  CD  PRO B1002      26.042  12.194  27.629  1.00 31.65 LIG 0.13  C 
ATOM     12 O    PHE B1001      26.133  15.750  26.795  1.00 31.36 LIG-0.27  OA
ATOM     13  CG  PRO B1002      27.379  11.469  27.668  1.00 31.59 LIG 0.02  C 
ATOM     14  CB  PRO B1002      28.290  12.513  28.228  1.00 32.35 LIG 0.04  C 
BRANCH 10 15
ATOM     15  CA  PHE B1001      24.180  14.356  26.769  1.00 30.70 LIG 0.18  C 
BRANCH 15 16
ATOM     16  N   PHE B1001      23.414  14.922  27.876  1.00 31.26 LIG-0.35  N 
ATOM     17  C   ACE B1000      23.076  14.198  28.942  1.00 32.54 LIG 0.21  C 
ATOM     18  CH3 ACE B1000      21.980  14.841  29.793  1.00 32.86 LIG 0.12  C 
ATOM     19 O    ACE B1000      23.337  12.994  29.050  1.00 32.71 LIG-0.27  OA
ATOM     20 H    PHE B1001      23.205  15.750  27.775  1.00 31.26 LIG 0.16  HD
ENDBRANCH 15 16
BRANCH 15 21
ATOM     21  CB  PHE B1001      23.760  14.973  25.430  1.00 29.45 LIG 0.07  C 
BRANCH 21 22
ATOM     22  CG  PHE B1001      22.362  15.504  25.410  1.00 29.10 LIG-0.06  A 
ATOM     23  CD2 PHE B1001      21.287  14.667  25.691  1.00 29.14 LIG 0.01  A 
ATOM     24  CE2 PHE B1001      19.985  15.153  25.669  1.00 28.22 LIG 0.00  A 
ATOM     25  CZ  PHE B1001      19.750  16.483  25.363  1.00 28.72 LIG 0.00  A 
ATOM     26  CE1 PHE B1001      20.818  17.328  25.082  1.00 29.15 LIG 0.00  A 
ATOM     27  CD1 PHE B1001      22.115  16.835  25.107  1.00 28.88 LIG 0.01  A 
ENDBRANCH 21 22
ENDBRANCH 15 21
ENDBRANCH 10 15
ENDBRANCH 1 8
BRANCH 4 28
ATOM     28  C   PRO B1003      30.933  13.331  24.236  1.00 33.85 LIG 0.24  C 
ATOM     29 O    PRO B1003      31.090  13.049  23.048  1.00 33.94 LIG-0.27  OA
ATOM     30  N   PRO B1004      31.316  12.502  25.219  1.00 34.14 LIG-0.34  N 
ATOM     31  CA  PRO B1004      31.916  11.203  24.911  1.00 34.66 LIG 0.18  C 
ATOM     32  CD  PRO B1004      31.300  12.743  26.673  1.00 34.36 LIG 0.13  C 
ATOM     33  CB  PRO B1004      32.428  10.732  26.272  1.00 34.44 LIG 0.04  C 
ATOM     34  CG  PRO B1004      31.458  11.349  27.227  1.00 34.41 LIG 0.02  C 
BRANCH 31 35
ATOM     35  C   PRO B1004      30.880  10.256  24.299  1.00 35.04 LIG 0.24  C 
ATOM     36  N   PRO B1005      31.004   9.961  22.997  1.00 35.67 LIG-0.34  N 
ATOM     37  CD  PRO B1005      32.014  10.511  22.077  1.00 35.53 LIG 0.13  C 
ATOM     38  CA  PRO B1005      30.085   9.072  22.276  1.00 36.27 LIG 0.17  C 
ATOM     39  CG  PRO B1005      31.364  10.304  20.732  1.00 36.24 LIG 0.02  C 
ATOM     40  CB  PRO B1005      30.719   8.974  20.892  1.00 36.11 LIG 0.04  C 
ATOM     41 O    PRO B1004      29.965   9.800  24.986  1.00 35.22 LIG-0.27  OA
BRANCH 38 42
ATOM     42  C   PRO B1005      29.931   7.704  22.938  1.00 36.62 LIG 0.22  C 
ATOM     43 O    PRO B1005      28.840   7.440  23.488  1.00 36.45 LIG-0.29  OA
ENDBRANCH 38 42
ENDBRANCH 31 35
ENDBRANCH 4 28
TORSDOF 8
ENDMDL
MODEL 6
USER: ADFR SOLUTION from run 110
USER: SCORE 12.624530 LL:  -3.272 LR:  -9.832 RR:   0.000 FEB:  -7.445
USER: RMSD 11.474072
USER: SEED 109
USER: STATUS no improvement in best 6 clusters for 5 generations
USER: GENES 10
USER: genes 0 Translation |==|  0.51029 0.43615 0.66249
USER: genes 1 Rotation |==|  0.61304 0.14392 0.22505 0.68665
USER: genes 2 Torsion [O]-C--CA-[N] |==|  0.87029
USER: genes 3 Torsion [N]-C--CA-[N] |==|  0.15985
USER: genes 4 Torsion [C]-CA--N-[C] |==|  0.63888
USER: genes 5 Torsion [C]-CA--CB-[CG] |==|  0.40707
USER: genes 6 Torsion [CA]-CB--CG-[CD1] |==|  0.13546
USER: genes 7 Torsion [N]-CA--C-[O] |==|  0.91197
USER: genes 8 Torsion [N]-CA--C-[N] |==|  0.37155
USER: genes 9 Torsion [N]-CA--C-[O] |==|  0.94274
ROOT
ATOM      1  C   PRO B1002      20.149  19.085  23.045  1.00 33.09 LIG 0.24  C 
ATOM      2 O    PRO B1002      21.042  18.404  22.530  1.00 32.82 LIG-0.27  OA
ATOM      3  N   PRO B1003      20.025  19.202  24.373  1.00 33.61 LIG-0.34  N 
ATOM      4  CA  PRO B1003      20.957  18.509  25.263  1.00 34.05 LIG 0.18  C 
ATOM      5  CB  PRO B1003      20.590  19.065  26.636  1.00 34.65 LIG 0.04  C 
ATOM      6  CG  PRO B1003      19.121  19.304  26.510  1.00 34.15 LIG 0.02  C 
ATOM      7  CD  PRO B1003      19.016  19.949  25.145  1.00 34.31 LIG 0.13  C 
ENDROOT
BRANCH 1 8
ATOM      8  CA  PRO B1002      19.142  19.832  22.179  1.00 32.09 LIG 0.18  C 
ATOM      9  N   PRO B1002      19.864  20.535  21.121  1.00 31.87 LIG-0.34  N 
ATOM     10  C   PHE B1001      20.489  21.689  21.397  1.00 31.39 LIG 0.24  C 
ATOM     11  CD  PRO B1002      19.661  19.871  19.820  1.00 31.65 LIG 0.13  C 
ATOM     12 O    PHE B1001      20.466  22.193  22.523  1.00 31.36 LIG-0.27  OA
ATOM     13  CG  PRO B1002      19.081  18.524  20.229  1.00 31.59 LIG 0.02  C 
ATOM     14  CB  PRO B1002      18.229  18.888  21.402  1.00 32.35 LIG 0.04  C 
BRANCH 10 15
ATOM     15  CA  PHE B1001      21.231  22.365  20.256  1.00 30.70 LIG 0.18  C 
BRANCH 15 16
ATOM     16  N   PHE B1001      20.335  22.640  19.135  1.00 31.26 LIG-0.35  N 
ATOM     17  C   ACE B1000      20.640  22.292  17.887  1.00 32.54 LIG 0.21  C 
ATOM     18  CH3 ACE B1000      19.777  22.986  16.832  1.00 32.86 LIG 0.12  C 
ATOM     19 O    ACE B1000      21.715  21.765  17.577  1.00 32.71 LIG-0.27  OA
ATOM     20 H    PHE B1001      19.606  23.041  19.355  1.00 31.26 LIG 0.16  HD
ENDBRANCH 15 16
BRANCH 15 21
ATOM     21  CB  PHE B1001      21.844  23.658  20.808  1.00 29.45 LIG 0.07  C 
BRANCH 21 22
ATOM     22  CG  PHE B1001      23.154  24.029  20.189  1.00 29.10 LIG-0.06  A 
ATOM     23  CD2 PHE B1001      24.238  24.375  20.989  1.00 29.14 LIG 0.01  A 
ATOM     24  CE2 PHE B1001      25.456  24.727  20.419  1.00 28.22 LIG 0.00  A 
ATOM     25  CZ  PHE B1001      25.596  24.735  19.041  1.00 28.72 LIG 0.00  A 
ATOM     26  CE1 PHE B1001      24.519  24.390  18.233  1.00 29.15 LIG 0.00  A 
ATOM     27  CD1 PHE B1001      23.306  24.038  18.810  1.00 28.88 LIG 0.01  A 
ENDBRANCH 21 22
ENDBRANCH 15 21
ENDBRANCH 10 15
ENDBRANCH 1 8
BRANCH 4 28
ATOM     28  C   PRO B1003      20.788  16.992  25.182  1.00 33.85 LIG 0.24  C 
ATOM     29 O    PRO B1003      19.686  16.495  24.949  1.00 33.94 LIG-0.27  OA
ATOM     30  N   PRO B1004      21.885  16.240  25.352  1.00 34.14 LIG-0.34  N 
ATOM     31  CA  PRO B1004      21.806  14.780  25.295  1.00 34.66 LIG 0.18  C 
ATOM     32  CD  PRO B1004      23.280  16.686  25.522  1.00 34.36 LIG 0.13  C 
ATOM     33  CB  PRO B1004      23.276  14.359  25.269  1.00 34.44 LIG 0.04  C 
ATOM     34  CG  PRO B1004      23.948  15.442  26.050  1.00 34.41 LIG 0.02  C 
BRANCH 31 35
ATOM     35  C   PRO B1004      21.046  14.227  26.503  1.00 35.04 LIG 0.24  C 
ATOM     36  N   PRO B1005      20.111  13.296  26.273  1.00 35.67 LIG-0.34  N 
ATOM     37  CD  PRO B1005      19.699  12.790  24.952  1.00 35.53 LIG 0.13  C 
ATOM     38  CA  PRO B1005      19.302  12.679  27.331  1.00 36.27 LIG 0.17  C 
ATOM     39  CG  PRO B1005      18.322  12.244  25.237  1.00 36.24 LIG 0.02  C 
ATOM     40  CB  PRO B1005      18.496  11.626  26.578  1.00 36.11 LIG 0.04  C 
ATOM     41 O    PRO B1004      21.287  14.642  27.638  1.00 35.22 LIG-0.27  OA
BRANCH 38 42
ATOM     42  C   PRO B1005      20.144  12.069  28.451  1.00 36.62 LIG 0.22  C 
ATOM     43 O    PRO B1005      21.337  11.793  28.202  1.00 36.45 LIG-0.29  OA
ENDBRANCH 38 42
ENDBRANCH 31 35
ENDBRANCH 4 28
TORSDOF 8
ENDMDL
MODEL 7
USER: ADFR SOLUTION from run 69
USER: SCORE 12.841861 LL:  -3.241 LR:  -9.704 RR:   0.000 FEB:  -7.317
USER: RMSD 9.943118
USER: SEED 68
USER: STATUS no improvement in best 11 clusters for 5 generations
USER: GENES 10
USER: genes 0 Translation |==|  0.43593 0.41330 0.60150
USER: genes 1 Rotation |==|  0.42732 0.73005 0.87986 0.71796
USER: genes 2 Torsion [O]-C--CA-[N] |==|  0.79552
USER: genes 3 Torsion [N]-C--CA-[N] |==|  0.37575
USER: genes 4 Torsion [C]-CA--N-[C] |==|  0.86514
USER: genes 5 Torsion [C]-CA--CB-[CG] |==|  0.43047
USER: genes 6 Torsion [CA]-CB--CG-[CD1] |==|  0.94236
USER: genes 7 Torsion [N]-CA--C-[O] |==|  0.80406
USER: genes 8 Torsion [N]-CA--C-[N] |==|  0.28965
USER: genes 9 Torsion [N]-CA--C-[O] |==|  0.84093
ROOT
ATOM      1  C   PRO B1002      17.918  18.399  21.215  1.00 33.09 LIG 0.24  C 
ATOM      2 O    PRO B1002      18.329  17.542  20.426  1.00 32.82 LIG-0.27  OA
ATOM      3  N   PRO B1003      16.684  18.351  21.732  1.00 33.61 LIG-0.34  N 
ATOM      4  CA  PRO B1003      15.773  17.267  21.363  1.00 34.05 LIG 0.18  C 
ATOM      5  CB  PRO B1003      14.592  17.481  22.305  1.00 34.65 LIG 0.04  C 
ATOM      6  CG  PRO B1003      14.568  18.966  22.467  1.00 34.15 LIG 0.02  C 
ATOM      7  CD  PRO B1003      16.033  19.292  22.660  1.00 34.31 LIG 0.13  C 
ENDROOT
BRANCH 1 8
ATOM      8  CA  PRO B1002      18.811  19.558  21.642  1.00 32.09 LIG 0.18  C 
ATOM      9  N   PRO B1002      19.822  19.053  22.568  1.00 31.87 LIG-0.34  N 
ATOM     10  C   PHE B1001      19.496  18.827  23.849  1.00 31.39 LIG 0.24  C 
ATOM     11  CD  PRO B1002      21.144  18.995  21.917  1.00 31.65 LIG 0.13  C 
ATOM     12 O    PHE B1001      18.362  19.044  24.284  1.00 31.36 LIG-0.27  OA
ATOM     13  CG  PRO B1002      20.789  19.141  20.444  1.00 31.59 LIG 0.02  C 
ATOM     14  CB  PRO B1002      19.646  20.104  20.488  1.00 32.35 LIG 0.04  C 
BRANCH 10 15
ATOM     15  CA  PHE B1001      20.590  18.293  24.759  1.00 30.70 LIG 0.18  C 
BRANCH 15 16
ATOM     16  N   PHE B1001      20.600  18.997  26.039  1.00 31.26 LIG-0.35  N 
ATOM     17  C   ACE B1000      20.573  20.326  26.112  1.00 32.54 LIG 0.21  C 
ATOM     18  CH3 ACE B1000      20.965  20.870  27.487  1.00 32.86 LIG 0.12  C 
ATOM     19 O    ACE B1000      20.590  21.058  25.115  1.00 32.71 LIG-0.27  OA
ATOM     20 H    PHE B1001      20.626  18.481  26.726  1.00 31.26 LIG 0.16  HD
ENDBRANCH 15 16
BRANCH 15 21
ATOM     21  CB  PHE B1001      20.335  16.793  24.952  1.00 29.45 LIG 0.07  C 
BRANCH 21 22
ATOM     22  CG  PHE B1001      21.557  16.002  25.295  1.00 29.10 LIG-0.06  A 
ATOM     23  CD2 PHE B1001      21.443  14.761  25.913  1.00 29.14 LIG 0.01  A 
ATOM     24  CE2 PHE B1001      22.576  14.024  26.239  1.00 28.22 LIG 0.00  A 
ATOM     25  CZ  PHE B1001      23.834  14.527  25.949  1.00 28.72 LIG 0.00  A 
ATOM     26  CE1 PHE B1001      23.958  15.766  25.330  1.00 29.15 LIG 0.00  A 
ATOM     27  CD1 PHE B1001      22.822  16.495  25.007  1.00 28.88 LIG 0.01  A 
ENDBRANCH 21 22
ENDBRANCH 15 21
ENDBRANCH 10 15
ENDBRANCH 1 8
BRANCH 4 28
ATOM     28  C   PRO B1003      15.368  17.350  19.891  1.00 33.85 LIG 0.24  C 
ATOM     29 O    PRO B1003      14.621  18.245  19.494  1.00 33.94 LIG-0.27  OA
ATOM     30  N   PRO B1004      15.877  16.429  19.060  1.00 34.14 LIG-0.34  N 
ATOM     31  CA  PRO B1004      15.534  16.435  17.637  1.00 34.66 LIG 0.18  C 
ATOM     32  CD  PRO B1004      16.863  15.375  19.358  1.00 34.36 LIG 0.13  C 
ATOM     33  CB  PRO B1004      16.512  15.421  17.045  1.00 34.44 LIG 0.04  C 
ATOM     34  CG  PRO B1004      16.718  14.458  18.170  1.00 34.41 LIG 0.02  C 
BRANCH 31 35
ATOM     35  C   PRO B1004      14.068  16.048  17.427  1.00 35.04 LIG 0.24  C 
ATOM     36  N   PRO B1005      13.205  17.029  17.131  1.00 35.67 LIG-0.34  N 
ATOM     37  CD  PRO B1005      13.522  18.465  17.045  1.00 35.53 LIG 0.13  C 
ATOM     38  CA  PRO B1005      11.771  16.808  16.907  1.00 36.27 LIG 0.17  C 
ATOM     39  CG  PRO B1005      12.170  19.101  17.250  1.00 36.24 LIG 0.02  C 
ATOM     40  CB  PRO B1005      11.271  18.189  16.495  1.00 36.11 LIG 0.04  C 
ATOM     41 O    PRO B1004      13.707  14.875  17.542  1.00 35.22 LIG-0.27  OA
BRANCH 38 42
ATOM     42  C   PRO B1005      11.486  15.750  15.842  1.00 36.62 LIG 0.22  C 
ATOM     43 O    PRO B1005      11.965  15.925  14.701  1.00 36.45 LIG-0.29  OA
ENDBRANCH 38 42
ENDBRANCH 31 35
ENDBRANCH 4 28
TORSDOF 8
ENDMDL
MODEL 8
USER: ADFR SOLUTION from run 115
USER: SCORE 11.983740 LL:  -2.783 LR:  -9.657 RR:   0.000 FEB:  -7.270
USER: RMSD 15.301694
USER: SEED 114
USER: STATUS no improvement in best 21 clusters for 5 generations
USER: GENES 10
USER: genes 0 Translation |==|  0.44279 0.20968 0.78987
USER: genes 1 Rotation |==|  0.32689 0.73834 0.86849 0.66565
USER: genes 2 Torsion [O]-C--CA-[N] |==|  0.00499
USER: genes 3 Torsion [N]-C--CA-[N] |==|  0.14658
USER: genes 4 Torsion [C]-CA--N-[C] |==|  0.63131
USER: genes 5 Torsion [C]-CA--CB-[CG] |==|  0.55240
USER: genes 6 Torsion [CA]-CB--CG-[CD1] |==|  0.32687
USER: genes 7 Torsion [N]-CA--C-[O] |==|  0.02597
USER: genes 8 Torsion [N]-CA--C-[N] |==|  0.53414
USER: genes 9 Torsion [N]-CA--C-[O] |==|  0.37308
ROOT
ATOM      1  C   PRO B1002      18.124  12.290  26.866  1.00 33.09 LIG 0.24  C 
ATOM      2 O    PRO B1002      18.936  11.474  26.420  1.00 32.82 LIG-0.27  OA
ATOM      3  N   PRO B1003      16.869  11.941  27.177  1.00 33.61 LIG-0.34  N 
ATOM      4  CA  PRO B1003      16.419  10.562  26.986  1.00 34.05 LIG 0.18  C 
ATOM      5  CB  PRO B1003      15.039  10.563  27.636  1.00 34.65 LIG 0.04  C 
ATOM      6  CG  PRO B1003      14.555  11.951  27.374  1.00 34.15 LIG 0.02  C 
ATOM      7  CD  PRO B1003      15.777  12.784  27.695  1.00 34.31 LIG 0.13  C 
ENDROOT
BRANCH 1 8
ATOM      8  CA  PRO B1002      18.521  13.744  27.089  1.00 32.09 LIG 0.18  C 
ATOM      9  N   PRO B1002      19.906  13.923  26.656  1.00 31.87 LIG-0.34  N 
ATOM     10  C   PHE B1001      20.907  13.524  27.453  1.00 31.39 LIG 0.24  C 
ATOM     11  CD  PRO B1002      19.964  14.675  25.389  1.00 31.65 LIG 0.13  C 
ATOM     12 O    PHE B1001      20.702  13.015  28.558  1.00 31.36 LIG-0.27  OA
ATOM     13  CG  PRO B1002      18.522  14.610  24.905  1.00 31.59 LIG 0.02  C 
ATOM     14  CB  PRO B1002      17.753  14.703  26.183  1.00 32.35 LIG 0.04  C 
BRANCH 10 15
ATOM     15  CA  PHE B1001      22.324  13.727  26.941  1.00 30.70 LIG 0.18  C 
BRANCH 15 16
ATOM     16  N   PHE B1001      22.541  15.112  26.532  1.00 31.26 LIG-0.35  N 
ATOM     17  C   ACE B1000      23.117  15.423  25.372  1.00 32.54 LIG 0.21  C 
ATOM     18  CH3 ACE B1000      23.590  16.875  25.295  1.00 32.86 LIG 0.12  C 
ATOM     19 O    ACE B1000      23.555  14.573  24.587  1.00 32.71 LIG-0.27  OA
ATOM     20 H    PHE B1001      22.267  15.696  27.100  1.00 31.26 LIG 0.16  HD
ENDBRANCH 15 16
BRANCH 15 21
ATOM     21  CB  PHE B1001      23.282  13.324  28.068  1.00 29.45 LIG 0.07  C 
BRANCH 21 22
ATOM     22  CG  PHE B1001      24.669  13.864  27.917  1.00 29.10 LIG-0.06  A 
ATOM     23  CD2 PHE B1001      25.452  13.500  26.827  1.00 29.14 LIG 0.01  A 
ATOM     24  CE2 PHE B1001      26.744  13.995  26.685  1.00 28.22 LIG 0.00  A 
ATOM     25  CZ  PHE B1001      27.261  14.859  27.636  1.00 28.72 LIG 0.00  A 
ATOM     26  CE1 PHE B1001      26.484  15.230  28.728  1.00 29.15 LIG 0.00  A 
ATOM     27  CD1 PHE B1001      25.196  14.733  28.863  1.00 28.88 LIG 0.01  A 
ENDBRANCH 21 22
ENDBRANCH 15 21
ENDBRANCH 10 15
ENDBRANCH 1 8
BRANCH 4 28
ATOM     28  C   PRO B1003      16.367  10.189  25.505  1.00 33.85 LIG 0.24  C 
ATOM     29 O    PRO B1003      16.840  10.940  24.651  1.00 33.94 LIG-0.27  OA
ATOM     30  N   PRO B1004      15.810   9.012  25.185  1.00 34.14 LIG-0.34  N 
ATOM     31  CA  PRO B1004      15.715   8.584  23.788  1.00 34.66 LIG 0.18  C 
ATOM     32  CD  PRO B1004      15.308   7.964  26.091  1.00 34.36 LIG 0.13  C 
ATOM     33  CB  PRO B1004      15.279   7.124  23.907  1.00 34.44 LIG 0.04  C 
ATOM     34  CG  PRO B1004      14.472   7.117  25.166  1.00 34.41 LIG 0.02  C 
BRANCH 31 35
ATOM     35  C   PRO B1004      14.713   9.449  23.020  1.00 35.04 LIG 0.24  C 
ATOM     36  N   PRO B1005      14.331   9.024  21.807  1.00 35.67 LIG-0.34  N 
ATOM     37  CD  PRO B1005      14.832   7.827  21.111  1.00 35.53 LIG 0.13  C 
ATOM     38  CA  PRO B1005      13.381   9.750  20.956  1.00 36.27 LIG 0.17  C 
ATOM     39  CG  PRO B1005      14.524   8.145  19.670  1.00 36.24 LIG 0.02  C 
ATOM     40  CB  PRO B1005      13.198   8.811  19.768  1.00 36.11 LIG 0.04  C 
ATOM     41 O    PRO B1004      14.291  10.500  23.505  1.00 35.22 LIG-0.27  OA
BRANCH 38 42
ATOM     42  C   PRO B1005      12.059  10.056  21.658  1.00 36.62 LIG 0.22  C 
ATOM     43 O    PRO B1005      11.590  11.209  21.545  1.00 36.45 LIG-0.29  OA
ENDBRANCH 38 42
ENDBRANCH 31 35
ENDBRANCH 4 28
TORSDOF 8
ENDMDL
MODEL 9
USER: ADFR SOLUTION from run 108
USER: SCORE 13.163124 LL:  -3.740 LR:  -9.606 RR:   0.000 FEB:  -7.219
USER: RMSD 9.610339
USER: SEED 107
USER: STATUS no improvement in best 11 clusters for 5 generations
USER: GENES 10
USER: genes 0 Translation |==|  0.59346 0.58190 0.55265
USER: genes 1 Rotation |==|  0.52007 0.56722 0.97979 0.62197
USER: genes 2 Torsion [O]-C--CA-[N] |==|  0.97520
USER: genes 3 Torsion [N]-C--CA-[N] |==|  0.48333
USER: genes 4 Torsion [C]-CA--N-[C] |==|  0.62537
USER: genes 5 Torsion [C]-CA--CB-[CG] |==|  0.80889
USER: genes 6 Torsion [CA]-CB--CG-[CD1] |==|  0.81510
USER: genes 7 Torsion [N]-CA--C-[O] |==|  0.84849
USER: genes 8 Torsion [N]-CA--C-[N] |==|  0.50333
USER: genes 9 Torsion [N]-CA--C-[O] |==|  0.55203
ROOT
ATOM      1  C   PRO B1002      22.644  23.457  19.749  1.00 33.09 LIG 0.24  C 
ATOM      2 O    PRO B1002      22.948  23.625  18.564  1.00 32.82 LIG-0.27  OA
ATOM      3  N   PRO B1003      21.735  22.547  20.125  1.00 33.61 LIG-0.34  N 
ATOM      4  CA  PRO B1003      21.063  21.721  19.121  1.00 34.05 LIG 0.18  C 
ATOM      5  CB  PRO B1003      20.289  20.719  19.972  1.00 34.65 LIG 0.04  C 
ATOM      6  CG  PRO B1003      19.945  21.517  21.186  1.00 34.15 LIG 0.02  C 
ATOM      7  CD  PRO B1003      21.245  22.235  21.478  1.00 34.31 LIG 0.13  C 
ENDROOT
BRANCH 1 8
ATOM      8  CA  PRO B1002      23.302  24.283  20.848  1.00 32.09 LIG 0.18  C 
ATOM      9  N   PRO B1002      24.402  25.047  20.264  1.00 31.87 LIG-0.34  N 
ATOM     10  C   PHE B1001      25.572  24.442  20.014  1.00 31.39 LIG 0.24  C 
ATOM     11  CD  PRO B1002      24.049  26.475  20.160  1.00 31.65 LIG 0.13  C 
ATOM     12 O    PHE B1001      25.761  23.250  20.274  1.00 31.36 LIG-0.27  OA
ATOM     13  CG  PRO B1002      22.542  26.455  20.372  1.00 31.59 LIG 0.02  C 
ATOM     14  CB  PRO B1002      22.378  25.372  21.388  1.00 32.35 LIG 0.04  C 
BRANCH 10 15
ATOM     15  CA  PHE B1001      26.673  25.288  19.397  1.00 30.70 LIG 0.18  C 
BRANCH 15 16
ATOM     16  N   PHE B1001      27.925  24.541  19.312  1.00 31.26 LIG-0.35  N 
ATOM     17  C   ACE B1000      29.091  25.077  19.670  1.00 32.54 LIG 0.21  C 
ATOM     18  CH3 ACE B1000      30.303  24.293  19.164  1.00 32.86 LIG 0.12  C 
ATOM     19 O    ACE B1000      29.208  26.249  20.045  1.00 32.71 LIG-0.27  OA
ATOM     20 H    PHE B1001      27.839  23.739  19.016  1.00 31.26 LIG 0.16  HD
ENDBRANCH 15 16
BRANCH 15 21
ATOM     21  CB  PHE B1001      26.192  25.726  18.009  1.00 29.45 LIG 0.07  C 
BRANCH 21 22
ATOM     22  CG  PHE B1001      26.094  24.614  17.014  1.00 29.10 LIG-0.06  A 
ATOM     23  CD2 PHE B1001      24.855  24.216  16.522  1.00 29.14 LIG 0.01  A 
ATOM     24  CE2 PHE B1001      24.757  23.179  15.601  1.00 28.22 LIG 0.00  A 
ATOM     25  CZ  PHE B1001      25.902  22.530  15.168  1.00 28.72 LIG 0.00  A 
ATOM     26  CE1 PHE B1001      27.145  22.922  15.653  1.00 29.15 LIG 0.00  A 
ATOM     27  CD1 PHE B1001      27.235  23.959  16.570  1.00 28.88 LIG 0.01  A 
ENDBRANCH 21 22
ENDBRANCH 15 21
ENDBRANCH 10 15
ENDBRANCH 1 8
BRANCH 4 28
ATOM     28  C   PRO B1003      20.149  22.558  18.227  1.00 33.85 LIG 0.24  C 
ATOM     29 O    PRO B1003      19.277  23.276  18.716  1.00 33.94 LIG-0.27  OA
ATOM     30  N   PRO B1004      20.353  22.490  16.903  1.00 34.14 LIG-0.34  N 
ATOM     31  CA  PRO B1004      19.516  23.256  15.977  1.00 34.66 LIG 0.18  C 
ATOM     32  CD  PRO B1004      21.418  21.772  16.179  1.00 34.36 LIG 0.13  C 
ATOM     33  CB  PRO B1004      20.248  23.097  14.645  1.00 34.44 LIG 0.04  C 
ATOM     34  CG  PRO B1004      20.883  21.750  14.769  1.00 34.41 LIG 0.02  C 
BRANCH 31 35
ATOM     35  C   PRO B1004      18.089  22.702  15.947  1.00 35.04 LIG 0.24  C 
ATOM     36  N   PRO B1005      17.214  23.292  15.121  1.00 35.67 LIG-0.34  N 
ATOM     37  CD  PRO B1005      17.479  24.469  14.275  1.00 35.53 LIG 0.13  C 
ATOM     38  CA  PRO B1005      15.814  22.872  14.988  1.00 36.27 LIG 0.17  C 
ATOM     39  CG  PRO B1005      16.090  25.005  14.034  1.00 36.24 LIG 0.02  C 
ATOM     40  CB  PRO B1005      15.294  23.761  13.863  1.00 36.11 LIG 0.04  C 
ATOM     41 O    PRO B1004      17.768  21.758  16.670  1.00 35.22 LIG-0.27  OA
BRANCH 38 42
ATOM     42  C   PRO B1005      15.661  21.386  14.667  1.00 36.62 LIG 0.22  C 
ATOM     43 O    PRO B1005      14.573  21.000  14.189  1.00 36.45 LIG-0.29  OA
ENDBRANCH 38 42
ENDBRANCH 31 35
ENDBRANCH 4 28
TORSDOF 8
ENDMDL
MODEL 10
USER: ADFR SOLUTION from run 147
USER: SCORE 12.403188 LL:  -2.877 LR:  -9.567 RR:   0.000 FEB:  -7.181
USER: RMSD 10.748084
USER: SEED 146
USER: STATUS no improvement in best 14 clusters for 5 generations
USER: GENES 10
USER: genes 0 Translation |==|  0.45614 0.46154 0.56588
USER: genes 1 Rotation |==|  0.49092 0.37650 0.01577 0.51368
USER: genes 2 Torsion [O]-C--CA-[N] |==|  0.91709
USER: genes 3 Torsion [N]-C--CA-[N] |==|  0.89101
USER: genes 4 Torsion [C]-CA--N-[C] |==|  0.83277
USER: genes 5 Torsion [C]-CA--CB-[CG] |==|  0.40417
USER: genes 6 Torsion [CA]-CB--CG-[CD1] |==|  0.44752
USER: genes 7 Torsion [N]-CA--C-[O] |==|  0.04354
USER: genes 8 Torsion [N]-CA--C-[N] |==|  0.50295
USER: genes 9 Torsion [N]-CA--C-[O] |==|  0.83551
ROOT
ATOM      1  C   PRO B1002      18.524  19.846  20.147  1.00 33.09 LIG 0.24  C 
ATOM      2 O    PRO B1002      18.663  19.884  18.920  1.00 32.82 LIG-0.27  OA
ATOM      3  N   PRO B1003      18.239  18.708  20.792  1.00 33.61 LIG-0.34  N 
ATOM      4  CA  PRO B1003      18.074  17.460  20.045  1.00 34.05 LIG 0.18  C 
ATOM      5  CB  PRO B1003      17.965  16.416  21.152  1.00 34.65 LIG 0.04  C 
ATOM      6  CG  PRO B1003      17.286  17.170  22.247  1.00 34.15 LIG 0.02  C 
ATOM      7  CD  PRO B1003      18.022  18.492  22.233  1.00 34.31 LIG 0.13  C 
ENDROOT
BRANCH 1 8
ATOM      8  CA  PRO B1002      18.679  21.107  20.988  1.00 32.09 LIG 0.18  C 
ATOM      9  N   PRO B1002      19.629  21.999  20.325  1.00 31.87 LIG-0.34  N 
ATOM     10  C   PHE B1001      20.945  21.763  20.431  1.00 31.39 LIG 0.24  C 
ATOM     11  CD  PRO B1002      18.932  23.149  19.721  1.00 31.65 LIG 0.13  C 
ATOM     12 O    PHE B1001      21.390  20.816  21.085  1.00 31.36 LIG-0.27  OA
ATOM     13  CG  PRO B1002      17.479  22.698  19.742  1.00 31.59 LIG 0.02  C 
ATOM     14  CB  PRO B1002      17.401  21.940  21.028  1.00 32.35 LIG 0.04  C 
BRANCH 10 15
ATOM     15  CA  PHE B1001      21.881  22.720  19.710  1.00 30.70 LIG 0.18  C 
BRANCH 15 16
ATOM     16  N   PHE B1001      21.341  23.103  18.408  1.00 31.26 LIG-0.35  N 
ATOM     17  C   ACE B1000      21.089  22.205  17.458  1.00 32.54 LIG 0.21  C 
ATOM     18  CH3 ACE B1000      20.894  22.822  16.072  1.00 32.86 LIG 0.12  C 
ATOM     19 O    ACE B1000      21.340  21.000  17.584  1.00 32.71 LIG-0.27  OA
ATOM     20 H    PHE B1001      21.204  23.947  18.317  1.00 31.26 LIG 0.16  HD
ENDBRANCH 15 16
BRANCH 15 21
ATOM     21  CB  PHE B1001      22.073  23.943  20.614  1.00 29.45 LIG 0.07  C 
BRANCH 21 22
ATOM     22  CG  PHE B1001      23.438  24.550  20.543  1.00 29.10 LIG-0.06  A 
ATOM     23  CD2 PHE B1001      24.510  23.818  20.045  1.00 29.14 LIG 0.01  A 
ATOM     24  CE2 PHE B1001      25.782  24.375  19.982  1.00 28.22 LIG 0.00  A 
ATOM     25  CZ  PHE B1001      25.989  25.672  20.420  1.00 28.72 LIG 0.00  A 
ATOM     26  CE1 PHE B1001      24.924  26.413  20.919  1.00 29.15 LIG 0.00  A 
ATOM     27  CD1 PHE B1001      23.656  25.850  20.977  1.00 28.88 LIG 0.01  A 
ENDBRANCH 21 22
ENDBRANCH 15 21
ENDBRANCH 10 15
ENDBRANCH 1 8
BRANCH 4 28
ATOM     28  C   PRO B1003      16.834  17.500  19.153  1.00 33.85 LIG 0.24  C 
ATOM     29 O    PRO B1003      16.277  18.568  18.898  1.00 33.94 LIG-0.27  OA
ATOM     30  N   PRO B1004      16.398  16.334  18.652  1.00 34.14 LIG-0.34  N 
ATOM     31  CA  PRO B1004      15.213  16.285  17.795  1.00 34.66 LIG 0.18  C 
ATOM     32  CD  PRO B1004      17.016  15.001  18.773  1.00 34.36 LIG 0.13  C 
ATOM     33  CB  PRO B1004      15.242  14.856  17.253  1.00 34.44 LIG 0.04  C 
ATOM     34  CG  PRO B1004      15.887  14.090  18.363  1.00 34.41 LIG 0.02  C 
BRANCH 31 35
ATOM     35  C   PRO B1004      13.947  16.596  18.597  1.00 35.04 LIG 0.24  C 
ATOM     36  N   PRO B1005      12.777  16.565  17.943  1.00 35.67 LIG-0.34  N 
ATOM     37  CD  PRO B1005      12.596  16.317  16.503  1.00 35.53 LIG 0.13  C 
ATOM     38  CA  PRO B1005      11.484  16.844  18.580  1.00 36.27 LIG 0.17  C 
ATOM     39  CG  PRO B1005      11.246  16.937  16.241  1.00 36.24 LIG 0.02  C 
ATOM     40  CB  PRO B1005      10.484  16.566  17.463  1.00 36.11 LIG 0.04  C 
ATOM     41 O    PRO B1004      14.016  16.875  19.795  1.00 35.22 LIG-0.27  OA
BRANCH 38 42
ATOM     42  C   PRO B1005      11.225  15.983  19.815  1.00 36.62 LIG 0.22  C 
ATOM     43 O    PRO B1005      11.215  14.742  19.670  1.00 36.45 LIG-0.29  OA
ENDBRANCH 38 42
ENDBRANCH 31 35
ENDBRANCH 4 28
TORSDOF 8
ENDMDL
MODEL 11
USER: ADFR SOLUTION from run 24
USER: SCORE 11.448245 LL:  -2.531 LR:  -9.479 RR:   0.000 FEB:  -7.093
USER: RMSD 16.647356
USER: SEED 23
USER: STATUS no improvement in best 11 clusters for 5 generations
USER: GENES 10
USER: genes 0 Translation |==|  0.79343 0.18728 0.78665
USER: genes 1 Rotation |==|  0.75402 0.73852 0.81518 0.67101
USER: genes 2 Torsion [O]-C--CA-[N] |==|  0.85338
USER: genes 3 Torsion [N]-C--CA-[N] |==|  0.83721
USER: genes 4 Torsion [C]-CA--N-[C] |==|  0.62441
USER: genes 5 Torsion [C]-CA--CB-[CG] |==|  0.62450
USER: genes 6 Torsion [CA]-CB--CG-[CD1] |==|  0.26983
USER: genes 7 Torsion [N]-CA--C-[O] |==|  0.42246
USER: genes 8 Torsion [N]-CA--C-[N] |==|  0.36085
USER: genes 9 Torsion [N]-CA--C-[O] |==|  0.27132
ROOT
ATOM      1  C   PRO B1002      28.643  11.618  26.769  1.00 33.09 LIG 0.24  C 
ATOM      2 O    PRO B1002      27.640  11.357  26.098  1.00 32.82 LIG-0.27  OA
ATOM      3  N   PRO B1003      28.634  11.557  28.107  1.00 33.61 LIG-0.34  N 
ATOM      4  CA  PRO B1003      27.412  11.179  28.818  1.00 34.05 LIG 0.18  C 
ATOM      5  CB  PRO B1003      27.889  11.043  30.261  1.00 34.65 LIG 0.04  C 
ATOM      6  CG  PRO B1003      28.970  12.070  30.347  1.00 34.15 LIG 0.02  C 
ATOM      7  CD  PRO B1003      29.724  11.853  29.053  1.00 34.31 LIG 0.13  C 
ENDROOT
BRANCH 1 8
ATOM      8  CA  PRO B1002      29.949  12.021  26.096  1.00 32.09 LIG 0.18  C 
ATOM      9  N   PRO B1002      30.292  11.012  25.096  1.00 31.87 LIG-0.34  N 
ATOM     10  C   PHE B1001      30.845   9.853  25.485  1.00 31.39 LIG 0.24  C 
ATOM     11  CD  PRO B1002      30.069  11.529  23.734  1.00 31.65 LIG 0.13  C 
ATOM     12 O    PHE B1001      31.090   9.609  26.669  1.00 31.36 LIG-0.27  OA
ATOM     13  CG  PRO B1002      29.225  12.769  23.990  1.00 31.59 LIG 0.02  C 
ATOM     14  CB  PRO B1002      29.807  13.292  25.264  1.00 32.35 LIG 0.04  C 
BRANCH 10 15
ATOM     15  CA  PHE B1001      31.168   8.841  24.398  1.00 30.70 LIG 0.18  C 
BRANCH 15 16
ATOM     16  N   PHE B1001      29.969   8.471  23.651  1.00 31.26 LIG-0.35  N 
ATOM     17  C   ACE B1000      29.690   7.205  23.347  1.00 32.54 LIG 0.21  C 
ATOM     18  CH3 ACE B1000      28.622   7.059  22.263  1.00 32.86 LIG 0.12  C 
ATOM     19 O    ACE B1000      30.443   6.263  23.624  1.00 32.71 LIG-0.27  OA
ATOM     20 H    PHE B1001      29.470   9.136  23.431  1.00 31.26 LIG 0.16  HD
ENDBRANCH 15 16
BRANCH 15 21
ATOM     21  CB  PHE B1001      32.223   9.471  23.481  1.00 29.45 LIG 0.07  C 
BRANCH 21 22
ATOM     22  CG  PHE B1001      31.953   9.290  22.021  1.00 29.10 LIG-0.06  A 
ATOM     23  CD2 PHE B1001      32.324   8.114  21.377  1.00 29.14 LIG 0.01  A 
ATOM     24  CE2 PHE B1001      32.081   7.942  20.019  1.00 28.22 LIG 0.00  A 
ATOM     25  CZ  PHE B1001      31.466   8.950  19.295  1.00 28.72 LIG 0.00  A 
ATOM     26  CE1 PHE B1001      31.090  10.128  19.931  1.00 29.15 LIG 0.00  A 
ATOM     27  CD1 PHE B1001      31.334  10.292  21.287  1.00 28.88 LIG 0.01  A 
ENDBRANCH 21 22
ENDBRANCH 15 21
ENDBRANCH 10 15
ENDBRANCH 1 8
BRANCH 4 28
ATOM     28  C   PRO B1003      26.321  12.238  28.661  1.00 33.85 LIG 0.24  C 
ATOM     29 O    PRO B1003      25.131  11.928  28.717  1.00 33.94 LIG-0.27  OA
ATOM     30  N   PRO B1004      26.717  13.507  28.483  1.00 34.14 LIG-0.34  N 
ATOM     31  CA  PRO B1004      25.735  14.580  28.318  1.00 34.66 LIG 0.18  C 
ATOM     32  CD  PRO B1004      28.088  14.048  28.508  1.00 34.36 LIG 0.13  C 
ATOM     33  CB  PRO B1004      26.590  15.844  28.416  1.00 34.44 LIG 0.04  C 
ATOM     34  CG  PRO B1004      27.907  15.401  27.866  1.00 34.41 LIG 0.02  C 
BRANCH 31 35
ATOM     35  C   PRO B1004      25.007  14.451  26.978  1.00 35.04 LIG 0.24  C 
ATOM     36  N   PRO B1005      23.668  14.501  26.994  1.00 35.67 LIG-0.34  N 
ATOM     37  CD  PRO B1005      22.819  14.610  28.193  1.00 35.53 LIG 0.13  C 
ATOM     38  CA  PRO B1005      22.838  14.389  25.788  1.00 36.27 LIG 0.17  C 
ATOM     39  CG  PRO B1005      21.501  14.070  27.698  1.00 36.24 LIG 0.02  C 
ATOM     40  CB  PRO B1005      21.427  14.623  26.320  1.00 36.11 LIG 0.04  C 
ATOM     41 O    PRO B1004      25.641  14.295  25.933  1.00 35.22 LIG-0.27  OA
BRANCH 38 42
ATOM     42  C   PRO B1005      23.219  15.392  24.701  1.00 36.62 LIG 0.22  C 
ATOM     43 O    PRO B1005      23.965  15.000  23.779  1.00 36.45 LIG-0.29  OA
ENDBRANCH 38 42
ENDBRANCH 31 35
ENDBRANCH 4 28
TORSDOF 8
ENDMDL
MODEL 12
USER: ADFR SOLUTION from run 83
USER: SCORE 12.335293 LL:  -3.057 LR:  -9.465 RR:   0.000 FEB:  -7.079
USER: RMSD 10.705537
USER: SEED 82
USER: STATUS no improvement in best 15 clusters for 5 generations
USER: GENES 10
USER: genes 0 Translation |==|  0.55051 0.55658 0.55667
USER: genes 1 Rotation |==|  0.35128 0.85841 0.81388 0.53007
USER: genes 2 Torsion [O]-C--CA-[N] |==|  0.86752
USER: genes 3 Torsion [N]-C--CA-[N] |==|  0.48325
USER: genes 4 Torsion [C]-CA--N-[C] |==|  0.62787
USER: genes 5 Torsion [C]-CA--CB-[CG] |==|  0.43527
USER: genes 6 Torsion [CA]-CB--CG-[CD1] |==|  0.71869
USER: genes 7 Torsion [N]-CA--C-[O] |==|  0.03997
USER: genes 8 Torsion [N]-CA--C-[N] |==|  0.49909
USER: genes 9 Torsion [N]-CA--C-[O] |==|  0.83379
ROOT
ATOM      1  C   PRO B1002      21.355  22.697  19.870  1.00 33.09 LIG 0.24  C 
ATOM      2 O    PRO B1002      22.128  21.759  19.651  1.00 32.82 LIG-0.27  OA
ATOM      3  N   PRO B1003      20.406  22.627  20.812  1.00 33.61 LIG-0.34  N 
ATOM      4  CA  PRO B1003      20.253  21.412  21.614  1.00 34.05 LIG 0.18  C 
ATOM      5  CB  PRO B1003      19.227  21.827  22.664  1.00 34.65 LIG 0.04  C 
ATOM      6  CG  PRO B1003      18.372  22.799  21.920  1.00 34.15 LIG 0.02  C 
ATOM      7  CD  PRO B1003      19.399  23.635  21.186  1.00 34.31 LIG 0.13  C 
ENDROOT
BRANCH 1 8
ATOM      8  CA  PRO B1002      21.455  23.992  19.073  1.00 32.09 LIG 0.18  C 
ATOM      9  N   PRO B1002      22.854  24.414  19.037  1.00 31.87 LIG-0.34  N 
ATOM     10  C   PHE B1001      23.391  25.025  20.103  1.00 31.39 LIG 0.24  C 
ATOM     11  CD  PRO B1002      23.433  24.190  17.699  1.00 31.65 LIG 0.13  C 
ATOM     12 O    PHE B1001      22.736  25.259  21.122  1.00 31.36 LIG-0.27  OA
ATOM     13  CG  PRO B1002      22.409  23.269  17.051  1.00 31.59 LIG 0.02  C 
ATOM     14  CB  PRO B1002      21.120  23.793  17.597  1.00 32.35 LIG 0.04  C 
BRANCH 10 15
ATOM     15  CA  PHE B1001      24.852  25.430  20.007  1.00 30.70 LIG 0.18  C 
BRANCH 15 16
ATOM     16  N   PHE B1001      25.261  26.206  21.175  1.00 31.26 LIG-0.35  N 
ATOM     17  C   ACE B1000      25.967  27.329  21.063  1.00 32.54 LIG 0.21  C 
ATOM     18  CH3 ACE B1000      26.607  27.781  22.376  1.00 32.86 LIG 0.12  C 
ATOM     19 O    ACE B1000      26.373  27.766  19.979  1.00 32.71 LIG-0.27  OA
ATOM     20 H    PHE B1001      25.006  25.875  21.927  1.00 31.26 LIG 0.16  HD
ENDBRANCH 15 16
BRANCH 15 21
ATOM     21  CB  PHE B1001      25.678  24.144  19.878  1.00 29.45 LIG 0.07  C 
BRANCH 21 22
ATOM     22  CG  PHE B1001      27.017  24.336  19.240  1.00 29.10 LIG-0.06  A 
ATOM     23  CD2 PHE B1001      28.078  24.859  19.972  1.00 29.14 LIG 0.01  A 
ATOM     24  CE2 PHE B1001      29.323  25.045  19.382  1.00 28.22 LIG 0.00  A 
ATOM     25  CZ  PHE B1001      29.514  24.709  18.052  1.00 28.72 LIG 0.00  A 
ATOM     26  CE1 PHE B1001      28.460  24.184  17.313  1.00 29.15 LIG 0.00  A 
ATOM     27  CD1 PHE B1001      27.220  24.000  17.909  1.00 28.88 LIG 0.01  A 
ENDBRANCH 21 22
ENDBRANCH 15 21
ENDBRANCH 10 15
ENDBRANCH 1 8
BRANCH 4 28
ATOM     28  C   PRO B1003      19.776  20.235  20.763  1.00 33.85 LIG 0.24  C 
ATOM     29 O    PRO B1003      19.819  20.290  19.533  1.00 33.94 LIG-0.27  OA
ATOM     30  N   PRO B1004      19.335  19.147  21.410  1.00 34.14 LIG-0.34  N 
ATOM     31  CA  PRO B1004      18.855  17.979  20.668  1.00 34.66 LIG 0.18  C 
ATOM     32  CD  PRO B1004      19.329  18.887  22.861  1.00 34.36 LIG 0.13  C 
ATOM     33  CB  PRO B1004      18.715  16.916  21.758  1.00 34.44 LIG 0.04  C 
ATOM     34  CG  PRO B1004      18.378  17.722  22.971  1.00 34.41 LIG 0.02  C 
BRANCH 31 35
ATOM     35  C   PRO B1004      17.534  18.289  19.960  1.00 35.04 LIG 0.24  C 
ATOM     36  N   PRO B1005      16.977  17.310  19.233  1.00 35.67 LIG-0.34  N 
ATOM     37  CD  PRO B1005      17.548  15.972  19.001  1.00 35.53 LIG 0.13  C 
ATOM     38  CA  PRO B1005      15.716  17.463  18.497  1.00 36.27 LIG 0.17  C 
ATOM     39  CG  PRO B1005      16.843  15.542  17.739  1.00 36.24 LIG 0.02  C 
ATOM     40  CB  PRO B1005      15.466  16.061  17.951  1.00 36.11 LIG 0.04  C 
ATOM     41 O    PRO B1004      17.020  19.405  20.052  1.00 35.22 LIG-0.27  OA
BRANCH 38 42
ATOM     42  C   PRO B1005      14.566  17.954  19.374  1.00 36.62 LIG 0.22  C 
ATOM     43 O    PRO B1005      14.236  17.252  20.354  1.00 36.45 LIG-0.29  OA
ENDBRANCH 38 42
ENDBRANCH 31 35
ENDBRANCH 4 28
TORSDOF 8
ENDMDL
MODEL 13
USER: ADFR SOLUTION from run 143
USER: SCORE 11.956584 LL:  -2.910 LR:  -9.448 RR:   0.000 FEB:  -7.061
USER: RMSD 12.586013
USER: SEED 142
USER: STATUS no improvement in best 15 clusters for 5 generations
USER: GENES 10
USER: genes 0 Translation |==|  0.53554 0.25943 0.78100
USER: genes 1 Rotation |==|  0.26706 0.25293 0.51811 0.86656
USER: genes 2 Torsion [O]-C--CA-[N] |==|  0.90829
USER: genes 3 Torsion [N]-C--CA-[N] |==|  0.12777
USER: genes 4 Torsion [C]-CA--N-[C] |==|  0.64884
USER: genes 5 Torsion [C]-CA--CB-[CG] |==|  0.43550
USER: genes 6 Torsion [CA]-CB--CG-[CD1] |==|  0.08520
USER: genes 7 Torsion [N]-CA--C-[O] |==|  0.00705
USER: genes 8 Torsion [N]-CA--C-[N] |==|  0.32229
USER: genes 9 Torsion [N]-CA--C-[O] |==|  0.24537
ROOT
ATOM      1  C   PRO B1002      20.906  13.783  26.600  1.00 33.09 LIG 0.24  C 
ATOM      2 O    PRO B1002      21.356  12.654  26.818  1.00 32.82 LIG-0.27  OA
ATOM      3  N   PRO B1003      21.607  14.706  25.928  1.00 33.61 LIG-0.34  N 
ATOM      4  CA  PRO B1003      22.949  14.395  25.434  1.00 34.05 LIG 0.18  C 
ATOM      5  CB  PRO B1003      23.286  15.615  24.582  1.00 34.65 LIG 0.04  C 
ATOM      6  CG  PRO B1003      22.576  16.719  25.295  1.00 34.15 LIG 0.02  C 
ATOM      7  CD  PRO B1003      21.233  16.092  25.601  1.00 34.31 LIG 0.13  C 
ENDROOT
BRANCH 1 8
ATOM      8  CA  PRO B1002      19.517  14.177  27.086  1.00 32.09 LIG 0.18  C 
ATOM      9  N   PRO B1002      18.655  12.997  27.046  1.00 31.87 LIG-0.34  N 
ATOM     10  C   PHE B1001      18.135  12.594  25.878  1.00 31.39 LIG 0.24  C 
ATOM     11  CD  PRO B1002      18.390  12.497  28.408  1.00 31.65 LIG 0.13  C 
ATOM     12 O    PHE B1001      18.351  13.196  24.823  1.00 31.36 LIG-0.27  OA
ATOM     13  CG  PRO B1002      19.443  13.223  29.233  1.00 31.59 LIG 0.02  C 
ATOM     14  CB  PRO B1002      19.505  14.558  28.564  1.00 32.35 LIG 0.04  C 
BRANCH 10 15
ATOM     15  CA  PHE B1001      17.256  11.354  25.901  1.00 30.70 LIG 0.18  C 
BRANCH 15 16
ATOM     16  N   PHE B1001      16.295  11.411  27.000  1.00 31.26 LIG-0.35  N 
ATOM     17  C   ACE B1000      16.184  10.428  27.891  1.00 32.54 LIG 0.21  C 
ATOM     18  CH3 ACE B1000      14.899  10.495  28.716  1.00 32.86 LIG 0.12  C 
ATOM     19 O    ACE B1000      16.840   9.381  27.826  1.00 32.71 LIG-0.27  OA
ATOM     20 H    PHE B1001      15.818  12.127  27.016  1.00 31.26 LIG 0.16  HD
ENDBRANCH 15 16
BRANCH 15 21
ATOM     21  CB  PHE B1001      16.545  11.270  24.545  1.00 29.45 LIG 0.07  C 
BRANCH 21 22
ATOM     22  CG  PHE B1001      16.090   9.894  24.176  1.00 29.10 LIG-0.06  A 
ATOM     23  CD2 PHE B1001      16.025   9.508  22.841  1.00 29.14 LIG 0.01  A 
ATOM     24  CE2 PHE B1001      15.597   8.232  22.492  1.00 28.22 LIG 0.00  A 
ATOM     25  CZ  PHE B1001      15.229   7.332  23.479  1.00 28.72 LIG 0.00  A 
ATOM     26  CE1 PHE B1001      15.293   7.709  24.816  1.00 29.15 LIG 0.00  A 
ATOM     27  CD1 PHE B1001      15.722   8.984  25.157  1.00 28.88 LIG 0.01  A 
ENDBRANCH 21 22
ENDBRANCH 15 21
ENDBRANCH 10 15
ENDBRANCH 1 8
BRANCH 4 28
ATOM     28  C   PRO B1003      23.937  14.194  26.583  1.00 33.85 LIG 0.24  C 
ATOM     29 O    PRO B1003      23.559  14.252  27.754  1.00 33.94 LIG-0.27  OA
ATOM     30  N   PRO B1004      25.212  13.934  26.260  1.00 34.14 LIG-0.34  N 
ATOM     31  CA  PRO B1004      26.221  13.735  27.301  1.00 34.66 LIG 0.18  C 
ATOM     32  CD  PRO B1004      25.790  13.723  24.920  1.00 34.36 LIG 0.13  C 
ATOM     33  CB  PRO B1004      27.425  13.215  26.515  1.00 34.44 LIG 0.04  C 
ATOM     34  CG  PRO B1004      27.266  13.875  25.183  1.00 34.41 LIG 0.02  C 
BRANCH 31 35
ATOM     35  C   PRO B1004      26.508  15.045  28.040  1.00 35.04 LIG 0.24  C 
ATOM     36  N   PRO B1005      26.201  15.100  29.343  1.00 35.67 LIG-0.34  N 
ATOM     37  CD  PRO B1005      25.554  14.034  30.127  1.00 35.53 LIG 0.13  C 
ATOM     38  CA  PRO B1005      26.417  16.289  30.178  1.00 36.27 LIG 0.17  C 
ATOM     39  CG  PRO B1005      24.966  14.802  31.283  1.00 36.24 LIG 0.02  C 
ATOM     40  CB  PRO B1005      26.025  15.805  31.571  1.00 36.11 LIG 0.04  C 
ATOM     41 O    PRO B1004      26.991  16.008  27.443  1.00 35.22 LIG-0.27  OA
BRANCH 38 42
ATOM     42  C   PRO B1005      27.854  16.804  30.128  1.00 36.62 LIG 0.22  C 
ATOM     43 O    PRO B1005      28.150  17.625  29.234  1.00 36.45 LIG-0.29  OA
ENDBRANCH 38 42
ENDBRANCH 31 35
ENDBRANCH 4 28
TORSDOF 8
ENDMDL
MODEL 14
USER: ADFR SOLUTION from run 80
USER: SCORE 12.235584 LL:  -3.304 LR:  -9.373 RR:   0.000 FEB:  -6.986
USER: RMSD 10.772750
USER: SEED 79
USER: STATUS no improvement in best 22 clusters for 5 generations
USER: GENES 10
USER: genes 0 Translation |==|  0.54456 0.56292 0.50699
USER: genes 1 Rotation |==|  0.30012 0.90457 0.71067 0.54460
USER: genes 2 Torsion [O]-C--CA-[N] |==|  0.94360
USER: genes 3 Torsion [N]-C--CA-[N] |==|  0.23893
USER: genes 4 Torsion [C]-CA--N-[C] |==|  0.67778
USER: genes 5 Torsion [C]-CA--CB-[CG] |==|  0.48828
USER: genes 6 Torsion [CA]-CB--CG-[CD1] |==|  0.42341
USER: genes 7 Torsion [N]-CA--C-[O] |==|  0.99157
USER: genes 8 Torsion [N]-CA--C-[N] |==|  0.48716
USER: genes 9 Torsion [N]-CA--C-[O] |==|  0.89457
ROOT
ATOM      1  C   PRO B1002      21.177  22.887  18.380  1.00 33.09 LIG 0.24  C 
ATOM      2 O    PRO B1002      21.953  22.009  18.767  1.00 32.82 LIG-0.27  OA
ATOM      3  N   PRO B1003      20.001  23.108  18.981  1.00 33.61 LIG-0.34  N 
ATOM      4  CA  PRO B1003      19.596  22.293  20.128  1.00 34.05 LIG 0.18  C 
ATOM      5  CB  PRO B1003      18.330  22.994  20.610  1.00 34.65 LIG 0.04  C 
ATOM      6  CG  PRO B1003      17.744  23.521  19.342  1.00 34.15 LIG 0.02  C 
ATOM      7  CD  PRO B1003      18.958  24.090  18.639  1.00 34.31 LIG 0.13  C 
ENDROOT
BRANCH 1 8
ATOM      8  CA  PRO B1002      21.531  23.772  17.191  1.00 32.09 LIG 0.18  C 
ATOM      9  N   PRO B1002      22.979  23.733  16.993  1.00 31.87 LIG-0.34  N 
ATOM     10  C   PHE B1001      23.777  24.467  17.781  1.00 31.39 LIG 0.24  C 
ATOM     11  CD  PRO B1002      23.321  22.936  15.800  1.00 31.65 LIG 0.13  C 
ATOM     12 O    PHE B1001      23.328  25.194  18.672  1.00 31.36 LIG-0.27  OA
ATOM     13  CG  PRO B1002      22.021  22.198  15.516  1.00 31.59 LIG 0.02  C 
ATOM     14  CB  PRO B1002      20.991  23.220  15.874  1.00 32.35 LIG 0.04  C 
BRANCH 10 15
ATOM     15  CA  PHE B1001      25.273  24.375  17.531  1.00 30.70 LIG 0.18  C 
BRANCH 15 16
ATOM     16  N   PHE B1001      25.692  25.315  16.496  1.00 31.26 LIG-0.35  N 
ATOM     17  C   ACE B1000      26.201  24.905  15.335  1.00 32.54 LIG 0.21  C 
ATOM     18  CH3 ACE B1000      26.914  26.012  14.557  1.00 32.86 LIG 0.12  C 
ATOM     19 O    ACE B1000      26.404  23.715  15.070  1.00 32.71 LIG-0.27  OA
ATOM     20 H    PHE B1001      25.582  26.143  16.703  1.00 31.26 LIG 0.16  HD
ENDBRANCH 15 16
BRANCH 15 21
ATOM     21  CB  PHE B1001      25.980  24.662  18.862  1.00 29.45 LIG 0.07  C 
BRANCH 21 22
ATOM     22  CG  PHE B1001      27.467  24.512  18.811  1.00 29.10 LIG-0.06  A 
ATOM     23  CD2 PHE B1001      28.057  23.638  17.904  1.00 29.14 LIG 0.01  A 
ATOM     24  CE2 PHE B1001      29.438  23.490  17.856  1.00 28.22 LIG 0.00  A 
ATOM     25  CZ  PHE B1001      30.240  24.218  18.720  1.00 28.72 LIG 0.00  A 
ATOM     26  CE1 PHE B1001      29.660  25.096  19.629  1.00 29.15 LIG 0.00  A 
ATOM     27  CD1 PHE B1001      28.280  25.238  19.670  1.00 28.88 LIG 0.01  A 
ENDBRANCH 21 22
ENDBRANCH 15 21
ENDBRANCH 10 15
ENDBRANCH 1 8
BRANCH 4 28
ATOM     28  C   PRO B1003      19.343  20.841  19.723  1.00 33.85 LIG 0.24  C 
ATOM     29 O    PRO B1003      19.431  20.493  18.545  1.00 33.94 LIG-0.27  OA
ATOM     30  N   PRO B1004      19.047  19.972  20.700  1.00 34.14 LIG-0.34  N 
ATOM     31  CA  PRO B1004      18.785  18.565  20.395  1.00 34.66 LIG 0.18  C 
ATOM     32  CD  PRO B1004      19.017  20.210  22.155  1.00 34.36 LIG 0.13  C 
ATOM     33  CB  PRO B1004      18.762  17.914  21.779  1.00 34.44 LIG 0.04  C 
ATOM     34  CG  PRO B1004      18.253  19.011  22.657  1.00 34.41 LIG 0.02  C 
BRANCH 31 35
ATOM     35  C   PRO B1004      17.464  18.408  19.638  1.00 35.04 LIG 0.24  C 
ATOM     36  N   PRO B1005      17.139  17.181  19.207  1.00 35.67 LIG-0.34  N 
ATOM     37  CD  PRO B1005      17.965  15.969  19.343  1.00 35.53 LIG 0.13  C 
ATOM     38  CA  PRO B1005      15.908  16.880  18.466  1.00 36.27 LIG 0.17  C 
ATOM     39  CG  PRO B1005      17.415  15.087  18.250  1.00 36.24 LIG 0.02  C 
ATOM     40  CB  PRO B1005      15.956  15.363  18.322  1.00 36.11 LIG 0.04  C 
ATOM     41 O    PRO B1004      16.743  19.384  19.427  1.00 35.22 LIG-0.27  OA
BRANCH 38 42
ATOM     42  C   PRO B1005      14.645  17.352  19.184  1.00 36.62 LIG 0.22  C 
ATOM     43 O    PRO B1005      14.604  17.242  20.428  1.00 36.45 LIG-0.29  OA
ENDBRANCH 38 42
ENDBRANCH 31 35
ENDBRANCH 4 28
TORSDOF 8
ENDMDL
MODEL 15
USER: ADFR SOLUTION from run 99
USER: SCORE 12.283758 LL:  -3.162 LR:  -9.327 RR:   0.000 FEB:  -6.940
USER: RMSD 10.493829
USER: SEED 98
USER: STATUS no improvement in best 15 clusters for 5 generations
USER: GENES 10
USER: genes 0 Translation |==|  0.67384 0.62690 0.55109
USER: genes 1 Rotation |==|  0.37026 0.86620 0.76776 0.66542
USER: genes 2 Torsion [O]-C--CA-[N] |==|  0.03842
USER: genes 3 Torsion [N]-C--CA-[N] |==|  0.48320
USER: genes 4 Torsion [C]-CA--N-[C] |==|  0.80321
USER: genes 5 Torsion [C]-CA--CB-[CG] |==|  0.35633
USER: genes 6 Torsion [CA]-CB--CG-[CD1] |==|  0.53152
USER: genes 7 Torsion [N]-CA--C-[O] |==|  0.01547
USER: genes 8 Torsion [N]-CA--C-[N] |==|  0.30990
USER: genes 9 Torsion [N]-CA--C-[O] |==|  0.50730
ROOT
ATOM      1  C   PRO B1002      25.055  24.807  19.703  1.00 33.09 LIG 0.24  C 
ATOM      2 O    PRO B1002      25.415  23.626  19.700  1.00 32.82 LIG-0.27  OA
ATOM      3  N   PRO B1003      23.876  25.187  20.210  1.00 33.61 LIG-0.34  N 
ATOM      4  CA  PRO B1003      22.964  24.192  20.777  1.00 34.05 LIG 0.18  C 
ATOM      5  CB  PRO B1003      21.870  25.054  21.401  1.00 34.65 LIG 0.04  C 
ATOM      6  CG  PRO B1003      21.821  26.234  20.487  1.00 34.15 LIG 0.02  C 
ATOM      7  CD  PRO B1003      23.289  26.537  20.274  1.00 34.31 LIG 0.13  C 
ENDROOT
BRANCH 1 8
ATOM      8  CA  PRO B1002      25.953  25.896  19.127  1.00 32.09 LIG 0.18  C 
ATOM      9  N   PRO B1002      27.015  25.264  18.348  1.00 31.87 LIG-0.34  N 
ATOM     10  C   PHE B1001      28.069  24.724  18.977  1.00 31.39 LIG 0.24  C 
ATOM     11  CD  PRO B1002      26.788  25.454  16.903  1.00 31.65 LIG 0.13  C 
ATOM     12 O    PHE B1001      28.182  24.751  20.206  1.00 31.36 LIG-0.27  OA
ATOM     13  CG  PRO B1002      25.337  25.913  16.860  1.00 31.59 LIG 0.02  C 
ATOM     14  CB  PRO B1002      25.233  26.755  18.090  1.00 32.35 LIG 0.04  C 
BRANCH 10 15
ATOM     15  CA  PHE B1001      29.135  24.072  18.111  1.00 30.70 LIG 0.18  C 
BRANCH 15 16
ATOM     16  N   PHE B1001      30.282  23.657  18.914  1.00 31.26 LIG-0.35  N 
ATOM     17  C   ACE B1000      31.124  24.539  19.449  1.00 32.54 LIG 0.21  C 
ATOM     18  CH3 ACE B1000      32.440  23.917  19.920  1.00 32.86 LIG 0.12  C 
ATOM     19 O    ACE B1000      31.032  25.758  19.265  1.00 32.71 LIG-0.27  OA
ATOM     20 H    PHE B1001      30.360  22.805  19.006  1.00 31.26 LIG 0.16  HD
ENDBRANCH 15 16
BRANCH 15 21
ATOM     21  CB  PHE B1001      28.486  22.875  17.407  1.00 29.45 LIG 0.07  C 
BRANCH 21 22
ATOM     22  CG  PHE B1001      28.682  22.856  15.924  1.00 29.10 LIG-0.06  A 
ATOM     23  CD2 PHE B1001      29.584  23.726  15.322  1.00 29.14 LIG 0.01  A 
ATOM     24  CE2 PHE B1001      29.766  23.717  13.943  1.00 28.22 LIG 0.00  A 
ATOM     25  CZ  PHE B1001      29.043  22.835  13.157  1.00 28.72 LIG 0.00  A 
ATOM     26  CE1 PHE B1001      28.140  21.960  13.751  1.00 29.15 LIG 0.00  A 
ATOM     27  CD1 PHE B1001      27.965  21.974  15.128  1.00 28.88 LIG 0.01  A 
ENDBRANCH 21 22
ENDBRANCH 15 21
ENDBRANCH 10 15
ENDBRANCH 1 8
BRANCH 4 28
ATOM     28  C   PRO B1003      22.424  23.250  19.702  1.00 33.85 LIG 0.24  C 
ATOM     29 O    PRO B1003      22.840  23.312  18.545  1.00 33.94 LIG-0.27  OA
ATOM     30  N   PRO B1004      21.503  22.350  20.079  1.00 34.14 LIG-0.34  N 
ATOM     31  CA  PRO B1004      20.931  21.415  19.108  1.00 34.66 LIG 0.18  C 
ATOM     32  CD  PRO B1004      20.993  22.078  21.435  1.00 34.36 LIG 0.13  C 
ATOM     33  CB  PRO B1004      20.162  20.433  19.993  1.00 34.44 LIG 0.04  C 
ATOM     34  CG  PRO B1004      19.745  21.281  21.151  1.00 34.41 LIG 0.02  C 
BRANCH 31 35
ATOM     35  C   PRO B1004      20.036  22.148  18.107  1.00 35.04 LIG 0.24  C 
ATOM     36  N   PRO B1005      20.459  22.223  16.837  1.00 35.67 LIG-0.34  N 
ATOM     37  CD  PRO B1005      21.740  21.713  16.320  1.00 35.53 LIG 0.13  C 
ATOM     38  CA  PRO B1005      19.708  22.896  15.770  1.00 36.27 LIG 0.17  C 
ATOM     39  CG  PRO B1005      21.923  22.530  15.065  1.00 36.24 LIG 0.02  C 
ATOM     40  CB  PRO B1005      20.539  22.599  14.526  1.00 36.11 LIG 0.04  C 
ATOM     41 O    PRO B1004      18.975  22.658  18.471  1.00 35.22 LIG-0.27  OA
BRANCH 38 42
ATOM     42  C   PRO B1005      18.271  22.394  15.639  1.00 36.62 LIG 0.22  C 
ATOM     43 O    PRO B1005      17.566  22.872  14.724  1.00 36.45 LIG-0.29  OA
ENDBRANCH 38 42
ENDBRANCH 31 35
ENDBRANCH 4 28
TORSDOF 8
ENDMDL
MODEL 16
USER: ADFR SOLUTION from run 8
USER: SCORE 12.559571 LL:  -3.403 LR:  -9.267 RR:   0.000 FEB:  -6.880
USER: RMSD 10.278460
USER: SEED 901482
USER: STATUS no improvement in best 15 clusters for 5 generations
USER: GENES 10
USER: genes 0 Translation |==|  0.45932 0.41091 0.67290
USER: genes 1 Rotation |==|  0.53027 0.20493 0.23293 0.80115
USER: genes 2 Torsion [O]-C--CA-[N] |==|  0.00456
USER: genes 3 Torsion [N]-C--CA-[N] |==|  0.44782
USER: genes 4 Torsion [C]-CA--N-[C] |==|  0.65347
USER: genes 5 Torsion [C]-CA--CB-[CG] |==|  0.39300
USER: genes 6 Torsion [CA]-CB--CG-[CD1] |==|  0.51466
USER: genes 7 Torsion [N]-CA--C-[O] |==|  0.00586
USER: genes 8 Torsion [N]-CA--C-[N] |==|  0.34278
USER: genes 9 Torsion [N]-CA--C-[O] |==|  0.92001
ROOT
ATOM      1  C   PRO B1002      18.620  18.327  23.357  1.00 33.09 LIG 0.24  C 
ATOM      2 O    PRO B1002      19.142  17.625  22.486  1.00 32.82 LIG-0.27  OA
ATOM      3  N   PRO B1003      19.248  18.617  24.503  1.00 33.61 LIG-0.34  N 
ATOM      4  CA  PRO B1003      20.590  18.092  24.761  1.00 34.05 LIG 0.18  C 
ATOM      5  CB  PRO B1003      20.993  18.810  26.045  1.00 34.65 LIG 0.04  C 
ATOM      6  CG  PRO B1003      19.689  18.964  26.757  1.00 34.15 LIG 0.02  C 
ATOM      7  CD  PRO B1003      18.766  19.415  25.645  1.00 34.31 LIG 0.13  C 
ENDROOT
BRANCH 1 8
ATOM      8  CA  PRO B1002      17.224  18.906  23.158  1.00 32.09 LIG 0.18  C 
ATOM      9  N   PRO B1002      16.706  18.447  21.871  1.00 31.87 LIG-0.34  N 
ATOM     10  C   PHE B1001      17.117  19.041  20.741  1.00 31.39 LIG 0.24  C 
ATOM     11  CD  PRO B1002      15.658  17.428  22.062  1.00 31.65 LIG 0.13  C 
ATOM     12 O    PHE B1001      17.917  19.981  20.748  1.00 31.36 LIG-0.27  OA
ATOM     13  CG  PRO B1002      15.845  17.038  23.521  1.00 31.59 LIG 0.02  C 
ATOM     14  CB  PRO B1002      16.214  18.341  24.153  1.00 32.35 LIG 0.04  C 
BRANCH 10 15
ATOM     15  CA  PHE B1001      16.549  18.512  19.434  1.00 30.70 LIG 0.18  C 
BRANCH 15 16
ATOM     16  N   PHE B1001      16.711  19.486  18.357  1.00 31.26 LIG-0.35  N 
ATOM     17  C   ACE B1000      15.679  19.919  17.637  1.00 32.54 LIG 0.21  C 
ATOM     18  CH3 ACE B1000      16.090  20.626  16.344  1.00 32.86 LIG 0.12  C 
ATOM     19 O    ACE B1000      14.526  19.494  17.786  1.00 32.71 LIG-0.27  OA
ATOM     20 H    PHE B1001      17.521  19.748  18.237  1.00 31.26 LIG 0.16  HD
ENDBRANCH 15 16
BRANCH 15 21
ATOM     21  CB  PHE B1001      17.279  17.202  19.113  1.00 29.45 LIG 0.07  C 
BRANCH 21 22
ATOM     22  CG  PHE B1001      16.405  16.141  18.524  1.00 29.10 LIG-0.06  A 
ATOM     23  CD2 PHE B1001      15.077  16.415  18.212  1.00 29.14 LIG 0.01  A 
ATOM     24  CE2 PHE B1001      14.258  15.431  17.670  1.00 28.22 LIG 0.00  A 
ATOM     25  CZ  PHE B1001      14.764  14.163  17.437  1.00 28.72 LIG 0.00  A 
ATOM     26  CE1 PHE B1001      16.090  13.880  17.744  1.00 29.15 LIG 0.00  A 
ATOM     27  CD1 PHE B1001      16.902  14.868  18.284  1.00 28.88 LIG 0.01  A 
ENDBRANCH 21 22
ENDBRANCH 15 21
ENDBRANCH 10 15
ENDBRANCH 1 8
BRANCH 4 28
ATOM     28  C   PRO B1003      20.576  16.572  24.920  1.00 33.85 LIG 0.24  C 
ATOM     29 O    PRO B1003      19.530  15.936  24.791  1.00 33.94 LIG-0.27  OA
ATOM     30  N   PRO B1004      21.746  15.971  25.182  1.00 34.14 LIG-0.34  N 
ATOM     31  CA  PRO B1004      21.818  14.519  25.355  1.00 34.66 LIG 0.18  C 
ATOM     32  CD  PRO B1004      23.088  16.576  25.253  1.00 34.36 LIG 0.13  C 
ATOM     33  CB  PRO B1004      23.323  14.250  25.365  1.00 34.44 LIG 0.04  C 
ATOM     34  CG  PRO B1004      23.884  15.504  25.954  1.00 34.41 LIG 0.02  C 
BRANCH 31 35
ATOM     35  C   PRO B1004      21.124  14.090  26.650  1.00 35.04 LIG 0.24  C 
ATOM     36  N   PRO B1005      20.135  13.190  26.554  1.00 35.67 LIG-0.34  N 
ATOM     37  CD  PRO B1005      19.607  12.614  25.305  1.00 35.53 LIG 0.13  C 
ATOM     38  CA  PRO B1005      19.379  12.688  27.708  1.00 36.27 LIG 0.17  C 
ATOM     39  CG  PRO B1005      18.232  12.156  25.723  1.00 36.24 LIG 0.02  C 
ATOM     40  CB  PRO B1005      18.476  11.625  27.090  1.00 36.11 LIG 0.04  C 
ATOM     41 O    PRO B1004      21.464  14.570  27.733  1.00 35.22 LIG-0.27  OA
BRANCH 38 42
ATOM     42  C   PRO B1005      20.273  12.118  28.808  1.00 36.62 LIG 0.22  C 
ATOM     43 O    PRO B1005      21.371  11.625  28.473  1.00 36.45 LIG-0.29  OA
ENDBRANCH 38 42
ENDBRANCH 31 35
ENDBRANCH 4 28
TORSDOF 8
ENDMDL
MODEL 17
USER: ADFR SOLUTION from run 99
USER: SCORE 12.218912 LL:  -3.106 LR:  -9.231 RR:   0.000 FEB:  -6.844
USER: RMSD 7.034743
USER: SEED 98
USER: STATUS no improvement in best 15 clusters for 5 generations
USER: GENES 10
USER: genes 0 Translation |==|  0.47136 0.44531 0.67903
USER: genes 1 Rotation |==|  0.83367 0.64005 0.56601 0.83866
USER: genes 2 Torsion [O]-C--CA-[N] |==|  0.02760
USER: genes 3 Torsion [N]-C--CA-[N] |==|  0.88333
USER: genes 4 Torsion [C]-CA--N-[C] |==|  0.78431
USER: genes 5 Torsion [C]-CA--CB-[CG] |==|  0.34614
USER: genes 6 Torsion [CA]-CB--CG-[CD1] |==|  0.06539
USER: genes 7 Torsion [N]-CA--C-[O] |==|  0.90688
USER: genes 8 Torsion [N]-CA--C-[N] |==|  0.36458
USER: genes 9 Torsion [N]-CA--C-[O] |==|  0.31945
ROOT
ATOM      1  C   PRO B1002      18.981  19.359  23.541  1.00 33.09 LIG 0.24  C 
ATOM      2 O    PRO B1002      18.114  20.079  23.035  1.00 32.82 LIG-0.27  OA
ATOM      3  N   PRO B1003      19.536  19.646  24.725  1.00 33.61 LIG-0.34  N 
ATOM      4  CA  PRO B1003      19.127  20.844  25.459  1.00 34.05 LIG 0.18  C 
ATOM      5  CB  PRO B1003      19.836  20.678  26.800  1.00 34.65 LIG 0.04  C 
ATOM      6  CG  PRO B1003      21.092  19.965  26.419  1.00 34.15 LIG 0.02  C 
ATOM      7  CD  PRO B1003      20.586  18.914  25.455  1.00 34.31 LIG 0.13  C 
ENDROOT
BRANCH 1 8
ATOM      8  CA  PRO B1002      19.457  18.097  22.832  1.00 32.09 LIG 0.18  C 
ATOM      9  N   PRO B1002      18.912  18.087  21.476  1.00 31.87 LIG-0.34  N 
ATOM     10  C   PHE B1001      17.638  17.724  21.275  1.00 31.39 LIG 0.24  C 
ATOM     11  CD  PRO B1002      19.967  18.379  20.488  1.00 31.65 LIG 0.13  C 
ATOM     12 O    PHE B1001      16.900  17.380  22.203  1.00 31.36 LIG-0.27  OA
ATOM     13  CG  PRO B1002      21.088  18.927  21.359  1.00 31.59 LIG 0.02  C 
ATOM     14  CB  PRO B1002      20.965  18.096  22.595  1.00 32.35 LIG 0.04  C 
BRANCH 10 15
ATOM     15  CA  PHE B1001      17.128  17.744  19.843  1.00 30.70 LIG 0.18  C 
BRANCH 15 16
ATOM     16  N   PHE B1001      17.596  18.934  19.136  1.00 31.26 LIG-0.35  N 
ATOM     17  C   ACE B1000      17.038  20.129  19.322  1.00 32.54 LIG 0.21  C 
ATOM     18  CH3 ACE B1000      17.403  21.146  18.240  1.00 32.86 LIG 0.12  C 
ATOM     19 O    ACE B1000      16.061  20.311  20.057  1.00 32.71 LIG-0.27  OA
ATOM     20 H    PHE B1001      18.252  18.791  18.599  1.00 31.26 LIG 0.16  HD
ENDBRANCH 15 16
BRANCH 15 21
ATOM     21  CB  PHE B1001      17.620  16.463  19.161  1.00 29.45 LIG 0.07  C 
BRANCH 21 22
ATOM     22  CG  PHE B1001      16.533  15.633  18.556  1.00 29.10 LIG-0.06  A 
ATOM     23  CD2 PHE B1001      16.721  14.271  18.343  1.00 29.14 LIG 0.01  A 
ATOM     24  CE2 PHE B1001      15.715  13.497  17.776  1.00 28.22 LIG 0.00  A 
ATOM     25  CZ  PHE B1001      14.513  14.082  17.416  1.00 28.72 LIG 0.00  A 
ATOM     26  CE1 PHE B1001      14.315  15.442  17.626  1.00 29.15 LIG 0.00  A 
ATOM     27  CD1 PHE B1001      15.323  16.209  18.194  1.00 28.88 LIG 0.01  A 
ENDBRANCH 21 22
ENDBRANCH 15 21
ENDBRANCH 10 15
ENDBRANCH 1 8
BRANCH 4 28
ATOM     28  C   PRO B1003      19.547  22.120  24.729  1.00 33.85 LIG 0.24  C 
ATOM     29 O    PRO B1003      20.590  22.155  24.075  1.00 33.94 LIG-0.27  OA
ATOM     30  N   PRO B1004      18.727  23.177  24.816  1.00 34.14 LIG-0.34  N 
ATOM     31  CA  PRO B1004      19.061  24.438  24.151  1.00 34.66 LIG 0.18  C 
ATOM     32  CD  PRO B1004      17.403  23.256  25.459  1.00 34.36 LIG 0.13  C 
ATOM     33  CB  PRO B1004      17.769  25.245  24.282  1.00 34.44 LIG 0.04  C 
ATOM     34  CG  PRO B1004      17.190  24.745  25.566  1.00 34.41 LIG 0.02  C 
BRANCH 31 35
ATOM     35  C   PRO B1004      20.259  25.110  24.825  1.00 35.04 LIG 0.24  C 
ATOM     36  N   PRO B1005      21.255  25.537  24.036  1.00 35.67 LIG-0.34  N 
ATOM     37  CD  PRO B1005      21.335  25.368  22.575  1.00 35.53 LIG 0.13  C 
ATOM     38  CA  PRO B1005      22.465  26.195  24.542  1.00 36.27 LIG 0.17  C 
ATOM     39  CG  PRO B1005      22.815  25.500  22.321  1.00 36.24 LIG 0.02  C 
ATOM     40  CB  PRO B1005      23.205  26.582  23.264  1.00 36.11 LIG 0.04  C 
ATOM     41 O    PRO B1004      20.300  25.235  26.050  1.00 35.22 LIG-0.27  OA
BRANCH 38 42
ATOM     42  C   PRO B1005      22.166  27.406  25.424  1.00 36.62 LIG 0.22  C 
ATOM     43 O    PRO B1005      22.494  27.347  26.628  1.00 36.45 LIG-0.29  OA
ENDBRANCH 38 42
ENDBRANCH 31 35
ENDBRANCH 4 28
TORSDOF 8
ENDMDL
MODEL 18
USER: ADFR SOLUTION from run 22
USER: SCORE 11.816385 LL:  -2.756 LR:  -9.195 RR:   0.000 FEB:  -6.809
USER: RMSD 12.646351
USER: SEED 21
USER: STATUS no improvement in best 12 clusters for 5 generations
USER: GENES 10
USER: genes 0 Translation |==|  0.59910 0.25517 0.81754
USER: genes 1 Rotation |==|  0.24513 0.29512 0.64247 0.85038
USER: genes 2 Torsion [O]-C--CA-[N] |==|  0.79160
USER: genes 3 Torsion [N]-C--CA-[N] |==|  0.11284
USER: genes 4 Torsion [C]-CA--N-[C] |==|  0.17775
USER: genes 5 Torsion [C]-CA--CB-[CG] |==|  0.48654
USER: genes 6 Torsion [CA]-CB--CG-[CD1] |==|  0.59831
USER: genes 7 Torsion [N]-CA--C-[O] |==|  0.82081
USER: genes 8 Torsion [N]-CA--C-[N] |==|  0.45977
USER: genes 9 Torsion [N]-CA--C-[O] |==|  0.24068
ROOT
ATOM      1  C   PRO B1002      22.813  13.655  27.696  1.00 33.09 LIG 0.24  C 
ATOM      2 O    PRO B1002      23.614  12.790  28.065  1.00 32.82 LIG-0.27  OA
ATOM      3  N   PRO B1003      23.008  14.370  26.581  1.00 33.61 LIG-0.34  N 
ATOM      4  CA  PRO B1003      24.201  14.147  25.762  1.00 34.05 LIG 0.18  C 
ATOM      5  CB  PRO B1003      23.927  14.999  24.527  1.00 34.65 LIG 0.04  C 
ATOM      6  CG  PRO B1003      23.143  16.141  25.085  1.00 34.15 LIG 0.02  C 
ATOM      7  CD  PRO B1003      22.173  15.443  26.013  1.00 34.31 LIG 0.13  C 
ENDROOT
BRANCH 1 8
ATOM      8  CA  PRO B1002      21.552  13.944  28.501  1.00 32.09 LIG 0.18  C 
ATOM      9  N   PRO B1002      20.594  12.863  28.274  1.00 31.87 LIG-0.34  N 
ATOM     10  C   PHE B1001      19.873  12.842  27.144  1.00 31.39 LIG 0.24  C 
ATOM     11  CD  PRO B1002      20.492  11.997  29.462  1.00 31.65 LIG 0.13  C 
ATOM     12 O    PHE B1001      19.980  13.719  26.282  1.00 31.36 LIG-0.27  OA
ATOM     13  CG  PRO B1002      21.716  12.406  30.270  1.00 31.59 LIG 0.02  C 
ATOM     14  CB  PRO B1002      21.793  13.875  30.006  1.00 32.35 LIG 0.04  C 
BRANCH 10 15
ATOM     15  CA  PHE B1001      18.902  11.687  26.962  1.00 30.70 LIG 0.18  C 
BRANCH 15 16
ATOM     16  N   PHE B1001      18.216  11.375  28.213  1.00 31.26 LIG-0.35  N 
ATOM     17  C   ACE B1000      17.398  12.244  28.804  1.00 32.54 LIG 0.21  C 
ATOM     18  CH3 ACE B1000      17.082  11.892  30.259  1.00 32.86 LIG 0.12  C 
ATOM     19 O    ACE B1000      17.200  13.386  28.373  1.00 32.71 LIG-0.27  OA
ATOM     20 H    PHE B1001      18.387  10.592  28.525  1.00 31.26 LIG 0.16  HD
ENDBRANCH 15 16
BRANCH 15 21
ATOM     21  CB  PHE B1001      17.906  12.091  25.868  1.00 29.45 LIG 0.07  C 
BRANCH 21 22
ATOM     22  CG  PHE B1001      16.945  11.011  25.485  1.00 29.10 LIG-0.06  A 
ATOM     23  CD2 PHE B1001      16.465  10.123  26.442  1.00 29.14 LIG 0.01  A 
ATOM     24  CE2 PHE B1001      15.575   9.114  26.090  1.00 28.22 LIG 0.00  A 
ATOM     25  CZ  PHE B1001      15.161   8.986  24.775  1.00 28.72 LIG 0.00  A 
ATOM     26  CE1 PHE B1001      15.634   9.870  23.811  1.00 29.15 LIG 0.00  A 
ATOM     27  CD1 PHE B1001      16.521  10.876  24.170  1.00 28.88 LIG 0.01  A 
ENDBRANCH 21 22
ENDBRANCH 15 21
ENDBRANCH 10 15
ENDBRANCH 1 8
BRANCH 4 28
ATOM     28  C   PRO B1003      25.473  14.571  26.496  1.00 33.85 LIG 0.24  C 
ATOM     29 O    PRO B1003      25.662  15.750  26.795  1.00 33.94 LIG-0.27  OA
ATOM     30  N   PRO B1004      26.350  13.608  26.813  1.00 34.14 LIG-0.34  N 
ATOM     31  CA  PRO B1004      27.596  13.931  27.510  1.00 34.66 LIG 0.18  C 
ATOM     32  CD  PRO B1004      26.215  12.152  26.627  1.00 34.36 LIG 0.13  C 
ATOM     33  CB  PRO B1004      28.139  12.556  27.896  1.00 34.44 LIG 0.04  C 
ATOM     34  CG  PRO B1004      27.636  11.676  26.798  1.00 34.41 LIG 0.02  C 
BRANCH 31 35
ATOM     35  C   PRO B1004      28.543  14.715  26.599  1.00 35.04 LIG 0.24  C 
ATOM     36  N   PRO B1005      29.584  15.335  27.173  1.00 35.67 LIG-0.34  N 
ATOM     37  CD  PRO B1005      29.873  15.384  28.617  1.00 35.53 LIG 0.13  C 
ATOM     38  CA  PRO B1005      30.570  16.125  26.427  1.00 36.27 LIG 0.17  C 
ATOM     39  CG  PRO B1005      30.750  16.607  28.723  1.00 36.24 LIG 0.02  C 
ATOM     40  CB  PRO B1005      31.587  16.505  27.498  1.00 36.11 LIG 0.04  C 
ATOM     41 O    PRO B1004      28.337  14.777  25.385  1.00 35.22 LIG-0.27  OA
BRANCH 38 42
ATOM     42  C   PRO B1005      31.209  15.353  25.273  1.00 36.62 LIG 0.22  C 
ATOM     43 O    PRO B1005      30.622  15.359  24.170  1.00 36.45 LIG-0.29  OA
ENDBRANCH 38 42
ENDBRANCH 31 35
ENDBRANCH 4 28
TORSDOF 8
ENDMDL
MODEL 19
USER: ADFR SOLUTION from run 116
USER: SCORE 11.659655 LL:  -2.942 LR:  -9.193 RR:   0.000 FEB:  -6.807
USER: RMSD 11.213660
USER: SEED 115
USER: STATUS no improvement in best 14 clusters for 5 generations
USER: GENES 10
USER: genes 0 Translation |==|  0.50461 0.43439 0.66464
USER: genes 1 Rotation |==|  0.61300 0.15096 0.22514 0.69962
USER: genes 2 Torsion [O]-C--CA-[N] |==|  0.83631
USER: genes 3 Torsion [N]-C--CA-[N] |==|  0.53322
USER: genes 4 Torsion [C]-CA--N-[C] |==|  0.62195
USER: genes 5 Torsion [C]-CA--CB-[CG] |==|  0.38760
USER: genes 6 Torsion [CA]-CB--CG-[CD1] |==|  0.18555
USER: genes 7 Torsion [N]-CA--C-[O] |==|  0.91641
USER: genes 8 Torsion [N]-CA--C-[N] |==|  0.36274
USER: genes 9 Torsion [N]-CA--C-[O] |==|  0.44107
ROOT
ATOM      1  C   PRO B1002      19.978  19.032  23.109  1.00 33.09 LIG 0.24  C 
ATOM      2 O    PRO B1002      20.869  18.384  22.550  1.00 32.82 LIG-0.27  OA
ATOM      3  N   PRO B1003      19.914  19.142  24.442  1.00 33.61 LIG-0.34  N 
ATOM      4  CA  PRO B1003      20.911  18.479  25.284  1.00 34.05 LIG 0.18  C 
ATOM      5  CB  PRO B1003      20.590  19.018  26.675  1.00 34.65 LIG 0.04  C 
ATOM      6  CG  PRO B1003      19.109  19.206  26.620  1.00 34.15 LIG 0.02  C 
ATOM      7  CD  PRO B1003      18.918  19.851  25.264  1.00 34.31 LIG 0.13  C 
ENDROOT
BRANCH 1 8
ATOM      8  CA  PRO B1002      18.906  19.746  22.296  1.00 32.09 LIG 0.18  C 
ATOM      9  N   PRO B1002      19.556  20.700  21.399  1.00 31.87 LIG-0.34  N 
ATOM     10  C   PHE B1001      19.981  21.878  21.879  1.00 31.39 LIG 0.24  C 
ATOM     11  CD  PRO B1002      19.514  20.219  20.006  1.00 31.65 LIG 0.13  C 
ATOM     12 O    PHE B1001      19.831  22.196  23.062  1.00 31.36 LIG-0.27  OA
ATOM     13  CG  PRO B1002      19.134  18.755  20.177  1.00 31.59 LIG 0.02  C 
ATOM     14  CB  PRO B1002      18.186  18.807  21.331  1.00 32.35 LIG 0.04  C 
BRANCH 10 15
ATOM     15  CA  PHE B1001      20.658  22.822  20.898  1.00 30.70 LIG 0.18  C 
BRANCH 15 16
ATOM     16  N   PHE B1001      21.313  23.924  21.597  1.00 31.26 LIG-0.35  N 
ATOM     17  C   ACE B1000      21.218  25.183  21.173  1.00 32.54 LIG 0.21  C 
ATOM     18  CH3 ACE B1000      22.256  26.117  21.798  1.00 32.86 LIG 0.12  C 
ATOM     19 O    ACE B1000      20.621  25.504  20.139  1.00 32.71 LIG-0.27  OA
ATOM     20 H    PHE B1001      21.756  23.687  22.295  1.00 31.26 LIG 0.16  HD
ENDBRANCH 15 16
BRANCH 15 21
ATOM     21  CB  PHE B1001      21.667  21.998  20.089  1.00 29.45 LIG 0.07  C 
BRANCH 21 22
ATOM     22  CG  PHE B1001      21.715  22.344  18.635  1.00 29.10 LIG-0.06  A 
ATOM     23  CD2 PHE B1001      21.298  21.425  17.678  1.00 29.14 LIG 0.01  A 
ATOM     24  CE2 PHE B1001      21.346  21.739  16.325  1.00 28.22 LIG 0.00  A 
ATOM     25  CZ  PHE B1001      21.814  22.977  15.919  1.00 28.72 LIG 0.00  A 
ATOM     26  CE1 PHE B1001      22.232  23.903  16.869  1.00 29.15 LIG 0.00  A 
ATOM     27  CD1 PHE B1001      22.180  23.584  18.218  1.00 28.88 LIG 0.01  A 
ENDBRANCH 21 22
ENDBRANCH 15 21
ENDBRANCH 10 15
ENDBRANCH 1 8
BRANCH 4 28
ATOM     28  C   PRO B1003      20.790  16.958  25.205  1.00 33.85 LIG 0.24  C 
ATOM     29 O    PRO B1003      19.701  16.423  24.993  1.00 33.94 LIG-0.27  OA
ATOM     30  N   PRO B1004      21.916  16.243  25.352  1.00 34.14 LIG-0.34  N 
ATOM     31  CA  PRO B1004      21.885  14.780  25.295  1.00 34.66 LIG 0.18  C 
ATOM     32  CD  PRO B1004      23.298  16.735  25.495  1.00 34.36 LIG 0.13  C 
ATOM     33  CB  PRO B1004      23.367  14.409  25.239  1.00 34.44 LIG 0.04  C 
ATOM     34  CG  PRO B1004      24.018  15.513  26.009  1.00 34.41 LIG 0.02  C 
BRANCH 31 35
ATOM     35  C   PRO B1004      21.168  14.202  26.518  1.00 35.04 LIG 0.24  C 
ATOM     36  N   PRO B1005      20.213  13.287  26.300  1.00 35.67 LIG-0.34  N 
ATOM     37  CD  PRO B1005      19.743  12.822  24.983  1.00 35.53 LIG 0.13  C 
ATOM     38  CA  PRO B1005      19.441  12.649  27.373  1.00 36.27 LIG 0.17  C 
ATOM     39  CG  PRO B1005      18.373  12.282  25.308  1.00 36.24 LIG 0.02  C 
ATOM     40  CB  PRO B1005      18.594  11.625  26.624  1.00 36.11 LIG 0.04  C 
ATOM     41 O    PRO B1004      21.458  14.583  27.653  1.00 35.22 LIG-0.27  OA
BRANCH 38 42
ATOM     42  C   PRO B1005      20.320  12.000  28.441  1.00 36.62 LIG 0.22  C 
ATOM     43 O    PRO B1005      19.817  11.795  29.566  1.00 36.45 LIG-0.29  OA
ENDBRANCH 38 42
ENDBRANCH 31 35
ENDBRANCH 4 28
TORSDOF 8
ENDMDL
MODEL 20
USER: ADFR SOLUTION from run 25
USER: SCORE 12.288027 LL:  -3.382 LR:  -9.049 RR:   0.000 FEB:  -6.663
USER: RMSD 15.590503
USER: SEED 24
USER: STATUS no improvement in best 10 clusters for 5 generations
USER: GENES 10
USER: genes 0 Translation |==|  0.37539 0.16209 0.72339
USER: genes 1 Rotation |==|  0.57415 0.44391 0.00872 0.50021
USER: genes 2 Torsion [O]-C--CA-[N] |==|  0.85810
USER: genes 3 Torsion [N]-C--CA-[N] |==|  0.46642
USER: genes 4 Torsion [C]-CA--N-[C] |==|  0.56535
USER: genes 5 Torsion [C]-CA--CB-[CG] |==|  0.41812
USER: genes 6 Torsion [CA]-CB--CG-[CD1] |==|  0.31033
USER: genes 7 Torsion [N]-CA--C-[O] |==|  0.01954
USER: genes 8 Torsion [N]-CA--C-[N] |==|  0.33928
USER: genes 9 Torsion [N]-CA--C-[O] |==|  0.74586
ROOT
ATOM      1  C   PRO B1002      16.102  10.863  24.872  1.00 33.09 LIG 0.24  C 
ATOM      2 O    PRO B1002      16.620  11.232  23.813  1.00 32.82 LIG-0.27  OA
ATOM      3  N   PRO B1003      15.706   9.598  25.062  1.00 33.61 LIG-0.34  N 
ATOM      4  CA  PRO B1003      15.874   8.606  23.999  1.00 34.05 LIG 0.18  C 
ATOM      5  CB  PRO B1003      15.491   7.301  24.691  1.00 34.65 LIG 0.04  C 
ATOM      6  CG  PRO B1003      14.448   7.741  25.665  1.00 34.15 LIG 0.02  C 
ATOM      7  CD  PRO B1003      15.058   9.000  26.242  1.00 34.31 LIG 0.13  C 
ENDROOT
BRANCH 1 8
ATOM      8  CA  PRO B1002      15.893  11.841  26.021  1.00 32.09 LIG 0.18  C 
ATOM      9  N   PRO B1002      17.156  12.527  26.286  1.00 31.87 LIG-0.34  N 
ATOM     10  C   PHE B1001      18.115  11.905  26.986  1.00 31.39 LIG 0.24  C 
ATOM     11  CD  PRO B1002      17.102  13.923  25.814  1.00 31.65 LIG 0.13  C 
ATOM     12 O    PHE B1001      17.966  10.763  27.431  1.00 31.36 LIG-0.27  OA
ATOM     13  CG  PRO B1002      15.870  13.917  24.920  1.00 31.59 LIG 0.02  C 
ATOM     14  CB  PRO B1002      14.955  12.986  25.647  1.00 32.35 LIG 0.04  C 
BRANCH 10 15
ATOM     15  CA  PHE B1001      19.409  12.667  27.220  1.00 30.70 LIG 0.18  C 
BRANCH 15 16
ATOM     16  N   PHE B1001      20.240  12.000  28.219  1.00 31.26 LIG-0.35  N 
ATOM     17  C   ACE B1000      21.158  12.657  28.925  1.00 32.54 LIG 0.21  C 
ATOM     18  CH3 ACE B1000      22.160  11.739  29.627  1.00 32.86 LIG 0.12  C 
ATOM     19 O    ACE B1000      21.413  13.855  28.752  1.00 32.71 LIG-0.27  OA
ATOM     20 H    PHE B1001      20.081  11.159  28.307  1.00 31.26 LIG 0.16  HD
ENDBRANCH 15 16
BRANCH 15 21
ATOM     21  CB  PHE B1001      20.134  12.767  25.872  1.00 29.45 LIG 0.07  C 
BRANCH 21 22
ATOM     22  CG  PHE B1001      20.990  13.985  25.725  1.00 29.10 LIG-0.06  A 
ATOM     23  CD2 PHE B1001      20.411  15.246  25.635  1.00 29.14 LIG 0.01  A 
ATOM     24  CE2 PHE B1001      21.201  16.381  25.492  1.00 28.22 LIG 0.00  A 
ATOM     25  CZ  PHE B1001      22.580  16.260  25.437  1.00 28.72 LIG 0.00  A 
ATOM     26  CE1 PHE B1001      23.168  15.003  25.528  1.00 29.15 LIG 0.00  A 
ATOM     27  CD1 PHE B1001      22.372  13.875  25.672  1.00 28.88 LIG 0.01  A 
ENDBRANCH 21 22
ENDBRANCH 15 21
ENDBRANCH 10 15
ENDBRANCH 1 8
BRANCH 4 28
ATOM     28  C   PRO B1003      14.981   8.914  22.798  1.00 33.85 LIG 0.24  C 
ATOM     29 O    PRO B1003      14.337   9.963  22.746  1.00 33.94 LIG-0.27  OA
ATOM     30  N   PRO B1004      14.950   8.012  21.806  1.00 34.14 LIG-0.34  N 
ATOM     31  CA  PRO B1004      14.115   8.230  20.623  1.00 34.66 LIG 0.18  C 
ATOM     32  CD  PRO B1004      15.743   6.777  21.670  1.00 34.36 LIG 0.13  C 
ATOM     33  CB  PRO B1004      14.580   7.129  19.670  1.00 34.44 LIG 0.04  C 
ATOM     34  CG  PRO B1004      14.988   6.031  20.599  1.00 34.41 LIG 0.02  C 
BRANCH 31 35
ATOM     35  C   PRO B1004      12.630   8.127  20.978  1.00 35.04 LIG 0.24  C 
ATOM     36  N   PRO B1005      11.856   9.190  20.715  1.00 35.67 LIG-0.34  N 
ATOM     37  CD  PRO B1005      12.312  10.479  20.167  1.00 35.53 LIG 0.13  C 
ATOM     38  CA  PRO B1005      10.417   9.237  21.004  1.00 36.27 LIG 0.17  C 
ATOM     39  CG  PRO B1005      11.212  11.415  20.602  1.00 36.24 LIG 0.02  C 
ATOM     40  CB  PRO B1005       9.995  10.582  20.420  1.00 36.11 LIG 0.04  C 
ATOM     41 O    PRO B1004      12.178   7.106  21.498  1.00 35.22 LIG-0.27  OA
BRANCH 38 42
ATOM     42  C   PRO B1005       9.643   8.072  20.389  1.00 36.62 LIG 0.22  C 
ATOM     43 O    PRO B1005       9.159   8.229  19.248  1.00 36.45 LIG-0.29  OA
ENDBRANCH 38 42
ENDBRANCH 31 35
ENDBRANCH 4 28
TORSDOF 8
ENDMDL
MODEL 21
USER: ADFR SOLUTION from run 86
USER: SCORE 12.822410 LL:  -3.892 LR:  -9.031 RR:   0.000 FEB:  -6.645
USER: RMSD 8.596979
USER: SEED 85
USER: STATUS no improvement in best 11 clusters for 5 generations
USER: GENES 10
USER: genes 0 Translation |==|  0.52460 0.36284 0.73685
USER: genes 1 Rotation |==|  0.52993 0.70842 0.62485 0.93598
USER: genes 2 Torsion [O]-C--CA-[N] |==|  0.97444
USER: genes 3 Torsion [N]-C--CA-[N] |==|  0.42773
USER: genes 4 Torsion [C]-CA--N-[C] |==|  0.83883
USER: genes 5 Torsion [C]-CA--CB-[CG] |==|  0.82706
USER: genes 6 Torsion [CA]-CB--CG-[CD1] |==|  0.24876
USER: genes 7 Torsion [N]-CA--C-[O] |==|  0.84778
USER: genes 8 Torsion [N]-CA--C-[N] |==|  0.29217
USER: genes 9 Torsion [N]-CA--C-[O] |==|  0.71665
ROOT
ATOM      1  C   PRO B1002      20.578  16.885  25.275  1.00 33.09 LIG 0.24  C 
ATOM      2 O    PRO B1002      19.909  16.149  24.543  1.00 32.82 LIG-0.27  OA
ATOM      3  N   PRO B1003      20.285  18.183  25.432  1.00 33.61 LIG-0.34  N 
ATOM      4  CA  PRO B1003      19.150  18.772  24.720  1.00 34.05 LIG 0.18  C 
ATOM      5  CB  PRO B1003      19.061  20.170  25.326  1.00 34.65 LIG 0.04  C 
ATOM      6  CG  PRO B1003      20.488  20.488  25.627  1.00 34.15 LIG 0.02  C 
ATOM      7  CD  PRO B1003      20.983  19.196  26.242  1.00 34.31 LIG 0.13  C 
ENDROOT
BRANCH 1 8
ATOM      8  CA  PRO B1002      21.775  16.340  26.045  1.00 32.09 LIG 0.18  C 
ATOM      9  N   PRO B1002      21.789  14.884  25.920  1.00 31.87 LIG-0.34  N 
ATOM     10  C   PHE B1001      20.963  14.146  26.675  1.00 31.39 LIG 0.24  C 
ATOM     11  CD  PRO B1002      22.868  14.447  25.016  1.00 31.65 LIG 0.13  C 
ATOM     12 O    PHE B1001      20.190  14.655  27.491  1.00 31.36 LIG-0.27  OA
ATOM     13  CG  PRO B1002      23.257  15.745  24.322  1.00 31.59 LIG 0.02  C 
ATOM     14  CB  PRO B1002      23.105  16.750  25.418  1.00 32.35 LIG 0.04  C 
BRANCH 10 15
ATOM     15  CA  PHE B1001      21.018  12.638  26.492  1.00 30.70 LIG 0.18  C 
BRANCH 15 16
ATOM     16  N   PHE B1001      20.586  11.944  27.703  1.00 31.26 LIG-0.35  N 
ATOM     17  C   ACE B1000      21.191  12.130  28.874  1.00 32.54 LIG 0.21  C 
ATOM     18  CH3 ACE B1000      20.851  11.060  29.912  1.00 32.86 LIG 0.12  C 
ATOM     19 O    ACE B1000      22.184  12.853  29.014  1.00 32.71 LIG-0.27  OA
ATOM     20 H    PHE B1001      19.918  11.416  27.588  1.00 31.26 LIG 0.16  HD
ENDBRANCH 15 16
BRANCH 15 21
ATOM     21  CB  PHE B1001      20.119  12.287  25.300  1.00 29.45 LIG 0.07  C 
BRANCH 21 22
ATOM     22  CG  PHE B1001      18.677  12.636  25.495  1.00 29.10 LIG-0.06  A 
ATOM     23  CD2 PHE B1001      17.796  11.711  26.044  1.00 29.14 LIG 0.01  A 
ATOM     24  CE2 PHE B1001      16.454  12.028  26.223  1.00 28.22 LIG 0.00  A 
ATOM     25  CZ  PHE B1001      15.985  13.276  25.850  1.00 28.72 LIG 0.00  A 
ATOM     26  CE1 PHE B1001      16.858  14.209  25.302  1.00 29.15 LIG 0.00  A 
ATOM     27  CD1 PHE B1001      18.197  13.885  25.128  1.00 28.88 LIG 0.01  A 
ENDBRANCH 21 22
ENDBRANCH 15 21
ENDBRANCH 10 15
ENDBRANCH 1 8
BRANCH 4 28
ATOM     28  C   PRO B1003      19.389  18.803  23.211  1.00 33.85 LIG 0.24  C 
ATOM     29 O    PRO B1003      20.394  19.339  22.745  1.00 33.94 LIG-0.27  OA
ATOM     30  N   PRO B1004      18.475  18.207  22.431  1.00 34.14 LIG-0.34  N 
ATOM     31  CA  PRO B1004      18.626  18.198  20.975  1.00 34.66 LIG 0.18  C 
ATOM     32  CD  PRO B1004      17.290  17.433  22.841  1.00 34.36 LIG 0.13  C 
ATOM     33  CB  PRO B1004      17.545  17.215  20.525  1.00 34.44 LIG 0.04  C 
ATOM     34  CG  PRO B1004      16.486  17.383  21.567  1.00 34.41 LIG 0.02  C 
BRANCH 31 35
ATOM     35  C   PRO B1004      18.437  19.603  20.399  1.00 35.04 LIG 0.24  C 
ATOM     36  N   PRO B1005      19.533  20.260  19.995  1.00 35.67 LIG-0.34  N 
ATOM     37  CD  PRO B1005      20.921  19.779  20.107  1.00 35.53 LIG 0.13  C 
ATOM     38  CA  PRO B1005      19.505  21.613  19.425  1.00 36.27 LIG 0.17  C 
ATOM     39  CG  PRO B1005      21.708  21.064  20.046  1.00 36.24 LIG 0.02  C 
ATOM     40  CB  PRO B1005      20.959  21.847  19.027  1.00 36.11 LIG 0.04  C 
ATOM     41 O    PRO B1004      17.314  20.105  20.327  1.00 35.22 LIG-0.27  OA
BRANCH 38 42
ATOM     42  C   PRO B1005      18.553  21.744  18.237  1.00 36.62 LIG 0.22  C 
ATOM     43 O    PRO B1005      19.048  21.750  17.090  1.00 36.45 LIG-0.29  OA
ENDBRANCH 38 42
ENDBRANCH 31 35
ENDBRANCH 4 28
TORSDOF 8
ENDMDL
MODEL 22
USER: ADFR SOLUTION from run 40
USER: SCORE 11.983617 LL:  -3.007 LR:  -9.022 RR:   0.000 FEB:  -6.636
USER: RMSD 10.535873
USER: SEED 39
USER: STATUS no improvement in best 16 clusters for 5 generations
USER: GENES 10
USER: genes 0 Translation |==|  0.45825 0.46286 0.56579
USER: genes 1 Rotation |==|  0.49069 0.36746 0.01805 0.50844
USER: genes 2 Torsion [O]-C--CA-[N] |==|  0.95848
USER: genes 3 Torsion [N]-C--CA-[N] |==|  0.43669
USER: genes 4 Torsion [C]-CA--N-[C] |==|  0.78161
USER: genes 5 Torsion [C]-CA--CB-[CG] |==|  0.59050
USER: genes 6 Torsion [CA]-CB--CG-[CD1] |==|  0.86869
USER: genes 7 Torsion [N]-CA--C-[O] |==|  0.03691
USER: genes 8 Torsion [N]-CA--C-[N] |==|  0.49891
USER: genes 9 Torsion [N]-CA--C-[O] |==|  0.83515
ROOT
ATOM      1  C   PRO B1002      18.588  19.886  20.144  1.00 33.09 LIG 0.24  C 
ATOM      2 O    PRO B1002      18.733  19.874  18.917  1.00 32.82 LIG-0.27  OA
ATOM      3  N   PRO B1003      18.277  18.778  20.829  1.00 33.61 LIG-0.34  N 
ATOM      4  CA  PRO B1003      18.091  17.507  20.129  1.00 34.05 LIG 0.18  C 
ATOM      5  CB  PRO B1003      17.956  16.507  21.274  1.00 34.65 LIG 0.04  C 
ATOM      6  CG  PRO B1003      17.286  17.315  22.337  1.00 34.15 LIG 0.02  C 
ATOM      7  CD  PRO B1003      18.049  18.621  22.276  1.00 34.31 LIG 0.13  C 
ENDROOT
BRANCH 1 8
ATOM      8  CA  PRO B1002      18.763  21.174  20.938  1.00 32.09 LIG 0.18  C 
ATOM      9  N   PRO B1002      19.439  22.157  20.093  1.00 31.87 LIG-0.34  N 
ATOM     10  C   PHE B1001      20.767  22.080  19.918  1.00 31.39 LIG 0.24  C 
ATOM     11  CD  PRO B1002      18.499  23.204  19.653  1.00 31.65 LIG 0.13  C 
ATOM     12 O    PHE B1001      21.449  21.206  20.459  1.00 31.36 LIG-0.27  OA
ATOM     13  CG  PRO B1002      17.147  22.584  19.979  1.00 31.59 LIG 0.02  C 
ATOM     14  CB  PRO B1002      17.431  21.851  21.250  1.00 32.35 LIG 0.04  C 
BRANCH 10 15
ATOM     15  CA  PHE B1001      21.409  23.124  19.019  1.00 30.70 LIG 0.18  C 
BRANCH 15 16
ATOM     16  N   PHE B1001      22.830  23.276  19.322  1.00 31.26 LIG-0.35  N 
ATOM     17  C   ACE B1000      23.256  23.981  20.369  1.00 32.54 LIG 0.21  C 
ATOM     18  CH3 ACE B1000      24.743  24.333  20.303  1.00 32.86 LIG 0.12  C 
ATOM     19 O    ACE B1000      22.493  24.597  21.123  1.00 32.71 LIG-0.27  OA
ATOM     20 H    PHE B1001      23.354  22.875  18.771  1.00 31.26 LIG 0.16  HD
ENDBRANCH 15 16
BRANCH 15 21
ATOM     21  CB  PHE B1001      21.195  22.677  17.568  1.00 29.45 LIG 0.07  C 
BRANCH 21 22
ATOM     22  CG  PHE B1001      22.302  23.060  16.639  1.00 29.10 LIG-0.06  A 
ATOM     23  CD2 PHE B1001      22.840  22.125  15.761  1.00 29.14 LIG 0.01  A 
ATOM     24  CE2 PHE B1001      23.874  22.474  14.899  1.00 28.22 LIG 0.00  A 
ATOM     25  CZ  PHE B1001      24.377  23.764  14.911  1.00 28.72 LIG 0.00  A 
ATOM     26  CE1 PHE B1001      23.844  24.706  15.784  1.00 29.15 LIG 0.00  A 
ATOM     27  CD1 PHE B1001      22.812  24.351  16.641  1.00 28.88 LIG 0.01  A 
ENDBRANCH 21 22
ENDBRANCH 15 21
ENDBRANCH 10 15
ENDBRANCH 1 8
BRANCH 4 28
ATOM     28  C   PRO B1003      16.856  17.537  19.230  1.00 33.85 LIG 0.24  C 
ATOM     29 O    PRO B1003      16.295  18.601  18.967  1.00 33.94 LIG-0.27  OA
ATOM     30  N   PRO B1004      16.429  16.367  18.731  1.00 34.14 LIG-0.34  N 
ATOM     31  CA  PRO B1004      15.249  16.309  17.867  1.00 34.66 LIG 0.18  C 
ATOM     32  CD  PRO B1004      17.052  15.038  18.860  1.00 34.36 LIG 0.13  C 
ATOM     33  CB  PRO B1004      15.289  14.878  17.331  1.00 34.44 LIG 0.04  C 
ATOM     34  CG  PRO B1004      15.930  14.119  18.447  1.00 34.41 LIG 0.02  C 
BRANCH 31 35
ATOM     35  C   PRO B1004      13.977  16.617  18.660  1.00 35.04 LIG 0.24  C 
ATOM     36  N   PRO B1005      12.814  16.608  17.993  1.00 35.67 LIG-0.34  N 
ATOM     37  CD  PRO B1005      12.647  16.386  16.546  1.00 35.53 LIG 0.13  C 
ATOM     38  CA  PRO B1005      11.517  16.887  18.620  1.00 36.27 LIG 0.17  C 
ATOM     39  CG  PRO B1005      11.306  17.021  16.281  1.00 36.24 LIG 0.02  C 
ATOM     40  CB  PRO B1005      10.527  16.636  17.487  1.00 36.11 LIG 0.04  C 
ATOM     41 O    PRO B1004      14.035  16.875  19.863  1.00 35.22 LIG-0.27  OA
BRANCH 38 42
ATOM     42  C   PRO B1005      11.236  16.006  19.837  1.00 36.62 LIG 0.22  C 
ATOM     43 O    PRO B1005      11.215  14.768  19.670  1.00 36.45 LIG-0.29  OA
ENDBRANCH 38 42
ENDBRANCH 31 35
ENDBRANCH 4 28
TORSDOF 8
ENDMDL
MODEL 23
USER: ADFR SOLUTION from run 83
USER: SCORE 12.945938 LL:  -4.165 LR:  -8.976 RR:   0.000 FEB:  -6.590
USER: RMSD 10.689150
USER: SEED 82
USER: STATUS no improvement in best 15 clusters for 5 generations
USER: GENES 10
USER: genes 0 Translation |==|  0.65016 0.58977 0.41186
USER: genes 1 Rotation |==|  0.18593 0.87019 0.39541 0.55816
USER: genes 2 Torsion [O]-C--CA-[N] |==|  0.03314
USER: genes 3 Torsion [N]-C--CA-[N] |==|  0.28531
USER: genes 4 Torsion [C]-CA--N-[C] |==|  0.72778
USER: genes 5 Torsion [C]-CA--CB-[CG] |==|  0.15613
USER: genes 6 Torsion [CA]-CB--CG-[CD1] |==|  0.20800
USER: genes 7 Torsion [N]-CA--C-[O] |==|  0.84744
USER: genes 8 Torsion [N]-CA--C-[N] |==|  0.50061
USER: genes 9 Torsion [N]-CA--C-[O] |==|  0.90319
ROOT
ATOM      1  C   PRO B1002      24.345  23.693  15.526  1.00 33.09 LIG 0.24  C 
ATOM      2 O    PRO B1002      24.460  23.986  16.720  1.00 32.82 LIG-0.27  OA
ATOM      3  N   PRO B1003      23.148  23.492  14.959  1.00 33.61 LIG-0.34  N 
ATOM      4  CA  PRO B1003      21.927  23.608  15.757  1.00 34.05 LIG 0.18  C 
ATOM      5  CB  PRO B1003      20.826  23.504  14.707  1.00 34.65 LIG 0.04  C 
ATOM      6  CG  PRO B1003      21.425  22.585  13.694  1.00 34.15 LIG 0.02  C 
ATOM      7  CD  PRO B1003      22.835  23.119  13.569  1.00 34.31 LIG 0.13  C 
ENDROOT
BRANCH 1 8
ATOM      8  CA  PRO B1002      25.573  23.553  14.635  1.00 32.09 LIG 0.18  C 
ATOM      9  N   PRO B1002      26.765  23.532  15.481  1.00 31.87 LIG-0.34  N 
ATOM     10  C   PHE B1001      27.250  24.681  15.974  1.00 31.39 LIG 0.24  C 
ATOM     11  CD  PRO B1002      27.336  22.174  15.545  1.00 31.65 LIG 0.13  C 
ATOM     12 O    PHE B1001      26.727  25.771  15.727  1.00 31.36 LIG-0.27  OA
ATOM     13  CG  PRO B1002      26.205  21.318  14.992  1.00 31.59 LIG 0.02  C 
ATOM     14  CB  PRO B1002      25.630  22.200  13.931  1.00 32.35 LIG 0.04  C 
BRANCH 10 15
ATOM     15  CA  PHE B1001      28.485  24.591  16.854  1.00 30.70 LIG 0.18  C 
BRANCH 15 16
ATOM     16  N   PHE B1001      29.684  24.991  16.122  1.00 31.26 LIG-0.35  N 
ATOM     17  C   ACE B1000      30.504  24.098  15.571  1.00 32.54 LIG 0.21  C 
ATOM     18  CH3 ACE B1000      31.866  24.678  15.187  1.00 32.86 LIG 0.12  C 
ATOM     19 O    ACE B1000      30.345  22.877  15.682  1.00 32.71 LIG-0.27  OA
ATOM     20 H    PHE B1001      29.806  25.841  16.081  1.00 31.26 LIG 0.16  HD
ENDBRANCH 15 16
BRANCH 15 21
ATOM     21  CB  PHE B1001      28.249  25.494  18.070  1.00 29.45 LIG 0.07  C 
BRANCH 21 22
ATOM     22  CG  PHE B1001      27.010  25.171  18.844  1.00 29.10 LIG-0.06  A 
ATOM     23  CD2 PHE B1001      25.888  25.987  18.749  1.00 29.14 LIG 0.01  A 
ATOM     24  CE2 PHE B1001      24.735  25.695  19.470  1.00 28.22 LIG 0.00  A 
ATOM     25  CZ  PHE B1001      24.700  24.582  20.293  1.00 28.72 LIG 0.00  A 
ATOM     26  CE1 PHE B1001      25.817  23.760  20.393  1.00 29.15 LIG 0.00  A 
ATOM     27  CD1 PHE B1001      26.963  24.057  19.670  1.00 28.88 LIG 0.01  A 
ENDBRANCH 21 22
ENDBRANCH 15 21
ENDBRANCH 10 15
ENDBRANCH 1 8
BRANCH 4 28
ATOM     28  C   PRO B1003      21.837  22.503  16.810  1.00 33.85 LIG 0.24  C 
ATOM     29 O    PRO B1003      21.914  21.318  16.485  1.00 33.94 LIG-0.27  OA
ATOM     30  N   PRO B1004      21.695  22.881  18.089  1.00 34.14 LIG-0.34  N 
ATOM     31  CA  PRO B1004      21.595  21.885  19.156  1.00 34.66 LIG 0.18  C 
ATOM     32  CD  PRO B1004      21.701  24.247  18.643  1.00 34.36 LIG 0.13  C 
ATOM     33  CB  PRO B1004      21.715  22.730  20.424  1.00 34.44 LIG 0.04  C 
ATOM     34  CG  PRO B1004      21.114  24.036  20.015  1.00 34.41 LIG 0.02  C 
BRANCH 31 35
ATOM     35  C   PRO B1004      20.271  21.122  19.067  1.00 35.04 LIG 0.24  C 
ATOM     36  N   PRO B1005      20.039  20.176  19.989  1.00 35.67 LIG-0.34  N 
ATOM     37  CD  PRO B1005      20.968  19.756  21.052  1.00 35.53 LIG 0.13  C 
ATOM     38  CA  PRO B1005      18.817  19.364  20.027  1.00 36.27 LIG 0.17  C 
ATOM     39  CG  PRO B1005      20.463  18.375  21.386  1.00 36.24 LIG 0.02  C 
ATOM     40  CB  PRO B1005      18.989  18.545  21.303  1.00 36.11 LIG 0.04  C 
ATOM     41 O    PRO B1004      19.464  21.369  18.170  1.00 35.22 LIG-0.27  OA
BRANCH 38 42
ATOM     42  C   PRO B1005      17.539  20.201  20.046  1.00 36.62 LIG 0.22  C 
ATOM     43 O    PRO B1005      17.562  21.287  20.664  1.00 36.45 LIG-0.29  OA
ENDBRANCH 38 42
ENDBRANCH 31 35
ENDBRANCH 4 28
TORSDOF 8
ENDMDL
MODEL 24
USER: ADFR SOLUTION from run 16
USER: SCORE 11.692197 LL:  -3.073 LR:  -8.973 RR:   0.000 FEB:  -6.587
USER: RMSD 12.934639
USER: SEED 327904
USER: STATUS no improvement in best 22 clusters for 5 generations
USER: GENES 10
USER: genes 0 Translation |==|  0.54139 0.26937 0.77519
USER: genes 1 Rotation |==|  0.21628 0.23934 0.50283 0.81868
USER: genes 2 Torsion [O]-C--CA-[N] |==|  0.91729
USER: genes 3 Torsion [N]-C--CA-[N] |==|  0.50914
USER: genes 4 Torsion [C]-CA--N-[C] |==|  0.62219
USER: genes 5 Torsion [C]-CA--CB-[CG] |==|  0.40497
USER: genes 6 Torsion [CA]-CB--CG-[CD1] |==|  0.68296
USER: genes 7 Torsion [N]-CA--C-[O] |==|  0.01823
USER: genes 8 Torsion [N]-CA--C-[N] |==|  0.34328
USER: genes 9 Torsion [N]-CA--C-[O] |==|  0.20438
ROOT
ATOM      1  C   PRO B1002      21.082  14.081  26.426  1.00 33.09 LIG 0.24  C 
ATOM      2 O    PRO B1002      21.342  12.987  26.937  1.00 32.82 LIG-0.27  OA
ATOM      3  N   PRO B1003      21.992  14.769  25.725  1.00 33.61 LIG-0.34  N 
ATOM      4  CA  PRO B1003      23.344  14.235  25.551  1.00 34.05 LIG 0.18  C 
ATOM      5  CB  PRO B1003      23.965  15.208  24.553  1.00 34.65 LIG 0.04  C 
ATOM      6  CG  PRO B1003      23.301  16.500  24.898  1.00 34.15 LIG 0.02  C 
ATOM      7  CD  PRO B1003      21.856  16.083  25.073  1.00 34.31 LIG 0.13  C 
ENDROOT
BRANCH 1 8
ATOM      8  CA  PRO B1002      19.696  14.698  26.568  1.00 32.09 LIG 0.18  C 
ATOM      9  N   PRO B1002      18.713  13.622  26.681  1.00 31.87 LIG-0.34  N 
ATOM     10  C   PHE B1001      18.313  12.970  25.580  1.00 31.39 LIG 0.24  C 
ATOM     11  CD  PRO B1002      18.207  13.520  28.063  1.00 31.65 LIG 0.13  C 
ATOM     12 O    PHE B1001      18.740  13.256  24.458  1.00 31.36 LIG-0.27  OA
ATOM     13  CG  PRO B1002      19.217  14.350  28.842  1.00 31.59 LIG 0.02  C 
ATOM     14  CB  PRO B1002      19.528  15.454  27.884  1.00 32.35 LIG 0.04  C 
BRANCH 10 15
ATOM     15  CA  PHE B1001      17.297  11.855  25.765  1.00 30.70 LIG 0.18  C 
BRANCH 15 16
ATOM     16  N   PHE B1001      17.014  11.186  24.498  1.00 31.26 LIG-0.35  N 
ATOM     17  C   ACE B1000      15.773  10.875  24.127  1.00 32.54 LIG 0.21  C 
ATOM     18  CH3 ACE B1000      15.715   9.866  22.980  1.00 32.86 LIG 0.12  C 
ATOM     19 O    ACE B1000      14.784  11.077  24.842  1.00 32.71 LIG-0.27  OA
ATOM     20 H    PHE B1001      17.711  11.016  24.025  1.00 31.26 LIG 0.16  HD
ENDBRANCH 15 16
BRANCH 15 21
ATOM     21  CB  PHE B1001      17.873  10.875  26.795  1.00 29.45 LIG 0.07  C 
BRANCH 21 22
ATOM     22  CG  PHE B1001      16.846  10.240  27.678  1.00 29.10 LIG-0.06  A 
ATOM     23  CD2 PHE B1001      15.896   9.375  27.144  1.00 29.14 LIG 0.01  A 
ATOM     24  CE2 PHE B1001      14.936   8.786  27.959  1.00 28.22 LIG 0.00  A 
ATOM     25  CZ  PHE B1001      14.920   9.060  29.316  1.00 28.72 LIG 0.00  A 
ATOM     26  CE1 PHE B1001      15.866   9.923  29.859  1.00 29.15 LIG 0.00  A 
ATOM     27  CD1 PHE B1001      16.822  10.506  29.040  1.00 28.88 LIG 0.01  A 
ENDBRANCH 21 22
ENDBRANCH 15 21
ENDBRANCH 10 15
ENDBRANCH 1 8
BRANCH 4 28
ATOM     28  C   PRO B1003      24.104  14.192  26.876  1.00 33.85 LIG 0.24  C 
ATOM     29 O    PRO B1003      23.538  14.462  27.935  1.00 33.94 LIG-0.27  OA
ATOM     30  N   PRO B1004      25.395  13.829  26.833  1.00 34.14 LIG-0.34  N 
ATOM     31  CA  PRO B1004      26.196  13.768  28.057  1.00 34.66 LIG 0.18  C 
ATOM     32  CD  PRO B1004      26.176  13.370  25.670  1.00 34.36 LIG 0.13  C 
ATOM     33  CB  PRO B1004      27.476  13.074  27.593  1.00 34.44 LIG 0.04  C 
ATOM     34  CG  PRO B1004      27.594  13.504  26.167  1.00 34.41 LIG 0.02  C 
BRANCH 31 35
ATOM     35  C   PRO B1004      26.443  15.172  28.616  1.00 35.04 LIG 0.24  C 
ATOM     36  N   PRO B1005      26.059  15.412  29.878  1.00 35.67 LIG-0.34  N 
ATOM     37  CD  PRO B1005      25.363  14.465  30.766  1.00 35.53 LIG 0.13  C 
ATOM     38  CA  PRO B1005      26.230  16.708  30.544  1.00 36.27 LIG 0.17  C 
ATOM     39  CG  PRO B1005      24.710  15.389  31.763  1.00 36.24 LIG 0.02  C 
ATOM     40  CB  PRO B1005      25.754  16.428  31.966  1.00 36.11 LIG 0.04  C 
ATOM     41 O    PRO B1004      26.965  16.042  27.917  1.00 35.22 LIG-0.27  OA
BRANCH 38 42
ATOM     42  C   PRO B1005      27.670  17.218  30.507  1.00 36.62 LIG 0.22  C 
ATOM     43 O    PRO B1005      28.108  17.653  29.421  1.00 36.45 LIG-0.29  OA
ENDBRANCH 38 42
ENDBRANCH 31 35
ENDBRANCH 4 28
TORSDOF 8
ENDMDL
MODEL 25
USER: ADFR SOLUTION from run 25
USER: SCORE 11.932944 LL:  -3.282 LR:  -8.946 RR:   0.000 FEB:  -6.560
USER: RMSD 15.373389
USER: SEED 24
USER: STATUS no improvement in best 10 clusters for 5 generations
USER: GENES 10
USER: genes 0 Translation |==|  0.65461 0.25245 0.80469
USER: genes 1 Rotation |==|  0.35906 0.92105 0.44121 0.72226
USER: genes 2 Torsion [O]-C--CA-[N] |==|  0.78701
USER: genes 3 Torsion [N]-C--CA-[N] |==|  0.87780
USER: genes 4 Torsion [C]-CA--N-[C] |==|  0.72238
USER: genes 5 Torsion [C]-CA--CB-[CG] |==|  0.05960
USER: genes 6 Torsion [CA]-CB--CG-[CD1] |==|  0.21172
USER: genes 7 Torsion [N]-CA--C-[O] |==|  0.87381
USER: genes 8 Torsion [N]-CA--C-[N] |==|  0.51773
USER: genes 9 Torsion [N]-CA--C-[O] |==|  0.51885
ROOT
ATOM      1  C   PRO B1002      24.478  13.573  27.311  1.00 33.09 LIG 0.24  C 
ATOM      2 O    PRO B1002      23.934  13.138  28.330  1.00 32.82 LIG-0.27  OA
ATOM      3  N   PRO B1003      23.850  14.410  26.475  1.00 33.61 LIG-0.34  N 
ATOM      4  CA  PRO B1003      22.475  14.829  26.749  1.00 34.05 LIG 0.18  C 
ATOM      5  CB  PRO B1003      22.231  15.902  25.692  1.00 34.65 LIG 0.04  C 
ATOM      6  CG  PRO B1003      23.052  15.420  24.542  1.00 34.15 LIG 0.02  C 
ATOM      7  CD  PRO B1003      24.340  15.002  25.218  1.00 34.31 LIG 0.13  C 
ENDROOT
BRANCH 1 8
ATOM      8  CA  PRO B1002      25.908  13.178  26.960  1.00 32.09 LIG 0.18  C 
ATOM      9  N   PRO B1002      26.825  13.930  27.814  1.00 31.87 LIG-0.34  N 
ATOM     10  C   PHE B1001      27.104  15.209  27.523  1.00 31.39 LIG 0.24  C 
ATOM     11  CD  PRO B1002      27.418  13.055  28.842  1.00 31.65 LIG 0.13  C 
ATOM     12 O    PHE B1001      26.619  15.778  26.542  1.00 31.36 LIG-0.27  OA
ATOM     13  CG  PRO B1002      26.520  11.828  28.783  1.00 31.59 LIG 0.02  C 
ATOM     14  CB  PRO B1002      26.215  11.727  27.324  1.00 32.35 LIG 0.04  C 
BRANCH 10 15
ATOM     15  CA  PHE B1001      28.056  15.940  28.455  1.00 30.70 LIG 0.18  C 
BRANCH 15 16
ATOM     16  N   PHE B1001      27.738  15.665  29.854  1.00 31.26 LIG-0.35  N 
ATOM     17  C   ACE B1000      27.045  16.521  30.601  1.00 32.54 LIG 0.21  C 
ATOM     18  CH3 ACE B1000      27.139  16.238  32.101  1.00 32.86 LIG 0.12  C 
ATOM     19 O    ACE B1000      26.668  17.625  30.189  1.00 32.71 LIG-0.27  OA
ATOM     20 H    PHE B1001      28.036  14.911  30.143  1.00 31.26 LIG 0.16  HD
ENDBRANCH 15 16
BRANCH 15 21
ATOM     21  CB  PHE B1001      29.479  15.485  28.109  1.00 29.45 LIG 0.07  C 
BRANCH 21 22
ATOM     22  CG  PHE B1001      29.623  14.916  26.733  1.00 29.10 LIG-0.06  A 
ATOM     23  CD2 PHE B1001      29.734  13.542  26.547  1.00 29.14 LIG 0.01  A 
ATOM     24  CE2 PHE B1001      29.874  13.008  25.271  1.00 28.22 LIG 0.00  A 
ATOM     25  CZ  PHE B1001      29.904  13.849  24.170  1.00 28.72 LIG 0.00  A 
ATOM     26  CE1 PHE B1001      29.792  15.223  24.346  1.00 29.15 LIG 0.00  A 
ATOM     27  CD1 PHE B1001      29.651  15.749  25.623  1.00 28.88 LIG 0.01  A 
ENDBRANCH 21 22
ENDBRANCH 15 21
ENDBRANCH 10 15
ENDBRANCH 1 8
BRANCH 4 28
ATOM     28  C   PRO B1003      21.498  13.660  26.632  1.00 33.85 LIG 0.24  C 
ATOM     29 O    PRO B1003      21.560  12.881  25.680  1.00 33.94 LIG-0.27  OA
ATOM     30  N   PRO B1004      20.595  13.511  27.613  1.00 34.14 LIG-0.34  N 
ATOM     31  CA  PRO B1004      19.620  12.420  27.573  1.00 34.66 LIG 0.18  C 
ATOM     32  CD  PRO B1004      20.468  14.284  28.862  1.00 34.36 LIG 0.13  C 
ATOM     33  CB  PRO B1004      18.995  12.469  28.967  1.00 34.44 LIG 0.04  C 
ATOM     34  CG  PRO B1004      19.080  13.918  29.322  1.00 34.41 LIG 0.02  C 
BRANCH 31 35
ATOM     35  C   PRO B1004      18.601  12.641  26.451  1.00 35.04 LIG 0.24  C 
ATOM     36  N   PRO B1005      17.569  11.789  26.377  1.00 35.67 LIG-0.34  N 
ATOM     37  CD  PRO B1005      17.349  10.617  27.241  1.00 35.53 LIG 0.13  C 
ATOM     38  CA  PRO B1005      16.518  11.876  25.355  1.00 36.27 LIG 0.17  C 
ATOM     39  CG  PRO B1005      16.435   9.767  26.394  1.00 36.24 LIG 0.02  C 
ATOM     40  CB  PRO B1005      15.543  10.780  25.773  1.00 36.11 LIG 0.04  C 
ATOM     41 O    PRO B1004      18.745  13.563  25.647  1.00 35.22 LIG-0.27  OA
BRANCH 38 42
ATOM     42  C   PRO B1005      15.853  13.249  25.293  1.00 36.62 LIG 0.22  C 
ATOM     43 O    PRO B1005      14.860  13.385  24.546  1.00 36.45 LIG-0.29  OA
ENDBRANCH 38 42
ENDBRANCH 31 35
ENDBRANCH 4 28
TORSDOF 8
ENDMDL
MODEL 26
USER: ADFR SOLUTION from run 104
USER: SCORE 11.736630 LL:  -3.233 LR:  -8.940 RR:   0.000 FEB:  -6.554
USER: RMSD 11.147874
USER: SEED 103
USER: STATUS no improvement in best 24 clusters for 5 generations
USER: GENES 10
USER: genes 0 Translation |==|  0.52452 0.28576 0.76110
USER: genes 1 Rotation |==|  0.71891 0.82216 0.31528 0.75332
USER: genes 2 Torsion [O]-C--CA-[N] |==|  0.91433
USER: genes 3 Torsion [N]-C--CA-[N] |==|  0.13876
USER: genes 4 Torsion [C]-CA--N-[C] |==|  0.62515
USER: genes 5 Torsion [C]-CA--CB-[CG] |==|  0.78461
USER: genes 6 Torsion [CA]-CB--CG-[CD1] |==|  0.26589
USER: genes 7 Torsion [N]-CA--C-[O] |==|  0.79553
USER: genes 8 Torsion [N]-CA--C-[N] |==|  0.30152
USER: genes 9 Torsion [N]-CA--C-[O] |==|  0.25613
ROOT
ATOM      1  C   PRO B1002      20.576  14.573  26.003  1.00 33.09 LIG 0.24  C 
ATOM      2 O    PRO B1002      19.676  15.295  26.443  1.00 32.82 LIG-0.27  OA
ATOM      3  N   PRO B1003      21.751  15.072  25.601  1.00 33.61 LIG-0.34  N 
ATOM      4  CA  PRO B1003      22.001  16.513  25.667  1.00 34.05 LIG 0.18  C 
ATOM      5  CB  PRO B1003      23.482  16.616  25.316  1.00 34.65 LIG 0.04  C 
ATOM      6  CG  PRO B1003      23.672  15.483  24.361  1.00 34.15 LIG 0.02  C 
ATOM      7  CD  PRO B1003      22.912  14.362  25.037  1.00 34.31 LIG 0.13  C 
ENDROOT
BRANCH 1 8
ATOM      8  CA  PRO B1002      20.385  13.064  25.903  1.00 32.09 LIG 0.18  C 
ATOM      9  N   PRO B1002      19.490  12.633  26.975  1.00 31.87 LIG-0.34  N 
ATOM     10  C   PHE B1001      19.966  12.494  28.221  1.00 31.39 LIG 0.24  C 
ATOM     11  CD  PRO B1002      18.162  12.283  26.438  1.00 31.65 LIG 0.13  C 
ATOM     12 O    PHE B1001      21.150  12.707  28.498  1.00 31.36 LIG-0.27  OA
ATOM     13  CG  PRO B1002      18.207  12.885  25.041  1.00 31.59 LIG 0.02  C 
ATOM     14  CB  PRO B1002      19.628  12.656  24.642  1.00 32.35 LIG 0.04  C 
BRANCH 10 15
ATOM     15  CA  PHE B1001      18.984  12.053  29.293  1.00 30.70 LIG 0.18  C 
BRANCH 15 16
ATOM     16  N   PHE B1001      18.233  10.874  28.867  1.00 31.26 LIG-0.35  N 
ATOM     17  C   ACE B1000      16.916  10.778  29.035  1.00 32.54 LIG 0.21  C 
ATOM     18  CH3 ACE B1000      16.383   9.353  28.877  1.00 32.86 LIG 0.12  C 
ATOM     19 O    ACE B1000      16.244  11.645  29.606  1.00 32.71 LIG-0.27  OA
ATOM     20 H    PHE B1001      18.715  10.261  28.503  1.00 31.26 LIG 0.16  HD
ENDBRANCH 15 16
BRANCH 15 21
ATOM     21  CB  PHE B1001      19.790  11.768  30.566  1.00 29.45 LIG 0.07  C 
BRANCH 21 22
ATOM     22  CG  PHE B1001      20.513  10.459  30.554  1.00 29.10 LIG-0.06  A 
ATOM     23  CD2 PHE B1001      19.860   9.289  30.927  1.00 29.14 LIG 0.01  A 
ATOM     24  CE2 PHE B1001      20.530   8.070  30.923  1.00 28.22 LIG 0.00  A 
ATOM     25  CZ  PHE B1001      21.861   8.016  30.546  1.00 28.72 LIG 0.00  A 
ATOM     26  CE1 PHE B1001      22.522   9.180  30.170  1.00 29.15 LIG 0.00  A 
ATOM     27  CD1 PHE B1001      21.847  10.392  30.175  1.00 28.88 LIG 0.01  A 
ENDBRANCH 21 22
ENDBRANCH 15 21
ENDBRANCH 10 15
ENDBRANCH 1 8
BRANCH 4 28
ATOM     28  C   PRO B1003      21.113  17.281  24.688  1.00 33.85 LIG 0.24  C 
ATOM     29 O    PRO B1003      21.338  17.250  23.478  1.00 33.94 LIG-0.27  OA
ATOM     30  N   PRO B1004      20.079  17.964  25.201  1.00 34.14 LIG-0.34  N 
ATOM     31  CA  PRO B1004      19.185  18.731  24.332  1.00 34.66 LIG 0.18  C 
ATOM     32  CD  PRO B1004      19.616  18.006  26.600  1.00 34.36 LIG 0.13  C 
ATOM     33  CB  PRO B1004      18.038  19.108  25.270  1.00 34.44 LIG 0.04  C 
ATOM     34  CG  PRO B1004      18.712  19.213  26.600  1.00 34.41 LIG 0.02  C 
BRANCH 31 35
ATOM     35  C   PRO B1004      19.906  19.949  23.748  1.00 35.04 LIG 0.24  C 
ATOM     36  N   PRO B1005      20.210  19.920  22.442  1.00 35.67 LIG-0.34  N 
ATOM     37  CD  PRO B1005      19.969  18.796  21.521  1.00 35.53 LIG 0.13  C 
ATOM     38  CA  PRO B1005      20.902  21.012  21.746  1.00 36.27 LIG 0.17  C 
ATOM     39  CG  PRO B1005      20.963  19.069  20.421  1.00 36.24 LIG 0.02  C 
ATOM     40  CB  PRO B1005      20.899  20.549  20.293  1.00 36.11 LIG 0.04  C 
ATOM     41 O    PRO B1004      20.201  20.907  24.464  1.00 35.22 LIG-0.27  OA
BRANCH 38 42
ATOM     42  C   PRO B1005      20.216  22.365  21.922  1.00 36.62 LIG 0.22  C 
ATOM     43 O    PRO B1005      20.590  23.092  22.868  1.00 36.45 LIG-0.29  OA
ENDBRANCH 38 42
ENDBRANCH 31 35
ENDBRANCH 4 28
TORSDOF 8
ENDMDL
MODEL 27
USER: ADFR SOLUTION from run 107
USER: SCORE 12.012248 LL:  -3.270 LR:  -8.939 RR:   0.000 FEB:  -6.553
USER: RMSD 10.365084
USER: SEED 106
USER: STATUS no improvement in best 21 clusters for 5 generations
USER: GENES 10
USER: genes 0 Translation |==|  0.58468 0.58319 0.48700
USER: genes 1 Rotation |==|  0.26833 0.10487 0.30097 0.52429
USER: genes 2 Torsion [O]-C--CA-[N] |==|  0.80409
USER: genes 3 Torsion [N]-C--CA-[N] |==|  0.28745
USER: genes 4 Torsion [C]-CA--N-[C] |==|  0.76661
USER: genes 5 Torsion [C]-CA--CB-[CG] |==|  0.62432
USER: genes 6 Torsion [CA]-CB--CG-[CD1] |==|  0.73531
USER: genes 7 Torsion [N]-CA--C-[O] |==|  0.79964
USER: genes 8 Torsion [N]-CA--C-[N] |==|  0.29512
USER: genes 9 Torsion [N]-CA--C-[O] |==|  0.24864
ROOT
ATOM      1  C   PRO B1002      22.380  23.496  17.780  1.00 33.09 LIG 0.24  C 
ATOM      2 O    PRO B1002      21.715  22.491  18.050  1.00 32.82 LIG-0.27  OA
ATOM      3  N   PRO B1003      23.170  24.086  18.686  1.00 33.61 LIG-0.34  N 
ATOM      4  CA  PRO B1003      23.260  23.550  20.045  1.00 34.05 LIG 0.18  C 
ATOM      5  CB  PRO B1003      24.386  24.375  20.660  1.00 34.65 LIG 0.04  C 
ATOM      6  CG  PRO B1003      24.235  25.695  19.978  1.00 34.15 LIG 0.02  C 
ATOM      7  CD  PRO B1003      24.007  25.290  18.538  1.00 34.31 LIG 0.13  C 
ENDROOT
BRANCH 1 8
ATOM      8  CA  PRO B1002      22.334  24.110  16.386  1.00 32.09 LIG 0.18  C 
ATOM      9  N   PRO B1002      23.019  23.214  15.457  1.00 31.87 LIG-0.34  N 
ATOM     10  C   PHE B1001      24.359  23.203  15.411  1.00 31.39 LIG 0.24  C 
ATOM     11  CD  PRO B1002      22.049  22.524  14.586  1.00 31.65 LIG 0.13  C 
ATOM     12 O    PHE B1001      25.045  23.939  16.125  1.00 31.36 LIG-0.27  OA
ATOM     13  CG  PRO B1002      20.730  22.781  15.300  1.00 31.59 LIG 0.02  C 
ATOM     14  CB  PRO B1002      20.917  24.168  15.823  1.00 32.35 LIG 0.04  C 
BRANCH 10 15
ATOM     15  CA  PHE B1001      25.011  22.241  14.431  1.00 30.70 LIG 0.18  C 
BRANCH 15 16
ATOM     16  N   PHE B1001      25.499  22.946  13.248  1.00 31.26 LIG-0.35  N 
ATOM     17  C   ACE B1000      24.705  23.230  12.218  1.00 32.54 LIG 0.21  C 
ATOM     18  CH3 ACE B1000      25.466  23.620  10.950  1.00 32.86 LIG 0.12  C 
ATOM     19 O    ACE B1000      23.521  22.875  12.161  1.00 32.71 LIG-0.27  OA
ATOM     20 H    PHE B1001      26.333  23.157  13.281  1.00 31.26 LIG 0.16  HD
ENDBRANCH 15 16
BRANCH 15 21
ATOM     21  CB  PHE B1001      26.155  21.537  15.170  1.00 29.45 LIG 0.07  C 
BRANCH 21 22
ATOM     22  CG  PHE B1001      27.426  21.445  14.388  1.00 29.10 LIG-0.06  A 
ATOM     23  CD2 PHE B1001      28.328  22.504  14.383  1.00 29.14 LIG 0.01  A 
ATOM     24  CE2 PHE B1001      29.509  22.426  13.653  1.00 28.22 LIG 0.00  A 
ATOM     25  CZ  PHE B1001      29.794  21.286  12.920  1.00 28.72 LIG 0.00  A 
ATOM     26  CE1 PHE B1001      28.899  20.222  12.920  1.00 29.15 LIG 0.00  A 
ATOM     27  CD1 PHE B1001      27.723  20.306  13.652  1.00 28.88 LIG 0.01  A 
ENDBRANCH 21 22
ENDBRANCH 15 21
ENDBRANCH 10 15
ENDBRANCH 1 8
BRANCH 4 28
ATOM     28  C   PRO B1003      21.940  23.709  20.799  1.00 33.85 LIG 0.24  C 
ATOM     29 O    PRO B1003      21.565  24.817  21.184  1.00 33.94 LIG-0.27  OA
ATOM     30  N   PRO B1004      21.209  22.602  21.000  1.00 34.14 LIG-0.34  N 
ATOM     31  CA  PRO B1004      19.936  22.668  21.719  1.00 34.66 LIG 0.18  C 
ATOM     32  CD  PRO B1004      21.465  21.237  20.506  1.00 34.36 LIG 0.13  C 
ATOM     33  CB  PRO B1004      19.339  21.280  21.484  1.00 34.44 LIG 0.04  C 
ATOM     34  CG  PRO B1004      20.549  20.409  21.372  1.00 34.41 LIG 0.02  C 
BRANCH 31 35
ATOM     35  C   PRO B1004      20.162  22.980  23.200  1.00 35.04 LIG 0.24  C 
ATOM     36  N   PRO B1005      19.855  24.214  23.626  1.00 35.67 LIG-0.34  N 
ATOM     37  CD  PRO B1005      19.373  25.325  22.787  1.00 35.53 LIG 0.13  C 
ATOM     38  CA  PRO B1005      20.022  24.657  25.016  1.00 36.27 LIG 0.17  C 
ATOM     39  CG  PRO B1005      19.731  26.529  23.621  1.00 36.24 LIG 0.02  C 
ATOM     40  CB  PRO B1005      19.431  26.063  25.000  1.00 36.11 LIG 0.04  C 
ATOM     41 O    PRO B1004      20.621  22.125  23.958  1.00 35.22 LIG-0.27  OA
BRANCH 38 42
ATOM     42  C   PRO B1005      19.321  23.747  26.023  1.00 36.62 LIG 0.22  C 
ATOM     43 O    PRO B1005      19.966  22.783  26.487  1.00 36.45 LIG-0.29  OA
ENDBRANCH 38 42
ENDBRANCH 31 35
ENDBRANCH 4 28
TORSDOF 8
ENDMDL
MODEL 28
USER: ADFR SOLUTION from run 107
USER: SCORE 12.228306 LL:  -3.494 LR:  -8.931 RR:   0.000 FEB:  -6.544
USER: RMSD 5.278814
USER: SEED 106
USER: STATUS no improvement in best 21 clusters for 5 generations
USER: GENES 10
USER: genes 0 Translation |==|  0.56915 0.58626 0.49067
USER: genes 1 Rotation |==|  0.25583 0.45525 0.88590 0.69864
USER: genes 2 Torsion [O]-C--CA-[N] |==|  0.79245
USER: genes 3 Torsion [N]-C--CA-[N] |==|  0.32240
USER: genes 4 Torsion [C]-CA--N-[C] |==|  0.68889
USER: genes 5 Torsion [C]-CA--CB-[CG] |==|  0.72268
USER: genes 6 Torsion [CA]-CB--CG-[CD1] |==|  0.74236
USER: genes 7 Torsion [N]-CA--C-[O] |==|  0.84957
USER: genes 8 Torsion [N]-CA--C-[N] |==|  0.32182
USER: genes 9 Torsion [N]-CA--C-[O] |==|  0.35334
ROOT
ATOM      1  C   PRO B1002      21.914  23.588  17.890  1.00 33.09 LIG 0.24  C 
ATOM      2 O    PRO B1002      23.147  23.592  17.813  1.00 32.82 LIG-0.27  OA
ATOM      3  N   PRO B1003      21.150  22.987  16.969  1.00 33.61 LIG-0.34  N 
ATOM      4  CA  PRO B1003      21.766  22.315  15.825  1.00 34.05 LIG 0.18  C 
ATOM      5  CB  PRO B1003      20.581  21.618  15.163  1.00 34.65 LIG 0.04  C 
ATOM      6  CG  PRO B1003      19.452  22.555  15.445  1.00 34.15 LIG 0.02  C 
ATOM      7  CD  PRO B1003      19.680  22.906  16.899  1.00 34.31 LIG 0.13  C 
ENDROOT
BRANCH 1 8
ATOM      8  CA  PRO B1002      21.204  24.270  19.053  1.00 32.09 LIG 0.18  C 
ATOM      9  N   PRO B1002      21.356  23.439  20.246  1.00 31.87 LIG-0.34  N 
ATOM     10  C   PHE B1001      20.581  22.356  20.404  1.00 31.39 LIG 0.24  C 
ATOM     11  CD  PRO B1002      22.311  24.049  21.189  1.00 31.65 LIG 0.13  C 
ATOM     12 O    PHE B1001      19.725  22.036  19.574  1.00 31.36 LIG-0.27  OA
ATOM     13  CG  PRO B1002      22.997  25.098  20.326  1.00 31.59 LIG 0.02  C 
ATOM     14  CB  PRO B1002      21.877  25.578  19.460  1.00 32.35 LIG 0.04  C 
BRANCH 10 15
ATOM     15  CA  PHE B1001      20.794  21.528  21.660  1.00 30.70 LIG 0.18  C 
BRANCH 15 16
ATOM     16  N   PHE B1001      19.606  21.545  22.509  1.00 31.26 LIG-0.35  N 
ATOM     17  C   ACE B1000      19.595  22.150  23.695  1.00 32.54 LIG 0.21  C 
ATOM     18  CH3 ACE B1000      18.413  21.744  24.576  1.00 32.86 LIG 0.12  C 
ATOM     19 O    ACE B1000      20.593  22.692  24.185  1.00 32.71 LIG-0.27  OA
ATOM     20 H    PHE B1001      18.928  21.134  22.176  1.00 31.26 LIG 0.16  HD
ENDBRANCH 15 16
BRANCH 15 21
ATOM     21  CB  PHE B1001      21.141  20.101  21.217  1.00 29.45 LIG 0.07  C 
BRANCH 21 22
ATOM     22  CG  PHE B1001      19.993  19.145  21.273  1.00 29.10 LIG-0.06  A 
ATOM     23  CD2 PHE B1001      19.126  19.020  20.192  1.00 29.14 LIG 0.01  A 
ATOM     24  CE2 PHE B1001      18.054  18.137  20.241  1.00 28.22 LIG 0.00  A 
ATOM     25  CZ  PHE B1001      17.840  17.373  21.376  1.00 28.72 LIG 0.00  A 
ATOM     26  CE1 PHE B1001      18.701  17.490  22.461  1.00 29.15 LIG 0.00  A 
ATOM     27  CD1 PHE B1001      19.771  18.372  22.405  1.00 28.88 LIG 0.01  A 
ENDBRANCH 21 22
ENDBRANCH 15 21
ENDBRANCH 10 15
ENDBRANCH 1 8
BRANCH 4 28
ATOM     28  C   PRO B1003      22.453  23.313  14.892  1.00 33.85 LIG 0.24  C 
ATOM     29 O    PRO B1003      21.835  24.276  14.437  1.00 33.94 LIG-0.27  OA
ATOM     30  N   PRO B1004      23.749  23.105  14.614  1.00 34.14 LIG-0.34  N 
ATOM     31  CA  PRO B1004      24.478  24.010  13.725  1.00 34.66 LIG 0.18  C 
ATOM     32  CD  PRO B1004      24.646  22.074  15.166  1.00 34.36 LIG 0.13  C 
ATOM     33  CB  PRO B1004      25.930  23.568  13.903  1.00 34.44 LIG 0.04  C 
ATOM     34  CG  PRO B1004      25.802  22.108  14.199  1.00 34.41 LIG 0.02  C 
BRANCH 31 35
ATOM     35  C   PRO B1004      23.982  23.874  12.283  1.00 35.04 LIG 0.24  C 
ATOM     36  N   PRO B1005      23.392  24.942  11.728  1.00 35.67 LIG-0.34  N 
ATOM     37  CD  PRO B1005      23.121  26.226  12.396  1.00 35.53 LIG 0.13  C 
ATOM     38  CA  PRO B1005      22.867  24.958  10.357  1.00 36.27 LIG 0.17  C 
ATOM     39  CG  PRO B1005      22.008  26.794  11.552  1.00 36.24 LIG 0.02  C 
ATOM     40  CB  PRO B1005      22.421  26.405  10.177  1.00 36.11 LIG 0.04  C 
ATOM     41 O    PRO B1004      24.114  22.812  11.673  1.00 35.22 LIG-0.27  OA
BRANCH 38 42
ATOM     42  C   PRO B1005      23.900  24.538   9.313  1.00 36.62 LIG 0.22  C 
ATOM     43 O    PRO B1005      23.590  23.625   8.518  1.00 36.45 LIG-0.29  OA
ENDBRANCH 38 42
ENDBRANCH 31 35
ENDBRANCH 4 28
TORSDOF 8
ENDMDL
MODEL 29
USER: ADFR SOLUTION from run 26
USER: SCORE 11.988611 LL:  -3.150 LR:  -8.931 RR:   0.000 FEB:  -6.545
USER: RMSD 8.143089
USER: SEED 25
USER: STATUS no improvement in best 21 clusters for 5 generations
USER: GENES 10
USER: genes 0 Translation |==|  0.48024 0.42707 0.66516
USER: genes 1 Rotation |==|  0.37829 0.34353 0.94745 0.60243
USER: genes 2 Torsion [O]-C--CA-[N] |==|  0.78534
USER: genes 3 Torsion [N]-C--CA-[N] |==|  0.47754
USER: genes 4 Torsion [C]-CA--N-[C] |==|  0.77853
USER: genes 5 Torsion [C]-CA--CB-[CG] |==|  0.53197
USER: genes 6 Torsion [CA]-CB--CG-[CD1] |==|  0.35172
USER: genes 7 Torsion [N]-CA--C-[O] |==|  0.79455
USER: genes 8 Torsion [N]-CA--C-[N] |==|  0.30090
USER: genes 9 Torsion [N]-CA--C-[O] |==|  0.57866
ROOT
ATOM      1  C   PRO B1002      19.247  18.812  23.125  1.00 33.09 LIG 0.24  C 
ATOM      2 O    PRO B1002      20.132  19.633  22.866  1.00 32.82 LIG-0.27  OA
ATOM      3  N   PRO B1003      18.671  18.068  22.172  1.00 33.61 LIG-0.34  N 
ATOM      4  CA  PRO B1003      19.079  18.218  20.774  1.00 34.05 LIG 0.18  C 
ATOM      5  CB  PRO B1003      18.340  17.076  20.083  1.00 34.65 LIG 0.04  C 
ATOM      6  CG  PRO B1003      17.084  16.966  20.884  1.00 34.15 LIG 0.02  C 
ATOM      7  CD  PRO B1003      17.598  17.067  22.304  1.00 34.31 LIG 0.13  C 
ENDROOT
BRANCH 1 8
ATOM      8  CA  PRO B1002      18.772  18.605  24.558  1.00 32.09 LIG 0.18  C 
ATOM      9  N   PRO B1002      19.761  17.796  25.267  1.00 31.87 LIG-0.34  N 
ATOM     10  C   PHE B1001      19.790  16.468  25.081  1.00 31.39 LIG 0.24  C 
ATOM     11  CD  PRO B1002      20.523  18.621  26.222  1.00 31.65 LIG 0.13  C 
ATOM     12 O    PHE B1001      18.994  15.894  24.332  1.00 31.36 LIG-0.27  OA
ATOM     13  CG  PRO B1002      20.185  20.036  25.773  1.00 31.59 LIG 0.02  C 
ATOM     14  CB  PRO B1002      18.755  19.904  25.359  1.00 32.35 LIG 0.04  C 
BRANCH 10 15
ATOM     15  CA  PHE B1001      20.849  15.684  25.839  1.00 30.70 LIG 0.18  C 
BRANCH 15 16
ATOM     16  N   PHE B1001      20.644  14.246  25.692  1.00 31.26 LIG-0.35  N 
ATOM     17  C   ACE B1000      19.737  13.586  26.409  1.00 32.54 LIG 0.21  C 
ATOM     18  CH3 ACE B1000      19.930  12.069  26.389  1.00 32.86 LIG 0.12  C 
ATOM     19 O    ACE B1000      19.044  14.124  27.281  1.00 32.71 LIG-0.27  OA
ATOM     20 H    PHE B1001      21.155  13.874  25.109  1.00 31.26 LIG 0.16  HD
ENDBRANCH 15 16
BRANCH 15 21
ATOM     21  CB  PHE B1001      22.216  16.110  25.291  1.00 29.45 LIG 0.07  C 
BRANCH 21 22
ATOM     22  CG  PHE B1001      23.352  15.244  25.735  1.00 29.10 LIG-0.06  A 
ATOM     23  CD2 PHE B1001      23.565  15.000  27.087  1.00 29.14 LIG 0.01  A 
ATOM     24  CE2 PHE B1001      24.623  14.200  27.505  1.00 28.22 LIG 0.00  A 
ATOM     25  CZ  PHE B1001      25.476  13.638  26.570  1.00 28.72 LIG 0.00  A 
ATOM     26  CE1 PHE B1001      25.269  13.875  25.215  1.00 29.15 LIG 0.00  A 
ATOM     27  CD1 PHE B1001      24.211  14.674  24.805  1.00 28.88 LIG 0.01  A 
ENDBRANCH 21 22
ENDBRANCH 15 21
ENDBRANCH 10 15
ENDBRANCH 1 8
BRANCH 4 28
ATOM     28  C   PRO B1003      18.688  19.588  20.220  1.00 33.85 LIG 0.24  C 
ATOM     29 O    PRO B1003      17.514  19.845  19.949  1.00 33.94 LIG-0.27  OA
ATOM     30  N   PRO B1004      19.667  20.491  20.065  1.00 34.14 LIG-0.34  N 
ATOM     31  CA  PRO B1004      19.376  21.824  19.534  1.00 34.66 LIG 0.18  C 
ATOM     32  CD  PRO B1004      21.086  20.375  20.447  1.00 34.36 LIG 0.13  C 
ATOM     33  CB  PRO B1004      20.683  22.580  19.777  1.00 34.44 LIG 0.04  C 
ATOM     34  CG  PRO B1004      21.716  21.506  19.675  1.00 34.41 LIG 0.02  C 
BRANCH 31 35
ATOM     35  C   PRO B1004      18.993  21.750  18.054  1.00 35.04 LIG 0.24  C 
ATOM     36  N   PRO B1005      17.709  21.969  17.736  1.00 35.67 LIG-0.34  N 
ATOM     37  CD  PRO B1005      16.612  22.219  18.686  1.00 35.53 LIG 0.13  C 
ATOM     38  CA  PRO B1005      17.196  21.928  16.361  1.00 36.27 LIG 0.17  C 
ATOM     39  CG  PRO B1005      15.399  21.836  17.876  1.00 36.24 LIG 0.02  C 
ATOM     40  CB  PRO B1005      15.741  22.354  16.525  1.00 36.11 LIG 0.04  C 
ATOM     41 O    PRO B1004      19.840  21.484  17.200  1.00 35.22 LIG-0.27  OA
BRANCH 38 42
ATOM     42  C   PRO B1005      17.962  22.844  15.407  1.00 36.62 LIG 0.22  C 
ATOM     43 O    PRO B1005      17.348  23.307  14.423  1.00 36.45 LIG-0.29  OA
ENDBRANCH 38 42
ENDBRANCH 31 35
ENDBRANCH 4 28
TORSDOF 8
ENDMDL
MODEL 30
USER: ADFR SOLUTION from run 25
USER: SCORE 11.656666 LL:  -2.938 LR:  -8.925 RR:   0.000 FEB:  -6.538
USER: RMSD 15.681400
USER: SEED 24
USER: STATUS no improvement in best 10 clusters for 5 generations
USER: GENES 10
USER: genes 0 Translation |==|  0.43460 0.21302 0.78291
USER: genes 1 Rotation |==|  0.26242 0.78322 0.69661 0.77329
USER: genes 2 Torsion [O]-C--CA-[N] |==|  0.00356
USER: genes 3 Torsion [N]-C--CA-[N] |==|  0.28055
USER: genes 4 Torsion [C]-CA--N-[C] |==|  0.73025
USER: genes 5 Torsion [C]-CA--CB-[CG] |==|  0.43964
USER: genes 6 Torsion [CA]-CB--CG-[CD1] |==|  0.08652
USER: genes 7 Torsion [N]-CA--C-[O] |==|  0.95489
USER: genes 8 Torsion [N]-CA--C-[N] |==|  0.53061
USER: genes 9 Torsion [N]-CA--C-[O] |==|  0.41571
ROOT
ATOM      1  C   PRO B1002      17.878  12.391  26.657  1.00 33.09 LIG 0.24  C 
ATOM      2 O    PRO B1002      18.200  11.248  26.999  1.00 32.82 LIG-0.27  OA
ATOM      3  N   PRO B1003      16.652  12.673  26.197  1.00 33.61 LIG-0.34  N 
ATOM      4  CA  PRO B1003      15.649  11.614  26.079  1.00 34.05 LIG 0.18  C 
ATOM      5  CB  PRO B1003      14.383  12.386  25.722  1.00 34.65 LIG 0.04  C 
ATOM      6  CG  PRO B1003      14.912  13.530  24.920  1.00 34.15 LIG 0.02  C 
ATOM      7  CD  PRO B1003      16.114  13.963  25.732  1.00 34.31 LIG 0.13  C 
ENDROOT
BRANCH 1 8
ATOM      8  CA  PRO B1002      18.872  13.542  26.751  1.00 32.09 LIG 0.18  C 
ATOM      9  N   PRO B1002      20.145  13.022  27.248  1.00 31.87 LIG-0.34  N 
ATOM     10  C   PHE B1001      20.297  12.780  28.558  1.00 31.39 LIG 0.24  C 
ATOM     11  CD  PRO B1002      21.146  12.971  26.166  1.00 31.65 LIG 0.13  C 
ATOM     12 O    PHE B1001      19.394  12.993  29.372  1.00 31.36 LIG-0.27  OA
ATOM     13  CG  PRO B1002      20.288  13.138  24.920  1.00 31.59 LIG 0.02  C 
ATOM     14  CB  PRO B1002      19.243  14.102  25.381  1.00 32.35 LIG 0.04  C 
BRANCH 10 15
ATOM     15  CA  PHE B1001      21.640  12.231  29.010  1.00 30.70 LIG 0.18  C 
BRANCH 15 16
ATOM     16  N   PHE B1001      22.470  13.283  29.591  1.00 31.26 LIG-0.35  N 
ATOM     17  C   ACE B1000      23.402  13.917  28.882  1.00 32.54 LIG 0.21  C 
ATOM     18  CH3 ACE B1000      24.397  14.696  29.743  1.00 32.86 LIG 0.12  C 
ATOM     19 O    ACE B1000      23.670  13.630  27.709  1.00 32.71 LIG-0.27  OA
ATOM     20 H    PHE B1001      22.301  13.451  30.417  1.00 31.26 LIG 0.16  HD
ENDBRANCH 15 16
BRANCH 15 21
ATOM     21  CB  PHE B1001      21.362  11.117  30.027  1.00 29.45 LIG 0.07  C 
BRANCH 21 22
ATOM     22  CG  PHE B1001      22.485  10.142  30.190  1.00 29.10 LIG-0.06  A 
ATOM     23  CD2 PHE B1001      22.224   8.816  30.516  1.00 29.14 LIG 0.01  A 
ATOM     24  CE2 PHE B1001      23.263   7.906  30.675  1.00 28.22 LIG 0.00  A 
ATOM     25  CZ  PHE B1001      24.575   8.321  30.510  1.00 28.72 LIG 0.00  A 
ATOM     26  CE1 PHE B1001      24.845   9.645  30.182  1.00 29.15 LIG 0.00  A 
ATOM     27  CD1 PHE B1001      23.802  10.547  30.024  1.00 28.88 LIG 0.01  A 
ENDBRANCH 21 22
ENDBRANCH 15 21
ENDBRANCH 10 15
ENDBRANCH 1 8
BRANCH 4 28
ATOM     28  C   PRO B1003      16.033  10.594  25.008  1.00 33.85 LIG 0.24  C 
ATOM     29 O    PRO B1003      16.897  10.856  24.171  1.00 33.94 LIG-0.27  OA
ATOM     30  N   PRO B1004      15.409   9.407  25.036  1.00 34.14 LIG-0.34  N 
ATOM     31  CA  PRO B1004      15.715   8.377  24.041  1.00 34.66 LIG 0.18  C 
ATOM     32  CD  PRO B1004      14.445   8.906  26.032  1.00 34.36 LIG 0.13  C 
ATOM     33  CB  PRO B1004      15.001   7.144  24.595  1.00 34.44 LIG 0.04  C 
ATOM     34  CG  PRO B1004      13.830   7.730  25.315  1.00 34.41 LIG 0.02  C 
BRANCH 31 35
ATOM     35  C   PRO B1004      15.210   8.790  22.656  1.00 35.04 LIG 0.24  C 
ATOM     36  N   PRO B1005      15.215   7.858  21.693  1.00 35.67 LIG-0.34  N 
ATOM     37  CD  PRO B1005      15.718   6.480  21.823  1.00 35.53 LIG 0.13  C 
ATOM     38  CA  PRO B1005      14.764   8.110  20.319  1.00 36.27 LIG 0.17  C 
ATOM     39  CG  PRO B1005      15.996   6.107  20.389  1.00 36.24 LIG 0.02  C 
ATOM     40  CB  PRO B1005      14.855   6.732  19.670  1.00 36.11 LIG 0.04  C 
ATOM     41 O    PRO B1004      14.830   9.943  22.446  1.00 35.22 LIG-0.27  OA
BRANCH 38 42
ATOM     42  C   PRO B1005      13.352   8.689  20.247  1.00 36.62 LIG 0.22  C 
ATOM     43 O    PRO B1005      13.080   9.450  19.294  1.00 36.45 LIG-0.29  OA
ENDBRANCH 38 42
ENDBRANCH 31 35
ENDBRANCH 4 28
TORSDOF 8
ENDMDL
MODEL 31
USER: ADFR SOLUTION from run 85
USER: SCORE 11.503133 LL:  -3.181 LR:  -8.906 RR:   0.000 FEB:  -6.520
USER: RMSD 16.280876
USER: SEED 84
USER: STATUS no improvement in best 13 clusters for 5 generations
USER: GENES 10
USER: genes 0 Translation |==|  0.77673 0.24280 0.76371
USER: genes 1 Rotation |==|  0.79414 0.53134 0.88339 0.62454
USER: genes 2 Torsion [O]-C--CA-[N] |==|  0.81311
USER: genes 3 Torsion [N]-C--CA-[N] |==|  0.20478
USER: genes 4 Torsion [C]-CA--N-[C] |==|  0.57778
USER: genes 5 Torsion [C]-CA--CB-[CG] |==|  0.40402
USER: genes 6 Torsion [CA]-CB--CG-[CD1] |==|  0.73271
USER: genes 7 Torsion [N]-CA--C-[O] |==|  0.79221
USER: genes 8 Torsion [N]-CA--C-[N] |==|  0.30109
USER: genes 9 Torsion [N]-CA--C-[O] |==|  0.31848
ROOT
ATOM      1  C   PRO B1002      28.142  13.284  26.081  1.00 33.09 LIG 0.24  C 
ATOM      2 O    PRO B1002      27.382  13.930  25.353  1.00 32.82 LIG-0.27  OA
ATOM      3  N   PRO B1003      27.691  12.330  26.906  1.00 33.61 LIG-0.34  N 
ATOM      4  CA  PRO B1003      26.260  12.030  26.971  1.00 34.05 LIG 0.18  C 
ATOM      5  CB  PRO B1003      26.215  10.786  27.852  1.00 34.65 LIG 0.04  C 
ATOM      6  CG  PRO B1003      27.363  11.002  28.783  1.00 34.15 LIG 0.02  C 
ATOM      7  CD  PRO B1003      28.449  11.487  27.846  1.00 34.31 LIG 0.13  C 
ENDROOT
BRANCH 1 8
ATOM      8  CA  PRO B1002      29.643  13.544  26.068  1.00 32.09 LIG 0.18  C 
ATOM      9  N   PRO B1002      30.178  13.133  24.772  1.00 31.87 LIG-0.34  N 
ATOM     10  C   PHE B1001      30.398  11.833  24.527  1.00 31.39 LIG 0.24  C 
ATOM     11  CD  PRO B1002      30.523  14.309  23.951  1.00 31.65 LIG 0.13  C 
ATOM     12 O    PHE B1001      30.174  10.960  25.370  1.00 31.36 LIG-0.27  OA
ATOM     13  CG  PRO B1002      29.816  15.438  24.688  1.00 31.59 LIG 0.02  C 
ATOM     14  CB  PRO B1002      29.976  15.033  26.118  1.00 32.35 LIG 0.04  C 
BRANCH 10 15
ATOM     15  CA  PHE B1001      30.945  11.469  23.156  1.00 30.70 LIG 0.18  C 
BRANCH 15 16
ATOM     16  N   PHE B1001      32.355  11.832  23.039  1.00 31.26 LIG-0.35  N 
ATOM     17  C   ACE B1000      32.911  12.134  21.867  1.00 32.54 LIG 0.21  C 
ATOM     18  CH3 ACE B1000      34.440  12.116  21.894  1.00 32.86 LIG 0.12  C 
ATOM     19 O    ACE B1000      32.297  12.078  20.795  1.00 32.71 LIG-0.27  OA
ATOM     20 H    PHE B1001      32.783  11.833  23.785  1.00 31.26 LIG 0.16  HD
ENDBRANCH 15 16
BRANCH 15 21
ATOM     21  CB  PHE B1001      30.742   9.961  22.966  1.00 29.45 LIG 0.07  C 
BRANCH 21 22
ATOM     22  CG  PHE B1001      30.437   9.555  21.559  1.00 29.10 LIG-0.06  A 
ATOM     23  CD2 PHE B1001      31.465   9.364  20.642  1.00 29.14 LIG 0.01  A 
ATOM     24  CE2 PHE B1001      31.187   8.993  19.332  1.00 28.22 LIG 0.00  A 
ATOM     25  CZ  PHE B1001      29.874   8.812  18.929  1.00 28.72 LIG 0.00  A 
ATOM     26  CE1 PHE B1001      28.840   9.000  19.839  1.00 29.15 LIG 0.00  A 
ATOM     27  CD1 PHE B1001      29.125   9.369  21.146  1.00 28.88 LIG 0.01  A 
ENDBRANCH 21 22
ENDBRANCH 15 21
ENDBRANCH 10 15
ENDBRANCH 1 8
BRANCH 4 28
ATOM     28  C   PRO B1003      25.468  13.195  27.564  1.00 33.85 LIG 0.24  C 
ATOM     29 O    PRO B1003      25.503  13.428  28.772  1.00 33.94 LIG-0.27  OA
ATOM     30  N   PRO B1004      24.762  13.955  26.714  1.00 34.14 LIG-0.34  N 
ATOM     31  CA  PRO B1004      23.972  15.087  27.203  1.00 34.66 LIG 0.18  C 
ATOM     32  CD  PRO B1004      24.712  13.875  25.243  1.00 34.36 LIG 0.13  C 
ATOM     33  CB  PRO B1004      23.570  15.805  25.914  1.00 34.44 LIG 0.04  C 
ATOM     34  CG  PRO B1004      23.484  14.690  24.922  1.00 34.41 LIG 0.02  C 
BRANCH 31 35
ATOM     35  C   PRO B1004      22.771  14.602  28.018  1.00 35.04 LIG 0.24  C 
ATOM     36  N   PRO B1005      22.806  14.792  29.345  1.00 35.67 LIG-0.34  N 
ATOM     37  CD  PRO B1005      23.924  15.375  30.107  1.00 35.53 LIG 0.13  C 
ATOM     38  CA  PRO B1005      21.730  14.377  30.252  1.00 36.27 LIG 0.17  C 
ATOM     39  CG  PRO B1005      23.673  14.842  31.495  1.00 36.24 LIG 0.02  C 
ATOM     40  CB  PRO B1005      22.192  14.917  31.602  1.00 36.11 LIG 0.04  C 
ATOM     41 O    PRO B1004      21.821  14.047  27.465  1.00 35.22 LIG-0.27  OA
BRANCH 38 42
ATOM     42  C   PRO B1005      20.361  14.923  29.850  1.00 36.62 LIG 0.22  C 
ATOM     43 O    PRO B1005      19.486  14.105  29.495  1.00 36.45 LIG-0.29  OA
ENDBRANCH 38 42
ENDBRANCH 31 35
ENDBRANCH 4 28
TORSDOF 8
ENDMDL
MODEL 32
USER: ADFR SOLUTION from run 131
USER: SCORE 12.248928 LL:  -3.568 LR:  -8.893 RR:   0.000 FEB:  -6.506
USER: RMSD 9.646472
USER: SEED 130
USER: STATUS no improvement in best 12 clusters for 5 generations
USER: GENES 10
USER: genes 0 Translation |==|  0.48714 0.46533 0.73220
USER: genes 1 Rotation |==|  0.56418 0.41574 0.01243 0.53254
USER: genes 2 Torsion [O]-C--CA-[N] |==|  0.05082
USER: genes 3 Torsion [N]-C--CA-[N] |==|  0.47498
USER: genes 4 Torsion [C]-CA--N-[C] |==|  0.68211
USER: genes 5 Torsion [C]-CA--CB-[CG] |==|  0.77952
USER: genes 6 Torsion [CA]-CB--CG-[CD1] |==|  0.27822
USER: genes 7 Torsion [N]-CA--C-[O] |==|  0.79166
USER: genes 8 Torsion [N]-CA--C-[N] |==|  0.49474
USER: genes 9 Torsion [N]-CA--C-[O] |==|  0.91198
ROOT
ATOM      1  C   PRO B1002      19.454  19.960  25.136  1.00 33.09 LIG 0.24  C 
ATOM      2 O    PRO B1002      19.882  20.235  24.011  1.00 32.82 LIG-0.27  OA
ATOM      3  N   PRO B1003      19.207  18.698  25.510  1.00 33.61 LIG-0.34  N 
ATOM      4  CA  PRO B1003      19.435  17.595  24.575  1.00 34.05 LIG 0.18  C 
ATOM      5  CB  PRO B1003      19.227  16.362  25.450  1.00 34.65 LIG 0.04  C 
ATOM      6  CG  PRO B1003      18.187  16.820  26.419  1.00 34.15 LIG 0.02  C 
ATOM      7  CD  PRO B1003      18.681  18.201  26.793  1.00 34.31 LIG 0.13  C 
ENDROOT
BRANCH 1 8
ATOM      8  CA  PRO B1002      19.192  21.057  26.160  1.00 32.09 LIG 0.18  C 
ATOM      9  N   PRO B1002      19.099  22.337  25.461  1.00 31.87 LIG-0.34  N 
ATOM     10  C   PHE B1001      20.218  22.964  25.072  1.00 31.39 LIG 0.24  C 
ATOM     11  CD  PRO B1002      17.702  22.807  25.415  1.00 31.65 LIG 0.13  C 
ATOM     12 O    PHE B1001      21.340  22.500  25.295  1.00 31.36 LIG-0.27  OA
ATOM     13  CG  PRO B1002      16.924  21.556  25.798  1.00 31.59 LIG 0.02  C 
ATOM     14  CB  PRO B1002      17.820  20.925  26.815  1.00 32.35 LIG 0.04  C 
BRANCH 10 15
ATOM     15  CA  PHE B1001      20.055  24.286  24.341  1.00 30.70 LIG 0.18  C 
BRANCH 15 16
ATOM     16  N   PHE B1001      21.342  24.954  24.167  1.00 31.26 LIG-0.35  N 
ATOM     17  C   ACE B1000      21.622  26.112  24.763  1.00 32.54 LIG 0.21  C 
ATOM     18  CH3 ACE B1000      22.840  26.823  24.172  1.00 32.86 LIG 0.12  C 
ATOM     19 O    ACE B1000      20.805  26.728  25.457  1.00 32.71 LIG-0.27  OA
ATOM     20 H    PHE B1001      21.890  24.536  23.653  1.00 31.26 LIG 0.16  HD
ENDBRANCH 15 16
BRANCH 15 21
ATOM     21  CB  PHE B1001      19.397  23.986  22.989  1.00 29.45 LIG 0.07  C 
BRANCH 21 22
ATOM     22  CG  PHE B1001      20.339  23.464  21.951  1.00 29.10 LIG-0.06  A 
ATOM     23  CD2 PHE B1001      21.161  24.336  21.244  1.00 29.14 LIG 0.01  A 
ATOM     24  CE2 PHE B1001      22.035  23.857  20.274  1.00 28.22 LIG 0.00  A 
ATOM     25  CZ  PHE B1001      22.090  22.500  20.004  1.00 28.72 LIG 0.00  A 
ATOM     26  CE1 PHE B1001      21.273  21.621  20.707  1.00 29.15 LIG 0.00  A 
ATOM     27  CD1 PHE B1001      20.405  22.106  21.674  1.00 28.88 LIG 0.01  A 
ENDBRANCH 21 22
ENDBRANCH 15 21
ENDBRANCH 10 15
ENDBRANCH 1 8
BRANCH 4 28
ATOM     28  C   PRO B1003      18.462  17.648  23.398  1.00 33.85 LIG 0.24  C 
ATOM     29 O    PRO B1003      17.284  17.316  23.541  1.00 33.94 LIG-0.27  OA
ATOM     30  N   PRO B1004      18.939  18.087  22.224  1.00 34.14 LIG-0.34  N 
ATOM     31  CA  PRO B1004      18.073  18.161  21.046  1.00 34.66 LIG 0.18  C 
ATOM     32  CD  PRO B1004      20.279  18.622  21.926  1.00 34.36 LIG 0.13  C 
ATOM     33  CB  PRO B1004      18.924  18.942  20.045  1.00 34.44 LIG 0.04  C 
ATOM     34  CG  PRO B1004      20.319  18.558  20.420  1.00 34.41 LIG 0.02  C 
BRANCH 31 35
ATOM     35  C   PRO B1004      17.701  16.760  20.553  1.00 35.04 LIG 0.24  C 
ATOM     36  N   PRO B1005      16.877  16.673  19.499  1.00 35.67 LIG-0.34  N 
ATOM     37  CD  PRO B1005      16.242  17.804  18.801  1.00 35.53 LIG 0.13  C 
ATOM     38  CA  PRO B1005      16.433  15.400  18.920  1.00 36.27 LIG 0.17  C 
ATOM     39  CG  PRO B1005      15.061  17.143  18.137  1.00 36.24 LIG 0.02  C 
ATOM     40  CB  PRO B1005      15.628  15.840  17.701  1.00 36.11 LIG 0.04  C 
ATOM     41 O    PRO B1004      18.140  15.759  21.121  1.00 35.22 LIG-0.27  OA
BRANCH 38 42
ATOM     42  C   PRO B1005      17.590  14.475  18.545  1.00 36.62 LIG 0.22  C 
ATOM     43 O    PRO B1005      18.662  15.001  18.176  1.00 36.45 LIG-0.29  OA
ENDBRANCH 38 42
ENDBRANCH 31 35
ENDBRANCH 4 28
TORSDOF 8
ENDMDL
MODEL 33
USER: ADFR SOLUTION from run 115
USER: SCORE 12.186518 LL:  -3.472 LR:  -8.882 RR:   0.000 FEB:  -6.495
USER: RMSD 10.885074
USER: SEED 114
USER: STATUS no improvement in best 21 clusters for 5 generations
USER: GENES 10
USER: genes 0 Translation |==|  0.48611 0.41885 0.66130
USER: genes 1 Rotation |==|  0.59863 0.16369 0.23936 0.74339
USER: genes 2 Torsion [O]-C--CA-[N] |==|  0.91752
USER: genes 3 Torsion [N]-C--CA-[N] |==|  0.30444
USER: genes 4 Torsion [C]-CA--N-[C] |==|  0.73655
USER: genes 5 Torsion [C]-CA--CB-[CG] |==|  0.56368
USER: genes 6 Torsion [CA]-CB--CG-[CD1] |==|  0.30720
USER: genes 7 Torsion [N]-CA--C-[O] |==|  0.94415
USER: genes 8 Torsion [N]-CA--C-[N] |==|  0.34108
USER: genes 9 Torsion [N]-CA--C-[O] |==|  0.95805
ROOT
ATOM      1  C   PRO B1002      19.423  18.565  23.009  1.00 33.09 LIG 0.24  C 
ATOM      2 O    PRO B1002      20.273  17.952  22.356  1.00 32.82 LIG-0.27  OA
ATOM      3  N   PRO B1003      19.559  18.777  24.324  1.00 33.61 LIG-0.34  N 
ATOM      4  CA  PRO B1003      20.735  18.271  25.034  1.00 34.05 LIG 0.18  C 
ATOM      5  CB  PRO B1003      20.586  18.892  26.420  1.00 34.65 LIG 0.04  C 
ATOM      6  CG  PRO B1003      19.104  18.951  26.595  1.00 34.15 LIG 0.02  C 
ATOM      7  CD  PRO B1003      18.641  19.465  25.249  1.00 34.31 LIG 0.13  C 
ENDROOT
BRANCH 1 8
ATOM      8  CA  PRO B1002      18.173  19.119  22.337  1.00 32.09 LIG 0.18  C 
ATOM      9  N   PRO B1002      18.492  19.442  20.947  1.00 31.87 LIG-0.34  N 
ATOM     10  C   PHE B1001      19.150  20.575  20.664  1.00 31.39 LIG 0.24  C 
ATOM     11  CD  PRO B1002      17.884  18.461  20.030  1.00 31.65 LIG 0.13  C 
ATOM     12 O    PHE B1001      19.490  21.372  21.543  1.00 31.36 LIG-0.27  OA
ATOM     13  CG  PRO B1002      17.498  17.329  20.972  1.00 31.59 LIG 0.02  C 
ATOM     14  CB  PRO B1002      17.074  18.069  22.199  1.00 32.35 LIG 0.04  C 
BRANCH 10 15
ATOM     15  CA  PHE B1001      19.461  20.849  19.202  1.00 30.70 LIG 0.18  C 
BRANCH 15 16
ATOM     16  N   PHE B1001      18.655  21.954  18.690  1.00 31.26 LIG-0.35  N 
ATOM     17  C   ACE B1000      17.505  21.751  18.051  1.00 32.54 LIG 0.21  C 
ATOM     18  CH3 ACE B1000      17.011  22.975  17.278  1.00 32.86 LIG 0.12  C 
ATOM     19 O    ACE B1000      17.064  20.623  17.797  1.00 32.71 LIG-0.27  OA
ATOM     20 H    PHE B1001      18.988  22.733  18.839  1.00 31.26 LIG 0.16  HD
ENDBRANCH 15 16
BRANCH 15 21
ATOM     21  CB  PHE B1001      20.959  21.161  19.101  1.00 29.45 LIG 0.07  C 
BRANCH 21 22
ATOM     22  CG  PHE B1001      21.340  21.959  17.895  1.00 29.10 LIG-0.06  A 
ATOM     23  CD2 PHE B1001      21.279  21.391  16.627  1.00 29.14 LIG 0.01  A 
ATOM     24  CE2 PHE B1001      21.638  22.126  15.502  1.00 28.22 LIG 0.00  A 
ATOM     25  CZ  PHE B1001      22.062  23.437  15.641  1.00 28.72 LIG 0.00  A 
ATOM     26  CE1 PHE B1001      22.125  24.014  16.904  1.00 29.15 LIG 0.00  A 
ATOM     27  CD1 PHE B1001      21.764  23.274  18.022  1.00 28.88 LIG 0.01  A 
ENDBRANCH 21 22
ENDBRANCH 15 21
ENDBRANCH 10 15
ENDBRANCH 1 8
BRANCH 4 28
ATOM     28  C   PRO B1003      20.750  16.744  25.077  1.00 33.85 LIG 0.24  C 
ATOM     29 O    PRO B1003      19.715  16.100  24.899  1.00 33.94 LIG-0.27  OA
ATOM     30  N   PRO B1004      21.931  16.145  25.292  1.00 34.14 LIG-0.34  N 
ATOM     31  CA  PRO B1004      22.029  14.686  25.353  1.00 34.66 LIG 0.18  C 
ATOM     32  CD  PRO B1004      23.262  16.768  25.407  1.00 34.36 LIG 0.13  C 
ATOM     33  CB  PRO B1004      23.539  14.445  25.341  1.00 34.44 LIG 0.04  C 
ATOM     34  CG  PRO B1004      24.078  15.660  26.024  1.00 34.41 LIG 0.02  C 
BRANCH 31 35
ATOM     35  C   PRO B1004      21.346  14.146  26.612  1.00 35.04 LIG 0.24  C 
ATOM     36  N   PRO B1005      20.365  13.248  26.446  1.00 35.67 LIG-0.34  N 
ATOM     37  CD  PRO B1005      19.836  12.771  25.157  1.00 35.53 LIG 0.13  C 
ATOM     38  CA  PRO B1005      19.619  12.647  27.559  1.00 36.27 LIG 0.17  C 
ATOM     39  CG  PRO B1005      18.468  12.267  25.542  1.00 36.24 LIG 0.02  C 
ATOM     40  CB  PRO B1005      18.723  11.629  26.861  1.00 36.11 LIG 0.04  C 
ATOM     41 O    PRO B1004      21.686  14.541  27.728  1.00 35.22 LIG-0.27  OA
BRANCH 38 42
ATOM     42  C   PRO B1005      20.523  11.998  28.606  1.00 36.62 LIG 0.22  C 
ATOM     43 O    PRO B1005      21.714  11.782  28.296  1.00 36.45 LIG-0.29  OA
ENDBRANCH 38 42
ENDBRANCH 31 35
ENDBRANCH 4 28
TORSDOF 8
ENDMDL
MODEL 34
USER: ADFR SOLUTION from run 130
USER: SCORE 12.420193 LL:  -4.214 LR:  -8.832 RR:   0.000 FEB:  -6.446
USER: RMSD 10.134318
USER: SEED 129
USER: STATUS no improvement in best 24 clusters for 5 generations
USER: GENES 10
USER: genes 0 Translation |==|  0.64426 0.60889 0.47811
USER: genes 1 Rotation |==|  0.28109 0.53900 0.89669 0.70784
USER: genes 2 Torsion [O]-C--CA-[N] |==|  0.02241
USER: genes 3 Torsion [N]-C--CA-[N] |==|  0.28652
USER: genes 4 Torsion [C]-CA--N-[C] |==|  0.53380
USER: genes 5 Torsion [C]-CA--CB-[CG] |==|  0.18667
USER: genes 6 Torsion [CA]-CB--CG-[CD1] |==|  0.04217
USER: genes 7 Torsion [N]-CA--C-[O] |==|  0.81235
USER: genes 8 Torsion [N]-CA--C-[N] |==|  0.34480
USER: genes 9 Torsion [N]-CA--C-[O] |==|  0.90089
ROOT
ATOM      1  C   PRO B1002      24.168  24.267  17.513  1.00 33.09 LIG 0.24  C 
ATOM      2 O    PRO B1002      25.330  24.026  17.174  1.00 32.82 LIG-0.27  OA
ATOM      3  N   PRO B1003      23.122  23.663  16.934  1.00 33.61 LIG-0.34  N 
ATOM      4  CA  PRO B1003      23.335  22.691  15.861  1.00 34.05 LIG 0.18  C 
ATOM      5  CB  PRO B1003      21.938  22.120  15.640  1.00 34.65 LIG 0.04  C 
ATOM      6  CG  PRO B1003      21.056  23.286  15.944  1.00 34.15 LIG 0.02  C 
ATOM      7  CD  PRO B1003      21.685  23.847  17.201  1.00 34.31 LIG 0.13  C 
ENDROOT
BRANCH 1 8
ATOM      8  CA  PRO B1002      23.871  25.269  18.622  1.00 32.09 LIG 0.18  C 
ATOM      9  N   PRO B1002      25.114  25.946  18.987  1.00 31.87 LIG-0.34  N 
ATOM     10  C   PHE B1001      25.999  25.325  19.780  1.00 31.39 LIG 0.24  C 
ATOM     11  CD  PRO B1002      25.120  27.333  18.487  1.00 31.65 LIG 0.13  C 
ATOM     12 O    PHE B1001      25.796  24.194  20.230  1.00 31.36 LIG-0.27  OA
ATOM     13  CG  PRO B1002      23.972  27.324  17.487  1.00 31.59 LIG 0.02  C 
ATOM     14  CB  PRO B1002      22.984  26.417  18.146  1.00 32.35 LIG 0.04  C 
BRANCH 10 15
ATOM     15  CA  PHE B1001      27.277  26.077  20.115  1.00 30.70 LIG 0.18  C 
BRANCH 15 16
ATOM     16  N   PHE B1001      27.227  26.623  21.469  1.00 31.26 LIG-0.35  N 
ATOM     17  C   ACE B1000      28.116  27.513  21.903  1.00 32.54 LIG 0.21  C 
ATOM     18  CH3 ACE B1000      28.126  27.673  23.424  1.00 32.86 LIG 0.12  C 
ATOM     19 O    ACE B1000      29.072  27.901  21.221  1.00 32.71 LIG-0.27  OA
ATOM     20 H    PHE B1001      26.581  26.320  21.949  1.00 31.26 LIG 0.16  HD
ENDBRANCH 15 16
BRANCH 15 21
ATOM     21  CB  PHE B1001      28.444  25.096  19.954  1.00 29.45 LIG 0.07  C 
BRANCH 21 22
ATOM     22  CG  PHE B1001      28.688  24.660  18.544  1.00 29.10 LIG-0.06  A 
ATOM     23  CD2 PHE B1001      29.491  23.555  18.277  1.00 29.14 LIG 0.01  A 
ATOM     24  CE2 PHE B1001      29.726  23.149  16.968  1.00 28.22 LIG 0.00  A 
ATOM     25  CZ  PHE B1001      29.159  23.849  15.916  1.00 28.72 LIG 0.00  A 
ATOM     26  CE1 PHE B1001      28.355  24.953  16.173  1.00 29.15 LIG 0.00  A 
ATOM     27  CD1 PHE B1001      28.123  25.352  17.482  1.00 28.88 LIG 0.01  A 
ENDBRANCH 21 22
ENDBRANCH 15 21
ENDBRANCH 10 15
ENDBRANCH 1 8
BRANCH 4 28
ATOM     28  C   PRO B1003      23.900  23.356  14.606  1.00 33.85 LIG 0.24  C 
ATOM     29 O    PRO B1003      23.219  24.147  13.953  1.00 33.94 LIG-0.27  OA
ATOM     30  N   PRO B1004      25.163  23.058  14.267  1.00 34.14 LIG-0.34  N 
ATOM     31  CA  PRO B1004      25.777  23.647  13.076  1.00 34.66 LIG 0.18  C 
ATOM     32  CD  PRO B1004      26.134  22.227  15.002  1.00 34.36 LIG 0.13  C 
ATOM     33  CB  PRO B1004      27.248  23.260  13.222  1.00 34.44 LIG 0.04  C 
ATOM     34  CG  PRO B1004      27.181  21.957  13.951  1.00 34.41 LIG 0.02  C 
BRANCH 31 35
ATOM     35  C   PRO B1004      25.135  23.093  11.802  1.00 35.04 LIG 0.24  C 
ATOM     36  N   PRO B1005      24.618  23.976  10.935  1.00 35.67 LIG-0.34  N 
ATOM     37  CD  PRO B1005      24.555  25.436  11.120  1.00 35.53 LIG 0.13  C 
ATOM     38  CA  PRO B1005      23.969  23.592   9.675  1.00 36.27 LIG 0.17  C 
ATOM     39  CG  PRO B1005      23.436  25.826  10.187  1.00 36.24 LIG 0.02  C 
ATOM     40  CB  PRO B1005      23.672  24.936   9.019  1.00 36.11 LIG 0.04  C 
ATOM     41 O    PRO B1004      25.090  21.879  11.599  1.00 35.22 LIG-0.27  OA
BRANCH 38 42
ATOM     42  C   PRO B1005      24.846  22.702   8.796  1.00 36.62 LIG 0.22  C 
ATOM     43 O    PRO B1005      26.077  22.916   8.791  1.00 36.45 LIG-0.29  OA
ENDBRANCH 38 42
ENDBRANCH 31 35
ENDBRANCH 4 28
TORSDOF 8
ENDMDL
MODEL 35
USER: ADFR SOLUTION from run 116
USER: SCORE 11.833952 LL:  -3.211 LR:  -8.828 RR:   0.000 FEB:  -6.441
USER: RMSD 11.483019
USER: SEED 115
USER: STATUS no improvement in best 14 clusters for 5 generations
USER: GENES 10
USER: genes 0 Translation |==|  0.64483 0.59060 0.40286
USER: genes 1 Rotation |==|  0.18056 0.87242 0.41041 0.53516
USER: genes 2 Torsion [O]-C--CA-[N] |==|  0.00351
USER: genes 3 Torsion [N]-C--CA-[N] |==|  0.48330
USER: genes 4 Torsion [C]-CA--N-[C] |==|  0.57731
USER: genes 5 Torsion [C]-CA--CB-[CG] |==|  0.42674
USER: genes 6 Torsion [CA]-CB--CG-[CD1] |==|  0.35796
USER: genes 7 Torsion [N]-CA--C-[O] |==|  0.87562
USER: genes 8 Torsion [N]-CA--C-[N] |==|  0.50146
USER: genes 9 Torsion [N]-CA--C-[O] |==|  0.34088
ROOT
ATOM      1  C   PRO B1002      24.185  23.718  15.256  1.00 33.09 LIG 0.24  C 
ATOM      2 O    PRO B1002      24.433  24.027  16.426  1.00 32.82 LIG-0.27  OA
ATOM      3  N   PRO B1003      22.933  23.512  14.829  1.00 33.61 LIG-0.34  N 
ATOM      4  CA  PRO B1003      21.808  23.642  15.756  1.00 34.05 LIG 0.18  C 
ATOM      5  CB  PRO B1003      20.596  23.527  14.836  1.00 34.65 LIG 0.04  C 
ATOM      6  CG  PRO B1003      21.078  22.592  13.776  1.00 34.15 LIG 0.02  C 
ATOM      7  CD  PRO B1003      22.467  23.121  13.487  1.00 34.31 LIG 0.13  C 
ENDROOT
BRANCH 1 8
ATOM      8  CA  PRO B1002      25.307  23.562  14.236  1.00 32.09 LIG 0.18  C 
ATOM      9  N   PRO B1002      26.584  23.803  14.904  1.00 31.87 LIG-0.34  N 
ATOM     10  C   PHE B1001      26.977  25.062  15.149  1.00 31.39 LIG 0.24  C 
ATOM     11  CD  PRO B1002      27.323  22.541  15.092  1.00 31.65 LIG 0.13  C 
ATOM     12 O    PHE B1001      26.298  26.037  14.817  1.00 31.36 LIG-0.27  OA
ATOM     13  CG  PRO B1002      26.249  21.494  14.832  1.00 31.59 LIG 0.02  C 
ATOM     14  CB  PRO B1002      25.446  22.125  13.741  1.00 32.35 LIG 0.04  C 
BRANCH 10 15
ATOM     15  CA  PHE B1001      28.310  25.246  15.856  1.00 30.70 LIG 0.18  C 
BRANCH 15 16
ATOM     16  N   PHE B1001      28.675  26.658  15.930  1.00 31.26 LIG-0.35  N 
ATOM     17  C   ACE B1000      29.945  27.056  15.982  1.00 32.54 LIG 0.21  C 
ATOM     18  CH3 ACE B1000      30.111  28.510  16.428  1.00 32.86 LIG 0.12  C 
ATOM     19 O    ACE B1000      30.898  26.269  16.025  1.00 32.71 LIG-0.27  OA
ATOM     20 H    PHE B1001      28.005  27.197  15.936  1.00 31.26 LIG 0.16  HD
ENDBRANCH 15 16
BRANCH 15 21
ATOM     21  CB  PHE B1001      28.178  24.633  17.255  1.00 29.45 LIG 0.07  C 
BRANCH 21 22
ATOM     22  CG  PHE B1001      29.470  24.163  17.844  1.00 29.10 LIG-0.06  A 
ATOM     23  CD2 PHE B1001      30.308  23.320  17.121  1.00 29.14 LIG 0.01  A 
ATOM     24  CE2 PHE B1001      31.507  22.875  17.666  1.00 28.22 LIG 0.00  A 
ATOM     25  CZ  PHE B1001      31.876  23.272  18.941  1.00 28.72 LIG 0.00  A 
ATOM     26  CE1 PHE B1001      31.045  24.115  19.670  1.00 29.15 LIG 0.00  A 
ATOM     27  CD1 PHE B1001      29.850  24.556  19.119  1.00 28.88 LIG 0.01  A 
ENDBRANCH 21 22
ENDBRANCH 15 21
ENDBRANCH 10 15
ENDBRANCH 1 8
BRANCH 4 28
ATOM     28  C   PRO B1003      21.834  22.553  16.827  1.00 33.85 LIG 0.24  C 
ATOM     29 O    PRO B1003      22.059  21.380  16.526  1.00 33.94 LIG-0.27  OA
ATOM     30  N   PRO B1004      21.626  22.932  18.097  1.00 34.14 LIG-0.34  N 
ATOM     31  CA  PRO B1004      21.629  21.949  19.181  1.00 34.66 LIG 0.18  C 
ATOM     32  CD  PRO B1004      21.458  24.298  18.625  1.00 34.36 LIG 0.13  C 
ATOM     33  CB  PRO B1004      21.624  22.823  20.435  1.00 34.44 LIG 0.04  C 
ATOM     34  CG  PRO B1004      20.877  24.040  19.993  1.00 34.41 LIG 0.02  C 
BRANCH 31 35
ATOM     35  C   PRO B1004      20.408  21.030  19.087  1.00 35.04 LIG 0.24  C 
ATOM     36  N   PRO B1005      20.273  20.082  20.026  1.00 35.67 LIG-0.34  N 
ATOM     37  CD  PRO B1005      21.224  19.800  21.114  1.00 35.53 LIG 0.13  C 
ATOM     38  CA  PRO B1005      19.157  19.129  20.061  1.00 36.27 LIG 0.17  C 
ATOM     39  CG  PRO B1005      20.883  18.375  21.471  1.00 36.24 LIG 0.02  C 
ATOM     40  CB  PRO B1005      19.401  18.364  21.358  1.00 36.11 LIG 0.04  C 
ATOM     41 O    PRO B1004      19.596  21.159  18.170  1.00 35.22 LIG-0.27  OA
BRANCH 38 42
ATOM     42  C   PRO B1005      17.788  19.807  20.039  1.00 36.62 LIG 0.22  C 
ATOM     43 O    PRO B1005      16.998  19.498  19.121  1.00 36.45 LIG-0.29  OA
ENDBRANCH 38 42
ENDBRANCH 31 35
ENDBRANCH 4 28
TORSDOF 8
ENDMDL
MODEL 36
USER: ADFR SOLUTION from run 39
USER: SCORE 12.804819 LL:  -4.181 LR:  -8.771 RR:   0.000 FEB:  -6.385
USER: RMSD 9.522273
USER: SEED 38
USER: STATUS no improvement in best 13 clusters for 5 generations
USER: GENES 10
USER: genes 0 Translation |==|  0.45818 0.54091 0.47393
USER: genes 1 Rotation |==|  0.23945 0.87486 0.62023 0.66474
USER: genes 2 Torsion [O]-C--CA-[N] |==|  0.94976
USER: genes 3 Torsion [N]-C--CA-[N] |==|  0.31124
USER: genes 4 Torsion [C]-CA--N-[C] |==|  0.74229
USER: genes 5 Torsion [C]-CA--CB-[CG] |==|  0.16010
USER: genes 6 Torsion [CA]-CB--CG-[CD1] |==|  0.61184
USER: genes 7 Torsion [N]-CA--C-[O] |==|  0.82978
USER: genes 8 Torsion [N]-CA--C-[N] |==|  0.51810
USER: genes 9 Torsion [N]-CA--C-[O] |==|  0.63835
ROOT
ATOM      1  C   PRO B1002      18.585  22.227  17.388  1.00 33.09 LIG 0.24  C 
ATOM      2 O    PRO B1002      18.950  21.401  18.230  1.00 32.82 LIG-0.27  OA
ATOM      3  N   PRO B1003      17.291  22.449  17.128  1.00 33.61 LIG-0.34  N 
ATOM      4  CA  PRO B1003      16.257  21.698  17.843  1.00 34.05 LIG 0.18  C 
ATOM      5  CB  PRO B1003      14.971  22.388  17.400  1.00 34.65 LIG 0.04  C 
ATOM      6  CG  PRO B1003      15.291  22.812  16.004  1.00 34.15 LIG 0.02  C 
ATOM      7  CD  PRO B1003      16.689  23.373  16.151  1.00 34.31 LIG 0.13  C 
ENDROOT
BRANCH 1 8
ATOM      8  CA  PRO B1002      19.606  23.043  16.604  1.00 32.09 LIG 0.18  C 
ATOM      9  N   PRO B1002      20.886  22.993  17.307  1.00 31.87 LIG-0.34  N 
ATOM     10  C   PHE B1001      21.084  23.772  18.381  1.00 31.39 LIG 0.24  C 
ATOM     11  CD  PRO B1002      21.843  22.130  16.590  1.00 31.65 LIG 0.13  C 
ATOM     12 O    PHE B1001      20.219  24.548  18.796  1.00 31.36 LIG-0.27  OA
ATOM     13  CG  PRO B1002      20.941  21.377  15.623  1.00 31.59 LIG 0.02  C 
ATOM     14  CB  PRO B1002      19.935  22.417  15.251  1.00 32.35 LIG 0.04  C 
BRANCH 10 15
ATOM     15  CA  PHE B1001      22.432  23.666  19.075  1.00 30.70 LIG 0.18  C 
BRANCH 15 16
ATOM     16  N   PHE B1001      23.206  24.894  18.910  1.00 31.26 LIG-0.35  N 
ATOM     17  C   ACE B1000      24.075  25.051  17.914  1.00 32.54 LIG 0.21  C 
ATOM     18  CH3 ACE B1000      25.039  26.219  18.124  1.00 32.86 LIG 0.12  C 
ATOM     19 O    ACE B1000      24.329  24.161  17.093  1.00 32.71 LIG-0.27  OA
ATOM     20 H    PHE B1001      23.049  25.493  19.507  1.00 31.26 LIG 0.16  HD
ENDBRANCH 15 16
BRANCH 15 21
ATOM     21  CB  PHE B1001      22.165  23.371  20.556  1.00 29.45 LIG 0.07  C 
BRANCH 21 22
ATOM     22  CG  PHE B1001      21.364  22.132  20.800  1.00 29.10 LIG-0.06  A 
ATOM     23  CD2 PHE B1001      21.592  20.986  20.045  1.00 29.14 LIG 0.01  A 
ATOM     24  CE2 PHE B1001      20.847  19.833  20.264  1.00 28.22 LIG 0.00  A 
ATOM     25  CZ  PHE B1001      19.865  19.820  21.241  1.00 28.72 LIG 0.00  A 
ATOM     26  CE1 PHE B1001      19.632  20.960  22.002  1.00 29.15 LIG 0.00  A 
ATOM     27  CD1 PHE B1001      20.380  22.107  21.779  1.00 28.88 LIG 0.01  A 
ENDBRANCH 21 22
ENDBRANCH 15 21
ENDBRANCH 10 15
ENDBRANCH 1 8
BRANCH 4 28
ATOM     28  C   PRO B1003      16.284  20.215  17.473  1.00 33.85 LIG 0.24  C 
ATOM     29 O    PRO B1003      16.087  19.854  16.312  1.00 33.94 LIG-0.27  OA
ATOM     30  N   PRO B1004      16.549  19.340  18.454  1.00 34.14 LIG-0.34  N 
ATOM     31  CA  PRO B1004      16.586  17.902  18.183  1.00 34.66 LIG 0.18  C 
ATOM     32  CD  PRO B1004      16.914  19.622  19.854  1.00 34.36 LIG 0.13  C 
ATOM     33  CB  PRO B1004      17.171  17.327  19.473  1.00 34.44 LIG 0.04  C 
ATOM     34  CG  PRO B1004      16.691  18.285  20.515  1.00 34.41 LIG 0.02  C 
BRANCH 31 35
ATOM     35  C   PRO B1004      15.186  17.370  17.870  1.00 35.04 LIG 0.24  C 
ATOM     36  N   PRO B1005      15.044  16.044  17.733  1.00 35.67 LIG-0.34  N 
ATOM     37  CD  PRO B1005      16.126  15.046  17.797  1.00 35.53 LIG 0.13  C 
ATOM     38  CA  PRO B1005      13.764  15.392  17.430  1.00 36.27 LIG 0.17  C 
ATOM     39  CG  PRO B1005      15.527  13.882  17.048  1.00 36.24 LIG 0.02  C 
ATOM     40  CB  PRO B1005      14.110  13.908  17.497  1.00 36.11 LIG 0.04  C 
ATOM     41 O    PRO B1004      14.236  18.144  17.738  1.00 35.22 LIG-0.27  OA
BRANCH 38 42
ATOM     42  C   PRO B1005      12.652  15.771  18.406  1.00 36.62 LIG 0.22  C 
ATOM     43 O    PRO B1005      11.986  14.847  18.920  1.00 36.45 LIG-0.29  OA
ENDBRANCH 38 42
ENDBRANCH 31 35
ENDBRANCH 4 28
TORSDOF 8
ENDMDL
MODEL 37
USER: ADFR SOLUTION from run 71
USER: SCORE 11.270636 LL:  -3.010 LR:  -8.756 RR:   0.000 FEB:  -6.370
USER: RMSD 14.805273
USER: SEED 70
USER: STATUS no improvement in best 6 clusters for 5 generations
USER: GENES 10
USER: genes 0 Translation |==|  0.74397 0.26376 0.75151
USER: genes 1 Rotation |==|  0.32616 0.41820 0.27669 0.90401
USER: genes 2 Torsion [O]-C--CA-[N] |==|  0.01638
USER: genes 3 Torsion [N]-C--CA-[N] |==|  0.19581
USER: genes 4 Torsion [C]-CA--N-[C] |==|  0.63722
USER: genes 5 Torsion [C]-CA--CB-[CG] |==|  0.48639
USER: genes 6 Torsion [CA]-CB--CG-[CD1] |==|  0.36895
USER: genes 7 Torsion [N]-CA--C-[O] |==|  0.03547
USER: genes 8 Torsion [N]-CA--C-[N] |==|  0.51140
USER: genes 9 Torsion [N]-CA--C-[O] |==|  0.90557
ROOT
ATOM      1  C   PRO B1002      27.159  13.913  25.715  1.00 33.09 LIG 0.24  C 
ATOM      2 O    PRO B1002      26.491  13.068  25.110  1.00 32.82 LIG-0.27  OA
ATOM      3  N   PRO B1003      28.436  14.163  25.400  1.00 33.61 LIG-0.34  N 
ATOM      4  CA  PRO B1003      29.086  13.423  24.317  1.00 34.05 LIG 0.18  C 
ATOM      5  CB  PRO B1003      30.422  14.144  24.170  1.00 34.65 LIG 0.04  C 
ATOM      6  CG  PRO B1003      30.715  14.581  25.568  1.00 34.15 LIG 0.02  C 
ATOM      7  CD  PRO B1003      29.374  15.112  26.026  1.00 34.31 LIG 0.13  C 
ENDROOT
BRANCH 1 8
ATOM      8  CA  PRO B1002      26.549  14.719  26.855  1.00 32.09 LIG 0.18  C 
ATOM      9  N   PRO B1002      25.208  14.206  27.127  1.00 31.87 LIG-0.34  N 
ATOM     10  C   PHE B1001      24.189  14.556  26.329  1.00 31.39 LIG 0.24  C 
ATOM     11  CD  PRO B1002      25.186  13.442  28.388  1.00 31.65 LIG 0.13  C 
ATOM     12 O    PHE B1001      24.340  15.315  25.368  1.00 31.36 LIG-0.27  OA
ATOM     13  CG  PRO B1002      26.667  13.217  28.658  1.00 31.59 LIG 0.02  C 
ATOM     14  CB  PRO B1002      27.275  14.496  28.179  1.00 32.35 LIG 0.04  C 
BRANCH 10 15
ATOM     15  CA  PHE B1001      22.821  13.980  26.658  1.00 30.70 LIG 0.18  C 
BRANCH 15 16
ATOM     16  N   PHE B1001      22.283  14.569  27.881  1.00 31.26 LIG-0.35  N 
ATOM     17  C   ACE B1000      21.790  13.821  28.867  1.00 32.54 LIG 0.21  C 
ATOM     18  CH3 ACE B1000      20.949  14.611  29.870  1.00 32.86 LIG 0.12  C 
ATOM     19 O    ACE B1000      21.703  12.589  28.800  1.00 32.71 LIG-0.27  OA
ATOM     20 H    PHE B1001      22.314  15.428  27.904  1.00 31.26 LIG 0.16  HD
ENDBRANCH 15 16
BRANCH 15 21
ATOM     21  CB  PHE B1001      21.906  14.256  25.459  1.00 29.45 LIG 0.07  C 
BRANCH 21 22
ATOM     22  CG  PHE B1001      20.544  13.648  25.574  1.00 29.10 LIG-0.06  A 
ATOM     23  CD2 PHE B1001      20.396  12.320  25.960  1.00 29.14 LIG 0.01  A 
ATOM     24  CE2 PHE B1001      19.133  11.748  26.063  1.00 28.22 LIG 0.00  A 
ATOM     25  CZ  PHE B1001      18.007  12.504  25.779  1.00 28.72 LIG 0.00  A 
ATOM     26  CE1 PHE B1001      18.145  13.833  25.394  1.00 29.15 LIG 0.00  A 
ATOM     27  CD1 PHE B1001      19.409  14.397  25.295  1.00 28.88 LIG 0.01  A 
ENDBRANCH 21 22
ENDBRANCH 15 21
ENDBRANCH 10 15
ENDBRANCH 1 8
BRANCH 4 28
ATOM     28  C   PRO B1003      29.254  11.946  24.670  1.00 33.85 LIG 0.24  C 
ATOM     29 O    PRO B1003      28.666  11.459  25.636  1.00 33.94 LIG-0.27  OA
ATOM     30  N   PRO B1004      30.044  11.209  23.875  1.00 34.14 LIG-0.34  N 
ATOM     31  CA  PRO B1004      30.263   9.788  24.147  1.00 34.66 LIG 0.18  C 
ATOM     32  CD  PRO B1004      30.719  11.615  22.629  1.00 34.36 LIG 0.13  C 
ATOM     33  CB  PRO B1004      30.978   9.304  22.886  1.00 34.44 LIG 0.04  C 
ATOM     34  CG  PRO B1004      31.733  10.516  22.444  1.00 34.41 LIG 0.02  C 
BRANCH 31 35
ATOM     35  C   PRO B1004      31.094   9.598  25.418  1.00 35.04 LIG 0.24  C 
ATOM     36  N   PRO B1005      31.446   8.346  25.747  1.00 35.67 LIG-0.34  N 
ATOM     37  CD  PRO B1005      31.056   7.121  25.029  1.00 35.53 LIG 0.13  C 
ATOM     38  CA  PRO B1005      32.238   8.012  26.936  1.00 36.27 LIG 0.17  C 
ATOM     39  CG  PRO B1005      31.226   6.064  26.091  1.00 36.24 LIG 0.02  C 
ATOM     40  CB  PRO B1005      32.460   6.510  26.790  1.00 36.11 LIG 0.04  C 
ATOM     41 O    PRO B1004      31.410  10.566  26.111  1.00 35.22 LIG-0.27  OA
BRANCH 38 42
ATOM     42  C   PRO B1005      33.554   8.785  27.018  1.00 36.62 LIG 0.22  C 
ATOM     43 O    PRO B1005      34.140   9.056  25.948  1.00 36.45 LIG-0.29  OA
ENDBRANCH 38 42
ENDBRANCH 31 35
ENDBRANCH 4 28
TORSDOF 8
ENDMDL
MODEL 38
USER: ADFR SOLUTION from run 139
USER: SCORE 10.598231 LL:  -2.363 LR:  -8.692 RR:   0.000 FEB:  -6.306
USER: RMSD 13.954832
USER: SEED 138
USER: STATUS no improvement in best 10 clusters for 5 generations
USER: GENES 10
USER: genes 0 Translation |==|  0.75725 0.24311 0.77599
USER: genes 1 Rotation |==|  0.29705 0.42222 0.41462 0.94212
USER: genes 2 Torsion [O]-C--CA-[N] |==|  0.88187
USER: genes 3 Torsion [N]-C--CA-[N] |==|  0.23673
USER: genes 4 Torsion [C]-CA--N-[C] |==|  0.65729
USER: genes 5 Torsion [C]-CA--CB-[CG] |==|  0.51166
USER: genes 6 Torsion [CA]-CB--CG-[CD1] |==|  0.77621
USER: genes 7 Torsion [N]-CA--C-[O] |==|  0.92572
USER: genes 8 Torsion [N]-CA--C-[N] |==|  0.90824
USER: genes 9 Torsion [N]-CA--C-[O] |==|  0.88865
ROOT
ATOM      1  C   PRO B1002      27.558  13.293  26.450  1.00 33.09 LIG 0.24  C 
ATOM      2 O    PRO B1002      27.262  12.142  26.116  1.00 32.82 LIG-0.27  OA
ATOM      3  N   PRO B1003      28.434  14.028  25.754  1.00 33.61 LIG-0.34  N 
ATOM      4  CA  PRO B1003      29.081  13.472  24.564  1.00 34.05 LIG 0.18  C 
ATOM      5  CB  PRO B1003      29.819  14.676  23.987  1.00 34.65 LIG 0.04  C 
ATOM      6  CG  PRO B1003      30.187  15.452  25.209  1.00 34.15 LIG 0.02  C 
ATOM      7  CD  PRO B1003      28.911  15.397  26.021  1.00 34.31 LIG 0.13  C 
ENDROOT
BRANCH 1 8
ATOM      8  CA  PRO B1002      26.926  13.936  27.678  1.00 32.09 LIG 0.18  C 
ATOM      9  N   PRO B1002      25.500  13.615  27.694  1.00 31.87 LIG-0.34  N 
ATOM     10  C   PHE B1001      24.658  14.294  26.902  1.00 31.39 LIG 0.24  C 
ATOM     11  CD  PRO B1002      25.200  12.619  28.740  1.00 31.65 LIG 0.13  C 
ATOM     12 O    PHE B1001      25.045  15.200  26.159  1.00 31.36 LIG-0.27  OA
ATOM     13  CG  PRO B1002      26.583  12.093  29.094  1.00 31.59 LIG 0.02  C 
ATOM     14  CB  PRO B1002      27.429  13.320  28.981  1.00 32.35 LIG 0.04  C 
BRANCH 10 15
ATOM     15  CA  PHE B1001      23.189  13.906  26.956  1.00 30.70 LIG 0.18  C 
BRANCH 15 16
ATOM     16  N   PHE B1001      22.502  14.597  28.044  1.00 31.26 LIG-0.35  N 
ATOM     17  C   ACE B1000      21.850  13.937  28.998  1.00 32.54 LIG 0.21  C 
ATOM     18  CH3 ACE B1000      20.901  14.819  29.811  1.00 32.86 LIG 0.12  C 
ATOM     19 O    ACE B1000      21.731  12.706  29.007  1.00 32.71 LIG-0.27  OA
ATOM     20 H    PHE B1001      22.559  15.455  28.009  1.00 31.26 LIG 0.16  HD
ENDBRANCH 15 16
BRANCH 15 21
ATOM     21  CB  PHE B1001      22.571  14.254  25.597  1.00 29.45 LIG 0.07  C 
BRANCH 21 22
ATOM     22  CG  PHE B1001      21.095  14.023  25.517  1.00 29.10 LIG-0.06  A 
ATOM     23  CD2 PHE B1001      20.207  15.083  25.670  1.00 29.14 LIG 0.01  A 
ATOM     24  CE2 PHE B1001      18.834  14.873  25.603  1.00 28.22 LIG 0.00  A 
ATOM     25  CZ  PHE B1001      18.341  13.598  25.383  1.00 28.72 LIG 0.00  A 
ATOM     26  CE1 PHE B1001      19.221  12.533  25.228  1.00 29.15 LIG 0.00  A 
ATOM     27  CD1 PHE B1001      20.590  12.750  25.295  1.00 28.88 LIG 0.01  A 
ENDBRANCH 21 22
ENDBRANCH 15 21
ENDBRANCH 10 15
ENDBRANCH 1 8
BRANCH 4 28
ATOM     28  C   PRO B1003      30.024  12.325  24.923  1.00 33.85 LIG 0.24  C 
ATOM     29 O    PRO B1003      30.552  12.269  26.034  1.00 33.94 LIG-0.27  OA
ATOM     30  N   PRO B1004      30.230  11.383  23.991  1.00 34.14 LIG-0.34  N 
ATOM     31  CA  PRO B1004      31.125  10.254  24.254  1.00 34.66 LIG 0.18  C 
ATOM     32  CD  PRO B1004      29.590  11.250  22.670  1.00 34.36 LIG 0.13  C 
ATOM     33  CB  PRO B1004      30.858   9.324  23.070  1.00 34.44 LIG 0.04  C 
ATOM     34  CG  PRO B1004      30.502  10.273  21.972  1.00 34.41 LIG 0.02  C 
BRANCH 31 35
ATOM     35  C   PRO B1004      32.581  10.720  24.334  1.00 35.04 LIG 0.24  C 
ATOM     36  N   PRO B1005      32.945  11.750  23.557  1.00 35.67 LIG-0.34  N 
ATOM     37  CD  PRO B1005      32.086  12.445  22.583  1.00 35.53 LIG 0.13  C 
ATOM     38  CA  PRO B1005      34.304  12.302  23.526  1.00 36.27 LIG 0.17  C 
ATOM     39  CG  PRO B1005      33.100  13.070  21.657  1.00 36.24 LIG 0.02  C 
ATOM     40  CB  PRO B1005      34.166  13.504  22.598  1.00 36.11 LIG 0.04  C 
ATOM     41 O    PRO B1004      33.381  10.152  25.079  1.00 35.22 LIG-0.27  OA
BRANCH 38 42
ATOM     42  C   PRO B1005      34.824  12.697  24.908  1.00 36.62 LIG 0.22  C 
ATOM     43 O    PRO B1005      34.027  13.249  25.696  1.00 36.45 LIG-0.29  OA
ENDBRANCH 38 42
ENDBRANCH 31 35
ENDBRANCH 4 28
TORSDOF 8
ENDMDL
MODEL 39
USER: ADFR SOLUTION from run 89
USER: SCORE 11.606863 LL:  -3.120 LR:  -8.673 RR:   0.000 FEB:  -6.286
USER: RMSD 12.784115
USER: SEED 88
USER: STATUS no improvement in best 8 clusters for 5 generations
USER: GENES 10
USER: genes 0 Translation |==|  0.53461 0.35803 0.73397
USER: genes 1 Rotation |==|  0.15842 0.34958 0.22681 0.68992
USER: genes 2 Torsion [O]-C--CA-[N] |==|  0.90980
USER: genes 3 Torsion [N]-C--CA-[N] |==|  0.88103
USER: genes 4 Torsion [C]-CA--N-[C] |==|  0.77222
USER: genes 5 Torsion [C]-CA--CB-[CG] |==|  0.23188
USER: genes 6 Torsion [CA]-CB--CG-[CD1] |==|  0.17488
USER: genes 7 Torsion [N]-CA--C-[O] |==|  0.85119
USER: genes 8 Torsion [N]-CA--C-[N] |==|  0.51234
USER: genes 9 Torsion [N]-CA--C-[O] |==|  0.28190
ROOT
ATOM      1  C   PRO B1002      20.878  16.741  25.189  1.00 33.09 LIG 0.24  C 
ATOM      2 O    PRO B1002      19.784  16.171  25.231  1.00 32.82 LIG-0.27  OA
ATOM      3  N   PRO B1003      22.031  16.068  25.299  1.00 33.61 LIG-0.34  N 
ATOM      4  CA  PRO B1003      22.021  14.616  25.483  1.00 34.05 LIG 0.18  C 
ATOM      5  CB  PRO B1003      23.497  14.250  25.360  1.00 34.65 LIG 0.04  C 
ATOM      6  CG  PRO B1003      24.181  15.451  25.925  1.00 34.15 LIG 0.02  C 
ATOM      7  CD  PRO B1003      23.409  16.589  25.291  1.00 34.31 LIG 0.13  C 
ENDROOT
BRANCH 1 8
ATOM      8  CA  PRO B1002      20.965  18.251  25.002  1.00 32.09 LIG 0.18  C 
ATOM      9  N   PRO B1002      19.845  18.684  24.168  1.00 31.87 LIG-0.34  N 
ATOM     10  C   PHE B1001      19.903  18.513  22.840  1.00 31.39 LIG 0.24  C 
ATOM     11  CD  PRO B1002      18.837  19.395  24.976  1.00 31.65 LIG 0.13  C 
ATOM     12 O    PHE B1001      20.883  18.008  22.286  1.00 31.36 LIG-0.27  OA
ATOM     13  CG  PRO B1002      19.243  19.033  26.397  1.00 31.59 LIG 0.02  C 
ATOM     14  CB  PRO B1002      20.735  19.012  26.305  1.00 32.35 LIG 0.04  C 
BRANCH 10 15
ATOM     15  CA  PHE B1001      18.703  18.975  22.029  1.00 30.70 LIG 0.18  C 
BRANCH 15 16
ATOM     16  N   PHE B1001      17.451  18.596  22.679  1.00 31.26 LIG-0.35  N 
ATOM     17  C   ACE B1000      16.932  17.377  22.552  1.00 32.54 LIG 0.21  C 
ATOM     18  CH3 ACE B1000      15.466  17.290  22.980  1.00 32.86 LIG 0.12  C 
ATOM     19 O    ACE B1000      17.435  16.500  21.839  1.00 32.71 LIG-0.27  OA
ATOM     20 H    PHE B1001      17.089  19.224  23.143  1.00 31.26 LIG 0.16  HD
ENDBRANCH 15 16
BRANCH 15 21
ATOM     21  CB  PHE B1001      18.811  20.497  21.875  1.00 29.45 LIG 0.07  C 
BRANCH 21 22
ATOM     22  CG  PHE B1001      19.694  20.939  20.751  1.00 29.10 LIG-0.06  A 
ATOM     23  CD2 PHE B1001      20.843  21.679  21.008  1.00 29.14 LIG 0.01  A 
ATOM     24  CE2 PHE B1001      21.665  22.097  19.967  1.00 28.22 LIG 0.00  A 
ATOM     25  CZ  PHE B1001      21.340  21.777  18.660  1.00 28.72 LIG 0.00  A 
ATOM     26  CE1 PHE B1001      20.194  21.036  18.393  1.00 29.15 LIG 0.00  A 
ATOM     27  CD1 PHE B1001      19.379  20.621  19.437  1.00 28.88 LIG 0.01  A 
ENDBRANCH 21 22
ENDBRANCH 15 21
ENDBRANCH 10 15
ENDBRANCH 1 8
BRANCH 4 28
ATOM     28  C   PRO B1003      21.433  14.227  26.839  1.00 33.85 LIG 0.24  C 
ATOM     29 O    PRO B1003      21.877  14.712  27.880  1.00 33.94 LIG-0.27  OA
ATOM     30  N   PRO B1004      20.410  13.359  26.840  1.00 34.14 LIG-0.34  N 
ATOM     31  CA  PRO B1004      19.795  12.930  28.097  1.00 34.66 LIG 0.18  C 
ATOM     32  CD  PRO B1004      19.700  12.783  25.684  1.00 34.36 LIG 0.13  C 
ATOM     33  CB  PRO B1004      18.545  12.185  27.629  1.00 34.44 LIG 0.04  C 
ATOM     34  CG  PRO B1004      18.964  11.625  26.307  1.00 34.41 LIG 0.02  C 
BRANCH 31 35
ATOM     35  C   PRO B1004      20.754  12.047  28.899  1.00 35.04 LIG 0.24  C 
ATOM     36  N   PRO B1005      20.291  11.503  30.035  1.00 35.67 LIG-0.34  N 
ATOM     37  CD  PRO B1005      18.958  11.723  30.619  1.00 35.53 LIG 0.13  C 
ATOM     38  CA  PRO B1005      21.096  10.639  30.907  1.00 36.27 LIG 0.17  C 
ATOM     39  CG  PRO B1005      19.185  11.370  32.068  1.00 36.24 LIG 0.02  C 
ATOM     40  CB  PRO B1005      20.096  10.199  31.971  1.00 36.11 LIG 0.04  C 
ATOM     41 O    PRO B1004      21.908  11.861  28.512  1.00 35.22 LIG-0.27  OA
BRANCH 38 42
ATOM     42  C   PRO B1005      21.715   9.452  30.170  1.00 36.62 LIG 0.22  C 
ATOM     43 O    PRO B1005      22.922   9.525  29.855  1.00 36.45 LIG-0.29  OA
ENDBRANCH 38 42
ENDBRANCH 31 35
ENDBRANCH 4 28
TORSDOF 8
ENDMDL
MODEL 40
USER: ADFR SOLUTION from run 87
USER: SCORE 11.796622 LL:  -3.206 LR:  -8.662 RR:   0.000 FEB:  -6.276
USER: RMSD 5.006900
USER: SEED 86
USER: STATUS no improvement in best 25 clusters for 5 generations
USER: GENES 10
USER: genes 0 Translation |==|  0.41590 0.51788 0.47008
USER: genes 1 Rotation |==|  0.20180 0.17846 0.58740 0.72371
USER: genes 2 Torsion [O]-C--CA-[N] |==|  0.00233
USER: genes 3 Torsion [N]-C--CA-[N] |==|  0.35556
USER: genes 4 Torsion [C]-CA--N-[C] |==|  0.85903
USER: genes 5 Torsion [C]-CA--CB-[CG] |==|  0.81254
USER: genes 6 Torsion [CA]-CB--CG-[CD1] |==|  0.87695
USER: genes 7 Torsion [N]-CA--C-[O] |==|  0.80170
USER: genes 8 Torsion [N]-CA--C-[N] |==|  0.45415
USER: genes 9 Torsion [N]-CA--C-[O] |==|  0.34755
ROOT
ATOM      1  C   PRO B1002      17.317  21.536  17.272  1.00 33.09 LIG 0.24  C 
ATOM      2 O    PRO B1002      17.749  20.887  18.230  1.00 32.82 LIG-0.27  OA
ATOM      3  N   PRO B1003      18.133  22.172  16.422  1.00 33.61 LIG-0.34  N 
ATOM      4  CA  PRO B1003      19.583  22.118  16.615  1.00 34.05 LIG 0.18  C 
ATOM      5  CB  PRO B1003      20.117  22.782  15.349  1.00 34.65 LIG 0.04  C 
ATOM      6  CG  PRO B1003      19.060  23.790  15.038  1.00 34.15 LIG 0.02  C 
ATOM      7  CD  PRO B1003      17.788  22.999  15.253  1.00 34.31 LIG 0.13  C 
ENDROOT
BRANCH 1 8
ATOM      8  CA  PRO B1002      15.819  21.638  17.012  1.00 32.09 LIG 0.18  C 
ATOM      9  N   PRO B1002      15.111  20.894  18.052  1.00 31.87 LIG-0.34  N 
ATOM     10  C   PHE B1001      15.037  19.557  17.977  1.00 31.39 LIG 0.24  C 
ATOM     11  CD  PRO B1002      14.452  21.814  18.997  1.00 31.65 LIG 0.13  C 
ATOM     12 O    PHE B1001      15.540  18.924  17.045  1.00 31.36 LIG-0.27  OA
ATOM     13  CG  PRO B1002      15.117  23.145  18.673  1.00 31.59 LIG 0.02  C 
ATOM     14  CB  PRO B1002      15.293  23.060  17.191  1.00 32.35 LIG 0.04  C 
BRANCH 10 15
ATOM     15  CA  PHE B1001      14.296  18.841  19.094  1.00 30.70 LIG 0.18  C 
BRANCH 15 16
ATOM     16  N   PHE B1001      13.281  17.938  18.558  1.00 31.26 LIG-0.35  N 
ATOM     17  C   ACE B1000      12.384  18.339  17.659  1.00 32.54 LIG 0.21  C 
ATOM     18  CH3 ACE B1000      11.201  17.382  17.509  1.00 32.86 LIG 0.12  C 
ATOM     19 O    ACE B1000      12.309  19.506  17.255  1.00 32.71 LIG-0.27  OA
ATOM     20 H    PHE B1001      13.318  17.138  18.872  1.00 31.26 LIG 0.16  HD
ENDBRANCH 15 16
BRANCH 15 21
ATOM     21  CB  PHE B1001      15.338  18.078  19.921  1.00 29.45 LIG 0.07  C 
BRANCH 21 22
ATOM     22  CG  PHE B1001      15.986  16.942  19.195  1.00 29.10 LIG-0.06  A 
ATOM     23  CD2 PHE B1001      17.362  16.753  19.268  1.00 29.14 LIG 0.01  A 
ATOM     24  CE2 PHE B1001      17.970  15.702  18.590  1.00 28.22 LIG 0.00  A 
ATOM     25  CZ  PHE B1001      17.203  14.834  17.831  1.00 28.72 LIG 0.00  A 
ATOM     26  CE1 PHE B1001      15.827  15.014  17.753  1.00 29.15 LIG 0.00  A 
ATOM     27  CD1 PHE B1001      15.226  16.064  18.434  1.00 28.88 LIG 0.01  A 
ENDBRANCH 21 22
ENDBRANCH 15 21
ENDBRANCH 10 15
ENDBRANCH 1 8
BRANCH 4 28
ATOM     28  C   PRO B1003      20.008  22.853  17.885  1.00 33.85 LIG 0.24  C 
ATOM     29 O    PRO B1003      19.961  24.082  17.946  1.00 33.94 LIG-0.27  OA
ATOM     30  N   PRO B1004      20.408  22.106  18.925  1.00 34.14 LIG-0.34  N 
ATOM     31  CA  PRO B1004      20.837  22.733  20.176  1.00 34.66 LIG 0.18  C 
ATOM     32  CD  PRO B1004      20.411  20.637  19.045  1.00 34.36 LIG 0.13  C 
ATOM     33  CB  PRO B1004      20.940  21.548  21.135  1.00 34.44 LIG 0.04  C 
ATOM     34  CG  PRO B1004      21.315  20.417  20.232  1.00 34.41 LIG 0.02  C 
BRANCH 31 35
ATOM     35  C   PRO B1004      22.166  23.470  19.988  1.00 35.04 LIG 0.24  C 
ATOM     36  N   PRO B1005      22.516  24.363  20.925  1.00 35.67 LIG-0.34  N 
ATOM     37  CD  PRO B1005      21.711  24.750  22.096  1.00 35.53 LIG 0.13  C 
ATOM     38  CA  PRO B1005      23.757  25.145  20.877  1.00 36.27 LIG 0.17  C 
ATOM     39  CG  PRO B1005      22.284  26.102  22.442  1.00 36.24 LIG 0.02  C 
ATOM     40  CB  PRO B1005      23.737  25.902  22.201  1.00 36.11 LIG 0.04  C 
ATOM     41 O    PRO B1004      22.871  23.250  19.002  1.00 35.22 LIG-0.27  OA
BRANCH 38 42
ATOM     42  C   PRO B1005      25.007  24.279  20.726  1.00 36.62 LIG 0.22  C 
ATOM     43 O    PRO B1005      25.777  24.524  19.773  1.00 36.45 LIG-0.29  OA
ENDBRANCH 38 42
ENDBRANCH 31 35
ENDBRANCH 4 28
TORSDOF 8
ENDMDL
MODEL 41
USER: ADFR SOLUTION from run 56
USER: SCORE 11.630727 LL:  -3.464 LR:  -8.607 RR:   0.000 FEB:  -6.220
USER: RMSD 13.835472
USER: SEED 55
USER: STATUS no improvement in best 16 clusters for 5 generations
USER: GENES 10
USER: genes 0 Translation |==|  0.53600 0.25857 0.79110
USER: genes 1 Rotation |==|  0.24672 0.25213 0.53062 0.85139
USER: genes 2 Torsion [O]-C--CA-[N] |==|  0.07470
USER: genes 3 Torsion [N]-C--CA-[N] |==|  0.53066
USER: genes 4 Torsion [C]-CA--N-[C] |==|  0.57778
USER: genes 5 Torsion [C]-CA--CB-[CG] |==|  0.82152
USER: genes 6 Torsion [CA]-CB--CG-[CD1] |==|  0.80957
USER: genes 7 Torsion [N]-CA--C-[O] |==|  0.00674
USER: genes 8 Torsion [N]-CA--C-[N] |==|  0.32360
USER: genes 9 Torsion [N]-CA--C-[O] |==|  0.20357
ROOT
ATOM      1  C   PRO B1002      20.920  13.757  26.903  1.00 33.09 LIG 0.24  C 
ATOM      2 O    PRO B1002      21.367  12.660  27.252  1.00 32.82 LIG-0.27  OA
ATOM      3  N   PRO B1003      21.629  14.599  26.140  1.00 33.61 LIG-0.34  N 
ATOM      4  CA  PRO B1003      22.977  14.236  25.700  1.00 34.05 LIG 0.18  C 
ATOM      5  CB  PRO B1003      23.325  15.353  24.720  1.00 34.65 LIG 0.04  C 
ATOM      6  CG  PRO B1003      22.607  16.529  25.296  1.00 34.15 LIG 0.02  C 
ATOM      7  CD  PRO B1003      21.260  15.940  25.655  1.00 34.31 LIG 0.13  C 
ENDROOT
BRANCH 1 8
ATOM      8  CA  PRO B1002      19.525  14.202  27.326  1.00 32.09 LIG 0.18  C 
ATOM      9  N   PRO B1002      19.183  13.538  28.582  1.00 31.87 LIG-0.34  N 
ATOM     10  C   PHE B1001      18.775  12.261  28.568  1.00 31.39 LIG 0.24  C 
ATOM     11  CD  PRO B1002      19.229  14.491  29.706  1.00 31.65 LIG 0.13  C 
ATOM     12 O    PHE B1001      18.665  11.619  27.519  1.00 31.36 LIG-0.27  OA
ATOM     13  CG  PRO B1002      19.978  15.670  29.103  1.00 31.59 LIG 0.02  C 
ATOM     14  CB  PRO B1002      19.474  15.681  27.696  1.00 32.35 LIG 0.04  C 
BRANCH 10 15
ATOM     15  CA  PHE B1001      18.444  11.624  29.908  1.00 30.70 LIG 0.18  C 
BRANCH 15 16
ATOM     16  N   PHE B1001      18.269  10.180  29.775  1.00 31.26 LIG-0.35  N 
ATOM     17  C   ACE B1000      17.481   9.487  30.595  1.00 32.54 LIG 0.21  C 
ATOM     18  CH3 ACE B1000      17.719   7.977  30.538  1.00 32.86 LIG 0.12  C 
ATOM     19 O    ACE B1000      16.886   9.998  31.551  1.00 32.71 LIG-0.27  OA
ATOM     20 H    PHE B1001      18.715   9.828  29.130  1.00 31.26 LIG 0.16  HD
ENDBRANCH 15 16
BRANCH 15 21
ATOM     21  CB  PHE B1001      19.588  11.959  30.872  1.00 29.45 LIG 0.07  C 
BRANCH 21 22
ATOM     22  CG  PHE B1001      20.908  11.371  30.486  1.00 29.10 LIG-0.06  A 
ATOM     23  CD2 PHE B1001      21.946  12.190  30.057  1.00 29.14 LIG 0.01  A 
ATOM     24  CE2 PHE B1001      23.173  11.648  29.691  1.00 28.22 LIG 0.00  A 
ATOM     25  CZ  PHE B1001      23.368  10.278  29.752  1.00 28.72 LIG 0.00  A 
ATOM     26  CE1 PHE B1001      22.336   9.451  30.180  1.00 29.15 LIG 0.00  A 
ATOM     27  CD1 PHE B1001      21.114   9.999  30.545  1.00 28.88 LIG 0.01  A 
ENDBRANCH 21 22
ENDBRANCH 15 21
ENDBRANCH 10 15
ENDBRANCH 1 8
BRANCH 4 28
ATOM     28  C   PRO B1003      23.951  14.166  26.876  1.00 33.85 LIG 0.24  C 
ATOM     29 O    PRO B1003      23.560  14.357  28.028  1.00 33.94 LIG-0.27  OA
ATOM     30  N   PRO B1004      25.229  13.870  26.600  1.00 34.14 LIG-0.34  N 
ATOM     31  CA  PRO B1004      26.226  13.790  27.669  1.00 34.66 LIG 0.18  C 
ATOM     32  CD  PRO B1004      25.822  13.508  25.300  1.00 34.36 LIG 0.13  C 
ATOM     33  CB  PRO B1004      27.438  13.183  26.961  1.00 34.44 LIG 0.04  C 
ATOM     34  CG  PRO B1004      27.296  13.688  25.562  1.00 34.41 LIG 0.02  C 
BRANCH 31 35
ATOM     35  C   PRO B1004      26.507  15.175  28.257  1.00 35.04 LIG 0.24  C 
ATOM     36  N   PRO B1005      26.193  15.376  29.545  1.00 35.67 LIG-0.34  N 
ATOM     37  CD  PRO B1005      25.545  14.402  30.440  1.00 35.53 LIG 0.13  C 
ATOM     38  CA  PRO B1005      26.403  16.650  30.242  1.00 36.27 LIG 0.17  C 
ATOM     39  CG  PRO B1005      24.950  15.294  31.501  1.00 36.24 LIG 0.02  C 
ATOM     40  CB  PRO B1005      26.006  16.325  31.678  1.00 36.11 LIG 0.04  C 
ATOM     41 O    PRO B1004      26.991  16.067  27.558  1.00 35.22 LIG-0.27  OA
BRANCH 38 42
ATOM     42  C   PRO B1005      27.840  17.160  30.141  1.00 36.62 LIG 0.22  C 
ATOM     43 O    PRO B1005      28.220  17.625  29.045  1.00 36.45 LIG-0.29  OA
ENDBRANCH 38 42
ENDBRANCH 31 35
ENDBRANCH 4 28
TORSDOF 8
ENDMDL
MODEL 42
USER: ADFR SOLUTION from run 149
USER: SCORE 12.852862 LL:  -4.251 LR:  -8.603 RR:   0.000 FEB:  -6.216
USER: RMSD 8.802842
USER: SEED 148
USER: STATUS no improvement in best 12 clusters for 5 generations
USER: GENES 10
USER: genes 0 Translation |==|  0.44280 0.54844 0.50376
USER: genes 1 Rotation |==|  0.16566 0.80944 0.41506 0.68775
USER: genes 2 Torsion [O]-C--CA-[N] |==|  0.06925
USER: genes 3 Torsion [N]-C--CA-[N] |==|  0.39134
USER: genes 4 Torsion [C]-CA--N-[C] |==|  0.82097
USER: genes 5 Torsion [C]-CA--CB-[CG] |==|  0.18056
USER: genes 6 Torsion [CA]-CB--CG-[CD1] |==|  0.17146
USER: genes 7 Torsion [N]-CA--C-[O] |==|  0.96593
USER: genes 8 Torsion [N]-CA--C-[N] |==|  0.35095
USER: genes 9 Torsion [N]-CA--C-[O] |==|  0.79638
ROOT
ATOM      1  C   PRO B1002      18.124  22.453  18.283  1.00 33.09 LIG 0.24  C 
ATOM      2 O    PRO B1002      17.786  22.307  19.461  1.00 32.82 LIG-0.27  OA
ATOM      3  N   PRO B1003      17.297  22.170  17.269  1.00 33.61 LIG-0.34  N 
ATOM      4  CA  PRO B1003      15.950  21.663  17.537  1.00 34.05 LIG 0.18  C 
ATOM      5  CB  PRO B1003      15.305  21.669  16.155  1.00 34.65 LIG 0.04  C 
ATOM      6  CG  PRO B1003      16.459  21.375  15.254  1.00 34.15 LIG 0.02  C 
ATOM      7  CD  PRO B1003      17.544  22.266  15.820  1.00 34.31 LIG 0.13  C 
ENDROOT
BRANCH 1 8
ATOM      8  CA  PRO B1002      19.512  22.974  17.929  1.00 32.09 LIG 0.18  C 
ATOM      9  N   PRO B1002      20.422  22.670  19.031  1.00 31.87 LIG-0.34  N 
ATOM     10  C   PHE B1001      20.411  23.436  20.131  1.00 31.39 LIG 0.24  C 
ATOM     11  CD  PRO B1002      21.340  21.576  18.664  1.00 31.65 LIG 0.13  C 
ATOM     12 O    PHE B1001      19.660  24.409  20.245  1.00 31.36 LIG-0.27  OA
ATOM     13  CG  PRO B1002      20.679  21.000  17.420  1.00 31.59 LIG 0.02  C 
ATOM     14  CB  PRO B1002      20.133  22.222  16.755  1.00 32.35 LIG 0.04  C 
BRANCH 10 15
ATOM     15  CA  PHE B1001      21.373  23.062  21.246  1.00 30.70 LIG 0.18  C 
BRANCH 15 16
ATOM     16  N   PHE B1001      21.954  24.253  21.862  1.00 31.26 LIG-0.35  N 
ATOM     17  C   ACE B1000      22.745  25.082  21.184  1.00 32.54 LIG 0.21  C 
ATOM     18  CH3 ACE B1000      23.540  26.034  22.078  1.00 32.86 LIG 0.12  C 
ATOM     19 O    ACE B1000      23.088  24.881  20.012  1.00 32.71 LIG-0.27  OA
ATOM     20 H    PHE B1001      21.740  24.364  22.687  1.00 31.26 LIG 0.16  HD
ENDBRANCH 15 16
BRANCH 15 21
ATOM     21  CB  PHE B1001      20.590  22.233  22.271  1.00 29.45 LIG 0.07  C 
BRANCH 21 22
ATOM     22  CG  PHE B1001      20.102  20.918  21.751  1.00 29.10 LIG-0.06  A 
ATOM     23  CD2 PHE B1001      18.740  20.642  21.700  1.00 29.14 LIG 0.01  A 
ATOM     24  CE2 PHE B1001      18.281  19.419  21.223  1.00 28.22 LIG 0.00  A 
ATOM     25  CZ  PHE B1001      19.186  18.461  20.796  1.00 28.72 LIG 0.00  A 
ATOM     26  CE1 PHE B1001      20.550  18.728  20.842  1.00 29.15 LIG 0.00  A 
ATOM     27  CD1 PHE B1001      21.000  19.952  21.318  1.00 28.88 LIG 0.01  A 
ENDBRANCH 21 22
ENDBRANCH 15 21
ENDBRANCH 10 15
ENDBRANCH 1 8
BRANCH 4 28
ATOM     28  C   PRO B1003      15.990  20.267  18.158  1.00 33.85 LIG 0.24  C 
ATOM     29 O    PRO B1003      17.033  19.613  18.170  1.00 33.94 LIG-0.27  OA
ATOM     30  N   PRO B1004      14.855  19.802  18.701  1.00 34.14 LIG-0.34  N 
ATOM     31  CA  PRO B1004      14.807  18.472  19.311  1.00 34.66 LIG 0.18  C 
ATOM     32  CD  PRO B1004      13.568  20.502  18.866  1.00 34.36 LIG 0.13  C 
ATOM     33  CB  PRO B1004      13.451  18.468  20.016  1.00 34.44 LIG 0.04  C 
ATOM     34  CG  PRO B1004      12.622  19.364  19.154  1.00 34.41 LIG 0.02  C 
BRANCH 31 35
ATOM     35  C   PRO B1004      14.932  17.380  18.245  1.00 35.04 LIG 0.24  C 
ATOM     36  N   PRO B1005      15.889  16.456  18.415  1.00 35.67 LIG-0.34  N 
ATOM     37  CD  PRO B1005      16.878  16.424  19.507  1.00 35.53 LIG 0.13  C 
ATOM     38  CA  PRO B1005      16.128  15.354  17.476  1.00 36.27 LIG 0.17  C 
ATOM     39  CG  PRO B1005      17.977  15.580  18.913  1.00 36.24 LIG 0.02  C 
ATOM     40  CB  PRO B1005      17.215  14.541  18.171  1.00 36.11 LIG 0.04  C 
ATOM     41 O    PRO B1004      14.184  17.370  17.267  1.00 35.22 LIG-0.27  OA
BRANCH 38 42
ATOM     42  C   PRO B1005      14.877  14.523  17.194  1.00 36.62 LIG 0.22  C 
ATOM     43 O    PRO B1005      14.472  13.754  18.092  1.00 36.45 LIG-0.29  OA
ENDBRANCH 38 42
ENDBRANCH 31 35
ENDBRANCH 4 28
TORSDOF 8
ENDMDL
MODEL 43
USER: ADFR SOLUTION from run 144
USER: SCORE 11.330460 LL:  -3.049 LR:  -8.586 RR:   0.000 FEB:  -6.200
USER: RMSD 7.837559
USER: SEED 143
USER: STATUS no improvement in best 13 clusters for 5 generations
USER: GENES 10
USER: genes 0 Translation |==|  0.47634 0.41682 0.66821
USER: genes 1 Rotation |==|  0.36238 0.33192 0.93614 0.61220
USER: genes 2 Torsion [O]-C--CA-[N] |==|  0.78976
USER: genes 3 Torsion [N]-C--CA-[N] |==|  0.88655
USER: genes 4 Torsion [C]-CA--N-[C] |==|  0.71667
USER: genes 5 Torsion [C]-CA--CB-[CG] |==|  0.25792
USER: genes 6 Torsion [CA]-CB--CG-[CD1] |==|  0.52554
USER: genes 7 Torsion [N]-CA--C-[O] |==|  0.79630
USER: genes 8 Torsion [N]-CA--C-[N] |==|  0.30877
USER: genes 9 Torsion [N]-CA--C-[O] |==|  0.24843
ROOT
ATOM      1  C   PRO B1002      19.130  18.505  23.216  1.00 33.09 LIG 0.24  C 
ATOM      2 O    PRO B1002      20.072  19.289  23.059  1.00 32.82 LIG-0.27  OA
ATOM      3  N   PRO B1003      18.582  17.842  22.190  1.00 33.61 LIG-0.34  N 
ATOM      4  CA  PRO B1003      19.088  18.040  20.831  1.00 34.05 LIG 0.18  C 
ATOM      5  CB  PRO B1003      18.340  16.976  20.033  1.00 34.65 LIG 0.04  C 
ATOM      6  CG  PRO B1003      17.030  16.894  20.746  1.00 34.15 LIG 0.02  C 
ATOM      7  CD  PRO B1003      17.453  16.896  22.199  1.00 34.31 LIG 0.13  C 
ENDROOT
BRANCH 1 8
ATOM      8  CA  PRO B1002      18.551  18.251  24.603  1.00 32.09 LIG 0.18  C 
ATOM      9  N   PRO B1002      19.467  17.386  25.342  1.00 31.87 LIG-0.34  N 
ATOM     10  C   PHE B1001      19.474  16.067  25.101  1.00 31.39 LIG 0.24  C 
ATOM     11  CD  PRO B1002      20.181  18.149  26.383  1.00 31.65 LIG 0.13  C 
ATOM     12 O    PHE B1001      18.719  15.548  24.275  1.00 31.36 LIG-0.27  OA
ATOM     13  CG  PRO B1002      19.911  19.590  25.973  1.00 31.59 LIG 0.02  C 
ATOM     14  CB  PRO B1002      18.511  19.516  25.456  1.00 32.35 LIG 0.04  C 
BRANCH 10 15
ATOM     15  CA  PHE B1001      20.457  15.222  25.895  1.00 30.70 LIG 0.18  C 
BRANCH 15 16
ATOM     16  N   PHE B1001      21.747  15.895  26.021  1.00 31.26 LIG-0.35  N 
ATOM     17  C   ACE B1000      22.795  15.558  25.272  1.00 32.54 LIG 0.21  C 
ATOM     18  CH3 ACE B1000      24.123  16.100  25.800  1.00 32.86 LIG 0.12  C 
ATOM     19 O    ACE B1000      22.771  14.625  24.460  1.00 32.71 LIG-0.27  OA
ATOM     20 H    PHE B1001      21.765  16.518  26.614  1.00 31.26 LIG 0.16  HD
ENDBRANCH 15 16
BRANCH 15 21
ATOM     21  CB  PHE B1001      19.831  14.959  27.270  1.00 29.45 LIG 0.07  C 
BRANCH 21 22
ATOM     22  CG  PHE B1001      19.052  13.685  27.355  1.00 29.10 LIG-0.06  A 
ATOM     23  CD2 PHE B1001      19.092  12.763  26.314  1.00 29.14 LIG 0.01  A 
ATOM     24  CE2 PHE B1001      18.365  11.580  26.385  1.00 28.22 LIG 0.00  A 
ATOM     25  CZ  PHE B1001      17.590  11.312  27.502  1.00 28.72 LIG 0.00  A 
ATOM     26  CE1 PHE B1001      17.544  12.227  28.548  1.00 29.15 LIG 0.00  A 
ATOM     27  CD1 PHE B1001      18.274  13.405  28.470  1.00 28.88 LIG 0.01  A 
ENDBRANCH 21 22
ENDBRANCH 15 21
ENDBRANCH 10 15
ENDBRANCH 1 8
BRANCH 4 28
ATOM     28  C   PRO B1003      18.806  19.455  20.328  1.00 33.85 LIG 0.24  C 
ATOM     29 O    PRO B1003      17.665  19.793  20.008  1.00 33.94 LIG-0.27  OA
ATOM     30  N   PRO B1004      19.840  20.307  20.272  1.00 34.14 LIG-0.34  N 
ATOM     31  CA  PRO B1004      19.655  21.678  19.796  1.00 34.66 LIG 0.18  C 
ATOM     32  CD  PRO B1004      21.227  20.090  20.723  1.00 34.36 LIG 0.13  C 
ATOM     33  CB  PRO B1004      20.985  22.345  20.147  1.00 34.44 LIG 0.04  C 
ATOM     34  CG  PRO B1004      21.962  21.218  20.045  1.00 34.41 LIG 0.02  C 
BRANCH 31 35
ATOM     35  C   PRO B1004      19.352  21.698  18.295  1.00 35.04 LIG 0.24  C 
ATOM     36  N   PRO B1005      18.119  22.063  17.917  1.00 35.67 LIG-0.34  N 
ATOM     37  CD  PRO B1005      17.000  22.393  18.816  1.00 35.53 LIG 0.13  C 
ATOM     38  CA  PRO B1005      17.685  22.125  16.517  1.00 36.27 LIG 0.17  C 
ATOM     39  CG  PRO B1005      15.802  22.170  17.927  1.00 36.24 LIG 0.02  C 
ATOM     40  CB  PRO B1005      16.274  22.697  16.619  1.00 36.11 LIG 0.04  C 
ATOM     41 O    PRO B1004      20.215  21.375  17.478  1.00 35.22 LIG-0.27  OA
BRANCH 38 42
ATOM     42  C   PRO B1005      18.595  22.988  15.644  1.00 36.62 LIG 0.22  C 
ATOM     43 O    PRO B1005      19.568  22.435  15.088  1.00 36.45 LIG-0.29  OA
ENDBRANCH 38 42
ENDBRANCH 31 35
ENDBRANCH 4 28
TORSDOF 8
ENDMDL
MODEL 44
USER: ADFR SOLUTION from run 127
USER: SCORE 11.489906 LL:  -3.105 LR:  -8.549 RR:   0.000 FEB:  -6.163
USER: RMSD 14.688953
USER: SEED 126
USER: STATUS no improvement in best 11 clusters for 5 generations
USER: GENES 10
USER: genes 0 Translation |==|  0.79246 0.26219 0.76150
USER: genes 1 Rotation |==|  0.49183 0.49767 0.24296 0.92879
USER: genes 2 Torsion [O]-C--CA-[N] |==|  0.98606
USER: genes 3 Torsion [N]-C--CA-[N] |==|  0.29825
USER: genes 4 Torsion [C]-CA--N-[C] |==|  0.74464
USER: genes 5 Torsion [C]-CA--CB-[CG] |==|  0.58952
USER: genes 6 Torsion [CA]-CB--CG-[CD1] |==|  0.35680
USER: genes 7 Torsion [N]-CA--C-[O] |==|  0.05649
USER: genes 8 Torsion [N]-CA--C-[N] |==|  0.34673
USER: genes 9 Torsion [N]-CA--C-[O] |==|  0.90234
ROOT
ATOM      1  C   PRO B1002      28.614  13.866  26.015  1.00 33.09 LIG 0.24  C 
ATOM      2 O    PRO B1002      27.972  13.720  24.970  1.00 32.82 LIG-0.27  OA
ATOM      3  N   PRO B1003      29.922  14.150  26.008  1.00 33.61 LIG-0.34  N 
ATOM      4  CA  PRO B1003      30.639  14.290  24.740  1.00 34.05 LIG 0.18  C 
ATOM      5  CB  PRO B1003      32.009  14.798  25.179  1.00 34.65 LIG 0.04  C 
ATOM      6  CG  PRO B1003      32.190  14.140  26.508  1.00 34.15 LIG 0.02  C 
ATOM      7  CD  PRO B1003      30.834  14.334  27.151  1.00 34.31 LIG 0.13  C 
ENDROOT
BRANCH 1 8
ATOM      8  CA  PRO B1002      27.934  13.732  27.372  1.00 32.09 LIG 0.18  C 
ATOM      9  N   PRO B1002      26.499  13.548  27.161  1.00 31.87 LIG-0.34  N 
ATOM     10  C   PHE B1001      25.729  14.608  26.876  1.00 31.39 LIG 0.24  C 
ATOM     11  CD  PRO B1002      26.104  12.155  27.441  1.00 31.65 LIG 0.13  C 
ATOM     12 O    PHE B1001      26.190  15.750  26.796  1.00 31.36 LIG-0.27  OA
ATOM     13  CG  PRO B1002      27.446  11.436  27.470  1.00 31.59 LIG 0.02  C 
ATOM     14  CB  PRO B1002      28.339  12.454  28.102  1.00 32.35 LIG 0.04  C 
BRANCH 10 15
ATOM     15  CA  PHE B1001      24.247  14.350  26.658  1.00 30.70 LIG 0.18  C 
BRANCH 15 16
ATOM     16  N   PHE B1001      23.457  14.839  27.784  1.00 31.26 LIG-0.35  N 
ATOM     17  C   ACE B1000      23.143  14.060  28.817  1.00 32.54 LIG 0.21  C 
ATOM     18  CH3 ACE B1000      22.021  14.625  29.689  1.00 32.86 LIG 0.12  C 
ATOM     19 O    ACE B1000      23.448  12.863  28.877  1.00 32.71 LIG-0.27  OA
ATOM     20 H    PHE B1001      23.218  15.663  27.717  1.00 31.26 LIG 0.16  HD
ENDBRANCH 15 16
BRANCH 15 21
ATOM     21  CB  PHE B1001      23.847  15.047  25.352  1.00 29.45 LIG 0.07  C 
BRANCH 21 22
ATOM     22  CG  PHE B1001      22.442  15.559  25.337  1.00 29.10 LIG-0.06  A 
ATOM     23  CD2 PHE B1001      21.383  14.722  25.670  1.00 29.14 LIG 0.01  A 
ATOM     24  CE2 PHE B1001      20.074  15.192  25.652  1.00 28.22 LIG 0.00  A 
ATOM     25  CZ  PHE B1001      19.817  16.506  25.297  1.00 28.72 LIG 0.00  A 
ATOM     26  CE1 PHE B1001      20.870  17.351  24.963  1.00 29.15 LIG 0.00  A 
ATOM     27  CD1 PHE B1001      22.173  16.875  24.985  1.00 28.88 LIG 0.01  A 
ENDBRANCH 21 22
ENDBRANCH 15 21
ENDBRANCH 10 15
ENDBRANCH 1 8
BRANCH 4 28
ATOM     28  C   PRO B1003      30.721  12.959  23.992  1.00 33.85 LIG 0.24  C 
ATOM     29 O    PRO B1003      29.936  12.045  24.248  1.00 33.94 LIG-0.27  OA
ATOM     30  N   PRO B1004      31.661  12.843  23.043  1.00 34.14 LIG-0.34  N 
ATOM     31  CA  PRO B1004      31.809  11.600  22.285  1.00 34.66 LIG 0.18  C 
ATOM     32  CD  PRO B1004      32.590  13.875  22.547  1.00 34.36 LIG 0.13  C 
ATOM     33  CB  PRO B1004      32.778  11.993  21.170  1.00 34.44 LIG 0.04  C 
ATOM     34  CG  PRO B1004      33.616  13.051  21.811  1.00 34.41 LIG 0.02  C 
BRANCH 31 35
ATOM     35  C   PRO B1004      32.346  10.479  23.178  1.00 35.04 LIG 0.24  C 
ATOM     36  N   PRO B1005      31.632   9.346  23.246  1.00 35.67 LIG-0.34  N 
ATOM     37  CD  PRO B1005      30.340   9.096  22.585  1.00 35.53 LIG 0.13  C 
ATOM     38  CA  PRO B1005      32.022   8.189  24.062  1.00 36.27 LIG 0.17  C 
ATOM     39  CG  PRO B1005      29.768   7.978  23.420  1.00 36.24 LIG 0.02  C 
ATOM     40  CB  PRO B1005      30.967   7.146  23.704  1.00 36.11 LIG 0.04  C 
ATOM     41 O    PRO B1004      33.389  10.630  23.816  1.00 35.22 LIG-0.27  OA
BRANCH 38 42
ATOM     42  C   PRO B1005      33.439   7.700  23.772  1.00 36.62 LIG 0.22  C 
ATOM     43 O    PRO B1005      33.853   7.771  22.595  1.00 36.45 LIG-0.29  OA
ENDBRANCH 38 42
ENDBRANCH 31 35
ENDBRANCH 4 28
TORSDOF 8
ENDMDL
MODEL 45
USER: ADFR SOLUTION from run 121
USER: SCORE 11.273872 LL:  -2.985 LR:  -8.538 RR:   0.000 FEB:  -6.151
USER: RMSD 12.218101
USER: SEED 120
USER: STATUS no improvement in best 15 clusters for 5 generations
USER: GENES 10
USER: genes 0 Translation |==|  0.42863 0.23983 0.75473
USER: genes 1 Rotation |==|  0.53017 0.31220 0.44674 0.95933
USER: genes 2 Torsion [O]-C--CA-[N] |==|  0.01497
USER: genes 3 Torsion [N]-C--CA-[N] |==|  0.32816
USER: genes 4 Torsion [C]-CA--N-[C] |==|  0.65187
USER: genes 5 Torsion [C]-CA--CB-[CG] |==|  0.60869
USER: genes 6 Torsion [CA]-CB--CG-[CD1] |==|  0.30214
USER: genes 7 Torsion [N]-CA--C-[O] |==|  0.04036
USER: genes 8 Torsion [N]-CA--C-[N] |==|  0.51969
USER: genes 9 Torsion [N]-CA--C-[O] |==|  0.84130
ROOT
ATOM      1  C   PRO B1002      17.699  13.195  25.812  1.00 33.09 LIG 0.24  C 
ATOM      2 O    PRO B1002      18.210  12.684  24.810  1.00 32.82 LIG-0.27  OA
ATOM      3  N   PRO B1003      18.137  14.356  26.316  1.00 33.61 LIG-0.34  N 
ATOM      4  CA  PRO B1003      19.257  15.055  25.685  1.00 34.05 LIG 0.18  C 
ATOM      5  CB  PRO B1003      19.290  16.385  26.433  1.00 34.65 LIG 0.04  C 
ATOM      6  CG  PRO B1003      18.828  16.001  27.801  1.00 34.15 LIG 0.02  C 
ATOM      7  CD  PRO B1003      17.660  15.087  27.502  1.00 34.31 LIG 0.13  C 
ENDROOT
BRANCH 1 8
ATOM      8  CA  PRO B1002      16.531  12.521  26.521  1.00 32.09 LIG 0.18  C 
ATOM      9  N   PRO B1002      16.290  11.222  25.896  1.00 31.87 LIG-0.34  N 
ATOM     10  C   PHE B1001      15.625  11.158  24.734  1.00 31.39 LIG 0.24  C 
ATOM     11  CD  PRO B1002      16.741  10.127  26.775  1.00 31.65 LIG 0.13  C 
ATOM     12 O    PHE B1001      15.193  12.167  24.170  1.00 31.36 LIG-0.27  OA
ATOM     13  CG  PRO B1002      17.601  10.861  27.794  1.00 31.59 LIG 0.02  C 
ATOM     14  CB  PRO B1002      16.863  12.149  27.964  1.00 32.35 LIG 0.04  C 
BRANCH 10 15
ATOM     15  CA  PHE B1001      15.415   9.779  24.130  1.00 30.70 LIG 0.18  C 
BRANCH 15 16
ATOM     16  N   PHE B1001      13.994   9.462  24.024  1.00 31.26 LIG-0.35  N 
ATOM     17  C   ACE B1000      13.477   8.355  24.556  1.00 32.54 LIG 0.21  C 
ATOM     18  CH3 ACE B1000      12.082   8.018  24.027  1.00 32.86 LIG 0.12  C 
ATOM     19 O    ACE B1000      14.161   7.497  25.126  1.00 32.71 LIG-0.27  OA
ATOM     20 H    PHE B1001      13.532  10.046  23.594  1.00 31.26 LIG 0.16  HD
ENDBRANCH 15 16
BRANCH 15 21
ATOM     21  CB  PHE B1001      16.090   9.773  22.753  1.00 29.45 LIG 0.07  C 
BRANCH 21 22
ATOM     22  CG  PHE B1001      15.327   9.035  21.699  1.00 29.10 LIG-0.06  A 
ATOM     23  CD2 PHE B1001      15.245   7.647  21.731  1.00 29.14 LIG 0.01  A 
ATOM     24  CE2 PHE B1001      14.542   6.955  20.751  1.00 28.22 LIG 0.00  A 
ATOM     25  CZ  PHE B1001      13.916   7.651  19.729  1.00 28.72 LIG 0.00  A 
ATOM     26  CE1 PHE B1001      13.992   9.039  19.690  1.00 29.15 LIG 0.00  A 
ATOM     27  CD1 PHE B1001      14.694   9.722  20.673  1.00 28.88 LIG 0.01  A 
ENDBRANCH 21 22
ENDBRANCH 15 21
ENDBRANCH 10 15
ENDBRANCH 1 8
BRANCH 4 28
ATOM     28  C   PRO B1003      20.561  14.271  25.829  1.00 33.85 LIG 0.24  C 
ATOM     29 O    PRO B1003      20.549  13.089  26.173  1.00 33.94 LIG-0.27  OA
ATOM     30  N   PRO B1004      21.702  14.917  25.547  1.00 34.14 LIG-0.34  N 
ATOM     31  CA  PRO B1004      22.994  14.239  25.666  1.00 34.66 LIG 0.18  C 
ATOM     32  CD  PRO B1004      21.872  16.283  25.020  1.00 34.36 LIG 0.13  C 
ATOM     33  CB  PRO B1004      23.960  15.226  25.010  1.00 34.44 LIG 0.04  C 
ATOM     34  CG  PRO B1004      23.330  16.552  25.295  1.00 34.41 LIG 0.02  C 
BRANCH 31 35
ATOM     35  C   PRO B1004      23.329  13.959  27.133  1.00 35.04 LIG 0.24  C 
ATOM     36  N   PRO B1005      24.548  13.473  27.407  1.00 35.67 LIG-0.34  N 
ATOM     37  CD  PRO B1005      25.584  13.125  26.420  1.00 35.53 LIG 0.13  C 
ATOM     38  CA  PRO B1005      25.007  13.154  28.765  1.00 36.27 LIG 0.17  C 
ATOM     39  CG  PRO B1005      26.445  12.156  27.192  1.00 36.24 LIG 0.02  C 
ATOM     40  CB  PRO B1005      26.466  12.761  28.550  1.00 36.11 LIG 0.04  C 
ATOM     41 O    PRO B1004      22.496  14.164  28.017  1.00 35.22 LIG-0.27  OA
BRANCH 38 42
ATOM     42  C   PRO B1005      24.862  14.323  29.738  1.00 36.62 LIG 0.22  C 
ATOM     43 O    PRO B1005      25.432  15.397  29.450  1.00 36.45 LIG-0.29  OA
ENDBRANCH 38 42
ENDBRANCH 31 35
ENDBRANCH 4 28
TORSDOF 8
ENDMDL
MODEL 46
USER: ADFR SOLUTION from run 40
USER: SCORE 11.888645 LL:  -3.372 LR:  -8.525 RR:   0.000 FEB:  -6.139
USER: RMSD 10.243413
USER: SEED 39
USER: STATUS no improvement in best 16 clusters for 5 generations
USER: GENES 10
USER: genes 0 Translation |==|  0.48567 0.51022 0.53679
USER: genes 1 Rotation |==|  0.51706 0.73537 0.94081 0.50015
USER: genes 2 Torsion [O]-C--CA-[N] |==|  0.94923
USER: genes 3 Torsion [N]-C--CA-[N] |==|  0.41476
USER: genes 4 Torsion [C]-CA--N-[C] |==|  0.81640
USER: genes 5 Torsion [C]-CA--CB-[CG] |==|  0.56204
USER: genes 6 Torsion [CA]-CB--CG-[CD1] |==|  0.73266
USER: genes 7 Torsion [N]-CA--C-[O] |==|  0.98056
USER: genes 8 Torsion [N]-CA--C-[N] |==|  0.34515
USER: genes 9 Torsion [N]-CA--C-[O] |==|  0.90588
ROOT
ATOM      1  C   PRO B1002      19.410  21.306  19.274  1.00 33.09 LIG 0.24  C 
ATOM      2 O    PRO B1002      19.527  20.764  18.171  1.00 32.82 LIG-0.27  OA
ATOM      3  N   PRO B1003      19.087  20.613  20.373  1.00 33.61 LIG-0.34  N 
ATOM      4  CA  PRO B1003      18.851  19.171  20.290  1.00 34.05 LIG 0.18  C 
ATOM      5  CB  PRO B1003      18.716  18.766  21.755  1.00 34.65 LIG 0.04  C 
ATOM      6  CG  PRO B1003      18.093  19.975  22.372  1.00 34.15 LIG 0.02  C 
ATOM      7  CD  PRO B1003      18.888  21.101  21.748  1.00 34.31 LIG 0.13  C 
ENDROOT
BRANCH 1 8
ATOM      8  CA  PRO B1002      19.638  22.805  19.434  1.00 32.09 LIG 0.18  C 
ATOM      9  N   PRO B1002      20.390  23.290  18.279  1.00 31.87 LIG-0.34  N 
ATOM     10  C   PHE B1001      21.715  23.091  18.218  1.00 31.39 LIG 0.24  C 
ATOM     11  CD  PRO B1002      19.522  24.075  17.382  1.00 31.65 LIG 0.13  C 
ATOM     12 O    PHE B1001      22.333  22.517  19.118  1.00 31.36 LIG-0.27  OA
ATOM     13  CG  PRO B1002      18.129  23.716  17.880  1.00 31.59 LIG 0.02  C 
ATOM     14  CB  PRO B1002      18.339  23.602  19.356  1.00 32.35 LIG 0.04  C 
BRANCH 10 15
ATOM     15  CA  PHE B1001      22.438  23.611  16.986  1.00 30.70 LIG 0.18  C 
BRANCH 15 16
ATOM     16  N   PHE B1001      23.810  23.999  17.306  1.00 31.26 LIG-0.35  N 
ATOM     17  C   ACE B1000      24.082  25.023  18.112  1.00 32.54 LIG 0.21  C 
ATOM     18  CH3 ACE B1000      25.533  25.499  18.023  1.00 32.86 LIG 0.12  C 
ATOM     19 O    ACE B1000      23.208  25.748  18.601  1.00 32.71 LIG-0.27  OA
ATOM     20 H    PHE B1001      24.411  23.512  16.931  1.00 31.26 LIG 0.16  HD
ENDBRANCH 15 16
BRANCH 15 21
ATOM     21  CB  PHE B1001      22.407  22.498  15.932  1.00 29.45 LIG 0.07  C 
BRANCH 21 22
ATOM     22  CG  PHE B1001      23.479  22.606  14.894  1.00 29.10 LIG-0.06  A 
ATOM     23  CD2 PHE B1001      24.753  22.106  15.143  1.00 29.14 LIG 0.01  A 
ATOM     24  CE2 PHE B1001      25.755  22.208  14.185  1.00 28.22 LIG 0.00  A 
ATOM     25  CZ  PHE B1001      25.488  22.815  12.969  1.00 28.72 LIG 0.00  A 
ATOM     26  CE1 PHE B1001      24.217  23.316  12.710  1.00 29.15 LIG 0.00  A 
ATOM     27  CD1 PHE B1001      23.222  23.209  13.671  1.00 28.88 LIG 0.01  A 
ENDBRANCH 21 22
ENDBRANCH 15 21
ENDBRANCH 10 15
ENDBRANCH 1 8
BRANCH 4 28
ATOM     28  C   PRO B1003      17.596  18.853  19.478  1.00 33.85 LIG 0.24  C 
ATOM     29 O    PRO B1003      16.850  19.755  19.094  1.00 33.94 LIG-0.27  OA
ATOM     30  N   PRO B1004      17.360  17.565  19.187  1.00 34.14 LIG-0.34  N 
ATOM     31  CA  PRO B1004      16.177  17.176  18.419  1.00 34.66 LIG 0.18  C 
ATOM     32  CD  PRO B1004      18.209  16.394  19.474  1.00 34.36 LIG 0.13  C 
ATOM     33  CB  PRO B1004      16.444  15.705  18.101  1.00 34.44 LIG 0.04  C 
ATOM     34  CG  PRO B1004      17.249  15.249  19.275  1.00 34.41 LIG 0.02  C 
BRANCH 31 35
ATOM     35  C   PRO B1004      14.901  17.391  19.237  1.00 35.04 LIG 0.24  C 
ATOM     36  N   PRO B1005      13.947  18.167  18.703  1.00 35.67 LIG-0.34  N 
ATOM     37  CD  PRO B1005      14.032  18.886  17.421  1.00 35.53 LIG 0.13  C 
ATOM     38  CA  PRO B1005      12.674  18.463  19.372  1.00 36.27 LIG 0.17  C 
ATOM     39  CG  PRO B1005      13.003  19.974  17.598  1.00 36.24 LIG 0.02  C 
ATOM     40  CB  PRO B1005      11.914  19.266  18.322  1.00 36.11 LIG 0.04  C 
ATOM     41 O    PRO B1004      14.775  16.875  20.349  1.00 35.22 LIG-0.27  OA
BRANCH 38 42
ATOM     42  C   PRO B1005      11.915  17.209  19.802  1.00 36.62 LIG 0.22  C 
ATOM     43 O    PRO B1005      12.006  16.194  19.078  1.00 36.45 LIG-0.29  OA
ENDBRANCH 38 42
ENDBRANCH 31 35
ENDBRANCH 4 28
TORSDOF 8
ENDMDL
MODEL 47
USER: ADFR SOLUTION from run 83
USER: SCORE 12.447274 LL:  -3.924 LR:  -8.527 RR:   0.000 FEB:  -6.141
USER: RMSD 10.243767
USER: SEED 82
USER: STATUS no improvement in best 15 clusters for 5 generations
USER: GENES 10
USER: genes 0 Translation |==|  0.55197 0.57198 0.48090
USER: genes 1 Rotation |==|  0.30432 0.92303 0.67402 0.54972
USER: genes 2 Torsion [O]-C--CA-[N] |==|  0.88782
USER: genes 3 Torsion [N]-C--CA-[N] |==|  0.39517
USER: genes 4 Torsion [C]-CA--N-[C] |==|  0.81261
USER: genes 5 Torsion [C]-CA--CB-[CG] |==|  0.87859
USER: genes 6 Torsion [CA]-CB--CG-[CD1] |==|  0.75733
USER: genes 7 Torsion [N]-CA--C-[O] |==|  0.93912
USER: genes 8 Torsion [N]-CA--C-[N] |==|  0.48237
USER: genes 9 Torsion [N]-CA--C-[O] |==|  0.77676
ROOT
ATOM      1  C   PRO B1002      21.399  23.159  17.597  1.00 33.09 LIG 0.24  C 
ATOM      2 O    PRO B1002      22.090  22.299  18.152  1.00 32.82 LIG-0.27  OA
ATOM      3  N   PRO B1003      20.209  23.533  18.084  1.00 33.61 LIG-0.34  N 
ATOM      4  CA  PRO B1003      19.685  22.915  19.302  1.00 34.05 LIG 0.18  C 
ATOM      5  CB  PRO B1003      18.444  23.752  19.599  1.00 34.65 LIG 0.04  C 
ATOM      6  CG  PRO B1003      17.969  24.128  18.234  1.00 34.15 LIG 0.02  C 
ATOM      7  CD  PRO B1003      19.257  24.518  17.542  1.00 34.31 LIG 0.13  C 
ENDROOT
BRANCH 1 8
ATOM      8  CA  PRO B1002      21.880  23.844  16.324  1.00 32.09 LIG 0.18  C 
ATOM      9  N   PRO B1002      23.310  24.118  16.451  1.00 31.87 LIG-0.34  N 
ATOM     10  C   PHE B1001      23.723  25.168  17.175  1.00 31.39 LIG 0.24  C 
ATOM     11  CD  PRO B1002      24.095  23.203  15.601  1.00 31.65 LIG 0.13  C 
ATOM     12 O    PHE B1001      22.930  25.929  17.736  1.00 31.36 LIG-0.27  OA
ATOM     13  CG  PRO B1002      23.075  22.130  15.248  1.00 31.59 LIG 0.02  C 
ATOM     14  CB  PRO B1002      21.816  22.923  15.108  1.00 32.35 LIG 0.04  C 
BRANCH 10 15
ATOM     15  CA  PHE B1001      25.223  25.393  17.278  1.00 30.70 LIG 0.18  C 
BRANCH 15 16
ATOM     16  N   PHE B1001      25.544  26.817  17.249  1.00 31.26 LIG-0.35  N 
ATOM     17  C   ACE B1000      25.355  27.561  16.160  1.00 32.54 LIG 0.21  C 
ATOM     18  CH3 ACE B1000      26.086  28.903  16.203  1.00 32.86 LIG 0.12  C 
ATOM     19 O    ACE B1000      24.948  27.097  15.088  1.00 32.71 LIG-0.27  OA
ATOM     20 H    PHE B1001      25.861  27.124  17.987  1.00 31.26 LIG 0.16  HD
ENDBRANCH 15 16
BRANCH 15 21
ATOM     21  CB  PHE B1001      25.697  24.743  18.583  1.00 29.45 LIG 0.07  C 
BRANCH 21 22
ATOM     22  CG  PHE B1001      24.810  25.007  19.758  1.00 29.10 LIG-0.06  A 
ATOM     23  CD2 PHE B1001      23.788  24.121  20.082  1.00 29.14 LIG 0.01  A 
ATOM     24  CE2 PHE B1001      22.957  24.365  21.169  1.00 28.22 LIG 0.00  A 
ATOM     25  CZ  PHE B1001      23.144  25.500  21.940  1.00 28.72 LIG 0.00  A 
ATOM     26  CE1 PHE B1001      24.164  26.391  21.625  1.00 29.15 LIG 0.00  A 
ATOM     27  CD1 PHE B1001      24.991  26.140  20.539  1.00 28.88 LIG 0.01  A 
ENDBRANCH 21 22
ENDBRANCH 15 21
ENDBRANCH 10 15
ENDBRANCH 1 8
BRANCH 4 28
ATOM     28  C   PRO B1003      19.356  21.438  19.085  1.00 33.85 LIG 0.24  C 
ATOM     29 O    PRO B1003      19.148  21.000  17.953  1.00 33.94 LIG-0.27  OA
ATOM     30  N   PRO B1004      19.326  20.648  20.169  1.00 34.14 LIG-0.34  N 
ATOM     31  CA  PRO B1004      19.013  19.224  20.047  1.00 34.66 LIG 0.18  C 
ATOM     32  CD  PRO B1004      19.661  20.996  21.562  1.00 34.36 LIG 0.13  C 
ATOM     33  CB  PRO B1004      19.347  18.681  21.436  1.00 34.44 LIG 0.04  C 
ATOM     34  CG  PRO B1004      19.062  19.845  22.329  1.00 34.41 LIG 0.02  C 
BRANCH 31 35
ATOM     35  C   PRO B1004      17.546  19.019  19.661  1.00 35.04 LIG 0.24  C 
ATOM     36  N   PRO B1005      17.146  17.769  19.386  1.00 35.67 LIG-0.34  N 
ATOM     37  CD  PRO B1005      18.004  16.572  19.362  1.00 35.53 LIG 0.13  C 
ATOM     38  CA  PRO B1005      15.773  17.423  18.999  1.00 36.27 LIG 0.17  C 
ATOM     39  CG  PRO B1005      17.211  15.632  18.489  1.00 36.24 LIG 0.02  C 
ATOM     40  CB  PRO B1005      15.813  15.900  18.918  1.00 36.11 LIG 0.04  C 
ATOM     41 O    PRO B1004      16.775  19.978  19.596  1.00 35.22 LIG-0.27  OA
BRANCH 38 42
ATOM     42  C   PRO B1005      14.726  17.921  19.994  1.00 36.62 LIG 0.22  C 
ATOM     43 O    PRO B1005      14.539  17.250  21.031  1.00 36.45 LIG-0.29  OA
ENDBRANCH 38 42
ENDBRANCH 31 35
ENDBRANCH 4 28
TORSDOF 8
ENDMDL
MODEL 48
USER: ADFR SOLUTION from run 116
USER: SCORE 11.691549 LL:  -3.287 LR:  -8.488 RR:   0.000 FEB:  -6.102
USER: RMSD 10.670961
USER: SEED 115
USER: STATUS no improvement in best 14 clusters for 5 generations
USER: GENES 10
USER: genes 0 Translation |==|  0.62338 0.56372 0.41131
USER: genes 1 Rotation |==|  0.79454 0.12595 0.61845 0.59645
USER: genes 2 Torsion [O]-C--CA-[N] |==|  0.77759
USER: genes 3 Torsion [N]-C--CA-[N] |==|  0.87223
USER: genes 4 Torsion [C]-CA--N-[C] |==|  0.84368
USER: genes 5 Torsion [C]-CA--CB-[CG] |==|  0.41630
USER: genes 6 Torsion [CA]-CB--CG-[CD1] |==|  0.88474
USER: genes 7 Torsion [N]-CA--C-[O] |==|  0.82440
USER: genes 8 Torsion [N]-CA--C-[N] |==|  0.30055
USER: genes 9 Torsion [N]-CA--C-[O] |==|  0.85443
ROOT
ATOM      1  C   PRO B1002      23.541  22.912  15.509  1.00 33.09 LIG 0.24  C 
ATOM      2 O    PRO B1002      24.191  23.565  16.331  1.00 32.82 LIG-0.27  OA
ATOM      3  N   PRO B1003      22.203  22.864  15.542  1.00 33.61 LIG-0.34  N 
ATOM      4  CA  PRO B1003      21.466  23.591  16.576  1.00 34.05 LIG 0.18  C 
ATOM      5  CB  PRO B1003      20.015  23.432  16.131  1.00 34.65 LIG 0.04  C 
ATOM      6  CG  PRO B1003      20.016  22.085  15.486  1.00 34.15 LIG 0.02  C 
ATOM      7  CD  PRO B1003      21.283  22.125  14.660  1.00 34.31 LIG 0.13  C 
ENDROOT
BRANCH 1 8
ATOM      8  CA  PRO B1002      24.243  22.128  14.407  1.00 32.09 LIG 0.18  C 
ATOM      9  N   PRO B1002      24.606  23.051  13.334  1.00 31.87 LIG-0.34  N 
ATOM     10  C   PHE B1001      23.672  23.453  12.459  1.00 31.39 LIG 0.24  C 
ATOM     11  CD  PRO B1002      26.060  23.298  13.326  1.00 31.65 LIG 0.13  C 
ATOM     12 O    PHE B1001      22.505  23.057  12.519  1.00 31.36 LIG-0.27  OA
ATOM     13  CG  PRO B1002      26.488  22.761  14.685  1.00 31.59 LIG 0.02  C 
ATOM     14  CB  PRO B1002      25.594  21.576  14.855  1.00 32.35 LIG 0.04  C 
BRANCH 10 15
ATOM     15  CA  PHE B1001      24.110  24.421  11.373  1.00 30.70 LIG 0.18  C 
BRANCH 15 16
ATOM     16  N   PHE B1001      24.920  25.503  11.928  1.00 31.26 LIG-0.35  N 
ATOM     17  C   ACE B1000      24.474  26.285  12.909  1.00 32.54 LIG 0.21  C 
ATOM     18  CH3 ACE B1000      25.293  27.564  13.089  1.00 32.86 LIG 0.12  C 
ATOM     19 O    ACE B1000      23.336  26.191  13.383  1.00 32.71 LIG-0.27  OA
ATOM     20 H    PHE B1001      25.697  25.584  11.567  1.00 31.26 LIG 0.16  HD
ENDBRANCH 15 16
BRANCH 15 21
ATOM     21  CB  PHE B1001      24.896  23.618  10.330  1.00 29.45 LIG 0.07  C 
BRANCH 21 22
ATOM     22  CG  PHE B1001      24.797  24.157   8.938  1.00 29.10 LIG-0.06  A 
ATOM     23  CD2 PHE B1001      25.921  24.208   8.120  1.00 29.14 LIG 0.01  A 
ATOM     24  CE2 PHE B1001      25.835  24.713   6.828  1.00 28.22 LIG 0.00  A 
ATOM     25  CZ  PHE B1001      24.621  25.173   6.345  1.00 28.72 LIG 0.00  A 
ATOM     26  CE1 PHE B1001      23.492  25.125   7.155  1.00 29.15 LIG 0.00  A 
ATOM     27  CD1 PHE B1001      23.584  24.618   8.443  1.00 28.88 LIG 0.01  A 
ENDBRANCH 21 22
ENDBRANCH 15 21
ENDBRANCH 10 15
ENDBRANCH 1 8
BRANCH 4 28
ATOM     28  C   PRO B1003      21.719  23.005  17.964  1.00 33.85 LIG 0.24  C 
ATOM     29 O    PRO B1003      21.379  21.852  18.231  1.00 33.94 LIG-0.27  OA
ATOM     30  N   PRO B1004      22.341  23.787  18.859  1.00 34.14 LIG-0.34  N 
ATOM     31  CA  PRO B1004      22.616  23.302  20.212  1.00 34.66 LIG 0.18  C 
ATOM     32  CD  PRO B1004      22.906  25.133  18.657  1.00 34.36 LIG 0.13  C 
ATOM     33  CB  PRO B1004      23.543  24.377  20.778  1.00 34.44 LIG 0.04  C 
ATOM     34  CG  PRO B1004      23.090  25.615  20.074  1.00 34.41 LIG 0.02  C 
BRANCH 31 35
ATOM     35  C   PRO B1004      21.318  23.148  21.010  1.00 35.04 LIG 0.24  C 
ATOM     36  N   PRO B1005      20.892  21.903  21.264  1.00 35.67 LIG-0.34  N 
ATOM     37  CD  PRO B1005      21.525  20.658  20.795  1.00 35.53 LIG 0.13  C 
ATOM     38  CA  PRO B1005      19.666  21.602  22.013  1.00 36.27 LIG 0.17  C 
ATOM     39  CG  PRO B1005      20.385  19.674  20.872  1.00 36.24 LIG 0.02  C 
ATOM     40  CB  PRO B1005      19.697  20.081  22.126  1.00 36.11 LIG 0.04  C 
ATOM     41 O    PRO B1004      20.693  24.140  21.386  1.00 35.22 LIG-0.27  OA
BRANCH 38 42
ATOM     42  C   PRO B1005      19.616  22.282  23.380  1.00 36.62 LIG 0.22  C 
ATOM     43 O    PRO B1005      20.590  22.124  24.147  1.00 36.45 LIG-0.29  OA
ENDBRANCH 38 42
ENDBRANCH 31 35
ENDBRANCH 4 28
TORSDOF 8
ENDMDL
MODEL 49
USER: ADFR SOLUTION from run 42
USER: SCORE 12.953287 LL:  -4.508 LR:  -8.447 RR:   0.000 FEB:  -6.060
USER: RMSD 16.131406
USER: SEED 41
USER: STATUS no improvement in best 16 clusters for 5 generations
USER: GENES 10
USER: genes 0 Translation |==|  0.75187 0.28986 0.82669
USER: genes 1 Rotation |==|  0.31340 0.60926 0.05074 0.53752
USER: genes 2 Torsion [O]-C--CA-[N] |==|  0.80018
USER: genes 3 Torsion [N]-C--CA-[N] |==|  0.39874
USER: genes 4 Torsion [C]-CA--N-[C] |==|  0.81698
USER: genes 5 Torsion [C]-CA--CB-[CG] |==|  0.90836
USER: genes 6 Torsion [CA]-CB--CG-[CD1] |==|  0.80221
USER: genes 7 Torsion [N]-CA--C-[O] |==|  0.85588
USER: genes 8 Torsion [N]-CA--C-[N] |==|  0.30942
USER: genes 9 Torsion [N]-CA--C-[O] |==|  0.26004
ROOT
ATOM      1  C   PRO B1002      27.396  14.696  27.971  1.00 33.09 LIG 0.24  C 
ATOM      2 O    PRO B1002      26.813  15.655  27.456  1.00 32.82 LIG-0.27  OA
ATOM      3  N   PRO B1003      27.110  13.432  27.635  1.00 33.61 LIG-0.34  N 
ATOM      4  CA  PRO B1003      26.075  13.151  26.639  1.00 34.05 LIG 0.18  C 
ATOM      5  CB  PRO B1003      26.215  11.647  26.420  1.00 34.65 LIG 0.04  C 
ATOM      6  CG  PRO B1003      26.645  11.160  27.765  1.00 34.15 LIG 0.02  C 
ATOM      7  CD  PRO B1003      27.688  12.182  28.160  1.00 34.31 LIG 0.13  C 
ENDROOT
BRANCH 1 8
ATOM      8  CA  PRO B1002      28.483  14.913  29.017  1.00 32.09 LIG 0.18  C 
ATOM      9  N   PRO B1002      29.671  15.446  28.354  1.00 31.87 LIG-0.34  N 
ATOM     10  C   PHE B1001      30.482  14.618  27.679  1.00 31.39 LIG 0.24  C 
ATOM     11  CD  PRO B1002      29.849  16.875  28.670  1.00 31.65 LIG 0.13  C 
ATOM     12 O    PHE B1001      30.266  13.406  27.605  1.00 31.36 LIG-0.27  OA
ATOM     13  CG  PRO B1002      28.495  17.250  29.256  1.00 31.59 LIG 0.02  C 
ATOM     14  CB  PRO B1002      28.122  16.015  30.009  1.00 32.35 LIG 0.04  C 
BRANCH 10 15
ATOM     15  CA  PHE B1001      31.695  15.235  27.003  1.00 30.70 LIG 0.18  C 
BRANCH 15 16
ATOM     16  N   PHE B1001      32.847  14.339  27.070  1.00 31.26 LIG-0.35  N 
ATOM     17  C   ACE B1000      33.429  14.025  28.226  1.00 32.54 LIG 0.21  C 
ATOM     18  CH3 ACE B1000      34.814  13.398  28.061  1.00 32.86 LIG 0.12  C 
ATOM     19 O    ACE B1000      33.078  14.504  29.311  1.00 32.71 LIG-0.27  OA
ATOM     20 H    PHE B1001      33.108  14.040  26.307  1.00 31.26 LIG 0.16  HD
ENDBRANCH 15 16
BRANCH 15 21
ATOM     21  CB  PHE B1001      31.309  15.536  25.550  1.00 29.45 LIG 0.07  C 
BRANCH 21 22
ATOM     22  CG  PHE B1001      30.338  14.564  24.959  1.00 29.10 LIG-0.06  A 
ATOM     23  CD2 PHE B1001      29.022  14.942  24.715  1.00 29.14 LIG 0.01  A 
ATOM     24  CE2 PHE B1001      28.114  14.041  24.172  1.00 28.22 LIG 0.00  A 
ATOM     25  CZ  PHE B1001      28.518  12.751  23.870  1.00 28.72 LIG 0.00  A 
ATOM     26  CE1 PHE B1001      29.831  12.363  24.110  1.00 29.15 LIG 0.00  A 
ATOM     27  CD1 PHE B1001      30.733  13.269  24.651  1.00 28.88 LIG 0.01  A 
ENDBRANCH 21 22
ENDBRANCH 15 21
ENDBRANCH 10 15
ENDBRANCH 1 8
BRANCH 4 28
ATOM     28  C   PRO B1003      24.687  13.541  27.146  1.00 33.85 LIG 0.24  C 
ATOM     29 O    PRO B1003      24.280  13.138  28.236  1.00 33.94 LIG-0.27  OA
ATOM     30  N   PRO B1004      23.952  14.349  26.368  1.00 34.14 LIG-0.34  N 
ATOM     31  CA  PRO B1004      22.610  14.765  26.779  1.00 34.66 LIG 0.18  C 
ATOM     32  CD  PRO B1004      24.340  15.000  25.103  1.00 34.36 LIG 0.13  C 
ATOM     33  CB  PRO B1004      22.264  15.855  25.764  1.00 34.44 LIG 0.04  C 
ATOM     34  CG  PRO B1004      23.006  15.422  24.541  1.00 34.41 LIG 0.02  C 
BRANCH 31 35
ATOM     35  C   PRO B1004      21.638  13.582  26.742  1.00 35.04 LIG 0.24  C 
ATOM     36  N   PRO B1005      21.174  13.127  27.914  1.00 35.67 LIG-0.34  N 
ATOM     37  CD  PRO B1005      21.556  13.620  29.248  1.00 35.53 LIG 0.13  C 
ATOM     38  CA  PRO B1005      20.240  12.000  28.034  1.00 36.27 LIG 0.17  C 
ATOM     39  CG  PRO B1005      21.207  12.449  30.132  1.00 36.24 LIG 0.02  C 
ATOM     40  CB  PRO B1005      19.938  11.963  29.529  1.00 36.11 LIG 0.04  C 
ATOM     41 O    PRO B1004      21.315  13.070  25.670  1.00 35.22 LIG-0.27  OA
BRANCH 38 42
ATOM     42  C   PRO B1005      18.977  12.176  27.194  1.00 36.62 LIG 0.22  C 
ATOM     43 O    PRO B1005      18.964  11.681  26.046  1.00 36.45 LIG-0.29  OA
ENDBRANCH 38 42
ENDBRANCH 31 35
ENDBRANCH 4 28
TORSDOF 8
ENDMDL
MODEL 50
USER: ADFR SOLUTION from run 79
USER: SCORE 11.491573 LL:  -3.117 LR:  -8.425 RR:   0.000 FEB:  -6.039
USER: RMSD 12.197557
USER: SEED 78
USER: STATUS no improvement in best 20 clusters for 5 generations
USER: GENES 10
USER: genes 0 Translation |==|  0.53341 0.26795 0.80785
USER: genes 1 Rotation |==|  0.84462 0.46000 0.28726 0.79048
USER: genes 2 Torsion [O]-C--CA-[N] |==|  0.01697
USER: genes 3 Torsion [N]-C--CA-[N] |==|  0.35013
USER: genes 4 Torsion [C]-CA--N-[C] |==|  0.82381
USER: genes 5 Torsion [C]-CA--CB-[CG] |==|  0.37820
USER: genes 6 Torsion [CA]-CB--CG-[CD1] |==|  0.58638
USER: genes 7 Torsion [N]-CA--C-[O] |==|  0.98793
USER: genes 8 Torsion [N]-CA--C-[N] |==|  0.48260
USER: genes 9 Torsion [N]-CA--C-[O] |==|  0.57407
ROOT
ATOM      1  C   PRO B1002      20.842  14.038  27.405  1.00 33.09 LIG 0.24  C 
ATOM      2 O    PRO B1002      21.200  15.123  26.935  1.00 32.82 LIG-0.27  OA
ATOM      3  N   PRO B1003      21.556  13.405  28.344  1.00 33.61 LIG-0.34  N 
ATOM      4  CA  PRO B1003      22.804  13.988  28.839  1.00 34.05 LIG 0.18  C 
ATOM      5  CB  PRO B1003      23.169  13.070  30.002  1.00 34.65 LIG 0.04  C 
ATOM      6  CG  PRO B1003      22.647  11.746  29.550  1.00 34.15 LIG 0.02  C 
ATOM      7  CD  PRO B1003      21.288  12.109  28.992  1.00 34.31 LIG 0.13  C 
ENDROOT
BRANCH 1 8
ATOM      8  CA  PRO B1002      19.556  13.371  26.936  1.00 32.09 LIG 0.18  C 
ATOM      9  N   PRO B1002      19.007  14.143  25.823  1.00 31.87 LIG-0.34  N 
ATOM     10  C   PHE B1001      18.333  15.276  26.070  1.00 31.39 LIG 0.24  C 
ATOM     11  CD  PRO B1002      19.195  13.428  24.547  1.00 31.65 LIG 0.13  C 
ATOM     12 O    PHE B1001      18.146  15.691  27.217  1.00 31.36 LIG-0.27  OA
ATOM     13  CG  PRO B1002      20.215  12.362  24.919  1.00 31.59 LIG 0.02  C 
ATOM     14  CB  PRO B1002      19.806  12.001  26.311  1.00 32.35 LIG 0.04  C 
BRANCH 10 15
ATOM     15  CA  PHE B1001      17.796  16.039  24.870  1.00 30.70 LIG 0.18  C 
BRANCH 15 16
ATOM     16  N   PHE B1001      16.363  16.286  25.002  1.00 31.26 LIG-0.35  N 
ATOM     17  C   ACE B1000      15.477  15.293  25.043  1.00 32.54 LIG 0.21  C 
ATOM     18  CH3 ACE B1000      14.037  15.750  24.806  1.00 32.86 LIG 0.12  C 
ATOM     19 O    ACE B1000      15.790  14.103  24.919  1.00 32.71 LIG-0.27  OA
ATOM     20 H    PHE B1001      16.150  17.118  25.050  1.00 31.26 LIG 0.16  HD
ENDBRANCH 15 16
BRANCH 15 21
ATOM     21  CB  PHE B1001      18.580  17.353  24.772  1.00 29.45 LIG 0.07  C 
BRANCH 21 22
ATOM     22  CG  PHE B1001      19.010  17.708  23.384  1.00 29.10 LIG-0.06  A 
ATOM     23  CD2 PHE B1001      18.242  17.327  22.289  1.00 29.14 LIG 0.01  A 
ATOM     24  CE2 PHE B1001      18.639  17.650  20.996  1.00 28.22 LIG 0.00  A 
ATOM     25  CZ  PHE B1001      19.812  18.357  20.791  1.00 28.72 LIG 0.00  A 
ATOM     26  CE1 PHE B1001      20.586  18.745  21.880  1.00 29.15 LIG 0.00  A 
ATOM     27  CD1 PHE B1001      20.182  18.420  23.167  1.00 28.88 LIG 0.01  A 
ENDBRANCH 21 22
ENDBRANCH 15 21
ENDBRANCH 10 15
ENDBRANCH 1 8
BRANCH 4 28
ATOM     28  C   PRO B1003      23.880  14.014  27.754  1.00 33.85 LIG 0.24  C 
ATOM     29 O    PRO B1003      23.674  13.506  26.652  1.00 33.94 LIG-0.27  OA
ATOM     30  N   PRO B1004      25.037  14.626  28.049  1.00 34.14 LIG-0.34  N 
ATOM     31  CA  PRO B1004      26.121  14.688  27.067  1.00 34.66 LIG 0.18  C 
ATOM     32  CD  PRO B1004      25.390  15.372  29.270  1.00 34.36 LIG 0.13  C 
ATOM     33  CB  PRO B1004      27.101  15.674  27.703  1.00 34.44 LIG 0.04  C 
ATOM     34  CG  PRO B1004      26.892  15.458  29.167  1.00 34.41 LIG 0.02  C 
BRANCH 31 35
ATOM     35  C   PRO B1004      26.729  13.302  26.838  1.00 35.04 LIG 0.24  C 
ATOM     36  N   PRO B1005      27.647  13.182  25.868  1.00 35.67 LIG-0.34  N 
ATOM     37  CD  PRO B1005      28.089  14.251  24.957  1.00 35.53 LIG 0.13  C 
ATOM     38  CA  PRO B1005      28.312  11.917  25.534  1.00 36.27 LIG 0.17  C 
ATOM     39  CG  PRO B1005      28.646  13.466  23.795  1.00 36.24 LIG 0.02  C 
ATOM     40  CB  PRO B1005      29.327  12.333  24.474  1.00 36.11 LIG 0.04  C 
ATOM     41 O    PRO B1004      26.368  12.339  27.516  1.00 35.22 LIG-0.27  OA
BRANCH 38 42
ATOM     42  C   PRO B1005      28.975  11.250  26.738  1.00 36.62 LIG 0.22  C 
ATOM     43 O    PRO B1005      29.952  10.500  26.526  1.00 36.45 LIG-0.29  OA
ENDBRANCH 38 42
ENDBRANCH 31 35
ENDBRANCH 4 28
TORSDOF 8
ENDMDL
MODEL 51
USER: ADFR SOLUTION from run 115
USER: SCORE 11.130302 LL:  -3.200 LR:  -8.417 RR:   0.000 FEB:  -6.031
USER: RMSD 11.351315
USER: SEED 114
USER: STATUS no improvement in best 21 clusters for 5 generations
USER: GENES 10
USER: genes 0 Translation |==|  0.51001 0.43336 0.66493
USER: genes 1 Rotation |==|  0.61268 0.14035 0.22931 0.68623
USER: genes 2 Torsion [O]-C--CA-[N] |==|  0.87135
USER: genes 3 Torsion [N]-C--CA-[N] |==|  0.16551
USER: genes 4 Torsion [C]-CA--N-[C] |==|  0.63406
USER: genes 5 Torsion [C]-CA--CB-[CG] |==|  0.82530
USER: genes 6 Torsion [CA]-CB--CG-[CD1] |==|  0.33842
USER: genes 7 Torsion [N]-CA--C-[O] |==|  0.88984
USER: genes 8 Torsion [N]-CA--C-[N] |==|  0.36844
USER: genes 9 Torsion [N]-CA--C-[O] |==|  0.31842
ROOT
ATOM      1  C   PRO B1002      20.140  19.001  23.118  1.00 33.09 LIG 0.24  C 
ATOM      2 O    PRO B1002      21.039  18.311  22.626  1.00 32.82 LIG-0.27  OA
ATOM      3  N   PRO B1003      20.004  19.145  24.442  1.00 33.61 LIG-0.34  N 
ATOM      4  CA  PRO B1003      20.928  18.471  25.355  1.00 34.05 LIG 0.18  C 
ATOM      5  CB  PRO B1003      20.547  19.054  26.713  1.00 34.65 LIG 0.04  C 
ATOM      6  CG  PRO B1003      19.079  19.289  26.568  1.00 34.15 LIG 0.02  C 
ATOM      7  CD  PRO B1003      18.987  19.906  25.189  1.00 34.31 LIG 0.13  C 
ENDROOT
BRANCH 1 8
ATOM      8  CA  PRO B1002      19.141  19.730  22.228  1.00 32.09 LIG 0.18  C 
ATOM      9  N   PRO B1002      19.872  20.404  21.157  1.00 31.87 LIG-0.34  N 
ATOM     10  C   PHE B1001      20.498  21.563  21.408  1.00 31.39 LIG 0.24  C 
ATOM     11  CD  PRO B1002      19.675  19.709  19.872  1.00 31.65 LIG 0.13  C 
ATOM     12 O    PHE B1001      20.470  22.095  22.522  1.00 31.36 LIG-0.27  OA
ATOM     13  CG  PRO B1002      19.089  18.374  20.309  1.00 31.59 LIG 0.02  C 
ATOM     14  CB  PRO B1002      18.231  18.769  21.468  1.00 32.35 LIG 0.04  C 
BRANCH 10 15
ATOM     15  CA  PHE B1001      21.249  22.209  20.256  1.00 30.70 LIG 0.18  C 
BRANCH 15 16
ATOM     16  N   PHE B1001      20.352  22.503  19.142  1.00 31.26 LIG-0.35  N 
ATOM     17  C   ACE B1000      20.651  22.168  17.889  1.00 32.54 LIG 0.21  C 
ATOM     18  CH3 ACE B1000      19.788  22.879  16.845  1.00 32.86 LIG 0.12  C 
ATOM     19 O    ACE B1000      21.721  21.637  17.569  1.00 32.71 LIG-0.27  OA
ATOM     20 H    PHE B1001      19.626  22.905  19.369  1.00 31.26 LIG 0.16  HD
ENDBRANCH 15 16
BRANCH 15 21
ATOM     21  CB  PHE B1001      21.905  23.487  20.794  1.00 29.45 LIG 0.07  C 
BRANCH 21 22
ATOM     22  CG  PHE B1001      20.935  24.517  21.279  1.00 29.10 LIG-0.06  A 
ATOM     23  CD2 PHE B1001      19.968  25.032  20.422  1.00 29.14 LIG 0.01  A 
ATOM     24  CE2 PHE B1001      19.067  25.994  20.866  1.00 28.22 LIG 0.00  A 
ATOM     25  CZ  PHE B1001      19.130  26.448  22.173  1.00 28.72 LIG 0.00  A 
ATOM     26  CE1 PHE B1001      20.092  25.938  23.037  1.00 29.15 LIG 0.00  A 
ATOM     27  CD1 PHE B1001      20.987  24.977  22.587  1.00 28.88 LIG 0.01  A 
ENDBRANCH 21 22
ENDBRANCH 15 21
ENDBRANCH 10 15
ENDBRANCH 1 8
BRANCH 4 28
ATOM     28  C   PRO B1003      20.761  16.953  25.303  1.00 33.85 LIG 0.24  C 
ATOM     29 O    PRO B1003      19.642  16.446  25.215  1.00 33.94 LIG-0.27  OA
ATOM     30  N   PRO B1004      21.877  16.209  25.334  1.00 34.14 LIG-0.34  N 
ATOM     31  CA  PRO B1004      21.803  14.748  25.294  1.00 34.66 LIG 0.18  C 
ATOM     32  CD  PRO B1004      23.278  16.666  25.322  1.00 34.36 LIG 0.13  C 
ATOM     33  CB  PRO B1004      23.260  14.338  25.081  1.00 34.44 LIG 0.04  C 
ATOM     34  CG  PRO B1004      24.019  15.429  25.765  1.00 34.41 LIG 0.02  C 
BRANCH 31 35
ATOM     35  C   PRO B1004      21.208  14.197  26.592  1.00 35.04 LIG 0.24  C 
ATOM     36  N   PRO B1005      20.241  13.274  26.487  1.00 35.67 LIG-0.34  N 
ATOM     37  CD  PRO B1005      19.650  12.778  25.232  1.00 35.53 LIG 0.13  C 
ATOM     38  CA  PRO B1005      19.578  12.659  27.643  1.00 36.27 LIG 0.17  C 
ATOM     39  CG  PRO B1005      18.320  12.243  25.699  1.00 36.24 LIG 0.02  C 
ATOM     40  CB  PRO B1005      18.668  11.617  27.002  1.00 36.11 LIG 0.04  C 
ATOM     41 O    PRO B1004      21.603  14.605  27.685  1.00 35.22 LIG-0.27  OA
BRANCH 38 42
ATOM     42  C   PRO B1005      20.557  12.038  28.637  1.00 36.62 LIG 0.22  C 
ATOM     43 O    PRO B1005      20.632  12.543  29.777  1.00 36.45 LIG-0.29  OA
ENDBRANCH 38 42
ENDBRANCH 31 35
ENDBRANCH 4 28
TORSDOF 8
ENDMDL
MODEL 52
USER: ADFR SOLUTION from run 135
USER: SCORE 10.367723 LL:  -3.279 LR:  -8.401 RR:   0.000 FEB:  -6.015
USER: RMSD 12.747040
USER: SEED 134
USER: STATUS no improvement in best 27 clusters for 5 generations
USER: GENES 10
USER: genes 0 Translation |==|  0.53656 0.26133 0.77973
USER: genes 1 Rotation |==|  0.24341 0.24698 0.51486 0.84630
USER: genes 2 Torsion [O]-C--CA-[N] |==|  0.95134
USER: genes 3 Torsion [N]-C--CA-[N] |==|  0.89681
USER: genes 4 Torsion [C]-CA--N-[C] |==|  0.46035
USER: genes 5 Torsion [C]-CA--CB-[CG] |==|  0.01400
USER: genes 6 Torsion [CA]-CB--CG-[CD1] |==|  0.72560
USER: genes 7 Torsion [N]-CA--C-[O] |==|  0.01221
USER: genes 8 Torsion [N]-CA--C-[N] |==|  0.32591
USER: genes 9 Torsion [N]-CA--C-[O] |==|  0.22992
ROOT
ATOM      1  C   PRO B1002      20.937  13.840  26.562  1.00 33.09 LIG 0.24  C 
ATOM      2 O    PRO B1002      21.320  12.722  26.921  1.00 32.82 LIG-0.27  OA
ATOM      3  N   PRO B1003      21.720  14.662  25.853  1.00 33.61 LIG-0.34  N 
ATOM      4  CA  PRO B1003      23.076  14.252  25.485  1.00 34.05 LIG 0.18  C 
ATOM      5  CB  PRO B1003      23.523  15.365  24.543  1.00 34.65 LIG 0.04  C 
ATOM      6  CG  PRO B1003      22.819  16.562  25.093  1.00 34.15 LIG 0.02  C 
ATOM      7  CD  PRO B1003      21.432  16.022  25.366  1.00 34.31 LIG 0.13  C 
ENDROOT
BRANCH 1 8
ATOM      8  CA  PRO B1002      19.538  14.334  26.911  1.00 32.09 LIG 0.18  C 
ATOM      9  N   PRO B1002      18.717  13.187  27.290  1.00 31.87 LIG-0.34  N 
ATOM     10  C   PHE B1001      18.203  12.394  26.338  1.00 31.39 LIG 0.24  C 
ATOM     11  CD  PRO B1002      18.478  13.173  28.745  1.00 31.65 LIG 0.13  C 
ATOM     12 O    PHE B1001      18.390  12.608  25.137  1.00 31.36 LIG-0.27  OA
ATOM     13  CG  PRO B1002      19.512  14.168  29.254  1.00 31.59 LIG 0.02  C 
ATOM     14  CB  PRO B1002      19.523  15.196  28.170  1.00 32.35 LIG 0.04  C 
BRANCH 10 15
ATOM     15  CA  PHE B1001      17.366  11.211  26.797  1.00 30.70 LIG 0.18  C 
BRANCH 15 16
ATOM     16  N   PHE B1001      17.914  10.621  28.016  1.00 31.26 LIG-0.35  N 
ATOM     17  C   ACE B1000      17.217   9.765  28.759  1.00 32.54 LIG 0.21  C 
ATOM     18  CH3 ACE B1000      17.798   9.558  30.159  1.00 32.86 LIG 0.12  C 
ATOM     19 O    ACE B1000      16.048   9.449  28.508  1.00 32.71 LIG-0.27  OA
ATOM     20 H    PHE B1001      18.714  10.875  28.203  1.00 31.26 LIG 0.16  HD
ENDBRANCH 15 16
BRANCH 15 21
ATOM     21  CB  PHE B1001      15.936  11.718  27.019  1.00 29.45 LIG 0.07  C 
BRANCH 21 22
ATOM     22  CG  PHE B1001      15.723  13.145  26.625  1.00 29.10 LIG-0.06  A 
ATOM     23  CD2 PHE B1001      15.511  13.484  25.293  1.00 29.14 LIG 0.01  A 
ATOM     24  CE2 PHE B1001      15.318  14.810  24.920  1.00 28.22 LIG 0.00  A 
ATOM     25  CZ  PHE B1001      15.338  15.807  25.881  1.00 28.72 LIG 0.00  A 
ATOM     26  CE1 PHE B1001      15.548  15.477  27.215  1.00 29.15 LIG 0.00  A 
ATOM     27  CD1 PHE B1001      15.739  14.152  27.580  1.00 28.88 LIG 0.01  A 
ENDBRANCH 21 22
ENDBRANCH 15 21
ENDBRANCH 10 15
ENDBRANCH 1 8
BRANCH 4 28
ATOM     28  C   PRO B1003      23.977  14.129  26.714  1.00 33.85 LIG 0.24  C 
ATOM     29 O    PRO B1003      23.521  14.286  27.847  1.00 33.94 LIG-0.27  OA
ATOM     30  N   PRO B1004      25.267  13.826  26.504  1.00 34.14 LIG-0.34  N 
ATOM     31  CA  PRO B1004      26.197  13.697  27.626  1.00 34.66 LIG 0.18  C 
ATOM     32  CD  PRO B1004      25.932  13.500  25.229  1.00 34.36 LIG 0.13  C 
ATOM     33  CB  PRO B1004      27.442  13.098  26.971  1.00 34.44 LIG 0.04  C 
ATOM     34  CG  PRO B1004      27.390  13.652  25.584  1.00 34.41 LIG 0.02  C 
BRANCH 31 35
ATOM     35  C   PRO B1004      26.458  15.058  28.277  1.00 35.04 LIG 0.24  C 
ATOM     36  N   PRO B1005      26.086  15.213  29.556  1.00 35.67 LIG-0.34  N 
ATOM     37  CD  PRO B1005      25.391  14.212  30.384  1.00 35.53 LIG 0.13  C 
ATOM     38  CA  PRO B1005      26.269  16.460  30.308  1.00 36.27 LIG 0.17  C 
ATOM     39  CG  PRO B1005      24.752  15.069  31.448  1.00 36.24 LIG 0.02  C 
ATOM     40  CB  PRO B1005      25.804  16.086  31.712  1.00 36.11 LIG 0.04  C 
ATOM     41 O    PRO B1004      26.978  15.971  27.635  1.00 35.22 LIG-0.27  OA
BRANCH 38 42
ATOM     42  C   PRO B1005      27.712  16.964  30.293  1.00 36.62 LIG 0.22  C 
ATOM     43 O    PRO B1005      28.090  17.625  29.303  1.00 36.45 LIG-0.29  OA
ENDBRANCH 38 42
ENDBRANCH 31 35
ENDBRANCH 4 28
TORSDOF 8
ENDMDL
MODEL 53
USER: ADFR SOLUTION from run 17
USER: SCORE 11.418574 LL:  -3.051 LR:  -8.396 RR:   0.000 FEB:  -6.010
USER: RMSD 15.913232
USER: SEED 16
USER: STATUS no improvement in best 14 clusters for 5 generations
USER: GENES 10
USER: genes 0 Translation |==|  0.65583 0.25178 0.80225
USER: genes 1 Rotation |==|  0.36119 0.92458 0.44340 0.71740
USER: genes 2 Torsion [O]-C--CA-[N] |==|  0.79358
USER: genes 3 Torsion [N]-C--CA-[N] |==|  0.35556
USER: genes 4 Torsion [C]-CA--N-[C] |==|  0.83819
USER: genes 5 Torsion [C]-CA--CB-[CG] |==|  0.42794
USER: genes 6 Torsion [CA]-CB--CG-[CD1] |==|  0.61308
USER: genes 7 Torsion [N]-CA--C-[O] |==|  0.87395
USER: genes 8 Torsion [N]-CA--C-[N] |==|  0.51530
USER: genes 9 Torsion [N]-CA--C-[O] |==|  0.48670
ROOT
ATOM      1  C   PRO B1002      24.515  13.553  27.237  1.00 33.09 LIG 0.24  C 
ATOM      2 O    PRO B1002      23.991  13.115  28.266  1.00 32.82 LIG-0.27  OA
ATOM      3  N   PRO B1003      23.874  14.402  26.423  1.00 33.61 LIG-0.34  N 
ATOM      4  CA  PRO B1003      22.510  14.832  26.734  1.00 34.05 LIG 0.18  C 
ATOM      5  CB  PRO B1003      22.252  15.915  25.690  1.00 34.65 LIG 0.04  C 
ATOM      6  CG  PRO B1003      23.040  15.434  24.517  1.00 34.15 LIG 0.02  C 
ATOM      7  CD  PRO B1003      24.340  14.999  25.159  1.00 34.31 LIG 0.13  C 
ENDROOT
BRANCH 1 8
ATOM      8  CA  PRO B1002      25.931  13.147  26.850  1.00 32.09 LIG 0.18  C 
ATOM      9  N   PRO B1002      26.874  13.841  27.725  1.00 31.87 LIG-0.34  N 
ATOM     10  C   PHE B1001      27.175  15.127  27.489  1.00 31.39 LIG 0.24  C 
ATOM     11  CD  PRO B1002      27.463  12.909  28.703  1.00 31.65 LIG 0.13  C 
ATOM     12 O    PHE B1001      26.689  15.750  26.541  1.00 31.36 LIG-0.27  OA
ATOM     13  CG  PRO B1002      26.541  11.703  28.601  1.00 31.59 LIG 0.02  C 
ATOM     14  CB  PRO B1002      26.215  11.676  27.142  1.00 32.35 LIG 0.04  C 
BRANCH 10 15
ATOM     15  CA  PHE B1001      28.153  15.796  28.440  1.00 30.70 LIG 0.18  C 
BRANCH 15 16
ATOM     16  N   PHE B1001      29.244  16.435  27.709  1.00 31.26 LIG-0.35  N 
ATOM     17  C   ACE B1000      30.041  15.751  26.890  1.00 32.54 LIG 0.21  C 
ATOM     18  CH3 ACE B1000      31.324  16.497  26.522  1.00 32.86 LIG 0.12  C 
ATOM     19 O    ACE B1000      29.953  14.527  26.730  1.00 32.71 LIG-0.27  OA
ATOM     20 H    PHE B1001      29.321  17.279  27.855  1.00 31.26 LIG 0.16  HD
ENDBRANCH 15 16
BRANCH 15 21
ATOM     21  CB  PHE B1001      27.365  16.817  29.268  1.00 29.45 LIG 0.07  C 
BRANCH 21 22
ATOM     22  CG  PHE B1001      27.963  17.116  30.605  1.00 29.10 LIG-0.06  A 
ATOM     23  CD2 PHE B1001      29.340  17.250  30.747  1.00 29.14 LIG 0.01  A 
ATOM     24  CE2 PHE B1001      29.902  17.522  31.989  1.00 28.22 LIG 0.00  A 
ATOM     25  CZ  PHE B1001      29.087  17.661  33.101  1.00 28.72 LIG 0.00  A 
ATOM     26  CE1 PHE B1001      27.709  17.531  32.968  1.00 29.15 LIG 0.00  A 
ATOM     27  CD1 PHE B1001      27.155  17.260  31.725  1.00 28.88 LIG 0.01  A 
ENDBRANCH 21 22
ENDBRANCH 15 21
ENDBRANCH 10 15
ENDBRANCH 1 8
BRANCH 4 28
ATOM     28  C   PRO B1003      21.520  13.673  26.632  1.00 33.85 LIG 0.24  C 
ATOM     29 O    PRO B1003      21.553  12.900  25.674  1.00 33.94 LIG-0.27  OA
ATOM     30  N   PRO B1004      20.639  13.526  27.633  1.00 34.14 LIG-0.34  N 
ATOM     31  CA  PRO B1004      19.652  12.445  27.608  1.00 34.66 LIG 0.18  C 
ATOM     32  CD  PRO B1004      20.549  14.292  28.889  1.00 34.36 LIG 0.13  C 
ATOM     33  CB  PRO B1004      19.061  12.490  29.017  1.00 34.44 LIG 0.04  C 
ATOM     34  CG  PRO B1004      19.168  13.936  29.379  1.00 34.41 LIG 0.02  C 
BRANCH 31 35
ATOM     35  C   PRO B1004      18.610  12.683  26.512  1.00 35.04 LIG 0.24  C 
ATOM     36  N   PRO B1005      17.577  11.831  26.445  1.00 35.67 LIG-0.34  N 
ATOM     37  CD  PRO B1005      17.378  10.643  27.293  1.00 35.53 LIG 0.13  C 
ATOM     38  CA  PRO B1005      16.506  11.933  25.447  1.00 36.27 LIG 0.17  C 
ATOM     39  CG  PRO B1005      16.447   9.806  26.452  1.00 36.24 LIG 0.02  C 
ATOM     40  CB  PRO B1005      15.540  10.829  25.867  1.00 36.11 LIG 0.04  C 
ATOM     41 O    PRO B1004      18.735  13.619  25.721  1.00 35.22 LIG-0.27  OA
BRANCH 38 42
ATOM     42  C   PRO B1005      15.837  13.306  25.423  1.00 36.62 LIG 0.22  C 
ATOM     43 O    PRO B1005      14.974  13.521  24.545  1.00 36.45 LIG-0.29  OA
ENDBRANCH 38 42
ENDBRANCH 31 35
ENDBRANCH 4 28
TORSDOF 8
ENDMDL
