MODEL 1
USER: ADFR SOLUTION from run 66
USER: SCORE 15.315663 LL:  -2.634 LR: -13.458 RR:   0.000 FEB:  -8.686
USER: RMSD 11.176808
USER: SEED 65
USER: STATUS no improvement in best 4 clusters for 5 generations
USER: GENES 18
USER: genes 0 Translation |==|  0.35371 0.37368 0.28889
USER: genes 1 Rotation |==|  0.66595 0.13042 0.31160 0.72445
USER: genes 2 Torsion [C]-CA--CB-[OG] |==|  0.53075
USER: genes 3 Torsion [CA]-CB--OG-[HG] |==|  0.00747
USER: genes 4 Torsion [N]-CA--C-[N] |==|  0.40264
USER: genes 5 Torsion [C]-N--CA-[C] |==|  0.69665
USER: genes 6 Torsion [N]-CA--C-[N] |==|  0.94475
USER: genes 7 Torsion [C]-N--CA-[C] |==|  0.40831
USER: genes 8 Torsion [N]-CA--C-[O] |==|  0.73452
USER: genes 9 Torsion [N]-CA--CB-[CG] |==|  0.55783
USER: genes 10 Torsion [CA]-CB--CG-[CD1] |==|  0.58240
USER: genes 11 Torsion [CB]-CA--N-[C] |==|  0.84900
USER: genes 12 Torsion [N]-C--CA-[N] |==|  0.82778
USER: genes 13 Torsion [C]-CA--N-[C] |==|  0.65677
USER: genes 14 Torsion [N]-C--CA-[N] |==|  0.80352
USER: genes 15 Torsion [C]-CA--N-[H2] |==|  0.09781
USER: genes 16 Torsion [C]-CA--CB-[CG] |==|  0.60428
USER: genes 17 Torsion [CA]-CB--CG-[CD1] |==|  0.67590
ROOT
ATOM      1  CA  SER E  44      21.821 -11.220  12.137  1.00 44.79 LIG 0.20  C 
ENDROOT
BRANCH 1 2
ATOM      2  CB  SER E  44      22.007 -12.695  11.789  1.00 46.10 LIG 0.20  C 
BRANCH 2 3
ATOM      3 OG   SER E  44      22.102 -12.861  10.390  1.00 47.85 LIG-0.40  OA
ATOM      4 HG   SER E  44      22.075 -12.110  10.016  1.00 47.85 LIG 0.21  HD
ENDBRANCH 2 3
ENDBRANCH 1 2
BRANCH 1 5
ATOM      5  C   SER E  44      21.992 -11.018  13.626  1.00 42.78 LIG 0.24  C 
ATOM      6  N   PHE E  45      20.875 -11.088  14.333  1.00 43.36 LIG-0.35  N 
ATOM      7 H    PHE E  45      20.096 -11.223  13.992  1.00 43.36 LIG 0.16  HD
ATOM      8 O    SER E  44      23.094 -10.777  14.122  1.00 37.54 LIG-0.27  OA
BRANCH 6 9
ATOM      9  CA  PHE E  45      20.882 -10.939  15.779  1.00 46.68 LIG 0.18  C 
BRANCH 9 10
ATOM     10  C   PHE E  45      20.585 -12.295  16.402  1.00 48.11 LIG 0.24  C 
ATOM     11 O    PHE E  45      20.883 -12.526  17.575  1.00 49.85 LIG-0.27  OA
ATOM     12  N   GLY E  46      19.996 -13.196  15.626  1.00 50.71 LIG-0.35  N 
ATOM     13 H    GLY E  46      19.775 -13.074  14.804  1.00 50.71 LIG 0.16  HD
BRANCH 12 14
ATOM     14  CA  GLY E  46      19.682 -14.503  16.170  1.00 54.23 LIG 0.21  C 
BRANCH 14 15
ATOM     15  C   GLY E  46      18.421 -15.093  15.580  1.00 55.55 LIG 0.21  C 
ATOM     16 O    GLY E  46      17.360 -14.930  16.211  1.00 59.11 LIG-0.29  OA
ENDBRANCH 14 15
ENDBRANCH 12 14
ENDBRANCH 9 10
BRANCH 9 17
ATOM     17  CB  PHE E  45      19.835  -9.911  16.221  1.00 43.03 LIG 0.07  C 
BRANCH 17 18
ATOM     18  CG  PHE E  45      20.093  -9.331  17.588  1.00 41.93 LIG-0.06  A 
ATOM     19  CD2 PHE E  45      21.393  -9.181  18.069  1.00 42.38 LIG 0.01  A 
ATOM     20  CE2 PHE E  45      21.632  -8.616  19.325  1.00 42.73 LIG 0.00  A 
ATOM     21  CZ  PHE E  45      20.564  -8.198  20.112  1.00 42.74 LIG 0.00  A 
ATOM     22  CE1 PHE E  45      19.261  -8.341  19.643  1.00 41.89 LIG 0.00  A 
ATOM     23  CD1 PHE E  45      19.033  -8.906  18.386  1.00 42.01 LIG 0.01  A 
ENDBRANCH 17 18
ENDBRANCH 9 17
ENDBRANCH 6 9
ENDBRANCH 1 5
BRANCH 1 24
ATOM     24  N   SER E  44      22.731 -10.406  11.358  1.00 46.50 LIG-0.34  N 
ATOM     25  C   PHE E  43      24.014 -10.692  11.406  1.00 47.40 LIG 0.24  C 
ATOM     26 O    PHE E  43      24.451 -11.596  12.112  1.00 45.80 LIG-0.27  OA
ATOM     27 H    SER E  44      22.374  -9.772  10.901  1.00 46.50 LIG 0.16  HD
BRANCH 25 28
ATOM     28  CA  PHE E  43      24.943  -9.822  10.588  1.00 47.87 LIG 0.18  C 
BRANCH 28 29
ATOM     29  N   PHE E  43      24.406 -10.124   9.293  1.00 51.92 LIG-0.35  N 
ATOM     30  C   GLY E  42      25.063 -10.607   8.255  1.00 55.92 LIG 0.24  C 
ATOM     31 O    GLY E  42      26.272 -10.874   8.217  1.00 57.26 LIG-0.27  OA
ATOM     32 H    PHE E  43      23.564  -9.952   9.247  1.00 51.92 LIG 0.16  HD
BRANCH 30 33
ATOM     33  CA  GLY E  42      24.144 -10.813   7.076  1.00 58.33 LIG 0.33  C 
BRANCH 33 34
ATOM     34  N   GLY E  42      23.210 -11.893   7.220  1.00 60.94 LIG-0.07  N 
ATOM     35 H3   GLY E  42      22.502 -11.745   6.702  1.00 60.94 LIG 0.27  HD
ATOM     36 H1   GLY E  42      23.600 -12.657   6.978  1.00 60.94 LIG 0.27  HD
ATOM     37 H2   GLY E  42      22.949 -11.950   8.069  1.00 60.94 LIG 0.27  HD
ENDBRANCH 33 34
ENDBRANCH 30 33
ENDBRANCH 28 29
BRANCH 28 38
ATOM     38  CB  PHE E  43      24.710  -8.362  10.968  1.00 42.32 LIG 0.07  C 
BRANCH 38 39
ATOM     39  CG  PHE E  43      24.790  -7.372   9.821  1.00 35.12 LIG-0.06  A 
ATOM     40  CD1 PHE E  43      25.786  -6.408   9.850  1.00 34.02 LIG 0.01  A 
ATOM     41  CE1 PHE E  43      25.947  -5.480   8.818  1.00 29.46 LIG 0.00  A 
ATOM     42  CZ  PHE E  43      25.096  -5.506   7.719  1.00 28.92 LIG 0.00  A 
ATOM     43  CE2 PHE E  43      24.081  -6.471   7.658  1.00 30.40 LIG 0.00  A 
ATOM     44  CD2 PHE E  43      23.927  -7.407   8.718  1.00 32.72 LIG 0.01  A 
ENDBRANCH 38 39
ENDBRANCH 28 38
ENDBRANCH 25 28
ENDBRANCH 1 24
TORSDOF 16
ENDMDL
MODEL 2
USER: ADFR SOLUTION from run 13
USER: SCORE 16.151664 LL:  -3.528 LR: -13.412 RR:   0.000 FEB:  -8.639
USER: RMSD 11.073989
USER: SEED 305848
USER: STATUS no improvement in best 1 clusters for 5 generations
USER: GENES 18
USER: genes 0 Translation |==|  0.35955 0.34311 0.30664
USER: genes 1 Rotation |==|  0.87776 0.62690 0.63238 0.77142
USER: genes 2 Torsion [C]-CA--CB-[OG] |==|  0.68136
USER: genes 3 Torsion [CA]-CB--OG-[HG] |==|  0.67443
USER: genes 4 Torsion [N]-CA--C-[N] |==|  0.83912
USER: genes 5 Torsion [C]-N--CA-[C] |==|  0.83501
USER: genes 6 Torsion [N]-CA--C-[N] |==|  0.92420
USER: genes 7 Torsion [C]-N--CA-[C] |==|  0.70734
USER: genes 8 Torsion [N]-CA--C-[O] |==|  0.90338
USER: genes 9 Torsion [N]-CA--CB-[CG] |==|  0.52246
USER: genes 10 Torsion [CA]-CB--CG-[CD1] |==|  0.09542
USER: genes 11 Torsion [CB]-CA--N-[C] |==|  0.21246
USER: genes 12 Torsion [N]-C--CA-[N] |==|  0.44243
USER: genes 13 Torsion [C]-CA--N-[C] |==|  0.66655
USER: genes 14 Torsion [N]-C--CA-[N] |==|  0.57533
USER: genes 15 Torsion [C]-CA--N-[H2] |==|  0.27052
USER: genes 16 Torsion [C]-CA--CB-[CG] |==|  0.29927
USER: genes 17 Torsion [CA]-CB--CG-[CD1] |==|  0.21640
ROOT
ATOM      1  CA  SER E  44      21.996 -12.137  12.669  1.00 44.79 LIG 0.20  C 
ENDROOT
BRANCH 1 2
ATOM      2  CB  SER E  44      22.334 -10.857  11.906  1.00 46.10 LIG 0.20  C 
BRANCH 2 3
ATOM      3 OG   SER E  44      21.220 -10.430  11.149  1.00 47.85 LIG-0.40  OA
ATOM      4 HG   SER E  44      21.413 -10.447  10.332  1.00 47.85 LIG 0.21  HD
ENDBRANCH 2 3
ENDBRANCH 1 2
BRANCH 1 5
ATOM      5  C   SER E  44      22.021 -11.868  14.157  1.00 42.78 LIG 0.24  C 
ATOM      6  N   PHE E  45      21.095 -11.026  14.590  1.00 43.36 LIG-0.35  N 
ATOM      7 H    PHE E  45      20.521 -10.638  14.081  1.00 43.36 LIG 0.16  HD
ATOM      8 O    SER E  44      22.868 -12.380  14.892  1.00 37.54 LIG-0.27  OA
BRANCH 6 9
ATOM      9  CA  PHE E  45      20.978 -10.688  15.999  1.00 46.68 LIG 0.18  C 
BRANCH 9 10
ATOM     10  C   PHE E  45      20.719 -11.969  16.779  1.00 48.11 LIG 0.24  C 
ATOM     11 O    PHE E  45      21.061 -12.065  17.959  1.00 49.85 LIG-0.27  OA
ATOM     12  N   GLY E  46      20.113 -12.955  16.131  1.00 50.71 LIG-0.35  N 
ATOM     13 H    GLY E  46      19.861 -12.927  15.309  1.00 50.71 LIG 0.16  HD
BRANCH 12 14
ATOM     14  CA  GLY E  46      19.834 -14.195  16.828  1.00 54.23 LIG 0.21  C 
BRANCH 14 15
ATOM     15  C   GLY E  46      20.764 -15.315  16.420  1.00 55.55 LIG 0.21  C 
ATOM     16 O    GLY E  46      21.139 -15.347  15.232  1.00 59.11 LIG-0.29  OA
ENDBRANCH 14 15
ENDBRANCH 12 14
ENDBRANCH 9 10
BRANCH 9 17
ATOM     17  CB  PHE E  45      19.835  -9.691  16.222  1.00 43.03 LIG 0.07  C 
BRANCH 17 18
ATOM     18  CG  PHE E  45      19.771  -9.144  17.625  1.00 41.93 LIG-0.06  A 
ATOM     19  CD2 PHE E  45      18.546  -8.875  18.233  1.00 42.38 LIG 0.01  A 
ATOM     20  CE2 PHE E  45      18.487  -8.395  19.545  1.00 42.73 LIG 0.00  A 
ATOM     21  CZ  PHE E  45      19.662  -8.178  20.257  1.00 42.74 LIG 0.00  A 
ATOM     22  CE1 PHE E  45      20.892  -8.444  19.662  1.00 41.89 LIG 0.00  A 
ATOM     23  CD1 PHE E  45      20.940  -8.924  18.351  1.00 42.01 LIG 0.01  A 
ENDBRANCH 17 18
ENDBRANCH 9 17
ENDBRANCH 6 9
ENDBRANCH 1 5
BRANCH 1 24
ATOM     24  N   SER E  44      20.724 -12.664  12.222  1.00 46.50 LIG-0.34  N 
ATOM     25  C   PHE E  43      20.686 -13.293  11.068  1.00 47.40 LIG 0.24  C 
ATOM     26 O    PHE E  43      21.681 -13.410  10.359  1.00 45.80 LIG-0.27  OA
ATOM     27 H    SER E  44      20.056 -12.532  12.746  1.00 46.50 LIG 0.16  HD
BRANCH 25 28
ATOM     28  CA  PHE E  43      19.343 -13.827  10.622  1.00 47.87 LIG 0.18  C 
BRANCH 28 29
ATOM     29  N   PHE E  43      19.630 -13.937   9.221  1.00 51.92 LIG-0.35  N 
ATOM     30  C   GLY E  42      19.004 -13.326   8.232  1.00 55.92 LIG 0.24  C 
ATOM     31 O    GLY E  42      18.041 -12.554   8.345  1.00 57.26 LIG-0.27  OA
ATOM     32 H    PHE E  43      20.289 -14.469   9.070  1.00 51.92 LIG 0.16  HD
BRANCH 30 33
ATOM     33  CA  GLY E  42      19.615 -13.679   6.899  1.00 58.33 LIG 0.33  C 
BRANCH 33 34
ATOM     34  N   GLY E  42      19.460 -12.680   5.880  1.00 60.94 LIG-0.07  N 
ATOM     35 H3   GLY E  42      19.321 -13.076   5.095  1.00 60.94 LIG 0.27  HD
ATOM     36 H1   GLY E  42      18.765 -12.159   6.077  1.00 60.94 LIG 0.27  HD
ATOM     37 H2   GLY E  42      20.198 -12.185   5.835  1.00 60.94 LIG 0.27  HD
ENDBRANCH 33 34
ENDBRANCH 30 33
ENDBRANCH 28 29
BRANCH 28 38
ATOM     38  CB  PHE E  43      19.121 -15.195  11.260  1.00 42.32 LIG 0.07  C 
BRANCH 38 39
ATOM     39  CG  PHE E  43      18.087 -15.235  12.370  1.00 35.12 LIG-0.06  A 
ATOM     40  CD1 PHE E  43      16.745 -15.238  12.021  1.00 34.02 LIG 0.01  A 
ATOM     41  CE1 PHE E  43      15.732 -15.305  12.981  1.00 29.46 LIG 0.00  A 
ATOM     42  CZ  PHE E  43      16.056 -15.374  14.331  1.00 28.92 LIG 0.00  A 
ATOM     43  CE2 PHE E  43      17.403 -15.377  14.716  1.00 30.40 LIG 0.00  A 
ATOM     44  CD2 PHE E  43      18.424 -15.304  13.728  1.00 32.72 LIG 0.01  A 
ENDBRANCH 38 39
ENDBRANCH 28 38
ENDBRANCH 25 28
ENDBRANCH 1 24
TORSDOF 16
ENDMDL
MODEL 3
USER: ADFR SOLUTION from run 66
USER: SCORE 15.049735 LL:  -2.613 LR: -13.308 RR:   0.000 FEB:  -8.535
USER: RMSD 10.845987
USER: SEED 65
USER: STATUS no improvement in best 4 clusters for 5 generations
USER: GENES 18
USER: genes 0 Translation |==|  0.33633 0.36192 0.28864
USER: genes 1 Rotation |==|  0.59584 0.11133 0.30666 0.72884
USER: genes 2 Torsion [C]-CA--CB-[OG] |==|  0.25130
USER: genes 3 Torsion [CA]-CB--OG-[HG] |==|  0.90078
USER: genes 4 Torsion [N]-CA--C-[N] |==|  0.43022
USER: genes 5 Torsion [C]-N--CA-[C] |==|  0.71249
USER: genes 6 Torsion [N]-CA--C-[N] |==|  0.95708
USER: genes 7 Torsion [C]-N--CA-[C] |==|  0.42293
USER: genes 8 Torsion [N]-CA--C-[O] |==|  0.87468
USER: genes 9 Torsion [N]-CA--CB-[CG] |==|  0.53138
USER: genes 10 Torsion [CA]-CB--CG-[CD1] |==|  0.08702
USER: genes 11 Torsion [CB]-CA--N-[C] |==|  0.83888
USER: genes 12 Torsion [N]-C--CA-[N] |==|  0.79445
USER: genes 13 Torsion [C]-CA--N-[C] |==|  0.72228
USER: genes 14 Torsion [N]-C--CA-[N] |==|  0.95087
USER: genes 15 Torsion [C]-CA--N-[H2] |==|  0.27286
USER: genes 16 Torsion [C]-CA--CB-[CG] |==|  0.24622
USER: genes 17 Torsion [CA]-CB--CG-[CD1] |==|  0.44872
ROOT
ATOM      1  CA  SER E  44      21.300 -11.572  12.129  1.00 44.79 LIG 0.20  C 
ENDROOT
BRANCH 1 2
ATOM      2  CB  SER E  44      21.109 -13.083  12.002  1.00 46.10 LIG 0.20  C 
BRANCH 2 3
ATOM      3 OG   SER E  44      19.762 -13.429  12.251  1.00 47.85 LIG-0.40  OA
ATOM      4 HG   SER E  44      19.450 -12.928  12.849  1.00 47.85 LIG 0.21  HD
ENDBRANCH 2 3
ENDBRANCH 1 2
BRANCH 1 5
ATOM      5  C   SER E  44      21.670 -11.220  13.552  1.00 42.78 LIG 0.24  C 
ATOM      6  N   PHE E  45      20.649 -11.128  14.391  1.00 43.36 LIG-0.35  N 
ATOM      7 H    PHE E  45      19.827 -11.241  14.164  1.00 43.36 LIG 0.16  HD
ATOM      8 O    SER E  44      22.839 -11.009  13.882  1.00 37.54 LIG-0.27  OA
BRANCH 6 9
ATOM      9  CA  PHE E  45      20.849 -10.820  15.797  1.00 46.68 LIG 0.18  C 
BRANCH 9 10
ATOM     10  C   PHE E  45      20.691 -12.106  16.596  1.00 48.11 LIG 0.24  C 
ATOM     11 O    PHE E  45      21.083 -12.173  17.762  1.00 49.85 LIG-0.27  OA
ATOM     12  N   GLY E  46      20.116 -13.130  15.978  1.00 50.71 LIG-0.35  N 
ATOM     13 H    GLY E  46      19.832 -13.123  15.166  1.00 50.71 LIG 0.16  HD
BRANCH 12 14
ATOM     14  CA  GLY E  46      19.933 -14.377  16.695  1.00 54.23 LIG 0.21  C 
BRANCH 14 15
ATOM     15  C   GLY E  46      18.751 -15.172  16.187  1.00 55.55 LIG 0.21  C 
ATOM     16 O    GLY E  46      17.689 -14.555  15.981  1.00 59.11 LIG-0.29  OA
ENDBRANCH 14 15
ENDBRANCH 12 14
ENDBRANCH 9 10
BRANCH 9 17
ATOM     17  CB  PHE E  45      19.835  -9.774  16.271  1.00 43.03 LIG 0.07  C 
BRANCH 17 18
ATOM     18  CG  PHE E  45      20.141  -9.204  17.633  1.00 41.93 LIG-0.06  A 
ATOM     19  CD2 PHE E  45      19.114  -8.817  18.494  1.00 42.38 LIG 0.01  A 
ATOM     20  CE2 PHE E  45      19.398  -8.316  19.767  1.00 42.73 LIG 0.00  A 
ATOM     21  CZ  PHE E  45      20.720  -8.197  20.187  1.00 42.74 LIG 0.00  A 
ATOM     22  CE1 PHE E  45      21.753  -8.580  19.337  1.00 41.89 LIG 0.00  A 
ATOM     23  CD1 PHE E  45      21.459  -9.081  18.066  1.00 42.01 LIG 0.01  A 
ENDBRANCH 17 18
ENDBRANCH 9 17
ENDBRANCH 6 9
ENDBRANCH 1 5
BRANCH 1 24
ATOM     24  N   SER E  44      22.281 -11.111  11.170  1.00 46.50 LIG-0.34  N 
ATOM     25  C   PHE E  43      23.487 -11.635  11.215  1.00 47.40 LIG 0.24  C 
ATOM     26 O    PHE E  43      23.801 -12.467  12.063  1.00 45.80 LIG-0.27  OA
ATOM     27 H    SER E  44      22.015 -10.511  10.615  1.00 46.50 LIG 0.16  HD
BRANCH 25 28
ATOM     28  CA  PHE E  43      24.494 -11.131  10.206  1.00 47.87 LIG 0.18  C 
BRANCH 28 29
ATOM     29  N   PHE E  43      23.965 -11.796   9.051  1.00 51.92 LIG-0.35  N 
ATOM     30  C   GLY E  42      24.412 -12.912   8.504  1.00 55.92 LIG 0.24  C 
ATOM     31 O    GLY E  42      25.382 -13.576   8.892  1.00 57.26 LIG-0.27  OA
ATOM     32 H    PHE E  43      23.288 -11.379   8.723  1.00 51.92 LIG 0.16  HD
BRANCH 30 33
ATOM     33  CA  GLY E  42      23.575 -13.308   7.314  1.00 58.33 LIG 0.33  C 
BRANCH 33 34
ATOM     34  N   GLY E  42      22.286 -12.680   7.245  1.00 60.94 LIG-0.07  N 
ATOM     35 H3   GLY E  42      21.685 -13.265   6.946  1.00 60.94 LIG 0.27  HD
ATOM     36 H1   GLY E  42      22.048 -12.400   8.056  1.00 60.94 LIG 0.27  HD
ATOM     37 H2   GLY E  42      22.324 -11.985   6.690  1.00 60.94 LIG 0.27  HD
ENDBRANCH 33 34
ENDBRANCH 30 33
ENDBRANCH 28 29
BRANCH 28 38
ATOM     38  CB  PHE E  43      24.359  -9.615  10.093  1.00 42.32 LIG 0.07  C 
BRANCH 38 39
ATOM     39  CG  PHE E  43      25.203  -8.814  11.068  1.00 35.12 LIG-0.06  A 
ATOM     40  CD1 PHE E  43      25.441  -7.477  10.789  1.00 34.02 LIG 0.01  A 
ATOM     41  CE1 PHE E  43      26.180  -6.663  11.651  1.00 29.46 LIG 0.00  A 
ATOM     42  CZ  PHE E  43      26.700  -7.186  12.829  1.00 28.92 LIG 0.00  A 
ATOM     43  CE2 PHE E  43      26.473  -8.533  13.141  1.00 30.40 LIG 0.00  A 
ATOM     44  CD2 PHE E  43      25.722  -9.352  12.253  1.00 32.72 LIG 0.01  A 
ENDBRANCH 38 39
ENDBRANCH 28 38
ENDBRANCH 25 28
ENDBRANCH 1 24
TORSDOF 16
ENDMDL
MODEL 4
USER: ADFR SOLUTION from run 42
USER: SCORE 14.434956 LL:  -3.201 LR: -13.154 RR:   0.000 FEB:  -8.381
USER: RMSD 9.784252
USER: SEED 41
USER: STATUS no improvement in best 8 clusters for 5 generations
USER: GENES 18
USER: genes 0 Translation |==|  0.36886 0.30717 0.56762
USER: genes 1 Rotation |==|  0.35325 0.64911 0.48453 0.95386
USER: genes 2 Torsion [C]-CA--CB-[OG] |==|  0.36162
USER: genes 3 Torsion [CA]-CB--OG-[HG] |==|  0.16946
USER: genes 4 Torsion [N]-CA--C-[N] |==|  0.91667
USER: genes 5 Torsion [C]-N--CA-[C] |==|  0.21066
USER: genes 6 Torsion [N]-CA--C-[N] |==|  0.53373
USER: genes 7 Torsion [C]-N--CA-[C] |==|  0.50405
USER: genes 8 Torsion [N]-CA--C-[O] |==|  0.92127
USER: genes 9 Torsion [N]-CA--CB-[CG] |==|  0.79471
USER: genes 10 Torsion [CA]-CB--CG-[CD1] |==|  0.72208
USER: genes 11 Torsion [CB]-CA--N-[C] |==|  0.19500
USER: genes 12 Torsion [N]-C--CA-[N] |==|  0.45815
USER: genes 13 Torsion [C]-CA--N-[C] |==|  0.57134
USER: genes 14 Torsion [N]-C--CA-[N] |==|  0.34517
USER: genes 15 Torsion [C]-CA--N-[H2] |==|  0.82028
USER: genes 16 Torsion [C]-CA--CB-[CG] |==|  0.41965
USER: genes 17 Torsion [CA]-CB--CG-[CD1] |==|  0.47301
ROOT
ATOM      1  CA  SER E  44      22.276 -13.215  20.499  1.00 44.79 LIG 0.20  C 
ENDROOT
BRANCH 1 2
ATOM      2  CB  SER E  44      22.982 -14.549  20.265  1.00 46.10 LIG 0.20  C 
BRANCH 2 3
ATOM      3 OG   SER E  44      24.061 -14.697  21.165  1.00 47.85 LIG-0.40  OA
ATOM      4 HG   SER E  44      23.772 -14.687  21.954  1.00 47.85 LIG 0.21  HD
ENDBRANCH 2 3
ENDBRANCH 1 2
BRANCH 1 5
ATOM      5  C   SER E  44      22.112 -12.484  19.185  1.00 42.78 LIG 0.24  C 
ATOM      6  N   PHE E  45      20.961 -12.698  18.565  1.00 43.36 LIG-0.35  N 
ATOM      7 H    PHE E  45      20.344 -13.219  18.860  1.00 43.36 LIG 0.16  HD
ATOM      8 O    SER E  44      23.006 -11.772  18.726  1.00 37.54 LIG-0.27  OA
BRANCH 6 9
ATOM      9  CA  PHE E  45      20.647 -12.046  17.304  1.00 46.68 LIG 0.18  C 
BRANCH 9 10
ATOM     10  C   PHE E  45      21.431 -12.740  16.198  1.00 48.11 LIG 0.24  C 
ATOM     11 O    PHE E  45      21.995 -13.815  16.409  1.00 49.85 LIG-0.27  OA
ATOM     12  N   GLY E  46      21.469 -12.135  15.019  1.00 50.71 LIG-0.35  N 
ATOM     13 H    GLY E  46      21.091 -11.384  14.834  1.00 50.71 LIG 0.16  HD
BRANCH 12 14
ATOM     14  CA  GLY E  46      22.194 -12.755  13.927  1.00 54.23 LIG 0.21  C 
BRANCH 14 15
ATOM     15  C   GLY E  46      22.170 -11.924  12.664  1.00 55.55 LIG 0.21  C 
ATOM     16 O    GLY E  46      21.189 -11.178  12.486  1.00 59.11 LIG-0.29  OA
ENDBRANCH 14 15
ENDBRANCH 12 14
ENDBRANCH 9 10
BRANCH 9 17
ATOM     17  CB  PHE E  45      21.012 -10.559  17.358  1.00 43.03 LIG 0.07  C 
BRANCH 17 18
ATOM     18  CG  PHE E  45      20.063  -9.731  18.187  1.00 41.93 LIG-0.06  A 
ATOM     19  CD2 PHE E  45      20.181  -9.683  19.576  1.00 42.38 LIG 0.01  A 
ATOM     20  CE2 PHE E  45      19.319  -8.892  20.341  1.00 42.73 LIG 0.00  A 
ATOM     21  CZ  PHE E  45      18.328  -8.142  19.716  1.00 42.74 LIG 0.00  A 
ATOM     22  CE1 PHE E  45      18.200  -8.180  18.331  1.00 41.89 LIG 0.00  A 
ATOM     23  CD1 PHE E  45      19.067  -8.974  17.575  1.00 42.01 LIG 0.01  A 
ENDBRANCH 17 18
ENDBRANCH 9 17
ENDBRANCH 6 9
ENDBRANCH 1 5
BRANCH 1 24
ATOM     24  N   SER E  44      21.014 -13.430  21.175  1.00 46.50 LIG-0.34  N 
ATOM     25  C   PHE E  43      21.043 -13.813  22.433  1.00 47.40 LIG 0.24  C 
ATOM     26 O    PHE E  43      22.099 -14.022  23.024  1.00 45.80 LIG-0.27  OA
ATOM     27 H    SER E  44      20.306 -13.293  20.707  1.00 46.50 LIG 0.16  HD
BRANCH 25 28
ATOM     28  CA  PHE E  43      19.711 -14.037  23.113  1.00 47.87 LIG 0.18  C 
BRANCH 28 29
ATOM     29  N   PHE E  43      20.191 -14.765  24.252  1.00 51.92 LIG-0.35  N 
ATOM     30  C   GLY E  42      19.516 -15.635  24.981  1.00 55.92 LIG 0.24  C 
ATOM     31 O    GLY E  42      18.335 -15.967  24.811  1.00 57.26 LIG-0.27  OA
ATOM     32 H    PHE E  43      21.010 -14.573  24.432  1.00 51.92 LIG 0.16  HD
BRANCH 30 33
ATOM     33  CA  GLY E  42      20.375 -16.207  26.080  1.00 58.33 LIG 0.33  C 
BRANCH 33 34
ATOM     34  N   GLY E  42      19.843 -16.054  27.405  1.00 60.94 LIG-0.07  N 
ATOM     35 H3   GLY E  42      19.025 -16.404  27.439  1.00 60.94 LIG 0.27  HD
ATOM     36 H1   GLY E  42      20.370 -16.473  27.987  1.00 60.94 LIG 0.27  HD
ATOM     37 H2   GLY E  42      19.803 -15.189  27.611  1.00 60.94 LIG 0.27  HD
ENDBRANCH 33 34
ENDBRANCH 30 33
ENDBRANCH 28 29
BRANCH 28 38
ATOM     38  CB  PHE E  43      19.129 -12.685  23.513  1.00 42.32 LIG 0.07  C 
BRANCH 38 39
ATOM     39  CG  PHE E  43      17.614 -12.617  23.559  1.00 35.12 LIG-0.06  A 
ATOM     40  CD1 PHE E  43      17.021 -11.490  24.108  1.00 34.02 LIG 0.01  A 
ATOM     41  CE1 PHE E  43      15.633 -11.337  24.160  1.00 29.46 LIG 0.00  A 
ATOM     42  CZ  PHE E  43      14.803 -12.329  23.650  1.00 28.92 LIG 0.00  A 
ATOM     43  CE2 PHE E  43      15.372 -13.478  23.085  1.00 30.40 LIG 0.00  A 
ATOM     44  CD2 PHE E  43      16.787 -13.623  23.042  1.00 32.72 LIG 0.01  A 
ENDBRANCH 38 39
ENDBRANCH 28 38
ENDBRANCH 25 28
ENDBRANCH 1 24
TORSDOF 16
ENDMDL
MODEL 5
USER: ADFR SOLUTION from run 36
USER: SCORE 14.402048 LL:  -2.799 LR: -12.840 RR:   0.000 FEB:  -8.067
USER: RMSD 9.998976
USER: SEED 35
USER: STATUS no improvement in best 7 clusters for 5 generations
USER: GENES 18
USER: genes 0 Translation |==|  0.36042 0.37012 0.35393
USER: genes 1 Rotation |==|  0.50652 0.11876 0.21657 0.65581
USER: genes 2 Torsion [C]-CA--CB-[OG] |==|  0.42237
USER: genes 3 Torsion [CA]-CB--OG-[HG] |==|  0.62259
USER: genes 4 Torsion [N]-CA--C-[N] |==|  0.32089
USER: genes 5 Torsion [C]-N--CA-[C] |==|  0.81738
USER: genes 6 Torsion [N]-CA--C-[N] |==|  0.42214
USER: genes 7 Torsion [C]-N--CA-[C] |==|  0.63337
USER: genes 8 Torsion [N]-CA--C-[O] |==|  0.28741
USER: genes 9 Torsion [N]-CA--CB-[CG] |==|  0.19193
USER: genes 10 Torsion [CA]-CB--CG-[CD1] |==|  0.33881
USER: genes 11 Torsion [CB]-CA--N-[C] |==|  0.20862
USER: genes 12 Torsion [N]-C--CA-[N] |==|  0.32450
USER: genes 13 Torsion [C]-CA--N-[C] |==|  0.75074
USER: genes 14 Torsion [N]-C--CA-[N] |==|  0.05473
USER: genes 15 Torsion [C]-CA--N-[H2] |==|  0.01839
USER: genes 16 Torsion [C]-CA--CB-[CG] |==|  0.24772
USER: genes 17 Torsion [CA]-CB--CG-[CD1] |==|  0.02018
ROOT
ATOM      1  CA  SER E  44      22.023 -11.326  14.088  1.00 44.79 LIG 0.20  C 
ENDROOT
BRANCH 1 2
ATOM      2  CB  SER E  44      21.074 -12.460  13.703  1.00 46.10 LIG 0.20  C 
BRANCH 2 3
ATOM      3 OG   SER E  44      20.202 -12.041  12.673  1.00 47.85 LIG-0.40  OA
ATOM      4 HG   SER E  44      19.420 -12.295  12.847  1.00 47.85 LIG 0.21  HD
ENDBRANCH 2 3
ENDBRANCH 1 2
BRANCH 1 5
ATOM      5  C   SER E  44      22.442 -11.477  15.533  1.00 42.78 LIG 0.24  C 
ATOM      6  N   PHE E  45      22.148 -10.447  16.312  1.00 43.36 LIG-0.35  N 
ATOM      7 H    PHE E  45      21.761  -9.729  16.037  1.00 43.36 LIG 0.16  HD
ATOM      8 O    SER E  44      23.038 -12.479  15.931  1.00 37.54 LIG-0.27  OA
BRANCH 6 9
ATOM      9  CA  PHE E  45      22.466 -10.455  17.730  1.00 46.68 LIG 0.18  C 
BRANCH 9 10
ATOM     10  C   PHE E  45      21.629 -11.533  18.403  1.00 48.11 LIG 0.24  C 
ATOM     11 O    PHE E  45      20.536 -11.862  17.937  1.00 49.85 LIG-0.27  OA
ATOM     12  N   GLY E  46      22.133 -12.090  19.497  1.00 50.71 LIG-0.35  N 
ATOM     13 H    GLY E  46      22.889 -11.886  19.853  1.00 50.71 LIG 0.16  HD
BRANCH 12 14
ATOM     14  CA  GLY E  46      21.382 -13.128  20.174  1.00 54.23 LIG 0.21  C 
BRANCH 14 15
ATOM     15  C   GLY E  46      21.288 -12.902  21.666  1.00 55.55 LIG 0.21  C 
ATOM     16 O    GLY E  46      20.210 -12.470  22.115  1.00 59.11 LIG-0.29  OA
ENDBRANCH 14 15
ENDBRANCH 12 14
ENDBRANCH 9 10
BRANCH 9 17
ATOM     17  CB  PHE E  45      22.173  -9.087  18.357  1.00 43.03 LIG 0.07  C 
BRANCH 17 18
ATOM     18  CG  PHE E  45      20.704  -8.757  18.436  1.00 41.93 LIG-0.06  A 
ATOM     19  CD2 PHE E  45      19.909  -8.755  17.291  1.00 42.38 LIG 0.01  A 
ATOM     20  CE2 PHE E  45      18.541  -8.477  17.369  1.00 42.73 LIG 0.00  A 
ATOM     21  CZ  PHE E  45      17.960  -8.196  18.602  1.00 42.74 LIG 0.00  A 
ATOM     22  CE1 PHE E  45      18.743  -8.197  19.753  1.00 41.89 LIG 0.00  A 
ATOM     23  CD1 PHE E  45      20.109  -8.476  19.664  1.00 42.01 LIG 0.01  A 
ENDBRANCH 17 18
ENDBRANCH 9 17
ENDBRANCH 6 9
ENDBRANCH 1 5
BRANCH 1 24
ATOM     24  N   SER E  44      23.152 -11.293  13.183  1.00 46.50 LIG-0.34  N 
ATOM     25  C   PHE E  43      22.963 -10.813  11.973  1.00 47.40 LIG 0.24  C 
ATOM     26 O    PHE E  43      21.860 -10.433  11.591  1.00 45.80 LIG-0.27  OA
ATOM     27 H    SER E  44      23.895 -11.594  13.494  1.00 46.50 LIG 0.16  HD
BRANCH 25 28
ATOM     28  CA  PHE E  43      24.159 -10.796  11.047  1.00 47.87 LIG 0.18  C 
BRANCH 28 29
ATOM     29  N   PHE E  43      23.650 -11.695  10.052  1.00 51.92 LIG-0.35  N 
ATOM     30  C   GLY E  42      23.781 -13.009  10.027  1.00 55.92 LIG 0.24  C 
ATOM     31 O    GLY E  42      24.384 -13.697  10.863  1.00 57.26 LIG-0.27  OA
ATOM     32 H    PHE E  43      23.223 -11.278   9.432  1.00 51.92 LIG 0.16  HD
BRANCH 30 33
ATOM     33  CA  GLY E  42      23.085 -13.604   8.829  1.00 58.33 LIG 0.33  C 
BRANCH 33 34
ATOM     34  N   GLY E  42      22.824 -12.680   7.761  1.00 60.94 LIG-0.07  N 
ATOM     35 H3   GLY E  42      23.155 -13.004   7.001  1.00 60.94 LIG 0.27  HD
ATOM     36 H1   GLY E  42      21.945 -12.564   7.677  1.00 60.94 LIG 0.27  HD
ATOM     37 H2   GLY E  42      23.210 -11.899   7.943  1.00 60.94 LIG 0.27  HD
ENDBRANCH 33 34
ENDBRANCH 30 33
ENDBRANCH 28 29
BRANCH 28 38
ATOM     38  CB  PHE E  43      24.332  -9.384  10.494  1.00 42.32 LIG 0.07  C 
BRANCH 38 39
ATOM     39  CG  PHE E  43      25.205  -8.464  11.327  1.00 35.12 LIG-0.06  A 
ATOM     40  CD1 PHE E  43      25.886  -9.001  12.408  1.00 34.02 LIG 0.01  A 
ATOM     41  CE1 PHE E  43      26.735  -8.227  13.204  1.00 29.46 LIG 0.00  A 
ATOM     42  CZ  PHE E  43      26.918  -6.879  12.922  1.00 28.92 LIG 0.00  A 
ATOM     43  CE2 PHE E  43      26.247  -6.307  11.833  1.00 30.40 LIG 0.00  A 
ATOM     44  CD2 PHE E  43      25.383  -7.105  11.032  1.00 32.72 LIG 0.01  A 
ENDBRANCH 38 39
ENDBRANCH 28 38
ENDBRANCH 25 28
ENDBRANCH 1 24
TORSDOF 16
ENDMDL
MODEL 6
USER: ADFR SOLUTION from run 160
USER: SCORE 15.529510 LL:  -3.206 LR: -12.793 RR:   0.000 FEB:  -8.020
USER: RMSD 8.749893
USER: SEED 159
USER: STATUS 1 or 2 clusters left
USER: GENES 18
USER: genes 0 Translation |==|  0.37202 0.29745 0.58289
USER: genes 1 Rotation |==|  0.51006 0.80835 0.31224 0.84579
USER: genes 2 Torsion [C]-CA--CB-[OG] |==|  0.67239
USER: genes 3 Torsion [CA]-CB--OG-[HG] |==|  0.30902
USER: genes 4 Torsion [N]-CA--C-[N] |==|  0.03334
USER: genes 5 Torsion [C]-N--CA-[C] |==|  0.73805
USER: genes 6 Torsion [N]-CA--C-[N] |==|  0.44841
USER: genes 7 Torsion [C]-N--CA-[C] |==|  0.72339
USER: genes 8 Torsion [N]-CA--C-[O] |==|  0.85234
USER: genes 9 Torsion [N]-CA--CB-[CG] |==|  0.73140
USER: genes 10 Torsion [CA]-CB--CG-[CD1] |==|  0.89260
USER: genes 11 Torsion [CB]-CA--N-[C] |==|  0.19739
USER: genes 12 Torsion [N]-C--CA-[N] |==|  0.44468
USER: genes 13 Torsion [C]-CA--N-[C] |==|  0.75004
USER: genes 14 Torsion [N]-C--CA-[N] |==|  0.24520
USER: genes 15 Torsion [C]-CA--N-[H2] |==|  0.62249
USER: genes 16 Torsion [C]-CA--CB-[CG] |==|  0.92926
USER: genes 17 Torsion [CA]-CB--CG-[CD1] |==|  0.30735
ROOT
ATOM      1  CA  SER E  44      22.371 -13.507  20.957  1.00 44.79 LIG 0.20  C 
ENDROOT
BRANCH 1 2
ATOM      2  CB  SER E  44      21.381 -14.547  20.434  1.00 46.10 LIG 0.20  C 
BRANCH 2 3
ATOM      3 OG   SER E  44      20.216 -14.559  21.233  1.00 47.85 LIG-0.40  OA
ATOM      4 HG   SER E  44      19.569 -14.259  20.790  1.00 47.85 LIG 0.21  HD
ENDBRANCH 2 3
ENDBRANCH 1 2
BRANCH 1 5
ATOM      5  C   SER E  44      22.610 -12.451  19.901  1.00 42.78 LIG 0.24  C 
ATOM      6  N   PHE E  45      22.592 -11.202  20.343  1.00 43.36 LIG-0.35  N 
ATOM      7 H    PHE E  45      22.444 -10.983  21.161  1.00 43.36 LIG 0.16  HD
ATOM      8 O    SER E  44      22.777 -12.748  18.717  1.00 37.54 LIG-0.27  OA
BRANCH 6 9
ATOM      9  CA  PHE E  45      22.830 -10.079  19.451  1.00 46.68 LIG 0.18  C 
BRANCH 9 10
ATOM     10  C   PHE E  45      24.308  -9.719  19.518  1.00 48.11 LIG 0.24  C 
ATOM     11 O    PHE E  45      25.004 -10.098  20.462  1.00 49.85 LIG-0.27  OA
ATOM     12  N   GLY E  46      24.794  -8.992  18.521  1.00 50.71 LIG-0.35  N 
ATOM     13 H    GLY E  46      24.341  -8.707  17.848  1.00 50.71 LIG 0.16  HD
BRANCH 12 14
ATOM     14  CA  GLY E  46      26.197  -8.627  18.530  1.00 54.23 LIG 0.21  C 
BRANCH 14 15
ATOM     15  C   GLY E  46      26.430  -7.217  19.024  1.00 55.55 LIG 0.21  C 
ATOM     16 O    GLY E  46      25.792  -6.301  18.470  1.00 59.11 LIG-0.29  OA
ENDBRANCH 14 15
ENDBRANCH 12 14
ENDBRANCH 9 10
BRANCH 9 17
ATOM     17  CB  PHE E  45      21.972  -8.876  19.856  1.00 43.03 LIG 0.07  C 
BRANCH 17 18
ATOM     18  CG  PHE E  45      20.690  -8.753  19.074  1.00 41.93 LIG-0.06  A 
ATOM     19  CD2 PHE E  45      19.515  -8.319  19.689  1.00 42.38 LIG 0.01  A 
ATOM     20  CE2 PHE E  45      18.334  -8.178  18.956  1.00 42.73 LIG 0.00  A 
ATOM     21  CZ  PHE E  45      18.321  -8.473  17.596  1.00 42.74 LIG 0.00  A 
ATOM     22  CE1 PHE E  45      19.487  -8.906  16.971  1.00 41.89 LIG 0.00  A 
ATOM     23  CD1 PHE E  45      20.663  -9.044  17.712  1.00 42.01 LIG 0.01  A 
ENDBRANCH 17 18
ENDBRANCH 9 17
ENDBRANCH 6 9
ENDBRANCH 1 5
BRANCH 1 24
ATOM     24  N   SER E  44      21.894 -12.947  22.204  1.00 46.50 LIG-0.34  N 
ATOM     25  C   PHE E  43      21.915 -13.710  23.274  1.00 47.40 LIG 0.24  C 
ATOM     26 O    PHE E  43      22.292 -14.878  23.231  1.00 45.80 LIG-0.27  OA
ATOM     27 H    SER E  44      21.619 -12.133  22.172  1.00 46.50 LIG 0.16  HD
BRANCH 25 28
ATOM     28  CA  PHE E  43      21.405 -13.102  24.562  1.00 47.87 LIG 0.18  C 
BRANCH 28 29
ATOM     29  N   PHE E  43      21.146 -14.324  25.268  1.00 51.92 LIG-0.35  N 
ATOM     30  C   GLY E  42      20.020 -15.013  25.275  1.00 55.92 LIG 0.24  C 
ATOM     31 O    GLY E  42      18.978 -14.713  24.676  1.00 57.26 LIG-0.27  OA
ATOM     32 H    PHE E  43      21.833 -14.586  25.715  1.00 51.92 LIG 0.16  HD
BRANCH 30 33
ATOM     33  CA  GLY E  42      20.148 -16.257  26.118  1.00 58.33 LIG 0.33  C 
BRANCH 33 34
ATOM     34  N   GLY E  42      19.835 -16.079  27.508  1.00 60.94 LIG-0.07  N 
ATOM     35 H3   GLY E  42      19.833 -15.211  27.704  1.00 60.94 LIG 0.27  HD
ATOM     36 H1   GLY E  42      19.032 -16.423  27.678  1.00 60.94 LIG 0.27  HD
ATOM     37 H2   GLY E  42      20.446 -16.493  28.006  1.00 60.94 LIG 0.27  HD
ENDBRANCH 33 34
ENDBRANCH 30 33
ENDBRANCH 28 29
BRANCH 28 38
ATOM     38  CB  PHE E  43      22.533 -12.305  25.210  1.00 42.32 LIG 0.07  C 
BRANCH 38 39
ATOM     39  CG  PHE E  43      23.937 -12.752  24.847  1.00 35.12 LIG-0.06  A 
ATOM     40  CD1 PHE E  43      24.710 -11.918  24.054  1.00 34.02 LIG 0.01  A 
ATOM     41  CE1 PHE E  43      26.023 -12.242  23.702  1.00 29.46 LIG 0.00  A 
ATOM     42  CZ  PHE E  43      26.591 -13.429  24.149  1.00 28.92 LIG 0.00  A 
ATOM     43  CE2 PHE E  43      25.836 -14.292  24.955  1.00 30.40 LIG 0.00  A 
ATOM     44  CD2 PHE E  43      24.500 -13.951  25.303  1.00 32.72 LIG 0.01  A 
ENDBRANCH 38 39
ENDBRANCH 28 38
ENDBRANCH 25 28
ENDBRANCH 1 24
TORSDOF 16
ENDMDL
MODEL 7
USER: ADFR SOLUTION from run 159
USER: SCORE 14.396638 LL:  -3.250 LR: -12.736 RR:   0.000 FEB:  -7.963
USER: RMSD 11.983945
USER: SEED 158
USER: STATUS no improvement in best 10 clusters for 5 generations
USER: GENES 18
USER: genes 0 Translation |==|  0.33005 0.35135 0.32625
USER: genes 1 Rotation |==|  0.82594 0.36704 0.14561 0.52225
USER: genes 2 Torsion [C]-CA--CB-[OG] |==|  0.37137
USER: genes 3 Torsion [CA]-CB--OG-[HG] |==|  0.47926
USER: genes 4 Torsion [N]-CA--C-[N] |==|  0.27516
USER: genes 5 Torsion [C]-N--CA-[C] |==|  0.62847
USER: genes 6 Torsion [N]-CA--C-[N] |==|  0.96567
USER: genes 7 Torsion [C]-N--CA-[C] |==|  0.19855
USER: genes 8 Torsion [N]-CA--C-[O] |==|  0.16942
USER: genes 9 Torsion [N]-CA--CB-[CG] |==|  0.28922
USER: genes 10 Torsion [CA]-CB--CG-[CD1] |==|  0.76153
USER: genes 11 Torsion [CB]-CA--N-[C] |==|  0.48905
USER: genes 12 Torsion [N]-C--CA-[N] |==|  0.90852
USER: genes 13 Torsion [C]-CA--N-[C] |==|  0.79184
USER: genes 14 Torsion [N]-C--CA-[N] |==|  0.94301
USER: genes 15 Torsion [C]-CA--N-[H2] |==|  0.99510
USER: genes 16 Torsion [C]-CA--CB-[CG] |==|  0.26568
USER: genes 17 Torsion [CA]-CB--CG-[CD1] |==|  0.71231
ROOT
ATOM      1  CA  SER E  44      21.112 -11.890  13.258  1.00 44.79 LIG 0.20  C 
ENDROOT
BRANCH 1 2
ATOM      2  CB  SER E  44      21.684 -11.541  11.885  1.00 46.10 LIG 0.20  C 
BRANCH 2 3
ATOM      3 OG   SER E  44      20.812 -10.667  11.198  1.00 47.85 LIG-0.40  OA
ATOM      4 HG   SER E  44      21.180 -10.402  10.491  1.00 47.85 LIG 0.21  HD
ENDBRANCH 2 3
ENDBRANCH 1 2
BRANCH 1 5
ATOM      5  C   SER E  44      21.214 -13.380  13.493  1.00 42.78 LIG 0.24  C 
ATOM      6  N   PHE E  45      20.148 -13.934  14.051  1.00 43.36 LIG-0.35  N 
ATOM      7 H    PHE E  45      19.444 -13.497  14.285  1.00 43.36 LIG 0.16  HD
ATOM      8 O    SER E  44      22.233 -14.010  13.207  1.00 37.54 LIG-0.27  OA
BRANCH 6 9
ATOM      9  CA  PHE E  45      20.087 -15.361  14.317  1.00 46.68 LIG 0.18  C 
BRANCH 9 10
ATOM     10  C   PHE E  45      18.738 -15.880  13.841  1.00 48.11 LIG 0.24  C 
ATOM     11 O    PHE E  45      18.527 -17.091  13.750  1.00 49.85 LIG-0.27  OA
ATOM     12  N   GLY E  46      17.818 -14.973  13.539  1.00 50.71 LIG-0.35  N 
ATOM     13 H    GLY E  46      17.927 -14.121  13.588  1.00 50.71 LIG 0.16  HD
BRANCH 12 14
ATOM     14  CA  GLY E  46      16.512 -15.411  13.089  1.00 54.23 LIG 0.21  C 
BRANCH 14 15
ATOM     15  C   GLY E  46      15.689 -16.026  14.198  1.00 55.55 LIG 0.21  C 
ATOM     16 O    GLY E  46      15.412 -15.305  15.176  1.00 59.11 LIG-0.29  OA
ENDBRANCH 14 15
ENDBRANCH 12 14
ENDBRANCH 9 10
BRANCH 9 17
ATOM     17  CB  PHE E  45      20.265 -15.640  15.813  1.00 43.03 LIG 0.07  C 
BRANCH 17 18
ATOM     18  CG  PHE E  45      18.982 -15.992  16.522  1.00 41.93 LIG-0.06  A 
ATOM     19  CD2 PHE E  45      18.617 -17.323  16.722  1.00 42.38 LIG 0.01  A 
ATOM     20  CE2 PHE E  45      17.442 -17.649  17.405  1.00 42.73 LIG 0.00  A 
ATOM     21  CZ  PHE E  45      16.621 -16.637  17.894  1.00 42.74 LIG 0.00  A 
ATOM     22  CE1 PHE E  45      16.975 -15.305  17.702  1.00 41.89 LIG 0.00  A 
ATOM     23  CD1 PHE E  45      18.152 -14.990  17.018  1.00 42.01 LIG 0.01  A 
ENDBRANCH 17 18
ENDBRANCH 9 17
ENDBRANCH 6 9
ENDBRANCH 1 5
BRANCH 1 24
ATOM     24  N   SER E  44      21.778 -11.118  14.286  1.00 46.50 LIG-0.34  N 
ATOM     25  C   PHE E  43      21.353 -11.237  15.524  1.00 47.40 LIG 0.24  C 
ATOM     26 O    PHE E  43      20.396 -11.950  15.815  1.00 45.80 LIG-0.27  OA
ATOM     27 H    SER E  44      22.426 -10.618  14.022  1.00 46.50 LIG 0.16  HD
BRANCH 25 28
ATOM     28  CA  PHE E  43      22.063 -10.415  16.577  1.00 47.87 LIG 0.18  C 
BRANCH 28 29
ATOM     29  N   PHE E  43      23.372 -10.436  15.992  1.00 51.92 LIG-0.35  N 
ATOM     30  C   GLY E  42      24.219 -11.448  15.977  1.00 55.92 LIG 0.24  C 
ATOM     31 O    GLY E  42      24.031 -12.563  16.482  1.00 57.26 LIG-0.27  OA
ATOM     32 H    PHE E  43      23.572  -9.682  15.627  1.00 51.92 LIG 0.16  HD
BRANCH 30 33
ATOM     33  CA  GLY E  42      25.487 -11.087  15.244  1.00 58.33 LIG 0.33  C 
BRANCH 33 34
ATOM     34  N   GLY E  42      25.369  -9.974  14.345  1.00 60.94 LIG-0.07  N 
ATOM     35 H3   GLY E  42      25.913  -9.320  14.608  1.00 60.94 LIG 0.27  HD
ATOM     36 H1   GLY E  42      25.593 -10.232  13.522  1.00 60.94 LIG 0.27  HD
ATOM     37 H2   GLY E  42      24.529  -9.680  14.345  1.00 60.94 LIG 0.27  HD
ENDBRANCH 33 34
ENDBRANCH 30 33
ENDBRANCH 28 29
BRANCH 28 38
ATOM     38  CB  PHE E  43      21.471  -9.009  16.584  1.00 42.32 LIG 0.07  C 
BRANCH 38 39
ATOM     39  CG  PHE E  43      20.383  -8.768  17.614  1.00 35.12 LIG-0.06  A 
ATOM     40  CD1 PHE E  43      19.065  -8.733  17.185  1.00 34.02 LIG 0.01  A 
ATOM     41  CE1 PHE E  43      18.003  -8.548  18.075  1.00 29.46 LIG 0.00  A 
ATOM     42  CZ  PHE E  43      18.251  -8.393  19.433  1.00 28.92 LIG 0.00  A 
ATOM     43  CE2 PHE E  43      19.573  -8.427  19.899  1.00 30.40 LIG 0.00  A 
ATOM     44  CD2 PHE E  43      20.644  -8.613  18.982  1.00 32.72 LIG 0.01  A 
ENDBRANCH 38 39
ENDBRANCH 28 38
ENDBRANCH 25 28
ENDBRANCH 1 24
TORSDOF 16
ENDMDL
MODEL 8
USER: ADFR SOLUTION from run 36
USER: SCORE 14.416480 LL:  -2.946 LR: -12.725 RR:   0.000 FEB:  -7.953
USER: RMSD 10.580215
USER: SEED 35
USER: STATUS no improvement in best 7 clusters for 5 generations
USER: GENES 18
USER: genes 0 Translation |==|  0.36130 0.36799 0.34515
USER: genes 1 Rotation |==|  0.51209 0.11622 0.22093 0.65712
USER: genes 2 Torsion [C]-CA--CB-[OG] |==|  0.40513
USER: genes 3 Torsion [CA]-CB--OG-[HG] |==|  0.68038
USER: genes 4 Torsion [N]-CA--C-[N] |==|  0.31474
USER: genes 5 Torsion [C]-N--CA-[C] |==|  0.82031
USER: genes 6 Torsion [N]-CA--C-[N] |==|  0.43310
USER: genes 7 Torsion [C]-N--CA-[C] |==|  0.61362
USER: genes 8 Torsion [N]-CA--C-[O] |==|  0.30628
USER: genes 9 Torsion [N]-CA--CB-[CG] |==|  0.20230
USER: genes 10 Torsion [CA]-CB--CG-[CD1] |==|  0.83966
USER: genes 11 Torsion [CB]-CA--N-[C] |==|  0.21658
USER: genes 12 Torsion [N]-C--CA-[N] |==|  0.33730
USER: genes 13 Torsion [C]-CA--N-[C] |==|  0.73446
USER: genes 14 Torsion [N]-C--CA-[N] |==|  0.08109
USER: genes 15 Torsion [C]-CA--N-[H2] |==|  0.96366
USER: genes 16 Torsion [C]-CA--CB-[CG] |==|  0.67054
USER: genes 17 Torsion [CA]-CB--CG-[CD1] |==|  0.83649
ROOT
ATOM      1  CA  SER E  44      22.049 -11.390  13.825  1.00 44.79 LIG 0.20  C 
ENDROOT
BRANCH 1 2
ATOM      2  CB  SER E  44      21.134 -12.552  13.442  1.00 46.10 LIG 0.20  C 
BRANCH 2 3
ATOM      3 OG   SER E  44      20.171 -12.128  12.499  1.00 47.85 LIG-0.40  OA
ATOM      4 HG   SER E  44      19.405 -12.177  12.839  1.00 47.85 LIG 0.21  HD
ENDBRANCH 2 3
ENDBRANCH 1 2
BRANCH 1 5
ATOM      5  C   SER E  44      22.454 -11.513  15.276  1.00 42.78 LIG 0.24  C 
ATOM      6  N   PHE E  45      22.166 -10.462  16.029  1.00 43.36 LIG-0.35  N 
ATOM      7 H    PHE E  45      21.790  -9.746  15.735  1.00 43.36 LIG 0.16  HD
ATOM      8 O    SER E  44      23.036 -12.512  15.702  1.00 37.54 LIG-0.27  OA
BRANCH 6 9
ATOM      9  CA  PHE E  45      22.472 -10.441  17.450  1.00 46.68 LIG 0.18  C 
BRANCH 9 10
ATOM     10  C   PHE E  45      21.636 -11.512  18.136  1.00 48.11 LIG 0.24  C 
ATOM     11 O    PHE E  45      20.585 -11.908  17.629  1.00 49.85 LIG-0.27  OA
ATOM     12  N   GLY E  46      22.095 -11.987  19.286  1.00 50.71 LIG-0.35  N 
ATOM     13 H    GLY E  46      22.821 -11.735  19.672  1.00 50.71 LIG 0.16  HD
BRANCH 12 14
ATOM     14  CA  GLY E  46      21.343 -13.015  19.979  1.00 54.23 LIG 0.21  C 
BRANCH 14 15
ATOM     15  C   GLY E  46      21.301 -12.798  21.475  1.00 55.55 LIG 0.21  C 
ATOM     16 O    GLY E  46      20.210 -12.471  21.978  1.00 59.11 LIG-0.29  OA
ENDBRANCH 14 15
ENDBRANCH 12 14
ENDBRANCH 9 10
BRANCH 9 17
ATOM     17  CB  PHE E  45      22.165  -9.064  18.049  1.00 43.03 LIG 0.07  C 
BRANCH 17 18
ATOM     18  CG  PHE E  45      20.692  -8.778  18.191  1.00 41.93 LIG-0.06  A 
ATOM     19  CD2 PHE E  45      20.145  -8.440  19.429  1.00 42.38 LIG 0.01  A 
ATOM     20  CE2 PHE E  45      18.785  -8.146  19.555  1.00 42.73 LIG 0.00  A 
ATOM     21  CZ  PHE E  45      17.959  -8.191  18.435  1.00 42.74 LIG 0.00  A 
ATOM     22  CE1 PHE E  45      18.493  -8.526  17.194  1.00 41.89 LIG 0.00  A 
ATOM     23  CD1 PHE E  45      19.855  -8.817  17.079  1.00 42.01 LIG 0.01  A 
ENDBRANCH 17 18
ENDBRANCH 9 17
ENDBRANCH 6 9
ENDBRANCH 1 5
BRANCH 1 24
ATOM     24  N   SER E  44      23.188 -11.339  12.933  1.00 46.50 LIG-0.34  N 
ATOM     25  C   PHE E  43      23.015 -10.826  11.734  1.00 47.40 LIG 0.24  C 
ATOM     26 O    PHE E  43      21.918 -10.429  11.351  1.00 45.80 LIG-0.27  OA
ATOM     27 H    SER E  44      23.926 -11.652  13.244  1.00 46.50 LIG 0.16  HD
BRANCH 25 28
ATOM     28  CA  PHE E  43      24.220 -10.791  10.821  1.00 47.87 LIG 0.18  C 
BRANCH 28 29
ATOM     29  N   PHE E  43      23.675 -11.567   9.746  1.00 51.92 LIG-0.35  N 
ATOM     30  C   GLY E  42      23.826 -12.863   9.546  1.00 55.92 LIG 0.24  C 
ATOM     31 O    GLY E  42      24.482 -13.638  10.255  1.00 57.26 LIG-0.27  OA
ATOM     32 H    PHE E  43      23.210 -11.084   9.206  1.00 51.92 LIG 0.16  HD
BRANCH 30 33
ATOM     33  CA  GLY E  42      23.078 -13.316   8.317  1.00 58.33 LIG 0.33  C 
BRANCH 33 34
ATOM     34  N   GLY E  42      22.934 -12.318   7.295  1.00 60.94 LIG-0.07  N 
ATOM     35 H3   GLY E  42      23.473 -12.511   6.613  1.00 60.94 LIG 0.27  HD
ATOM     36 H1   GLY E  42      22.090 -12.302   7.011  1.00 60.94 LIG 0.27  HD
ATOM     37 H2   GLY E  42      23.150 -11.521   7.626  1.00 60.94 LIG 0.27  HD
ENDBRANCH 33 34
ENDBRANCH 30 33
ENDBRANCH 28 29
BRANCH 28 38
ATOM     38  CB  PHE E  43      24.476  -9.347  10.401  1.00 42.32 LIG 0.07  C 
BRANCH 38 39
ATOM     39  CG  PHE E  43      24.382  -9.077   8.910  1.00 35.12 LIG-0.06  A 
ATOM     40  CD1 PHE E  43      25.222  -9.778   8.059  1.00 34.02 LIG 0.01  A 
ATOM     41  CE1 PHE E  43      25.176  -9.611   6.673  1.00 29.46 LIG 0.00  A 
ATOM     42  CZ  PHE E  43      24.267  -8.723   6.108  1.00 28.92 LIG 0.00  A 
ATOM     43  CE2 PHE E  43      23.401  -8.003   6.942  1.00 30.40 LIG 0.00  A 
ATOM     44  CD2 PHE E  43      23.462  -8.180   8.352  1.00 32.72 LIG 0.01  A 
ENDBRANCH 38 39
ENDBRANCH 28 38
ENDBRANCH 25 28
ENDBRANCH 1 24
TORSDOF 16
ENDMDL
MODEL 9
USER: ADFR SOLUTION from run 60
USER: SCORE 15.241099 LL:  -3.270 LR: -12.731 RR:   0.000 FEB:  -7.958
USER: RMSD 4.471867
USER: SEED 59
USER: STATUS no improvement in best 4 clusters for 5 generations
USER: GENES 18
USER: genes 0 Translation |==|  0.49553 0.48363 0.51383
USER: genes 1 Rotation |==|  0.74003 0.54219 0.65807 0.90697
USER: genes 2 Torsion [C]-CA--CB-[OG] |==|  0.57760
USER: genes 3 Torsion [CA]-CB--OG-[HG] |==|  0.16155
USER: genes 4 Torsion [N]-CA--C-[N] |==|  0.43908
USER: genes 5 Torsion [C]-N--CA-[C] |==|  0.81827
USER: genes 6 Torsion [N]-CA--C-[N] |==|  0.90695
USER: genes 7 Torsion [C]-N--CA-[C] |==|  0.76287
USER: genes 8 Torsion [N]-CA--C-[O] |==|  0.95296
USER: genes 9 Torsion [N]-CA--CB-[CG] |==|  0.63637
USER: genes 10 Torsion [CA]-CB--CG-[CD1] |==|  0.21977
USER: genes 11 Torsion [CB]-CA--N-[C] |==|  0.49444
USER: genes 12 Torsion [N]-C--CA-[N] |==|  0.46464
USER: genes 13 Torsion [C]-CA--N-[C] |==|  0.61642
USER: genes 14 Torsion [N]-C--CA-[N] |==|  0.51387
USER: genes 15 Torsion [C]-CA--N-[H2] |==|  0.91649
USER: genes 16 Torsion [C]-CA--CB-[CG] |==|  0.71726
USER: genes 17 Torsion [CA]-CB--CG-[CD1] |==|  0.17635
ROOT
ATOM      1  CA  SER E  44      26.076  -7.921  18.885  1.00 44.79 LIG 0.20  C 
ENDROOT
BRANCH 1 2
ATOM      2  CB  SER E  44      27.133  -7.355  17.938  1.00 46.10 LIG 0.20  C 
BRANCH 2 3
ATOM      3 OG   SER E  44      27.177  -8.112  16.746  1.00 47.85 LIG-0.40  OA
ATOM      4 HG   SER E  44      26.421  -8.105  16.381  1.00 47.85 LIG 0.21  HD
ENDBRANCH 2 3
ENDBRANCH 1 2
BRANCH 1 5
ATOM      5  C   SER E  44      25.542  -6.820  19.774  1.00 42.78 LIG 0.24  C 
ATOM      6  N   PHE E  45      26.323  -6.495  20.793  1.00 43.36 LIG-0.35  N 
ATOM      7 H    PHE E  45      27.074  -6.877  20.966  1.00 43.36 LIG 0.16  HD
ATOM      8 O    SER E  44      24.446  -6.297  19.567  1.00 37.54 LIG-0.27  OA
BRANCH 6 9
ATOM      9  CA  PHE E  45      25.956  -5.439  21.722  1.00 46.68 LIG 0.18  C 
BRANCH 9 10
ATOM     10  C   PHE E  45      25.948  -4.118  20.965  1.00 48.11 LIG 0.24  C 
ATOM     11 O    PHE E  45      25.148  -3.229  21.263  1.00 49.85 LIG-0.27  OA
ATOM     12  N   GLY E  46      26.835  -3.980  19.988  1.00 50.71 LIG-0.35  N 
ATOM     13 H    GLY E  46      27.406  -4.577  19.749  1.00 50.71 LIG 0.16  HD
BRANCH 12 14
ATOM     14  CA  GLY E  46      26.877  -2.739  19.239  1.00 54.23 LIG 0.21  C 
BRANCH 14 15
ATOM     15  C   GLY E  46      25.890  -2.716  18.094  1.00 55.55 LIG 0.21  C 
ATOM     16 O    GLY E  46      25.417  -3.806  17.721  1.00 59.11 LIG-0.29  OA
ENDBRANCH 14 15
ENDBRANCH 12 14
ENDBRANCH 9 10
BRANCH 9 17
ATOM     17  CB  PHE E  45      26.949  -5.375  22.888  1.00 43.03 LIG 0.07  C 
BRANCH 17 18
ATOM     18  CG  PHE E  45      26.291  -5.337  24.244  1.00 41.93 LIG-0.06  A 
ATOM     19  CD2 PHE E  45      26.133  -4.133  24.928  1.00 42.38 LIG 0.01  A 
ATOM     20  CE2 PHE E  45      25.498  -4.094  26.173  1.00 42.73 LIG 0.00  A 
ATOM     21  CZ  PHE E  45      25.016  -5.269  26.742  1.00 42.74 LIG 0.00  A 
ATOM     22  CE1 PHE E  45      25.166  -6.477  26.068  1.00 41.89 LIG 0.00  A 
ATOM     23  CD1 PHE E  45      25.802  -6.505  24.824  1.00 42.01 LIG 0.01  A 
ENDBRANCH 17 18
ENDBRANCH 9 17
ENDBRANCH 6 9
ENDBRANCH 1 5
BRANCH 1 24
ATOM     24  N   SER E  44      25.031  -8.580  18.130  1.00 46.50 LIG-0.34  N 
ATOM     25  C   PHE E  43      24.057  -9.161  18.795  1.00 47.40 LIG 0.24  C 
ATOM     26 O    PHE E  43      24.035  -9.185  20.023  1.00 45.80 LIG-0.27  OA
ATOM     27 H    SER E  44      25.109  -8.553  17.274  1.00 46.50 LIG 0.16  HD
BRANCH 25 28
ATOM     28  CA  PHE E  43      22.983  -9.847  17.982  1.00 47.87 LIG 0.18  C 
BRANCH 28 29
ATOM     29  N   PHE E  43      22.357 -10.569  19.051  1.00 51.92 LIG-0.35  N 
ATOM     30  C   GLY E  42      21.928 -11.818  19.022  1.00 55.92 LIG 0.24  C 
ATOM     31 O    GLY E  42      21.983 -12.585  18.051  1.00 57.26 LIG-0.27  OA
ATOM     32 H    PHE E  43      22.279 -10.088  19.760  1.00 51.92 LIG 0.16  HD
BRANCH 30 33
ATOM     33  CA  GLY E  42      21.348 -12.226  20.353  1.00 58.33 LIG 0.33  C 
BRANCH 33 34
ATOM     34  N   GLY E  42      20.960 -13.605  20.446  1.00 60.94 LIG-0.07  N 
ATOM     35 H3   GLY E  42      21.648 -14.089  20.738  1.00 60.94 LIG 0.27  HD
ATOM     36 H1   GLY E  42      20.279 -13.684  21.014  1.00 60.94 LIG 0.27  HD
ATOM     37 H2   GLY E  42      20.712 -13.898  19.643  1.00 60.94 LIG 0.27  HD
ENDBRANCH 33 34
ENDBRANCH 30 33
ENDBRANCH 28 29
BRANCH 28 38
ATOM     38  CB  PHE E  43      22.054  -8.786  17.399  1.00 42.32 LIG 0.07  C 
BRANCH 38 39
ATOM     39  CG  PHE E  43      20.730  -8.614  18.120  1.00 35.12 LIG-0.06  A 
ATOM     40  CD1 PHE E  43      20.748  -8.178  19.435  1.00 34.02 LIG 0.01  A 
ATOM     41  CE1 PHE E  43      19.571  -7.964  20.158  1.00 29.46 LIG 0.00  A 
ATOM     42  CZ  PHE E  43      18.336  -8.187  19.561  1.00 28.92 LIG 0.00  A 
ATOM     43  CE2 PHE E  43      18.285  -8.625  18.231  1.00 30.40 LIG 0.00  A 
ATOM     44  CD2 PHE E  43      19.490  -8.842  17.508  1.00 32.72 LIG 0.01  A 
ENDBRANCH 38 39
ENDBRANCH 28 38
ENDBRANCH 25 28
ENDBRANCH 1 24
TORSDOF 16
ENDMDL
MODEL 10
USER: ADFR SOLUTION from run 96
USER: SCORE 14.054569 LL:  -2.823 LR: -12.655 RR:   0.000 FEB:  -7.883
USER: RMSD 7.364997
USER: SEED 95
USER: STATUS no improvement in best 7 clusters for 5 generations
USER: GENES 18
USER: genes 0 Translation |==|  0.42864 0.36358 0.45384
USER: genes 1 Rotation |==|  0.76534 0.46293 0.60470 0.90897
USER: genes 2 Torsion [C]-CA--CB-[OG] |==|  0.97687
USER: genes 3 Torsion [CA]-CB--OG-[HG] |==|  0.71738
USER: genes 4 Torsion [N]-CA--C-[N] |==|  0.86387
USER: genes 5 Torsion [C]-N--CA-[C] |==|  0.18650
USER: genes 6 Torsion [N]-CA--C-[N] |==|  0.11651
USER: genes 7 Torsion [C]-N--CA-[C] |==|  0.71970
USER: genes 8 Torsion [N]-CA--C-[O] |==|  0.03002
USER: genes 9 Torsion [N]-CA--CB-[CG] |==|  0.77146
USER: genes 10 Torsion [CA]-CB--CG-[CD1] |==|  0.57943
USER: genes 11 Torsion [CB]-CA--N-[C] |==|  0.20865
USER: genes 12 Torsion [N]-C--CA-[N] |==|  0.25800
USER: genes 13 Torsion [C]-CA--N-[C] |==|  0.61111
USER: genes 14 Torsion [N]-C--CA-[N] |==|  0.56630
USER: genes 15 Torsion [C]-CA--N-[H2] |==|  0.86823
USER: genes 16 Torsion [C]-CA--CB-[CG] |==|  0.37578
USER: genes 17 Torsion [CA]-CB--CG-[CD1] |==|  0.26614
ROOT
ATOM      1  CA  SER E  44      24.069 -11.523  17.085  1.00 44.79 LIG 0.20  C 
ENDROOT
BRANCH 1 2
ATOM      2  CB  SER E  44      25.380 -11.227  16.359  1.00 46.10 LIG 0.20  C 
BRANCH 2 3
ATOM      3 OG   SER E  44      25.853  -9.942  16.705  1.00 47.85 LIG-0.40  OA
ATOM      4 HG   SER E  44      25.677  -9.402  16.086  1.00 47.85 LIG 0.21  HD
ENDBRANCH 2 3
ENDBRANCH 1 2
BRANCH 1 5
ATOM      5  C   SER E  44      23.790 -10.439  18.102  1.00 42.78 LIG 0.24  C 
ATOM      6  N   PHE E  45      23.387  -9.284  17.594  1.00 43.36 LIG-0.35  N 
ATOM      7 H    PHE E  45      23.297  -9.133  16.752  1.00 43.36 LIG 0.16  HD
ATOM      8 O    SER E  44      23.960 -10.626  19.308  1.00 37.54 LIG-0.27  OA
BRANCH 6 9
ATOM      9  CA  PHE E  45      23.057  -8.154  18.447  1.00 46.68 LIG 0.18  C 
BRANCH 9 10
ATOM     10  C   PHE E  45      24.334  -7.675  19.122  1.00 48.11 LIG 0.24  C 
ATOM     11 O    PHE E  45      24.335  -7.359  20.313  1.00 49.85 LIG-0.27  OA
ATOM     12  N   GLY E  46      25.426  -7.620  18.370  1.00 50.71 LIG-0.35  N 
ATOM     13 H    GLY E  46      25.466  -7.828  17.537  1.00 50.71 LIG 0.16  HD
BRANCH 12 14
ATOM     14  CA  GLY E  46      26.673  -7.178  18.964  1.00 54.23 LIG 0.21  C 
BRANCH 14 15
ATOM     15  C   GLY E  46      26.998  -5.739  18.633  1.00 55.55 LIG 0.21  C 
ATOM     16 O    GLY E  46      26.105  -5.056  18.095  1.00 59.11 LIG-0.29  OA
ENDBRANCH 14 15
ENDBRANCH 12 14
ENDBRANCH 9 10
BRANCH 9 17
ATOM     17  CB  PHE E  45      22.020  -8.558  19.501  1.00 43.03 LIG 0.07  C 
BRANCH 17 18
ATOM     18  CG  PHE E  45      20.600  -8.538  18.995  1.00 41.93 LIG-0.06  A 
ATOM     19  CD2 PHE E  45      20.314  -8.797  17.655  1.00 42.38 LIG 0.01  A 
ATOM     20  CE2 PHE E  45      18.995  -8.807  17.193  1.00 42.73 LIG 0.00  A 
ATOM     21  CZ  PHE E  45      17.949  -8.554  18.076  1.00 42.74 LIG 0.00  A 
ATOM     22  CE1 PHE E  45      18.222  -8.296  19.416  1.00 41.89 LIG 0.00  A 
ATOM     23  CD1 PHE E  45      19.544  -8.289  19.868  1.00 42.01 LIG 0.01  A 
ENDBRANCH 17 18
ENDBRANCH 9 17
ENDBRANCH 6 9
ENDBRANCH 1 5
BRANCH 1 24
ATOM     24  N   SER E  44      22.993 -11.677  16.129  1.00 46.50 LIG-0.34  N 
ATOM     25  C   PHE E  43      22.937 -12.792  15.434  1.00 47.40 LIG 0.24  C 
ATOM     26 O    PHE E  43      23.783 -13.673  15.552  1.00 45.80 LIG-0.27  OA
ATOM     27 H    SER E  44      22.443 -11.019  16.070  1.00 46.50 LIG 0.16  HD
BRANCH 25 28
ATOM     28  CA  PHE E  43      21.806 -12.924  14.437  1.00 47.87 LIG 0.18  C 
BRANCH 28 29
ATOM     29  N   PHE E  43      22.499 -12.421  13.286  1.00 51.92 LIG-0.35  N 
ATOM     30  C   GLY E  42      22.013 -11.625  12.352  1.00 55.92 LIG 0.24  C 
ATOM     31 O    GLY E  42      20.858 -11.180  12.302  1.00 57.26 LIG-0.27  OA
ATOM     32 H    PHE E  43      23.312 -12.701  13.254  1.00 51.92 LIG 0.16  HD
BRANCH 30 33
ATOM     33  CA  GLY E  42      23.059 -11.299  11.316  1.00 58.33 LIG 0.33  C 
BRANCH 33 34
ATOM     34  N   GLY E  42      22.835 -10.077  10.595  1.00 60.94 LIG-0.07  N 
ATOM     35 H3   GLY E  42      22.998  -9.384  11.128  1.00 60.94 LIG 0.27  HD
ATOM     36 H1   GLY E  42      23.378 -10.045   9.890  1.00 60.94 LIG 0.27  HD
ATOM     37 H2   GLY E  42      21.989 -10.046  10.319  1.00 60.94 LIG 0.27  HD
ENDBRANCH 33 34
ENDBRANCH 30 33
ENDBRANCH 28 29
BRANCH 28 38
ATOM     38  CB  PHE E  43      21.456 -14.401  14.284  1.00 42.32 LIG 0.07  C 
BRANCH 38 39
ATOM     39  CG  PHE E  43      19.972 -14.721  14.291  1.00 35.12 LIG-0.06  A 
ATOM     40  CD1 PHE E  43      19.320 -14.847  13.075  1.00 34.02 LIG 0.01  A 
ATOM     41  CE1 PHE E  43      17.963 -15.171  12.995  1.00 29.46 LIG 0.00  A 
ATOM     42  CZ  PHE E  43      17.227 -15.380  14.155  1.00 28.92 LIG 0.00  A 
ATOM     43  CE2 PHE E  43      17.859 -15.264  15.400  1.00 30.40 LIG 0.00  A 
ATOM     44  CD2 PHE E  43      19.240 -14.930  15.467  1.00 32.72 LIG 0.01  A 
ENDBRANCH 38 39
ENDBRANCH 28 38
ENDBRANCH 25 28
ENDBRANCH 1 24
TORSDOF 16
ENDMDL
MODEL 11
USER: ADFR SOLUTION from run 67
USER: SCORE 14.711502 LL:  -3.216 LR: -12.586 RR:   0.000 FEB:  -7.813
USER: RMSD 11.725011
USER: SEED 66
USER: STATUS 1 or 2 clusters left
USER: GENES 18
USER: genes 0 Translation |==|  0.32621 0.35833 0.32384
USER: genes 1 Rotation |==|  0.18698 0.65182 0.85875 0.51632
USER: genes 2 Torsion [C]-CA--CB-[OG] |==|  0.32426
USER: genes 3 Torsion [CA]-CB--OG-[HG] |==|  0.57035
USER: genes 4 Torsion [N]-CA--C-[N] |==|  0.41126
USER: genes 5 Torsion [C]-N--CA-[C] |==|  0.16252
USER: genes 6 Torsion [N]-CA--C-[N] |==|  0.14359
USER: genes 7 Torsion [C]-N--CA-[C] |==|  0.67733
USER: genes 8 Torsion [N]-CA--C-[O] |==|  0.94068
USER: genes 9 Torsion [N]-CA--CB-[CG] |==|  0.90127
USER: genes 10 Torsion [CA]-CB--CG-[CD1] |==|  0.33087
USER: genes 11 Torsion [CB]-CA--N-[C] |==|  0.47860
USER: genes 12 Torsion [N]-C--CA-[N] |==|  0.93075
USER: genes 13 Torsion [C]-CA--N-[C] |==|  0.78894
USER: genes 14 Torsion [N]-C--CA-[N] |==|  0.03552
USER: genes 15 Torsion [C]-CA--N-[H2] |==|  0.83045
USER: genes 16 Torsion [C]-CA--CB-[CG] |==|  0.23133
USER: genes 17 Torsion [CA]-CB--CG-[CD1] |==|  0.73501
ROOT
ATOM      1  CA  SER E  44      20.996 -11.680  13.185  1.00 44.79 LIG 0.20  C 
ENDROOT
BRANCH 1 2
ATOM      2  CB  SER E  44      21.621 -11.368  11.826  1.00 46.10 LIG 0.20  C 
BRANCH 2 3
ATOM      3 OG   SER E  44      20.720 -10.624  11.032  1.00 47.85 LIG-0.40  OA
ATOM      4 HG   SER E  44      20.894 -10.748  10.220  1.00 47.85 LIG 0.21  HD
ENDBRANCH 2 3
ENDBRANCH 1 2
BRANCH 1 5
ATOM      5  C   SER E  44      20.840 -13.175  13.346  1.00 42.78 LIG 0.24  C 
ATOM      6  N   PHE E  45      19.697 -13.671  12.896  1.00 43.36 LIG-0.35  N 
ATOM      7 H    PHE E  45      19.070 -13.197  12.547  1.00 43.36 LIG 0.16  HD
ATOM      8 O    SER E  44      21.709 -13.861  13.887  1.00 37.54 LIG-0.27  OA
BRANCH 6 9
ATOM      9  CA  PHE E  45      19.412 -15.095  12.959  1.00 46.68 LIG 0.18  C 
BRANCH 9 10
ATOM     10  C   PHE E  45      19.485 -15.534  14.415  1.00 48.11 LIG 0.24  C 
ATOM     11 O    PHE E  45      20.181 -16.496  14.746  1.00 49.85 LIG-0.27  OA
ATOM     12  N   GLY E  46      18.774 -14.835  15.289  1.00 50.71 LIG-0.35  N 
ATOM     13 H    GLY E  46      18.276 -14.161  15.097  1.00 50.71 LIG 0.16  HD
BRANCH 12 14
ATOM     14  CA  GLY E  46      18.814 -15.204  16.691  1.00 54.23 LIG 0.21  C 
BRANCH 14 15
ATOM     15  C   GLY E  46      17.470 -15.663  17.211  1.00 55.55 LIG 0.21  C 
ATOM     16 O    GLY E  46      16.457 -15.305  16.581  1.00 59.11 LIG-0.29  OA
ENDBRANCH 14 15
ENDBRANCH 12 14
ENDBRANCH 9 10
BRANCH 9 17
ATOM     17  CB  PHE E  45      20.417 -15.886  12.115  1.00 43.03 LIG 0.07  C 
BRANCH 17 18
ATOM     18  CG  PHE E  45      20.847 -15.175  10.858  1.00 41.93 LIG-0.06  A 
ATOM     19  CD2 PHE E  45      19.915 -14.807   9.889  1.00 42.38 LIG 0.01  A 
ATOM     20  CE2 PHE E  45      20.311 -14.122   8.736  1.00 42.73 LIG 0.00  A 
ATOM     21  CZ  PHE E  45      21.651 -13.801   8.547  1.00 42.74 LIG 0.00  A 
ATOM     22  CE1 PHE E  45      22.592 -14.162   9.507  1.00 41.89 LIG 0.00  A 
ATOM     23  CD1 PHE E  45      22.186 -14.846  10.656  1.00 42.01 LIG 0.01  A 
ENDBRANCH 17 18
ENDBRANCH 9 17
ENDBRANCH 6 9
ENDBRANCH 1 5
BRANCH 1 24
ATOM     24  N   SER E  44      21.785 -11.087  14.244  1.00 46.50 LIG-0.34  N 
ATOM     25  C   PHE E  43      21.308 -11.126  15.469  1.00 47.40 LIG 0.24  C 
ATOM     26 O    PHE E  43      20.211 -11.615  15.722  1.00 45.80 LIG-0.27  OA
ATOM     27 H    SER E  44      22.534 -10.737  14.007  1.00 46.50 LIG 0.16  HD
BRANCH 25 28
ATOM     28  CA  PHE E  43      22.150 -10.493  16.555  1.00 47.87 LIG 0.18  C 
BRANCH 28 29
ATOM     29  N   PHE E  43      23.426 -10.617  15.912  1.00 51.92 LIG-0.35  N 
ATOM     30  C   GLY E  42      24.150 -11.714  15.789  1.00 55.92 LIG 0.24  C 
ATOM     31 O    GLY E  42      23.853 -12.836  16.224  1.00 57.26 LIG-0.27  OA
ATOM     32 H    PHE E  43      23.697  -9.866  15.592  1.00 51.92 LIG 0.16  HD
BRANCH 30 33
ATOM     33  CA  GLY E  42      25.423 -11.444  15.027  1.00 58.33 LIG 0.33  C 
BRANCH 33 34
ATOM     34  N   GLY E  42      25.737 -10.055  14.846  1.00 60.94 LIG-0.07  N 
ATOM     35 H3   GLY E  42      25.813  -9.662  15.641  1.00 60.94 LIG 0.27  HD
ATOM     36 H1   GLY E  42      26.505  -9.979  14.403  1.00 60.94 LIG 0.27  HD
ATOM     37 H2   GLY E  42      25.087  -9.662  14.382  1.00 60.94 LIG 0.27  HD
ENDBRANCH 33 34
ENDBRANCH 30 33
ENDBRANCH 28 29
BRANCH 28 38
ATOM     38  CB  PHE E  43      21.736  -9.033  16.709  1.00 42.32 LIG 0.07  C 
BRANCH 38 39
ATOM     39  CG  PHE E  43      20.523  -8.791  17.589  1.00 35.12 LIG-0.06  A 
ATOM     40  CD1 PHE E  43      19.282  -8.675  16.982  1.00 34.02 LIG 0.01  A 
ATOM     41  CE1 PHE E  43      18.112  -8.484  17.723  1.00 29.46 LIG 0.00  A 
ATOM     42  CZ  PHE E  43      18.172  -8.406  19.110  1.00 28.92 LIG 0.00  A 
ATOM     43  CE2 PHE E  43      19.411  -8.523  19.753  1.00 30.40 LIG 0.00  A 
ATOM     44  CD2 PHE E  43      20.594  -8.714  18.986  1.00 32.72 LIG 0.01  A 
ENDBRANCH 38 39
ENDBRANCH 28 38
ENDBRANCH 25 28
ENDBRANCH 1 24
TORSDOF 16
ENDMDL
MODEL 12
USER: ADFR SOLUTION from run 88
USER: SCORE 13.910885 LL:  -3.027 LR: -12.490 RR:   0.000 FEB:  -7.717
USER: RMSD 9.668150
USER: SEED 87
USER: STATUS no improvement in best 16 clusters for 5 generations
USER: GENES 18
USER: genes 0 Translation |==|  0.35281 0.37407 0.34899
USER: genes 1 Rotation |==|  0.52903 0.09920 0.24386 0.65135
USER: genes 2 Torsion [C]-CA--CB-[OG] |==|  0.40273
USER: genes 3 Torsion [CA]-CB--OG-[HG] |==|  0.65831
USER: genes 4 Torsion [N]-CA--C-[N] |==|  0.20310
USER: genes 5 Torsion [C]-N--CA-[C] |==|  0.20517
USER: genes 6 Torsion [N]-CA--C-[N] |==|  0.09917
USER: genes 7 Torsion [C]-N--CA-[C] |==|  0.40567
USER: genes 8 Torsion [N]-CA--C-[O] |==|  0.94694
USER: genes 9 Torsion [N]-CA--CB-[CG] |==|  0.79672
USER: genes 10 Torsion [CA]-CB--CG-[CD1] |==|  0.64859
USER: genes 11 Torsion [CB]-CA--N-[C] |==|  0.21950
USER: genes 12 Torsion [N]-C--CA-[N] |==|  0.32820
USER: genes 13 Torsion [C]-CA--N-[C] |==|  0.71112
USER: genes 14 Torsion [N]-C--CA-[N] |==|  0.03085
USER: genes 15 Torsion [C]-CA--N-[H2] |==|  0.07604
USER: genes 16 Torsion [C]-CA--CB-[CG] |==|  0.67036
USER: genes 17 Torsion [CA]-CB--CG-[CD1] |==|  0.35813
ROOT
ATOM      1  CA  SER E  44      21.794 -11.208  13.940  1.00 44.79 LIG 0.20  C 
ENDROOT
BRANCH 1 2
ATOM      2  CB  SER E  44      20.988 -12.459  13.594  1.00 46.10 LIG 0.20  C 
BRANCH 2 3
ATOM      3 OG   SER E  44      20.068 -12.178  12.560  1.00 47.85 LIG-0.40  OA
ATOM      4 HG   SER E  44      19.290 -12.361  12.819  1.00 47.85 LIG 0.21  HD
ENDBRANCH 2 3
ENDBRANCH 1 2
BRANCH 1 5
ATOM      5  C   SER E  44      22.086 -11.180  15.423  1.00 42.78 LIG 0.24  C 
ATOM      6  N   PHE E  45      22.476 -10.006  15.896  1.00 43.36 LIG-0.35  N 
ATOM      7 H    PHE E  45      22.577  -9.301  15.412  1.00 43.36 LIG 0.16  HD
ATOM      8 O    SER E  44      21.991 -12.192  16.119  1.00 37.54 LIG-0.27  OA
BRANCH 6 9
ATOM      9  CA  PHE E  45      22.770  -9.816  17.307  1.00 46.68 LIG 0.18  C 
BRANCH 9 10
ATOM     10  C   PHE E  45      24.101 -10.487  17.613  1.00 48.11 LIG 0.24  C 
ATOM     11 O    PHE E  45      24.287 -11.049  18.694  1.00 49.85 LIG-0.27  OA
ATOM     12  N   GLY E  46      25.031 -10.435  16.668  1.00 50.71 LIG-0.35  N 
ATOM     13 H    GLY E  46      24.940 -10.051  15.904  1.00 50.71 LIG 0.16  HD
BRANCH 12 14
ATOM     14  CA  GLY E  46      26.315 -11.065  16.903  1.00 54.23 LIG 0.21  C 
BRANCH 14 15
ATOM     15  C   GLY E  46      26.916 -11.651  15.646  1.00 55.55 LIG 0.21  C 
ATOM     16 O    GLY E  46      26.149 -11.865  14.688  1.00 59.11 LIG-0.29  OA
ENDBRANCH 14 15
ENDBRANCH 12 14
ENDBRANCH 9 10
BRANCH 9 17
ATOM     17  CB  PHE E  45      21.660 -10.419  18.175  1.00 43.03 LIG 0.07  C 
BRANCH 17 18
ATOM     18  CG  PHE E  45      20.382  -9.620  18.170  1.00 41.93 LIG-0.06  A 
ATOM     19  CD2 PHE E  45      19.742  -9.301  16.973  1.00 42.38 LIG 0.01  A 
ATOM     20  CE2 PHE E  45      18.542  -8.585  16.970  1.00 42.73 LIG 0.00  A 
ATOM     21  CZ  PHE E  45      17.974  -8.180  18.174  1.00 42.74 LIG 0.00  A 
ATOM     22  CE1 PHE E  45      18.602  -8.493  19.376  1.00 41.89 LIG 0.00  A 
ATOM     23  CD1 PHE E  45      19.801  -9.210  19.368  1.00 42.01 LIG 0.01  A 
ENDBRANCH 17 18
ENDBRANCH 9 17
ENDBRANCH 6 9
ENDBRANCH 1 5
BRANCH 1 24
ATOM     24  N   SER E  44      22.997 -11.152  13.136  1.00 46.50 LIG-0.34  N 
ATOM     25  C   PHE E  43      22.894 -10.735  11.894  1.00 47.40 LIG 0.24  C 
ATOM     26 O    PHE E  43      21.812 -10.430  11.400  1.00 45.80 LIG-0.27  OA
ATOM     27 H    SER E  44      23.723 -11.400  13.525  1.00 46.50 LIG 0.16  HD
BRANCH 25 28
ATOM     28  CA  PHE E  43      24.165 -10.693  11.075  1.00 47.87 LIG 0.18  C 
BRANCH 28 29
ATOM     29  N   PHE E  43      23.779 -11.634  10.064  1.00 51.92 LIG-0.35  N 
ATOM     30  C   GLY E  42      24.179 -12.887   9.952  1.00 55.92 LIG 0.24  C 
ATOM     31 O    GLY E  42      24.974 -13.468  10.703  1.00 57.26 LIG-0.27  OA
ATOM     32 H    PHE E  43      23.229 -11.290   9.499  1.00 51.92 LIG 0.16  HD
BRANCH 30 33
ATOM     33  CA  GLY E  42      23.532 -13.563   8.769  1.00 58.33 LIG 0.33  C 
BRANCH 33 34
ATOM     34  N   GLY E  42      22.835 -12.680   7.876  1.00 60.94 LIG-0.07  N 
ATOM     35 H3   GLY E  42      22.895 -12.991   7.045  1.00 60.94 LIG 0.27  HD
ATOM     36 H1   GLY E  42      21.978 -12.632   8.115  1.00 60.94 LIG 0.27  HD
ATOM     37 H2   GLY E  42      23.199 -11.869   7.917  1.00 60.94 LIG 0.27  HD
ENDBRANCH 33 34
ENDBRANCH 30 33
ENDBRANCH 28 29
BRANCH 28 38
ATOM     38  CB  PHE E  43      24.335  -9.289  10.502  1.00 42.32 LIG 0.07  C 
BRANCH 38 39
ATOM     39  CG  PHE E  43      24.347  -9.202   8.987  1.00 35.12 LIG-0.06  A 
ATOM     40  CD1 PHE E  43      23.502  -8.291   8.373  1.00 34.02 LIG 0.01  A 
ATOM     41  CE1 PHE E  43      23.475  -8.127   6.985  1.00 29.46 LIG 0.00  A 
ATOM     42  CZ  PHE E  43      24.314  -8.887   6.178  1.00 28.92 LIG 0.00  A 
ATOM     43  CE2 PHE E  43      25.182  -9.814   6.770  1.00 30.40 LIG 0.00  A 
ATOM     44  CD2 PHE E  43      25.196  -9.973   8.183  1.00 32.72 LIG 0.01  A 
ENDBRANCH 38 39
ENDBRANCH 28 38
ENDBRANCH 25 28
ENDBRANCH 1 24
TORSDOF 16
ENDMDL
MODEL 13
USER: ADFR SOLUTION from run 38
USER: SCORE 15.072674 LL:  -3.521 LR: -12.488 RR:   0.000 FEB:  -7.715
USER: RMSD 5.433575
USER: SEED 37
USER: STATUS no improvement in best 3 clusters for 5 generations
USER: GENES 18
USER: genes 0 Translation |==|  0.45232 0.38121 0.45392
USER: genes 1 Rotation |==|  0.77587 0.44757 0.41484 0.90484
USER: genes 2 Torsion [C]-CA--CB-[OG] |==|  0.75182
USER: genes 3 Torsion [CA]-CB--OG-[HG] |==|  0.99168
USER: genes 4 Torsion [N]-CA--C-[N] |==|  0.92231
USER: genes 5 Torsion [C]-N--CA-[C] |==|  0.77460
USER: genes 6 Torsion [N]-CA--C-[N] |==|  0.37462
USER: genes 7 Torsion [C]-N--CA-[C] |==|  0.61583
USER: genes 8 Torsion [N]-CA--C-[O] |==|  0.16175
USER: genes 9 Torsion [N]-CA--CB-[CG] |==|  0.39105
USER: genes 10 Torsion [CA]-CB--CG-[CD1] |==|  0.71412
USER: genes 11 Torsion [CB]-CA--N-[C] |==|  0.23296
USER: genes 12 Torsion [N]-C--CA-[N] |==|  0.35668
USER: genes 13 Torsion [C]-CA--N-[C] |==|  0.83977
USER: genes 14 Torsion [N]-C--CA-[N] |==|  0.35251
USER: genes 15 Torsion [C]-CA--N-[H2] |==|  0.32573
USER: genes 16 Torsion [C]-CA--CB-[CG] |==|  0.25733
USER: genes 17 Torsion [CA]-CB--CG-[CD1] |==|  0.34705
ROOT
ATOM      1  CA  SER E  44      24.779 -10.994  17.088  1.00 44.79 LIG 0.20  C 
ENDROOT
BRANCH 1 2
ATOM      2  CB  SER E  44      25.698 -11.361  15.924  1.00 46.10 LIG 0.20  C 
BRANCH 2 3
ATOM      3 OG   SER E  44      25.677 -10.345  14.943  1.00 47.85 LIG-0.40  OA
ATOM      4 HG   SER E  44      25.130  -9.748  15.169  1.00 47.85 LIG 0.21  HD
ENDBRANCH 2 3
ENDBRANCH 1 2
BRANCH 1 5
ATOM      5  C   SER E  44      25.552 -10.207  18.122  1.00 42.78 LIG 0.24  C 
ATOM      6  N   PHE E  45      25.456  -8.890  18.012  1.00 43.36 LIG-0.35  N 
ATOM      7 H    PHE E  45      25.005  -8.490  17.398  1.00 43.36 LIG 0.16  HD
ATOM      8 O    SER E  44      26.240 -10.766  18.978  1.00 37.54 LIG-0.27  OA
BRANCH 6 9
ATOM      9  CA  PHE E  45      26.123  -8.000  18.948  1.00 46.68 LIG 0.18  C 
BRANCH 9 10
ATOM     10  C   PHE E  45      25.268  -7.898  20.203  1.00 48.11 LIG 0.24  C 
ATOM     11 O    PHE E  45      24.049  -7.738  20.121  1.00 49.85 LIG-0.27  OA
ATOM     12  N   GLY E  46      25.898  -7.992  21.367  1.00 50.71 LIG-0.35  N 
ATOM     13 H    GLY E  46      26.745  -8.101  21.465  1.00 50.71 LIG 0.16  HD
BRANCH 12 14
ATOM     14  CA  GLY E  46      25.131  -7.909  22.595  1.00 54.23 LIG 0.21  C 
BRANCH 14 15
ATOM     15  C   GLY E  46      25.815  -7.073  23.653  1.00 55.55 LIG 0.21  C 
ATOM     16 O    GLY E  46      26.081  -5.890  23.368  1.00 59.11 LIG-0.29  OA
ENDBRANCH 14 15
ENDBRANCH 12 14
ENDBRANCH 9 10
BRANCH 9 17
ATOM     17  CB  PHE E  45      26.321  -6.613  18.327  1.00 43.03 LIG 0.07  C 
BRANCH 17 18
ATOM     18  CG  PHE E  45      26.098  -5.478  19.292  1.00 41.93 LIG-0.06  A 
ATOM     19  CD2 PHE E  45      27.076  -5.124  20.220  1.00 42.38 LIG 0.01  A 
ATOM     20  CE2 PHE E  45      26.880  -4.053  21.096  1.00 42.73 LIG 0.00  A 
ATOM     21  CZ  PHE E  45      25.694  -3.326  21.047  1.00 42.74 LIG 0.00  A 
ATOM     22  CE1 PHE E  45      24.710  -3.667  20.123  1.00 41.89 LIG 0.00  A 
ATOM     23  CD1 PHE E  45      24.917  -4.740  19.253  1.00 42.01 LIG 0.01  A 
ENDBRANCH 17 18
ENDBRANCH 9 17
ENDBRANCH 6 9
ENDBRANCH 1 5
BRANCH 1 24
ATOM     24  N   SER E  44      23.618 -10.280  16.600  1.00 46.50 LIG-0.34  N 
ATOM     25  C   PHE E  43      22.603 -10.983  16.148  1.00 47.40 LIG 0.24  C 
ATOM     26 O    PHE E  43      22.633 -12.209  16.100  1.00 45.80 LIG-0.27  OA
ATOM     27 H    SER E  44      23.660  -9.422  16.635  1.00 46.50 LIG 0.16  HD
BRANCH 25 28
ATOM     28  CA  PHE E  43      21.406 -10.211  15.639  1.00 47.87 LIG 0.18  C 
BRANCH 28 29
ATOM     29  N   PHE E  43      21.285 -10.855  14.363  1.00 51.92 LIG-0.35  N 
ATOM     30  C   GLY E  42      22.207 -10.928  13.421  1.00 55.92 LIG 0.24  C 
ATOM     31 O    GLY E  42      23.343 -10.438  13.473  1.00 57.26 LIG-0.27  OA
ATOM     32 H    PHE E  43      20.509 -11.212  14.257  1.00 51.92 LIG 0.16  HD
BRANCH 30 33
ATOM     33  CA  GLY E  42      21.708 -11.710  12.231  1.00 58.33 LIG 0.33  C 
BRANCH 33 34
ATOM     34  N   GLY E  42      21.830 -11.035  10.970  1.00 60.94 LIG-0.07  N 
ATOM     35 H3   GLY E  42      21.030 -10.975  10.586  1.00 60.94 LIG 0.27  HD
ATOM     36 H1   GLY E  42      22.158 -10.217  11.101  1.00 60.94 LIG 0.27  HD
ATOM     37 H2   GLY E  42      22.380 -11.492  10.440  1.00 60.94 LIG 0.27  HD
ENDBRANCH 33 34
ENDBRANCH 30 33
ENDBRANCH 28 29
BRANCH 28 38
ATOM     38  CB  PHE E  43      20.209 -10.511  16.537  1.00 42.32 LIG 0.07  C 
BRANCH 38 39
ATOM     39  CG  PHE E  43      20.002  -9.545  17.689  1.00 35.12 LIG-0.06  A 
ATOM     40  CD1 PHE E  43      18.772  -8.918  17.810  1.00 34.02 LIG 0.01  A 
ATOM     41  CE1 PHE E  43      18.490  -8.040  18.860  1.00 29.46 LIG 0.00  A 
ATOM     42  CZ  PHE E  43      19.457  -7.773  19.823  1.00 28.92 LIG 0.00  A 
ATOM     43  CE2 PHE E  43      20.710  -8.394  19.730  1.00 30.40 LIG 0.00  A 
ATOM     44  CD2 PHE E  43      20.984  -9.283  18.654  1.00 32.72 LIG 0.01  A 
ENDBRANCH 38 39
ENDBRANCH 28 38
ENDBRANCH 25 28
ENDBRANCH 1 24
TORSDOF 16
ENDMDL
MODEL 14
USER: ADFR SOLUTION from run 36
USER: SCORE 14.333823 LL:  -3.188 LR: -12.446 RR:   0.000 FEB:  -7.673
USER: RMSD 8.934265
USER: SEED 35
USER: STATUS no improvement in best 7 clusters for 5 generations
USER: GENES 18
USER: genes 0 Translation |==|  0.35665 0.37294 0.36143
USER: genes 1 Rotation |==|  0.51930 0.09591 0.25755 0.66600
USER: genes 2 Torsion [C]-CA--CB-[OG] |==|  0.43272
USER: genes 3 Torsion [CA]-CB--OG-[HG] |==|  0.70672
USER: genes 4 Torsion [N]-CA--C-[N] |==|  0.22543
USER: genes 5 Torsion [C]-N--CA-[C] |==|  0.17778
USER: genes 6 Torsion [N]-CA--C-[N] |==|  0.12558
USER: genes 7 Torsion [C]-N--CA-[C] |==|  0.30752
USER: genes 8 Torsion [N]-CA--C-[O] |==|  0.16780
USER: genes 9 Torsion [N]-CA--CB-[CG] |==|  0.81979
USER: genes 10 Torsion [CA]-CB--CG-[CD1] |==|  0.64886
USER: genes 11 Torsion [CB]-CA--N-[C] |==|  0.21064
USER: genes 12 Torsion [N]-C--CA-[N] |==|  0.36135
USER: genes 13 Torsion [C]-CA--N-[C] |==|  0.75223
USER: genes 14 Torsion [N]-C--CA-[N] |==|  0.05586
USER: genes 15 Torsion [C]-CA--N-[H2] |==|  0.01815
USER: genes 16 Torsion [C]-CA--CB-[CG] |==|  0.25049
USER: genes 17 Torsion [CA]-CB--CG-[CD1] |==|  0.02018
ROOT
ATOM      1  CA  SER E  44      21.910 -11.242  14.313  1.00 44.79 LIG 0.20  C 
ENDROOT
BRANCH 1 2
ATOM      2  CB  SER E  44      21.105 -12.523  14.098  1.00 46.10 LIG 0.20  C 
BRANCH 2 3
ATOM      3 OG   SER E  44      20.295 -12.405  12.947  1.00 47.85 LIG-0.40  OA
ATOM      4 HG   SER E  44      19.495 -12.295  13.178  1.00 47.85 LIG 0.21  HD
ENDBRANCH 2 3
ENDBRANCH 1 2
BRANCH 1 5
ATOM      5  C   SER E  44      22.288 -11.112  15.771  1.00 42.78 LIG 0.24  C 
ATOM      6  N   PHE E  45      22.525  -9.875  16.181  1.00 43.36 LIG-0.35  N 
ATOM      7 H    PHE E  45      22.487  -9.183  15.671  1.00 43.36 LIG 0.16  HD
ATOM      8 O    SER E  44      22.393 -12.099  16.501  1.00 37.54 LIG-0.27  OA
BRANCH 6 9
ATOM      9  CA  PHE E  45      22.876  -9.588  17.562  1.00 46.68 LIG 0.18  C 
BRANCH 9 10
ATOM     10  C   PHE E  45      24.210 -10.255  17.865  1.00 48.11 LIG 0.24  C 
ATOM     11 O    PHE E  45      24.371 -10.891  18.909  1.00 49.85 LIG-0.27  OA
ATOM     12  N   GLY E  46      25.169 -10.119  16.959  1.00 50.71 LIG-0.35  N 
ATOM     13 H    GLY E  46      25.097  -9.682  16.222  1.00 50.71 LIG 0.16  HD
BRANCH 12 14
ATOM     14  CA  GLY E  46      26.458 -10.741  17.193  1.00 54.23 LIG 0.21  C 
BRANCH 14 15
ATOM     15  C   GLY E  46      26.726 -11.897  16.256  1.00 55.55 LIG 0.21  C 
ATOM     16 O    GLY E  46      26.748 -11.653  15.034  1.00 59.11 LIG-0.29  OA
ENDBRANCH 14 15
ENDBRANCH 12 14
ENDBRANCH 9 10
BRANCH 9 17
ATOM     17  CB  PHE E  45      21.794 -10.109  18.514  1.00 43.03 LIG 0.07  C 
BRANCH 17 18
ATOM     18  CG  PHE E  45      20.463  -9.419  18.358  1.00 41.93 LIG-0.06  A 
ATOM     19  CD2 PHE E  45      19.827  -9.364  17.118  1.00 42.38 LIG 0.01  A 
ATOM     20  CE2 PHE E  45      18.579  -8.748  16.980  1.00 42.73 LIG 0.00  A 
ATOM     21  CZ  PHE E  45      17.960  -8.180  18.089  1.00 42.74 LIG 0.00  A 
ATOM     22  CE1 PHE E  45      18.584  -8.229  19.332  1.00 41.89 LIG 0.00  A 
ATOM     23  CD1 PHE E  45      19.831  -8.847  19.460  1.00 42.01 LIG 0.01  A 
ENDBRANCH 17 18
ENDBRANCH 9 17
ENDBRANCH 6 9
ENDBRANCH 1 5
BRANCH 1 24
ATOM     24  N   SER E  44      23.062 -11.224  13.436  1.00 46.50 LIG-0.34  N 
ATOM     25  C   PHE E  43      22.869 -10.953  12.164  1.00 47.40 LIG 0.24  C 
ATOM     26 O    PHE E  43      21.747 -10.754  11.706  1.00 45.80 LIG-0.27  OA
ATOM     27 H    SER E  44      23.819 -11.395  13.805  1.00 46.50 LIG 0.16  HD
BRANCH 25 28
ATOM     28  CA  PHE E  43      24.089 -10.948  11.270  1.00 47.87 LIG 0.18  C 
BRANCH 28 29
ATOM     29  N   PHE E  43      23.577 -11.796  10.233  1.00 51.92 LIG-0.35  N 
ATOM     30  C   GLY E  42      23.655 -13.112  10.172  1.00 55.92 LIG 0.24  C 
ATOM     31 O    GLY E  42      24.201 -13.849  11.005  1.00 57.26 LIG-0.27  OA
ATOM     32 H    PHE E  43      23.188 -11.343   9.612  1.00 51.92 LIG 0.16  HD
BRANCH 30 33
ATOM     33  CA  GLY E  42      22.974 -13.642   8.935  1.00 58.33 LIG 0.33  C 
BRANCH 33 34
ATOM     34  N   GLY E  42      22.796 -12.680   7.884  1.00 60.94 LIG-0.07  N 
ATOM     35 H3   GLY E  42      23.139 -12.999   7.128  1.00 60.94 LIG 0.27  HD
ATOM     36 H1   GLY E  42      21.927 -12.521   7.772  1.00 60.94 LIG 0.27  HD
ATOM     37 H2   GLY E  42      23.210 -11.923   8.102  1.00 60.94 LIG 0.27  HD
ENDBRANCH 33 34
ENDBRANCH 30 33
ENDBRANCH 28 29
BRANCH 28 38
ATOM     38  CB  PHE E  43      24.326  -9.526  10.770  1.00 42.32 LIG 0.07  C 
BRANCH 38 39
ATOM     39  CG  PHE E  43      25.227  -8.672  11.644  1.00 35.12 LIG-0.06  A 
ATOM     40  CD1 PHE E  43      25.873  -9.275  12.712  1.00 34.02 LIG 0.01  A 
ATOM     41  CE1 PHE E  43      26.744  -8.566  13.544  1.00 29.46 LIG 0.00  A 
ATOM     42  CZ  PHE E  43      26.985  -7.217  13.311  1.00 28.92 LIG 0.00  A 
ATOM     43  CE2 PHE E  43      26.350  -6.580  12.237  1.00 30.40 LIG 0.00  A 
ATOM     44  CD2 PHE E  43      25.463  -7.313  11.400  1.00 32.72 LIG 0.01  A 
ENDBRANCH 38 39
ENDBRANCH 28 38
ENDBRANCH 25 28
ENDBRANCH 1 24
TORSDOF 16
ENDMDL
MODEL 15
USER: ADFR SOLUTION from run 88
USER: SCORE 14.578076 LL:  -3.075 LR: -12.437 RR:   0.000 FEB:  -7.664
USER: RMSD 11.816775
USER: SEED 87
USER: STATUS no improvement in best 16 clusters for 5 generations
USER: GENES 18
USER: genes 0 Translation |==|  0.33378 0.36242 0.28659
USER: genes 1 Rotation |==|  0.50379 0.20720 0.11894 0.63800
USER: genes 2 Torsion [C]-CA--CB-[OG] |==|  0.05848
USER: genes 3 Torsion [CA]-CB--OG-[HG] |==|  0.21144
USER: genes 4 Torsion [N]-CA--C-[N] |==|  0.43309
USER: genes 5 Torsion [C]-N--CA-[C] |==|  0.76667
USER: genes 6 Torsion [N]-CA--C-[N] |==|  0.89309
USER: genes 7 Torsion [C]-N--CA-[C] |==|  0.30589
USER: genes 8 Torsion [N]-CA--C-[O] |==|  0.04631
USER: genes 9 Torsion [N]-CA--CB-[CG] |==|  0.86637
USER: genes 10 Torsion [CA]-CB--CG-[CD1] |==|  0.28828
USER: genes 11 Torsion [CB]-CA--N-[C] |==|  0.50062
USER: genes 12 Torsion [N]-C--CA-[N] |==|  0.95734
USER: genes 13 Torsion [C]-CA--N-[C] |==|  0.70616
USER: genes 14 Torsion [N]-C--CA-[N] |==|  0.07818
USER: genes 15 Torsion [C]-CA--N-[H2] |==|  0.66630
USER: genes 16 Torsion [C]-CA--CB-[CG] |==|  0.65846
USER: genes 17 Torsion [CA]-CB--CG-[CD1] |==|  0.83867
ROOT
ATOM      1  CA  SER E  44      21.223 -11.558  12.068  1.00 44.79 LIG 0.20  C 
ENDROOT
BRANCH 1 2
ATOM      2  CB  SER E  44      20.080 -12.214  11.295  1.00 46.10 LIG 0.20  C 
BRANCH 2 3
ATOM      3 OG   SER E  44      19.430 -13.172  12.104  1.00 47.85 LIG-0.40  OA
ATOM      4 HG   SER E  44      18.937 -12.782  12.661  1.00 47.85 LIG 0.21  HD
ENDBRANCH 2 3
ENDBRANCH 1 2
BRANCH 1 5
ATOM      5  C   SER E  44      21.643 -12.447  13.216  1.00 42.78 LIG 0.24  C 
ATOM      6  N   PHE E  45      20.883 -12.363  14.297  1.00 43.36 LIG-0.35  N 
ATOM      7 H    PHE E  45      20.204 -11.839  14.370  1.00 43.36 LIG 0.16  HD
ATOM      8 O    SER E  44      22.640 -13.167  13.144  1.00 37.54 LIG-0.27  OA
BRANCH 6 9
ATOM      9  CA  PHE E  45      21.146 -13.174  15.474  1.00 46.68 LIG 0.18  C 
BRANCH 9 10
ATOM     10  C   PHE E  45      20.498 -14.537  15.272  1.00 48.11 LIG 0.24  C 
ATOM     11 O    PHE E  45      21.060 -15.563  15.657  1.00 49.85 LIG-0.27  OA
ATOM     12  N   GLY E  46      19.315 -14.555  14.671  1.00 50.71 LIG-0.35  N 
ATOM     13 H    GLY E  46      18.893 -13.862  14.387  1.00 50.71 LIG 0.16  HD
BRANCH 12 14
ATOM     14  CA  GLY E  46      18.648 -15.825  14.460  1.00 54.23 LIG 0.21  C 
BRANCH 14 15
ATOM     15  C   GLY E  46      17.421 -15.990  15.329  1.00 55.55 LIG 0.21  C 
ATOM     16 O    GLY E  46      16.945 -14.965  15.853  1.00 59.11 LIG-0.29  OA
ENDBRANCH 14 15
ENDBRANCH 12 14
ENDBRANCH 9 10
BRANCH 9 17
ATOM     17  CB  PHE E  45      20.585 -12.502  16.731  1.00 43.03 LIG 0.07  C 
BRANCH 17 18
ATOM     18  CG  PHE E  45      20.949 -11.044  16.855  1.00 41.93 LIG-0.06  A 
ATOM     19  CD2 PHE E  45      22.237 -10.658  17.224  1.00 42.38 LIG 0.01  A 
ATOM     20  CE2 PHE E  45      22.582  -9.306  17.311  1.00 42.73 LIG 0.00  A 
ATOM     21  CZ  PHE E  45      21.633  -8.328  17.027  1.00 42.74 LIG 0.00  A 
ATOM     22  CE1 PHE E  45      20.345  -8.701  16.656  1.00 41.89 LIG 0.00  A 
ATOM     23  CD1 PHE E  45      20.010 -10.055  16.572  1.00 42.01 LIG 0.01  A 
ENDBRANCH 17 18
ENDBRANCH 9 17
ENDBRANCH 6 9
ENDBRANCH 1 5
BRANCH 1 24
ATOM     24  N   SER E  44      22.319 -11.252  11.172  1.00 46.50 LIG-0.34  N 
ATOM     25  C   PHE E  43      23.393 -10.685  11.677  1.00 47.40 LIG 0.24  C 
ATOM     26 O    PHE E  43      23.468 -10.382  12.865  1.00 45.80 LIG-0.27  OA
ATOM     27 H    SER E  44      22.203 -11.464  10.347  1.00 46.50 LIG 0.16  HD
BRANCH 25 28
ATOM     28  CA  PHE E  43      24.519 -10.371  10.718  1.00 47.87 LIG 0.18  C 
BRANCH 28 29
ATOM     29  N   PHE E  43      24.080 -11.188   9.625  1.00 51.92 LIG-0.35  N 
ATOM     30  C   GLY E  42      24.598 -12.339   9.236  1.00 55.92 LIG 0.24  C 
ATOM     31 O    GLY E  42      25.570 -12.911   9.748  1.00 57.26 LIG-0.27  OA
ATOM     32 H    PHE E  43      23.407 -10.842   9.216  1.00 51.92 LIG 0.16  HD
BRANCH 30 33
ATOM     33  CA  GLY E  42      23.843 -12.907   8.060  1.00 58.33 LIG 0.33  C 
BRANCH 33 34
ATOM     34  N   GLY E  42      23.210 -11.930   7.220  1.00 60.94 LIG-0.07  N 
ATOM     35 H3   GLY E  42      23.368 -11.115   7.540  1.00 60.94 LIG 0.27  HD
ATOM     36 H1   GLY E  42      23.536 -11.993   6.393  1.00 60.94 LIG 0.27  HD
ATOM     37 H2   GLY E  42      22.332 -12.077   7.204  1.00 60.94 LIG 0.27  HD
ENDBRANCH 33 34
ENDBRANCH 30 33
ENDBRANCH 28 29
BRANCH 28 38
ATOM     38  CB  PHE E  43      24.468  -8.887  10.368  1.00 42.32 LIG 0.07  C 
BRANCH 38 39
ATOM     39  CG  PHE E  43      24.350  -8.571   8.888  1.00 35.12 LIG-0.06  A 
ATOM     40  CD1 PHE E  43      25.331  -9.048   8.033  1.00 34.02 LIG 0.01  A 
ATOM     41  CE1 PHE E  43      25.278  -8.829   6.654  1.00 29.46 LIG 0.00  A 
ATOM     42  CZ  PHE E  43      24.220  -8.116   6.102  1.00 28.92 LIG 0.00  A 
ATOM     43  CE2 PHE E  43      23.211  -7.625   6.940  1.00 30.40 LIG 0.00  A 
ATOM     44  CD2 PHE E  43      23.278  -7.852   8.343  1.00 32.72 LIG 0.01  A 
ENDBRANCH 38 39
ENDBRANCH 28 38
ENDBRANCH 25 28
ENDBRANCH 1 24
TORSDOF 16
ENDMDL
MODEL 16
USER: ADFR SOLUTION from run 78
USER: SCORE 15.038769 LL:  -3.241 LR: -12.411 RR:   0.000 FEB:  -7.639
USER: RMSD 8.370791
USER: SEED 77
USER: STATUS no improvement in best 4 clusters for 5 generations
USER: GENES 18
USER: genes 0 Translation |==|  0.47233 0.47965 0.52563
USER: genes 1 Rotation |==|  0.75085 0.32603 0.88565 0.58993
USER: genes 2 Torsion [C]-CA--CB-[OG] |==|  0.80706
USER: genes 3 Torsion [CA]-CB--OG-[HG] |==|  0.11301
USER: genes 4 Torsion [N]-CA--C-[N] |==|  0.08926
USER: genes 5 Torsion [C]-N--CA-[C] |==|  0.56280
USER: genes 6 Torsion [N]-CA--C-[N] |==|  0.47778
USER: genes 7 Torsion [C]-N--CA-[C] |==|  0.68989
USER: genes 8 Torsion [N]-CA--C-[O] |==|  0.24974
USER: genes 9 Torsion [N]-CA--CB-[CG] |==|  0.66775
USER: genes 10 Torsion [CA]-CB--CG-[CD1] |==|  0.64629
USER: genes 11 Torsion [CB]-CA--N-[C] |==|  0.16539
USER: genes 12 Torsion [N]-C--CA-[N] |==|  0.87207
USER: genes 13 Torsion [C]-CA--N-[C] |==|  0.69788
USER: genes 14 Torsion [N]-C--CA-[N] |==|  0.85122
USER: genes 15 Torsion [C]-CA--N-[H2] |==|  0.69281
USER: genes 16 Torsion [C]-CA--CB-[CG] |==|  0.09654
USER: genes 17 Torsion [CA]-CB--CG-[CD1] |==|  0.13904
ROOT
ATOM      1  CA  SER E  44      25.380  -8.041  19.239  1.00 44.79 LIG 0.20  C 
ENDROOT
BRANCH 1 2
ATOM      2  CB  SER E  44      25.319  -7.063  20.411  1.00 46.10 LIG 0.20  C 
BRANCH 2 3
ATOM      3 OG   SER E  44      24.628  -5.889  20.034  1.00 47.85 LIG-0.40  OA
ATOM      4 HG   SER E  44      23.963  -6.094  19.563  1.00 47.85 LIG 0.21  HD
ENDBRANCH 2 3
ENDBRANCH 1 2
BRANCH 1 5
ATOM      5  C   SER E  44      24.000  -8.593  18.959  1.00 42.78 LIG 0.24  C 
ATOM      6  N   PHE E  45      23.807  -9.018  17.720  1.00 43.36 LIG-0.35  N 
ATOM      7 H    PHE E  45      24.402  -8.979  17.099  1.00 43.36 LIG 0.16  HD
ATOM      8 O    SER E  44      23.124  -8.611  19.825  1.00 37.54 LIG-0.27  OA
BRANCH 6 9
ATOM      9  CA  PHE E  45      22.540  -9.597  17.306  1.00 46.68 LIG 0.18  C 
BRANCH 9 10
ATOM     10  C   PHE E  45      22.789 -10.469  16.083  1.00 48.11 LIG 0.24  C 
ATOM     11 O    PHE E  45      23.889 -10.472  15.528  1.00 49.85 LIG-0.27  OA
ATOM     12  N   GLY E  46      21.774 -11.212  15.659  1.00 50.71 LIG-0.35  N 
ATOM     13 H    GLY E  46      20.993 -11.235  16.017  1.00 50.71 LIG 0.16  HD
BRANCH 12 14
ATOM     14  CA  GLY E  46      21.958 -12.067  14.503  1.00 54.23 LIG 0.21  C 
BRANCH 14 15
ATOM     15  C   GLY E  46      21.161 -11.606  13.304  1.00 55.55 LIG 0.21  C 
ATOM     16 O    GLY E  46      21.709 -10.805  12.523  1.00 59.11 LIG-0.29  OA
ENDBRANCH 14 15
ENDBRANCH 12 14
ENDBRANCH 9 10
BRANCH 9 17
ATOM     17  CB  PHE E  45      21.525  -8.498  16.976  1.00 43.03 LIG 0.07  C 
BRANCH 17 18
ATOM     18  CG  PHE E  45      20.286  -8.538  17.833  1.00 41.93 LIG-0.06  A 
ATOM     19  CD2 PHE E  45      20.378  -8.529  19.225  1.00 42.38 LIG 0.01  A 
ATOM     20  CE2 PHE E  45      19.227  -8.536  20.019  1.00 42.73 LIG 0.00  A 
ATOM     21  CZ  PHE E  45      17.971  -8.555  19.420  1.00 42.74 LIG 0.00  A 
ATOM     22  CE1 PHE E  45      17.866  -8.563  18.032  1.00 41.89 LIG 0.00  A 
ATOM     23  CD1 PHE E  45      19.022  -8.555  17.247  1.00 42.01 LIG 0.01  A 
ENDBRANCH 17 18
ENDBRANCH 9 17
ENDBRANCH 6 9
ENDBRANCH 1 5
BRANCH 1 24
ATOM     24  N   SER E  44      25.965  -7.396  18.082  1.00 46.50 LIG-0.34  N 
ATOM     25  C   PHE E  43      27.186  -6.919  18.189  1.00 47.40 LIG 0.24  C 
ATOM     26 O    PHE E  43      27.815  -6.977  19.242  1.00 45.80 LIG-0.27  OA
ATOM     27 H    SER E  44      25.472  -7.362  17.379  1.00 46.50 LIG 0.16  HD
BRANCH 25 28
ATOM     28  CA  PHE E  43      27.770  -6.245  16.967  1.00 47.87 LIG 0.18  C 
BRANCH 28 29
ATOM     29  N   PHE E  43      27.390  -7.232  15.998  1.00 51.92 LIG-0.35  N 
ATOM     30  C   GLY E  42      28.189  -8.072  15.366  1.00 55.92 LIG 0.24  C 
ATOM     31 O    GLY E  42      29.419  -8.144  15.494  1.00 57.26 LIG-0.27  OA
ATOM     32 H    PHE E  43      26.542  -7.230  15.854  1.00 51.92 LIG 0.16  HD
BRANCH 30 33
ATOM     33  CA  GLY E  42      27.410  -8.973  14.440  1.00 58.33 LIG 0.33  C 
BRANCH 33 34
ATOM     34  N   GLY E  42      26.324  -9.680  15.057  1.00 60.94 LIG-0.07  N 
ATOM     35 H3   GLY E  42      26.195  -9.367  15.881  1.00 60.94 LIG 0.27  HD
ATOM     36 H1   GLY E  42      25.583  -9.565  14.577  1.00 60.94 LIG 0.27  HD
ATOM     37 H2   GLY E  42      26.520 -10.547  15.097  1.00 60.94 LIG 0.27  HD
ENDBRANCH 33 34
ENDBRANCH 30 33
ENDBRANCH 28 29
BRANCH 28 38
ATOM     38  CB  PHE E  43      27.042  -4.924  16.740  1.00 42.32 LIG 0.07  C 
BRANCH 38 39
ATOM     39  CG  PHE E  43      26.613  -4.193  17.999  1.00 35.12 LIG-0.06  A 
ATOM     40  CD1 PHE E  43      27.553  -3.995  18.999  1.00 34.02 LIG 0.01  A 
ATOM     41  CE1 PHE E  43      27.246  -3.305  20.175  1.00 29.46 LIG 0.00  A 
ATOM     42  CZ  PHE E  43      25.969  -2.791  20.368  1.00 28.92 LIG 0.00  A 
ATOM     43  CE2 PHE E  43      24.998  -2.971  19.374  1.00 30.40 LIG 0.00  A 
ATOM     44  CD2 PHE E  43      25.323  -3.679  18.184  1.00 32.72 LIG 0.01  A 
ENDBRANCH 38 39
ENDBRANCH 28 38
ENDBRANCH 25 28
ENDBRANCH 1 24
TORSDOF 16
ENDMDL
MODEL 17
USER: ADFR SOLUTION from run 125
USER: SCORE 13.141954 LL:  -2.660 LR: -12.412 RR:   0.000 FEB:  -7.639
USER: RMSD 9.412019
USER: SEED 124
USER: STATUS no improvement in best 15 clusters for 5 generations
USER: GENES 18
USER: genes 0 Translation |==|  0.35856 0.34138 0.31120
USER: genes 1 Rotation |==|  0.50288 0.80358 0.30935 0.84855
USER: genes 2 Torsion [C]-CA--CB-[OG] |==|  0.64032
USER: genes 3 Torsion [CA]-CB--OG-[HG] |==|  0.22944
USER: genes 4 Torsion [N]-CA--C-[N] |==|  0.33482
USER: genes 5 Torsion [C]-N--CA-[C] |==|  0.64257
USER: genes 6 Torsion [N]-CA--C-[N] |==|  0.32389
USER: genes 7 Torsion [C]-N--CA-[C] |==|  0.49107
USER: genes 8 Torsion [N]-CA--C-[O] |==|  0.32374
USER: genes 9 Torsion [N]-CA--CB-[CG] |==|  0.55989
USER: genes 10 Torsion [CA]-CB--CG-[CD1] |==|  0.49894
USER: genes 11 Torsion [CB]-CA--N-[C] |==|  0.24136
USER: genes 12 Torsion [N]-C--CA-[N] |==|  0.66930
USER: genes 13 Torsion [C]-CA--N-[C] |==|  0.15114
USER: genes 14 Torsion [N]-C--CA-[N] |==|  0.50723
USER: genes 15 Torsion [C]-CA--N-[H2] |==|  0.59606
USER: genes 16 Torsion [C]-CA--CB-[CG] |==|  0.49342
USER: genes 17 Torsion [CA]-CB--CG-[CD1] |==|  0.59454
ROOT
ATOM      1  CA  SER E  44      21.967 -12.189  12.806  1.00 44.79 LIG 0.20  C 
ENDROOT
BRANCH 1 2
ATOM      2  CB  SER E  44      20.996 -13.259  12.311  1.00 46.10 LIG 0.20  C 
BRANCH 2 3
ATOM      3 OG   SER E  44      19.952 -13.443  13.245  1.00 47.85 LIG-0.40  OA
ATOM      4 HG   SER E  44      19.363 -12.856  13.126  1.00 47.85 LIG 0.21  HD
ENDBRANCH 2 3
ENDBRANCH 1 2
BRANCH 1 5
ATOM      5  C   SER E  44      22.202 -11.166  11.717  1.00 42.78 LIG 0.24  C 
ATOM      6  N   PHE E  45      23.446 -11.101  11.268  1.00 43.36 LIG-0.35  N 
ATOM      7 H    PHE E  45      24.093 -11.583  11.568  1.00 43.36 LIG 0.16  HD
ATOM      8 O    SER E  44      21.296 -10.437  11.310  1.00 37.54 LIG-0.27  OA
BRANCH 6 9
ATOM      9  CA  PHE E  45      23.821 -10.183  10.205  1.00 46.68 LIG 0.18  C 
BRANCH 9 10
ATOM     10  C   PHE E  45      24.562 -10.970   9.133  1.00 48.11 LIG 0.24  C 
ATOM     11 O    PHE E  45      25.635 -11.519   9.387  1.00 49.85 LIG-0.27  OA
ATOM     12  N   GLY E  46      23.996 -11.032   7.935  1.00 50.71 LIG-0.35  N 
ATOM     13 H    GLY E  46      23.251 -10.660   7.719  1.00 50.71 LIG 0.16  HD
BRANCH 12 14
ATOM     14  CA  GLY E  46      24.654 -11.775   6.878  1.00 54.23 LIG 0.21  C 
BRANCH 14 15
ATOM     15  C   GLY E  46      23.845 -11.813   5.601  1.00 55.55 LIG 0.21  C 
ATOM     16 O    GLY E  46      24.335 -11.268   4.594  1.00 59.11 LIG-0.29  OA
ENDBRANCH 14 15
ENDBRANCH 12 14
ENDBRANCH 9 10
BRANCH 9 17
ATOM     17  CB  PHE E  45      24.711  -9.060  10.749  1.00 43.03 LIG 0.07  C 
BRANCH 17 18
ATOM     18  CG  PHE E  45      24.725  -7.824   9.886  1.00 41.93 LIG-0.06  A 
ATOM     19  CD2 PHE E  45      23.960  -7.756   8.722  1.00 42.38 LIG 0.01  A 
ATOM     20  CE2 PHE E  45      23.951  -6.598   7.938  1.00 42.73 LIG 0.00  A 
ATOM     21  CZ  PHE E  45      24.714  -5.498   8.317  1.00 42.74 LIG 0.00  A 
ATOM     22  CE1 PHE E  45      25.480  -5.554   9.478  1.00 41.89 LIG 0.00  A 
ATOM     23  CD1 PHE E  45      25.482  -6.715  10.255  1.00 42.01 LIG 0.01  A 
ENDBRANCH 17 18
ENDBRANCH 9 17
ENDBRANCH 6 9
ENDBRANCH 1 5
BRANCH 1 24
ATOM     24  N   SER E  44      21.471 -11.593  14.029  1.00 46.50 LIG-0.34  N 
ATOM     25  C   PHE E  43      21.774 -12.174  15.169  1.00 47.40 LIG 0.24  C 
ATOM     26 O    PHE E  43      22.428 -13.213  15.214  1.00 45.80 LIG-0.27  OA
ATOM     27 H    SER E  44      20.999 -10.881  13.938  1.00 46.50 LIG 0.16  HD
BRANCH 25 28
ATOM     28  CA  PHE E  43      21.237 -11.535  16.430  1.00 47.87 LIG 0.18  C 
BRANCH 28 29
ATOM     29  N   PHE E  43      22.495 -11.246  17.055  1.00 51.92 LIG-0.35  N 
ATOM     30  C   GLY E  42      23.500 -10.563  16.538  1.00 55.92 LIG 0.24  C 
ATOM     31 O    GLY E  42      23.534 -10.060  15.407  1.00 57.26 LIG-0.27  OA
ATOM     32 H    PHE E  43      22.543 -11.577  17.848  1.00 51.92 LIG 0.16  HD
BRANCH 30 33
ATOM     33  CA  GLY E  42      24.644 -10.453  17.515  1.00 58.33 LIG 0.33  C 
BRANCH 33 34
ATOM     34  N   GLY E  42      25.759  -9.675  17.055  1.00 60.94 LIG-0.07  N 
ATOM     35 H3   GLY E  42      25.778  -9.680  16.165  1.00 60.94 LIG 0.27  HD
ATOM     36 H1   GLY E  42      25.676  -8.837  17.345  1.00 60.94 LIG 0.27  HD
ATOM     37 H2   GLY E  42      26.515 -10.024  17.369  1.00 60.94 LIG 0.27  HD
ENDBRANCH 33 34
ENDBRANCH 30 33
ENDBRANCH 28 29
BRANCH 28 38
ATOM     38  CB  PHE E  43      20.489 -10.259  16.054  1.00 42.32 LIG 0.07  C 
BRANCH 38 39
ATOM     39  CG  PHE E  43      19.837  -9.523  17.210  1.00 35.12 LIG-0.06  A 
ATOM     40  CD1 PHE E  43      18.640  -8.863  16.981  1.00 34.02 LIG 0.01  A 
ATOM     41  CE1 PHE E  43      17.960  -8.190  17.999  1.00 29.46 LIG 0.00  A 
ATOM     42  CZ  PHE E  43      18.480  -8.169  19.288  1.00 28.92 LIG 0.00  A 
ATOM     43  CE2 PHE E  43      19.687  -8.830  19.553  1.00 30.40 LIG 0.00  A 
ATOM     44  CD2 PHE E  43      20.370  -9.509  18.506  1.00 32.72 LIG 0.01  A 
ENDBRANCH 38 39
ENDBRANCH 28 38
ENDBRANCH 25 28
ENDBRANCH 1 24
TORSDOF 16
ENDMDL
MODEL 18
USER: ADFR SOLUTION from run 22
USER: SCORE 13.074769 LL:  -2.819 LR: -12.402 RR:   0.000 FEB:  -7.629
USER: RMSD 8.835833
USER: SEED 21
USER: STATUS no improvement in best 18 clusters for 5 generations
USER: GENES 18
USER: genes 0 Translation |==|  0.47169 0.40663 0.46573
USER: genes 1 Rotation |==|  0.15552 0.85080 0.46486 0.58387
USER: genes 2 Torsion [C]-CA--CB-[OG] |==|  0.22175
USER: genes 3 Torsion [CA]-CB--OG-[HG] |==|  0.03383
USER: genes 4 Torsion [N]-CA--C-[N] |==|  0.24667
USER: genes 5 Torsion [C]-N--CA-[C] |==|  0.69049
USER: genes 6 Torsion [N]-CA--C-[N] |==|  0.94447
USER: genes 7 Torsion [C]-N--CA-[C] |==|  0.18089
USER: genes 8 Torsion [N]-CA--C-[O] |==|  0.18708
USER: genes 9 Torsion [N]-CA--CB-[CG] |==|  0.69620
USER: genes 10 Torsion [CA]-CB--CG-[CD1] |==|  0.63705
USER: genes 11 Torsion [CB]-CA--N-[C] |==|  0.23680
USER: genes 12 Torsion [N]-C--CA-[N] |==|  0.59009
USER: genes 13 Torsion [C]-CA--N-[C] |==|  0.62354
USER: genes 14 Torsion [N]-C--CA-[N] |==|  0.45767
USER: genes 15 Torsion [C]-CA--N-[H2] |==|  0.52052
USER: genes 16 Torsion [C]-CA--CB-[CG] |==|  0.54012
USER: genes 17 Torsion [CA]-CB--CG-[CD1] |==|  0.21270
ROOT
ATOM      1  CA  SER E  44      25.361 -10.231  17.442  1.00 44.79 LIG 0.20  C 
ENDROOT
BRANCH 1 2
ATOM      2  CB  SER E  44      26.216 -11.333  18.064  1.00 46.10 LIG 0.20  C 
BRANCH 2 3
ATOM      3 OG   SER E  44      26.425 -12.376  17.134  1.00 47.85 LIG-0.40  OA
ATOM      4 HG   SER E  44      26.185 -12.122  16.370  1.00 47.85 LIG 0.21  HD
ENDBRANCH 2 3
ENDBRANCH 1 2
BRANCH 1 5
ATOM      5  C   SER E  44      23.903 -10.632  17.477  1.00 42.78 LIG 0.24  C 
ATOM      6  N   PHE E  45      23.172 -10.175  16.471  1.00 43.36 LIG-0.35  N 
ATOM      7 H    PHE E  45      23.477  -9.675  15.842  1.00 43.36 LIG 0.16  HD
ATOM      8 O    SER E  44      23.442 -11.309  18.397  1.00 37.54 LIG-0.27  OA
BRANCH 6 9
ATOM      9  CA  PHE E  45      21.759 -10.497  16.354  1.00 46.68 LIG 0.18  C 
BRANCH 9 10
ATOM     10  C   PHE E  45      21.574 -11.411  15.152  1.00 48.11 LIG 0.24  C 
ATOM     11 O    PHE E  45      20.564 -12.109  15.044  1.00 49.85 LIG-0.27  OA
ATOM     12  N   GLY E  46      22.540 -11.411  14.243  1.00 50.71 LIG-0.35  N 
ATOM     13 H    GLY E  46      23.259 -10.941  14.284  1.00 50.71 LIG 0.16  HD
BRANCH 12 14
ATOM     14  CA  GLY E  46      22.412 -12.257  13.073  1.00 54.23 LIG 0.21  C 
BRANCH 14 15
ATOM     15  C   GLY E  46      21.261 -11.847  12.181  1.00 55.55 LIG 0.21  C 
ATOM     16 O    GLY E  46      21.351 -10.753  11.592  1.00 59.11 LIG-0.29  OA
ENDBRANCH 14 15
ENDBRANCH 12 14
ENDBRANCH 9 10
BRANCH 9 17
ATOM     17  CB  PHE E  45      20.927  -9.221  16.184  1.00 43.03 LIG 0.07  C 
BRANCH 17 18
ATOM     18  CG  PHE E  45      20.088  -8.877  17.388  1.00 41.93 LIG-0.06  A 
ATOM     19  CD2 PHE E  45      20.653  -8.824  18.662  1.00 42.38 LIG 0.01  A 
ATOM     20  CE2 PHE E  45      19.881  -8.477  19.774  1.00 42.73 LIG 0.00  A 
ATOM     21  CZ  PHE E  45      18.530  -8.181  19.616  1.00 42.74 LIG 0.00  A 
ATOM     22  CE1 PHE E  45      17.955  -8.229  18.349  1.00 41.89 LIG 0.00  A 
ATOM     23  CD1 PHE E  45      18.736  -8.577  17.244  1.00 42.01 LIG 0.01  A 
ENDBRANCH 17 18
ENDBRANCH 9 17
ENDBRANCH 6 9
ENDBRANCH 1 5
BRANCH 1 24
ATOM     24  N   SER E  44      25.606  -8.971  18.112  1.00 46.50 LIG-0.34  N 
ATOM     25  C   PHE E  43      26.622  -8.241  17.706  1.00 47.40 LIG 0.24  C 
ATOM     26 O    PHE E  43      27.374  -8.616  16.810  1.00 45.80 LIG-0.27  OA
ATOM     27 H    SER E  44      25.064  -8.770  18.747  1.00 46.50 LIG 0.16  HD
BRANCH 25 28
ATOM     28  CA  PHE E  43      26.859  -6.933  18.428  1.00 47.87 LIG 0.18  C 
BRANCH 28 29
ATOM     29  N   PHE E  43      27.379  -6.188  17.318  1.00 51.92 LIG-0.35  N 
ATOM     30  C   GLY E  42      28.432  -5.392  17.321  1.00 55.92 LIG 0.24  C 
ATOM     31 O    GLY E  42      29.154  -5.140  18.296  1.00 57.26 LIG-0.27  OA
ATOM     32 H    PHE E  43      26.915  -6.312  16.604  1.00 51.92 LIG 0.16  HD
BRANCH 30 33
ATOM     33  CA  GLY E  42      28.675  -4.805  15.953  1.00 58.33 LIG 0.33  C 
BRANCH 33 34
ATOM     34  N   GLY E  42      29.568  -3.681  15.927  1.00 60.94 LIG-0.07  N 
ATOM     35 H3   GLY E  42      29.293  -3.069  16.512  1.00 60.94 LIG 0.27  HD
ATOM     36 H1   GLY E  42      30.389  -3.950  16.142  1.00 60.94 LIG 0.27  HD
ATOM     37 H2   GLY E  42      29.577  -3.328  15.110  1.00 60.94 LIG 0.27  HD
ENDBRANCH 33 34
ENDBRANCH 30 33
ENDBRANCH 28 29
BRANCH 28 38
ATOM     38  CB  PHE E  43      25.517  -6.381  18.898  1.00 42.32 LIG 0.07  C 
BRANCH 38 39
ATOM     39  CG  PHE E  43      25.529  -4.927  19.333  1.00 35.12 LIG-0.06  A 
ATOM     40  CD1 PHE E  43      25.559  -3.946  18.354  1.00 34.02 LIG 0.01  A 
ATOM     41  CE1 PHE E  43      25.539  -2.586  18.671  1.00 29.46 LIG 0.00  A 
ATOM     42  CZ  PHE E  43      25.487  -2.180  20.000  1.00 28.92 LIG 0.00  A 
ATOM     43  CE2 PHE E  43      25.451  -3.148  21.012  1.00 30.40 LIG 0.00  A 
ATOM     44  CD2 PHE E  43      25.475  -4.530  20.676  1.00 32.72 LIG 0.01  A 
ENDBRANCH 38 39
ENDBRANCH 28 38
ENDBRANCH 25 28
ENDBRANCH 1 24
TORSDOF 16
ENDMDL
MODEL 19
USER: ADFR SOLUTION from run 36
USER: SCORE 13.900557 LL:  -2.804 LR: -12.384 RR:   0.000 FEB:  -7.611
USER: RMSD 9.623473
USER: SEED 35
USER: STATUS no improvement in best 7 clusters for 5 generations
USER: GENES 18
USER: genes 0 Translation |==|  0.34656 0.37477 0.34876
USER: genes 1 Rotation |==|  0.53715 0.07736 0.29244 0.66405
USER: genes 2 Torsion [C]-CA--CB-[OG] |==|  0.41100
USER: genes 3 Torsion [CA]-CB--OG-[HG] |==|  0.63254
USER: genes 4 Torsion [N]-CA--C-[N] |==|  0.34290
USER: genes 5 Torsion [C]-N--CA-[C] |==|  0.61111
USER: genes 6 Torsion [N]-CA--C-[N] |==|  0.41591
USER: genes 7 Torsion [C]-N--CA-[C] |==|  0.57172
USER: genes 8 Torsion [N]-CA--C-[O] |==|  0.10425
USER: genes 9 Torsion [N]-CA--CB-[CG] |==|  0.60009
USER: genes 10 Torsion [CA]-CB--CG-[CD1] |==|  0.99590
USER: genes 11 Torsion [CB]-CA--N-[C] |==|  0.24592
USER: genes 12 Torsion [N]-C--CA-[N] |==|  0.34250
USER: genes 13 Torsion [C]-CA--N-[C] |==|  0.77893
USER: genes 14 Torsion [N]-C--CA-[N] |==|  0.01439
USER: genes 15 Torsion [C]-CA--N-[H2] |==|  0.04043
USER: genes 16 Torsion [C]-CA--CB-[CG] |==|  0.26473
USER: genes 17 Torsion [CA]-CB--CG-[CD1] |==|  0.02168
ROOT
ATOM      1  CA  SER E  44      21.607 -11.187  13.933  1.00 44.79 LIG 0.20  C 
ENDROOT
BRANCH 1 2
ATOM      2  CB  SER E  44      20.943 -12.559  13.832  1.00 46.10 LIG 0.20  C 
BRANCH 2 3
ATOM      3 OG   SER E  44      20.074 -12.603  12.719  1.00 47.85 LIG-0.40  OA
ATOM      4 HG   SER E  44      19.336 -12.927  12.953  1.00 47.85 LIG 0.21  HD
ENDBRANCH 2 3
ENDBRANCH 1 2
BRANCH 1 5
ATOM      5  C   SER E  44      21.859 -10.844  15.384  1.00 42.78 LIG 0.24  C 
ATOM      6  N   PHE E  45      21.153  -9.825  15.850  1.00 43.36 LIG-0.35  N 
ATOM      7 H    PHE E  45      20.597  -9.368  15.378  1.00 43.36 LIG 0.16  HD
ATOM      8 O    SER E  44      22.686 -11.460  16.058  1.00 37.54 LIG-0.27  OA
BRANCH 6 9
ATOM      9  CA  PHE E  45      21.268  -9.393  17.233  1.00 46.68 LIG 0.18  C 
BRANCH 9 10
ATOM     10  C   PHE E  45      19.878  -9.036  17.740  1.00 48.11 LIG 0.24  C 
ATOM     11 O    PHE E  45      19.020  -8.602  16.969  1.00 49.85 LIG-0.27  OA
ATOM     12  N   GLY E  46      19.647  -9.217  19.034  1.00 50.71 LIG-0.35  N 
ATOM     13 H    GLY E  46      20.219  -9.514  19.603  1.00 50.71 LIG 0.16  HD
BRANCH 12 14
ATOM     14  CA  GLY E  46      18.337  -8.901  19.570  1.00 54.23 LIG 0.21  C 
BRANCH 14 15
ATOM     15  C   GLY E  46      18.377  -8.555  21.042  1.00 55.55 LIG 0.21  C 
ATOM     16 O    GLY E  46      19.354  -7.898  21.451  1.00 59.11 LIG-0.29  OA
ENDBRANCH 14 15
ENDBRANCH 12 14
ENDBRANCH 9 10
BRANCH 9 17
ATOM     17  CB  PHE E  45      22.201  -8.182  17.345  1.00 43.03 LIG 0.07  C 
BRANCH 17 18
ATOM     18  CG  PHE E  45      23.042  -8.176  18.595  1.00 41.93 LIG-0.06  A 
ATOM     19  CD2 PHE E  45      23.944  -7.143  18.847  1.00 42.38 LIG 0.01  A 
ATOM     20  CE2 PHE E  45      24.703  -7.124  20.020  1.00 42.73 LIG 0.00  A 
ATOM     21  CZ  PHE E  45      24.563  -8.146  20.953  1.00 42.74 LIG 0.00  A 
ATOM     22  CE1 PHE E  45      23.665  -9.183  20.715  1.00 41.89 LIG 0.00  A 
ATOM     23  CD1 PHE E  45      22.911  -9.193  19.539  1.00 42.01 LIG 0.01  A 
ENDBRANCH 17 18
ENDBRANCH 9 17
ENDBRANCH 6 9
ENDBRANCH 1 5
BRANCH 1 24
ATOM     24  N   SER E  44      22.816 -11.158  13.138  1.00 46.50 LIG-0.34  N 
ATOM     25  C   PHE E  43      22.719 -10.812  11.873  1.00 47.40 LIG 0.24  C 
ATOM     26 O    PHE E  43      21.637 -10.551  11.353  1.00 45.80 LIG-0.27  OA
ATOM     27 H    SER E  44      23.542 -11.373  13.546  1.00 46.50 LIG 0.16  HD
BRANCH 25 28
ATOM     28  CA  PHE E  43      23.997 -10.797  11.064  1.00 47.87 LIG 0.18  C 
BRANCH 28 29
ATOM     29  N   PHE E  43      23.587 -11.705  10.032  1.00 51.92 LIG-0.35  N 
ATOM     30  C   GLY E  42      23.551 -13.023  10.101  1.00 55.92 LIG 0.24  C 
ATOM     31 O    GLY E  42      23.881 -13.710  11.078  1.00 57.26 LIG-0.27  OA
ATOM     32 H    PHE E  43      23.350 -11.290   9.316  1.00 51.92 LIG 0.16  HD
BRANCH 30 33
ATOM     33  CA  GLY E  42      23.039 -13.623   8.816  1.00 58.33 LIG 0.33  C 
BRANCH 33 34
ATOM     34  N   GLY E  42      22.811 -12.680   7.758  1.00 60.94 LIG-0.07  N 
ATOM     35 H3   GLY E  42      23.149 -12.998   6.998  1.00 60.94 LIG 0.27  HD
ATOM     36 H1   GLY E  42      21.935 -12.549   7.661  1.00 60.94 LIG 0.27  HD
ATOM     37 H2   GLY E  42      23.206 -11.908   7.958  1.00 60.94 LIG 0.27  HD
ENDBRANCH 33 34
ENDBRANCH 30 33
ENDBRANCH 28 29
BRANCH 28 38
ATOM     38  CB  PHE E  43      24.218  -9.389  10.521  1.00 42.32 LIG 0.07  C 
BRANCH 38 39
ATOM     39  CG  PHE E  43      25.127  -8.506  11.356  1.00 35.12 LIG-0.06  A 
ATOM     40  CD1 PHE E  43      25.801  -9.077  12.424  1.00 34.02 LIG 0.01  A 
ATOM     41  CE1 PHE E  43      26.680  -8.340  13.222  1.00 29.46 LIG 0.00  A 
ATOM     42  CZ  PHE E  43      26.901  -6.994  12.955  1.00 28.92 LIG 0.00  A 
ATOM     43  CE2 PHE E  43      26.238  -6.389  11.879  1.00 30.40 LIG 0.00  A 
ATOM     44  CD2 PHE E  43      25.343  -7.150  11.077  1.00 32.72 LIG 0.01  A 
ENDBRANCH 38 39
ENDBRANCH 28 38
ENDBRANCH 25 28
ENDBRANCH 1 24
TORSDOF 16
ENDMDL
MODEL 20
USER: ADFR SOLUTION from run 9
USER: SCORE 14.855753 LL:  -3.200 LR: -12.352 RR:   0.000 FEB:  -7.579
USER: RMSD 8.549654
USER: SEED 292889
USER: STATUS no improvement in best 13 clusters for 5 generations
USER: GENES 18
USER: genes 0 Translation |==|  0.31332 0.32941 0.44600
USER: genes 1 Rotation |==|  0.46219 0.31370 0.51340 0.96226
USER: genes 2 Torsion [C]-CA--CB-[OG] |==|  0.43260
USER: genes 3 Torsion [CA]-CB--OG-[HG] |==|  0.93540
USER: genes 4 Torsion [N]-CA--C-[N] |==|  0.48333
USER: genes 5 Torsion [C]-N--CA-[C] |==|  0.54463
USER: genes 6 Torsion [N]-CA--C-[N] |==|  0.44278
USER: genes 7 Torsion [C]-N--CA-[C] |==|  0.59007
USER: genes 8 Torsion [N]-CA--C-[O] |==|  0.94503
USER: genes 9 Torsion [N]-CA--CB-[CG] |==|  0.10371
USER: genes 10 Torsion [CA]-CB--CG-[CD1] |==|  0.18560
USER: genes 11 Torsion [CB]-CA--N-[C] |==|  0.83041
USER: genes 12 Torsion [N]-C--CA-[N] |==|  0.45796
USER: genes 13 Torsion [C]-CA--N-[C] |==|  0.77816
USER: genes 14 Torsion [N]-C--CA-[N] |==|  0.52349
USER: genes 15 Torsion [C]-CA--N-[H2] |==|  0.96801
USER: genes 16 Torsion [C]-CA--CB-[CG] |==|  0.20239
USER: genes 17 Torsion [CA]-CB--CG-[CD1] |==|  0.21899
ROOT
ATOM      1  CA  SER E  44      20.610 -12.548  16.850  1.00 44.79 LIG 0.20  C 
ENDROOT
BRANCH 1 2
ATOM      2  CB  SER E  44      21.638 -13.537  17.396  1.00 46.10 LIG 0.20  C 
BRANCH 2 3
ATOM      3 OG   SER E  44      21.007 -14.493  18.223  1.00 47.85 LIG-0.40  OA
ATOM      4 HG   SER E  44      20.285 -14.178  18.516  1.00 47.85 LIG 0.21  HD
ENDBRANCH 2 3
ENDBRANCH 1 2
BRANCH 1 5
ATOM      5  C   SER E  44      21.291 -11.246  16.493  1.00 42.78 LIG 0.24  C 
ATOM      6  N   PHE E  45      21.847 -10.606  17.510  1.00 43.36 LIG-0.35  N 
ATOM      7 H    PHE E  45      21.824 -10.883  18.324  1.00 43.36 LIG 0.16  HD
ATOM      8 O    SER E  44      21.291 -10.813  15.339  1.00 37.54 LIG-0.27  OA
BRANCH 6 9
ATOM      9  CA  PHE E  45      22.560  -9.354  17.320  1.00 46.68 LIG 0.18  C 
BRANCH 9 10
ATOM     10  C   PHE E  45      23.402  -9.089  18.559  1.00 48.11 LIG 0.24  C 
ATOM     11 O    PHE E  45      23.136  -9.640  19.629  1.00 49.85 LIG-0.27  OA
ATOM     12  N   GLY E  46      24.421  -8.250  18.425  1.00 50.71 LIG-0.35  N 
ATOM     13 H    GLY E  46      24.636  -7.844  17.697  1.00 50.71 LIG 0.16  HD
BRANCH 12 14
ATOM     14  CA  GLY E  46      25.262  -7.967  19.571  1.00 54.23 LIG 0.21  C 
BRANCH 14 15
ATOM     15  C   GLY E  46      25.808  -6.557  19.560  1.00 55.55 LIG 0.21  C 
ATOM     16 O    GLY E  46      25.818  -5.953  18.471  1.00 59.11 LIG-0.29  OA
ENDBRANCH 14 15
ENDBRANCH 12 14
ENDBRANCH 9 10
BRANCH 9 17
ATOM     17  CB  PHE E  45      21.575  -8.201  17.092  1.00 43.03 LIG 0.07  C 
BRANCH 17 18
ATOM     18  CG  PHE E  45      20.318  -8.303  17.917  1.00 41.93 LIG-0.06  A 
ATOM     19  CD2 PHE E  45      19.085  -8.552  17.316  1.00 42.38 LIG 0.01  A 
ATOM     20  CE2 PHE E  45      17.925  -8.675  18.085  1.00 42.73 LIG 0.00  A 
ATOM     21  CZ  PHE E  45      17.993  -8.547  19.469  1.00 42.74 LIG 0.00  A 
ATOM     22  CE1 PHE E  45      19.218  -8.300  20.082  1.00 41.89 LIG 0.00  A 
ATOM     23  CD1 PHE E  45      20.372  -8.179  19.304  1.00 42.01 LIG 0.01  A 
ENDBRANCH 17 18
ENDBRANCH 9 17
ENDBRANCH 6 9
ENDBRANCH 1 5
BRANCH 1 24
ATOM     24  N   SER E  44      19.903 -13.131  15.729  1.00 46.50 LIG-0.34  N 
ATOM     25  C   PHE E  43      20.600 -13.476  14.668  1.00 47.40 LIG 0.24  C 
ATOM     26 O    PHE E  43      21.810 -13.284  14.598  1.00 45.80 LIG-0.27  OA
ATOM     27 H    SER E  44      19.053 -13.219  15.823  1.00 46.50 LIG 0.16  HD
BRANCH 25 28
ATOM     28  CA  PHE E  43      19.835 -14.076  13.510  1.00 47.87 LIG 0.18  C 
BRANCH 28 29
ATOM     29  N   PHE E  43      20.855 -13.942  12.510  1.00 51.92 LIG-0.35  N 
ATOM     30  C   GLY E  42      21.167 -12.850  11.837  1.00 55.92 LIG 0.24  C 
ATOM     31 O    GLY E  42      20.619 -11.745  11.945  1.00 57.26 LIG-0.27  OA
ATOM     32 H    PHE E  43      21.273 -14.682  12.378  1.00 51.92 LIG 0.16  HD
BRANCH 30 33
ATOM     33  CA  GLY E  42      22.313 -13.104  10.889  1.00 58.33 LIG 0.33  C 
BRANCH 33 34
ATOM     34  N   GLY E  42      22.845 -11.930  10.256  1.00 60.94 LIG-0.07  N 
ATOM     35 H3   GLY E  42      23.647 -11.747  10.594  1.00 60.94 LIG 0.27  HD
ATOM     36 H1   GLY E  42      22.917 -12.073   9.380  1.00 60.94 LIG 0.27  HD
ATOM     37 H2   GLY E  42      22.298 -11.242  10.399  1.00 60.94 LIG 0.27  HD
ENDBRANCH 33 34
ENDBRANCH 30 33
ENDBRANCH 28 29
BRANCH 28 38
ATOM     38  CB  PHE E  43      19.540 -15.540  13.821  1.00 42.32 LIG 0.07  C 
BRANCH 38 39
ATOM     39  CG  PHE E  43      18.474 -15.779  14.874  1.00 35.12 LIG-0.06  A 
ATOM     40  CD1 PHE E  43      17.143 -15.662  14.504  1.00 34.02 LIG 0.01  A 
ATOM     41  CE1 PHE E  43      16.102 -15.897  15.405  1.00 29.46 LIG 0.00  A 
ATOM     42  CZ  PHE E  43      16.385 -16.261  16.716  1.00 28.92 LIG 0.00  A 
ATOM     43  CE2 PHE E  43      17.720 -16.392  17.121  1.00 30.40 LIG 0.00  A 
ATOM     44  CD2 PHE E  43      18.771 -16.146  16.193  1.00 32.72 LIG 0.01  A 
ENDBRANCH 38 39
ENDBRANCH 28 38
ENDBRANCH 25 28
ENDBRANCH 1 24
TORSDOF 16
ENDMDL
MODEL 21
USER: ADFR SOLUTION from run 40
USER: SCORE 14.385541 LL:  -3.838 LR: -12.294 RR:   0.000 FEB:  -7.521
USER: RMSD 11.152286
USER: SEED 39
USER: STATUS no improvement in best 5 clusters for 5 generations
USER: GENES 18
USER: genes 0 Translation |==|  0.32708 0.34612 0.32567
USER: genes 1 Rotation |==|  0.80262 0.34720 0.13260 0.50934
USER: genes 2 Torsion [C]-CA--CB-[OG] |==|  0.42316
USER: genes 3 Torsion [CA]-CB--OG-[HG] |==|  0.52270
USER: genes 4 Torsion [N]-CA--C-[N] |==|  0.20641
USER: genes 5 Torsion [C]-N--CA-[C] |==|  0.73959
USER: genes 6 Torsion [N]-CA--C-[N] |==|  0.98409
USER: genes 7 Torsion [C]-N--CA-[C] |==|  0.21340
USER: genes 8 Torsion [N]-CA--C-[O] |==|  0.01331
USER: genes 9 Torsion [N]-CA--CB-[CG] |==|  0.88297
USER: genes 10 Torsion [CA]-CB--CG-[CD1] |==|  0.76775
USER: genes 11 Torsion [CB]-CA--N-[C] |==|  0.43984
USER: genes 12 Torsion [N]-C--CA-[N] |==|  0.98003
USER: genes 13 Torsion [C]-CA--N-[C] |==|  0.76541
USER: genes 14 Torsion [N]-C--CA-[N] |==|  0.00585
USER: genes 15 Torsion [C]-CA--N-[H2] |==|  0.27154
USER: genes 16 Torsion [C]-CA--CB-[CG] |==|  0.21511
USER: genes 17 Torsion [CA]-CB--CG-[CD1] |==|  0.22476
ROOT
ATOM      1  CA  SER E  44      21.022 -12.047  13.240  1.00 44.79 LIG 0.20  C 
ENDROOT
BRANCH 1 2
ATOM      2  CB  SER E  44      21.514 -11.778  11.819  1.00 46.10 LIG 0.20  C 
BRANCH 2 3
ATOM      3 OG   SER E  44      20.997 -10.552  11.345  1.00 47.85 LIG-0.40  OA
ATOM      4 HG   SER E  44      21.179 -10.467  10.530  1.00 47.85 LIG 0.21  HD
ENDBRANCH 2 3
ENDBRANCH 1 2
BRANCH 1 5
ATOM      5  C   SER E  44      20.972 -13.537  13.492  1.00 42.78 LIG 0.24  C 
ATOM      6  N   PHE E  45      20.237 -13.905  14.531  1.00 43.36 LIG-0.35  N 
ATOM      7 H    PHE E  45      19.822 -13.356  15.046  1.00 43.36 LIG 0.16  HD
ATOM      8 O    SER E  44      21.600 -14.332  12.791  1.00 37.54 LIG-0.27  OA
BRANCH 6 9
ATOM      9  CA  PHE E  45      20.073 -15.305  14.884  1.00 46.68 LIG 0.18  C 
BRANCH 9 10
ATOM     10  C   PHE E  45      18.803 -15.821  14.223  1.00 48.11 LIG 0.24  C 
ATOM     11 O    PHE E  45      18.500 -17.013  14.290  1.00 49.85 LIG-0.27  OA
ATOM     12  N   GLY E  46      18.054 -14.930  13.586  1.00 50.71 LIG-0.35  N 
ATOM     13 H    GLY E  46      18.232 -14.092  13.516  1.00 50.71 LIG 0.16  HD
BRANCH 12 14
ATOM     14  CA  GLY E  46      16.828 -15.365  12.945  1.00 54.23 LIG 0.21  C 
BRANCH 14 15
ATOM     15  C   GLY E  46      15.704 -15.594  13.931  1.00 55.55 LIG 0.21  C 
ATOM     16 O    GLY E  46      15.918 -15.305  15.124  1.00 59.11 LIG-0.29  OA
ENDBRANCH 14 15
ENDBRANCH 12 14
ENDBRANCH 9 10
BRANCH 9 17
ATOM     17  CB  PHE E  45      19.984 -15.472  16.405  1.00 43.03 LIG 0.07  C 
BRANCH 17 18
ATOM     18  CG  PHE E  45      20.969 -14.623  17.168  1.00 41.93 LIG-0.06  A 
ATOM     19  CD2 PHE E  45      20.585 -13.402  17.720  1.00 42.38 LIG 0.01  A 
ATOM     20  CE2 PHE E  45      21.491 -12.630  18.452  1.00 42.73 LIG 0.00  A 
ATOM     21  CZ  PHE E  45      22.796 -13.078  18.634  1.00 42.74 LIG 0.00  A 
ATOM     22  CE1 PHE E  45      23.192 -14.296  18.089  1.00 41.89 LIG 0.00  A 
ATOM     23  CD1 PHE E  45      22.278 -15.061  17.360  1.00 42.01 LIG 0.01  A 
ENDBRANCH 17 18
ENDBRANCH 9 17
ENDBRANCH 6 9
ENDBRANCH 1 5
BRANCH 1 24
ATOM     24  N   SER E  44      21.856 -11.349  14.196  1.00 46.50 LIG-0.34  N 
ATOM     25  C   PHE E  43      21.359 -11.102  15.388  1.00 47.40 LIG 0.24  C 
ATOM     26 O    PHE E  43      20.210 -11.413  15.689  1.00 45.80 LIG-0.27  OA
ATOM     27 H    SER E  44      22.643 -11.134  13.925  1.00 46.50 LIG 0.16  HD
BRANCH 25 28
ATOM     28  CA  PHE E  43      22.250 -10.366  16.365  1.00 47.87 LIG 0.18  C 
BRANCH 28 29
ATOM     29  N   PHE E  43      23.450 -10.374  15.581  1.00 51.92 LIG-0.35  N 
ATOM     30  C   GLY E  42      24.344 -11.343  15.508  1.00 55.92 LIG 0.24  C 
ATOM     31 O    GLY E  42      24.305 -12.419  16.120  1.00 57.26 LIG-0.27  OA
ATOM     32 H    PHE E  43      23.545  -9.646  15.133  1.00 51.92 LIG 0.16  HD
BRANCH 30 33
ATOM     33  CA  GLY E  42      25.458 -10.986  14.556  1.00 58.33 LIG 0.33  C 
BRANCH 33 34
ATOM     34  N   GLY E  42      25.357  -9.680  13.969  1.00 60.94 LIG-0.07  N 
ATOM     35 H3   GLY E  42      25.627  -9.713  13.122  1.00 60.94 LIG 0.27  HD
ATOM     36 H1   GLY E  42      24.510  -9.406  14.000  1.00 60.94 LIG 0.27  HD
ATOM     37 H2   GLY E  42      25.870  -9.111  14.422  1.00 60.94 LIG 0.27  HD
ENDBRANCH 33 34
ENDBRANCH 30 33
ENDBRANCH 28 29
BRANCH 28 38
ATOM     38  CB  PHE E  43      21.709  -8.952  16.554  1.00 42.32 LIG 0.07  C 
BRANCH 38 39
ATOM     39  CG  PHE E  43      20.497  -8.835  17.458  1.00 35.12 LIG-0.06  A 
ATOM     40  CD1 PHE E  43      20.696  -8.825  18.830  1.00 34.02 LIG 0.01  A 
ATOM     41  CE1 PHE E  43      19.635  -8.688  19.730  1.00 29.46 LIG 0.00  A 
ATOM     42  CZ  PHE E  43      18.335  -8.555  19.258  1.00 28.92 LIG 0.00  A 
ATOM     43  CE2 PHE E  43      18.101  -8.558  17.876  1.00 30.40 LIG 0.00  A 
ATOM     44  CD2 PHE E  43      19.189  -8.701  16.972  1.00 32.72 LIG 0.01  A 
ENDBRANCH 38 39
ENDBRANCH 28 38
ENDBRANCH 25 28
ENDBRANCH 1 24
TORSDOF 16
ENDMDL
MODEL 22
USER: ADFR SOLUTION from run 136
USER: SCORE 13.794618 LL:  -3.692 LR: -12.241 RR:   0.000 FEB:  -7.468
USER: RMSD 8.049238
USER: SEED 135
USER: STATUS no improvement in best 6 clusters for 5 generations
USER: GENES 18
USER: genes 0 Translation |==|  0.52768 0.51001 0.46591
USER: genes 1 Rotation |==|  0.24146 0.92340 0.56200 0.50712
USER: genes 2 Torsion [C]-CA--CB-[OG] |==|  0.63850
USER: genes 3 Torsion [CA]-CB--OG-[HG] |==|  0.17245
USER: genes 4 Torsion [N]-CA--C-[N] |==|  0.55441
USER: genes 5 Torsion [C]-N--CA-[C] |==|  0.78044
USER: genes 6 Torsion [N]-CA--C-[N] |==|  0.17222
USER: genes 7 Torsion [C]-N--CA-[C] |==|  0.38338
USER: genes 8 Torsion [N]-CA--C-[O] |==|  0.11497
USER: genes 9 Torsion [N]-CA--CB-[CG] |==|  0.57414
USER: genes 10 Torsion [CA]-CB--CG-[CD1] |==|  0.36965
USER: genes 11 Torsion [CB]-CA--N-[C] |==|  0.41645
USER: genes 12 Torsion [N]-C--CA-[N] |==|  0.33707
USER: genes 13 Torsion [C]-CA--N-[C] |==|  0.77028
USER: genes 14 Torsion [N]-C--CA-[N] |==|  0.08231
USER: genes 15 Torsion [C]-CA--N-[H2] |==|  0.05744
USER: genes 16 Torsion [C]-CA--CB-[CG] |==|  0.10644
USER: genes 17 Torsion [CA]-CB--CG-[CD1] |==|  0.70558
ROOT
ATOM      1  CA  SER E  44      27.040  -7.130  17.447  1.00 44.79 LIG 0.20  C 
ENDROOT
BRANCH 1 2
ATOM      2  CB  SER E  44      27.546  -8.569  17.516  1.00 46.10 LIG 0.20  C 
BRANCH 2 3
ATOM      3 OG   SER E  44      28.901  -8.594  17.916  1.00 47.85 LIG-0.40  OA
ATOM      4 HG   SER E  44      28.972  -8.266  18.686  1.00 47.85 LIG 0.21  HD
ENDBRANCH 2 3
ENDBRANCH 1 2
BRANCH 1 5
ATOM      5  C   SER E  44      25.737  -7.007  18.204  1.00 42.78 LIG 0.24  C 
ATOM      6  N   PHE E  45      24.926  -8.048  18.095  1.00 43.36 LIG-0.35  N 
ATOM      7 H    PHE E  45      25.098  -8.747  17.623  1.00 43.36 LIG 0.16  HD
ATOM      8 O    SER E  44      25.455  -5.993  18.845  1.00 37.54 LIG-0.27  OA
BRANCH 6 9
ATOM      9  CA  PHE E  45      23.647  -8.088  18.785  1.00 46.68 LIG 0.18  C 
BRANCH 9 10
ATOM     10  C   PHE E  45      23.899  -8.457  20.240  1.00 48.11 LIG 0.24  C 
ATOM     11 O    PHE E  45      23.429  -9.492  20.716  1.00 49.85 LIG-0.27  OA
ATOM     12  N   GLY E  46      24.641  -7.618  20.952  1.00 50.71 LIG-0.35  N 
ATOM     13 H    GLY E  46      24.984  -6.887  20.657  1.00 50.71 LIG 0.16  HD
BRANCH 12 14
ATOM     14  CA  GLY E  46      24.920  -7.924  22.341  1.00 54.23 LIG 0.21  C 
BRANCH 14 15
ATOM     15  C   GLY E  46      26.354  -7.637  22.725  1.00 55.55 LIG 0.21  C 
ATOM     16 O    GLY E  46      26.868  -6.591  22.284  1.00 59.11 LIG-0.29  OA
ENDBRANCH 14 15
ENDBRANCH 12 14
ENDBRANCH 9 10
BRANCH 9 17
ATOM     17  CB  PHE E  45      22.712  -9.113  18.133  1.00 43.03 LIG 0.07  C 
BRANCH 17 18
ATOM     18  CG  PHE E  45      21.249  -8.805  18.318  1.00 41.93 LIG-0.06  A 
ATOM     19  CD2 PHE E  45      20.749  -8.426  19.564  1.00 42.38 LIG 0.01  A 
ATOM     20  CE2 PHE E  45      19.397  -8.113  19.728  1.00 42.73 LIG 0.00  A 
ATOM     21  CZ  PHE E  45      18.532  -8.180  18.640  1.00 42.74 LIG 0.00  A 
ATOM     22  CE1 PHE E  45      19.019  -8.556  17.391  1.00 41.89 LIG 0.00  A 
ATOM     23  CD1 PHE E  45      20.372  -8.866  17.237  1.00 42.01 LIG 0.01  A 
ENDBRANCH 17 18
ENDBRANCH 9 17
ENDBRANCH 6 9
ENDBRANCH 1 5
BRANCH 1 24
ATOM     24  N   SER E  44      28.055  -6.221  17.938  1.00 46.50 LIG-0.34  N 
ATOM     25  C   PHE E  43      28.093  -5.005  17.438  1.00 47.40 LIG 0.24  C 
ATOM     26 O    PHE E  43      27.321  -4.643  16.554  1.00 45.80 LIG-0.27  OA
ATOM     27 H    SER E  44      28.583  -6.534  18.540  1.00 46.50 LIG 0.16  HD
BRANCH 25 28
ATOM     28  CA  PHE E  43      29.166  -4.079  17.964  1.00 47.87 LIG 0.18  C 
BRANCH 28 29
ATOM     29  N   PHE E  43      29.818  -3.804  16.716  1.00 51.92 LIG-0.35  N 
ATOM     30  C   GLY E  42      30.724  -4.550  16.112  1.00 55.92 LIG 0.24  C 
ATOM     31 O    GLY E  42      31.181  -5.623  16.530  1.00 57.26 LIG-0.27  OA
ATOM     32 H    PHE E  43      29.550  -3.062  16.372  1.00 51.92 LIG 0.16  HD
BRANCH 30 33
ATOM     33  CA  GLY E  42      31.153  -3.934  14.804  1.00 58.33 LIG 0.33  C 
BRANCH 33 34
ATOM     34  N   GLY E  42      31.084  -2.501  14.759  1.00 60.94 LIG-0.07  N 
ATOM     35 H3   GLY E  42      31.788  -2.183  14.317  1.00 60.94 LIG 0.27  HD
ATOM     36 H1   GLY E  42      30.336  -2.252  14.345  1.00 60.94 LIG 0.27  HD
ATOM     37 H2   GLY E  42      31.085  -2.178  15.589  1.00 60.94 LIG 0.27  HD
ENDBRANCH 33 34
ENDBRANCH 30 33
ENDBRANCH 28 29
BRANCH 28 38
ATOM     38  CB  PHE E  43      28.501  -2.832  18.539  1.00 42.32 LIG 0.07  C 
BRANCH 38 39
ATOM     39  CG  PHE E  43      27.204  -3.074  19.288  1.00 35.12 LIG-0.06  A 
ATOM     40  CD1 PHE E  43      26.013  -2.711  18.678  1.00 34.02 LIG 0.01  A 
ATOM     41  CE1 PHE E  43      24.774  -2.930  19.287  1.00 29.46 LIG 0.00  A 
ATOM     42  CZ  PHE E  43      24.710  -3.529  20.539  1.00 28.92 LIG 0.00  A 
ATOM     43  CE2 PHE E  43      25.896  -3.912  21.180  1.00 30.40 LIG 0.00  A 
ATOM     44  CD2 PHE E  43      27.150  -3.680  20.551  1.00 32.72 LIG 0.01  A 
ENDBRANCH 38 39
ENDBRANCH 28 38
ENDBRANCH 25 28
ENDBRANCH 1 24
TORSDOF 16
ENDMDL
MODEL 23
USER: ADFR SOLUTION from run 66
USER: SCORE 13.962331 LL:  -2.396 LR: -12.230 RR:   0.000 FEB:  -7.457
USER: RMSD 10.869304
USER: SEED 65
USER: STATUS no improvement in best 4 clusters for 5 generations
USER: GENES 18
USER: genes 0 Translation |==|  0.36854 0.37786 0.29409
USER: genes 1 Rotation |==|  0.71680 0.14818 0.32124 0.71741
USER: genes 2 Torsion [C]-CA--CB-[OG] |==|  0.51741
USER: genes 3 Torsion [CA]-CB--OG-[HG] |==|  0.97774
USER: genes 4 Torsion [N]-CA--C-[N] |==|  0.34875
USER: genes 5 Torsion [C]-N--CA-[C] |==|  0.72791
USER: genes 6 Torsion [N]-CA--C-[N] |==|  0.92914
USER: genes 7 Torsion [C]-N--CA-[C] |==|  0.39307
USER: genes 8 Torsion [N]-CA--C-[O] |==|  0.73549
USER: genes 9 Torsion [N]-CA--CB-[CG] |==|  0.58084
USER: genes 10 Torsion [CA]-CB--CG-[CD1] |==|  0.05441
USER: genes 11 Torsion [CB]-CA--N-[C] |==|  0.85417
USER: genes 12 Torsion [N]-C--CA-[N] |==|  0.89008
USER: genes 13 Torsion [C]-CA--N-[C] |==|  0.67677
USER: genes 14 Torsion [N]-C--CA-[N] |==|  0.03469
USER: genes 15 Torsion [C]-CA--N-[H2] |==|  0.80146
USER: genes 16 Torsion [C]-CA--CB-[CG] |==|  0.41175
USER: genes 17 Torsion [CA]-CB--CG-[CD1] |==|  0.62672
ROOT
ATOM      1  CA  SER E  44      22.266 -11.094  12.293  1.00 44.79 LIG 0.20  C 
ENDROOT
BRANCH 1 2
ATOM      2  CB  SER E  44      22.743 -12.470  11.829  1.00 46.10 LIG 0.20  C 
BRANCH 2 3
ATOM      3 OG   SER E  44      22.858 -12.500  10.422  1.00 47.85 LIG-0.40  OA
ATOM      4 HG   SER E  44      22.539 -11.793  10.099  1.00 47.85 LIG 0.21  HD
ENDBRANCH 2 3
ENDBRANCH 1 2
BRANCH 1 5
ATOM      5  C   SER E  44      22.294 -11.023  13.803  1.00 42.78 LIG 0.24  C 
ATOM      6  N   PHE E  45      21.105 -10.963  14.383  1.00 43.36 LIG-0.35  N 
ATOM      7 H    PHE E  45      20.360 -10.949  13.954  1.00 43.36 LIG 0.16  HD
ATOM      8 O    SER E  44      23.355 -10.995  14.428  1.00 37.54 LIG-0.27  OA
BRANCH 6 9
ATOM      9  CA  PHE E  45      20.970 -10.915  15.830  1.00 46.68 LIG 0.18  C 
BRANCH 9 10
ATOM     10  C   PHE E  45      20.674 -12.322  16.330  1.00 48.11 LIG 0.24  C 
ATOM     11 O    PHE E  45      20.965 -12.654  17.480  1.00 49.85 LIG-0.27  OA
ATOM     12  N   GLY E  46      20.094 -13.154  15.474  1.00 50.71 LIG-0.35  N 
ATOM     13 H    GLY E  46      19.879 -12.961  14.664  1.00 50.71 LIG 0.16  HD
BRANCH 12 14
ATOM     14  CA  GLY E  46      19.782 -14.504  15.900  1.00 54.23 LIG 0.21  C 
BRANCH 14 15
ATOM     15  C   GLY E  46      18.460 -14.996  15.356  1.00 55.55 LIG 0.21  C 
ATOM     16 O    GLY E  46      17.457 -14.872  16.083  1.00 59.11 LIG-0.29  OA
ENDBRANCH 14 15
ENDBRANCH 12 14
ENDBRANCH 9 10
BRANCH 9 17
ATOM     17  CB  PHE E  45      19.842  -9.960  16.236  1.00 43.03 LIG 0.07  C 
BRANCH 17 18
ATOM     18  CG  PHE E  45      20.047  -9.315  17.582  1.00 41.93 LIG-0.06  A 
ATOM     19  CD2 PHE E  45      18.971  -8.784  18.293  1.00 42.38 LIG 0.01  A 
ATOM     20  CE2 PHE E  45      19.158  -8.212  19.554  1.00 42.73 LIG 0.00  A 
ATOM     21  CZ  PHE E  45      20.431  -8.167  20.114  1.00 42.74 LIG 0.00  A 
ATOM     22  CE1 PHE E  45      21.513  -8.695  19.415  1.00 41.89 LIG 0.00  A 
ATOM     23  CD1 PHE E  45      21.316  -9.265  18.155  1.00 42.01 LIG 0.01  A 
ENDBRANCH 17 18
ENDBRANCH 9 17
ENDBRANCH 6 9
ENDBRANCH 1 5
BRANCH 1 24
ATOM     24  N   SER E  44      23.063 -10.056  11.673  1.00 46.50 LIG-0.34  N 
ATOM     25  C   PHE E  43      24.372 -10.136  11.774  1.00 47.40 LIG 0.24  C 
ATOM     26 O    PHE E  43      24.920 -11.038  12.402  1.00 45.80 LIG-0.27  OA
ATOM     27 H    SER E  44      22.627  -9.436  11.268  1.00 46.50 LIG 0.16  HD
BRANCH 25 28
ATOM     28  CA  PHE E  43      25.179  -9.034  11.124  1.00 47.87 LIG 0.18  C 
BRANCH 28 29
ATOM     29  N   PHE E  43      24.389  -8.886   9.936  1.00 51.92 LIG-0.35  N 
ATOM     30  C   GLY E  42      24.774  -9.115   8.694  1.00 55.92 LIG 0.24  C 
ATOM     31 O    GLY E  42      25.899  -9.489   8.336  1.00 57.26 LIG-0.27  OA
ATOM     32 H    PHE E  43      23.591  -8.618  10.114  1.00 51.92 LIG 0.16  HD
BRANCH 30 33
ATOM     33  CA  GLY E  42      23.648  -8.867   7.721  1.00 58.33 LIG 0.33  C 
BRANCH 33 34
ATOM     34  N   GLY E  42      22.512  -8.183   8.272  1.00 60.94 LIG-0.07  N 
ATOM     35 H3   GLY E  42      22.787  -7.467   8.723  1.00 60.94 LIG 0.27  HD
ATOM     36 H1   GLY E  42      21.971  -7.928   7.613  1.00 60.94 LIG 0.27  HD
ATOM     37 H2   GLY E  42      22.074  -8.729   8.821  1.00 60.94 LIG 0.27  HD
ENDBRANCH 33 34
ENDBRANCH 30 33
ENDBRANCH 28 29
BRANCH 28 38
ATOM     38  CB  PHE E  43      25.112  -7.790  12.005  1.00 42.32 LIG 0.07  C 
BRANCH 38 39
ATOM     39  CG  PHE E  43      26.346  -6.907  11.978  1.00 35.12 LIG-0.06  A 
ATOM     40  CD1 PHE E  43      26.849  -6.441  13.183  1.00 34.02 LIG 0.01  A 
ATOM     41  CE1 PHE E  43      27.999  -5.650  13.246  1.00 29.46 LIG 0.00  A 
ATOM     42  CZ  PHE E  43      28.676  -5.310  12.081  1.00 28.92 LIG 0.00  A 
ATOM     43  CE2 PHE E  43      28.194  -5.769  10.847  1.00 30.40 LIG 0.00  A 
ATOM     44  CD2 PHE E  43      27.020  -6.571  10.797  1.00 32.72 LIG 0.01  A 
ENDBRANCH 38 39
ENDBRANCH 28 38
ENDBRANCH 25 28
ENDBRANCH 1 24
TORSDOF 16
ENDMDL
MODEL 24
USER: ADFR SOLUTION from run 53
USER: SCORE 14.781912 LL:  -2.899 LR: -12.211 RR:   0.000 FEB:  -7.438
USER: RMSD 10.052519
USER: SEED 52
USER: STATUS no improvement in best 4 clusters for 5 generations
USER: GENES 18
USER: genes 0 Translation |==|  0.32995 0.26655 0.50227
USER: genes 1 Rotation |==|  0.40301 0.85512 0.29995 0.77288
USER: genes 2 Torsion [C]-CA--CB-[OG] |==|  0.93733
USER: genes 3 Torsion [CA]-CB--OG-[HG] |==|  0.83750
USER: genes 4 Torsion [N]-CA--C-[N] |==|  0.07783
USER: genes 5 Torsion [C]-N--CA-[C] |==|  0.83078
USER: genes 6 Torsion [N]-CA--C-[N] |==|  0.37373
USER: genes 7 Torsion [C]-N--CA-[C] |==|  0.69787
USER: genes 8 Torsion [N]-CA--C-[O] |==|  0.87583
USER: genes 9 Torsion [N]-CA--CB-[CG] |==|  0.79706
USER: genes 10 Torsion [CA]-CB--CG-[CD1] |==|  0.25776
USER: genes 11 Torsion [CB]-CA--N-[C] |==|  0.18027
USER: genes 12 Torsion [N]-C--CA-[N] |==|  0.41509
USER: genes 13 Torsion [C]-CA--N-[C] |==|  0.57848
USER: genes 14 Torsion [N]-C--CA-[N] |==|  0.49386
USER: genes 15 Torsion [C]-CA--N-[H2] |==|  0.25998
USER: genes 16 Torsion [C]-CA--CB-[CG] |==|  0.72488
USER: genes 17 Torsion [CA]-CB--CG-[CD1] |==|  0.25266
ROOT
ATOM      1  CA  SER E  44      21.108 -14.433  18.538  1.00 44.79 LIG 0.20  C 
ENDROOT
BRANCH 1 2
ATOM      2  CB  SER E  44      20.194 -15.634  18.774  1.00 46.10 LIG 0.20  C 
BRANCH 2 3
ATOM      3 OG   SER E  44      18.950 -15.436  18.133  1.00 47.85 LIG-0.40  OA
ATOM      4 HG   SER E  44      18.592 -14.735  18.426  1.00 47.85 LIG 0.21  HD
ENDBRANCH 2 3
ENDBRANCH 1 2
BRANCH 1 5
ATOM      5  C   SER E  44      20.669 -13.689  17.297  1.00 42.78 LIG 0.24  C 
ATOM      6  N   PHE E  45      20.934 -12.392  17.298  1.00 43.36 LIG-0.35  N 
ATOM      7 H    PHE E  45      21.314 -11.978  17.950  1.00 43.36 LIG 0.16  HD
ATOM      8 O    SER E  44      20.082 -14.260  16.377  1.00 37.54 LIG-0.27  OA
BRANCH 6 9
ATOM      9  CA  PHE E  45      20.594 -11.548  16.165  1.00 46.68 LIG 0.18  C 
BRANCH 9 10
ATOM     10  C   PHE E  45      21.347 -12.058  14.945  1.00 48.11 LIG 0.24  C 
ATOM     11 O    PHE E  45      22.541 -12.351  15.022  1.00 49.85 LIG-0.27  OA
ATOM     12  N   GLY E  46      20.658 -12.169  13.817  1.00 50.71 LIG-0.35  N 
ATOM     13 H    GLY E  46      19.826 -11.972  13.723  1.00 50.71 LIG 0.16  HD
BRANCH 12 14
ATOM     14  CA  GLY E  46      21.323 -12.657  12.625  1.00 54.23 LIG 0.21  C 
BRANCH 14 15
ATOM     15  C   GLY E  46      21.538 -11.575  11.592  1.00 55.55 LIG 0.21  C 
ATOM     16 O    GLY E  46      20.586 -10.807  11.357  1.00 59.11 LIG-0.29  OA
ENDBRANCH 14 15
ENDBRANCH 12 14
ENDBRANCH 9 10
BRANCH 9 17
ATOM     17  CB  PHE E  45      20.967 -10.088  16.447  1.00 43.03 LIG 0.07  C 
BRANCH 17 18
ATOM     18  CG  PHE E  45      20.054  -9.408  17.435  1.00 41.93 LIG-0.06  A 
ATOM     19  CD2 PHE E  45      18.868  -8.806  17.017  1.00 42.38 LIG 0.01  A 
ATOM     20  CE2 PHE E  45      18.009  -8.200  17.938  1.00 42.73 LIG 0.00  A 
ATOM     21  CZ  PHE E  45      18.335  -8.193  19.290  1.00 42.74 LIG 0.00  A 
ATOM     22  CE1 PHE E  45      19.516  -8.792  19.721  1.00 41.89 LIG 0.00  A 
ATOM     23  CD1 PHE E  45      20.368  -9.395  18.792  1.00 42.01 LIG 0.01  A 
ENDBRANCH 17 18
ENDBRANCH 9 17
ENDBRANCH 6 9
ENDBRANCH 1 5
BRANCH 1 24
ATOM     24  N   SER E  44      21.134 -13.588  19.713  1.00 46.50 LIG-0.34  N 
ATOM     25  C   PHE E  43      21.648 -14.078  20.819  1.00 47.40 LIG 0.24  C 
ATOM     26 O    PHE E  43      22.067 -15.231  20.884  1.00 45.80 LIG-0.27  OA
ATOM     27 H    SER E  44      20.805 -12.799  19.618  1.00 46.50 LIG 0.16  HD
BRANCH 25 28
ATOM     28  CA  PHE E  43      21.655 -13.176  22.033  1.00 47.87 LIG 0.18  C 
BRANCH 28 29
ATOM     29  N   PHE E  43      21.540 -14.194  23.036  1.00 51.92 LIG-0.35  N 
ATOM     30  C   GLY E  42      20.993 -14.072  24.232  1.00 55.92 LIG 0.24  C 
ATOM     31 O    GLY E  42      20.491 -13.042  24.702  1.00 57.26 LIG-0.27  OA
ATOM     32 H    PHE E  43      21.880 -14.940  22.776  1.00 51.92 LIG 0.16  HD
BRANCH 30 33
ATOM     33  CA  GLY E  42      21.043 -15.375  24.989  1.00 58.33 LIG 0.33  C 
BRANCH 33 34
ATOM     34  N   GLY E  42      20.513 -15.320  26.323  1.00 60.94 LIG-0.07  N 
ATOM     35 H3   GLY E  42      20.968 -15.876  26.847  1.00 60.94 LIG 0.27  HD
ATOM     36 H1   GLY E  42      20.585 -14.489  26.637  1.00 60.94 LIG 0.27  HD
ATOM     37 H2   GLY E  42      19.655 -15.558  26.311  1.00 60.94 LIG 0.27  HD
ENDBRANCH 33 34
ENDBRANCH 30 33
ENDBRANCH 28 29
BRANCH 28 38
ATOM     38  CB  PHE E  43      23.002 -12.462  22.106  1.00 42.32 LIG 0.07  C 
BRANCH 38 39
ATOM     39  CG  PHE E  43      24.008 -13.069  23.067  1.00 35.12 LIG-0.06  A 
ATOM     40  CD1 PHE E  43      24.883 -14.029  22.585  1.00 34.02 LIG 0.01  A 
ATOM     41  CE1 PHE E  43      25.860 -14.613  23.396  1.00 29.46 LIG 0.00  A 
ATOM     42  CZ  PHE E  43      25.975 -14.234  24.729  1.00 28.92 LIG 0.00  A 
ATOM     43  CE2 PHE E  43      25.107 -13.263  25.245  1.00 30.40 LIG 0.00  A 
ATOM     44  CD2 PHE E  43      24.116 -12.679  24.409  1.00 32.72 LIG 0.01  A 
ENDBRANCH 38 39
ENDBRANCH 28 38
ENDBRANCH 25 28
ENDBRANCH 1 24
TORSDOF 16
ENDMDL
MODEL 25
USER: ADFR SOLUTION from run 50
USER: SCORE 15.010989 LL:  -3.844 LR: -12.188 RR:   0.000 FEB:  -7.416
USER: RMSD 7.869490
USER: SEED 49
USER: STATUS no improvement in best 4 clusters for 5 generations
USER: GENES 18
USER: genes 0 Translation |==|  0.38806 0.33467 0.55377
USER: genes 1 Rotation |==|  0.61385 0.85618 0.25992 0.72920
USER: genes 2 Torsion [C]-CA--CB-[OG] |==|  0.65711
USER: genes 3 Torsion [CA]-CB--OG-[HG] |==|  0.66762
USER: genes 4 Torsion [N]-CA--C-[N] |==|  0.79444
USER: genes 5 Torsion [C]-N--CA-[C] |==|  0.74304
USER: genes 6 Torsion [N]-CA--C-[N] |==|  0.42259
USER: genes 7 Torsion [C]-N--CA-[C] |==|  0.75643
USER: genes 8 Torsion [N]-CA--C-[O] |==|  0.82835
USER: genes 9 Torsion [N]-CA--CB-[CG] |==|  0.07365
USER: genes 10 Torsion [CA]-CB--CG-[CD1] |==|  0.64658
USER: genes 11 Torsion [CB]-CA--N-[C] |==|  0.21648
USER: genes 12 Torsion [N]-C--CA-[N] |==|  0.44489
USER: genes 13 Torsion [C]-CA--N-[C] |==|  0.65070
USER: genes 14 Torsion [N]-C--CA-[N] |==|  0.46535
USER: genes 15 Torsion [C]-CA--N-[H2] |==|  0.32066
USER: genes 16 Torsion [C]-CA--CB-[CG] |==|  0.18342
USER: genes 17 Torsion [CA]-CB--CG-[CD1] |==|  0.74020
ROOT
ATOM      1  CA  SER E  44      22.852 -12.390  20.083  1.00 44.79 LIG 0.20  C 
ENDROOT
BRANCH 1 2
ATOM      2  CB  SER E  44      21.370 -12.571  19.758  1.00 46.10 LIG 0.20  C 
BRANCH 2 3
ATOM      3 OG   SER E  44      20.585 -12.354  20.912  1.00 47.85 LIG-0.40  OA
ATOM      4 HG   SER E  44      20.152 -13.051  21.091  1.00 47.85 LIG 0.21  HD
ENDBRANCH 2 3
ENDBRANCH 1 2
BRANCH 1 5
ATOM      5  C   SER E  44      23.451 -11.339  19.176  1.00 42.78 LIG 0.24  C 
ATOM      6  N   PHE E  45      22.765 -10.210  19.095  1.00 43.36 LIG-0.35  N 
ATOM      7 H    PHE E  45      22.023 -10.066  19.508  1.00 43.36 LIG 0.16  HD
ATOM      8 O    SER E  44      24.488 -11.548  18.543  1.00 37.54 LIG-0.27  OA
BRANCH 6 9
ATOM      9  CA  PHE E  45      23.227  -9.097  18.282  1.00 46.68 LIG 0.18  C 
BRANCH 9 10
ATOM     10  C   PHE E  45      24.058  -8.174  19.162  1.00 48.11 LIG 0.24  C 
ATOM     11 O    PHE E  45      23.849  -8.106  20.374  1.00 49.85 LIG-0.27  OA
ATOM     12  N   GLY E  46      25.003  -7.462  18.561  1.00 50.71 LIG-0.35  N 
ATOM     13 H    GLY E  46      25.177  -7.479  17.719  1.00 50.71 LIG 0.16  HD
BRANCH 12 14
ATOM     14  CA  GLY E  46      25.829  -6.572  19.352  1.00 54.23 LIG 0.21  C 
BRANCH 14 15
ATOM     15  C   GLY E  46      25.222  -5.196  19.507  1.00 55.55 LIG 0.21  C 
ATOM     16 O    GLY E  46      25.038  -4.528  18.472  1.00 59.11 LIG-0.29  OA
ENDBRANCH 14 15
ENDBRANCH 12 14
ENDBRANCH 9 10
BRANCH 9 17
ATOM     17  CB  PHE E  45      22.040  -8.334  17.684  1.00 43.03 LIG 0.07  C 
BRANCH 17 18
ATOM     18  CG  PHE E  45      20.776  -8.442  18.498  1.00 41.93 LIG-0.06  A 
ATOM     19  CD2 PHE E  45      20.765  -8.106  19.851  1.00 42.38 LIG 0.01  A 
ATOM     20  CE2 PHE E  45      19.586  -8.179  20.598  1.00 42.73 LIG 0.00  A 
ATOM     21  CZ  PHE E  45      18.405  -8.593  19.990  1.00 42.74 LIG 0.00  A 
ATOM     22  CE1 PHE E  45      18.402  -8.930  18.640  1.00 41.89 LIG 0.00  A 
ATOM     23  CD1 PHE E  45      19.586  -8.854  17.902  1.00 42.01 LIG 0.01  A 
ENDBRANCH 17 18
ENDBRANCH 9 17
ENDBRANCH 6 9
ENDBRANCH 1 5
BRANCH 1 24
ATOM     24  N   SER E  44      23.019 -12.073  21.486  1.00 46.50 LIG-0.34  N 
ATOM     25  C   PHE E  43      22.933 -13.053  22.358  1.00 47.40 LIG 0.24  C 
ATOM     26 O    PHE E  43      22.683 -14.206  22.015  1.00 45.80 LIG-0.27  OA
ATOM     27 H    SER E  44      23.167 -11.247  21.671  1.00 46.50 LIG 0.16  HD
BRANCH 25 28
ATOM     28  CA  PHE E  43      23.105 -12.693  23.816  1.00 47.87 LIG 0.18  C 
BRANCH 28 29
ATOM     29  N   PHE E  43      22.477 -13.852  24.381  1.00 51.92 LIG-0.35  N 
ATOM     30  C   GLY E  42      21.482 -13.872  25.249  1.00 55.92 LIG 0.24  C 
ATOM     31 O    GLY E  42      20.922 -12.882  25.740  1.00 57.26 LIG-0.27  OA
ATOM     32 H    PHE E  43      22.826 -14.581  24.087  1.00 51.92 LIG 0.16  HD
BRANCH 30 33
ATOM     33  CA  GLY E  42      21.082 -15.287  25.587  1.00 58.33 LIG 0.33  C 
BRANCH 33 34
ATOM     34  N   GLY E  42      20.210 -15.414  26.720  1.00 60.94 LIG-0.07  N 
ATOM     35 H3   GLY E  42      20.573 -15.969  27.313  1.00 60.94 LIG 0.27  HD
ATOM     36 H1   GLY E  42      20.091 -14.615  27.095  1.00 60.94 LIG 0.27  HD
ATOM     37 H2   GLY E  42      19.424 -15.737  26.455  1.00 60.94 LIG 0.27  HD
ENDBRANCH 33 34
ENDBRANCH 30 33
ENDBRANCH 28 29
BRANCH 28 38
ATOM     38  CB  PHE E  43      24.595 -12.646  24.139  1.00 42.32 LIG 0.07  C 
BRANCH 38 39
ATOM     39  CG  PHE E  43      25.376 -11.545  23.445  1.00 35.12 LIG-0.06  A 
ATOM     40  CD1 PHE E  43      26.003 -11.838  22.244  1.00 34.02 LIG 0.01  A 
ATOM     41  CE1 PHE E  43      26.715 -10.873  21.527  1.00 29.46 LIG 0.00  A 
ATOM     42  CZ  PHE E  43      26.808  -9.573  22.012  1.00 28.92 LIG 0.00  A 
ATOM     43  CE2 PHE E  43      26.181  -9.245  23.221  1.00 30.40 LIG 0.00  A 
ATOM     44  CD2 PHE E  43      25.463 -10.238  23.943  1.00 32.72 LIG 0.01  A 
ENDBRANCH 38 39
ENDBRANCH 28 38
ENDBRANCH 25 28
ENDBRANCH 1 24
TORSDOF 16
ENDMDL
MODEL 26
USER: ADFR SOLUTION from run 50
USER: SCORE 14.437862 LL:  -3.325 LR: -12.134 RR:   0.000 FEB:  -7.362
USER: RMSD 8.463064
USER: SEED 49
USER: STATUS no improvement in best 4 clusters for 5 generations
USER: GENES 18
USER: genes 0 Translation |==|  0.38806 0.33467 0.55377
USER: genes 1 Rotation |==|  0.61385 0.85618 0.25992 0.72920
USER: genes 2 Torsion [C]-CA--CB-[OG] |==|  0.65711
USER: genes 3 Torsion [CA]-CB--OG-[HG] |==|  0.66762
USER: genes 4 Torsion [N]-CA--C-[N] |==|  0.79444
USER: genes 5 Torsion [C]-N--CA-[C] |==|  0.74304
USER: genes 6 Torsion [N]-CA--C-[N] |==|  0.42259
USER: genes 7 Torsion [C]-N--CA-[C] |==|  0.75643
USER: genes 8 Torsion [N]-CA--C-[O] |==|  0.82835
USER: genes 9 Torsion [N]-CA--CB-[CG] |==|  0.07365
USER: genes 10 Torsion [CA]-CB--CG-[CD1] |==|  0.64658
USER: genes 11 Torsion [CB]-CA--N-[C] |==|  0.21648
USER: genes 12 Torsion [N]-C--CA-[N] |==|  0.44489
USER: genes 13 Torsion [C]-CA--N-[C] |==|  0.65070
USER: genes 14 Torsion [N]-C--CA-[N] |==|  0.46535
USER: genes 15 Torsion [C]-CA--N-[H2] |==|  0.32066
USER: genes 16 Torsion [C]-CA--CB-[CG] |==|  0.75458
USER: genes 17 Torsion [CA]-CB--CG-[CD1] |==|  0.73163
ROOT
ATOM      1  CA  SER E  44      22.852 -12.390  20.083  1.00 44.79 LIG 0.20  C 
ENDROOT
BRANCH 1 2
ATOM      2  CB  SER E  44      21.370 -12.571  19.758  1.00 46.10 LIG 0.20  C 
BRANCH 2 3
ATOM      3 OG   SER E  44      20.585 -12.354  20.912  1.00 47.85 LIG-0.40  OA
ATOM      4 HG   SER E  44      20.152 -13.051  21.091  1.00 47.85 LIG 0.21  HD
ENDBRANCH 2 3
ENDBRANCH 1 2
BRANCH 1 5
ATOM      5  C   SER E  44      23.451 -11.339  19.176  1.00 42.78 LIG 0.24  C 
ATOM      6  N   PHE E  45      22.765 -10.210  19.095  1.00 43.36 LIG-0.35  N 
ATOM      7 H    PHE E  45      22.023 -10.066  19.508  1.00 43.36 LIG 0.16  HD
ATOM      8 O    SER E  44      24.488 -11.548  18.543  1.00 37.54 LIG-0.27  OA
BRANCH 6 9
ATOM      9  CA  PHE E  45      23.227  -9.097  18.282  1.00 46.68 LIG 0.18  C 
BRANCH 9 10
ATOM     10  C   PHE E  45      24.058  -8.174  19.162  1.00 48.11 LIG 0.24  C 
ATOM     11 O    PHE E  45      23.849  -8.106  20.374  1.00 49.85 LIG-0.27  OA
ATOM     12  N   GLY E  46      25.003  -7.462  18.561  1.00 50.71 LIG-0.35  N 
ATOM     13 H    GLY E  46      25.177  -7.479  17.719  1.00 50.71 LIG 0.16  HD
BRANCH 12 14
ATOM     14  CA  GLY E  46      25.829  -6.572  19.352  1.00 54.23 LIG 0.21  C 
BRANCH 14 15
ATOM     15  C   GLY E  46      25.222  -5.196  19.507  1.00 55.55 LIG 0.21  C 
ATOM     16 O    GLY E  46      25.038  -4.528  18.472  1.00 59.11 LIG-0.29  OA
ENDBRANCH 14 15
ENDBRANCH 12 14
ENDBRANCH 9 10
BRANCH 9 17
ATOM     17  CB  PHE E  45      22.040  -8.334  17.684  1.00 43.03 LIG 0.07  C 
BRANCH 17 18
ATOM     18  CG  PHE E  45      20.776  -8.442  18.498  1.00 41.93 LIG-0.06  A 
ATOM     19  CD2 PHE E  45      20.765  -8.106  19.851  1.00 42.38 LIG 0.01  A 
ATOM     20  CE2 PHE E  45      19.586  -8.179  20.598  1.00 42.73 LIG 0.00  A 
ATOM     21  CZ  PHE E  45      18.405  -8.593  19.990  1.00 42.74 LIG 0.00  A 
ATOM     22  CE1 PHE E  45      18.402  -8.930  18.640  1.00 41.89 LIG 0.00  A 
ATOM     23  CD1 PHE E  45      19.586  -8.854  17.902  1.00 42.01 LIG 0.01  A 
ENDBRANCH 17 18
ENDBRANCH 9 17
ENDBRANCH 6 9
ENDBRANCH 1 5
BRANCH 1 24
ATOM     24  N   SER E  44      23.019 -12.073  21.486  1.00 46.50 LIG-0.34  N 
ATOM     25  C   PHE E  43      22.933 -13.053  22.358  1.00 47.40 LIG 0.24  C 
ATOM     26 O    PHE E  43      22.683 -14.206  22.015  1.00 45.80 LIG-0.27  OA
ATOM     27 H    SER E  44      23.167 -11.247  21.671  1.00 46.50 LIG 0.16  HD
BRANCH 25 28
ATOM     28  CA  PHE E  43      23.105 -12.693  23.816  1.00 47.87 LIG 0.18  C 
BRANCH 28 29
ATOM     29  N   PHE E  43      22.477 -13.852  24.381  1.00 51.92 LIG-0.35  N 
ATOM     30  C   GLY E  42      21.482 -13.872  25.249  1.00 55.92 LIG 0.24  C 
ATOM     31 O    GLY E  42      20.922 -12.882  25.740  1.00 57.26 LIG-0.27  OA
ATOM     32 H    PHE E  43      22.826 -14.581  24.087  1.00 51.92 LIG 0.16  HD
BRANCH 30 33
ATOM     33  CA  GLY E  42      21.082 -15.287  25.587  1.00 58.33 LIG 0.33  C 
BRANCH 33 34
ATOM     34  N   GLY E  42      20.210 -15.414  26.720  1.00 60.94 LIG-0.07  N 
ATOM     35 H3   GLY E  42      20.573 -15.969  27.313  1.00 60.94 LIG 0.27  HD
ATOM     36 H1   GLY E  42      20.091 -14.615  27.095  1.00 60.94 LIG 0.27  HD
ATOM     37 H2   GLY E  42      19.424 -15.737  26.455  1.00 60.94 LIG 0.27  HD
ENDBRANCH 33 34
ENDBRANCH 30 33
ENDBRANCH 28 29
BRANCH 28 38
ATOM     38  CB  PHE E  43      24.595 -12.646  24.139  1.00 42.32 LIG 0.07  C 
BRANCH 38 39
ATOM     39  CG  PHE E  43      25.208 -13.965  24.571  1.00 35.12 LIG-0.06  A 
ATOM     40  CD1 PHE E  43      25.341 -14.217  25.928  1.00 34.02 LIG 0.01  A 
ATOM     41  CE1 PHE E  43      25.866 -15.420  26.408  1.00 29.46 LIG 0.00  A 
ATOM     42  CZ  PHE E  43      26.271 -16.407  25.518  1.00 28.92 LIG 0.00  A 
ATOM     43  CE2 PHE E  43      26.146 -16.184  24.140  1.00 30.40 LIG 0.00  A 
ATOM     44  CD2 PHE E  43      25.613 -14.954  23.665  1.00 32.72 LIG 0.01  A 
ENDBRANCH 38 39
ENDBRANCH 28 38
ENDBRANCH 25 28
ENDBRANCH 1 24
TORSDOF 16
ENDMDL
MODEL 27
USER: ADFR SOLUTION from run 21
USER: SCORE 15.180401 LL:  -3.753 LR: -12.107 RR:   0.000 FEB:  -7.334
USER: RMSD 6.324163
USER: SEED 20
USER: STATUS no improvement in best 2 clusters for 5 generations
USER: GENES 18
USER: genes 0 Translation |==|  0.47190 0.46624 0.63896
USER: genes 1 Rotation |==|  0.62169 0.28364 0.37570 0.91585
USER: genes 2 Torsion [C]-CA--CB-[OG] |==|  0.37863
USER: genes 3 Torsion [CA]-CB--OG-[HG] |==|  0.21738
USER: genes 4 Torsion [N]-CA--C-[N] |==|  0.10200
USER: genes 5 Torsion [C]-N--CA-[C] |==|  0.71378
USER: genes 6 Torsion [N]-CA--C-[N] |==|  0.09940
USER: genes 7 Torsion [C]-N--CA-[C] |==|  0.66784
USER: genes 8 Torsion [N]-CA--C-[O] |==|  0.86149
USER: genes 9 Torsion [N]-CA--CB-[CG] |==|  0.98784
USER: genes 10 Torsion [CA]-CB--CG-[CD1] |==|  0.77727
USER: genes 11 Torsion [CB]-CA--N-[C] |==|  0.18091
USER: genes 12 Torsion [N]-C--CA-[N] |==|  0.13751
USER: genes 13 Torsion [C]-CA--N-[C] |==|  0.16659
USER: genes 14 Torsion [N]-C--CA-[N] |==|  0.74275
USER: genes 15 Torsion [C]-CA--N-[H2] |==|  0.90417
USER: genes 16 Torsion [C]-CA--CB-[CG] |==|  0.27897
USER: genes 17 Torsion [CA]-CB--CG-[CD1] |==|  0.89394
ROOT
ATOM      1  CA  SER E  44      25.367  -8.443  22.639  1.00 44.79 LIG 0.20  C 
ENDROOT
BRANCH 1 2
ATOM      2  CB  SER E  44      26.032  -9.790  22.364  1.00 46.10 LIG 0.20  C 
BRANCH 2 3
ATOM      3 OG   SER E  44      25.121 -10.844  22.601  1.00 47.85 LIG-0.40  OA
ATOM      4 HG   SER E  44      24.594 -10.910  21.950  1.00 47.85 LIG 0.21  HD
ENDBRANCH 2 3
ENDBRANCH 1 2
BRANCH 1 5
ATOM      5  C   SER E  44      26.312  -7.553  23.415  1.00 42.78 LIG 0.24  C 
ATOM      6  N   PHE E  45      26.040  -6.259  23.354  1.00 43.36 LIG-0.35  N 
ATOM      7 H    PHE E  45      25.389  -5.923  22.903  1.00 43.36 LIG 0.16  HD
ATOM      8 O    SER E  44      27.276  -8.015  24.028  1.00 37.54 LIG-0.27  OA
BRANCH 6 9
ATOM      9  CA  PHE E  45      26.845  -5.281  24.068  1.00 46.68 LIG 0.18  C 
BRANCH 9 10
ATOM     10  C   PHE E  45      26.079  -4.844  25.309  1.00 48.11 LIG 0.24  C 
ATOM     11 O    PHE E  45      26.140  -3.679  25.707  1.00 49.85 LIG-0.27  OA
ATOM     12  N   GLY E  46      25.353  -5.770  25.923  1.00 50.71 LIG-0.35  N 
ATOM     13 H    GLY E  46      25.287  -6.591  25.678  1.00 50.71 LIG 0.16  HD
BRANCH 12 14
ATOM     14  CA  GLY E  46      24.596  -5.406  27.105  1.00 54.23 LIG 0.21  C 
BRANCH 14 15
ATOM     15  C   GLY E  46      25.014  -6.191  28.329  1.00 55.55 LIG 0.21  C 
ATOM     16 O    GLY E  46      25.085  -7.430  28.220  1.00 59.11 LIG-0.29  OA
ENDBRANCH 14 15
ENDBRANCH 12 14
ENDBRANCH 9 10
BRANCH 9 17
ATOM     17  CB  PHE E  45      27.144  -4.071  23.176  1.00 43.03 LIG 0.07  C 
BRANCH 17 18
ATOM     18  CG  PHE E  45      26.637  -4.218  21.764  1.00 41.93 LIG-0.06  A 
ATOM     19  CD2 PHE E  45      25.460  -3.591  21.357  1.00 42.38 LIG 0.01  A 
ATOM     20  CE2 PHE E  45      25.006  -3.704  20.040  1.00 42.73 LIG 0.00  A 
ATOM     21  CZ  PHE E  45      25.733  -4.450  19.118  1.00 42.74 LIG 0.00  A 
ATOM     22  CE1 PHE E  45      26.910  -5.080  19.511  1.00 41.89 LIG 0.00  A 
ATOM     23  CD1 PHE E  45      27.356  -4.961  20.830  1.00 42.01 LIG 0.01  A 
ENDBRANCH 17 18
ENDBRANCH 9 17
ENDBRANCH 6 9
ENDBRANCH 1 5
BRANCH 1 24
ATOM     24  N   SER E  44      24.931  -7.839  21.397  1.00 46.50 LIG-0.34  N 
ATOM     25  C   PHE E  43      23.984  -8.444  20.713  1.00 47.40 LIG 0.24  C 
ATOM     26 O    PHE E  43      23.497  -9.509  21.082  1.00 45.80 LIG-0.27  OA
ATOM     27 H    SER E  44      25.322  -7.107  21.175  1.00 46.50 LIG 0.16  HD
BRANCH 25 28
ATOM     28  CA  PHE E  43      23.552  -7.795  19.417  1.00 47.87 LIG 0.18  C 
BRANCH 28 29
ATOM     29  N   PHE E  43      24.855  -7.601  18.850  1.00 51.92 LIG-0.35  N 
ATOM     30  C   GLY E  42      25.746  -8.534  18.570  1.00 55.92 LIG 0.24  C 
ATOM     31 O    GLY E  42      25.612  -9.751  18.761  1.00 57.26 LIG-0.27  OA
ATOM     32 H    PHE E  43      25.018  -6.770  18.699  1.00 51.92 LIG 0.16  HD
BRANCH 30 33
ATOM     33  CA  GLY E  42      26.989  -7.936  17.961  1.00 58.33 LIG 0.33  C 
BRANCH 33 34
ATOM     34  N   GLY E  42      26.996  -7.885  16.526  1.00 60.94 LIG-0.07  N 
ATOM     35 H3   GLY E  42      26.585  -7.145  16.253  1.00 60.94 LIG 0.27  HD
ATOM     36 H1   GLY E  42      27.836  -7.884  16.233  1.00 60.94 LIG 0.27  HD
ATOM     37 H2   GLY E  42      26.570  -8.597  16.202  1.00 60.94 LIG 0.27  HD
ENDBRANCH 33 34
ENDBRANCH 30 33
ENDBRANCH 28 29
BRANCH 28 38
ATOM     38  CB  PHE E  43      22.732  -8.801  18.614  1.00 42.32 LIG 0.07  C 
BRANCH 38 39
ATOM     39  CG  PHE E  43      21.228  -8.619  18.687  1.00 35.12 LIG-0.06  A 
ATOM     40  CD1 PHE E  43      20.667  -8.244  19.899  1.00 34.02 LIG 0.01  A 
ATOM     41  CE1 PHE E  43      19.295  -8.025  20.042  1.00 29.46 LIG 0.00  A 
ATOM     42  CZ  PHE E  43      18.447  -8.181  18.951  1.00 28.92 LIG 0.00  A 
ATOM     43  CE2 PHE E  43      18.984  -8.555  17.712  1.00 30.40 LIG 0.00  A 
ATOM     44  CD2 PHE E  43      20.383  -8.778  17.581  1.00 32.72 LIG 0.01  A 
ENDBRANCH 38 39
ENDBRANCH 28 38
ENDBRANCH 25 28
ENDBRANCH 1 24
TORSDOF 16
ENDMDL
MODEL 28
USER: ADFR SOLUTION from run 71
USER: SCORE 14.084409 LL:  -2.809 LR: -12.105 RR:   0.000 FEB:  -7.332
USER: RMSD 9.002286
USER: SEED 70
USER: STATUS no improvement in best 10 clusters for 5 generations
USER: GENES 18
USER: genes 0 Translation |==|  0.47586 0.48222 0.52508
USER: genes 1 Rotation |==|  0.78952 0.32729 0.86442 0.55957
USER: genes 2 Torsion [C]-CA--CB-[OG] |==|  0.73857
USER: genes 3 Torsion [CA]-CB--OG-[HG] |==|  0.82610
USER: genes 4 Torsion [N]-CA--C-[N] |==|  0.10427
USER: genes 5 Torsion [C]-N--CA-[C] |==|  0.60080
USER: genes 6 Torsion [N]-CA--C-[N] |==|  0.84314
USER: genes 7 Torsion [C]-N--CA-[C] |==|  0.25834
USER: genes 8 Torsion [N]-CA--C-[O] |==|  0.01005
USER: genes 9 Torsion [N]-CA--CB-[CG] |==|  0.68033
USER: genes 10 Torsion [CA]-CB--CG-[CD1] |==|  0.60585
USER: genes 11 Torsion [CB]-CA--N-[C] |==|  0.17069
USER: genes 12 Torsion [N]-C--CA-[N] |==|  0.43904
USER: genes 13 Torsion [C]-CA--N-[C] |==|  0.73600
USER: genes 14 Torsion [N]-C--CA-[N] |==|  0.32609
USER: genes 15 Torsion [C]-CA--N-[H2] |==|  0.44130
USER: genes 16 Torsion [C]-CA--CB-[CG] |==|  0.44616
USER: genes 17 Torsion [CA]-CB--CG-[CD1] |==|  0.69613
ROOT
ATOM      1  CA  SER E  44      25.486  -7.963  19.222  1.00 44.79 LIG 0.20  C 
ENDROOT
BRANCH 1 2
ATOM      2  CB  SER E  44      25.451  -7.133  20.504  1.00 46.10 LIG 0.20  C 
BRANCH 2 3
ATOM      3 OG   SER E  44      25.071  -5.803  20.216  1.00 47.85 LIG-0.40  OA
ATOM      4 HG   SER E  44      25.644  -5.451  19.712  1.00 47.85 LIG 0.21  HD
ENDBRANCH 2 3
ENDBRANCH 1 2
BRANCH 1 5
ATOM      5  C   SER E  44      24.163  -8.672  19.034  1.00 42.78 LIG 0.24  C 
ATOM      6  N   PHE E  45      23.920  -9.086  17.800  1.00 43.36 LIG-0.35  N 
ATOM      7 H    PHE E  45      24.452  -8.960  17.135  1.00 43.36 LIG 0.16  HD
ATOM      8 O    SER E  44      23.371  -8.818  19.966  1.00 37.54 LIG-0.27  OA
BRANCH 6 9
ATOM      9  CA  PHE E  45      22.701  -9.804  17.468  1.00 46.68 LIG 0.18  C 
BRANCH 9 10
ATOM     10  C   PHE E  45      23.035 -10.857  16.421  1.00 48.11 LIG 0.24  C 
ATOM     11 O    PHE E  45      22.780 -12.046  16.622  1.00 49.85 LIG-0.27  OA
ATOM     12  N   GLY E  46      23.603 -10.430  15.300  1.00 50.71 LIG-0.35  N 
ATOM     13 H    GLY E  46      23.799  -9.612  15.124  1.00 50.71 LIG 0.16  HD
BRANCH 12 14
ATOM     14  CA  GLY E  46      23.935 -11.389  14.265  1.00 54.23 LIG 0.21  C 
BRANCH 14 15
ATOM     15  C   GLY E  46      22.836 -11.542  13.237  1.00 55.55 LIG 0.21  C 
ATOM     16 O    GLY E  46      21.838 -10.805  13.349  1.00 59.11 LIG-0.29  OA
ENDBRANCH 14 15
ENDBRANCH 12 14
ENDBRANCH 9 10
BRANCH 9 17
ATOM     17  CB  PHE E  45      21.635  -8.842  16.931  1.00 43.03 LIG 0.07  C 
BRANCH 17 18
ATOM     18  CG  PHE E  45      20.420  -8.728  17.814  1.00 41.93 LIG-0.06  A 
ATOM     19  CD2 PHE E  45      20.544  -8.701  19.203  1.00 42.38 LIG 0.01  A 
ATOM     20  CE2 PHE E  45      19.418  -8.566  20.021  1.00 42.73 LIG 0.00  A 
ATOM     21  CZ  PHE E  45      18.155  -8.457  19.448  1.00 42.74 LIG 0.00  A 
ATOM     22  CE1 PHE E  45      18.017  -8.481  18.063  1.00 41.89 LIG 0.00  A 
ATOM     23  CD1 PHE E  45      19.149  -8.616  17.255  1.00 42.01 LIG 0.01  A 
ENDBRANCH 17 18
ENDBRANCH 9 17
ENDBRANCH 6 9
ENDBRANCH 1 5
BRANCH 1 24
ATOM     24  N   SER E  44      25.832  -7.125  18.094  1.00 46.50 LIG-0.34  N 
ATOM     25  C   PHE E  43      27.002  -6.525  18.104  1.00 47.40 LIG 0.24  C 
ATOM     26 O    PHE E  43      27.778  -6.632  19.049  1.00 45.80 LIG-0.27  OA
ATOM     27 H    SER E  44      25.242  -7.066  17.472  1.00 46.50 LIG 0.16  HD
BRANCH 25 28
ATOM     28  CA  PHE E  43      27.335  -5.649  16.916  1.00 47.87 LIG 0.18  C 
BRANCH 28 29
ATOM     29  N   PHE E  43      28.331  -4.832  17.546  1.00 51.92 LIG-0.35  N 
ATOM     30  C   GLY E  42      28.149  -3.652  18.110  1.00 55.92 LIG 0.24  C 
ATOM     31 O    GLY E  42      27.077  -3.036  18.180  1.00 57.26 LIG-0.27  OA
ATOM     32 H    PHE E  43      29.108  -5.201  17.525  1.00 51.92 LIG 0.16  HD
BRANCH 30 33
ATOM     33  CA  GLY E  42      29.437  -3.119  18.686  1.00 58.33 LIG 0.33  C 
BRANCH 33 34
ATOM     34  N   GLY E  42      29.903  -1.896  18.095  1.00 60.94 LIG-0.07  N 
ATOM     35 H3   GLY E  42      30.327  -2.076  17.334  1.00 60.94 LIG 0.27  HD
ATOM     36 H1   GLY E  42      29.209  -1.363  17.929  1.00 60.94 LIG 0.27  HD
ATOM     37 H2   GLY E  42      30.461  -1.489  18.656  1.00 60.94 LIG 0.27  HD
ENDBRANCH 33 34
ENDBRANCH 30 33
ENDBRANCH 28 29
BRANCH 28 38
ATOM     38  CB  PHE E  43      27.934  -6.520  15.816  1.00 42.32 LIG 0.07  C 
BRANCH 38 39
ATOM     39  CG  PHE E  43      27.901  -5.921  14.422  1.00 35.12 LIG-0.06  A 
ATOM     40  CD1 PHE E  43      27.037  -6.472  13.488  1.00 34.02 LIG 0.01  A 
ATOM     41  CE1 PHE E  43      26.924  -5.959  12.194  1.00 29.46 LIG 0.00  A 
ATOM     42  CZ  PHE E  43      27.688  -4.863  11.809  1.00 28.92 LIG 0.00  A 
ATOM     43  CE2 PHE E  43      28.568  -4.281  12.732  1.00 30.40 LIG 0.00  A 
ATOM     44  CD2 PHE E  43      28.676  -4.816  14.046  1.00 32.72 LIG 0.01  A 
ENDBRANCH 38 39
ENDBRANCH 28 38
ENDBRANCH 25 28
ENDBRANCH 1 24
TORSDOF 16
ENDMDL
MODEL 29
USER: ADFR SOLUTION from run 9
USER: SCORE 14.410609 LL:  -2.896 LR: -12.084 RR:   0.000 FEB:  -7.311
USER: RMSD 9.923264
USER: SEED 292889
USER: STATUS no improvement in best 13 clusters for 5 generations
USER: GENES 18
USER: genes 0 Translation |==|  0.30367 0.29159 0.44882
USER: genes 1 Rotation |==|  0.50737 0.27394 0.35636 0.92215
USER: genes 2 Torsion [C]-CA--CB-[OG] |==|  0.25552
USER: genes 3 Torsion [CA]-CB--OG-[HG] |==|  0.02345
USER: genes 4 Torsion [N]-CA--C-[N] |==|  0.22428
USER: genes 5 Torsion [C]-N--CA-[C] |==|  0.77210
USER: genes 6 Torsion [N]-CA--C-[N] |==|  0.02173
USER: genes 7 Torsion [C]-N--CA-[C] |==|  0.42976
USER: genes 8 Torsion [N]-CA--C-[O] |==|  0.84213
USER: genes 9 Torsion [N]-CA--CB-[CG] |==|  0.10934
USER: genes 10 Torsion [CA]-CB--CG-[CD1] |==|  0.71405
USER: genes 11 Torsion [CB]-CA--N-[C] |==|  0.79419
USER: genes 12 Torsion [N]-C--CA-[N] |==|  0.42114
USER: genes 13 Torsion [C]-CA--N-[C] |==|  0.61575
USER: genes 14 Torsion [N]-C--CA-[N] |==|  0.49989
USER: genes 15 Torsion [C]-CA--N-[H2] |==|  0.07752
USER: genes 16 Torsion [C]-CA--CB-[CG] |==|  0.23475
USER: genes 17 Torsion [CA]-CB--CG-[CD1] |==|  0.28593
ROOT
ATOM      1  CA  SER E  44      20.320 -13.682  16.935  1.00 44.79 LIG 0.20  C 
ENDROOT
BRANCH 1 2
ATOM      2  CB  SER E  44      20.594 -15.172  17.134  1.00 46.10 LIG 0.20  C 
BRANCH 2 3
ATOM      3 OG   SER E  44      20.236 -15.564  18.443  1.00 47.85 LIG-0.40  OA
ATOM      4 HG   SER E  44      19.834 -14.933  18.826  1.00 47.85 LIG 0.21  HD
ENDBRANCH 2 3
ENDBRANCH 1 2
BRANCH 1 5
ATOM      5  C   SER E  44      21.559 -12.883  17.271  1.00 42.78 LIG 0.24  C 
ATOM      6  N   PHE E  45      21.338 -11.624  17.616  1.00 43.36 LIG-0.35  N 
ATOM      7 H    PHE E  45      20.558 -11.261  17.640  1.00 43.36 LIG 0.16  HD
ATOM      8 O    SER E  44      22.686 -13.377  17.196  1.00 37.54 LIG-0.27  OA
BRANCH 6 9
ATOM      9  CA  PHE E  45      22.427 -10.738  17.990  1.00 46.68 LIG 0.18  C 
BRANCH 9 10
ATOM     10  C   PHE E  45      22.772 -10.994  19.450  1.00 48.11 LIG 0.24  C 
ATOM     11 O    PHE E  45      23.568 -10.264  20.045  1.00 49.85 LIG-0.27  OA
ATOM     12  N   GLY E  46      22.177 -12.025  20.036  1.00 50.71 LIG-0.35  N 
ATOM     13 H    GLY E  46      21.620 -12.557  19.655  1.00 50.71 LIG 0.16  HD
BRANCH 12 14
ATOM     14  CA  GLY E  46      22.463 -12.309  21.429  1.00 54.23 LIG 0.21  C 
BRANCH 14 15
ATOM     15  C   GLY E  46      21.340 -13.055  22.113  1.00 55.55 LIG 0.21  C 
ATOM     16 O    GLY E  46      20.210 -12.530  22.102  1.00 59.11 LIG-0.29  OA
ENDBRANCH 14 15
ENDBRANCH 12 14
ENDBRANCH 9 10
BRANCH 9 17
ATOM     17  CB  PHE E  45      22.026  -9.273  17.789  1.00 43.03 LIG 0.07  C 
BRANCH 17 18
ATOM     18  CG  PHE E  45      20.602  -8.973  18.182  1.00 41.93 LIG-0.06  A 
ATOM     19  CD2 PHE E  45      20.248  -8.813  19.521  1.00 42.38 LIG 0.01  A 
ATOM     20  CE2 PHE E  45      18.933  -8.506  19.883  1.00 42.73 LIG 0.00  A 
ATOM     21  CZ  PHE E  45      17.960  -8.359  18.899  1.00 42.74 LIG 0.00  A 
ATOM     22  CE1 PHE E  45      18.301  -8.515  17.559  1.00 41.89 LIG 0.00  A 
ATOM     23  CD1 PHE E  45      19.618  -8.821  17.208  1.00 42.01 LIG 0.01  A 
ENDBRANCH 17 18
ENDBRANCH 9 17
ENDBRANCH 6 9
ENDBRANCH 1 5
BRANCH 1 24
ATOM     24  N   SER E  44      19.851 -13.438  15.587  1.00 46.50 LIG-0.34  N 
ATOM     25  C   PHE E  43      20.726 -13.496  14.606  1.00 47.40 LIG 0.24  C 
ATOM     26 O    PHE E  43      21.916 -13.715  14.811  1.00 45.80 LIG-0.27  OA
ATOM     27 H    SER E  44      19.013 -13.266  15.504  1.00 46.50 LIG 0.16  HD
BRANCH 25 28
ATOM     28  CA  PHE E  43      20.210 -13.230  13.209  1.00 47.87 LIG 0.18  C 
BRANCH 28 29
ATOM     29  N   PHE E  43      21.423 -12.711  12.647  1.00 51.92 LIG-0.35  N 
ATOM     30  C   GLY E  42      21.543 -11.676  11.837  1.00 55.92 LIG 0.24  C 
ATOM     31 O    GLY E  42      20.616 -10.975  11.408  1.00 57.26 LIG-0.27  OA
ATOM     32 H    PHE E  43      22.111 -13.162  12.900  1.00 51.92 LIG 0.16  HD
BRANCH 30 33
ATOM     33  CA  GLY E  42      22.987 -11.427  11.481  1.00 58.33 LIG 0.33  C 
BRANCH 33 34
ATOM     34  N   GLY E  42      23.210 -10.316  10.599  1.00 60.94 LIG-0.07  N 
ATOM     35 H3   GLY E  42      23.995  -9.941  10.786  1.00 60.94 LIG 0.27  HD
ATOM     36 H1   GLY E  42      23.210 -10.602   9.756  1.00 60.94 LIG 0.27  HD
ATOM     37 H2   GLY E  42      22.561  -9.716  10.708  1.00 60.94 LIG 0.27  HD
ENDBRANCH 33 34
ENDBRANCH 30 33
ENDBRANCH 28 29
BRANCH 28 38
ATOM     38  CB  PHE E  43      19.816 -14.558  12.570  1.00 42.32 LIG 0.07  C 
BRANCH 38 39
ATOM     39  CG  PHE E  43      18.418 -15.049  12.900  1.00 35.12 LIG-0.06  A 
ATOM     40  CD1 PHE E  43      17.425 -14.902  11.945  1.00 34.02 LIG 0.01  A 
ATOM     41  CE1 PHE E  43      16.121 -15.356  12.159  1.00 29.46 LIG 0.00  A 
ATOM     42  CZ  PHE E  43      15.787 -15.978  13.356  1.00 28.92 LIG 0.00  A 
ATOM     43  CE2 PHE E  43      16.770 -16.145  14.340  1.00 30.40 LIG 0.00  A 
ATOM     44  CD2 PHE E  43      18.093 -15.675  14.111  1.00 32.72 LIG 0.01  A 
ENDBRANCH 38 39
ENDBRANCH 28 38
ENDBRANCH 25 28
ENDBRANCH 1 24
TORSDOF 16
ENDMDL
MODEL 30
USER: ADFR SOLUTION from run 16
USER: SCORE 13.318857 LL:  -3.166 LR: -12.068 RR:   0.000 FEB:  -7.296
USER: RMSD 8.299660
USER: SEED 646219
USER: STATUS no improvement in best 18 clusters for 5 generations
USER: GENES 18
USER: genes 0 Translation |==|  0.28837 0.45510 0.45665
USER: genes 1 Rotation |==|  0.78266 0.83470 0.74099 0.50161
USER: genes 2 Torsion [C]-CA--CB-[OG] |==|  0.84935
USER: genes 3 Torsion [CA]-CB--OG-[HG] |==|  0.50995
USER: genes 4 Torsion [N]-CA--C-[N] |==|  0.17594
USER: genes 5 Torsion [C]-N--CA-[C] |==|  0.70809
USER: genes 6 Torsion [N]-CA--C-[N] |==|  0.99445
USER: genes 7 Torsion [C]-N--CA-[C] |==|  0.23941
USER: genes 8 Torsion [N]-CA--C-[O] |==|  0.36432
USER: genes 9 Torsion [N]-CA--CB-[CG] |==|  0.67416
USER: genes 10 Torsion [CA]-CB--CG-[CD1] |==|  0.18345
USER: genes 11 Torsion [CB]-CA--N-[C] |==|  0.43373
USER: genes 12 Torsion [N]-C--CA-[N] |==|  0.41420
USER: genes 13 Torsion [C]-CA--N-[C] |==|  0.67342
USER: genes 14 Torsion [N]-C--CA-[N] |==|  0.56441
USER: genes 15 Torsion [C]-CA--N-[H2] |==|  0.00312
USER: genes 16 Torsion [C]-CA--CB-[CG] |==|  0.33779
USER: genes 17 Torsion [CA]-CB--CG-[CD1] |==|  0.64555
ROOT
ATOM      1  CA  SER E  44      19.861  -8.777  17.170  1.00 44.79 LIG 0.20  C 
ENDROOT
BRANCH 1 2
ATOM      2  CB  SER E  44      18.457  -8.184  17.267  1.00 46.10 LIG 0.20  C 
BRANCH 2 3
ATOM      3 OG   SER E  44      17.639  -8.992  18.088  1.00 47.85 LIG-0.40  OA
ATOM      4 HG   SER E  44      16.858  -8.685  18.095  1.00 47.85 LIG 0.21  HD
ENDBRANCH 2 3
ENDBRANCH 1 2
BRANCH 1 5
ATOM      5  C   SER E  44      20.425  -8.991  18.556  1.00 42.78 LIG 0.24  C 
ATOM      6  N   PHE E  45      21.691  -9.377  18.594  1.00 43.36 LIG-0.35  N 
ATOM      7 H    PHE E  45      22.173  -9.517  17.895  1.00 43.36 LIG 0.16  HD
ATOM      8 O    SER E  44      19.733  -8.840  19.565  1.00 37.54 LIG-0.27  OA
BRANCH 6 9
ATOM      9  CA  PHE E  45      22.379  -9.599  19.854  1.00 46.68 LIG 0.18  C 
BRANCH 9 10
ATOM     10  C   PHE E  45      23.325  -8.432  20.096  1.00 48.11 LIG 0.24  C 
ATOM     11 O    PHE E  45      24.001  -8.374  21.125  1.00 49.85 LIG-0.27  OA
ATOM     12  N   GLY E  46      23.383  -7.501  19.153  1.00 50.71 LIG-0.35  N 
ATOM     13 H    GLY E  46      22.926  -7.504  18.424  1.00 50.71 LIG 0.16  HD
BRANCH 12 14
ATOM     14  CA  GLY E  46      24.274  -6.370  19.327  1.00 54.23 LIG 0.21  C 
BRANCH 14 15
ATOM     15  C   GLY E  46      25.678  -6.656  18.844  1.00 55.55 LIG 0.21  C 
ATOM     16 O    GLY E  46      26.210  -5.815  18.095  1.00 59.11 LIG-0.29  OA
ENDBRANCH 14 15
ENDBRANCH 12 14
ENDBRANCH 9 10
BRANCH 9 17
ATOM     17  CB  PHE E  45      23.161 -10.917  19.819  1.00 43.03 LIG 0.07  C 
BRANCH 17 18
ATOM     18  CG  PHE E  45      22.687 -11.932  20.828  1.00 41.93 LIG-0.06  A 
ATOM     19  CD2 PHE E  45      23.496 -12.305  21.901  1.00 42.38 LIG 0.01  A 
ATOM     20  CE2 PHE E  45      23.045 -13.225  22.852  1.00 42.73 LIG 0.00  A 
ATOM     21  CZ  PHE E  45      21.775 -13.780  22.732  1.00 42.74 LIG 0.00  A 
ATOM     22  CE1 PHE E  45      20.957 -13.415  21.666  1.00 41.89 LIG 0.00  A 
ATOM     23  CD1 PHE E  45      21.417 -12.495  20.721  1.00 42.01 LIG 0.01  A 
ENDBRANCH 17 18
ENDBRANCH 9 17
ENDBRANCH 6 9
ENDBRANCH 1 5
BRANCH 1 24
ATOM     24  N   SER E  44      19.835  -9.995  16.387  1.00 46.50 LIG-0.34  N 
ATOM     25  C   PHE E  43      20.948 -10.379  15.801  1.00 47.40 LIG 0.24  C 
ATOM     26 O    PHE E  43      21.980  -9.718  15.873  1.00 45.80 LIG-0.27  OA
ATOM     27 H    SER E  44      19.080 -10.404  16.351  1.00 46.50 LIG 0.16  HD
BRANCH 25 28
ATOM     28  CA  PHE E  43      20.890 -11.651  14.984  1.00 47.87 LIG 0.18  C 
BRANCH 28 29
ATOM     29  N   PHE E  43      21.886 -11.306  14.012  1.00 51.92 LIG-0.35  N 
ATOM     30  C   GLY E  42      21.710 -11.168  12.710  1.00 55.92 LIG 0.24  C 
ATOM     31 O    GLY E  42      20.645 -11.326  12.098  1.00 57.26 LIG-0.27  OA
ATOM     32 H    PHE E  43      22.658 -11.189  14.372  1.00 51.92 LIG 0.16  HD
BRANCH 30 33
ATOM     33  CA  GLY E  42      22.995 -10.774  12.026  1.00 58.33 LIG 0.33  C 
BRANCH 33 34
ATOM     34  N   GLY E  42      22.828 -10.108  10.765  1.00 60.94 LIG-0.07  N 
ATOM     35 H3   GLY E  42      23.210  -9.305  10.800  1.00 60.94 LIG 0.27  HD
ATOM     36 H1   GLY E  42      23.211 -10.591  10.121  1.00 60.94 LIG 0.27  HD
ATOM     37 H2   GLY E  42      21.961 -10.017  10.590  1.00 60.94 LIG 0.27  HD
ENDBRANCH 33 34
ENDBRANCH 30 33
ENDBRANCH 28 29
BRANCH 28 38
ATOM     38  CB  PHE E  43      21.338 -12.817  15.860  1.00 42.32 LIG 0.07  C 
BRANCH 38 39
ATOM     39  CG  PHE E  43      20.324 -13.934  16.024  1.00 35.12 LIG-0.06  A 
ATOM     40  CD1 PHE E  43      19.997 -14.345  17.306  1.00 34.02 LIG 0.01  A 
ATOM     41  CE1 PHE E  43      19.050 -15.345  17.543  1.00 29.46 LIG 0.00  A 
ATOM     42  CZ  PHE E  43      18.402 -15.957  16.477  1.00 28.92 LIG 0.00  A 
ATOM     43  CE2 PHE E  43      18.707 -15.561  15.168  1.00 30.40 LIG 0.00  A 
ATOM     44  CD2 PHE E  43      19.676 -14.544  14.941  1.00 32.72 LIG 0.01  A 
ENDBRANCH 38 39
ENDBRANCH 28 38
ENDBRANCH 25 28
ENDBRANCH 1 24
TORSDOF 16
ENDMDL
MODEL 31
USER: ADFR SOLUTION from run 105
USER: SCORE 14.365989 LL:  -3.113 LR: -12.030 RR:   0.000 FEB:  -7.257
USER: RMSD 8.672380
USER: SEED 104
USER: STATUS no improvement in best 4 clusters for 5 generations
USER: GENES 18
USER: genes 0 Translation |==|  0.39040 0.36092 0.30527
USER: genes 1 Rotation |==|  0.69069 0.75457 0.21935 0.76470
USER: genes 2 Torsion [C]-CA--CB-[OG] |==|  0.85216
USER: genes 3 Torsion [CA]-CB--OG-[HG] |==|  0.36779
USER: genes 4 Torsion [N]-CA--C-[N] |==|  0.62791
USER: genes 5 Torsion [C]-N--CA-[C] |==|  0.81011
USER: genes 6 Torsion [N]-CA--C-[N] |==|  0.41781
USER: genes 7 Torsion [C]-N--CA-[C] |==|  0.79124
USER: genes 8 Torsion [N]-CA--C-[O] |==|  0.21949
USER: genes 9 Torsion [N]-CA--CB-[CG] |==|  0.30569
USER: genes 10 Torsion [CA]-CB--CG-[CD1] |==|  0.26767
USER: genes 11 Torsion [CB]-CA--N-[C] |==|  0.18702
USER: genes 12 Torsion [N]-C--CA-[N] |==|  0.89164
USER: genes 13 Torsion [C]-CA--N-[C] |==|  0.80000
USER: genes 14 Torsion [N]-C--CA-[N] |==|  0.80946
USER: genes 15 Torsion [C]-CA--N-[H2] |==|  0.74322
USER: genes 16 Torsion [C]-CA--CB-[CG] |==|  0.44812
USER: genes 17 Torsion [CA]-CB--CG-[CD1] |==|  0.61573
ROOT
ATOM      1  CA  SER E  44      22.922 -11.602  12.628  1.00 44.79 LIG 0.20  C 
ENDROOT
BRANCH 1 2
ATOM      2  CB  SER E  44      21.684 -11.462  11.744  1.00 46.10 LIG 0.20  C 
BRANCH 2 3
ATOM      3 OG   SER E  44      21.523 -10.119  11.336  1.00 47.85 LIG-0.40  OA
ATOM      4 HG   SER E  44      21.379 -10.092  10.509  1.00 47.85 LIG 0.21  HD
ENDBRANCH 2 3
ENDBRANCH 1 2
BRANCH 1 5
ATOM      5  C   SER E  44      24.125 -11.019  11.922  1.00 42.78 LIG 0.24  C 
ATOM      6  N   PHE E  45      23.938 -10.725  10.644  1.00 43.36 LIG-0.35  N 
ATOM      7 H    PHE E  45      23.200 -10.861  10.222  1.00 43.36 LIG 0.16  HD
ATOM      8 O    SER E  44      25.201 -10.864  12.502  1.00 37.54 LIG-0.27  OA
BRANCH 6 9
ATOM      9  CA  PHE E  45      24.994 -10.135   9.839  1.00 46.68 LIG 0.18  C 
BRANCH 9 10
ATOM     10  C   PHE E  45      25.245  -8.720  10.340  1.00 48.11 LIG 0.24  C 
ATOM     11 O    PHE E  45      24.335  -8.065  10.852  1.00 49.85 LIG-0.27  OA
ATOM     12  N   GLY E  46      26.475  -8.242  10.200  1.00 50.71 LIG-0.35  N 
ATOM     13 H    GLY E  46      27.134  -8.667   9.847  1.00 50.71 LIG 0.16  HD
BRANCH 12 14
ATOM     14  CA  GLY E  46      26.771  -6.903  10.668  1.00 54.23 LIG 0.21  C 
BRANCH 14 15
ATOM     15  C   GLY E  46      26.222  -5.831   9.754  1.00 55.55 LIG 0.21  C 
ATOM     16 O    GLY E  46      25.008  -5.565   9.845  1.00 59.11 LIG-0.29  OA
ENDBRANCH 14 15
ENDBRANCH 12 14
ENDBRANCH 9 10
BRANCH 9 17
ATOM     17  CB  PHE E  45      24.597 -10.111   8.359  1.00 43.03 LIG 0.07  C 
BRANCH 17 18
ATOM     18  CG  PHE E  45      24.322  -8.729   7.826  1.00 41.93 LIG-0.06  A 
ATOM     19  CD2 PHE E  45      23.084  -8.119   8.023  1.00 42.38 LIG 0.01  A 
ATOM     20  CE2 PHE E  45      22.840  -6.825   7.554  1.00 42.73 LIG 0.00  A 
ATOM     21  CZ  PHE E  45      23.839  -6.132   6.879  1.00 42.74 LIG 0.00  A 
ATOM     22  CE1 PHE E  45      25.080  -6.729   6.676  1.00 41.89 LIG 0.00  A 
ATOM     23  CD1 PHE E  45      25.315  -8.023   7.150  1.00 42.01 LIG 0.01  A 
ENDBRANCH 17 18
ENDBRANCH 9 17
ENDBRANCH 6 9
ENDBRANCH 1 5
BRANCH 1 24
ATOM     24  N   SER E  44      22.685 -10.991  13.918  1.00 46.50 LIG-0.34  N 
ATOM     25  C   PHE E  43      21.799 -11.547  14.715  1.00 47.40 LIG 0.24  C 
ATOM     26 O    PHE E  43      21.154 -12.536  14.378  1.00 45.80 LIG-0.27  OA
ATOM     27 H    SER E  44      23.146 -10.286  14.093  1.00 46.50 LIG 0.16  HD
BRANCH 25 28
ATOM     28  CA  PHE E  43      21.566 -10.883  16.054  1.00 47.87 LIG 0.18  C 
BRANCH 28 29
ATOM     29  N   PHE E  43      22.927 -10.531  16.338  1.00 51.92 LIG-0.35  N 
ATOM     30  C   GLY E  42      23.906 -11.352  16.673  1.00 55.92 LIG 0.24  C 
ATOM     31 O    GLY E  42      23.813 -12.579  16.813  1.00 57.26 LIG-0.27  OA
ATOM     32 H    PHE E  43      23.061  -9.684  16.267  1.00 51.92 LIG 0.16  HD
BRANCH 30 33
ATOM     33  CA  GLY E  42      25.201 -10.604  16.868  1.00 58.33 LIG 0.33  C 
BRANCH 33 34
ATOM     34  N   GLY E  42      25.769 -10.055  15.669  1.00 60.94 LIG-0.07  N 
ATOM     35 H3   GLY E  42      25.120  -9.887  15.083  1.00 60.94 LIG 0.27  HD
ATOM     36 H1   GLY E  42      26.197  -9.299  15.863  1.00 60.94 LIG 0.27  HD
ATOM     37 H2   GLY E  42      26.341 -10.638  15.318  1.00 60.94 LIG 0.27  HD
ENDBRANCH 33 34
ENDBRANCH 30 33
ENDBRANCH 28 29
BRANCH 28 38
ATOM     38  CB  PHE E  43      20.697  -9.647  15.845  1.00 42.32 LIG 0.07  C 
BRANCH 38 39
ATOM     39  CG  PHE E  43      20.007  -9.120  17.090  1.00 35.12 LIG-0.06  A 
ATOM     40  CD1 PHE E  43      18.690  -8.700  16.986  1.00 34.02 LIG 0.01  A 
ATOM     41  CE1 PHE E  43      17.974  -8.232  18.091  1.00 29.46 LIG 0.00  A 
ATOM     42  CZ  PHE E  43      18.579  -8.179  19.342  1.00 28.92 LIG 0.00  A 
ATOM     43  CE2 PHE E  43      19.908  -8.601  19.480  1.00 30.40 LIG 0.00  A 
ATOM     44  CD2 PHE E  43      20.626  -9.072  18.346  1.00 32.72 LIG 0.01  A 
ENDBRANCH 38 39
ENDBRANCH 28 38
ENDBRANCH 25 28
ENDBRANCH 1 24
TORSDOF 16
ENDMDL
MODEL 32
USER: ADFR SOLUTION from run 159
USER: SCORE 14.262341 LL:  -3.064 LR: -12.018 RR:   0.000 FEB:  -7.245
USER: RMSD 11.417151
USER: SEED 158
USER: STATUS no improvement in best 10 clusters for 5 generations
USER: GENES 18
USER: genes 0 Translation |==|  0.33112 0.36160 0.32437
USER: genes 1 Rotation |==|  0.17221 0.64641 0.84777 0.51320
USER: genes 2 Torsion [C]-CA--CB-[OG] |==|  0.32144
USER: genes 3 Torsion [CA]-CB--OG-[HG] |==|  0.52593
USER: genes 4 Torsion [N]-CA--C-[N] |==|  0.37106
USER: genes 5 Torsion [C]-N--CA-[C] |==|  0.79182
USER: genes 6 Torsion [N]-CA--C-[N] |==|  0.90931
USER: genes 7 Torsion [C]-N--CA-[C] |==|  0.72957
USER: genes 8 Torsion [N]-CA--C-[O] |==|  0.98716
USER: genes 9 Torsion [N]-CA--CB-[CG] |==|  0.74069
USER: genes 10 Torsion [CA]-CB--CG-[CD1] |==|  0.00373
USER: genes 11 Torsion [CB]-CA--N-[C] |==|  0.50557
USER: genes 12 Torsion [N]-C--CA-[N] |==|  0.89744
USER: genes 13 Torsion [C]-CA--N-[C] |==|  0.79108
USER: genes 14 Torsion [N]-C--CA-[N] |==|  0.03586
USER: genes 15 Torsion [C]-CA--N-[H2] |==|  0.82741
USER: genes 16 Torsion [C]-CA--CB-[CG] |==|  0.24697
USER: genes 17 Torsion [CA]-CB--CG-[CD1] |==|  0.24264
ROOT
ATOM      1  CA  SER E  44      21.144 -11.582  13.201  1.00 44.79 LIG 0.20  C 
ENDROOT
BRANCH 1 2
ATOM      2  CB  SER E  44      21.845 -11.254  11.884  1.00 46.10 LIG 0.20  C 
BRANCH 2 3
ATOM      3 OG   SER E  44      20.964 -10.572  11.016  1.00 47.85 LIG-0.40  OA
ATOM      4 HG   SER E  44      21.312 -10.509  10.255  1.00 47.85 LIG 0.21  HD
ENDBRANCH 2 3
ENDBRANCH 1 2
BRANCH 1 5
ATOM      5  C   SER E  44      21.035 -13.081  13.365  1.00 42.78 LIG 0.24  C 
ATOM      6  N   PHE E  45      19.834 -13.586  13.122  1.00 43.36 LIG-0.35  N 
ATOM      7 H    PHE E  45      19.149 -13.115  12.901  1.00 43.36 LIG 0.16  HD
ATOM      8 O    SER E  44      21.995 -13.763  13.727  1.00 37.54 LIG-0.27  OA
BRANCH 6 9
ATOM      9  CA  PHE E  45      19.580 -15.014  13.214  1.00 46.68 LIG 0.18  C 
BRANCH 9 10
ATOM     10  C   PHE E  45      20.188 -15.688  11.993  1.00 48.11 LIG 0.24  C 
ATOM     11 O    PHE E  45      20.645 -16.830  12.069  1.00 49.85 LIG-0.27  OA
ATOM     12  N   GLY E  46      20.194 -14.992  10.863  1.00 50.71 LIG-0.35  N 
ATOM     13 H    GLY E  46      19.888 -14.194  10.771  1.00 50.71 LIG 0.16  HD
BRANCH 12 14
ATOM     14  CA  GLY E  46      20.754 -15.589   9.667  1.00 54.23 LIG 0.21  C 
BRANCH 14 15
ATOM     15  C   GLY E  46      22.184 -15.166   9.418  1.00 55.55 LIG 0.21  C 
ATOM     16 O    GLY E  46      22.674 -14.316  10.185  1.00 59.11 LIG-0.29  OA
ENDBRANCH 14 15
ENDBRANCH 12 14
ENDBRANCH 9 10
BRANCH 9 17
ATOM     17  CB  PHE E  45      18.074 -15.292  13.279  1.00 43.03 LIG 0.07  C 
BRANCH 17 18
ATOM     18  CG  PHE E  45      17.536 -15.400  14.682  1.00 41.93 LIG-0.06  A 
ATOM     19  CD2 PHE E  45      16.195 -15.708  14.913  1.00 42.38 LIG 0.01  A 
ATOM     20  CE2 PHE E  45      15.704 -15.837  16.215  1.00 42.73 LIG 0.00  A 
ATOM     21  CZ  PHE E  45      16.556 -15.656  17.299  1.00 42.74 LIG 0.00  A 
ATOM     22  CE1 PHE E  45      17.897 -15.350  17.083  1.00 41.89 LIG 0.00  A 
ATOM     23  CD1 PHE E  45      18.379 -15.224  15.777  1.00 42.01 LIG 0.01  A 
ENDBRANCH 17 18
ENDBRANCH 9 17
ENDBRANCH 6 9
ENDBRANCH 1 5
BRANCH 1 24
ATOM     24  N   SER E  44      21.837 -10.952  14.305  1.00 46.50 LIG-0.34  N 
ATOM     25  C   PHE E  43      21.386 -11.165  15.522  1.00 47.40 LIG 0.24  C 
ATOM     26 O    PHE E  43      20.387 -11.847  15.734  1.00 45.80 LIG-0.27  OA
ATOM     27 H    SER E  44      22.515 -10.466  14.098  1.00 46.50 LIG 0.16  HD
BRANCH 25 28
ATOM     28  CA  PHE E  43      22.125 -10.489  16.656  1.00 47.87 LIG 0.18  C 
BRANCH 28 29
ATOM     29  N   PHE E  43      23.453 -10.615  16.129  1.00 51.92 LIG-0.35  N 
ATOM     30  C   GLY E  42      24.191 -11.709  16.089  1.00 55.92 LIG 0.24  C 
ATOM     31 O    GLY E  42      23.864 -12.824  16.517  1.00 57.26 LIG-0.27  OA
ATOM     32 H    PHE E  43      23.747  -9.867  15.820  1.00 51.92 LIG 0.16  HD
BRANCH 30 33
ATOM     33  CA  GLY E  42      25.524 -11.443  15.435  1.00 58.33 LIG 0.33  C 
BRANCH 33 34
ATOM     34  N   GLY E  42      25.845 -10.055  15.260  1.00 60.94 LIG-0.07  N 
ATOM     35 H3   GLY E  42      25.835  -9.645  16.050  1.00 60.94 LIG 0.27  HD
ATOM     36 H1   GLY E  42      26.656  -9.981  14.898  1.00 60.94 LIG 0.27  HD
ATOM     37 H2   GLY E  42      25.245  -9.677  14.722  1.00 60.94 LIG 0.27  HD
ENDBRANCH 33 34
ENDBRANCH 30 33
ENDBRANCH 28 29
BRANCH 28 38
ATOM     38  CB  PHE E  43      21.684  -9.031  16.730  1.00 42.32 LIG 0.07  C 
BRANCH 38 39
ATOM     39  CG  PHE E  43      20.473  -8.761  17.604  1.00 35.12 LIG-0.06  A 
ATOM     40  CD1 PHE E  43      20.675  -8.526  18.956  1.00 34.02 LIG 0.01  A 
ATOM     41  CE1 PHE E  43      19.617  -8.239  19.822  1.00 29.46 LIG 0.00  A 
ATOM     42  CZ  PHE E  43      18.316  -8.180  19.336  1.00 28.92 LIG 0.00  A 
ATOM     43  CE2 PHE E  43      18.079  -8.409  17.974  1.00 30.40 LIG 0.00  A 
ATOM     44  CD2 PHE E  43      19.165  -8.704  17.104  1.00 32.72 LIG 0.01  A 
ENDBRANCH 38 39
ENDBRANCH 28 38
ENDBRANCH 25 28
ENDBRANCH 1 24
TORSDOF 16
ENDMDL
MODEL 33
USER: ADFR SOLUTION from run 141
USER: SCORE 12.909708 LL:  -2.989 LR: -12.006 RR:   0.000 FEB:  -7.234
USER: RMSD 7.181701
USER: SEED 140
USER: STATUS no improvement in best 35 clusters for 5 generations
USER: GENES 18
USER: genes 0 Translation |==|  0.29605 0.46368 0.47932
USER: genes 1 Rotation |==|  0.20889 0.14351 0.32222 0.58103
USER: genes 2 Torsion [C]-CA--CB-[OG] |==|  0.59474
USER: genes 3 Torsion [CA]-CB--OG-[HG] |==|  0.45366
USER: genes 4 Torsion [N]-CA--C-[N] |==|  0.28997
USER: genes 5 Torsion [C]-N--CA-[C] |==|  0.52795
USER: genes 6 Torsion [N]-CA--C-[N] |==|  0.27989
USER: genes 7 Torsion [C]-N--CA-[C] |==|  0.54730
USER: genes 8 Torsion [N]-CA--C-[O] |==|  0.90269
USER: genes 9 Torsion [N]-CA--CB-[CG] |==|  0.57525
USER: genes 10 Torsion [CA]-CB--CG-[CD1] |==|  0.44463
USER: genes 11 Torsion [CB]-CA--N-[C] |==|  0.46877
USER: genes 12 Torsion [N]-C--CA-[N] |==|  0.41815
USER: genes 13 Torsion [C]-CA--N-[C] |==|  0.60032
USER: genes 14 Torsion [N]-C--CA-[N] |==|  0.59855
USER: genes 15 Torsion [C]-CA--N-[H2] |==|  0.57956
USER: genes 16 Torsion [C]-CA--CB-[CG] |==|  0.35738
USER: genes 17 Torsion [CA]-CB--CG-[CD1] |==|  0.59038
ROOT
ATOM      1  CA  SER E  44      20.091  -8.520  17.850  1.00 44.79 LIG 0.20  C 
ENDROOT
BRANCH 1 2
ATOM      2  CB  SER E  44      18.739  -8.179  18.472  1.00 46.10 LIG 0.20  C 
BRANCH 2 3
ATOM      3 OG   SER E  44      17.702  -8.858  17.795  1.00 47.85 LIG-0.40  OA
ATOM      4 HG   SER E  44      17.008  -8.854  18.267  1.00 47.85 LIG 0.21  HD
ENDBRANCH 2 3
ENDBRANCH 1 2
BRANCH 1 5
ATOM      5  C   SER E  44      21.157  -8.548  18.922  1.00 42.78 LIG 0.24  C 
ATOM      6  N   PHE E  45      22.266  -7.885  18.629  1.00 43.36 LIG-0.35  N 
ATOM      7 H    PHE E  45      22.398  -7.474  17.885  1.00 43.36 LIG 0.16  HD
ATOM      8 O    SER E  44      20.999  -9.173  19.972  1.00 37.54 LIG-0.27  OA
BRANCH 6 9
ATOM      9  CA  PHE E  45      23.370  -7.802  19.570  1.00 46.68 LIG 0.18  C 
BRANCH 9 10
ATOM     10  C   PHE E  45      24.369  -6.779  19.047  1.00 48.11 LIG 0.24  C 
ATOM     11 O    PHE E  45      25.163  -7.078  18.152  1.00 49.85 LIG-0.27  OA
ATOM     12  N   GLY E  46      24.335  -5.572  19.595  1.00 50.71 LIG-0.35  N 
ATOM     13 H    GLY E  46      23.799  -5.326  20.221  1.00 50.71 LIG 0.16  HD
BRANCH 12 14
ATOM     14  CA  GLY E  46      25.259  -4.556  19.128  1.00 54.23 LIG 0.21  C 
BRANCH 14 15
ATOM     15  C   GLY E  46      25.388  -3.399  20.093  1.00 55.55 LIG 0.21  C 
ATOM     16 O    GLY E  46      24.368  -3.058  20.722  1.00 59.11 LIG-0.29  OA
ENDBRANCH 14 15
ENDBRANCH 12 14
ENDBRANCH 9 10
BRANCH 9 17
ATOM     17  CB  PHE E  45      24.045  -9.168  19.733  1.00 43.03 LIG 0.07  C 
BRANCH 17 18
ATOM     18  CG  PHE E  45      24.715  -9.359  21.070  1.00 41.93 LIG-0.06  A 
ATOM     19  CD2 PHE E  45      25.031  -8.265  21.875  1.00 42.38 LIG 0.01  A 
ATOM     20  CE2 PHE E  45      25.626  -8.444  23.127  1.00 42.73 LIG 0.00  A 
ATOM     21  CZ  PHE E  45      25.910  -9.728  23.582  1.00 42.74 LIG 0.00  A 
ATOM     22  CE1 PHE E  45      25.599 -10.829  22.788  1.00 41.89 LIG 0.00  A 
ATOM     23  CD1 PHE E  45      25.004 -10.638  21.538  1.00 42.01 LIG 0.01  A 
ENDBRANCH 17 18
ENDBRANCH 9 17
ENDBRANCH 6 9
ENDBRANCH 1 5
BRANCH 1 24
ATOM     24  N   SER E  44      20.004  -9.767  17.120  1.00 46.50 LIG-0.34  N 
ATOM     25  C   PHE E  43      21.007 -10.099  16.337  1.00 47.40 LIG 0.24  C 
ATOM     26 O    PHE E  43      21.983  -9.368  16.188  1.00 45.80 LIG-0.27  OA
ATOM     27 H    SER E  44      19.289 -10.227  17.243  1.00 46.50 LIG 0.16  HD
BRANCH 25 28
ATOM     28  CA  PHE E  43      20.887 -11.404  15.582  1.00 47.87 LIG 0.18  C 
BRANCH 28 29
ATOM     29  N   PHE E  43      21.676 -11.044  14.440  1.00 51.92 LIG-0.35  N 
ATOM     30  C   GLY E  42      21.469 -11.404  13.186  1.00 55.92 LIG 0.24  C 
ATOM     31 O    GLY E  42      20.554 -12.133  12.779  1.00 57.26 LIG-0.27  OA
ATOM     32 H    PHE E  43      22.339 -10.539  14.655  1.00 51.92 LIG 0.16  HD
BRANCH 30 33
ATOM     33  CA  GLY E  42      22.504 -10.802  12.268  1.00 58.33 LIG 0.33  C 
BRANCH 33 34
ATOM     34  N   GLY E  42      22.017 -10.431  10.970  1.00 60.94 LIG-0.07  N 
ATOM     35 H3   GLY E  42      21.359 -10.980  10.730  1.00 60.94 LIG 0.27  HD
ATOM     36 H1   GLY E  42      21.711  -9.595  10.996  1.00 60.94 LIG 0.27  HD
ATOM     37 H2   GLY E  42      22.679 -10.485  10.378  1.00 60.94 LIG 0.27  HD
ENDBRANCH 33 34
ENDBRANCH 30 33
ENDBRANCH 28 29
BRANCH 28 38
ATOM     38  CB  PHE E  43      21.550 -12.508  16.399  1.00 42.32 LIG 0.07  C 
BRANCH 38 39
ATOM     39  CG  PHE E  43      20.702 -13.745  16.629  1.00 35.12 LIG-0.06  A 
ATOM     40  CD1 PHE E  43      20.863 -14.443  17.816  1.00 34.02 LIG 0.01  A 
ATOM     41  CE1 PHE E  43      20.098 -15.574  18.117  1.00 29.46 LIG 0.00  A 
ATOM     42  CZ  PHE E  43      19.141 -16.028  17.217  1.00 28.92 LIG 0.00  A 
ATOM     43  CE2 PHE E  43      18.952 -15.341  16.010  1.00 30.40 LIG 0.00  A 
ATOM     44  CD2 PHE E  43      19.740 -14.194  15.715  1.00 32.72 LIG 0.01  A 
ENDBRANCH 38 39
ENDBRANCH 28 38
ENDBRANCH 25 28
ENDBRANCH 1 24
TORSDOF 16
ENDMDL
MODEL 34
USER: ADFR SOLUTION from run 70
USER: SCORE 14.013740 LL:  -4.019 LR: -11.991 RR:   0.000 FEB:  -7.219
USER: RMSD 8.831549
USER: SEED 69
USER: STATUS no improvement in best 9 clusters for 5 generations
USER: GENES 18
USER: genes 0 Translation |==|  0.45868 0.37898 0.44252
USER: genes 1 Rotation |==|  0.89305 0.41221 0.61314 0.77387
USER: genes 2 Torsion [C]-CA--CB-[OG] |==|  0.56535
USER: genes 3 Torsion [CA]-CB--OG-[HG] |==|  0.27094
USER: genes 4 Torsion [N]-CA--C-[N] |==|  0.96842
USER: genes 5 Torsion [C]-N--CA-[C] |==|  0.75846
USER: genes 6 Torsion [N]-CA--C-[N] |==|  0.36452
USER: genes 7 Torsion [C]-N--CA-[C] |==|  0.61159
USER: genes 8 Torsion [N]-CA--C-[O] |==|  0.27411
USER: genes 9 Torsion [N]-CA--CB-[CG] |==|  0.20510
USER: genes 10 Torsion [CA]-CB--CG-[CD1] |==|  0.82106
USER: genes 11 Torsion [CB]-CA--N-[C] |==|  0.37403
USER: genes 12 Torsion [N]-C--CA-[N] |==|  0.35754
USER: genes 13 Torsion [C]-CA--N-[C] |==|  0.53333
USER: genes 14 Torsion [N]-C--CA-[N] |==|  0.64116
USER: genes 15 Torsion [C]-CA--N-[H2] |==|  0.34129
USER: genes 16 Torsion [C]-CA--CB-[CG] |==|  0.88373
USER: genes 17 Torsion [CA]-CB--CG-[CD1] |==|  0.29022
ROOT
ATOM      1  CA  SER E  44      24.970 -11.061  16.746  1.00 44.79 LIG 0.20  C 
ENDROOT
BRANCH 1 2
ATOM      2  CB  SER E  44      26.296 -10.315  16.605  1.00 46.10 LIG 0.20  C 
BRANCH 2 3
ATOM      3 OG   SER E  44      26.487  -9.903  15.267  1.00 47.85 LIG-0.40  OA
ATOM      4 HG   SER E  44      26.251  -9.101  15.184  1.00 47.85 LIG 0.21  HD
ENDBRANCH 2 3
ENDBRANCH 1 2
BRANCH 1 5
ATOM      5  C   SER E  44      24.492 -10.991  18.179  1.00 42.78 LIG 0.24  C 
ATOM      6  N   PHE E  45      23.403 -10.263  18.372  1.00 43.36 LIG-0.35  N 
ATOM      7 H    PHE E  45      22.989  -9.840  17.747  1.00 43.36 LIG 0.16  HD
ATOM      8 O    SER E  44      25.102 -11.552  19.090  1.00 37.54 LIG-0.27  OA
BRANCH 6 9
ATOM      9  CA  PHE E  45      22.810 -10.122  19.691  1.00 46.68 LIG 0.18  C 
BRANCH 9 10
ATOM     10  C   PHE E  45      21.850 -11.282  19.911  1.00 48.11 LIG 0.24  C 
ATOM     11 O    PHE E  45      21.016 -11.579  19.053  1.00 49.85 LIG-0.27  OA
ATOM     12  N   GLY E  46      21.961 -11.944  21.056  1.00 50.71 LIG-0.35  N 
ATOM     13 H    GLY E  46      22.526 -11.766  21.678  1.00 50.71 LIG 0.16  HD
BRANCH 12 14
ATOM     14  CA  GLY E  46      21.077 -13.064  21.314  1.00 54.23 LIG 0.21  C 
BRANCH 14 15
ATOM     15  C   GLY E  46      20.592 -13.105  22.746  1.00 55.55 LIG 0.21  C 
ATOM     16 O    GLY E  46      19.460 -12.643  22.983  1.00 59.11 LIG-0.29  OA
ENDBRANCH 14 15
ENDBRANCH 12 14
ENDBRANCH 9 10
BRANCH 9 17
ATOM     17  CB  PHE E  45      22.065  -8.787  19.808  1.00 43.03 LIG 0.07  C 
BRANCH 17 18
ATOM     18  CG  PHE E  45      20.759  -8.752  19.058  1.00 41.93 LIG-0.06  A 
ATOM     19  CD2 PHE E  45      19.550  -8.584  19.732  1.00 42.38 LIG 0.01  A 
ATOM     20  CE2 PHE E  45      18.341  -8.522  19.032  1.00 42.73 LIG 0.00  A 
ATOM     21  CZ  PHE E  45      18.337  -8.632  17.645  1.00 42.74 LIG 0.00  A 
ATOM     22  CE1 PHE E  45      19.537  -8.799  16.960  1.00 41.89 LIG 0.00  A 
ATOM     23  CD1 PHE E  45      20.739  -8.859  17.669  1.00 42.01 LIG 0.01  A 
ENDBRANCH 17 18
ENDBRANCH 9 17
ENDBRANCH 6 9
ENDBRANCH 1 5
BRANCH 1 24
ATOM     24  N   SER E  44      24.000 -10.533  15.810  1.00 46.50 LIG-0.34  N 
ATOM     25  C   PHE E  43      23.278 -11.386  15.117  1.00 47.40 LIG 0.24  C 
ATOM     26 O    PHE E  43      23.434 -12.600  15.220  1.00 45.80 LIG-0.27  OA
ATOM     27 H    SER E  44      23.949  -9.676  15.761  1.00 46.50 LIG 0.16  HD
BRANCH 25 28
ATOM     28  CA  PHE E  43      22.277 -10.807  14.143  1.00 47.87 LIG 0.18  C 
BRANCH 28 29
ATOM     29  N   PHE E  43      22.671 -11.558  12.986  1.00 51.92 LIG-0.35  N 
ATOM     30  C   GLY E  42      22.303 -11.342  11.737  1.00 55.92 LIG 0.24  C 
ATOM     31 O    GLY E  42      21.536 -10.452  11.346  1.00 57.26 LIG-0.27  OA
ATOM     32 H    PHE E  43      23.203 -12.203  13.189  1.00 51.92 LIG 0.16  HD
BRANCH 30 33
ATOM     33  CA  GLY E  42      22.949 -12.332  10.800  1.00 58.33 LIG 0.33  C 
BRANCH 33 34
ATOM     34  N   GLY E  42      23.607 -11.750   9.665  1.00 60.94 LIG-0.07  N 
ATOM     35 H3   GLY E  42      23.208 -12.022   8.917  1.00 60.94 LIG 0.27  HD
ATOM     36 H1   GLY E  42      23.562 -10.862   9.719  1.00 60.94 LIG 0.27  HD
ATOM     37 H2   GLY E  42      24.460 -12.003   9.655  1.00 60.94 LIG 0.27  HD
ENDBRANCH 33 34
ENDBRANCH 30 33
ENDBRANCH 28 29
BRANCH 28 38
ATOM     38  CB  PHE E  43      20.871 -11.180  14.604  1.00 42.32 LIG 0.07  C 
BRANCH 38 39
ATOM     39  CG  PHE E  43      20.706 -12.603  15.103  1.00 35.12 LIG-0.06  A 
ATOM     40  CD1 PHE E  43      20.605 -12.815  16.470  1.00 34.02 LIG 0.01  A 
ATOM     41  CE1 PHE E  43      20.420 -14.091  17.008  1.00 29.46 LIG 0.00  A 
ATOM     42  CZ  PHE E  43      20.330 -15.195  16.168  1.00 28.92 LIG 0.00  A 
ATOM     43  CE2 PHE E  43      20.424 -15.013  14.782  1.00 30.40 LIG 0.00  A 
ATOM     44  CD2 PHE E  43      20.616 -13.709  14.247  1.00 32.72 LIG 0.01  A 
ENDBRANCH 38 39
ENDBRANCH 28 38
ENDBRANCH 25 28
ENDBRANCH 1 24
TORSDOF 16
ENDMDL
MODEL 35
USER: ADFR SOLUTION from run 96
USER: SCORE 14.770651 LL:  -3.583 LR: -11.980 RR:   0.000 FEB:  -7.208
USER: RMSD 7.012045
USER: SEED 95
USER: STATUS no improvement in best 7 clusters for 5 generations
USER: GENES 18
USER: genes 0 Translation |==|  0.43964 0.38560 0.42800
USER: genes 1 Rotation |==|  0.80937 0.39300 0.57504 0.87042
USER: genes 2 Torsion [C]-CA--CB-[OG] |==|  0.96495
USER: genes 3 Torsion [CA]-CB--OG-[HG] |==|  0.87195
USER: genes 4 Torsion [N]-CA--C-[N] |==|  0.95558
USER: genes 5 Torsion [C]-N--CA-[C] |==|  0.15079
USER: genes 6 Torsion [N]-CA--C-[N] |==|  0.11140
USER: genes 7 Torsion [C]-N--CA-[C] |==|  0.69638
USER: genes 8 Torsion [N]-CA--C-[O] |==|  0.97530
USER: genes 9 Torsion [N]-CA--CB-[CG] |==|  0.76115
USER: genes 10 Torsion [CA]-CB--CG-[CD1] |==|  0.09740
USER: genes 11 Torsion [CB]-CA--N-[C] |==|  0.20956
USER: genes 12 Torsion [N]-C--CA-[N] |==|  0.41782
USER: genes 13 Torsion [C]-CA--N-[C] |==|  0.68228
USER: genes 14 Torsion [N]-C--CA-[N] |==|  0.31137
USER: genes 15 Torsion [C]-CA--N-[H2] |==|  0.48885
USER: genes 16 Torsion [C]-CA--CB-[CG] |==|  0.01674
USER: genes 17 Torsion [CA]-CB--CG-[CD1] |==|  0.21622
ROOT
ATOM      1  CA  SER E  44      24.399 -10.862  16.310  1.00 44.79 LIG 0.20  C 
ENDROOT
BRANCH 1 2
ATOM      2  CB  SER E  44      25.844 -10.670  15.854  1.00 46.10 LIG 0.20  C 
BRANCH 2 3
ATOM      3 OG   SER E  44      26.441  -9.598  16.553  1.00 47.85 LIG-0.40  OA
ATOM      4 HG   SER E  44      25.916  -8.943  16.563  1.00 47.85 LIG 0.21  HD
ENDBRANCH 2 3
ENDBRANCH 1 2
BRANCH 1 5
ATOM      5  C   SER E  44      24.149 -10.064  17.570  1.00 42.78 LIG 0.24  C 
ATOM      6  N   PHE E  45      23.403  -8.982  17.410  1.00 43.36 LIG-0.35  N 
ATOM      7 H    PHE E  45      23.085  -8.723  16.653  1.00 43.36 LIG 0.16  HD
ATOM      8 O    SER E  44      24.637 -10.396  18.652  1.00 37.54 LIG-0.27  OA
BRANCH 6 9
ATOM      9  CA  PHE E  45      23.056  -8.127  18.533  1.00 46.68 LIG 0.18  C 
BRANCH 9 10
ATOM     10  C   PHE E  45      24.342  -7.712  19.234  1.00 48.11 LIG 0.24  C 
ATOM     11 O    PHE E  45      24.399  -7.663  20.464  1.00 49.85 LIG-0.27  OA
ATOM     12  N   GLY E  46      25.378  -7.414  18.460  1.00 50.71 LIG-0.35  N 
ATOM     13 H    GLY E  46      25.377  -7.434  17.601  1.00 50.71 LIG 0.16  HD
BRANCH 12 14
ATOM     14  CA  GLY E  46      26.631  -7.021  19.075  1.00 54.23 LIG 0.21  C 
BRANCH 14 15
ATOM     15  C   GLY E  46      26.942  -5.554  18.877  1.00 55.55 LIG 0.21  C 
ATOM     16 O    GLY E  46      26.214  -4.913  18.095  1.00 59.11 LIG-0.29  OA
ENDBRANCH 14 15
ENDBRANCH 12 14
ENDBRANCH 9 10
BRANCH 9 17
ATOM     17  CB  PHE E  45      22.135  -8.865  19.510  1.00 43.03 LIG 0.07  C 
BRANCH 17 18
ATOM     18  CG  PHE E  45      20.673  -8.777  19.151  1.00 41.93 LIG-0.06  A 
ATOM     19  CD2 PHE E  45      19.698  -8.674  20.143  1.00 42.38 LIG 0.01  A 
ATOM     20  CE2 PHE E  45      18.346  -8.563  19.809  1.00 42.73 LIG 0.00  A 
ATOM     21  CZ  PHE E  45      17.960  -8.555  18.472  1.00 42.74 LIG 0.00  A 
ATOM     22  CE1 PHE E  45      18.923  -8.655  17.473  1.00 41.89 LIG 0.00  A 
ATOM     23  CD1 PHE E  45      20.273  -8.766  17.817  1.00 42.01 LIG 0.01  A 
ENDBRANCH 17 18
ENDBRANCH 9 17
ENDBRANCH 6 9
ENDBRANCH 1 5
BRANCH 1 24
ATOM     24  N   SER E  44      23.488 -10.511  15.241  1.00 46.50 LIG-0.34  N 
ATOM     25  C   PHE E  43      23.348 -11.356  14.243  1.00 47.40 LIG 0.24  C 
ATOM     26 O    PHE E  43      23.990 -12.401  14.184  1.00 45.80 LIG-0.27  OA
ATOM     27 H    SER E  44      23.083  -9.757  15.322  1.00 46.50 LIG 0.16  HD
BRANCH 25 28
ATOM     28  CA  PHE E  43      22.395 -10.961  13.137  1.00 47.87 LIG 0.18  C 
BRANCH 28 29
ATOM     29  N   PHE E  43      23.047 -11.650  12.061  1.00 51.92 LIG-0.35  N 
ATOM     30  C   GLY E  42      23.633 -11.107  11.010  1.00 55.92 LIG 0.24  C 
ATOM     31 O    GLY E  42      23.712  -9.895  10.765  1.00 57.26 LIG-0.27  OA
ATOM     32 H    PHE E  43      23.021 -12.504  12.165  1.00 51.92 LIG 0.16  HD
BRANCH 30 33
ATOM     33  CA  GLY E  42      24.226 -12.162  10.110  1.00 58.33 LIG 0.33  C 
BRANCH 33 34
ATOM     34  N   GLY E  42      23.584 -12.297   8.833  1.00 60.94 LIG-0.07  N 
ATOM     35 H3   GLY E  42      22.745 -12.570   8.950  1.00 60.94 LIG 0.27  HD
ATOM     36 H1   GLY E  42      23.585 -11.510   8.416  1.00 60.94 LIG 0.27  HD
ATOM     37 H2   GLY E  42      24.024 -12.894   8.341  1.00 60.94 LIG 0.27  HD
ENDBRANCH 33 34
ENDBRANCH 30 33
ENDBRANCH 28 29
BRANCH 28 38
ATOM     38  CB  PHE E  43      21.022 -11.555  13.436  1.00 42.32 LIG 0.07  C 
BRANCH 38 39
ATOM     39  CG  PHE E  43      20.892 -12.245  14.782  1.00 35.12 LIG-0.06  A 
ATOM     40  CD1 PHE E  43      20.743 -11.460  15.914  1.00 34.02 LIG 0.01  A 
ATOM     41  CE1 PHE E  43      20.585 -12.018  17.185  1.00 29.46 LIG 0.00  A 
ATOM     42  CZ  PHE E  43      20.571 -13.399  17.342  1.00 28.92 LIG 0.00  A 
ATOM     43  CE2 PHE E  43      20.715 -14.221  16.216  1.00 30.40 LIG 0.00  A 
ATOM     44  CD2 PHE E  43      20.878 -13.639  14.928  1.00 32.72 LIG 0.01  A 
ENDBRANCH 38 39
ENDBRANCH 28 38
ENDBRANCH 25 28
ENDBRANCH 1 24
TORSDOF 16
ENDMDL
MODEL 36
USER: ADFR SOLUTION from run 156
USER: SCORE 14.021928 LL:  -2.770 LR: -11.938 RR:   0.000 FEB:  -7.165
USER: RMSD 7.244551
USER: SEED 155
USER: STATUS searching
USER: GENES 18
USER: genes 0 Translation |==|  0.47794 0.46264 0.53250
USER: genes 1 Rotation |==|  0.86769 0.60587 0.74462 0.70918
USER: genes 2 Torsion [C]-CA--CB-[OG] |==|  0.50887
USER: genes 3 Torsion [CA]-CB--OG-[HG] |==|  0.13558
USER: genes 4 Torsion [N]-CA--C-[N] |==|  0.36265
USER: genes 5 Torsion [C]-N--CA-[C] |==|  0.76854
USER: genes 6 Torsion [N]-CA--C-[N] |==|  0.47771
USER: genes 7 Torsion [C]-N--CA-[C] |==|  0.45885
USER: genes 8 Torsion [N]-CA--C-[O] |==|  0.18755
USER: genes 9 Torsion [N]-CA--CB-[CG] |==|  0.65776
USER: genes 10 Torsion [CA]-CB--CG-[CD1] |==|  0.02037
USER: genes 11 Torsion [CB]-CA--N-[C] |==|  0.85554
USER: genes 12 Torsion [N]-C--CA-[N] |==|  0.21211
USER: genes 13 Torsion [C]-CA--N-[C] |==|  0.60000
USER: genes 14 Torsion [N]-C--CA-[N] |==|  0.41270
USER: genes 15 Torsion [C]-CA--N-[H2] |==|  0.13746
USER: genes 16 Torsion [C]-CA--CB-[CG] |==|  0.76134
USER: genes 17 Torsion [CA]-CB--CG-[CD1] |==|  0.66430
ROOT
ATOM      1  CA  SER E  44      25.548  -8.551  19.445  1.00 44.79 LIG 0.20  C 
ENDROOT
BRANCH 1 2
ATOM      2  CB  SER E  44      25.690  -7.050  19.199  1.00 46.10 LIG 0.20  C 
BRANCH 2 3
ATOM      3 OG   SER E  44      26.066  -6.806  17.859  1.00 47.85 LIG-0.40  OA
ATOM      4 HG   SER E  44      25.565  -7.242  17.344  1.00 47.85 LIG 0.21  HD
ENDBRANCH 2 3
ENDBRANCH 1 2
BRANCH 1 5
ATOM      5  C   SER E  44      25.071  -8.796  20.859  1.00 42.78 LIG 0.24  C 
ATOM      6  N   PHE E  45      25.991  -9.264  21.688  1.00 43.36 LIG-0.35  N 
ATOM      7 H    PHE E  45      26.803  -9.438  21.459  1.00 43.36 LIG 0.16  HD
ATOM      8 O    SER E  44      23.901  -8.597  21.188  1.00 37.54 LIG-0.27  OA
BRANCH 6 9
ATOM      9  CA  PHE E  45      25.690  -9.527  23.085  1.00 46.68 LIG 0.18  C 
BRANCH 9 10
ATOM     10  C   PHE E  45      25.814  -8.220  23.856  1.00 48.11 LIG 0.24  C 
ATOM     11 O    PHE E  45      26.264  -7.210  23.311  1.00 49.85 LIG-0.27  OA
ATOM     12  N   GLY E  46      25.415  -8.229  25.121  1.00 50.71 LIG-0.35  N 
ATOM     13 H    GLY E  46      25.099  -8.912  25.536  1.00 50.71 LIG 0.16  HD
BRANCH 12 14
ATOM     14  CA  GLY E  46      25.504  -7.009  25.900  1.00 54.23 LIG 0.21  C 
BRANCH 14 15
ATOM     15  C   GLY E  46      24.699  -7.075  27.178  1.00 55.55 LIG 0.21  C 
ATOM     16 O    GLY E  46      25.085  -7.865  28.060  1.00 59.11 LIG-0.29  OA
ENDBRANCH 14 15
ENDBRANCH 12 14
ENDBRANCH 9 10
BRANCH 9 17
ATOM     17  CB  PHE E  45      26.651 -10.574  23.658  1.00 43.03 LIG 0.07  C 
BRANCH 17 18
ATOM     18  CG  PHE E  45      25.959 -11.780  24.241  1.00 41.93 LIG-0.06  A 
ATOM     19  CD2 PHE E  45      26.673 -12.736  24.962  1.00 42.38 LIG 0.01  A 
ATOM     20  CE2 PHE E  45      26.026 -13.838  25.526  1.00 42.73 LIG 0.00  A 
ATOM     21  CZ  PHE E  45      24.652 -13.991  25.369  1.00 42.74 LIG 0.00  A 
ATOM     22  CE1 PHE E  45      23.928 -13.043  24.653  1.00 41.89 LIG 0.00  A 
ATOM     23  CD1 PHE E  45      24.584 -11.944  24.093  1.00 42.01 LIG 0.01  A 
ENDBRANCH 17 18
ENDBRANCH 9 17
ENDBRANCH 6 9
ENDBRANCH 1 5
BRANCH 1 24
ATOM     24  N   SER E  44      24.672  -9.137  18.453  1.00 46.50 LIG-0.34  N 
ATOM     25  C   PHE E  43      23.490  -8.591  18.270  1.00 47.40 LIG 0.24  C 
ATOM     26 O    PHE E  43      23.108  -7.632  18.935  1.00 45.80 LIG-0.27  OA
ATOM     27 H    SER E  44      24.980  -9.822  18.034  1.00 46.50 LIG 0.16  HD
BRANCH 25 28
ATOM     28  CA  PHE E  43      22.592  -9.228  17.233  1.00 47.87 LIG 0.18  C 
BRANCH 28 29
ATOM     29  N   PHE E  43      22.179 -10.365  18.002  1.00 51.92 LIG-0.35  N 
ATOM     30  C   GLY E  42      21.954 -11.587  17.555  1.00 55.92 LIG 0.24  C 
ATOM     31 O    GLY E  42      22.052 -11.962  16.378  1.00 57.26 LIG-0.27  OA
ATOM     32 H    PHE E  43      22.083 -10.171  18.835  1.00 51.92 LIG 0.16  HD
BRANCH 30 33
ATOM     33  CA  GLY E  42      21.558 -12.514  18.677  1.00 58.33 LIG 0.33  C 
BRANCH 33 34
ATOM     34  N   GLY E  42      20.657 -13.567  18.301  1.00 60.94 LIG-0.07  N 
ATOM     35 H3   GLY E  42      20.590 -14.153  18.967  1.00 60.94 LIG 0.27  HD
ATOM     36 H1   GLY E  42      19.854 -13.222  18.128  1.00 60.94 LIG 0.27  HD
ATOM     37 H2   GLY E  42      20.966 -13.977  17.575  1.00 60.94 LIG 0.27  HD
ENDBRANCH 33 34
ENDBRANCH 30 33
ENDBRANCH 28 29
BRANCH 28 38
ATOM     38  CB  PHE E  43      21.425  -8.286  16.947  1.00 42.32 LIG 0.07  C 
BRANCH 38 39
ATOM     39  CG  PHE E  43      20.239  -8.418  17.885  1.00 35.12 LIG-0.06  A 
ATOM     40  CD1 PHE E  43      19.004  -8.739  17.344  1.00 34.02 LIG 0.01  A 
ATOM     41  CE1 PHE E  43      17.870  -8.911  18.142  1.00 29.46 LIG 0.00  A 
ATOM     42  CZ  PHE E  43      17.960  -8.762  19.521  1.00 28.92 LIG 0.00  A 
ATOM     43  CE2 PHE E  43      19.196  -8.441  20.099  1.00 30.40 LIG 0.00  A 
ATOM     44  CD2 PHE E  43      20.342  -8.266  19.274  1.00 32.72 LIG 0.01  A 
ENDBRANCH 38 39
ENDBRANCH 28 38
ENDBRANCH 25 28
ENDBRANCH 1 24
TORSDOF 16
ENDMDL
MODEL 37
USER: ADFR SOLUTION from run 9
USER: SCORE 14.278983 LL:  -3.038 LR: -11.928 RR:   0.000 FEB:  -7.155
USER: RMSD 10.499458
USER: SEED 292889
USER: STATUS no improvement in best 13 clusters for 5 generations
USER: GENES 18
USER: genes 0 Translation |==|  0.30034 0.29292 0.44670
USER: genes 1 Rotation |==|  0.51167 0.26341 0.34817 0.91332
USER: genes 2 Torsion [C]-CA--CB-[OG] |==|  0.26298
USER: genes 3 Torsion [CA]-CB--OG-[HG] |==|  0.03504
USER: genes 4 Torsion [N]-CA--C-[N] |==|  0.34479
USER: genes 5 Torsion [C]-N--CA-[C] |==|  0.64444
USER: genes 6 Torsion [N]-CA--C-[N] |==|  0.00955
USER: genes 7 Torsion [C]-N--CA-[C] |==|  0.42202
USER: genes 8 Torsion [N]-CA--C-[O] |==|  0.84856
USER: genes 9 Torsion [N]-CA--CB-[CG] |==|  0.06408
USER: genes 10 Torsion [CA]-CB--CG-[CD1] |==|  0.72885
USER: genes 11 Torsion [CB]-CA--N-[C] |==|  0.84341
USER: genes 12 Torsion [N]-C--CA-[N] |==|  0.32503
USER: genes 13 Torsion [C]-CA--N-[C] |==|  0.59226
USER: genes 14 Torsion [N]-C--CA-[N] |==|  0.44070
USER: genes 15 Torsion [C]-CA--N-[H2] |==|  0.03250
USER: genes 16 Torsion [C]-CA--CB-[CG] |==|  0.55574
USER: genes 17 Torsion [CA]-CB--CG-[CD1] |==|  0.28440
ROOT
ATOM      1  CA  SER E  44      20.220 -13.642  16.871  1.00 44.79 LIG 0.20  C 
ENDROOT
BRANCH 1 2
ATOM      2  CB  SER E  44      20.437 -15.143  17.058  1.00 46.10 LIG 0.20  C 
BRANCH 2 3
ATOM      3 OG   SER E  44      19.938 -15.557  18.313  1.00 47.85 LIG-0.40  OA
ATOM      4 HG   SER E  44      19.467 -14.946  18.644  1.00 47.85 LIG 0.21  HD
ENDBRANCH 2 3
ENDBRANCH 1 2
BRANCH 1 5
ATOM      5  C   SER E  44      21.462 -12.888  17.291  1.00 42.78 LIG 0.24  C 
ATOM      6  N   PHE E  45      21.322 -12.135  18.371  1.00 43.36 LIG-0.35  N 
ATOM      7 H    PHE E  45      20.586 -12.053  18.810  1.00 43.36 LIG 0.16  HD
ATOM      8 O    SER E  44      22.509 -12.959  16.645  1.00 37.54 LIG-0.27  OA
BRANCH 6 9
ATOM      9  CA  PHE E  45      22.433 -11.370  18.911  1.00 46.68 LIG 0.18  C 
BRANCH 9 10
ATOM     10  C   PHE E  45      22.565 -11.696  20.392  1.00 48.11 LIG 0.24  C 
ATOM     11 O    PHE E  45      23.401 -11.119  21.090  1.00 49.85 LIG-0.27  OA
ATOM     12  N   GLY E  46      21.744 -12.617  20.879  1.00 50.71 LIG-0.35  N 
ATOM     13 H    GLY E  46      21.151 -13.043  20.425  1.00 50.71 LIG 0.16  HD
BRANCH 12 14
ATOM     14  CA  GLY E  46      21.820 -12.961  22.286  1.00 54.23 LIG 0.21  C 
BRANCH 14 15
ATOM     15  C   GLY E  46      20.500 -13.448  22.839  1.00 55.55 LIG 0.21  C 
ATOM     16 O    GLY E  46      19.507 -12.710  22.691  1.00 59.11 LIG-0.29  OA
ENDBRANCH 14 15
ENDBRANCH 12 14
ENDBRANCH 9 10
BRANCH 9 17
ATOM     17  CB  PHE E  45      22.200  -9.868  18.717  1.00 43.03 LIG 0.07  C 
BRANCH 17 18
ATOM     18  CG  PHE E  45      20.749  -9.494  18.556  1.00 41.93 LIG-0.06  A 
ATOM     19  CD2 PHE E  45      19.931  -9.303  19.669  1.00 42.38 LIG 0.01  A 
ATOM     20  CE2 PHE E  45      18.593  -8.929  19.519  1.00 42.73 LIG 0.00  A 
ATOM     21  CZ  PHE E  45      18.063  -8.743  18.246  1.00 42.74 LIG 0.00  A 
ATOM     22  CE1 PHE E  45      18.870  -8.928  17.127  1.00 41.89 LIG 0.00  A 
ATOM     23  CD1 PHE E  45      20.206  -9.303  17.287  1.00 42.01 LIG 0.01  A 
ENDBRANCH 17 18
ENDBRANCH 9 17
ENDBRANCH 6 9
ENDBRANCH 1 5
BRANCH 1 24
ATOM     24  N   SER E  44      19.835 -13.361  15.504  1.00 46.50 LIG-0.34  N 
ATOM     25  C   PHE E  43      20.635 -13.762  14.540  1.00 47.40 LIG 0.24  C 
ATOM     26 O    PHE E  43      21.699 -14.329  14.773  1.00 45.80 LIG-0.27  OA
ATOM     27 H    SER E  44      19.093 -12.940  15.399  1.00 46.50 LIG 0.16  HD
BRANCH 25 28
ATOM     28  CA  PHE E  43      20.212 -13.449  13.122  1.00 47.87 LIG 0.18  C 
BRANCH 28 29
ATOM     29  N   PHE E  43      21.311 -12.597  12.772  1.00 51.92 LIG-0.35  N 
ATOM     30  C   GLY E  42      21.280 -11.554  11.963  1.00 55.92 LIG 0.24  C 
ATOM     31 O    GLY E  42      20.289 -11.136  11.350  1.00 57.26 LIG-0.27  OA
ATOM     32 H    PHE E  43      22.040 -12.838  13.161  1.00 51.92 LIG 0.16  HD
BRANCH 30 33
ATOM     33  CA  GLY E  42      22.635 -10.899  11.867  1.00 58.33 LIG 0.33  C 
BRANCH 33 34
ATOM     34  N   GLY E  42      22.836 -10.094  10.695  1.00 60.94 LIG-0.07  N 
ATOM     35 H3   GLY E  42      23.174  -9.305  10.931  1.00 60.94 LIG 0.27  HD
ATOM     36 H1   GLY E  42      23.402 -10.507  10.145  1.00 60.94 LIG 0.27  HD
ATOM     37 H2   GLY E  42      22.057  -9.972  10.282  1.00 60.94 LIG 0.27  HD
ENDBRANCH 33 34
ENDBRANCH 30 33
ENDBRANCH 28 29
BRANCH 28 38
ATOM     38  CB  PHE E  43      20.220 -14.741  12.310  1.00 42.32 LIG 0.07  C 
BRANCH 38 39
ATOM     39  CG  PHE E  43      20.290 -14.562  10.805  1.00 35.12 LIG-0.06  A 
ATOM     40  CD1 PHE E  43      21.506 -14.769  10.172  1.00 34.02 LIG 0.01  A 
ATOM     41  CE1 PHE E  43      21.647 -14.656   8.786  1.00 29.46 LIG 0.00  A 
ATOM     42  CZ  PHE E  43      20.549 -14.329   7.999  1.00 28.92 LIG 0.00  A 
ATOM     43  CE2 PHE E  43      19.305 -14.117   8.609  1.00 30.40 LIG 0.00  A 
ATOM     44  CD2 PHE E  43      19.176 -14.232  10.021  1.00 32.72 LIG 0.01  A 
ENDBRANCH 38 39
ENDBRANCH 28 38
ENDBRANCH 25 28
ENDBRANCH 1 24
TORSDOF 16
ENDMDL
MODEL 38
USER: ADFR SOLUTION from run 159
USER: SCORE 13.880463 LL:  -3.001 LR: -11.906 RR:   0.000 FEB:  -7.134
USER: RMSD 9.944244
USER: SEED 158
USER: STATUS no improvement in best 10 clusters for 5 generations
USER: GENES 18
USER: genes 0 Translation |==|  0.33472 0.33699 0.31136
USER: genes 1 Rotation |==|  0.80974 0.76697 0.54904 0.78352
USER: genes 2 Torsion [C]-CA--CB-[OG] |==|  0.12136
USER: genes 3 Torsion [CA]-CB--OG-[HG] |==|  0.36793
USER: genes 4 Torsion [N]-CA--C-[N] |==|  0.94572
USER: genes 5 Torsion [C]-N--CA-[C] |==|  0.66748
USER: genes 6 Torsion [N]-CA--C-[N] |==|  0.35559
USER: genes 7 Torsion [C]-N--CA-[C] |==|  0.60159
USER: genes 8 Torsion [N]-CA--C-[O] |==|  0.04943
USER: genes 9 Torsion [N]-CA--CB-[CG] |==|  0.40091
USER: genes 10 Torsion [CA]-CB--CG-[CD1] |==|  0.65384
USER: genes 11 Torsion [CB]-CA--N-[C] |==|  0.24444
USER: genes 12 Torsion [N]-C--CA-[N] |==|  0.89814
USER: genes 13 Torsion [C]-CA--N-[C] |==|  0.78081
USER: genes 14 Torsion [N]-C--CA-[N] |==|  0.17935
USER: genes 15 Torsion [C]-CA--N-[H2] |==|  0.86295
USER: genes 16 Torsion [C]-CA--CB-[CG] |==|  0.53448
USER: genes 17 Torsion [CA]-CB--CG-[CD1] |==|  0.63478
ROOT
ATOM      1  CA  SER E  44      21.251 -12.320  12.811  1.00 44.79 LIG 0.20  C 
ENDROOT
BRANCH 1 2
ATOM      2  CB  SER E  44      20.762 -11.500  11.618  1.00 46.10 LIG 0.20  C 
BRANCH 2 3
ATOM      3 OG   SER E  44      21.663 -10.447  11.345  1.00 47.85 LIG-0.40  OA
ATOM      4 HG   SER E  44      21.832 -10.428  10.522  1.00 47.85 LIG 0.21  HD
ENDBRANCH 2 3
ENDBRANCH 1 2
BRANCH 1 5
ATOM      5  C   SER E  44      21.736 -11.395  13.905  1.00 42.78 LIG 0.24  C 
ATOM      6  N   PHE E  45      20.905 -11.252  14.926  1.00 43.36 LIG-0.35  N 
ATOM      7 H    PHE E  45      20.136 -11.634  14.980  1.00 43.36 LIG 0.16  HD
ATOM      8 O    SER E  44      22.814 -10.804  13.820  1.00 37.54 LIG-0.27  OA
BRANCH 6 9
ATOM      9  CA  PHE E  45      21.243 -10.415  16.065  1.00 46.68 LIG 0.18  C 
BRANCH 9 10
ATOM     10  C   PHE E  45      21.255 -11.286  17.313  1.00 48.11 LIG 0.24  C 
ATOM     11 O    PHE E  45      20.292 -12.006  17.586  1.00 49.85 LIG-0.27  OA
ATOM     12  N   GLY E  46      22.340 -11.230  18.074  1.00 50.71 LIG-0.35  N 
ATOM     13 H    GLY E  46      23.029 -10.739  17.919  1.00 50.71 LIG 0.16  HD
BRANCH 12 14
ATOM     14  CA  GLY E  46      22.409 -12.045  19.271  1.00 54.23 LIG 0.21  C 
BRANCH 14 15
ATOM     15  C   GLY E  46      23.117 -11.349  20.411  1.00 55.55 LIG 0.21  C 
ATOM     16 O    GLY E  46      23.243 -10.111  20.339  1.00 59.11 LIG-0.29  OA
ENDBRANCH 14 15
ENDBRANCH 12 14
ENDBRANCH 9 10
BRANCH 9 17
ATOM     17  CB  PHE E  45      20.225  -9.279  16.221  1.00 43.03 LIG 0.07  C 
BRANCH 17 18
ATOM     18  CG  PHE E  45      19.931  -8.919  17.655  1.00 41.93 LIG-0.06  A 
ATOM     19  CD2 PHE E  45      20.955  -8.541  18.522  1.00 42.38 LIG 0.01  A 
ATOM     20  CE2 PHE E  45      20.678  -8.179  19.844  1.00 42.73 LIG 0.00  A 
ATOM     21  CZ  PHE E  45      19.366  -8.197  20.307  1.00 42.74 LIG 0.00  A 
ATOM     22  CE1 PHE E  45      18.335  -8.572  19.451  1.00 41.89 LIG 0.00  A 
ATOM     23  CD1 PHE E  45      18.622  -8.931  18.132  1.00 42.01 LIG 0.01  A 
ENDBRANCH 17 18
ENDBRANCH 9 17
ENDBRANCH 6 9
ENDBRANCH 1 5
BRANCH 1 24
ATOM     24  N   SER E  44      20.207 -13.215  13.262  1.00 46.50 LIG-0.34  N 
ATOM     25  C   PHE E  43      20.124 -14.403  12.704  1.00 47.40 LIG 0.24  C 
ATOM     26 O    PHE E  43      20.879 -14.749  11.800  1.00 45.80 LIG-0.27  OA
ATOM     27 H    SER E  44      19.692 -12.913  13.881  1.00 46.50 LIG 0.16  HD
BRANCH 25 28
ATOM     28  CA  PHE E  43      19.020 -15.315  13.191  1.00 47.87 LIG 0.18  C 
BRANCH 28 29
ATOM     29  N   PHE E  43      19.052 -14.943  14.575  1.00 51.92 LIG-0.35  N 
ATOM     30  C   GLY E  42      19.916 -15.350  15.487  1.00 55.92 LIG 0.24  C 
ATOM     31 O    GLY E  42      20.850 -16.143  15.303  1.00 57.26 LIG-0.27  OA
ATOM     32 H    PHE E  43      18.419 -14.395  14.775  1.00 51.92 LIG 0.16  HD
BRANCH 30 33
ATOM     33  CA  GLY E  42      19.635 -14.716  16.826  1.00 58.33 LIG 0.33  C 
BRANCH 33 34
ATOM     34  N   GLY E  42      18.378 -15.081  17.415  1.00 60.94 LIG-0.07  N 
ATOM     35 H3   GLY E  42      18.409 -15.930  17.681  1.00 60.94 LIG 0.27  HD
ATOM     36 H1   GLY E  42      18.215 -14.557  18.117  1.00 60.94 LIG 0.27  HD
ATOM     37 H2   GLY E  42      17.729 -14.982  16.815  1.00 60.94 LIG 0.27  HD
ENDBRANCH 33 34
ENDBRANCH 30 33
ENDBRANCH 28 29
BRANCH 28 38
ATOM     38  CB  PHE E  43      17.711 -14.899  12.526  1.00 42.32 LIG 0.07  C 
BRANCH 38 39
ATOM     39  CG  PHE E  43      16.456 -15.514  13.119  1.00 35.12 LIG-0.06  A 
ATOM     40  CD1 PHE E  43      15.532 -16.085  12.259  1.00 34.02 LIG 0.01  A 
ATOM     41  CE1 PHE E  43      14.368 -16.700  12.727  1.00 29.46 LIG 0.00  A 
ATOM     42  CZ  PHE E  43      14.109 -16.753  14.092  1.00 28.92 LIG 0.00  A 
ATOM     43  CE2 PHE E  43      15.027 -16.188  14.988  1.00 30.40 LIG 0.00  A 
ATOM     44  CD2 PHE E  43      16.206 -15.563  14.497  1.00 32.72 LIG 0.01  A 
ENDBRANCH 38 39
ENDBRANCH 28 38
ENDBRANCH 25 28
ENDBRANCH 1 24
TORSDOF 16
ENDMDL
MODEL 39
USER: ADFR SOLUTION from run 130
USER: SCORE 14.178789 LL:  -3.264 LR: -11.889 RR:   0.000 FEB:  -7.117
USER: RMSD 8.295318
USER: SEED 129
USER: STATUS no improvement in best 1 clusters for 5 generations
USER: GENES 18
USER: genes 0 Translation |==|  0.46254 0.54811 0.56072
USER: genes 1 Rotation |==|  0.31460 0.63935 0.93477 0.58479
USER: genes 2 Torsion [C]-CA--CB-[OG] |==|  0.81779
USER: genes 3 Torsion [CA]-CB--OG-[HG] |==|  0.23569
USER: genes 4 Torsion [N]-CA--C-[N] |==|  0.59112
USER: genes 5 Torsion [C]-N--CA-[C] |==|  0.81991
USER: genes 6 Torsion [N]-CA--C-[N] |==|  0.86982
USER: genes 7 Torsion [C]-N--CA-[C] |==|  0.70206
USER: genes 8 Torsion [N]-CA--C-[O] |==|  0.97206
USER: genes 9 Torsion [N]-CA--CB-[CG] |==|  0.71863
USER: genes 10 Torsion [CA]-CB--CG-[CD1] |==|  0.01852
USER: genes 11 Torsion [CB]-CA--N-[C] |==|  0.18805
USER: genes 12 Torsion [N]-C--CA-[N] |==|  0.35556
USER: genes 13 Torsion [C]-CA--N-[C] |==|  0.78942
USER: genes 14 Torsion [N]-C--CA-[N] |==|  0.66477
USER: genes 15 Torsion [C]-CA--N-[H2] |==|  0.02319
USER: genes 16 Torsion [C]-CA--CB-[CG] |==|  0.14833
USER: genes 17 Torsion [CA]-CB--CG-[CD1] |==|  0.59169
ROOT
ATOM      1  CA  SER E  44      25.086  -5.987  20.292  1.00 44.79 LIG 0.20  C 
ENDROOT
BRANCH 1 2
ATOM      2  CB  SER E  44      25.186  -5.336  18.913  1.00 46.10 LIG 0.20  C 
BRANCH 2 3
ATOM      3 OG   SER E  44      26.090  -6.052  18.098  1.00 47.85 LIG-0.40  OA
ATOM      4 HG   SER E  44      25.690  -6.694  17.732  1.00 47.85 LIG 0.21  HD
ENDBRANCH 2 3
ENDBRANCH 1 2
BRANCH 1 5
ATOM      5  C   SER E  44      24.468  -7.361  20.166  1.00 42.78 LIG 0.24  C 
ATOM      6  N   PHE E  45      23.708  -7.538  19.097  1.00 43.36 LIG-0.35  N 
ATOM      7 H    PHE E  45      23.551  -6.928  18.510  1.00 43.36 LIG 0.16  HD
ATOM      8 O    SER E  44      24.646  -8.229  21.022  1.00 37.54 LIG-0.27  OA
BRANCH 6 9
ATOM      9  CA  PHE E  45      23.065  -8.814  18.826  1.00 46.68 LIG 0.18  C 
BRANCH 9 10
ATOM     10  C   PHE E  45      24.149  -9.851  18.568  1.00 48.11 LIG 0.24  C 
ATOM     11 O    PHE E  45      24.104 -10.955  19.113  1.00 49.85 LIG-0.27  OA
ATOM     12  N   GLY E  46      25.124  -9.506  17.737  1.00 50.71 LIG-0.35  N 
ATOM     13 H    GLY E  46      25.192  -8.747  17.340  1.00 50.71 LIG 0.16  HD
BRANCH 12 14
ATOM     14  CA  GLY E  46      26.178 -10.459  17.448  1.00 54.23 LIG 0.21  C 
BRANCH 14 15
ATOM     15  C   GLY E  46      27.489 -10.094  18.107  1.00 55.55 LIG 0.21  C 
ATOM     16 O    GLY E  46      27.575  -8.969  18.634  1.00 59.11 LIG-0.29  OA
ENDBRANCH 14 15
ENDBRANCH 12 14
ENDBRANCH 9 10
BRANCH 9 17
ATOM     17  CB  PHE E  45      22.136  -8.705  17.613  1.00 43.03 LIG 0.07  C 
BRANCH 17 18
ATOM     18  CG  PHE E  45      20.678  -8.579  17.973  1.00 41.93 LIG-0.06  A 
ATOM     19  CD2 PHE E  45      19.690  -8.638  16.991  1.00 42.38 LIG 0.01  A 
ATOM     20  CE2 PHE E  45      18.337  -8.550  17.329  1.00 42.73 LIG 0.00  A 
ATOM     21  CZ  PHE E  45      17.963  -8.400  18.661  1.00 42.74 LIG 0.00  A 
ATOM     22  CE1 PHE E  45      18.940  -8.340  19.651  1.00 41.89 LIG 0.00  A 
ATOM     23  CD1 PHE E  45      20.290  -8.430  19.303  1.00 42.01 LIG 0.01  A 
ENDBRANCH 17 18
ENDBRANCH 9 17
ENDBRANCH 6 9
ENDBRANCH 1 5
BRANCH 1 24
ATOM     24  N   SER E  44      26.389  -6.019  20.923  1.00 46.50 LIG-0.34  N 
ATOM     25  C   PHE E  43      26.933  -4.877  21.280  1.00 47.40 LIG 0.24  C 
ATOM     26 O    PHE E  43      26.385  -3.800  21.061  1.00 45.80 LIG-0.27  OA
ATOM     27 H    SER E  44      26.737  -6.798  21.030  1.00 46.50 LIG 0.16  HD
BRANCH 25 28
ATOM     28  CA  PHE E  43      28.297  -4.940  21.931  1.00 47.87 LIG 0.18  C 
BRANCH 28 29
ATOM     29  N   PHE E  43      28.963  -3.993  21.085  1.00 51.92 LIG-0.35  N 
ATOM     30  C   GLY E  42      29.381  -4.190  19.849  1.00 55.92 LIG 0.24  C 
ATOM     31 O    GLY E  42      29.280  -5.243  19.204  1.00 57.26 LIG-0.27  OA
ATOM     32 H    PHE E  43      29.074  -3.235  21.478  1.00 51.92 LIG 0.16  HD
BRANCH 30 33
ATOM     33  CA  GLY E  42      30.015  -2.944  19.282  1.00 58.33 LIG 0.33  C 
BRANCH 33 34
ATOM     34  N   GLY E  42      29.389  -2.434  18.095  1.00 60.94 LIG-0.07  N 
ATOM     35 H3   GLY E  42      29.207  -1.569  18.203  1.00 60.94 LIG 0.27  HD
ATOM     36 H1   GLY E  42      29.939  -2.537  17.402  1.00 60.94 LIG 0.27  HD
ATOM     37 H2   GLY E  42      28.634  -2.879  17.943  1.00 60.94 LIG 0.27  HD
ENDBRANCH 33 34
ENDBRANCH 30 33
ENDBRANCH 28 29
BRANCH 28 38
ATOM     38  CB  PHE E  43      28.181  -4.431  23.365  1.00 42.32 LIG 0.07  C 
BRANCH 38 39
ATOM     39  CG  PHE E  43      27.119  -5.108  24.212  1.00 35.12 LIG-0.06  A 
ATOM     40  CD1 PHE E  43      26.466  -4.356  25.176  1.00 34.02 LIG 0.01  A 
ATOM     41  CE1 PHE E  43      25.454  -4.897  25.974  1.00 29.46 LIG 0.00  A 
ATOM     42  CZ  PHE E  43      25.075  -6.224  25.813  1.00 28.92 LIG 0.00  A 
ATOM     43  CE2 PHE E  43      25.713  -7.009  24.844  1.00 30.40 LIG 0.00  A 
ATOM     44  CD2 PHE E  43      26.744  -6.447  24.040  1.00 32.72 LIG 0.01  A 
ENDBRANCH 38 39
ENDBRANCH 28 38
ENDBRANCH 25 28
ENDBRANCH 1 24
TORSDOF 16
ENDMDL
MODEL 40
USER: ADFR SOLUTION from run 92
USER: SCORE 13.994518 LL:  -3.112 LR: -11.867 RR:   0.000 FEB:  -7.094
USER: RMSD 9.689550
USER: SEED 91
USER: STATUS no improvement in best 10 clusters for 5 generations
USER: GENES 18
USER: genes 0 Translation |==|  0.31247 0.32647 0.35772
USER: genes 1 Rotation |==|  0.44763 0.12042 0.47361 0.82013
USER: genes 2 Torsion [C]-CA--CB-[OG] |==|  0.34977
USER: genes 3 Torsion [CA]-CB--OG-[HG] |==|  0.05982
USER: genes 4 Torsion [N]-CA--C-[N] |==|  0.49267
USER: genes 5 Torsion [C]-N--CA-[C] |==|  0.69333
USER: genes 6 Torsion [N]-CA--C-[N] |==|  0.40224
USER: genes 7 Torsion [C]-N--CA-[C] |==|  0.66568
USER: genes 8 Torsion [N]-CA--C-[O] |==|  0.13723
USER: genes 9 Torsion [N]-CA--CB-[CG] |==|  0.24034
USER: genes 10 Torsion [CA]-CB--CG-[CD1] |==|  0.70390
USER: genes 11 Torsion [CB]-CA--N-[C] |==|  0.48949
USER: genes 12 Torsion [N]-C--CA-[N] |==|  0.37071
USER: genes 13 Torsion [C]-CA--N-[C] |==|  0.63259
USER: genes 14 Torsion [N]-C--CA-[N] |==|  0.30303
USER: genes 15 Torsion [C]-CA--N-[H2] |==|  0.68450
USER: genes 16 Torsion [C]-CA--CB-[CG] |==|  0.07358
USER: genes 17 Torsion [CA]-CB--CG-[CD1] |==|  0.19006
ROOT
ATOM      1  CA  SER E  44      20.584 -12.636  14.201  1.00 44.79 LIG 0.20  C 
ENDROOT
BRANCH 1 2
ATOM      2  CB  SER E  44      20.611 -13.666  15.329  1.00 46.10 LIG 0.20  C 
BRANCH 2 3
ATOM      3 OG   SER E  44      19.295 -14.040  15.682  1.00 47.85 LIG-0.40  OA
ATOM      4 HG   SER E  44      18.775 -13.871  15.045  1.00 47.85 LIG 0.21  HD
ENDBRANCH 2 3
ENDBRANCH 1 2
BRANCH 1 5
ATOM      5  C   SER E  44      21.376 -11.413  14.606  1.00 42.78 LIG 0.24  C 
ATOM      6  N   PHE E  45      20.942 -10.798  15.695  1.00 43.36 LIG-0.35  N 
ATOM      7 H    PHE E  45      20.254 -11.048  16.148  1.00 43.36 LIG 0.16  HD
ATOM      8 O    SER E  44      22.335 -11.016  13.941  1.00 37.54 LIG-0.27  OA
BRANCH 6 9
ATOM      9  CA  PHE E  45      21.615  -9.623  16.222  1.00 46.68 LIG 0.18  C 
BRANCH 9 10
ATOM     10  C   PHE E  45      22.290 -10.004  17.532  1.00 48.11 LIG 0.24  C 
ATOM     11 O    PHE E  45      21.767 -10.820  18.293  1.00 49.85 LIG-0.27  OA
ATOM     12  N   GLY E  46      23.451  -9.421  17.801  1.00 50.71 LIG-0.35  N 
ATOM     13 H    GLY E  46      23.845  -8.846  17.297  1.00 50.71 LIG 0.16  HD
BRANCH 12 14
ATOM     14  CA  GLY E  46      24.142  -9.753  19.031  1.00 54.23 LIG 0.21  C 
BRANCH 14 15
ATOM     15  C   GLY E  46      24.360  -8.549  19.920  1.00 55.55 LIG 0.21  C 
ATOM     16 O    GLY E  46      23.378  -7.818  20.149  1.00 59.11 LIG-0.29  OA
ENDBRANCH 14 15
ENDBRANCH 12 14
ENDBRANCH 9 10
BRANCH 9 17
ATOM     17  CB  PHE E  45      20.614  -8.485  16.452  1.00 43.03 LIG 0.07  C 
BRANCH 17 18
ATOM     18  CG  PHE E  45      19.939  -8.533  17.798  1.00 41.93 LIG-0.06  A 
ATOM     19  CD2 PHE E  45      20.622  -8.163  18.956  1.00 42.38 LIG 0.01  A 
ATOM     20  CE2 PHE E  45      19.986  -8.180  20.200  1.00 42.73 LIG 0.00  A 
ATOM     21  CZ  PHE E  45      18.654  -8.571  20.293  1.00 42.74 LIG 0.00  A 
ATOM     22  CE1 PHE E  45      17.960  -8.941  19.145  1.00 41.89 LIG 0.00  A 
ATOM     23  CD1 PHE E  45      18.605  -8.921  17.905  1.00 42.01 LIG 0.01  A 
ENDBRANCH 17 18
ENDBRANCH 9 17
ENDBRANCH 6 9
ENDBRANCH 1 5
BRANCH 1 24
ATOM     24  N   SER E  44      21.067 -13.229  12.973  1.00 46.50 LIG-0.34  N 
ATOM     25  C   PHE E  43      21.040 -12.499  11.879  1.00 47.40 LIG 0.24  C 
ATOM     26 O    PHE E  43      20.588 -11.357  11.873  1.00 45.80 LIG-0.27  OA
ATOM     27 H    SER E  44      21.350 -14.039  13.029  1.00 46.50 LIG 0.16  HD
BRANCH 25 28
ATOM     28  CA  PHE E  43      21.545 -13.146  10.608  1.00 47.87 LIG 0.18  C 
BRANCH 28 29
ATOM     29  N   PHE E  43      20.470 -12.750   9.746  1.00 51.92 LIG-0.35  N 
ATOM     30  C   GLY E  42      19.802 -13.518   8.905  1.00 55.92 LIG 0.24  C 
ATOM     31 O    GLY E  42      19.999 -14.725   8.707  1.00 57.26 LIG-0.27  OA
ATOM     32 H    PHE E  43      20.285 -11.913   9.827  1.00 51.92 LIG 0.16  HD
BRANCH 30 33
ATOM     33  CA  GLY E  42      18.727 -12.739   8.190  1.00 58.33 LIG 0.33  C 
BRANCH 33 34
ATOM     34  N   GLY E  42      18.981 -12.495   6.799  1.00 60.94 LIG-0.07  N 
ATOM     35 H3   GLY E  42      19.713 -12.934   6.549  1.00 60.94 LIG 0.27  HD
ATOM     36 H1   GLY E  42      18.287 -12.777   6.316  1.00 60.94 LIG 0.27  HD
ATOM     37 H2   GLY E  42      19.098 -11.623   6.667  1.00 60.94 LIG 0.27  HD
ENDBRANCH 33 34
ENDBRANCH 30 33
ENDBRANCH 28 29
BRANCH 28 38
ATOM     38  CB  PHE E  43      22.861 -12.485  10.209  1.00 42.32 LIG 0.07  C 
BRANCH 38 39
ATOM     39  CG  PHE E  43      23.656 -11.880  11.351  1.00 35.12 LIG-0.06  A 
ATOM     40  CD1 PHE E  43      24.225 -12.734  12.283  1.00 34.02 LIG 0.01  A 
ATOM     41  CE1 PHE E  43      24.999 -12.258  13.345  1.00 29.46 LIG 0.00  A 
ATOM     42  CZ  PHE E  43      25.219 -10.893  13.490  1.00 28.92 LIG 0.00  A 
ATOM     43  CE2 PHE E  43      24.661 -10.005  12.562  1.00 30.40 LIG 0.00  A 
ATOM     44  CD2 PHE E  43      23.873 -10.502  11.487  1.00 32.72 LIG 0.01  A 
ENDBRANCH 38 39
ENDBRANCH 28 38
ENDBRANCH 25 28
ENDBRANCH 1 24
TORSDOF 16
ENDMDL
MODEL 41
USER: ADFR SOLUTION from run 79
USER: SCORE 13.553227 LL:  -3.047 LR: -11.858 RR:   0.000 FEB:  -7.085
USER: RMSD 8.255368
USER: SEED 78
USER: STATUS no improvement in best 12 clusters for 5 generations
USER: GENES 18
USER: genes 0 Translation |==|  0.48319 0.51421 0.52138
USER: genes 1 Rotation |==|  0.72573 0.44008 0.92249 0.63021
USER: genes 2 Torsion [C]-CA--CB-[OG] |==|  0.76010
USER: genes 3 Torsion [CA]-CB--OG-[HG] |==|  0.32253
USER: genes 4 Torsion [N]-CA--C-[N] |==|  0.04656
USER: genes 5 Torsion [C]-N--CA-[C] |==|  0.58889
USER: genes 6 Torsion [N]-CA--C-[N] |==|  0.80519
USER: genes 7 Torsion [C]-N--CA-[C] |==|  0.49065
USER: genes 8 Torsion [N]-CA--C-[O] |==|  0.09468
USER: genes 9 Torsion [N]-CA--CB-[CG] |==|  0.64126
USER: genes 10 Torsion [CA]-CB--CG-[CD1] |==|  0.09664
USER: genes 11 Torsion [CB]-CA--N-[C] |==|  0.16958
USER: genes 12 Torsion [N]-C--CA-[N] |==|  0.89285
USER: genes 13 Torsion [C]-CA--N-[C] |==|  0.65913
USER: genes 14 Torsion [N]-C--CA-[N] |==|  0.93821
USER: genes 15 Torsion [C]-CA--N-[H2] |==|  0.29230
USER: genes 16 Torsion [C]-CA--CB-[CG] |==|  0.56555
USER: genes 17 Torsion [CA]-CB--CG-[CD1] |==|  0.70105
ROOT
ATOM      1  CA  SER E  44      25.706  -7.004  19.111  1.00 44.79 LIG 0.20  C 
ENDROOT
BRANCH 1 2
ATOM      2  CB  SER E  44      25.514  -5.591  19.661  1.00 46.10 LIG 0.20  C 
BRANCH 2 3
ATOM      3 OG   SER E  44      25.086  -4.720  18.634  1.00 47.85 LIG-0.40  OA
ATOM      4 HG   SER E  44      24.316  -4.435  18.811  1.00 47.85 LIG 0.21  HD
ENDBRANCH 2 3
ENDBRANCH 1 2
BRANCH 1 5
ATOM      5  C   SER E  44      24.392  -7.752  19.151  1.00 42.78 LIG 0.24  C 
ATOM      6  N   PHE E  45      24.149  -8.514  18.095  1.00 43.36 LIG-0.35  N 
ATOM      7 H    PHE E  45      24.676  -8.582  17.418  1.00 43.36 LIG 0.16  HD
ATOM      8 O    SER E  44      23.606  -7.627  20.091  1.00 37.54 LIG-0.27  OA
BRANCH 6 9
ATOM      9  CA  PHE E  45      22.939  -9.313  17.999  1.00 46.68 LIG 0.18  C 
BRANCH 9 10
ATOM     10  C   PHE E  45      23.259 -10.575  17.211  1.00 48.11 LIG 0.24  C 
ATOM     11 O    PHE E  45      23.289 -11.673  17.769  1.00 49.85 LIG-0.27  OA
ATOM     12  N   GLY E  46      23.496 -10.428  15.914  1.00 50.71 LIG-0.35  N 
ATOM     13 H    GLY E  46      23.487  -9.680  15.489  1.00 50.71 LIG 0.16  HD
BRANCH 12 14
ATOM     14  CA  GLY E  46      23.798 -11.598  15.112  1.00 54.23 LIG 0.21  C 
BRANCH 14 15
ATOM     15  C   GLY E  46      23.962 -11.273  13.645  1.00 55.55 LIG 0.21  C 
ATOM     16 O    GLY E  46      24.465 -10.171  13.353  1.00 59.11 LIG-0.29  OA
ENDBRANCH 14 15
ENDBRANCH 12 14
ENDBRANCH 9 10
BRANCH 9 17
ATOM     17  CB  PHE E  45      21.823  -8.523  17.306  1.00 43.03 LIG 0.07  C 
BRANCH 17 18
ATOM     18  CG  PHE E  45      20.522  -8.515  18.067  1.00 41.93 LIG-0.06  A 
ATOM     19  CD2 PHE E  45      19.300  -8.555  17.395  1.00 42.38 LIG 0.01  A 
ATOM     20  CE2 PHE E  45      18.095  -8.576  18.102  1.00 42.73 LIG 0.00  A 
ATOM     21  CZ  PHE E  45      18.106  -8.556  19.493  1.00 42.74 LIG 0.00  A 
ATOM     22  CE1 PHE E  45      19.318  -8.517  20.175  1.00 41.89 LIG 0.00  A 
ATOM     23  CD1 PHE E  45      20.518  -8.496  19.460  1.00 42.01 LIG 0.01  A 
ENDBRANCH 17 18
ENDBRANCH 9 17
ENDBRANCH 6 9
ENDBRANCH 1 5
BRANCH 1 24
ATOM     24  N   SER E  44      26.273  -6.948  17.781  1.00 46.50 LIG-0.34  N 
ATOM     25  C   PHE E  43      27.455  -6.391  17.633  1.00 47.40 LIG 0.24  C 
ATOM     26 O    PHE E  43      28.060  -5.894  18.579  1.00 45.80 LIG-0.27  OA
ATOM     27 H    SER E  44      25.796  -7.289  17.152  1.00 46.50 LIG 0.16  HD
BRANCH 25 28
ATOM     28  CA  PHE E  43      28.021  -6.340  16.232  1.00 47.87 LIG 0.18  C 
BRANCH 28 29
ATOM     29  N   PHE E  43      27.573  -7.629  15.792  1.00 51.92 LIG-0.35  N 
ATOM     30  C   GLY E  42      28.320  -8.615  15.331  1.00 55.92 LIG 0.24  C 
ATOM     31 O    GLY E  42      29.550  -8.591  15.187  1.00 57.26 LIG-0.27  OA
ATOM     32 H    PHE E  43      26.718  -7.711  15.858  1.00 51.92 LIG 0.16  HD
BRANCH 30 33
ATOM     33  CA  GLY E  42      27.482  -9.823  14.993  1.00 58.33 LIG 0.33  C 
BRANCH 33 34
ATOM     34  N   GLY E  42      26.214  -9.885  15.663  1.00 60.94 LIG-0.07  N 
ATOM     35 H3   GLY E  42      26.083 -10.708  15.976  1.00 60.94 LIG 0.27  HD
ATOM     36 H1   GLY E  42      26.206  -9.305  16.339  1.00 60.94 LIG 0.27  HD
ATOM     37 H2   GLY E  42      25.565  -9.680  15.089  1.00 60.94 LIG 0.27  HD
ENDBRANCH 33 34
ENDBRANCH 30 33
ENDBRANCH 28 29
BRANCH 28 38
ATOM     38  CB  PHE E  43      27.335  -5.213  15.465  1.00 42.32 LIG 0.07  C 
BRANCH 38 39
ATOM     39  CG  PHE E  43      27.344  -5.355  13.954  1.00 35.12 LIG-0.06  A 
ATOM     40  CD1 PHE E  43      28.170  -4.519  13.219  1.00 34.02 LIG 0.01  A 
ATOM     41  CE1 PHE E  43      28.260  -4.608  11.827  1.00 29.46 LIG 0.00  A 
ATOM     42  CZ  PHE E  43      27.511  -5.555  11.139  1.00 28.92 LIG 0.00  A 
ATOM     43  CE2 PHE E  43      26.670  -6.418  11.855  1.00 30.40 LIG 0.00  A 
ATOM     44  CD2 PHE E  43      26.585  -6.315  13.271  1.00 32.72 LIG 0.01  A 
ENDBRANCH 38 39
ENDBRANCH 28 38
ENDBRANCH 25 28
ENDBRANCH 1 24
TORSDOF 16
ENDMDL
MODEL 42
USER: ADFR SOLUTION from run 53
USER: SCORE 15.281100 LL:  -3.714 LR: -11.859 RR:   0.000 FEB:  -7.086
USER: RMSD 9.592050
USER: SEED 52
USER: STATUS no improvement in best 4 clusters for 5 generations
USER: GENES 18
USER: genes 0 Translation |==|  0.33024 0.26670 0.50226
USER: genes 1 Rotation |==|  0.40246 0.85633 0.29840 0.76995
USER: genes 2 Torsion [C]-CA--CB-[OG] |==|  0.93741
USER: genes 3 Torsion [CA]-CB--OG-[HG] |==|  0.83750
USER: genes 4 Torsion [N]-CA--C-[N] |==|  0.07748
USER: genes 5 Torsion [C]-N--CA-[C] |==|  0.82948
USER: genes 6 Torsion [N]-CA--C-[N] |==|  0.37450
USER: genes 7 Torsion [C]-N--CA-[C] |==|  0.69838
USER: genes 8 Torsion [N]-CA--C-[O] |==|  0.87580
USER: genes 9 Torsion [N]-CA--CB-[CG] |==|  0.79590
USER: genes 10 Torsion [CA]-CB--CG-[CD1] |==|  0.25844
USER: genes 11 Torsion [CB]-CA--N-[C] |==|  0.18176
USER: genes 12 Torsion [N]-C--CA-[N] |==|  0.41745
USER: genes 13 Torsion [C]-CA--N-[C] |==|  0.58889
USER: genes 14 Torsion [N]-C--CA-[N] |==|  0.49779
USER: genes 15 Torsion [C]-CA--N-[H2] |==|  0.25949
USER: genes 16 Torsion [C]-CA--CB-[CG] |==|  0.12399
USER: genes 17 Torsion [CA]-CB--CG-[CD1] |==|  0.23905
ROOT
ATOM      1  CA  SER E  44      21.117 -14.429  18.538  1.00 44.79 LIG 0.20  C 
ENDROOT
BRANCH 1 2
ATOM      2  CB  SER E  44      20.196 -15.621  18.790  1.00 46.10 LIG 0.20  C 
BRANCH 2 3
ATOM      3 OG   SER E  44      18.948 -15.418  18.161  1.00 47.85 LIG-0.40  OA
ATOM      4 HG   SER E  44      18.598 -14.713  18.453  1.00 47.85 LIG 0.21  HD
ENDBRANCH 2 3
ENDBRANCH 1 2
BRANCH 1 5
ATOM      5  C   SER E  44      20.670 -13.689  17.297  1.00 42.78 LIG 0.24  C 
ATOM      6  N   PHE E  45      20.943 -12.393  17.289  1.00 43.36 LIG-0.35  N 
ATOM      7 H    PHE E  45      21.331 -11.978  17.935  1.00 43.36 LIG 0.16  HD
ATOM      8 O    SER E  44      20.071 -14.261  16.385  1.00 37.54 LIG-0.27  OA
BRANCH 6 9
ATOM      9  CA  PHE E  45      20.596 -11.553  16.154  1.00 46.68 LIG 0.18  C 
BRANCH 9 10
ATOM     10  C   PHE E  45      21.344 -12.067  14.932  1.00 48.11 LIG 0.24  C 
ATOM     11 O    PHE E  45      22.538 -12.364  15.006  1.00 49.85 LIG-0.27  OA
ATOM     12  N   GLY E  46      20.651 -12.176  13.806  1.00 50.71 LIG-0.35  N 
ATOM     13 H    GLY E  46      19.819 -11.977  13.715  1.00 50.71 LIG 0.16  HD
BRANCH 12 14
ATOM     14  CA  GLY E  46      21.311 -12.668  12.613  1.00 54.23 LIG 0.21  C 
BRANCH 14 15
ATOM     15  C   GLY E  46      21.530 -11.586  11.580  1.00 55.55 LIG 0.21  C 
ATOM     16 O    GLY E  46      20.581 -10.813  11.347  1.00 59.11 LIG-0.29  OA
ENDBRANCH 14 15
ENDBRANCH 12 14
ENDBRANCH 9 10
BRANCH 9 17
ATOM     17  CB  PHE E  45      20.969 -10.092  16.429  1.00 43.03 LIG 0.07  C 
BRANCH 17 18
ATOM     18  CG  PHE E  45      20.055  -9.406  17.412  1.00 41.93 LIG-0.06  A 
ATOM     19  CD2 PHE E  45      18.868  -8.810  16.989  1.00 42.38 LIG 0.01  A 
ATOM     20  CE2 PHE E  45      18.007  -8.199  17.905  1.00 42.73 LIG 0.00  A 
ATOM     21  CZ  PHE E  45      18.333  -8.181  19.258  1.00 42.74 LIG 0.00  A 
ATOM     22  CE1 PHE E  45      19.515  -8.774  19.693  1.00 41.89 LIG 0.00  A 
ATOM     23  CD1 PHE E  45      20.369  -9.382  18.769  1.00 42.01 LIG 0.01  A 
ENDBRANCH 17 18
ENDBRANCH 9 17
ENDBRANCH 6 9
ENDBRANCH 1 5
BRANCH 1 24
ATOM     24  N   SER E  44      21.161 -13.577  19.707  1.00 46.50 LIG-0.34  N 
ATOM     25  C   PHE E  43      21.693 -14.061  20.808  1.00 47.40 LIG 0.24  C 
ATOM     26 O    PHE E  43      22.114 -15.213  20.873  1.00 45.80 LIG-0.27  OA
ATOM     27 H    SER E  44      20.831 -12.789  19.613  1.00 46.50 LIG 0.16  HD
BRANCH 25 28
ATOM     28  CA  PHE E  43      21.720 -13.151  22.016  1.00 47.87 LIG 0.18  C 
BRANCH 28 29
ATOM     29  N   PHE E  43      21.642 -14.165  23.027  1.00 51.92 LIG-0.35  N 
ATOM     30  C   GLY E  42      21.064 -14.064  24.210  1.00 55.92 LIG 0.24  C 
ATOM     31 O    GLY E  42      20.493 -13.060  24.659  1.00 57.26 LIG-0.27  OA
ATOM     32 H    PHE E  43      22.030 -14.893  22.782  1.00 51.92 LIG 0.16  HD
BRANCH 30 33
ATOM     33  CA  GLY E  42      21.172 -15.355  24.982  1.00 58.33 LIG 0.33  C 
BRANCH 33 34
ATOM     34  N   GLY E  42      20.583 -15.327  26.291  1.00 60.94 LIG-0.07  N 
ATOM     35 H3   GLY E  42      21.052 -15.849  26.839  1.00 60.94 LIG 0.27  HD
ATOM     36 H1   GLY E  42      20.585 -14.492  26.600  1.00 60.94 LIG 0.27  HD
ATOM     37 H2   GLY E  42      19.745 -15.624  26.246  1.00 60.94 LIG 0.27  HD
ENDBRANCH 33 34
ENDBRANCH 30 33
ENDBRANCH 28 29
BRANCH 28 38
ATOM     38  CB  PHE E  43      23.059 -12.421  22.052  1.00 42.32 LIG 0.07  C 
BRANCH 38 39
ATOM     39  CG  PHE E  43      23.529 -11.858  20.723  1.00 35.12 LIG-0.06  A 
ATOM     40  CD1 PHE E  43      23.087 -10.599  20.348  1.00 34.02 LIG 0.01  A 
ATOM     41  CE1 PHE E  43      23.498  -9.997  19.156  1.00 29.46 LIG 0.00  A 
ATOM     42  CZ  PHE E  43      24.376 -10.661  18.307  1.00 28.92 LIG 0.00  A 
ATOM     43  CE2 PHE E  43      24.843 -11.934  18.660  1.00 30.40 LIG 0.00  A 
ATOM     44  CD2 PHE E  43      24.414 -12.536  19.875  1.00 32.72 LIG 0.01  A 
ENDBRANCH 38 39
ENDBRANCH 28 38
ENDBRANCH 25 28
ENDBRANCH 1 24
TORSDOF 16
ENDMDL
MODEL 43
USER: ADFR SOLUTION from run 12
USER: SCORE 13.716648 LL:  -3.591 LR: -11.843 RR:   0.000 FEB:  -7.071
USER: RMSD 8.616280
USER: SEED 353358
USER: STATUS no improvement in best 11 clusters for 5 generations
USER: GENES 18
USER: genes 0 Translation |==|  0.46494 0.43713 0.50274
USER: genes 1 Rotation |==|  0.68497 0.40504 0.92949 0.64935
USER: genes 2 Torsion [C]-CA--CB-[OG] |==|  0.69899
USER: genes 3 Torsion [CA]-CB--OG-[HG] |==|  0.04076
USER: genes 4 Torsion [N]-CA--C-[N] |==|  0.93954
USER: genes 5 Torsion [C]-N--CA-[C] |==|  0.63428
USER: genes 6 Torsion [N]-CA--C-[N] |==|  0.55709
USER: genes 7 Torsion [C]-N--CA-[C] |==|  0.70284
USER: genes 8 Torsion [N]-CA--C-[O] |==|  0.15443
USER: genes 9 Torsion [N]-CA--CB-[CG] |==|  0.72322
USER: genes 10 Torsion [CA]-CB--CG-[CD1] |==|  0.60716
USER: genes 11 Torsion [CB]-CA--N-[C] |==|  0.24444
USER: genes 12 Torsion [N]-C--CA-[N] |==|  0.93850
USER: genes 13 Torsion [C]-CA--N-[C] |==|  0.66914
USER: genes 14 Torsion [N]-C--CA-[N] |==|  0.02728
USER: genes 15 Torsion [C]-CA--N-[H2] |==|  0.75052
USER: genes 16 Torsion [C]-CA--CB-[CG] |==|  0.68319
USER: genes 17 Torsion [CA]-CB--CG-[CD1] |==|  0.34327
ROOT
ATOM      1  CA  SER E  44      25.158  -9.316  18.552  1.00 44.79 LIG 0.20  C 
ENDROOT
BRANCH 1 2
ATOM      2  CB  SER E  44      25.065  -7.905  19.130  1.00 46.10 LIG 0.20  C 
BRANCH 2 3
ATOM      3 OG   SER E  44      25.451  -6.952  18.162  1.00 47.85 LIG-0.40  OA
ATOM      4 HG   SER E  44      25.466  -7.313  17.403  1.00 47.85 LIG 0.21  HD
ENDBRANCH 2 3
ENDBRANCH 1 2
BRANCH 1 5
ATOM      5  C   SER E  44      23.770  -9.870  18.325  1.00 42.78 LIG 0.24  C 
ATOM      6  N   PHE E  45      23.348  -9.830  17.070  1.00 43.36 LIG-0.35  N 
ATOM      7 H    PHE E  45      23.806  -9.505  16.418  1.00 43.36 LIG 0.16  HD
ATOM      8 O    SER E  44      23.085 -10.296  19.256  1.00 37.54 LIG-0.27  OA
BRANCH 6 9
ATOM      9  CA  PHE E  45      22.045 -10.349  16.692  1.00 46.68 LIG 0.18  C 
BRANCH 9 10
ATOM     10  C   PHE E  45      22.221 -11.247  15.475  1.00 48.11 LIG 0.24  C 
ATOM     11 O    PHE E  45      23.321 -11.733  15.208  1.00 49.85 LIG-0.27  OA
ATOM     12  N   GLY E  46      21.143 -11.474  14.736  1.00 50.71 LIG-0.35  N 
ATOM     13 H    GLY E  46      20.361 -11.151  14.887  1.00 50.71 LIG 0.16  HD
BRANCH 12 14
ATOM     14  CA  GLY E  46      21.252 -12.329  13.570  1.00 54.23 LIG 0.21  C 
BRANCH 14 15
ATOM     15  C   GLY E  46      21.192 -11.555  12.272  1.00 55.55 LIG 0.21  C 
ATOM     16 O    GLY E  46      22.015 -10.633  12.114  1.00 59.11 LIG-0.29  OA
ENDBRANCH 14 15
ENDBRANCH 12 14
ENDBRANCH 9 10
BRANCH 9 17
ATOM     17  CB  PHE E  45      21.080  -9.202  16.369  1.00 43.03 LIG 0.07  C 
BRANCH 17 18
ATOM     18  CG  PHE E  45      20.138  -8.865  17.497  1.00 41.93 LIG-0.06  A 
ATOM     19  CD2 PHE E  45      20.580  -8.857  18.820  1.00 42.38 LIG 0.01  A 
ATOM     20  CE2 PHE E  45      19.713  -8.516  19.862  1.00 42.73 LIG 0.00  A 
ATOM     21  CZ  PHE E  45      18.392  -8.180  19.584  1.00 42.74 LIG 0.00  A 
ATOM     22  CE1 PHE E  45      17.939  -8.183  18.268  1.00 41.89 LIG 0.00  A 
ATOM     23  CD1 PHE E  45      18.813  -8.525  17.233  1.00 42.01 LIG 0.01  A 
ENDBRANCH 17 18
ENDBRANCH 9 17
ENDBRANCH 6 9
ENDBRANCH 1 5
BRANCH 1 24
ATOM     24  N   SER E  44      25.957  -9.308  17.345  1.00 46.50 LIG-0.34  N 
ATOM     25  C   PHE E  43      27.258  -9.459  17.461  1.00 47.40 LIG 0.24  C 
ATOM     26 O    PHE E  43      27.803  -9.570  18.556  1.00 45.80 LIG-0.27  OA
ATOM     27 H    SER E  44      25.527  -9.203  16.608  1.00 46.50 LIG 0.16  HD
BRANCH 25 28
ATOM     28  CA  PHE E  43      28.069  -9.441  16.185  1.00 47.87 LIG 0.18  C 
BRANCH 28 29
ATOM     29  N   PHE E  43      27.015  -9.790  15.277  1.00 51.92 LIG-0.35  N 
ATOM     30  C   GLY E  42      26.961 -10.853  14.495  1.00 55.92 LIG 0.24  C 
ATOM     31 O    GLY E  42      27.826 -11.734  14.402  1.00 57.26 LIG-0.27  OA
ATOM     32 H    PHE E  43      26.380  -9.210  15.286  1.00 51.92 LIG 0.16  HD
BRANCH 30 33
ATOM     33  CA  GLY E  42      25.678 -10.882  13.703  1.00 58.33 LIG 0.33  C 
BRANCH 33 34
ATOM     34  N   GLY E  42      24.895  -9.680  13.776  1.00 60.94 LIG-0.07  N 
ATOM     35 H3   GLY E  42      25.434  -8.981  13.892  1.00 60.94 LIG 0.27  HD
ATOM     36 H1   GLY E  42      24.436  -9.578  13.020  1.00 60.94 LIG 0.27  HD
ATOM     37 H2   GLY E  42      24.330  -9.735  14.461  1.00 60.94 LIG 0.27  HD
ENDBRANCH 33 34
ENDBRANCH 30 33
ENDBRANCH 28 29
BRANCH 28 38
ATOM     38  CB  PHE E  43      28.573  -8.021  15.943  1.00 42.32 LIG 0.07  C 
BRANCH 38 39
ATOM     39  CG  PHE E  43      28.005  -7.329  14.718  1.00 35.12 LIG-0.06  A 
ATOM     40  CD1 PHE E  43      27.360  -6.114  14.886  1.00 34.02 LIG 0.01  A 
ATOM     41  CE1 PHE E  43      26.838  -5.398  13.806  1.00 29.46 LIG 0.00  A 
ATOM     42  CZ  PHE E  43      26.958  -5.900  12.515  1.00 28.92 LIG 0.00  A 
ATOM     43  CE2 PHE E  43      27.608  -7.124  12.311  1.00 30.40 LIG 0.00  A 
ATOM     44  CD2 PHE E  43      28.132  -7.844  13.421  1.00 32.72 LIG 0.01  A 
ENDBRANCH 38 39
ENDBRANCH 28 38
ENDBRANCH 25 28
ENDBRANCH 1 24
TORSDOF 16
ENDMDL
MODEL 44
USER: ADFR SOLUTION from run 38
USER: SCORE 14.674592 LL:  -3.713 LR: -11.840 RR:   0.000 FEB:  -7.067
USER: RMSD 5.365055
USER: SEED 37
USER: STATUS no improvement in best 3 clusters for 5 generations
USER: GENES 18
USER: genes 0 Translation |==|  0.46666 0.38096 0.44410
USER: genes 1 Rotation |==|  0.79031 0.47643 0.40684 0.89558
USER: genes 2 Torsion [C]-CA--CB-[OG] |==|  0.74835
USER: genes 3 Torsion [CA]-CB--OG-[HG] |==|  0.95948
USER: genes 4 Torsion [N]-CA--C-[N] |==|  0.80937
USER: genes 5 Torsion [C]-N--CA-[C] |==|  0.75143
USER: genes 6 Torsion [N]-CA--C-[N] |==|  0.94358
USER: genes 7 Torsion [C]-N--CA-[C] |==|  0.21809
USER: genes 8 Torsion [N]-CA--C-[O] |==|  0.00468
USER: genes 9 Torsion [N]-CA--CB-[CG] |==|  0.11089
USER: genes 10 Torsion [CA]-CB--CG-[CD1] |==|  0.27638
USER: genes 11 Torsion [CB]-CA--N-[C] |==|  0.22772
USER: genes 12 Torsion [N]-C--CA-[N] |==|  0.37199
USER: genes 13 Torsion [C]-CA--N-[C] |==|  0.84786
USER: genes 14 Torsion [N]-C--CA-[N] |==|  0.37574
USER: genes 15 Torsion [C]-CA--N-[H2] |==|  0.32432
USER: genes 16 Torsion [C]-CA--CB-[CG] |==|  0.26624
USER: genes 17 Torsion [CA]-CB--CG-[CD1] |==|  0.34745
ROOT
ATOM      1  CA  SER E  44      25.210 -11.001  16.793  1.00 44.79 LIG 0.20  C 
ENDROOT
BRANCH 1 2
ATOM      2  CB  SER E  44      26.020 -11.226  15.518  1.00 46.10 LIG 0.20  C 
BRANCH 2 3
ATOM      3 OG   SER E  44      25.846 -10.142  14.629  1.00 47.85 LIG-0.40  OA
ATOM      4 HG   SER E  44      25.187  -9.681  14.874  1.00 47.85 LIG 0.21  HD
ENDBRANCH 2 3
ENDBRANCH 1 2
BRANCH 1 5
ATOM      5  C   SER E  44      26.055 -10.276  17.817  1.00 42.78 LIG 0.24  C 
ATOM      6  N   PHE E  45      26.590  -9.139  17.398  1.00 43.36 LIG-0.35  N 
ATOM      7 H    PHE E  45      26.491  -8.824  16.604  1.00 43.36 LIG 0.16  HD
ATOM      8 O    SER E  44      26.244 -10.740  18.942  1.00 37.54 LIG-0.27  OA
BRANCH 6 9
ATOM      9  CA  PHE E  45      27.407  -8.318  18.276  1.00 46.68 LIG 0.18  C 
BRANCH 9 10
ATOM     10  C   PHE E  45      26.494  -7.342  19.005  1.00 48.11 LIG 0.24  C 
ATOM     11 O    PHE E  45      26.861  -6.802  20.051  1.00 49.85 LIG-0.27  OA
ATOM     12  N   GLY E  46      25.307  -7.109  18.461  1.00 50.71 LIG-0.35  N 
ATOM     13 H    GLY E  46      25.015  -7.467  17.736  1.00 50.71 LIG 0.16  HD
BRANCH 12 14
ATOM     14  CA  GLY E  46      24.401  -6.181  19.109  1.00 54.23 LIG 0.21  C 
BRANCH 14 15
ATOM     15  C   GLY E  46      24.759  -4.736  18.845  1.00 55.55 LIG 0.21  C 
ATOM     16 O    GLY E  46      25.734  -4.512  18.102  1.00 59.11 LIG-0.29  OA
ENDBRANCH 14 15
ENDBRANCH 12 14
ENDBRANCH 9 10
BRANCH 9 17
ATOM     17  CB  PHE E  45      28.465  -7.555  17.472  1.00 43.03 LIG 0.07  C 
BRANCH 17 18
ATOM     18  CG  PHE E  45      27.959  -7.019  16.157  1.00 41.93 LIG-0.06  A 
ATOM     19  CD2 PHE E  45      27.833  -7.852  15.046  1.00 42.38 LIG 0.01  A 
ATOM     20  CE2 PHE E  45      27.337  -7.361  13.835  1.00 42.73 LIG 0.00  A 
ATOM     21  CZ  PHE E  45      26.964  -6.025  13.729  1.00 42.74 LIG 0.00  A 
ATOM     22  CE1 PHE E  45      27.084  -5.183  14.831  1.00 41.89 LIG 0.00  A 
ATOM     23  CD1 PHE E  45      27.581  -5.684  16.038  1.00 42.01 LIG 0.01  A 
ENDBRANCH 17 18
ENDBRANCH 9 17
ENDBRANCH 6 9
ENDBRANCH 1 5
BRANCH 1 24
ATOM     24  N   SER E  44      23.983 -10.296  16.486  1.00 46.50 LIG-0.34  N 
ATOM     25  C   PHE E  43      22.963 -10.993  16.035  1.00 47.40 LIG 0.24  C 
ATOM     26 O    PHE E  43      23.041 -12.203  15.839  1.00 45.80 LIG-0.27  OA
ATOM     27 H    SER E  44      23.992  -9.447  16.619  1.00 46.50 LIG 0.16  HD
BRANCH 25 28
ATOM     28  CA  PHE E  43      21.697 -10.231  15.716  1.00 47.87 LIG 0.18  C 
BRANCH 28 29
ATOM     29  N   PHE E  43      21.422 -10.828  14.442  1.00 51.92 LIG-0.35  N 
ATOM     30  C   GLY E  42      22.235 -10.892  13.403  1.00 55.92 LIG 0.24  C 
ATOM     31 O    GLY E  42      23.383 -10.430  13.347  1.00 57.26 LIG-0.27  OA
ATOM     32 H    PHE E  43      20.631 -11.164  14.410  1.00 51.92 LIG 0.16  HD
BRANCH 30 33
ATOM     33  CA  GLY E  42      21.591 -11.622  12.251  1.00 58.33 LIG 0.33  C 
BRANCH 33 34
ATOM     34  N   GLY E  42      21.759 -10.997  10.970  1.00 60.94 LIG-0.07  N 
ATOM     35 H3   GLY E  42      20.960 -10.842  10.608  1.00 60.94 LIG 0.27  HD
ATOM     36 H1   GLY E  42      22.194 -10.226  11.070  1.00 60.94 LIG 0.27  HD
ATOM     37 H2   GLY E  42      22.227 -11.534  10.437  1.00 60.94 LIG 0.27  HD
ENDBRANCH 33 34
ENDBRANCH 30 33
ENDBRANCH 28 29
BRANCH 28 38
ATOM     38  CB  PHE E  43      20.633 -10.591  16.749  1.00 42.32 LIG 0.07  C 
BRANCH 38 39
ATOM     39  CG  PHE E  43      20.509  -9.631  17.917  1.00 35.12 LIG-0.06  A 
ATOM     40  CD1 PHE E  43      19.268  -9.075  18.186  1.00 34.02 LIG 0.01  A 
ATOM     41  CE1 PHE E  43      19.064  -8.208  19.262  1.00 29.46 LIG 0.00  A 
ATOM     42  CZ  PHE E  43      20.121  -7.880  20.102  1.00 28.92 LIG 0.00  A 
ATOM     43  CE2 PHE E  43      21.388  -8.428  19.860  1.00 30.40 LIG 0.00  A 
ATOM     44  CD2 PHE E  43      21.582  -9.307  18.759  1.00 32.72 LIG 0.01  A 
ENDBRANCH 38 39
ENDBRANCH 28 38
ENDBRANCH 25 28
ENDBRANCH 1 24
TORSDOF 16
ENDMDL
MODEL 45
USER: ADFR SOLUTION from run 155
USER: SCORE 13.536307 LL:  -2.970 LR: -11.829 RR:   0.000 FEB:  -7.056
USER: RMSD 9.920232
USER: SEED 154
USER: STATUS no improvement in best 10 clusters for 5 generations
USER: GENES 18
USER: genes 0 Translation |==|  0.40064 0.33428 0.27291
USER: genes 1 Rotation |==|  0.78081 0.63105 0.62967 0.87035
USER: genes 2 Torsion [C]-CA--CB-[OG] |==|  0.55985
USER: genes 3 Torsion [CA]-CB--OG-[HG] |==|  0.27786
USER: genes 4 Torsion [N]-CA--C-[N] |==|  0.16667
USER: genes 5 Torsion [C]-N--CA-[C] |==|  0.70586
USER: genes 6 Torsion [N]-CA--C-[N] |==|  0.29397
USER: genes 7 Torsion [C]-N--CA-[C] |==|  0.25791
USER: genes 8 Torsion [N]-CA--C-[O] |==|  0.84597
USER: genes 9 Torsion [N]-CA--CB-[CG] |==|  0.53402
USER: genes 10 Torsion [CA]-CB--CG-[CD1] |==|  0.73498
USER: genes 11 Torsion [CB]-CA--N-[C] |==|  0.79110
USER: genes 12 Torsion [N]-C--CA-[N] |==|  0.78411
USER: genes 13 Torsion [C]-CA--N-[C] |==|  0.65497
USER: genes 14 Torsion [N]-C--CA-[N] |==|  0.57678
USER: genes 15 Torsion [C]-CA--N-[H2] |==|  0.33614
USER: genes 16 Torsion [C]-CA--CB-[CG] |==|  0.33753
USER: genes 17 Torsion [CA]-CB--CG-[CD1] |==|  0.15520
ROOT
ATOM      1  CA  SER E  44      23.229 -12.402  11.657  1.00 44.79 LIG 0.20  C 
ENDROOT
BRANCH 1 2
ATOM      2  CB  SER E  44      23.759 -11.656  10.434  1.00 46.10 LIG 0.20  C 
BRANCH 2 3
ATOM      3 OG   SER E  44      23.516 -12.405   9.261  1.00 47.85 LIG-0.40  OA
ATOM      4 HG   SER E  44      22.838 -12.102   8.869  1.00 47.85 LIG 0.21  HD
ENDBRANCH 2 3
ENDBRANCH 1 2
BRANCH 1 5
ATOM      5  C   SER E  44      23.001 -11.428  12.792  1.00 42.78 LIG 0.24  C 
ATOM      6  N   PHE E  45      22.601 -11.977  13.929  1.00 43.36 LIG-0.35  N 
ATOM      7 H    PHE E  45      22.460 -12.819  14.035  1.00 43.36 LIG 0.16  HD
ATOM      8 O    SER E  44      23.152 -10.215  12.641  1.00 37.54 LIG-0.27  OA
BRANCH 6 9
ATOM      9  CA  PHE E  45      22.363 -11.172  15.116  1.00 46.68 LIG 0.18  C 
BRANCH 9 10
ATOM     10  C   PHE E  45      23.509 -11.406  16.090  1.00 48.11 LIG 0.24  C 
ATOM     11 O    PHE E  45      23.589 -12.460  16.723  1.00 49.85 LIG-0.27  OA
ATOM     12  N   GLY E  46      24.400 -10.431  16.214  1.00 50.71 LIG-0.35  N 
ATOM     13 H    GLY E  46      24.377  -9.681  15.792  1.00 50.71 LIG 0.16  HD
BRANCH 12 14
ATOM     14  CA  GLY E  46      25.517 -10.603  17.122  1.00 54.23 LIG 0.21  C 
BRANCH 14 15
ATOM     15  C   GLY E  46      26.742 -11.166  16.438  1.00 55.55 LIG 0.21  C 
ATOM     16 O    GLY E  46      26.614 -12.241  15.822  1.00 59.11 LIG-0.29  OA
ENDBRANCH 14 15
ENDBRANCH 12 14
ENDBRANCH 9 10
BRANCH 9 17
ATOM     17  CB  PHE E  45      21.028 -11.550  15.767  1.00 43.03 LIG 0.07  C 
BRANCH 17 18
ATOM     18  CG  PHE E  45      20.569 -10.577  16.822  1.00 41.93 LIG-0.06  A 
ATOM     19  CD2 PHE E  45      19.836  -9.442  16.478  1.00 42.38 LIG 0.01  A 
ATOM     20  CE2 PHE E  45      19.386  -8.555  17.461  1.00 42.73 LIG 0.00  A 
ATOM     21  CZ  PHE E  45      19.671  -8.801  18.800  1.00 42.74 LIG 0.00  A 
ATOM     22  CE1 PHE E  45      20.401  -9.931  19.156  1.00 41.89 LIG 0.00  A 
ATOM     23  CD1 PHE E  45      20.846 -10.812  18.167  1.00 42.01 LIG 0.01  A 
ENDBRANCH 17 18
ENDBRANCH 9 17
ENDBRANCH 6 9
ENDBRANCH 1 5
BRANCH 1 24
ATOM     24  N   SER E  44      22.034 -13.142  11.312  1.00 46.50 LIG-0.34  N 
ATOM     25  C   PHE E  43      20.914 -12.472  11.155  1.00 47.40 LIG 0.24  C 
ATOM     26 O    PHE E  43      20.854 -11.258  11.327  1.00 45.80 LIG-0.27  OA
ATOM     27 H    SER E  44      22.128 -13.992  11.227  1.00 46.50 LIG 0.16  HD
BRANCH 25 28
ATOM     28  CA  PHE E  43      19.679 -13.271  10.800  1.00 47.87 LIG 0.18  C 
BRANCH 28 29
ATOM     29  N   PHE E  43      19.966 -13.470   9.409  1.00 51.92 LIG-0.35  N 
ATOM     30  C   GLY E  42      19.197 -13.147   8.386  1.00 55.92 LIG 0.24  C 
ATOM     31 O    GLY E  42      18.077 -12.621   8.453  1.00 57.26 LIG-0.27  OA
ATOM     32 H    PHE E  43      20.733 -13.843   9.291  1.00 51.92 LIG 0.16  HD
BRANCH 30 33
ATOM     33  CA  GLY E  42      19.858 -13.495   7.076  1.00 58.33 LIG 0.33  C 
BRANCH 33 34
ATOM     34  N   GLY E  42      19.460 -12.680   5.963  1.00 60.94 LIG-0.07  N 
ATOM     35 H3   GLY E  42      19.083 -13.192   5.340  1.00 60.94 LIG 0.27  HD
ATOM     36 H1   GLY E  42      18.875 -12.067   6.238  1.00 60.94 LIG 0.27  HD
ATOM     37 H2   GLY E  42      20.175 -12.275   5.621  1.00 60.94 LIG 0.27  HD
ENDBRANCH 33 34
ENDBRANCH 30 33
ENDBRANCH 28 29
BRANCH 28 38
ATOM     38  CB  PHE E  43      19.706 -14.585  11.575  1.00 42.32 LIG 0.07  C 
BRANCH 38 39
ATOM     39  CG  PHE E  43      18.515 -14.829  12.483  1.00 35.12 LIG-0.06  A 
ATOM     40  CD1 PHE E  43      17.245 -14.791  11.929  1.00 34.02 LIG 0.01  A 
ATOM     41  CE1 PHE E  43      16.099 -15.036  12.690  1.00 29.46 LIG 0.00  A 
ATOM     42  CZ  PHE E  43      16.212 -15.330  14.044  1.00 28.92 LIG 0.00  A 
ATOM     43  CE2 PHE E  43      17.482 -15.379  14.633  1.00 30.40 LIG 0.00  A 
ATOM     44  CD2 PHE E  43      18.640 -15.125  13.847  1.00 32.72 LIG 0.01  A 
ENDBRANCH 38 39
ENDBRANCH 28 38
ENDBRANCH 25 28
ENDBRANCH 1 24
TORSDOF 16
ENDMDL
MODEL 46
USER: ADFR SOLUTION from run 124
USER: SCORE 13.658494 LL:  -2.821 LR: -11.808 RR:   0.000 FEB:  -7.036
USER: RMSD 10.274635
USER: SEED 123
USER: STATUS no improvement in best 19 clusters for 5 generations
USER: GENES 18
USER: genes 0 Translation |==|  0.29676 0.44210 0.52077
USER: genes 1 Rotation |==|  0.40604 0.33582 0.96261 0.51428
USER: genes 2 Torsion [C]-CA--CB-[OG] |==|  0.25807
USER: genes 3 Torsion [CA]-CB--OG-[HG] |==|  0.70725
USER: genes 4 Torsion [N]-CA--C-[N] |==|  0.16764
USER: genes 5 Torsion [C]-N--CA-[C] |==|  0.61601
USER: genes 6 Torsion [N]-CA--C-[N] |==|  0.37272
USER: genes 7 Torsion [C]-N--CA-[C] |==|  0.31772
USER: genes 8 Torsion [N]-CA--C-[O] |==|  0.10789
USER: genes 9 Torsion [N]-CA--CB-[CG] |==|  0.59627
USER: genes 10 Torsion [CA]-CB--CG-[CD1] |==|  0.96383
USER: genes 11 Torsion [CB]-CA--N-[C] |==|  0.79989
USER: genes 12 Torsion [N]-C--CA-[N] |==|  0.30556
USER: genes 13 Torsion [C]-CA--N-[C] |==|  0.79311
USER: genes 14 Torsion [N]-C--CA-[N] |==|  0.05228
USER: genes 15 Torsion [C]-CA--N-[H2] |==|  0.00022
USER: genes 16 Torsion [C]-CA--CB-[CG] |==|  0.41303
USER: genes 17 Torsion [CA]-CB--CG-[CD1] |==|  0.52514
ROOT
ATOM      1  CA  SER E  44      20.113  -9.167  19.093  1.00 44.79 LIG 0.20  C 
ENDROOT
BRANCH 1 2
ATOM      2  CB  SER E  44      19.263  -7.897  19.098  1.00 46.10 LIG 0.20  C 
BRANCH 2 3
ATOM      3 OG   SER E  44      17.953  -8.186  19.539  1.00 47.85 LIG-0.40  OA
ATOM      4 HG   SER E  44      17.428  -8.180  18.883  1.00 47.85 LIG 0.21  HD
ENDBRANCH 2 3
ENDBRANCH 1 2
BRANCH 1 5
ATOM      5  C   SER E  44      20.060  -9.814  17.727  1.00 42.78 LIG 0.24  C 
ATOM      6  N   PHE E  45      20.706 -10.965  17.627  1.00 43.36 LIG-0.35  N 
ATOM      7 H    PHE E  45      21.143 -11.331  18.272  1.00 43.36 LIG 0.16  HD
ATOM      8 O    SER E  44      19.480  -9.278  16.781  1.00 37.54 LIG-0.27  OA
BRANCH 6 9
ATOM      9  CA  PHE E  45      20.726 -11.718  16.383  1.00 46.68 LIG 0.18  C 
BRANCH 9 10
ATOM     10  C   PHE E  45      20.544 -13.192  16.713  1.00 48.11 LIG 0.24  C 
ATOM     11 O    PHE E  45      21.182 -13.714  17.629  1.00 49.85 LIG-0.27  OA
ATOM     12  N   GLY E  46      19.676 -13.870  15.974  1.00 50.71 LIG-0.35  N 
ATOM     13 H    GLY E  46      19.215 -13.543  15.326  1.00 50.71 LIG 0.16  HD
BRANCH 12 14
ATOM     14  CA  GLY E  46      19.457 -15.277  16.249  1.00 54.23 LIG 0.21  C 
BRANCH 14 15
ATOM     15  C   GLY E  46      18.057 -15.563  16.744  1.00 55.55 LIG 0.21  C 
ATOM     16 O    GLY E  46      17.122 -14.930  16.219  1.00 59.11 LIG-0.29  OA
ENDBRANCH 14 15
ENDBRANCH 12 14
ENDBRANCH 9 10
BRANCH 9 17
ATOM     17  CB  PHE E  45      22.048 -11.499  15.640  1.00 43.03 LIG 0.07  C 
BRANCH 17 18
ATOM     18  CG  PHE E  45      21.907 -11.488  14.139  1.00 41.93 LIG-0.06  A 
ATOM     19  CD2 PHE E  45      22.957 -11.066  13.325  1.00 42.38 LIG 0.01  A 
ATOM     20  CE2 PHE E  45      22.836 -11.083  11.933  1.00 42.73 LIG 0.00  A 
ATOM     21  CZ  PHE E  45      21.654 -11.524  11.345  1.00 42.74 LIG 0.00  A 
ATOM     22  CE1 PHE E  45      20.599 -11.949  12.147  1.00 41.89 LIG 0.00  A 
ATOM     23  CD1 PHE E  45      20.730 -11.928  13.538  1.00 42.01 LIG 0.01  A 
ENDBRANCH 17 18
ENDBRANCH 9 17
ENDBRANCH 6 9
ENDBRANCH 1 5
BRANCH 1 24
ATOM     24  N   SER E  44      21.465  -8.864  19.513  1.00 46.50 LIG-0.34  N 
ATOM     25  C   PHE E  43      22.237  -8.197  18.682  1.00 47.40 LIG 0.24  C 
ATOM     26 O    PHE E  43      21.852  -7.864  17.565  1.00 45.80 LIG-0.27  OA
ATOM     27 H    SER E  44      21.689  -9.143  20.294  1.00 46.50 LIG 0.16  HD
BRANCH 25 28
ATOM     28  CA  PHE E  43      23.646  -7.901  19.144  1.00 47.87 LIG 0.18  C 
BRANCH 28 29
ATOM     29  N   PHE E  43      24.336  -8.784  18.249  1.00 51.92 LIG-0.35  N 
ATOM     30  C   GLY E  42      24.405 -10.100  18.328  1.00 55.92 LIG 0.24  C 
ATOM     31 O    GLY E  42      23.888 -10.805  19.205  1.00 57.26 LIG-0.27  OA
ATOM     32 H    PHE E  43      24.728  -8.354  17.614  1.00 51.92 LIG 0.16  HD
BRANCH 30 33
ATOM     33  CA  GLY E  42      25.205 -10.674  17.185  1.00 58.33 LIG 0.33  C 
BRANCH 33 34
ATOM     34  N   GLY E  42      26.061  -9.735  16.515  1.00 60.94 LIG-0.07  N 
ATOM     35 H3   GLY E  42      26.906 -10.009  16.576  1.00 60.94 LIG 0.27  HD
ATOM     36 H1   GLY E  42      25.827  -9.680  15.658  1.00 60.94 LIG 0.27  HD
ATOM     37 H2   GLY E  42      25.980  -8.935  16.897  1.00 60.94 LIG 0.27  HD
ENDBRANCH 33 34
ENDBRANCH 30 33
ENDBRANCH 28 29
BRANCH 28 38
ATOM     38  CB  PHE E  43      23.963  -6.438  18.847  1.00 42.32 LIG 0.07  C 
BRANCH 38 39
ATOM     39  CG  PHE E  43      24.919  -5.770  19.817  1.00 35.12 LIG-0.06  A 
ATOM     40  CD1 PHE E  43      25.103  -4.399  19.724  1.00 34.02 LIG 0.01  A 
ATOM     41  CE1 PHE E  43      25.942  -3.704  20.600  1.00 29.46 LIG 0.00  A 
ATOM     42  CZ  PHE E  43      26.620  -4.387  21.603  1.00 28.92 LIG 0.00  A 
ATOM     43  CE2 PHE E  43      26.452  -5.773  21.726  1.00 30.40 LIG 0.00  A 
ATOM     44  CD2 PHE E  43      25.598  -6.468  20.825  1.00 32.72 LIG 0.01  A 
ENDBRANCH 38 39
ENDBRANCH 28 38
ENDBRANCH 25 28
ENDBRANCH 1 24
TORSDOF 16
ENDMDL
MODEL 47
USER: ADFR SOLUTION from run 9
USER: SCORE 14.121240 LL:  -3.428 LR: -11.791 RR:   0.000 FEB:  -7.018
USER: RMSD 8.489851
USER: SEED 292889
USER: STATUS no improvement in best 13 clusters for 5 generations
USER: GENES 18
USER: genes 0 Translation |==|  0.33487 0.31093 0.49211
USER: genes 1 Rotation |==|  0.35724 0.23820 0.57164 0.89490
USER: genes 2 Torsion [C]-CA--CB-[OG] |==|  0.44654
USER: genes 3 Torsion [CA]-CB--OG-[HG] |==|  0.91454
USER: genes 4 Torsion [N]-CA--C-[N] |==|  0.46695
USER: genes 5 Torsion [C]-N--CA-[C] |==|  0.61195
USER: genes 6 Torsion [N]-CA--C-[N] |==|  0.46758
USER: genes 7 Torsion [C]-N--CA-[C] |==|  0.65080
USER: genes 8 Torsion [N]-CA--C-[O] |==|  0.82860
USER: genes 9 Torsion [N]-CA--CB-[CG] |==|  0.11087
USER: genes 10 Torsion [CA]-CB--CG-[CD1] |==|  0.14899
USER: genes 11 Torsion [CB]-CA--N-[C] |==|  0.48896
USER: genes 12 Torsion [N]-C--CA-[N] |==|  0.38882
USER: genes 13 Torsion [C]-CA--N-[C] |==|  0.55010
USER: genes 14 Torsion [N]-C--CA-[N] |==|  0.20714
USER: genes 15 Torsion [C]-CA--N-[H2] |==|  0.86959
USER: genes 16 Torsion [C]-CA--CB-[CG] |==|  0.83337
USER: genes 17 Torsion [CA]-CB--CG-[CD1] |==|  0.25506
ROOT
ATOM      1  CA  SER E  44      21.256 -13.102  18.233  1.00 44.79 LIG 0.20  C 
ENDROOT
BRANCH 1 2
ATOM      2  CB  SER E  44      21.997 -13.546  19.493  1.00 46.10 LIG 0.20  C 
BRANCH 2 3
ATOM      3 OG   SER E  44      21.118 -14.228  20.364  1.00 47.85 LIG-0.40  OA
ATOM      4 HG   SER E  44      20.340 -13.924  20.272  1.00 47.85 LIG 0.21  HD
ENDBRANCH 2 3
ENDBRANCH 1 2
BRANCH 1 5
ATOM      5  C   SER E  44      22.030 -12.000  17.545  1.00 42.78 LIG 0.24  C 
ATOM      6  N   PHE E  45      22.062 -10.847  18.197  1.00 43.36 LIG-0.35  N 
ATOM      7 H    PHE E  45      21.669 -10.707  18.949  1.00 43.36 LIG 0.16  HD
ATOM      8 O    SER E  44      22.559 -12.172  16.446  1.00 37.54 LIG-0.27  OA
BRANCH 6 9
ATOM      9  CA  PHE E  45      22.787  -9.701  17.673  1.00 46.68 LIG 0.18  C 
BRANCH 9 10
ATOM     10  C   PHE E  45      23.490  -9.009  18.832  1.00 48.11 LIG 0.24  C 
ATOM     11 O    PHE E  45      23.222  -9.308  19.997  1.00 49.85 LIG-0.27  OA
ATOM     12  N   GLY E  46      24.391  -8.086  18.523  1.00 50.71 LIG-0.35  N 
ATOM     13 H    GLY E  46      24.604  -7.848  17.724  1.00 50.71 LIG 0.16  HD
BRANCH 12 14
ATOM     14  CA  GLY E  46      25.097  -7.400  19.588  1.00 54.23 LIG 0.21  C 
BRANCH 14 15
ATOM     15  C   GLY E  46      24.987  -5.896  19.486  1.00 55.55 LIG 0.21  C 
ATOM     16 O    GLY E  46      25.456  -5.352  18.468  1.00 59.11 LIG-0.29  OA
ENDBRANCH 14 15
ENDBRANCH 12 14
ENDBRANCH 9 10
BRANCH 9 17
ATOM     17  CB  PHE E  45      21.830  -8.728  16.976  1.00 43.03 LIG 0.07  C 
BRANCH 17 18
ATOM     18  CG  PHE E  45      20.515  -8.553  17.690  1.00 41.93 LIG-0.06  A 
ATOM     19  CD2 PHE E  45      19.307  -8.773  17.030  1.00 42.38 LIG 0.01  A 
ATOM     20  CE2 PHE E  45      18.088  -8.639  17.701  1.00 42.73 LIG 0.00  A 
ATOM     21  CZ  PHE E  45      18.072  -8.280  19.045  1.00 42.74 LIG 0.00  A 
ATOM     22  CE1 PHE E  45      19.271  -8.059  19.716  1.00 41.89 LIG 0.00  A 
ATOM     23  CD1 PHE E  45      20.484  -8.197  19.037  1.00 42.01 LIG 0.01  A 
ENDBRANCH 17 18
ENDBRANCH 9 17
ENDBRANCH 6 9
ENDBRANCH 1 5
BRANCH 1 24
ATOM     24  N   SER E  44      21.020 -14.238  17.367  1.00 46.50 LIG-0.34  N 
ATOM     25  C   PHE E  43      20.320 -14.047  16.271  1.00 47.40 LIG 0.24  C 
ATOM     26 O    PHE E  43      19.842 -12.951  15.989  1.00 45.80 LIG-0.27  OA
ATOM     27 H    SER E  44      21.357 -14.986  17.625  1.00 46.50 LIG 0.16  HD
BRANCH 25 28
ATOM     28  CA  PHE E  43      20.083 -15.252  15.388  1.00 47.87 LIG 0.18  C 
BRANCH 28 29
ATOM     29  N   PHE E  43      18.721 -14.973  15.037  1.00 51.92 LIG-0.35  N 
ATOM     30  C   GLY E  42      17.838 -15.823  14.545  1.00 55.92 LIG 0.24  C 
ATOM     31 O    GLY E  42      18.041 -17.018  14.288  1.00 57.26 LIG-0.27  OA
ATOM     32 H    PHE E  43      18.514 -14.151  15.183  1.00 51.92 LIG 0.16  HD
BRANCH 30 33
ATOM     33  CA  GLY E  42      16.503 -15.157  14.327  1.00 58.33 LIG 0.33  C 
BRANCH 33 34
ATOM     34  N   GLY E  42      16.444 -14.277  13.194  1.00 60.94 LIG-0.07  N 
ATOM     35 H3   GLY E  42      16.435 -14.758  12.445  1.00 60.94 LIG 0.27  HD
ATOM     36 H1   GLY E  42      15.703 -13.784  13.239  1.00 60.94 LIG 0.27  HD
ATOM     37 H2   GLY E  42      17.156 -13.743  13.195  1.00 60.94 LIG 0.27  HD
ENDBRANCH 33 34
ENDBRANCH 30 33
ENDBRANCH 28 29
BRANCH 28 38
ATOM     38  CB  PHE E  43      21.007 -15.164  14.177  1.00 42.32 LIG 0.07  C 
BRANCH 38 39
ATOM     39  CG  PHE E  43      20.820 -13.936  13.305  1.00 35.12 LIG-0.06  A 
ATOM     40  CD1 PHE E  43      21.588 -12.814  13.573  1.00 34.02 LIG 0.01  A 
ATOM     41  CE1 PHE E  43      21.499 -11.655  12.797  1.00 29.46 LIG 0.00  A 
ATOM     42  CZ  PHE E  43      20.623 -11.604  11.719  1.00 28.92 LIG 0.00  A 
ATOM     43  CE2 PHE E  43      19.835 -12.724  11.420  1.00 30.40 LIG 0.00  A 
ATOM     44  CD2 PHE E  43      19.933 -13.896  12.220  1.00 32.72 LIG 0.01  A 
ENDBRANCH 38 39
ENDBRANCH 28 38
ENDBRANCH 25 28
ENDBRANCH 1 24
TORSDOF 16
ENDMDL
MODEL 48
USER: ADFR SOLUTION from run 69
USER: SCORE 14.527142 LL:  -3.149 LR: -11.770 RR:   0.000 FEB:  -6.997
USER: RMSD 9.075202
USER: SEED 68
USER: STATUS searching
USER: GENES 18
USER: genes 0 Translation |==|  0.50670 0.44647 0.64457
USER: genes 1 Rotation |==|  0.34938 0.91100 0.30663 0.64491
USER: genes 2 Torsion [C]-CA--CB-[OG] |==|  0.56930
USER: genes 3 Torsion [CA]-CB--OG-[HG] |==|  0.31180
USER: genes 4 Torsion [N]-CA--C-[N] |==|  0.39165
USER: genes 5 Torsion [C]-N--CA-[C] |==|  0.18765
USER: genes 6 Torsion [N]-CA--C-[N] |==|  0.04159
USER: genes 7 Torsion [C]-N--CA-[C] |==|  0.30862
USER: genes 8 Torsion [N]-CA--C-[O] |==|  0.96650
USER: genes 9 Torsion [N]-CA--CB-[CG] |==|  0.57940
USER: genes 10 Torsion [CA]-CB--CG-[CD1] |==|  0.50955
USER: genes 11 Torsion [CB]-CA--N-[C] |==|  0.84538
USER: genes 12 Torsion [N]-C--CA-[N] |==|  0.41118
USER: genes 13 Torsion [C]-CA--N-[C] |==|  0.64531
USER: genes 14 Torsion [N]-C--CA-[N] |==|  0.52088
USER: genes 15 Torsion [C]-CA--N-[H2] |==|  0.98537
USER: genes 16 Torsion [C]-CA--CB-[CG] |==|  0.65491
USER: genes 17 Torsion [CA]-CB--CG-[CD1] |==|  0.71429
ROOT
ATOM      1  CA  SER E  44      26.411  -9.036  22.807  1.00 44.79 LIG 0.20  C 
ENDROOT
BRANCH 1 2
ATOM      2  CB  SER E  44      25.726 -10.107  23.654  1.00 46.10 LIG 0.20  C 
BRANCH 2 3
ATOM      3 OG   SER E  44      26.468 -10.349  24.831  1.00 47.85 LIG-0.40  OA
ATOM      4 HG   SER E  44      26.032 -10.083  25.498  1.00 47.85 LIG 0.21  HD
ENDBRANCH 2 3
ENDBRANCH 1 2
BRANCH 1 5
ATOM      5  C   SER E  44      25.392  -8.350  21.926  1.00 42.78 LIG 0.24  C 
ATOM      6  N   PHE E  45      25.302  -8.829  20.694  1.00 43.36 LIG-0.35  N 
ATOM      7 H    PHE E  45      25.787  -9.472  20.391  1.00 43.36 LIG 0.16  HD
ATOM      8 O    SER E  44      24.724  -7.397  22.332  1.00 37.54 LIG-0.27  OA
BRANCH 6 9
ATOM      9  CA  PHE E  45      24.350  -8.288  19.738  1.00 46.68 LIG 0.18  C 
BRANCH 9 10
ATOM     10  C   PHE E  45      24.774  -6.868  19.392  1.00 48.11 LIG 0.24  C 
ATOM     11 O    PHE E  45      23.993  -6.101  18.825  1.00 49.85 LIG-0.27  OA
ATOM     12  N   GLY E  46      26.005  -6.509  19.732  1.00 50.71 LIG-0.35  N 
ATOM     13 H    GLY E  46      26.578  -7.014  20.125  1.00 50.71 LIG 0.16  HD
BRANCH 12 14
ATOM     14  CA  GLY E  46      26.458  -5.164  19.434  1.00 54.23 LIG 0.21  C 
BRANCH 14 15
ATOM     15  C   GLY E  46      26.649  -4.325  20.677  1.00 55.55 LIG 0.21  C 
ATOM     16 O    GLY E  46      26.194  -4.770  21.747  1.00 59.11 LIG-0.29  OA
ENDBRANCH 14 15
ENDBRANCH 12 14
ENDBRANCH 9 10
BRANCH 9 17
ATOM     17  CB  PHE E  45      22.934  -8.292  20.324  1.00 43.03 LIG 0.07  C 
BRANCH 17 18
ATOM     18  CG  PHE E  45      21.848  -8.416  19.287  1.00 41.93 LIG-0.06  A 
ATOM     19  CD2 PHE E  45      22.161  -8.616  17.943  1.00 42.38 LIG 0.01  A 
ATOM     20  CE2 PHE E  45      21.153  -8.760  16.986  1.00 42.73 LIG 0.00  A 
ATOM     21  CZ  PHE E  45      19.817  -8.703  17.372  1.00 42.74 LIG 0.00  A 
ATOM     22  CE1 PHE E  45      19.491  -8.504  18.710  1.00 41.89 LIG 0.00  A 
ATOM     23  CD1 PHE E  45      20.507  -8.362  19.659  1.00 42.01 LIG 0.01  A 
ENDBRANCH 17 18
ENDBRANCH 9 17
ENDBRANCH 6 9
ENDBRANCH 1 5
BRANCH 1 24
ATOM     24  N   SER E  44      27.123  -8.107  23.659  1.00 46.50 LIG-0.34  N 
ATOM     25  C   PHE E  43      26.450  -7.497  24.610  1.00 47.40 LIG 0.24  C 
ATOM     26 O    PHE E  43      25.244  -7.669  24.764  1.00 45.80 LIG-0.27  OA
ATOM     27 H    SER E  44      27.960  -8.006  23.491  1.00 46.50 LIG 0.16  HD
BRANCH 25 28
ATOM     28  CA  PHE E  43      27.218  -6.527  25.480  1.00 47.87 LIG 0.18  C 
BRANCH 28 29
ATOM     29  N   PHE E  43      26.148  -5.608  25.742  1.00 51.92 LIG-0.35  N 
ATOM     30  C   GLY E  42      26.165  -4.300  25.568  1.00 55.92 LIG 0.24  C 
ATOM     31 O    GLY E  42      27.123  -3.631  25.156  1.00 57.26 LIG-0.27  OA
ATOM     32 H    PHE E  43      25.448  -6.009  26.042  1.00 51.92 LIG 0.16  HD
BRANCH 30 33
ATOM     33  CA  GLY E  42      24.837  -3.684  25.934  1.00 58.33 LIG 0.33  C 
BRANCH 33 34
ATOM     34  N   GLY E  42      24.710  -2.290  25.617  1.00 60.94 LIG-0.07  N 
ATOM     35 H3   GLY E  42      24.084  -2.183  24.993  1.00 60.94 LIG 0.27  HD
ATOM     36 H1   GLY E  42      24.480  -1.838  26.349  1.00 60.94 LIG 0.27  HD
ATOM     37 H2   GLY E  42      25.488  -1.982  25.312  1.00 60.94 LIG 0.27  HD
ENDBRANCH 33 34
ENDBRANCH 30 33
ENDBRANCH 28 29
BRANCH 28 38
ATOM     38  CB  PHE E  43      27.662  -7.250  26.748  1.00 42.32 LIG 0.07  C 
BRANCH 38 39
ATOM     39  CG  PHE E  43      27.224  -6.607  28.051  1.00 35.12 LIG-0.06  A 
ATOM     40  CD1 PHE E  43      28.156  -5.880  28.774  1.00 34.02 LIG 0.01  A 
ATOM     41  CE1 PHE E  43      27.824  -5.231  29.966  1.00 29.46 LIG 0.00  A 
ATOM     42  CZ  PHE E  43      26.527  -5.301  30.459  1.00 28.92 LIG 0.00  A 
ATOM     43  CE2 PHE E  43      25.560  -6.026  29.750  1.00 30.40 LIG 0.00  A 
ATOM     44  CD2 PHE E  43      25.912  -6.685  28.539  1.00 32.72 LIG 0.01  A 
ENDBRANCH 38 39
ENDBRANCH 28 38
ENDBRANCH 25 28
ENDBRANCH 1 24
TORSDOF 16
ENDMDL
MODEL 49
USER: ADFR SOLUTION from run 153
USER: SCORE 14.267158 LL:  -3.664 LR: -11.756 RR:   0.000 FEB:  -6.983
USER: RMSD 8.769462
USER: SEED 152
USER: STATUS no improvement in best 11 clusters for 5 generations
USER: GENES 18
USER: genes 0 Translation |==|  0.52831 0.51631 0.48024
USER: genes 1 Rotation |==|  0.78888 0.13565 0.31735 0.52094
USER: genes 2 Torsion [C]-CA--CB-[OG] |==|  0.21893
USER: genes 3 Torsion [CA]-CB--OG-[HG] |==|  0.87744
USER: genes 4 Torsion [N]-CA--C-[N] |==|  0.46110
USER: genes 5 Torsion [C]-N--CA-[C] |==|  0.60528
USER: genes 6 Torsion [N]-CA--C-[N] |==|  0.46100
USER: genes 7 Torsion [C]-N--CA-[C] |==|  0.55366
USER: genes 8 Torsion [N]-CA--C-[O] |==|  0.01198
USER: genes 9 Torsion [N]-CA--CB-[CG] |==|  0.29211
USER: genes 10 Torsion [CA]-CB--CG-[CD1] |==|  0.30950
USER: genes 11 Torsion [CB]-CA--N-[C] |==|  0.24299
USER: genes 12 Torsion [N]-C--CA-[N] |==|  0.41931
USER: genes 13 Torsion [C]-CA--N-[C] |==|  0.78829
USER: genes 14 Torsion [N]-C--CA-[N] |==|  0.95953
USER: genes 15 Torsion [C]-CA--N-[H2] |==|  0.89557
USER: genes 16 Torsion [C]-CA--CB-[CG] |==|  0.08163
USER: genes 17 Torsion [CA]-CB--CG-[CD1] |==|  0.23736
ROOT
ATOM      1  CA  SER E  44      27.059  -6.941  17.877  1.00 44.79 LIG 0.20  C 
ENDROOT
BRANCH 1 2
ATOM      2  CB  SER E  44      27.799  -8.106  17.222  1.00 46.10 LIG 0.20  C 
BRANCH 2 3
ATOM      3 OG   SER E  44      26.967  -8.743  16.274  1.00 47.85 LIG-0.40  OA
ATOM      4 HG   SER E  44      26.198  -8.842  16.597  1.00 47.85 LIG 0.21  HD
ENDBRANCH 2 3
ENDBRANCH 1 2
BRANCH 1 5
ATOM      5  C   SER E  44      26.115  -7.463  18.937  1.00 42.78 LIG 0.24  C 
ATOM      6  N   PHE E  45      25.056  -8.110  18.474  1.00 43.36 LIG-0.35  N 
ATOM      7 H    PHE E  45      24.889  -8.225  17.638  1.00 43.36 LIG 0.16  HD
ATOM      8 O    SER E  44      26.318  -7.266  20.136  1.00 37.54 LIG-0.27  OA
BRANCH 6 9
ATOM      9  CA  PHE E  45      24.072  -8.692  19.372  1.00 46.68 LIG 0.18  C 
BRANCH 9 10
ATOM     10  C   PHE E  45      23.610 -10.017  18.782  1.00 48.11 LIG 0.24  C 
ATOM     11 O    PHE E  45      23.865 -10.306  17.612  1.00 49.85 LIG-0.27  OA
ATOM     12  N   GLY E  46      22.933 -10.828  19.585  1.00 50.71 LIG-0.35  N 
ATOM     13 H    GLY E  46      22.734 -10.661  20.405  1.00 50.71 LIG 0.16  HD
BRANCH 12 14
ATOM     14  CA  GLY E  46      22.476 -12.107  19.078  1.00 54.23 LIG 0.21  C 
BRANCH 14 15
ATOM     15  C   GLY E  46      21.360 -12.698  19.910  1.00 55.55 LIG 0.21  C 
ATOM     16 O    GLY E  46      20.916 -12.010  20.849  1.00 59.11 LIG-0.29  OA
ENDBRANCH 14 15
ENDBRANCH 12 14
ENDBRANCH 9 10
BRANCH 9 17
ATOM     17  CB  PHE E  45      22.879  -7.746  19.551  1.00 43.03 LIG 0.07  C 
BRANCH 17 18
ATOM     18  CG  PHE E  45      21.642  -8.180  18.806  1.00 41.93 LIG-0.06  A 
ATOM     19  CD2 PHE E  45      21.609  -8.180  17.412  1.00 42.38 LIG 0.01  A 
ATOM     20  CE2 PHE E  45      20.472  -8.610  16.723  1.00 42.73 LIG 0.00  A 
ATOM     21  CZ  PHE E  45      19.355  -9.044  17.430  1.00 42.74 LIG 0.00  A 
ATOM     22  CE1 PHE E  45      19.376  -9.051  18.822  1.00 41.89 LIG 0.00  A 
ATOM     23  CD1 PHE E  45      20.518  -8.619  19.502  1.00 42.01 LIG 0.01  A 
ENDBRANCH 17 18
ENDBRANCH 9 17
ENDBRANCH 6 9
ENDBRANCH 1 5
BRANCH 1 24
ATOM     24  N   SER E  44      28.007  -5.981  18.403  1.00 46.50 LIG-0.34  N 
ATOM     25  C   PHE E  43      28.443  -5.035  17.599  1.00 47.40 LIG 0.24  C 
ATOM     26 O    PHE E  43      28.094  -4.973  16.423  1.00 45.80 LIG-0.27  OA
ATOM     27 H    SER E  44      28.235  -6.086  19.225  1.00 46.50 LIG 0.16  HD
BRANCH 25 28
ATOM     28  CA  PHE E  43      29.437  -4.051  18.173  1.00 47.87 LIG 0.18  C 
BRANCH 28 29
ATOM     29  N   PHE E  43      30.131  -3.741  16.956  1.00 51.92 LIG-0.35  N 
ATOM     30  C   GLY E  42      31.021  -4.493  16.336  1.00 55.92 LIG 0.24  C 
ATOM     31 O    GLY E  42      31.423  -5.604  16.709  1.00 57.26 LIG-0.27  OA
ATOM     32 H    PHE E  43      29.903  -2.972  16.644  1.00 51.92 LIG 0.16  HD
BRANCH 30 33
ATOM     33  CA  GLY E  42      31.508  -3.831  15.072  1.00 58.33 LIG 0.33  C 
BRANCH 33 34
ATOM     34  N   GLY E  42      30.710  -2.726  14.622  1.00 60.94 LIG-0.07  N 
ATOM     35 H3   GLY E  42      30.942  -1.991  15.067  1.00 60.94 LIG 0.27  HD
ATOM     36 H1   GLY E  42      30.842  -2.599  13.750  1.00 60.94 LIG 0.27  HD
ATOM     37 H2   GLY E  42      29.850  -2.902  14.768  1.00 60.94 LIG 0.27  HD
ENDBRANCH 33 34
ENDBRANCH 30 33
ENDBRANCH 28 29
BRANCH 28 38
ATOM     38  CB  PHE E  43      28.677  -2.842  18.711  1.00 42.32 LIG 0.07  C 
BRANCH 38 39
ATOM     39  CG  PHE E  43      27.271  -3.127  19.207  1.00 35.12 LIG-0.06  A 
ATOM     40  CD1 PHE E  43      27.108  -3.565  20.512  1.00 34.02 LIG 0.01  A 
ATOM     41  CE1 PHE E  43      25.845  -3.818  21.054  1.00 29.46 LIG 0.00  A 
ATOM     42  CZ  PHE E  43      24.705  -3.630  20.281  1.00 28.92 LIG 0.00  A 
ATOM     43  CE2 PHE E  43      24.837  -3.184  18.959  1.00 30.40 LIG 0.00  A 
ATOM     44  CD2 PHE E  43      26.129  -2.933  18.419  1.00 32.72 LIG 0.01  A 
ENDBRANCH 38 39
ENDBRANCH 28 38
ENDBRANCH 25 28
ENDBRANCH 1 24
TORSDOF 16
ENDMDL
MODEL 50
USER: ADFR SOLUTION from run 66
USER: SCORE 13.928471 LL:  -2.584 LR: -11.752 RR:   0.000 FEB:  -6.979
USER: RMSD 10.895918
USER: SEED 65
USER: STATUS no improvement in best 4 clusters for 5 generations
USER: GENES 18
USER: genes 0 Translation |==|  0.36093 0.37372 0.29801
USER: genes 1 Rotation |==|  0.73318 0.16651 0.33155 0.73672
USER: genes 2 Torsion [C]-CA--CB-[OG] |==|  0.53093
USER: genes 3 Torsion [CA]-CB--OG-[HG] |==|  0.98298
USER: genes 4 Torsion [N]-CA--C-[N] |==|  0.34444
USER: genes 5 Torsion [C]-N--CA-[C] |==|  0.70261
USER: genes 6 Torsion [N]-CA--C-[N] |==|  0.94236
USER: genes 7 Torsion [C]-N--CA-[C] |==|  0.39168
USER: genes 8 Torsion [N]-CA--C-[O] |==|  0.73883
USER: genes 9 Torsion [N]-CA--CB-[CG] |==|  0.59121
USER: genes 10 Torsion [CA]-CB--CG-[CD1] |==|  0.05131
USER: genes 11 Torsion [CB]-CA--N-[C] |==|  0.84256
USER: genes 12 Torsion [N]-C--CA-[N] |==|  0.41773
USER: genes 13 Torsion [C]-CA--N-[C] |==|  0.60764
USER: genes 14 Torsion [N]-C--CA-[N] |==|  0.84020
USER: genes 15 Torsion [C]-CA--N-[H2] |==|  0.71168
USER: genes 16 Torsion [C]-CA--CB-[CG] |==|  0.35329
USER: genes 17 Torsion [CA]-CB--CG-[CD1] |==|  0.60789
ROOT
ATOM      1  CA  SER E  44      22.038 -11.218  12.410  1.00 44.79 LIG 0.20  C 
ENDROOT
BRANCH 1 2
ATOM      2  CB  SER E  44      22.659 -12.530  11.933  1.00 46.10 LIG 0.20  C 
BRANCH 2 3
ATOM      3 OG   SER E  44      22.817 -12.514  10.529  1.00 47.85 LIG-0.40  OA
ATOM      4 HG   SER E  44      22.462 -11.821  10.214  1.00 47.85 LIG 0.21  HD
ENDBRANCH 2 3
ENDBRANCH 1 2
BRANCH 1 5
ATOM      5  C   SER E  44      22.124 -11.129  13.917  1.00 42.78 LIG 0.24  C 
ATOM      6  N   PHE E  45      20.961 -11.177  14.549  1.00 43.36 LIG-0.35  N 
ATOM      7 H    PHE E  45      20.200 -11.239  14.153  1.00 43.36 LIG 0.16  HD
ATOM      8 O    SER E  44      23.203 -10.992  14.495  1.00 37.54 LIG-0.27  OA
BRANCH 6 9
ATOM      9  CA  PHE E  45      20.884 -11.126  16.000  1.00 46.68 LIG 0.18  C 
BRANCH 9 10
ATOM     10  C   PHE E  45      20.521 -12.514  16.508  1.00 48.11 LIG 0.24  C 
ATOM     11 O    PHE E  45      20.756 -12.837  17.674  1.00 49.85 LIG-0.27  OA
ATOM     12  N   GLY E  46      19.945 -13.339  15.643  1.00 50.71 LIG-0.35  N 
ATOM     13 H    GLY E  46      19.767 -13.152  14.823  1.00 50.71 LIG 0.16  HD
BRANCH 12 14
ATOM     14  CA  GLY E  46      19.571 -14.671  16.077  1.00 54.23 LIG 0.21  C 
BRANCH 14 15
ATOM     15  C   GLY E  46      18.248 -15.122  15.499  1.00 55.55 LIG 0.21  C 
ATOM     16 O    GLY E  46      17.226 -14.930  16.184  1.00 59.11 LIG-0.29  OA
ENDBRANCH 14 15
ENDBRANCH 12 14
ENDBRANCH 9 10
BRANCH 9 17
ATOM     17  CB  PHE E  45      19.834 -10.105  16.450  1.00 43.03 LIG 0.07  C 
BRANCH 17 18
ATOM     18  CG  PHE E  45      20.174  -9.414  17.746  1.00 41.93 LIG-0.06  A 
ATOM     19  CD2 PHE E  45      19.186  -8.786  18.503  1.00 42.38 LIG 0.01  A 
ATOM     20  CE2 PHE E  45      19.498  -8.171  19.718  1.00 42.73 LIG 0.00  A 
ATOM     21  CZ  PHE E  45      20.809  -8.180  20.184  1.00 42.74 LIG 0.00  A 
ATOM     22  CE1 PHE E  45      21.804  -8.805  19.438  1.00 41.89 LIG 0.00  A 
ATOM     23  CD1 PHE E  45      21.482  -9.418  18.225  1.00 42.01 LIG 0.01  A 
ENDBRANCH 17 18
ENDBRANCH 9 17
ENDBRANCH 6 9
ENDBRANCH 1 5
BRANCH 1 24
ATOM     24  N   SER E  44      22.672 -10.097  11.751  1.00 46.50 LIG-0.34  N 
ATOM     25  C   PHE E  43      23.976  -9.968  11.863  1.00 47.40 LIG 0.24  C 
ATOM     26 O    PHE E  43      24.649 -10.746  12.533  1.00 45.80 LIG-0.27  OA
ATOM     27 H    SER E  44      22.151  -9.570  11.315  1.00 46.50 LIG 0.16  HD
BRANCH 25 28
ATOM     28  CA  PHE E  43      24.612  -8.783  11.169  1.00 47.87 LIG 0.18  C 
BRANCH 28 29
ATOM     29  N   PHE E  43      25.716  -8.600  12.066  1.00 51.92 LIG-0.35  N 
ATOM     30  C   GLY E  42      26.223  -7.452  12.476  1.00 55.92 LIG 0.24  C 
ATOM     31 O    GLY E  42      25.835  -6.323  12.143  1.00 57.26 LIG-0.27  OA
ATOM     32 H    PHE E  43      26.042  -9.351  12.331  1.00 51.92 LIG 0.16  HD
BRANCH 30 33
ATOM     33  CA  GLY E  42      27.366  -7.672  13.435  1.00 58.33 LIG 0.33  C 
BRANCH 33 34
ATOM     34  N   GLY E  42      27.036  -8.442  14.601  1.00 60.94 LIG-0.07  N 
ATOM     35 H3   GLY E  42      26.266  -8.868  14.468  1.00 60.94 LIG 0.27  HD
ATOM     36 H1   GLY E  42      27.681  -9.036  14.758  1.00 60.94 LIG 0.27  HD
ATOM     37 H2   GLY E  42      26.957  -7.899  15.302  1.00 60.94 LIG 0.27  HD
ENDBRANCH 33 34
ENDBRANCH 30 33
ENDBRANCH 28 29
BRANCH 28 38
ATOM     38  CB  PHE E  43      25.078  -9.218   9.783  1.00 42.32 LIG 0.07  C 
BRANCH 38 39
ATOM     39  CG  PHE E  43      24.586  -8.358   8.633  1.00 35.12 LIG-0.06  A 
ATOM     40  CD1 PHE E  43      24.221  -8.984   7.451  1.00 34.02 LIG 0.01  A 
ATOM     41  CE1 PHE E  43      23.728  -8.267   6.357  1.00 29.46 LIG 0.00  A 
ATOM     42  CZ  PHE E  43      23.590  -6.886   6.435  1.00 28.92 LIG 0.00  A 
ATOM     43  CE2 PHE E  43      23.947  -6.225   7.617  1.00 30.40 LIG 0.00  A 
ATOM     44  CD2 PHE E  43      24.451  -6.966   8.722  1.00 32.72 LIG 0.01  A 
ENDBRANCH 38 39
ENDBRANCH 28 38
ENDBRANCH 25 28
ENDBRANCH 1 24
TORSDOF 16
ENDMDL
MODEL 51
USER: ADFR SOLUTION from run 139
USER: SCORE 13.537744 LL:  -3.678 LR: -11.737 RR:   0.000 FEB:  -6.964
USER: RMSD 8.032111
USER: SEED 138
USER: STATUS no improvement in best 14 clusters for 5 generations
USER: GENES 18
USER: genes 0 Translation |==|  0.51441 0.50708 0.47969
USER: genes 1 Rotation |==|  0.72945 0.06778 0.40671 0.54284
USER: genes 2 Torsion [C]-CA--CB-[OG] |==|  0.31045
USER: genes 3 Torsion [CA]-CB--OG-[HG] |==|  0.89502
USER: genes 4 Torsion [N]-CA--C-[N] |==|  0.74378
USER: genes 5 Torsion [C]-N--CA-[C] |==|  0.63253
USER: genes 6 Torsion [N]-CA--C-[N] |==|  0.47222
USER: genes 7 Torsion [C]-N--CA-[C] |==|  0.43953
USER: genes 8 Torsion [N]-CA--C-[O] |==|  0.29135
USER: genes 9 Torsion [N]-CA--CB-[CG] |==|  0.80174
USER: genes 10 Torsion [CA]-CB--CG-[CD1] |==|  0.70898
USER: genes 11 Torsion [CB]-CA--N-[C] |==|  0.40621
USER: genes 12 Torsion [N]-C--CA-[N] |==|  0.36529
USER: genes 13 Torsion [C]-CA--N-[C] |==|  0.80888
USER: genes 14 Torsion [N]-C--CA-[N] |==|  0.09191
USER: genes 15 Torsion [C]-CA--N-[H2] |==|  0.01442
USER: genes 16 Torsion [C]-CA--CB-[CG] |==|  0.05705
USER: genes 17 Torsion [CA]-CB--CG-[CD1] |==|  0.72727
ROOT
ATOM      1  CA  SER E  44      26.642  -7.218  17.861  1.00 44.79 LIG 0.20  C 
ENDROOT
BRANCH 1 2
ATOM      2  CB  SER E  44      27.019  -8.698  17.819  1.00 46.10 LIG 0.20  C 
BRANCH 2 3
ATOM      3 OG   SER E  44      26.585  -9.280  16.607  1.00 47.85 LIG-0.40  OA
ATOM      4 HG   SER E  44      25.839  -8.958  16.393  1.00 47.85 LIG 0.21  HD
ENDBRANCH 2 3
ENDBRANCH 1 2
BRANCH 1 5
ATOM      5  C   SER E  44      25.582  -6.988  18.914  1.00 42.78 LIG 0.24  C 
ATOM      6  N   PHE E  45      25.637  -7.807  19.953  1.00 43.36 LIG-0.35  N 
ATOM      7 H    PHE E  45      26.214  -8.440  20.038  1.00 43.36 LIG 0.16  HD
ATOM      8 O    SER E  44      24.721  -6.117  18.783  1.00 37.54 LIG-0.27  OA
BRANCH 6 9
ATOM      9  CA  PHE E  45      24.700  -7.694  21.058  1.00 46.68 LIG 0.18  C 
BRANCH 9 10
ATOM     10  C   PHE E  45      25.487  -7.734  22.360  1.00 48.11 LIG 0.24  C 
ATOM     11 O    PHE E  45      26.685  -8.026  22.361  1.00 49.85 LIG-0.27  OA
ATOM     12  N   GLY E  46      24.825  -7.440  23.472  1.00 50.71 LIG-0.35  N 
ATOM     13 H    GLY E  46      23.991  -7.234  23.512  1.00 50.71 LIG 0.16  HD
BRANCH 12 14
ATOM     14  CA  GLY E  46      25.528  -7.454  24.740  1.00 54.23 LIG 0.21  C 
BRANCH 14 15
ATOM     15  C   GLY E  46      24.838  -6.624  25.798  1.00 55.55 LIG 0.21  C 
ATOM     16 O    GLY E  46      24.215  -7.231  26.690  1.00 59.11 LIG-0.29  OA
ENDBRANCH 14 15
ENDBRANCH 12 14
ENDBRANCH 9 10
BRANCH 9 17
ATOM     17  CB  PHE E  45      23.679  -8.836  21.020  1.00 43.03 LIG 0.07  C 
BRANCH 17 18
ATOM     18  CG  PHE E  45      22.678  -8.720  19.900  1.00 41.93 LIG-0.06  A 
ATOM     19  CD2 PHE E  45      23.031  -9.040  18.589  1.00 42.38 LIG 0.01  A 
ATOM     20  CE2 PHE E  45      22.095  -8.960  17.555  1.00 42.73 LIG 0.00  A 
ATOM     21  CZ  PHE E  45      20.792  -8.555  17.829  1.00 42.74 LIG 0.00  A 
ATOM     22  CE1 PHE E  45      20.427  -8.233  19.133  1.00 41.89 LIG 0.00  A 
ATOM     23  CD1 PHE E  45      21.370  -8.317  20.160  1.00 42.01 LIG 0.01  A 
ENDBRANCH 17 18
ENDBRANCH 9 17
ENDBRANCH 6 9
ENDBRANCH 1 5
BRANCH 1 24
ATOM     24  N   SER E  44      27.824  -6.409  18.076  1.00 46.50 LIG-0.34  N 
ATOM     25  C   PHE E  43      27.876  -5.225  17.507  1.00 47.40 LIG 0.24  C 
ATOM     26 O    PHE E  43      26.975  -4.813  16.781  1.00 45.80 LIG-0.27  OA
ATOM     27 H    SER E  44      28.433  -6.755  18.573  1.00 46.50 LIG 0.16  HD
BRANCH 25 28
ATOM     28  CA  PHE E  43      29.124  -4.404  17.743  1.00 47.87 LIG 0.18  C 
BRANCH 28 29
ATOM     29  N   PHE E  43      29.382  -4.040  16.380  1.00 51.92 LIG-0.35  N 
ATOM     30  C   GLY E  42      29.767  -4.841  15.404  1.00 55.92 LIG 0.24  C 
ATOM     31 O    GLY E  42      29.988  -6.056  15.502  1.00 57.26 LIG-0.27  OA
ATOM     32 H    PHE E  43      29.255  -3.200  16.243  1.00 51.92 LIG 0.16  HD
BRANCH 30 33
ATOM     33  CA  GLY E  42      29.910  -4.088  14.105  1.00 58.33 LIG 0.33  C 
BRANCH 33 34
ATOM     34  N   GLY E  42      30.345  -2.726  14.240  1.00 60.94 LIG-0.07  N 
ATOM     35 H3   GLY E  42      31.070  -2.595  13.741  1.00 60.94 LIG 0.27  HD
ATOM     36 H1   GLY E  42      29.696  -2.179  13.970  1.00 60.94 LIG 0.27  HD
ATOM     37 H2   GLY E  42      30.538  -2.560  15.093  1.00 60.94 LIG 0.27  HD
ENDBRANCH 33 34
ENDBRANCH 30 33
ENDBRANCH 28 29
BRANCH 28 38
ATOM     38  CB  PHE E  43      28.760  -3.189  18.591  1.00 42.32 LIG 0.07  C 
BRANCH 38 39
ATOM     39  CG  PHE E  43      27.472  -3.312  19.383  1.00 35.12 LIG-0.06  A 
ATOM     40  CD1 PHE E  43      26.321  -2.741  18.862  1.00 34.02 LIG 0.01  A 
ATOM     41  CE1 PHE E  43      25.088  -2.838  19.514  1.00 29.46 LIG 0.00  A 
ATOM     42  CZ  PHE E  43      24.989  -3.522  20.719  1.00 28.92 LIG 0.00  A 
ATOM     43  CE2 PHE E  43      26.134  -4.113  21.270  1.00 30.40 LIG 0.00  A 
ATOM     44  CD2 PHE E  43      27.383  -4.004  20.598  1.00 32.72 LIG 0.01  A 
ENDBRANCH 38 39
ENDBRANCH 28 38
ENDBRANCH 25 28
ENDBRANCH 1 24
TORSDOF 16
ENDMDL
MODEL 52
USER: ADFR SOLUTION from run 104
USER: SCORE 12.340982 LL:  -2.846 LR: -11.734 RR:   0.000 FEB:  -6.961
USER: RMSD 8.558027
USER: SEED 103
USER: STATUS no improvement in best 21 clusters for 5 generations
USER: GENES 18
USER: genes 0 Translation |==|  0.38410 0.36371 0.31026
USER: genes 1 Rotation |==|  0.72799 0.70588 0.33290 0.85737
USER: genes 2 Torsion [C]-CA--CB-[OG] |==|  0.72439
USER: genes 3 Torsion [CA]-CB--OG-[HG] |==|  0.46925
USER: genes 4 Torsion [N]-CA--C-[N] |==|  0.61131
USER: genes 5 Torsion [C]-N--CA-[C] |==|  0.67382
USER: genes 6 Torsion [N]-CA--C-[N] |==|  0.84068
USER: genes 7 Torsion [C]-N--CA-[C] |==|  0.59852
USER: genes 8 Torsion [N]-CA--C-[O] |==|  0.43886
USER: genes 9 Torsion [N]-CA--CB-[CG] |==|  0.41676
USER: genes 10 Torsion [CA]-CB--CG-[CD1] |==|  0.69580
USER: genes 11 Torsion [CB]-CA--N-[C] |==|  0.44485
USER: genes 12 Torsion [N]-C--CA-[N] |==|  0.42440
USER: genes 13 Torsion [C]-CA--N-[C] |==|  0.75371
USER: genes 14 Torsion [N]-C--CA-[N] |==|  0.40115
USER: genes 15 Torsion [C]-CA--N-[H2] |==|  0.98041
USER: genes 16 Torsion [C]-CA--CB-[CG] |==|  0.50854
USER: genes 17 Torsion [CA]-CB--CG-[CD1] |==|  0.27690
ROOT
ATOM      1  CA  SER E  44      22.733 -11.519  12.778  1.00 44.79 LIG 0.20  C 
ENDROOT
BRANCH 1 2
ATOM      2  CB  SER E  44      22.147 -11.593  11.369  1.00 46.10 LIG 0.20  C 
BRANCH 2 3
ATOM      3 OG   SER E  44      20.991 -10.787  11.276  1.00 47.85 LIG-0.40  OA
ATOM      4 HG   SER E  44      20.764 -10.713  10.471  1.00 47.85 LIG 0.21  HD
ENDBRANCH 2 3
ENDBRANCH 1 2
BRANCH 1 5
ATOM      5  C   SER E  44      23.889 -10.544  12.802  1.00 42.78 LIG 0.24  C 
ATOM      6  N   PHE E  45      24.385 -10.232  11.614  1.00 43.36 LIG-0.35  N 
ATOM      7 H    PHE E  45      24.098 -10.558  10.872  1.00 43.36 LIG 0.16  HD
ATOM      8 O    SER E  44      24.341 -10.105  13.861  1.00 37.54 LIG-0.27  OA
BRANCH 6 9
ATOM      9  CA  PHE E  45      25.482  -9.289  11.475  1.00 46.68 LIG 0.18  C 
BRANCH 9 10
ATOM     10  C   PHE E  45      24.988  -8.096  10.670  1.00 48.11 LIG 0.24  C 
ATOM     11 O    PHE E  45      25.051  -6.956  11.134  1.00 49.85 LIG-0.27  OA
ATOM     12  N   GLY E  46      24.498  -8.347   9.463  1.00 50.71 LIG-0.35  N 
ATOM     13 H    GLY E  46      24.435  -9.127   9.106  1.00 50.71 LIG 0.16  HD
BRANCH 12 14
ATOM     14  CA  GLY E  46      24.021  -7.246   8.649  1.00 54.23 LIG 0.21  C 
BRANCH 14 15
ATOM     15  C   GLY E  46      22.818  -7.618   7.812  1.00 55.55 LIG 0.21  C 
ATOM     16 O    GLY E  46      22.085  -6.693   7.415  1.00 59.11 LIG-0.29  OA
ENDBRANCH 14 15
ENDBRANCH 12 14
ENDBRANCH 9 10
BRANCH 9 17
ATOM     17  CB  PHE E  45      26.674  -9.947  10.771  1.00 43.03 LIG 0.07  C 
BRANCH 17 18
ATOM     18  CG  PHE E  45      27.510  -8.985   9.966  1.00 41.93 LIG-0.06  A 
ATOM     19  CD2 PHE E  45      28.332  -8.051  10.596  1.00 42.38 LIG 0.01  A 
ATOM     20  CE2 PHE E  45      29.129  -7.179   9.849  1.00 42.73 LIG 0.00  A 
ATOM     21  CZ  PHE E  45      29.106  -7.238   8.459  1.00 42.74 LIG 0.00  A 
ATOM     22  CE1 PHE E  45      28.292  -8.167   7.818  1.00 41.89 LIG 0.00  A 
ATOM     23  CD1 PHE E  45      27.499  -9.035   8.574  1.00 42.01 LIG 0.01  A 
ENDBRANCH 17 18
ENDBRANCH 9 17
ENDBRANCH 6 9
ENDBRANCH 1 5
BRANCH 1 24
ATOM     24  N   SER E  44      21.698 -11.177  13.731  1.00 46.50 LIG-0.34  N 
ATOM     25  C   PHE E  43      21.908 -11.451  14.999  1.00 47.40 LIG 0.24  C 
ATOM     26 O    PHE E  43      22.931 -12.013  15.380  1.00 45.80 LIG-0.27  OA
ATOM     27 H    SER E  44      20.993 -10.808  13.406  1.00 46.50 LIG 0.16  HD
BRANCH 25 28
ATOM     28  CA  PHE E  43      20.808 -11.090  15.972  1.00 47.87 LIG 0.18  C 
BRANCH 28 29
ATOM     29  N   PHE E  43      21.094 -12.080  16.970  1.00 51.92 LIG-0.35  N 
ATOM     30  C   GLY E  42      20.622 -13.311  17.025  1.00 55.92 LIG 0.24  C 
ATOM     31 O    GLY E  42      19.832 -13.825  16.221  1.00 57.26 LIG-0.27  OA
ATOM     32 H    PHE E  43      21.635 -11.783  17.569  1.00 51.92 LIG 0.16  HD
BRANCH 30 33
ATOM     33  CA  GLY E  42      21.175 -14.055  18.214  1.00 58.33 LIG 0.33  C 
BRANCH 33 34
ATOM     34  N   GLY E  42      20.258 -14.968  18.836  1.00 60.94 LIG-0.07  N 
ATOM     35 H3   GLY E  42      20.543 -15.803  18.717  1.00 60.94 LIG 0.27  HD
ATOM     36 H1   GLY E  42      20.210 -14.793  19.708  1.00 60.94 LIG 0.27  HD
ATOM     37 H2   GLY E  42      19.453 -14.875  18.470  1.00 60.94 LIG 0.27  HD
ENDBRANCH 33 34
ENDBRANCH 30 33
ENDBRANCH 28 29
BRANCH 28 38
ATOM     38  CB  PHE E  43      21.056  -9.677  16.492  1.00 42.32 LIG 0.07  C 
BRANCH 38 39
ATOM     39  CG  PHE E  43      20.073  -9.189  17.540  1.00 35.12 LIG-0.06  A 
ATOM     40  CD1 PHE E  43      20.451  -9.240  18.873  1.00 34.02 LIG 0.01  A 
ATOM     41  CE1 PHE E  43      19.617  -8.780  19.896  1.00 29.46 LIG 0.00  A 
ATOM     42  CZ  PHE E  43      18.369  -8.250  19.591  1.00 28.92 LIG 0.00  A 
ATOM     43  CE2 PHE E  43      17.960  -8.180  18.253  1.00 30.40 LIG 0.00  A 
ATOM     44  CD2 PHE E  43      18.817  -8.655  17.222  1.00 32.72 LIG 0.01  A 
ENDBRANCH 38 39
ENDBRANCH 28 38
ENDBRANCH 25 28
ENDBRANCH 1 24
TORSDOF 16
ENDMDL
MODEL 53
USER: ADFR SOLUTION from run 155
USER: SCORE 14.947508 LL:  -3.645 LR: -11.723 RR:   0.000 FEB:  -6.950
USER: RMSD 10.334124
USER: SEED 154
USER: STATUS no improvement in best 10 clusters for 5 generations
USER: GENES 18
USER: genes 0 Translation |==|  0.28285 0.27500 0.44694
USER: genes 1 Rotation |==|  0.44976 0.22469 0.33962 0.88205
USER: genes 2 Torsion [C]-CA--CB-[OG] |==|  0.33496
USER: genes 3 Torsion [CA]-CB--OG-[HG] |==|  0.91212
USER: genes 4 Torsion [N]-CA--C-[N] |==|  0.35394
USER: genes 5 Torsion [C]-N--CA-[C] |==|  0.65881
USER: genes 6 Torsion [N]-CA--C-[N] |==|  0.01127
USER: genes 7 Torsion [C]-N--CA-[C] |==|  0.43275
USER: genes 8 Torsion [N]-CA--C-[O] |==|  0.74875
USER: genes 9 Torsion [N]-CA--CB-[CG] |==|  0.11924
USER: genes 10 Torsion [CA]-CB--CG-[CD1] |==|  0.20844
USER: genes 11 Torsion [CB]-CA--N-[C] |==|  0.84037
USER: genes 12 Torsion [N]-C--CA-[N] |==|  0.88333
USER: genes 13 Torsion [C]-CA--N-[C] |==|  0.76667
USER: genes 14 Torsion [N]-C--CA-[N] |==|  0.92997
USER: genes 15 Torsion [C]-CA--N-[H2] |==|  0.53647
USER: genes 16 Torsion [C]-CA--CB-[CG] |==|  0.03622
USER: genes 17 Torsion [CA]-CB--CG-[CD1] |==|  0.21710
ROOT
ATOM      1  CA  SER E  44      19.695 -14.180  16.878  1.00 44.79 LIG 0.20  C 
ENDROOT
BRANCH 1 2
ATOM      2  CB  SER E  44      19.594 -15.606  17.417  1.00 46.10 LIG 0.20  C 
BRANCH 2 3
ATOM      3 OG   SER E  44      18.476 -15.729  18.271  1.00 47.85 LIG-0.40  OA
ATOM      4 HG   SER E  44      18.341 -14.998  18.663  1.00 47.85 LIG 0.21  HD
ENDBRANCH 2 3
ENDBRANCH 1 2
BRANCH 1 5
ATOM      5  C   SER E  44      21.020 -13.572  17.282  1.00 42.78 LIG 0.24  C 
ATOM      6  N   PHE E  45      20.942 -12.615  18.194  1.00 43.36 LIG-0.35  N 
ATOM      7 H    PHE E  45      20.205 -12.333  18.536  1.00 43.36 LIG 0.16  HD
ATOM      8 O    SER E  44      22.079 -13.933  16.767  1.00 37.54 LIG-0.27  OA
BRANCH 6 9
ATOM      9  CA  PHE E  45      22.133 -11.952  18.701  1.00 46.68 LIG 0.18  C 
BRANCH 9 10
ATOM     10  C   PHE E  45      22.168 -12.120  20.213  1.00 48.11 LIG 0.24  C 
ATOM     11 O    PHE E  45      23.047 -11.577  20.885  1.00 49.85 LIG-0.27  OA
ATOM     12  N   GLY E  46      21.216 -12.868  20.756  1.00 50.71 LIG-0.35  N 
ATOM     13 H    GLY E  46      20.589 -13.265  20.322  1.00 50.71 LIG 0.16  HD
BRANCH 12 14
ATOM     14  CA  GLY E  46      21.196 -13.055  22.194  1.00 54.23 LIG 0.21  C 
BRANCH 14 15
ATOM     15  C   GLY E  46      19.820 -13.397  22.718  1.00 55.55 LIG 0.21  C 
ATOM     16 O    GLY E  46      19.085 -12.452  23.063  1.00 59.11 LIG-0.29  OA
ENDBRANCH 14 15
ENDBRANCH 12 14
ENDBRANCH 9 10
BRANCH 9 17
ATOM     17  CB  PHE E  45      22.121 -10.465  18.333  1.00 43.03 LIG 0.07  C 
BRANCH 17 18
ATOM     18  CG  PHE E  45      20.780  -9.802  18.521  1.00 41.93 LIG-0.06  A 
ATOM     19  CD2 PHE E  45      19.963  -9.518  17.428  1.00 42.38 LIG 0.01  A 
ATOM     20  CE2 PHE E  45      18.707  -8.930  17.606  1.00 42.73 LIG 0.00  A 
ATOM     21  CZ  PHE E  45      18.262  -8.621  18.887  1.00 42.74 LIG 0.00  A 
ATOM     22  CE1 PHE E  45      19.068  -8.901  19.987  1.00 41.89 LIG 0.00  A 
ATOM     23  CD1 PHE E  45      20.321  -9.489  19.798  1.00 42.01 LIG 0.01  A 
ENDBRANCH 17 18
ENDBRANCH 9 17
ENDBRANCH 6 9
ENDBRANCH 1 5
BRANCH 1 24
ATOM     24  N   SER E  44      19.496 -14.173  15.444  1.00 46.50 LIG-0.34  N 
ATOM     25  C   PHE E  43      20.296 -14.908  14.703  1.00 47.40 LIG 0.24  C 
ATOM     26 O    PHE E  43      21.215 -15.561  15.192  1.00 45.80 LIG-0.27  OA
ATOM     27 H    SER E  44      18.854 -13.680  15.154  1.00 46.50 LIG 0.16  HD
BRANCH 25 28
ATOM     28  CA  PHE E  43      20.069 -14.877  13.208  1.00 47.87 LIG 0.18  C 
BRANCH 28 29
ATOM     29  N   PHE E  43      18.636 -14.932  13.225  1.00 51.92 LIG-0.35  N 
ATOM     30  C   GLY E  42      17.884 -16.013  13.317  1.00 55.92 LIG 0.24  C 
ATOM     31 O    GLY E  42      18.291 -17.180  13.393  1.00 57.26 LIG-0.27  OA
ATOM     32 H    PHE E  43      18.285 -14.148  13.167  1.00 51.92 LIG 0.16  HD
BRANCH 30 33
ATOM     33  CA  GLY E  42      16.418 -15.657  13.327  1.00 58.33 LIG 0.33  C 
BRANCH 33 34
ATOM     34  N   GLY E  42      16.120 -14.335  13.799  1.00 60.94 LIG-0.07  N 
ATOM     35 H3   GLY E  42      16.569 -14.179  14.551  1.00 60.94 LIG 0.27  HD
ATOM     36 H1   GLY E  42      16.359 -13.738  13.182  1.00 60.94 LIG 0.27  HD
ATOM     37 H2   GLY E  42      15.247 -14.265  13.955  1.00 60.94 LIG 0.27  HD
ENDBRANCH 33 34
ENDBRANCH 30 33
ENDBRANCH 28 29
BRANCH 28 38
ATOM     38  CB  PHE E  43      20.576 -13.546  12.662  1.00 42.32 LIG 0.07  C 
BRANCH 38 39
ATOM     39  CG  PHE E  43      21.434 -12.736  13.616  1.00 35.12 LIG-0.06  A 
ATOM     40  CD1 PHE E  43      22.759 -13.106  13.787  1.00 34.02 LIG 0.01  A 
ATOM     41  CE1 PHE E  43      23.623 -12.393  14.623  1.00 29.46 LIG 0.00  A 
ATOM     42  CZ  PHE E  43      23.163 -11.277  15.311  1.00 28.92 LIG 0.00  A 
ATOM     43  CE2 PHE E  43      21.830 -10.875  15.156  1.00 30.40 LIG 0.00  A 
ATOM     44  CD2 PHE E  43      20.960 -11.612  14.305  1.00 32.72 LIG 0.01  A 
ENDBRANCH 38 39
ENDBRANCH 28 38
ENDBRANCH 25 28
ENDBRANCH 1 24
TORSDOF 16
ENDMDL
MODEL 54
USER: ADFR SOLUTION from run 92
USER: SCORE 14.049880 LL:  -3.073 LR: -11.718 RR:   0.000 FEB:  -6.945
USER: RMSD 13.009171
USER: SEED 91
USER: STATUS no improvement in best 10 clusters for 5 generations
USER: GENES 18
USER: genes 0 Translation |==|  0.30658 0.32636 0.28262
USER: genes 1 Rotation |==|  0.13270 0.68185 0.70706 0.69786
USER: genes 2 Torsion [C]-CA--CB-[OG] |==|  0.38880
USER: genes 3 Torsion [CA]-CB--OG-[HG] |==|  0.81579
USER: genes 4 Torsion [N]-CA--C-[N] |==|  0.06749
USER: genes 5 Torsion [C]-N--CA-[C] |==|  0.66391
USER: genes 6 Torsion [N]-CA--C-[N] |==|  0.33914
USER: genes 7 Torsion [C]-N--CA-[C] |==|  0.74664
USER: genes 8 Torsion [N]-CA--C-[O] |==|  0.42288
USER: genes 9 Torsion [N]-CA--CB-[CG] |==|  0.12676
USER: genes 10 Torsion [CA]-CB--CG-[CD1] |==|  0.77813
USER: genes 11 Torsion [CB]-CA--N-[C] |==|  0.15577
USER: genes 12 Torsion [N]-C--CA-[N] |==|  0.36942
USER: genes 13 Torsion [C]-CA--N-[C] |==|  0.57171
USER: genes 14 Torsion [N]-C--CA-[N] |==|  0.16470
USER: genes 15 Torsion [C]-CA--N-[H2] |==|  0.60202
USER: genes 16 Torsion [C]-CA--CB-[CG] |==|  0.57402
USER: genes 17 Torsion [CA]-CB--CG-[CD1] |==|  0.23428
ROOT
ATOM      1  CA  SER E  44      20.407 -12.639  11.949  1.00 44.79 LIG 0.20  C 
ENDROOT
BRANCH 1 2
ATOM      2  CB  SER E  44      21.857 -12.793  11.492  1.00 46.10 LIG 0.20  C 
BRANCH 2 3
ATOM      3 OG   SER E  44      22.391 -11.537  11.125  1.00 47.85 LIG-0.40  OA
ATOM      4 HG   SER E  44      21.994 -11.252  10.442  1.00 47.85 LIG 0.21  HD
ENDBRANCH 2 3
ENDBRANCH 1 2
BRANCH 1 5
ATOM      5  C   SER E  44      19.580 -13.790  11.423  1.00 42.78 LIG 0.24  C 
ATOM      6  N   PHE E  45      18.585 -14.171  12.211  1.00 43.36 LIG-0.35  N 
ATOM      7 H    PHE E  45      18.412 -13.816  12.975  1.00 43.36 LIG 0.16  HD
ATOM      8 O    SER E  44      19.845 -14.340  10.353  1.00 37.54 LIG-0.27  OA
BRANCH 6 9
ATOM      9  CA  PHE E  45      17.687 -15.249  11.830  1.00 46.68 LIG 0.18  C 
BRANCH 9 10
ATOM     10  C   PHE E  45      16.268 -14.699  11.792  1.00 48.11 LIG 0.24  C 
ATOM     11 O    PHE E  45      15.770 -14.178  12.792  1.00 49.85 LIG-0.27  OA
ATOM     12  N   GLY E  46      15.613 -14.807  10.643  1.00 50.71 LIG-0.35  N 
ATOM     13 H    GLY E  46      15.925 -15.164   9.926  1.00 50.71 LIG 0.16  HD
BRANCH 12 14
ATOM     14  CA  GLY E  46      14.261 -14.292  10.548  1.00 54.23 LIG 0.21  C 
BRANCH 14 15
ATOM     15  C   GLY E  46      13.216 -15.332  10.883  1.00 55.55 LIG 0.21  C 
ATOM     16 O    GLY E  46      12.132 -14.930  11.345  1.00 59.11 LIG-0.29  OA
ENDBRANCH 14 15
ENDBRANCH 12 14
ENDBRANCH 9 10
BRANCH 9 17
ATOM     17  CB  PHE E  45      17.780 -16.408  12.828  1.00 43.03 LIG 0.07  C 
BRANCH 17 18
ATOM     18  CG  PHE E  45      17.758 -15.971  14.270  1.00 41.93 LIG-0.06  A 
ATOM     19  CD2 PHE E  45      16.596 -16.079  15.033  1.00 42.38 LIG 0.01  A 
ATOM     20  CE2 PHE E  45      16.584 -15.701  16.379  1.00 42.73 LIG 0.00  A 
ATOM     21  CZ  PHE E  45      17.743 -15.208  16.971  1.00 42.74 LIG 0.00  A 
ATOM     22  CE1 PHE E  45      18.910 -15.097  16.220  1.00 41.89 LIG 0.00  A 
ATOM     23  CD1 PHE E  45      18.912 -15.478  14.876  1.00 42.01 LIG 0.01  A 
ENDBRANCH 17 18
ENDBRANCH 9 17
ENDBRANCH 6 9
ENDBRANCH 1 5
BRANCH 1 24
ATOM     24  N   SER E  44      20.348 -12.526  13.391  1.00 46.50 LIG-0.34  N 
ATOM     25  C   PHE E  43      21.046 -11.572  13.967  1.00 47.40 LIG 0.24  C 
ATOM     26 O    PHE E  43      21.761 -10.811  13.321  1.00 45.80 LIG-0.27  OA
ATOM     27 H    SER E  44      19.852 -13.099  13.795  1.00 46.50 LIG 0.16  HD
BRANCH 25 28
ATOM     28  CA  PHE E  43      20.972 -11.481  15.475  1.00 47.87 LIG 0.18  C 
BRANCH 28 29
ATOM     29  N   PHE E  43      22.376 -11.352  15.734  1.00 51.92 LIG-0.35  N 
ATOM     30  C   GLY E  42      23.014 -11.692  16.839  1.00 55.92 LIG 0.24  C 
ATOM     31 O    GLY E  42      22.501 -12.174  17.857  1.00 57.26 LIG-0.27  OA
ATOM     32 H    PHE E  43      22.796 -11.012  15.064  1.00 51.92 LIG 0.16  HD
BRANCH 30 33
ATOM     33  CA  GLY E  42      24.493 -11.424  16.718  1.00 58.33 LIG 0.33  C 
BRANCH 33 34
ATOM     34  N   GLY E  42      24.841 -10.055  16.459  1.00 60.94 LIG-0.07  N 
ATOM     35 H3   GLY E  42      24.150  -9.639  16.082  1.00 60.94 LIG 0.27  HD
ATOM     36 H1   GLY E  42      25.049  -9.651  17.225  1.00 60.94 LIG 0.27  HD
ATOM     37 H2   GLY E  42      25.540 -10.025  15.909  1.00 60.94 LIG 0.27  HD
ENDBRANCH 33 34
ENDBRANCH 30 33
ENDBRANCH 28 29
BRANCH 28 38
ATOM     38  CB  PHE E  43      20.210 -10.214  15.853  1.00 42.32 LIG 0.07  C 
BRANCH 38 39
ATOM     39  CG  PHE E  43      20.558  -9.627  17.209  1.00 35.12 LIG-0.06  A 
ATOM     40  CD1 PHE E  43      21.656  -8.786  17.301  1.00 34.02 LIG 0.01  A 
ATOM     41  CE1 PHE E  43      22.023  -8.180  18.506  1.00 29.46 LIG 0.00  A 
ATOM     42  CZ  PHE E  43      21.281  -8.412  19.657  1.00 28.92 LIG 0.00  A 
ATOM     43  CE2 PHE E  43      20.163  -9.255  19.596  1.00 30.40 LIG 0.00  A 
ATOM     44  CD2 PHE E  43      19.802  -9.868  18.364  1.00 32.72 LIG 0.01  A 
ENDBRANCH 38 39
ENDBRANCH 28 38
ENDBRANCH 25 28
ENDBRANCH 1 24
TORSDOF 16
ENDMDL
MODEL 55
USER: ADFR SOLUTION from run 22
USER: SCORE 13.617679 LL:  -2.986 LR: -11.722 RR:   0.000 FEB:  -6.949
USER: RMSD 8.635775
USER: SEED 21
USER: STATUS no improvement in best 18 clusters for 5 generations
USER: GENES 18
USER: genes 0 Translation |==|  0.47199 0.42369 0.47122
USER: genes 1 Rotation |==|  0.19202 0.85737 0.58805 0.64028
USER: genes 2 Torsion [C]-CA--CB-[OG] |==|  0.23573
USER: genes 3 Torsion [CA]-CB--OG-[HG] |==|  0.02777
USER: genes 4 Torsion [N]-CA--C-[N] |==|  0.37111
USER: genes 5 Torsion [C]-N--CA-[C] |==|  0.63348
USER: genes 6 Torsion [N]-CA--C-[N] |==|  0.99768
USER: genes 7 Torsion [C]-N--CA-[C] |==|  0.25167
USER: genes 8 Torsion [N]-CA--C-[O] |==|  0.72195
USER: genes 9 Torsion [N]-CA--CB-[CG] |==|  0.71971
USER: genes 10 Torsion [CA]-CB--CG-[CD1] |==|  0.66788
USER: genes 11 Torsion [CB]-CA--N-[C] |==|  0.50080
USER: genes 12 Torsion [N]-C--CA-[N] |==|  0.43458
USER: genes 13 Torsion [C]-CA--N-[C] |==|  0.81608
USER: genes 14 Torsion [N]-C--CA-[N] |==|  0.50721
USER: genes 15 Torsion [C]-CA--N-[H2] |==|  0.22195
USER: genes 16 Torsion [C]-CA--CB-[CG] |==|  0.46061
USER: genes 17 Torsion [CA]-CB--CG-[CD1] |==|  0.58356
ROOT
ATOM      1  CA  SER E  44      25.370  -9.719  17.606  1.00 44.79 LIG 0.20  C 
ENDROOT
BRANCH 1 2
ATOM      2  CB  SER E  44      26.239 -10.963  17.427  1.00 46.10 LIG 0.20  C 
BRANCH 2 3
ATOM      3 OG   SER E  44      26.316 -11.314  16.061  1.00 47.85 LIG-0.40  OA
ATOM      4 HG   SER E  44      25.985 -10.699  15.594  1.00 47.85 LIG 0.21  HD
ENDBRANCH 2 3
ENDBRANCH 1 2
BRANCH 1 5
ATOM      5  C   SER E  44      23.914 -10.119  17.688  1.00 42.78 LIG 0.24  C 
ATOM      6  N   PHE E  45      23.210  -9.899  16.587  1.00 43.36 LIG-0.35  N 
ATOM      7 H    PHE E  45      23.531  -9.544  15.873  1.00 43.36 LIG 0.16  HD
ATOM      8 O    SER E  44      23.429 -10.585  18.720  1.00 37.54 LIG-0.27  OA
BRANCH 6 9
ATOM      9  CA  PHE E  45      21.803 -10.253  16.504  1.00 46.68 LIG 0.18  C 
BRANCH 9 10
ATOM     10  C   PHE E  45      21.576 -11.013  15.205  1.00 48.11 LIG 0.24  C 
ATOM     11 O    PHE E  45      20.456 -11.434  14.912  1.00 49.85 LIG-0.27  OA
ATOM     12  N   GLY E  46      22.631 -11.190  14.421  1.00 50.71 LIG-0.35  N 
ATOM     13 H    GLY E  46      23.428 -10.914  14.592  1.00 50.71 LIG 0.16  HD
BRANCH 12 14
ATOM     14  CA  GLY E  46      22.471 -11.900  13.167  1.00 54.23 LIG 0.21  C 
BRANCH 14 15
ATOM     15  C   GLY E  46      22.142 -10.979  12.014  1.00 55.55 LIG 0.21  C 
ATOM     16 O    GLY E  46      20.950 -10.903  11.660  1.00 59.11 LIG-0.29  OA
ENDBRANCH 14 15
ENDBRANCH 12 14
ENDBRANCH 9 10
BRANCH 9 17
ATOM     17  CB  PHE E  45      20.926  -8.997  16.544  1.00 43.03 LIG 0.07  C 
BRANCH 17 18
ATOM     18  CG  PHE E  45      20.306  -8.731  17.891  1.00 41.93 LIG-0.06  A 
ATOM     19  CD2 PHE E  45      21.102  -8.488  19.010  1.00 42.38 LIG 0.01  A 
ATOM     20  CE2 PHE E  45      20.526  -8.213  20.253  1.00 42.73 LIG 0.00  A 
ATOM     21  CZ  PHE E  45      19.141  -8.180  20.384  1.00 42.74 LIG 0.00  A 
ATOM     22  CE1 PHE E  45      18.335  -8.419  19.275  1.00 41.89 LIG 0.00  A 
ATOM     23  CD1 PHE E  45      18.921  -8.693  18.036  1.00 42.01 LIG 0.01  A 
ENDBRANCH 17 18
ENDBRANCH 9 17
ENDBRANCH 6 9
ENDBRANCH 1 5
BRANCH 1 24
ATOM     24  N   SER E  44      25.805  -8.970  18.766  1.00 46.50 LIG-0.34  N 
ATOM     25  C   PHE E  43      25.157  -7.866  19.070  1.00 47.40 LIG 0.24  C 
ATOM     26 O    PHE E  43      24.230  -7.448  18.382  1.00 45.80 LIG-0.27  OA
ATOM     27 H    SER E  44      26.474  -9.295  19.197  1.00 46.50 LIG 0.16  HD
BRANCH 25 28
ATOM     28  CA  PHE E  43      25.638  -7.100  20.282  1.00 47.87 LIG 0.18  C 
BRANCH 28 29
ATOM     29  N   PHE E  43      25.123  -5.812  19.917  1.00 51.92 LIG-0.35  N 
ATOM     30  C   GLY E  42      25.508  -5.062  18.900  1.00 55.92 LIG 0.24  C 
ATOM     31 O    GLY E  42      26.398  -5.341  18.085  1.00 57.26 LIG-0.27  OA
ATOM     32 H    PHE E  43      24.501  -5.552  20.452  1.00 51.92 LIG 0.16  HD
BRANCH 30 33
ATOM     33  CA  GLY E  42      24.710  -3.784  18.833  1.00 58.33 LIG 0.33  C 
BRANCH 33 34
ATOM     34  N   GLY E  42      25.024  -2.934  17.720  1.00 60.94 LIG-0.07  N 
ATOM     35 H3   GLY E  42      24.747  -2.105  17.892  1.00 60.94 LIG 0.27  HD
ATOM     36 H1   GLY E  42      25.904  -2.931  17.587  1.00 60.94 LIG 0.27  HD
ATOM     37 H2   GLY E  42      24.615  -3.237  16.990  1.00 60.94 LIG 0.27  HD
ENDBRANCH 33 34
ENDBRANCH 30 33
ENDBRANCH 28 29
BRANCH 28 38
ATOM     38  CB  PHE E  43      24.942  -7.654  21.522  1.00 42.32 LIG 0.07  C 
BRANCH 38 39
ATOM     39  CG  PHE E  43      25.547  -7.235  22.849  1.00 35.12 LIG-0.06  A 
ATOM     40  CD1 PHE E  43      25.445  -8.104  23.924  1.00 34.02 LIG 0.01  A 
ATOM     41  CE1 PHE E  43      26.003  -7.807  25.170  1.00 29.46 LIG 0.00  A 
ATOM     42  CZ  PHE E  43      26.687  -6.612  25.360  1.00 28.92 LIG 0.00  A 
ATOM     43  CE2 PHE E  43      26.811  -5.714  24.291  1.00 30.40 LIG 0.00  A 
ATOM     44  CD2 PHE E  43      26.235  -6.028  23.029  1.00 32.72 LIG 0.01  A 
ENDBRANCH 38 39
ENDBRANCH 28 38
ENDBRANCH 25 28
ENDBRANCH 1 24
TORSDOF 16
ENDMDL
MODEL 56
USER: ADFR SOLUTION from run 55
USER: SCORE 14.074947 LL:  -3.375 LR: -11.705 RR:   0.000 FEB:  -6.933
USER: RMSD 10.297801
USER: SEED 54
USER: STATUS no improvement in best 12 clusters for 5 generations
USER: GENES 18
USER: genes 0 Translation |==|  0.32857 0.33122 0.51147
USER: genes 1 Rotation |==|  0.71924 0.18024 0.33345 0.76823
USER: genes 2 Torsion [C]-CA--CB-[OG] |==|  0.21852
USER: genes 3 Torsion [CA]-CB--OG-[HG] |==|  0.06451
USER: genes 4 Torsion [N]-CA--C-[N] |==|  0.46553
USER: genes 5 Torsion [C]-N--CA-[C] |==|  0.81181
USER: genes 6 Torsion [N]-CA--C-[N] |==|  0.92401
USER: genes 7 Torsion [C]-N--CA-[C] |==|  0.40484
USER: genes 8 Torsion [N]-CA--C-[O] |==|  0.92584
USER: genes 9 Torsion [N]-CA--CB-[CG] |==|  0.78119
USER: genes 10 Torsion [CA]-CB--CG-[CD1] |==|  0.84214
USER: genes 11 Torsion [CB]-CA--N-[C] |==|  0.21111
USER: genes 12 Torsion [N]-C--CA-[N] |==|  0.42948
USER: genes 13 Torsion [C]-CA--N-[C] |==|  0.64337
USER: genes 14 Torsion [N]-C--CA-[N] |==|  0.36223
USER: genes 15 Torsion [C]-CA--N-[H2] |==|  0.94196
USER: genes 16 Torsion [C]-CA--CB-[CG] |==|  0.09577
USER: genes 17 Torsion [CA]-CB--CG-[CD1] |==|  0.69706
ROOT
ATOM      1  CA  SER E  44      21.067 -12.493  18.814  1.00 44.79 LIG 0.20  C 
ENDROOT
BRANCH 1 2
ATOM      2  CB  SER E  44      21.675 -13.817  18.354  1.00 46.10 LIG 0.20  C 
BRANCH 2 3
ATOM      3 OG   SER E  44      20.846 -14.896  18.734  1.00 47.85 LIG-0.40  OA
ATOM      4 HG   SER E  44      20.060 -14.620  18.845  1.00 47.85 LIG 0.21  HD
ENDBRANCH 2 3
ENDBRANCH 1 2
BRANCH 1 5
ATOM      5  C   SER E  44      21.335 -12.290  20.289  1.00 42.78 LIG 0.24  C 
ATOM      6  N   PHE E  45      20.681 -13.112  21.096  1.00 43.36 LIG-0.35  N 
ATOM      7 H    PHE E  45      20.129 -13.714  20.826  1.00 43.36 LIG 0.16  HD
ATOM      8 O    SER E  44      22.087 -11.401  20.691  1.00 37.54 LIG-0.27  OA
BRANCH 6 9
ATOM      9  CA  PHE E  45      20.854 -13.055  22.538  1.00 46.68 LIG 0.18  C 
BRANCH 9 10
ATOM     10  C   PHE E  45      22.270 -13.507  22.868  1.00 48.11 LIG 0.24  C 
ATOM     11 O    PHE E  45      22.836 -13.104  23.886  1.00 49.85 LIG-0.27  OA
ATOM     12  N   GLY E  46      22.846 -14.346  22.017  1.00 50.71 LIG-0.35  N 
ATOM     13 H    GLY E  46      22.486 -14.647  21.297  1.00 50.71 LIG 0.16  HD
BRANCH 12 14
ATOM     14  CA  GLY E  46      24.191 -14.815  22.288  1.00 54.23 LIG 0.21  C 
BRANCH 14 15
ATOM     15  C   GLY E  46      24.414 -16.239  21.829  1.00 55.55 LIG 0.21  C 
ATOM     16 O    GLY E  46      23.420 -16.988  21.774  1.00 59.11 LIG-0.29  OA
ENDBRANCH 14 15
ENDBRANCH 12 14
ENDBRANCH 9 10
BRANCH 9 17
ATOM     17  CB  PHE E  45      19.832 -13.955  23.241  1.00 43.03 LIG 0.07  C 
BRANCH 17 18
ATOM     18  CG  PHE E  45      18.457 -13.347  23.345  1.00 41.93 LIG-0.06  A 
ATOM     19  CD2 PHE E  45      17.339 -14.017  22.848  1.00 42.38 LIG 0.01  A 
ATOM     20  CE2 PHE E  45      16.061 -13.465  22.970  1.00 42.73 LIG 0.00  A 
ATOM     21  CZ  PHE E  45      15.894 -12.233  23.593  1.00 42.74 LIG 0.00  A 
ATOM     22  CE1 PHE E  45      17.001 -11.555  24.095  1.00 41.89 LIG 0.00  A 
ATOM     23  CD1 PHE E  45      18.275 -12.115  23.968  1.00 42.01 LIG 0.01  A 
ENDBRANCH 17 18
ENDBRANCH 9 17
ENDBRANCH 6 9
ENDBRANCH 1 5
BRANCH 1 24
ATOM     24  N   SER E  44      21.571 -11.405  18.003  1.00 46.50 LIG-0.34  N 
ATOM     25  C   PHE E  43      21.088 -11.262  16.788  1.00 47.40 LIG 0.24  C 
ATOM     26 O    PHE E  43      20.260 -12.040  16.324  1.00 45.80 LIG-0.27  OA
ATOM     27 H    SER E  44      22.167 -10.906  18.370  1.00 46.50 LIG 0.16  HD
BRANCH 25 28
ATOM     28  CA  PHE E  43      21.637 -10.121  15.961  1.00 47.87 LIG 0.18  C 
BRANCH 28 29
ATOM     29  N   PHE E  43      21.379 -10.676  14.664  1.00 51.92 LIG-0.35  N 
ATOM     30  C   GLY E  42      22.238 -10.805  13.670  1.00 55.92 LIG 0.24  C 
ATOM     31 O    GLY E  42      23.426 -10.454  13.684  1.00 57.26 LIG-0.27  OA
ATOM     32 H    PHE E  43      20.562 -10.934  14.584  1.00 51.92 LIG 0.16  HD
BRANCH 30 33
ATOM     33  CA  GLY E  42      21.593 -11.458  12.473  1.00 58.33 LIG 0.33  C 
BRANCH 33 34
ATOM     34  N   GLY E  42      21.800 -10.774  11.228  1.00 60.94 LIG-0.07  N 
ATOM     35 H3   GLY E  42      22.459 -11.169  10.778  1.00 60.94 LIG 0.27  HD
ATOM     36 H1   GLY E  42      21.052 -10.804  10.745  1.00 60.94 LIG 0.27  HD
ATOM     37 H2   GLY E  42      22.016  -9.926  11.387  1.00 60.94 LIG 0.27  HD
ENDBRANCH 33 34
ENDBRANCH 30 33
ENDBRANCH 28 29
BRANCH 28 38
ATOM     38  CB  PHE E  43      20.794  -8.876  16.220  1.00 42.32 LIG 0.07  C 
BRANCH 38 39
ATOM     39  CG  PHE E  43      20.259  -8.735  17.633  1.00 35.12 LIG-0.06  A 
ATOM     40  CD1 PHE E  43      18.901  -8.913  17.845  1.00 34.02 LIG 0.01  A 
ATOM     41  CE1 PHE E  43      18.335  -8.832  19.120  1.00 29.46 LIG 0.00  A 
ATOM     42  CZ  PHE E  43      19.139  -8.568  20.223  1.00 28.92 LIG 0.00  A 
ATOM     43  CE2 PHE E  43      20.516  -8.388  20.042  1.00 30.40 LIG 0.00  A 
ATOM     44  CD2 PHE E  43      21.079  -8.470  18.738  1.00 32.72 LIG 0.01  A 
ENDBRANCH 38 39
ENDBRANCH 28 38
ENDBRANCH 25 28
ENDBRANCH 1 24
TORSDOF 16
ENDMDL
MODEL 57
USER: ADFR SOLUTION from run 135
USER: SCORE 13.546408 LL:  -3.179 LR: -11.714 RR:   0.000 FEB:  -6.941
USER: RMSD 6.482035
USER: SEED 134
USER: STATUS no improvement in best 17 clusters for 5 generations
USER: GENES 18
USER: genes 0 Translation |==|  0.34487 0.45695 0.46091
USER: genes 1 Rotation |==|  0.32330 0.06725 0.33868 0.57404
USER: genes 2 Torsion [C]-CA--CB-[OG] |==|  0.31376
USER: genes 3 Torsion [CA]-CB--OG-[HG] |==|  0.23818
USER: genes 4 Torsion [N]-CA--C-[N] |==|  0.13176
USER: genes 5 Torsion [C]-N--CA-[C] |==|  0.67332
USER: genes 6 Torsion [N]-CA--C-[N] |==|  0.31193
USER: genes 7 Torsion [C]-N--CA-[C] |==|  0.59575
USER: genes 8 Torsion [N]-CA--C-[O] |==|  0.86521
USER: genes 9 Torsion [N]-CA--CB-[CG] |==|  0.62916
USER: genes 10 Torsion [CA]-CB--CG-[CD1] |==|  0.88930
USER: genes 11 Torsion [CB]-CA--N-[C] |==|  0.14058
USER: genes 12 Torsion [N]-C--CA-[N] |==|  0.72422
USER: genes 13 Torsion [C]-CA--N-[C] |==|  0.76970
USER: genes 14 Torsion [N]-C--CA-[N] |==|  0.48066
USER: genes 15 Torsion [C]-CA--N-[H2] |==|  0.05451
USER: genes 16 Torsion [C]-CA--CB-[CG] |==|  0.13527
USER: genes 17 Torsion [CA]-CB--CG-[CD1] |==|  0.63015
ROOT
ATOM      1  CA  SER E  44      21.556  -8.721  17.297  1.00 44.79 LIG 0.20  C 
ENDROOT
BRANCH 1 2
ATOM      2  CB  SER E  44      20.108  -9.067  17.638  1.00 46.10 LIG 0.20  C 
BRANCH 2 3
ATOM      3 OG   SER E  44      19.224  -8.207  16.949  1.00 47.85 LIG-0.40  OA
ATOM      4 HG   SER E  44      19.073  -8.515  16.183  1.00 47.85 LIG 0.21  HD
ENDBRANCH 2 3
ENDBRANCH 1 2
BRANCH 1 5
ATOM      5  C   SER E  44      22.254  -8.171  18.521  1.00 42.78 LIG 0.24  C 
ATOM      6  N   PHE E  45      23.564  -8.021  18.399  1.00 43.36 LIG-0.35  N 
ATOM      7 H    PHE E  45      24.009  -8.227  17.692  1.00 43.36 LIG 0.16  HD
ATOM      8 O    SER E  44      21.636  -7.916  19.556  1.00 37.54 LIG-0.27  OA
BRANCH 6 9
ATOM      9  CA  PHE E  45      24.369  -7.480  19.482  1.00 46.68 LIG 0.18  C 
BRANCH 9 10
ATOM     10  C   PHE E  45      25.005  -6.182  19.004  1.00 48.11 LIG 0.24  C 
ATOM     11 O    PHE E  45      25.864  -6.193  18.120  1.00 49.85 LIG-0.27  OA
ATOM     12  N   GLY E  46      24.588  -5.062  19.579  1.00 50.71 LIG-0.35  N 
ATOM     13 H    GLY E  46      23.994  -5.014  20.199  1.00 50.71 LIG 0.16  HD
BRANCH 12 14
ATOM     14  CA  GLY E  46      25.155  -3.796  19.156  1.00 54.23 LIG 0.21  C 
BRANCH 14 15
ATOM     15  C   GLY E  46      25.282  -2.806  20.291  1.00 55.55 LIG 0.21  C 
ATOM     16 O    GLY E  46      24.287  -2.636  21.021  1.00 59.11 LIG-0.29  OA
ENDBRANCH 14 15
ENDBRANCH 12 14
ENDBRANCH 9 10
BRANCH 9 17
ATOM     17  CB  PHE E  45      25.452  -8.479  19.901  1.00 43.03 LIG 0.07  C 
BRANCH 17 18
ATOM     18  CG  PHE E  45      25.562  -8.665  21.393  1.00 41.93 LIG-0.06  A 
ATOM     19  CD2 PHE E  45      25.812  -9.923  21.941  1.00 42.38 LIG 0.01  A 
ATOM     20  CE2 PHE E  45      25.943 -10.090  23.322  1.00 42.73 LIG 0.00  A 
ATOM     21  CZ  PHE E  45      25.822  -8.991  24.168  1.00 42.74 LIG 0.00  A 
ATOM     22  CE1 PHE E  45      25.574  -7.730  23.634  1.00 41.89 LIG 0.00  A 
ATOM     23  CD1 PHE E  45      25.445  -7.574  22.251  1.00 42.01 LIG 0.01  A 
ENDBRANCH 17 18
ENDBRANCH 9 17
ENDBRANCH 6 9
ENDBRANCH 1 5
BRANCH 1 24
ATOM     24  N   SER E  44      22.229  -9.880  16.749  1.00 46.50 LIG-0.34  N 
ATOM     25  C   PHE E  43      21.647 -10.525  15.762  1.00 47.40 LIG 0.24  C 
ATOM     26 O    PHE E  43      20.548 -10.192  15.328  1.00 45.80 LIG-0.27  OA
ATOM     27 H    SER E  44      22.984 -10.083  17.106  1.00 46.50 LIG 0.16  HD
BRANCH 25 28
ATOM     28  CA  PHE E  43      22.369 -11.736  15.212  1.00 47.87 LIG 0.18  C 
BRANCH 28 29
ATOM     29  N   PHE E  43      22.958 -11.109  14.064  1.00 51.92 LIG-0.35  N 
ATOM     30  C   GLY E  42      22.384 -10.896  12.895  1.00 55.92 LIG 0.24  C 
ATOM     31 O    GLY E  42      21.229 -11.214  12.581  1.00 57.26 LIG-0.27  OA
ATOM     32 H    PHE E  43      23.771 -10.869  14.213  1.00 51.92 LIG 0.16  HD
BRANCH 30 33
ATOM     33  CA  GLY E  42      23.322 -10.189  11.949  1.00 58.33 LIG 0.33  C 
BRANCH 33 34
ATOM     34  N   GLY E  42      22.837 -10.055  10.604  1.00 60.94 LIG-0.07  N 
ATOM     35 H3   GLY E  42      23.046  -9.249  10.291  1.00 60.94 LIG 0.27  HD
ATOM     36 H1   GLY E  42      23.210 -10.679  10.090  1.00 60.94 LIG 0.27  HD
ATOM     37 H2   GLY E  42      21.952 -10.155  10.596  1.00 60.94 LIG 0.27  HD
ENDBRANCH 33 34
ENDBRANCH 30 33
ENDBRANCH 28 29
BRANCH 28 38
ATOM     38  CB  PHE E  43      23.427 -12.176  16.219  1.00 42.32 LIG 0.07  C 
BRANCH 38 39
ATOM     39  CG  PHE E  43      22.947 -12.304  17.653  1.00 35.12 LIG-0.06  A 
ATOM     40  CD1 PHE E  43      23.717 -11.741  18.659  1.00 34.02 LIG 0.01  A 
ATOM     41  CE1 PHE E  43      23.328 -11.788  20.001  1.00 29.46 LIG 0.00  A 
ATOM     42  CZ  PHE E  43      22.138 -12.410  20.360  1.00 28.92 LIG 0.00  A 
ATOM     43  CE2 PHE E  43      21.335 -12.984  19.365  1.00 30.40 LIG 0.00  A 
ATOM     44  CD2 PHE E  43      21.745 -12.933  18.004  1.00 32.72 LIG 0.01  A 
ENDBRANCH 38 39
ENDBRANCH 28 38
ENDBRANCH 25 28
ENDBRANCH 1 24
TORSDOF 16
ENDMDL
MODEL 58
USER: ADFR SOLUTION from run 54
USER: SCORE 13.651661 LL:  -3.031 LR: -11.685 RR:   0.000 FEB:  -6.912
USER: RMSD 8.906379
USER: SEED 53
USER: STATUS no improvement in best 9 clusters for 5 generations
USER: GENES 18
USER: genes 0 Translation |==|  0.44978 0.52868 0.55944
USER: genes 1 Rotation |==|  0.29611 0.62431 0.93631 0.55112
USER: genes 2 Torsion [C]-CA--CB-[OG] |==|  0.81712
USER: genes 3 Torsion [CA]-CB--OG-[HG] |==|  0.27467
USER: genes 4 Torsion [N]-CA--C-[N] |==|  0.57882
USER: genes 5 Torsion [C]-N--CA-[C] |==|  0.56842
USER: genes 6 Torsion [N]-CA--C-[N] |==|  0.41792
USER: genes 7 Torsion [C]-N--CA-[C] |==|  0.81576
USER: genes 8 Torsion [N]-CA--C-[O] |==|  0.50976
USER: genes 9 Torsion [N]-CA--CB-[CG] |==|  0.18676
USER: genes 10 Torsion [CA]-CB--CG-[CD1] |==|  0.72129
USER: genes 11 Torsion [CB]-CA--N-[C] |==|  0.18088
USER: genes 12 Torsion [N]-C--CA-[N] |==|  0.35000
USER: genes 13 Torsion [C]-CA--N-[C] |==|  0.82385
USER: genes 14 Torsion [N]-C--CA-[N] |==|  0.52295
USER: genes 15 Torsion [C]-CA--N-[H2] |==|  0.21907
USER: genes 16 Torsion [C]-CA--CB-[CG] |==|  0.17161
USER: genes 17 Torsion [CA]-CB--CG-[CD1] |==|  0.55048
ROOT
ATOM      1  CA  SER E  44      24.703  -6.570  20.253  1.00 44.79 LIG 0.20  C 
ENDROOT
BRANCH 1 2
ATOM      2  CB  SER E  44      24.746  -5.919  18.872  1.00 46.10 LIG 0.20  C 
BRANCH 2 3
ATOM      3 OG   SER E  44      25.785  -6.482  18.097  1.00 47.85 LIG-0.40  OA
ATOM      4 HG   SER E  44      25.467  -7.062  17.580  1.00 47.85 LIG 0.21  HD
ENDBRANCH 2 3
ENDBRANCH 1 2
BRANCH 1 5
ATOM      5  C   SER E  44      24.318  -8.026  20.122  1.00 42.78 LIG 0.24  C 
ATOM      6  N   PHE E  45      23.557  -8.313  19.077  1.00 43.36 LIG-0.35  N 
ATOM      7 H    PHE E  45      23.278  -7.730  18.510  1.00 43.36 LIG 0.16  HD
ATOM      8 O    SER E  44      24.672  -8.864  20.954  1.00 37.54 LIG-0.27  OA
BRANCH 6 9
ATOM      9  CA  PHE E  45      23.126  -9.674  18.805  1.00 46.68 LIG 0.18  C 
BRANCH 9 10
ATOM     10  C   PHE E  45      22.830  -9.794  17.317  1.00 48.11 LIG 0.24  C 
ATOM     11 O    PHE E  45      22.443  -8.817  16.673  1.00 49.85 LIG-0.27  OA
ATOM     12  N   GLY E  46      23.011 -10.986  16.763  1.00 50.71 LIG-0.35  N 
ATOM     13 H    GLY E  46      23.277 -11.690  17.178  1.00 50.71 LIG 0.16  HD
BRANCH 12 14
ATOM     14  CA  GLY E  46      22.753 -11.155  15.346  1.00 54.23 LIG 0.21  C 
BRANCH 14 15
ATOM     15  C   GLY E  46      21.291 -10.988  14.997  1.00 55.55 LIG 0.21  C 
ATOM     16 O    GLY E  46      20.958 -11.181  13.812  1.00 59.11 LIG-0.29  OA
ENDBRANCH 14 15
ENDBRANCH 12 14
ENDBRANCH 9 10
BRANCH 9 17
ATOM     17  CB  PHE E  45      21.877 -10.020  19.623  1.00 43.03 LIG 0.07  C 
BRANCH 17 18
ATOM     18  CG  PHE E  45      20.650  -9.245  19.216  1.00 41.93 LIG-0.06  A 
ATOM     19  CD2 PHE E  45      19.890  -9.636  18.115  1.00 42.38 LIG 0.01  A 
ATOM     20  CE2 PHE E  45      18.736  -8.934  17.755  1.00 42.73 LIG 0.00  A 
ATOM     21  CZ  PHE E  45      18.335  -7.829  18.501  1.00 42.74 LIG 0.00  A 
ATOM     22  CE1 PHE E  45      19.085  -7.430  19.604  1.00 41.89 LIG 0.00  A 
ATOM     23  CD1 PHE E  45      20.236  -8.139  19.955  1.00 42.01 LIG 0.01  A 
ENDBRANCH 17 18
ENDBRANCH 9 17
ENDBRANCH 6 9
ENDBRANCH 1 5
BRANCH 1 24
ATOM     24  N   SER E  44      25.971  -6.389  20.928  1.00 46.50 LIG-0.34  N 
ATOM     25  C   PHE E  43      26.336  -5.166  21.245  1.00 47.40 LIG 0.24  C 
ATOM     26 O    PHE E  43      25.652  -4.189  20.953  1.00 45.80 LIG-0.27  OA
ATOM     27 H    SER E  44      26.420  -7.105  21.087  1.00 46.50 LIG 0.16  HD
BRANCH 25 28
ATOM     28  CA  PHE E  43      27.668  -5.006  21.944  1.00 47.87 LIG 0.18  C 
BRANCH 28 29
ATOM     29  N   PHE E  43      28.248  -4.050  21.045  1.00 51.92 LIG-0.35  N 
ATOM     30  C   GLY E  42      28.532  -4.232  19.769  1.00 55.92 LIG 0.24  C 
ATOM     31 O    GLY E  42      28.356  -5.275  19.124  1.00 57.26 LIG-0.27  OA
ATOM     32 H    PHE E  43      28.406  -3.299  21.435  1.00 51.92 LIG 0.16  HD
BRANCH 30 33
ATOM     33  CA  GLY E  42      29.111  -2.981  19.156  1.00 58.33 LIG 0.33  C 
BRANCH 33 34
ATOM     34  N   GLY E  42      29.277  -3.027  17.731  1.00 60.94 LIG-0.07  N 
ATOM     35 H3   GLY E  42      29.855  -2.399  17.478  1.00 60.94 LIG 0.27  HD
ATOM     36 H1   GLY E  42      29.586  -3.828  17.494  1.00 60.94 LIG 0.27  HD
ATOM     37 H2   GLY E  42      28.492  -2.884  17.336  1.00 60.94 LIG 0.27  HD
ENDBRANCH 33 34
ENDBRANCH 30 33
ENDBRANCH 28 29
BRANCH 28 38
ATOM     38  CB  PHE E  43      27.429  -4.406  23.326  1.00 42.32 LIG 0.07  C 
BRANCH 38 39
ATOM     39  CG  PHE E  43      26.580  -5.247  24.262  1.00 35.12 LIG-0.06  A 
ATOM     40  CD1 PHE E  43      26.004  -4.632  25.362  1.00 34.02 LIG 0.01  A 
ATOM     41  CE1 PHE E  43      25.183  -5.329  26.253  1.00 29.46 LIG 0.00  A 
ATOM     42  CZ  PHE E  43      24.921  -6.678  26.048  1.00 28.92 LIG 0.00  A 
ATOM     43  CE2 PHE E  43      25.486  -7.328  24.943  1.00 30.40 LIG 0.00  A 
ATOM     44  CD2 PHE E  43      26.322  -6.608  24.046  1.00 32.72 LIG 0.01  A 
ENDBRANCH 38 39
ENDBRANCH 28 38
ENDBRANCH 25 28
ENDBRANCH 1 24
TORSDOF 16
ENDMDL
MODEL 59
USER: ADFR SOLUTION from run 101
USER: SCORE 14.582889 LL:  -3.318 LR: -11.650 RR:   0.000 FEB:  -6.877
USER: RMSD 9.766025
USER: SEED 100
USER: STATUS no improvement in best 5 clusters for 5 generations
USER: GENES 18
USER: genes 0 Translation |==|  0.33206 0.28419 0.47636
USER: genes 1 Rotation |==|  0.74963 0.24099 0.27354 0.76327
USER: genes 2 Torsion [C]-CA--CB-[OG] |==|  0.83179
USER: genes 3 Torsion [CA]-CB--OG-[HG] |==|  0.74506
USER: genes 4 Torsion [N]-CA--C-[N] |==|  0.06113
USER: genes 5 Torsion [C]-N--CA-[C] |==|  0.74411
USER: genes 6 Torsion [N]-CA--C-[N] |==|  0.40097
USER: genes 7 Torsion [C]-N--CA-[C] |==|  0.65911
USER: genes 8 Torsion [N]-CA--C-[O] |==|  0.12985
USER: genes 9 Torsion [N]-CA--CB-[CG] |==|  0.56566
USER: genes 10 Torsion [CA]-CB--CG-[CD1] |==|  0.47072
USER: genes 11 Torsion [CB]-CA--N-[C] |==|  0.18149
USER: genes 12 Torsion [N]-C--CA-[N] |==|  0.40827
USER: genes 13 Torsion [C]-CA--N-[C] |==|  0.67883
USER: genes 14 Torsion [N]-C--CA-[N] |==|  0.32098
USER: genes 15 Torsion [C]-CA--N-[H2] |==|  0.30906
USER: genes 16 Torsion [C]-CA--CB-[CG] |==|  0.21037
USER: genes 17 Torsion [CA]-CB--CG-[CD1] |==|  0.55525
ROOT
ATOM      1  CA  SER E  44      21.172 -13.904  17.761  1.00 44.79 LIG 0.20  C 
ENDROOT
BRANCH 1 2
ATOM      2  CB  SER E  44      21.710 -14.980  16.819  1.00 46.10 LIG 0.20  C 
BRANCH 2 3
ATOM      3 OG   SER E  44      23.121 -14.928  16.771  1.00 47.85 LIG-0.40  OA
ATOM      4 HG   SER E  44      23.362 -14.427  16.141  1.00 47.85 LIG 0.21  HD
ENDBRANCH 2 3
ENDBRANCH 1 2
BRANCH 1 5
ATOM      5  C   SER E  44      21.707 -14.131  19.157  1.00 42.78 LIG 0.24  C 
ATOM      6  N   PHE E  45      21.953 -13.029  19.849  1.00 43.36 LIG-0.35  N 
ATOM      7 H    PHE E  45      21.839 -12.233  19.544  1.00 43.36 LIG 0.16  HD
ATOM      8 O    SER E  44      21.919 -15.265  19.590  1.00 37.54 LIG-0.27  OA
BRANCH 6 9
ATOM      9  CA  PHE E  45      22.447 -13.086  21.215  1.00 46.68 LIG 0.18  C 
BRANCH 9 10
ATOM     10  C   PHE E  45      21.253 -13.057  22.158  1.00 48.11 LIG 0.24  C 
ATOM     11 O    PHE E  45      20.254 -12.388  21.886  1.00 49.85 LIG-0.27  OA
ATOM     12  N   GLY E  46      21.346 -13.780  23.266  1.00 50.71 LIG-0.35  N 
ATOM     13 H    GLY E  46      22.025 -14.256  23.492  1.00 50.71 LIG 0.16  HD
BRANCH 12 14
ATOM     14  CA  GLY E  46      20.234 -13.795  24.197  1.00 54.23 LIG 0.21  C 
BRANCH 14 15
ATOM     15  C   GLY E  46      20.630 -13.345  25.585  1.00 55.55 LIG 0.21  C 
ATOM     16 O    GLY E  46      21.317 -12.311  25.680  1.00 59.11 LIG-0.29  OA
ENDBRANCH 14 15
ENDBRANCH 12 14
ENDBRANCH 9 10
BRANCH 9 17
ATOM     17  CB  PHE E  45      23.379 -11.904  21.502  1.00 43.03 LIG 0.07  C 
BRANCH 17 18
ATOM     18  CG  PHE E  45      24.351 -12.155  22.626  1.00 41.93 LIG-0.06  A 
ATOM     19  CD2 PHE E  45      24.237 -13.289  23.430  1.00 42.38 LIG 0.01  A 
ATOM     20  CE2 PHE E  45      25.156 -13.536  24.454  1.00 42.73 LIG 0.00  A 
ATOM     21  CZ  PHE E  45      26.199 -12.643  24.680  1.00 42.74 LIG 0.00  A 
ATOM     22  CE1 PHE E  45      26.324 -11.508  23.884  1.00 41.89 LIG 0.00  A 
ATOM     23  CD1 PHE E  45      25.401 -11.270  22.863  1.00 42.01 LIG 0.01  A 
ENDBRANCH 17 18
ENDBRANCH 9 17
ENDBRANCH 6 9
ENDBRANCH 1 5
BRANCH 1 24
ATOM     24  N   SER E  44      21.493 -12.588  17.250  1.00 46.50 LIG-0.34  N 
ATOM     25  C   PHE E  43      20.944 -12.212  16.116  1.00 47.40 LIG 0.24  C 
ATOM     26 O    PHE E  43      20.205 -12.955  15.476  1.00 45.80 LIG-0.27  OA
ATOM     27 H    SER E  44      22.034 -12.120  17.726  1.00 46.50 LIG 0.16  HD
BRANCH 25 28
ATOM     28  CA  PHE E  43      21.302 -10.835  15.603  1.00 47.87 LIG 0.18  C 
BRANCH 28 29
ATOM     29  N   PHE E  43      21.244 -11.127  14.200  1.00 51.92 LIG-0.35  N 
ATOM     30  C   GLY E  42      22.245 -11.092  13.340  1.00 55.92 LIG 0.24  C 
ATOM     31 O    GLY E  42      23.417 -10.786  13.598  1.00 57.26 LIG-0.27  OA
ATOM     32 H    PHE E  43      20.449 -11.341  13.950  1.00 51.92 LIG 0.16  HD
BRANCH 30 33
ATOM     33  CA  GLY E  42      21.790 -11.488  11.957  1.00 58.33 LIG 0.33  C 
BRANCH 33 34
ATOM     34  N   GLY E  42      21.884 -10.449  10.970  1.00 60.94 LIG-0.07  N 
ATOM     35 H3   GLY E  42      21.105 -10.369  10.548  1.00 60.94 LIG 0.27  HD
ATOM     36 H1   GLY E  42      22.087  -9.679  11.368  1.00 60.94 LIG 0.27  HD
ATOM     37 H2   GLY E  42      22.520 -10.656  10.382  1.00 60.94 LIG 0.27  HD
ENDBRANCH 33 34
ENDBRANCH 30 33
ENDBRANCH 28 29
BRANCH 28 38
ATOM     38  CB  PHE E  43      20.209  -9.856  16.020  1.00 42.32 LIG 0.07  C 
BRANCH 38 39
ATOM     39  CG  PHE E  43      20.233  -9.439  17.479  1.00 35.12 LIG-0.06  A 
ATOM     40  CD1 PHE E  43      19.077  -8.910  18.032  1.00 34.02 LIG 0.01  A 
ATOM     41  CE1 PHE E  43      19.007  -8.532  19.376  1.00 29.46 LIG 0.00  A 
ATOM     42  CZ  PHE E  43      20.115  -8.684  20.201  1.00 28.92 LIG 0.00  A 
ATOM     43  CE2 PHE E  43      21.297  -9.219  19.672  1.00 30.40 LIG 0.00  A 
ATOM     44  CD2 PHE E  43      21.356  -9.596  18.302  1.00 32.72 LIG 0.01  A 
ENDBRANCH 38 39
ENDBRANCH 28 38
ENDBRANCH 25 28
ENDBRANCH 1 24
TORSDOF 16
ENDMDL
MODEL 60
USER: ADFR SOLUTION from run 44
USER: SCORE 13.293154 LL:  -2.797 LR: -11.626 RR:   0.000 FEB:  -6.853
USER: RMSD 11.785760
USER: SEED 43
USER: STATUS no improvement in best 4 clusters for 5 generations
USER: GENES 18
USER: genes 0 Translation |==|  0.36103 0.33234 0.30154
USER: genes 1 Rotation |==|  0.78907 0.62012 0.71379 0.82604
USER: genes 2 Torsion [C]-CA--CB-[OG] |==|  0.48416
USER: genes 3 Torsion [CA]-CB--OG-[HG] |==|  0.35563
USER: genes 4 Torsion [N]-CA--C-[N] |==|  0.39075
USER: genes 5 Torsion [C]-N--CA-[C] |==|  0.20803
USER: genes 6 Torsion [N]-CA--C-[N] |==|  0.00556
USER: genes 7 Torsion [C]-N--CA-[C] |==|  0.33924
USER: genes 8 Torsion [N]-CA--C-[O] |==|  0.68511
USER: genes 9 Torsion [N]-CA--CB-[CG] |==|  0.48533
USER: genes 10 Torsion [CA]-CB--CG-[CD1] |==|  0.63628
USER: genes 11 Torsion [CB]-CA--N-[C] |==|  0.84995
USER: genes 12 Torsion [N]-C--CA-[N] |==|  0.74483
USER: genes 13 Torsion [C]-CA--N-[C] |==|  0.65439
USER: genes 14 Torsion [N]-C--CA-[N] |==|  0.55345
USER: genes 15 Torsion [C]-CA--N-[H2] |==|  0.36689
USER: genes 16 Torsion [C]-CA--CB-[CG] |==|  0.71396
USER: genes 17 Torsion [CA]-CB--CG-[CD1] |==|  0.26829
ROOT
ATOM      1  CA  SER E  44      22.041 -12.460  12.516  1.00 44.79 LIG 0.20  C 
ENDROOT
BRANCH 1 2
ATOM      2  CB  SER E  44      22.503 -11.337  11.589  1.00 46.10 LIG 0.20  C 
BRANCH 2 3
ATOM      3 OG   SER E  44      23.216 -11.869  10.492  1.00 47.85 LIG-0.40  OA
ATOM      4 HG   SER E  44      22.892 -11.572   9.776  1.00 47.85 LIG 0.21  HD
ENDBRANCH 2 3
ENDBRANCH 1 2
BRANCH 1 5
ATOM      5  C   SER E  44      21.403 -11.872  13.755  1.00 42.78 LIG 0.24  C 
ATOM      6  N   PHE E  45      22.207 -11.764  14.802  1.00 43.36 LIG-0.35  N 
ATOM      7 H    PHE E  45      23.029 -12.016  14.806  1.00 43.36 LIG 0.16  HD
ATOM      8 O    SER E  44      20.214 -11.552  13.778  1.00 37.54 LIG-0.27  OA
BRANCH 6 9
ATOM      9  CA  PHE E  45      21.744 -11.195  16.057  1.00 46.68 LIG 0.18  C 
BRANCH 9 10
ATOM     10  C   PHE E  45      20.860 -12.222  16.751  1.00 48.11 LIG 0.24  C 
ATOM     11 O    PHE E  45      20.312 -11.957  17.822  1.00 49.85 LIG-0.27  OA
ATOM     12  N   GLY E  46      20.713 -13.394  16.147  1.00 50.71 LIG-0.35  N 
ATOM     13 H    GLY E  46      21.080 -13.617  15.402  1.00 50.71 LIG 0.16  HD
BRANCH 12 14
ATOM     14  CA  GLY E  46      19.875 -14.406  16.760  1.00 54.23 LIG 0.21  C 
BRANCH 14 15
ATOM     15  C   GLY E  46      18.749 -14.855  15.856  1.00 55.55 LIG 0.21  C 
ATOM     16 O    GLY E  46      17.586 -14.577  16.206  1.00 59.11 LIG-0.29  OA
ENDBRANCH 14 15
ENDBRANCH 12 14
ENDBRANCH 9 10
BRANCH 9 17
ATOM     17  CB  PHE E  45      20.960  -9.902  15.808  1.00 43.03 LIG 0.07  C 
BRANCH 17 18
ATOM     18  CG  PHE E  45      20.339  -9.319  17.051  1.00 41.93 LIG-0.06  A 
ATOM     19  CD2 PHE E  45      21.097  -9.121  18.205  1.00 42.38 LIG 0.01  A 
ATOM     20  CE2 PHE E  45      20.528  -8.553  19.348  1.00 42.73 LIG 0.00  A 
ATOM     21  CZ  PHE E  45      19.188  -8.180  19.343  1.00 42.74 LIG 0.00  A 
ATOM     22  CE1 PHE E  45      18.420  -8.371  18.197  1.00 41.89 LIG 0.00  A 
ATOM     23  CD1 PHE E  45      18.999  -8.939  17.060  1.00 42.01 LIG 0.01  A 
ENDBRANCH 17 18
ENDBRANCH 9 17
ENDBRANCH 6 9
ENDBRANCH 1 5
BRANCH 1 24
ATOM     24  N   SER E  44      21.154 -13.358  11.808  1.00 46.50 LIG-0.34  N 
ATOM     25  C   PHE E  43      20.104 -12.844  11.204  1.00 47.40 LIG 0.24  C 
ATOM     26 O    PHE E  43      19.848 -11.645  11.258  1.00 45.80 LIG-0.27  OA
ATOM     27 H    SER E  44      21.368 -14.190  11.822  1.00 46.50 LIG 0.16  HD
BRANCH 25 28
ATOM     28  CA  PHE E  43      19.191 -13.806  10.477  1.00 47.87 LIG 0.18  C 
BRANCH 28 29
ATOM     29  N   PHE E  43      19.809 -13.727   9.185  1.00 51.92 LIG-0.35  N 
ATOM     30  C   GLY E  42      19.226 -13.410   8.044  1.00 55.92 LIG 0.24  C 
ATOM     31 O    GLY E  42      18.028 -13.136   7.889  1.00 57.26 LIG-0.27  OA
ATOM     32 H    PHE E  43      20.648 -13.915   9.220  1.00 51.92 LIG 0.16  HD
BRANCH 30 33
ATOM     33  CA  GLY E  42      20.216 -13.412   6.907  1.00 58.33 LIG 0.33  C 
BRANCH 33 34
ATOM     34  N   GLY E  42      19.801 -12.681   5.743  1.00 60.94 LIG-0.07  N 
ATOM     35 H3   GLY E  42      19.598 -13.252   5.090  1.00 60.94 LIG 0.27  HD
ATOM     36 H1   GLY E  42      19.086 -12.189   5.940  1.00 60.94 LIG 0.27  HD
ATOM     37 H2   GLY E  42      20.462 -12.148   5.475  1.00 60.94 LIG 0.27  HD
ENDBRANCH 33 34
ENDBRANCH 30 33
ENDBRANCH 28 29
BRANCH 28 38
ATOM     38  CB  PHE E  43      19.348 -15.193  11.092  1.00 42.32 LIG 0.07  C 
BRANCH 38 39
ATOM     39  CG  PHE E  43      20.187 -16.170  10.289  1.00 35.12 LIG-0.06  A 
ATOM     40  CD1 PHE E  43      21.524 -16.320  10.622  1.00 34.02 LIG 0.01  A 
ATOM     41  CE1 PHE E  43      22.356 -17.221   9.952  1.00 29.46 LIG 0.00  A 
ATOM     42  CZ  PHE E  43      21.849 -18.002   8.919  1.00 28.92 LIG 0.00  A 
ATOM     43  CE2 PHE E  43      20.500 -17.876   8.561  1.00 30.40 LIG 0.00  A 
ATOM     44  CD2 PHE E  43      19.665 -16.952   9.250  1.00 32.72 LIG 0.01  A 
ENDBRANCH 38 39
ENDBRANCH 28 38
ENDBRANCH 25 28
ENDBRANCH 1 24
TORSDOF 16
ENDMDL
MODEL 61
USER: ADFR SOLUTION from run 6
USER: SCORE 13.407333 LL:  -2.388 LR: -11.613 RR:   0.000 FEB:  -6.840
USER: RMSD 11.848193
USER: SEED 155179
USER: STATUS no improvement in best 20 clusters for 5 generations
USER: GENES 18
USER: genes 0 Translation |==|  0.45081 0.55287 0.83078
USER: genes 1 Rotation |==|  0.42770 0.22259 0.20630 0.78558
USER: genes 2 Torsion [C]-CA--CB-[OG] |==|  0.95956
USER: genes 3 Torsion [CA]-CB--OG-[HG] |==|  0.27954
USER: genes 4 Torsion [N]-CA--C-[N] |==|  0.34030
USER: genes 5 Torsion [C]-N--CA-[C] |==|  0.85528
USER: genes 6 Torsion [N]-CA--C-[N] |==|  0.86541
USER: genes 7 Torsion [C]-N--CA-[C] |==|  0.61057
USER: genes 8 Torsion [N]-CA--C-[O] |==|  0.33255
USER: genes 9 Torsion [N]-CA--CB-[CG] |==|  0.69914
USER: genes 10 Torsion [CA]-CB--CG-[CD1] |==|  0.09139
USER: genes 11 Torsion [CB]-CA--N-[C] |==|  0.85351
USER: genes 12 Torsion [N]-C--CA-[N] |==|  0.23871
USER: genes 13 Torsion [C]-CA--N-[C] |==|  0.77110
USER: genes 14 Torsion [N]-C--CA-[N] |==|  0.22541
USER: genes 15 Torsion [C]-CA--N-[H2] |==|  0.05254
USER: genes 16 Torsion [C]-CA--CB-[CG] |==|  0.46744
USER: genes 17 Torsion [CA]-CB--CG-[CD1] |==|  0.60944
ROOT
ATOM      1  CA  SER E  44      24.734  -5.844  28.393  1.00 44.79 LIG 0.20  C 
ENDROOT
BRANCH 1 2
ATOM      2  CB  SER E  44      23.752  -7.005  28.539  1.00 46.10 LIG 0.20  C 
BRANCH 2 3
ATOM      3 OG   SER E  44      24.412  -8.144  29.052  1.00 47.85 LIG-0.40  OA
ATOM      4 HG   SER E  44      24.253  -8.214  29.874  1.00 47.85 LIG 0.21  HD
ENDBRANCH 2 3
ENDBRANCH 1 2
BRANCH 1 5
ATOM      5  C   SER E  44      26.001  -6.144  29.162  1.00 42.78 LIG 0.24  C 
ATOM      6  N   PHE E  45      26.233  -5.347  30.194  1.00 43.36 LIG-0.35  N 
ATOM      7 H    PHE E  45      25.724  -4.692  30.421  1.00 43.36 LIG 0.16  HD
ATOM      8 O    SER E  44      26.764  -7.049  28.820  1.00 37.54 LIG-0.27  OA
BRANCH 6 9
ATOM      9  CA  PHE E  45      27.399  -5.527  31.044  1.00 46.68 LIG 0.18  C 
BRANCH 9 10
ATOM     10  C   PHE E  45      27.437  -6.978  31.504  1.00 48.11 LIG 0.24  C 
ATOM     11 O    PHE E  45      28.476  -7.635  31.423  1.00 49.85 LIG-0.27  OA
ATOM     12  N   GLY E  46      26.311  -7.483  31.991  1.00 50.71 LIG-0.35  N 
ATOM     13 H    GLY E  46      25.567  -7.058  32.061  1.00 50.71 LIG 0.16  HD
BRANCH 12 14
ATOM     14  CA  GLY E  46      26.293  -8.857  32.452  1.00 54.23 LIG 0.21  C 
BRANCH 14 15
ATOM     15  C   GLY E  46      25.018  -9.580  32.078  1.00 55.55 LIG 0.21  C 
ATOM     16 O    GLY E  46      25.121 -10.591  31.357  1.00 59.11 LIG-0.29  OA
ENDBRANCH 14 15
ENDBRANCH 12 14
ENDBRANCH 9 10
BRANCH 9 17
ATOM     17  CB  PHE E  45      27.336  -4.589  32.254  1.00 43.03 LIG 0.07  C 
BRANCH 17 18
ATOM     18  CG  PHE E  45      28.327  -3.454  32.195  1.00 41.93 LIG-0.06  A 
ATOM     19  CD2 PHE E  45      28.922  -2.964  33.356  1.00 42.38 LIG 0.01  A 
ATOM     20  CE2 PHE E  45      29.863  -1.931  33.298  1.00 42.73 LIG 0.00  A 
ATOM     21  CZ  PHE E  45      30.212  -1.380  32.069  1.00 42.74 LIG 0.00  A 
ATOM     22  CE1 PHE E  45      29.626  -1.862  30.902  1.00 41.89 LIG 0.00  A 
ATOM     23  CD1 PHE E  45      28.688  -2.895  30.971  1.00 42.01 LIG 0.01  A 
ENDBRANCH 17 18
ENDBRANCH 9 17
ENDBRANCH 6 9
ENDBRANCH 1 5
BRANCH 1 24
ATOM     24  N   SER E  44      24.985  -5.576  26.993  1.00 46.50 LIG-0.34  N 
ATOM     25  C   PHE E  43      25.362  -6.577  26.228  1.00 47.40 LIG 0.24  C 
ATOM     26 O    PHE E  43      25.536  -7.706  26.677  1.00 45.80 LIG-0.27  OA
ATOM     27 H    SER E  44      24.871  -4.763  26.738  1.00 46.50 LIG 0.16  HD
BRANCH 25 28
ATOM     28  CA  PHE E  43      25.624  -6.267  24.771  1.00 47.87 LIG 0.18  C 
BRANCH 28 29
ATOM     29  N   PHE E  43      26.990  -5.851  24.900  1.00 51.92 LIG-0.35  N 
ATOM     30  C   GLY E  42      27.426  -4.659  25.262  1.00 55.92 LIG 0.24  C 
ATOM     31 O    GLY E  42      26.722  -3.680  25.544  1.00 57.26 LIG-0.27  OA
ATOM     32 H    PHE E  43      27.538  -6.487  24.709  1.00 51.92 LIG 0.16  HD
BRANCH 30 33
ATOM     33  CA  GLY E  42      28.934  -4.619  25.304  1.00 58.33 LIG 0.33  C 
BRANCH 33 34
ATOM     34  N   GLY E  42      29.568  -4.430  24.030  1.00 60.94 LIG-0.07  N 
ATOM     35 H3   GLY E  42      30.250  -3.865  24.119  1.00 60.94 LIG 0.27  HD
ATOM     36 H1   GLY E  42      29.868  -5.212  23.728  1.00 60.94 LIG 0.27  HD
ATOM     37 H2   GLY E  42      28.980  -4.096  23.452  1.00 60.94 LIG 0.27  HD
ENDBRANCH 33 34
ENDBRANCH 30 33
ENDBRANCH 28 29
BRANCH 28 38
ATOM     38  CB  PHE E  43      25.501  -7.556  23.964  1.00 42.32 LIG 0.07  C 
BRANCH 38 39
ATOM     39  CG  PHE E  43      25.459  -7.379  22.458  1.00 35.12 LIG-0.06  A 
ATOM     40  CD1 PHE E  43      24.598  -8.180  21.724  1.00 34.02 LIG 0.01  A 
ATOM     41  CE1 PHE E  43      24.477  -8.057  20.337  1.00 29.46 LIG 0.00  A 
ATOM     42  CZ  PHE E  43      25.231  -7.111  19.653  1.00 28.92 LIG 0.00  A 
ATOM     43  CE2 PHE E  43      26.108  -6.284  20.367  1.00 30.40 LIG 0.00  A 
ATOM     44  CD2 PHE E  43      26.224  -6.422  21.779  1.00 32.72 LIG 0.01  A 
ENDBRANCH 38 39
ENDBRANCH 28 38
ENDBRANCH 25 28
ENDBRANCH 1 24
TORSDOF 16
ENDMDL
MODEL 62
USER: ADFR SOLUTION from run 113
USER: SCORE 12.321335 LL:  -2.942 LR: -11.604 RR:   0.000 FEB:  -6.831
USER: RMSD 9.327562
USER: SEED 112
USER: STATUS no improvement in best 16 clusters for 5 generations
USER: GENES 18
USER: genes 0 Translation |==|  0.36270 0.35769 0.33973
USER: genes 1 Rotation |==|  0.64910 0.05763 0.42175 0.66110
USER: genes 2 Torsion [C]-CA--CB-[OG] |==|  0.39912
USER: genes 3 Torsion [CA]-CB--OG-[HG] |==|  0.65148
USER: genes 4 Torsion [N]-CA--C-[N] |==|  0.89113
USER: genes 5 Torsion [C]-N--CA-[C] |==|  0.49444
USER: genes 6 Torsion [N]-CA--C-[N] |==|  0.42009
USER: genes 7 Torsion [C]-N--CA-[C] |==|  0.37238
USER: genes 8 Torsion [N]-CA--C-[O] |==|  0.07225
USER: genes 9 Torsion [N]-CA--CB-[CG] |==|  0.62484
USER: genes 10 Torsion [CA]-CB--CG-[CD1] |==|  0.17938
USER: genes 11 Torsion [CB]-CA--N-[C] |==|  0.36291
USER: genes 12 Torsion [N]-C--CA-[N] |==|  0.38271
USER: genes 13 Torsion [C]-CA--N-[C] |==|  0.58494
USER: genes 14 Torsion [N]-C--CA-[N] |==|  0.84026
USER: genes 15 Torsion [C]-CA--N-[H2] |==|  0.07918
USER: genes 16 Torsion [C]-CA--CB-[CG] |==|  0.59591
USER: genes 17 Torsion [CA]-CB--CG-[CD1] |==|  0.27713
ROOT
ATOM      1  CA  SER E  44      22.091 -11.699  13.662  1.00 44.79 LIG 0.20  C 
ENDROOT
BRANCH 1 2
ATOM      2  CB  SER E  44      22.215 -13.189  13.977  1.00 46.10 LIG 0.20  C 
BRANCH 2 3
ATOM      3 OG   SER E  44      21.797 -13.960  12.870  1.00 47.85 LIG-0.40  OA
ATOM      4 HG   SER E  44      21.201 -14.500  13.114  1.00 47.85 LIG 0.21  HD
ENDBRANCH 2 3
ENDBRANCH 1 2
BRANCH 1 5
ATOM      5  C   SER E  44      21.658 -10.948  14.901  1.00 42.78 LIG 0.24  C 
ATOM      6  N   PHE E  45      22.639 -10.619  15.728  1.00 43.36 LIG-0.35  N 
ATOM      7 H    PHE E  45      23.466 -10.819  15.599  1.00 43.36 LIG 0.16  HD
ATOM      8 O    SER E  44      20.473 -10.695  15.121  1.00 37.54 LIG-0.27  OA
BRANCH 6 9
ATOM      9  CA  PHE E  45      22.382  -9.873  16.949  1.00 46.68 LIG 0.18  C 
BRANCH 9 10
ATOM     10  C   PHE E  45      23.700  -9.703  17.692  1.00 48.11 LIG 0.24  C 
ATOM     11 O    PHE E  45      24.599 -10.537  17.574  1.00 49.85 LIG-0.27  OA
ATOM     12  N   GLY E  46      23.823  -8.626  18.457  1.00 50.71 LIG-0.35  N 
ATOM     13 H    GLY E  46      23.218  -8.024  18.567  1.00 50.71 LIG 0.16  HD
BRANCH 12 14
ATOM     14  CA  GLY E  46      25.060  -8.409  19.181  1.00 54.23 LIG 0.21  C 
BRANCH 14 15
ATOM     15  C   GLY E  46      25.564  -6.989  19.062  1.00 55.55 LIG 0.21  C 
ATOM     16 O    GLY E  46      24.723  -6.097  18.841  1.00 59.11 LIG-0.29  OA
ENDBRANCH 14 15
ENDBRANCH 12 14
ENDBRANCH 9 10
BRANCH 9 17
ATOM     17  CB  PHE E  45      21.368 -10.610  17.830  1.00 43.03 LIG 0.07  C 
BRANCH 17 18
ATOM     18  CG  PHE E  45      20.297  -9.717  18.401  1.00 41.93 LIG-0.06  A 
ATOM     19  CD2 PHE E  45      20.214  -9.488  19.774  1.00 42.38 LIG 0.01  A 
ATOM     20  CE2 PHE E  45      19.239  -8.636  20.301  1.00 42.73 LIG 0.00  A 
ATOM     21  CZ  PHE E  45      18.335  -8.007  19.451  1.00 42.74 LIG 0.00  A 
ATOM     22  CE1 PHE E  45      18.408  -8.226  18.078  1.00 41.89 LIG 0.00  A 
ATOM     23  CD1 PHE E  45      19.387  -9.079  17.561  1.00 42.01 LIG 0.01  A 
ENDBRANCH 17 18
ENDBRANCH 9 17
ENDBRANCH 6 9
ENDBRANCH 1 5
BRANCH 1 24
ATOM     24  N   SER E  44      23.335 -11.200  13.116  1.00 46.50 LIG-0.34  N 
ATOM     25  C   PHE E  43      23.286 -10.492  12.009  1.00 47.40 LIG 0.24  C 
ATOM     26 O    PHE E  43      22.229 -10.280  11.421  1.00 45.80 LIG-0.27  OA
ATOM     27 H    SER E  44      24.047 -11.398  13.554  1.00 46.50 LIG 0.16  HD
BRANCH 25 28
ATOM     28  CA  PHE E  43      24.601  -9.988  11.456  1.00 47.87 LIG 0.18  C 
BRANCH 28 29
ATOM     29  N   PHE E  43      24.352 -10.264  10.072  1.00 51.92 LIG-0.35  N 
ATOM     30  C   GLY E  42      25.245 -10.577   9.151  1.00 55.92 LIG 0.24  C 
ATOM     31 O    GLY E  42      26.468 -10.675   9.325  1.00 57.26 LIG-0.27  OA
ATOM     32 H    PHE E  43      23.515 -10.205   9.879  1.00 51.92 LIG 0.16  HD
BRANCH 30 33
ATOM     33  CA  GLY E  42      24.589 -10.818   7.814  1.00 58.33 LIG 0.33  C 
BRANCH 33 34
ATOM     34  N   GLY E  42      23.585 -11.844   7.810  1.00 60.94 LIG-0.07  N 
ATOM     35 H3   GLY E  42      22.961 -11.646   7.208  1.00 60.94 LIG 0.27  HD
ATOM     36 H1   GLY E  42      23.959 -12.625   7.604  1.00 60.94 LIG 0.27  HD
ATOM     37 H2   GLY E  42      23.212 -11.897   8.617  1.00 60.94 LIG 0.27  HD
ENDBRANCH 33 34
ENDBRANCH 30 33
ENDBRANCH 28 29
BRANCH 28 38
ATOM     38  CB  PHE E  43      24.704  -8.489  11.723  1.00 42.32 LIG 0.07  C 
BRANCH 38 39
ATOM     39  CG  PHE E  43      25.417  -7.686  10.650  1.00 35.12 LIG-0.06  A 
ATOM     40  CD1 PHE E  43      24.651  -6.992   9.727  1.00 34.02 LIG 0.01  A 
ATOM     41  CE1 PHE E  43      25.230  -6.204   8.729  1.00 29.46 LIG 0.00  A 
ATOM     42  CZ  PHE E  43      26.614  -6.097   8.641  1.00 28.92 LIG 0.00  A 
ATOM     43  CE2 PHE E  43      27.416  -6.784   9.563  1.00 30.40 LIG 0.00  A 
ATOM     44  CD2 PHE E  43      26.813  -7.585  10.572  1.00 32.72 LIG 0.01  A 
ENDBRANCH 38 39
ENDBRANCH 28 38
ENDBRANCH 25 28
ENDBRANCH 1 24
TORSDOF 16
ENDMDL
MODEL 63
USER: ADFR SOLUTION from run 11
USER: SCORE 13.143531 LL:  -3.489 LR: -11.567 RR:   0.000 FEB:  -6.794
USER: RMSD 7.831278
USER: SEED 43038
USER: STATUS no improvement in best 18 clusters for 5 generations
USER: GENES 18
USER: genes 0 Translation |==|  0.29509 0.45770 0.47875
USER: genes 1 Rotation |==|  0.21726 0.12944 0.35233 0.60455
USER: genes 2 Torsion [C]-CA--CB-[OG] |==|  0.51429
USER: genes 3 Torsion [CA]-CB--OG-[HG] |==|  0.50665
USER: genes 4 Torsion [N]-CA--C-[N] |==|  0.17923
USER: genes 5 Torsion [C]-N--CA-[C] |==|  0.16636
USER: genes 6 Torsion [N]-CA--C-[N] |==|  0.10278
USER: genes 7 Torsion [C]-N--CA-[C] |==|  0.34949
USER: genes 8 Torsion [N]-CA--C-[O] |==|  0.96698
USER: genes 9 Torsion [N]-CA--CB-[CG] |==|  0.67535
USER: genes 10 Torsion [CA]-CB--CG-[CD1] |==|  0.43692
USER: genes 11 Torsion [CB]-CA--N-[C] |==|  0.45337
USER: genes 12 Torsion [N]-C--CA-[N] |==|  0.46629
USER: genes 13 Torsion [C]-CA--N-[C] |==|  0.65846
USER: genes 14 Torsion [N]-C--CA-[N] |==|  0.57219
USER: genes 15 Torsion [C]-CA--N-[H2] |==|  0.96722
USER: genes 16 Torsion [C]-CA--CB-[CG] |==|  0.34740
USER: genes 17 Torsion [CA]-CB--CG-[CD1] |==|  0.07824
ROOT
ATOM      1  CA  SER E  44      20.063  -8.699  17.833  1.00 44.79 LIG 0.20  C 
ENDROOT
BRANCH 1 2
ATOM      2  CB  SER E  44      18.760  -8.472  18.597  1.00 46.10 LIG 0.20  C 
BRANCH 2 3
ATOM      3 OG   SER E  44      17.650  -8.717  17.758  1.00 47.85 LIG-0.40  OA
ATOM      4 HG   SER E  44      16.940  -8.558  18.178  1.00 47.85 LIG 0.21  HD
ENDBRANCH 2 3
ENDBRANCH 1 2
BRANCH 1 5
ATOM      5  C   SER E  44      21.239  -8.558  18.772  1.00 42.78 LIG 0.24  C 
ATOM      6  N   PHE E  45      22.428  -8.578  18.188  1.00 43.36 LIG-0.35  N 
ATOM      7 H    PHE E  45      22.548  -8.677  17.342  1.00 43.36 LIG 0.16  HD
ATOM      8 O    SER E  44      21.085  -8.463  19.990  1.00 37.54 LIG-0.27  OA
BRANCH 6 9
ATOM      9  CA  PHE E  45      23.653  -8.429  18.957  1.00 46.68 LIG 0.18  C 
BRANCH 9 10
ATOM     10  C   PHE E  45      23.722  -9.561  19.972  1.00 48.11 LIG 0.24  C 
ATOM     11 O    PHE E  45      24.176  -9.366  21.100  1.00 49.85 LIG-0.27  OA
ATOM     12  N   GLY E  46      23.271 -10.746  19.581  1.00 50.71 LIG-0.35  N 
ATOM     13 H    GLY E  46      22.949 -10.923  18.803  1.00 50.71 LIG 0.16  HD
BRANCH 12 14
ATOM     14  CA  GLY E  46      23.304 -11.858  20.511  1.00 54.23 LIG 0.21  C 
BRANCH 14 15
ATOM     15  C   GLY E  46      21.954 -12.517  20.681  1.00 55.55 LIG 0.21  C 
ATOM     16 O    GLY E  46      20.962 -11.923  20.217  1.00 59.11 LIG-0.29  OA
ENDBRANCH 14 15
ENDBRANCH 12 14
ENDBRANCH 9 10
BRANCH 9 17
ATOM     17  CB  PHE E  45      23.681  -7.074  19.671  1.00 43.03 LIG 0.07  C 
BRANCH 17 18
ATOM     18  CG  PHE E  45      24.801  -6.172  19.220  1.00 41.93 LIG-0.06  A 
ATOM     19  CD2 PHE E  45      25.934  -6.695  18.597  1.00 42.38 LIG 0.01  A 
ATOM     20  CE2 PHE E  45      26.959  -5.855  18.154  1.00 42.73 LIG 0.00  A 
ATOM     21  CZ  PHE E  45      26.856  -4.480  18.333  1.00 42.74 LIG 0.00  A 
ATOM     22  CE1 PHE E  45      25.730  -3.945  18.952  1.00 41.89 LIG 0.00  A 
ATOM     23  CD1 PHE E  45      24.710  -4.793  19.392  1.00 42.01 LIG 0.01  A 
ENDBRANCH 17 18
ENDBRANCH 9 17
ENDBRANCH 6 9
ENDBRANCH 1 5
BRANCH 1 24
ATOM     24  N   SER E  44      20.033  -9.985  17.168  1.00 46.50 LIG-0.34  N 
ATOM     25  C   PHE E  43      20.904 -10.206  16.207  1.00 47.40 LIG 0.24  C 
ATOM     26 O    PHE E  43      21.702  -9.346  15.845  1.00 45.80 LIG-0.27  OA
ATOM     27 H    SER E  44      19.438 -10.540  17.445  1.00 46.50 LIG 0.16  HD
BRANCH 25 28
ATOM     28  CA  PHE E  43      20.846 -11.555  15.525  1.00 47.87 LIG 0.18  C 
BRANCH 28 29
ATOM     29  N   PHE E  43      21.704 -11.252  14.416  1.00 51.92 LIG-0.35  N 
ATOM     30  C   GLY E  42      21.408 -11.350  13.134  1.00 55.92 LIG 0.24  C 
ATOM     31 O    GLY E  42      20.330 -11.738  12.662  1.00 57.26 LIG-0.27  OA
ATOM     32 H    PHE E  43      22.479 -10.982  14.675  1.00 51.92 LIG 0.16  HD
BRANCH 30 33
ATOM     33  CA  GLY E  42      22.567 -10.917  12.272  1.00 58.33 LIG 0.33  C 
BRANCH 33 34
ATOM     34  N   GLY E  42      22.204 -10.432  10.970  1.00 60.94 LIG-0.07  N 
ATOM     35 H3   GLY E  42      22.323  -9.550  10.938  1.00 60.94 LIG 0.27  HD
ATOM     36 H1   GLY E  42      22.715 -10.823  10.354  1.00 60.94 LIG 0.27  HD
ATOM     37 H2   GLY E  42      21.350 -10.622  10.810  1.00 60.94 LIG 0.27  HD
ENDBRANCH 33 34
ENDBRANCH 30 33
ENDBRANCH 28 29
BRANCH 28 38
ATOM     38  CB  PHE E  43      21.467 -12.599  16.449  1.00 42.32 LIG 0.07  C 
BRANCH 38 39
ATOM     39  CG  PHE E  43      20.585 -13.792  16.765  1.00 35.12 LIG-0.06  A 
ATOM     40  CD1 PHE E  43      19.634 -14.176  15.832  1.00 34.02 LIG 0.01  A 
ATOM     41  CE1 PHE E  43      18.805 -15.282  16.034  1.00 29.46 LIG 0.00  A 
ATOM     42  CZ  PHE E  43      18.921 -16.037  17.196  1.00 28.92 LIG 0.00  A 
ATOM     43  CE2 PHE E  43      19.875 -15.677  18.157  1.00 30.40 LIG 0.00  A 
ATOM     44  CD2 PHE E  43      20.710 -14.546  17.940  1.00 32.72 LIG 0.01  A 
ENDBRANCH 38 39
ENDBRANCH 28 38
ENDBRANCH 25 28
ENDBRANCH 1 24
TORSDOF 16
ENDMDL
MODEL 64
USER: ADFR SOLUTION from run 144
USER: SCORE 13.222076 LL:  -3.642 LR: -11.530 RR:   0.000 FEB:  -6.757
USER: RMSD 7.752213
USER: SEED 143
USER: STATUS no improvement in best 11 clusters for 5 generations
USER: GENES 18
USER: genes 0 Translation |==|  0.44088 0.36196 0.43282
USER: genes 1 Rotation |==|  0.78164 0.39918 0.59996 0.88797
USER: genes 2 Torsion [C]-CA--CB-[OG] |==|  0.80990
USER: genes 3 Torsion [CA]-CB--OG-[HG] |==|  0.12517
USER: genes 4 Torsion [N]-CA--C-[N] |==|  0.92591
USER: genes 5 Torsion [C]-N--CA-[C] |==|  0.16600
USER: genes 6 Torsion [N]-CA--C-[N] |==|  0.11820
USER: genes 7 Torsion [C]-N--CA-[C] |==|  0.23783
USER: genes 8 Torsion [N]-CA--C-[O] |==|  0.05124
USER: genes 9 Torsion [N]-CA--CB-[CG] |==|  0.73974
USER: genes 10 Torsion [CA]-CB--CG-[CD1] |==|  0.12695
USER: genes 11 Torsion [CB]-CA--N-[C] |==|  0.44992
USER: genes 12 Torsion [N]-C--CA-[N] |==|  0.07248
USER: genes 13 Torsion [C]-CA--N-[C] |==|  0.58144
USER: genes 14 Torsion [N]-C--CA-[N] |==|  0.42673
USER: genes 15 Torsion [C]-CA--N-[H2] |==|  0.49892
USER: genes 16 Torsion [C]-CA--CB-[CG] |==|  0.62802
USER: genes 17 Torsion [CA]-CB--CG-[CD1] |==|  0.80548
ROOT
ATOM      1  CA  SER E  44      24.436 -11.571  16.455  1.00 44.79 LIG 0.20  C 
ENDROOT
BRANCH 1 2
ATOM      2  CB  SER E  44      25.890 -11.366  16.033  1.00 46.10 LIG 0.20  C 
BRANCH 2 3
ATOM      3 OG   SER E  44      26.045 -10.114  15.398  1.00 47.85 LIG-0.40  OA
ATOM      4 HG   SER E  44      25.640  -9.524  15.839  1.00 47.85 LIG 0.21  HD
ENDBRANCH 2 3
ENDBRANCH 1 2
BRANCH 1 5
ATOM      5  C   SER E  44      24.085 -10.611  17.568  1.00 42.78 LIG 0.24  C 
ATOM      6  N   PHE E  45      23.482  -9.497  17.179  1.00 43.36 LIG-0.35  N 
ATOM      7 H    PHE E  45      23.307  -9.306  16.358  1.00 43.36 LIG 0.16  HD
ATOM      8 O    SER E  44      24.372 -10.850  18.742  1.00 37.54 LIG-0.27  OA
BRANCH 6 9
ATOM      9  CA  PHE E  45      23.061  -8.488  18.136  1.00 46.68 LIG 0.18  C 
BRANCH 9 10
ATOM     10  C   PHE E  45      24.290  -8.001  18.891  1.00 48.11 LIG 0.24  C 
ATOM     11 O    PHE E  45      24.250  -7.825  20.110  1.00 49.85 LIG-0.27  OA
ATOM     12  N   GLY E  46      25.386  -7.784  18.176  1.00 50.71 LIG-0.35  N 
ATOM     13 H    GLY E  46      25.453  -7.893  17.325  1.00 50.71 LIG 0.16  HD
BRANCH 12 14
ATOM     14  CA  GLY E  46      26.589  -7.327  18.844  1.00 54.23 LIG 0.21  C 
BRANCH 14 15
ATOM     15  C   GLY E  46      27.412  -8.465  19.405  1.00 55.55 LIG 0.21  C 
ATOM     16 O    GLY E  46      27.197  -9.607  18.955  1.00 59.11 LIG-0.29  OA
ENDBRANCH 14 15
ENDBRANCH 12 14
ENDBRANCH 9 10
BRANCH 9 17
ATOM     17  CB  PHE E  45      22.034  -9.068  19.115  1.00 43.03 LIG 0.07  C 
BRANCH 17 18
ATOM     18  CG  PHE E  45      20.603  -8.841  18.698  1.00 41.93 LIG-0.06  A 
ATOM     19  CD2 PHE E  45      19.659  -8.365  19.608  1.00 42.38 LIG 0.01  A 
ATOM     20  CE2 PHE E  45      18.340  -8.128  19.214  1.00 42.73 LIG 0.00  A 
ATOM     21  CZ  PHE E  45      17.955  -8.369  17.899  1.00 42.74 LIG 0.00  A 
ATOM     22  CE1 PHE E  45      18.888  -8.843  16.980  1.00 41.89 LIG 0.00  A 
ATOM     23  CD1 PHE E  45      20.204  -9.076  17.384  1.00 42.01 LIG 0.01  A 
ENDBRANCH 17 18
ENDBRANCH 9 17
ENDBRANCH 6 9
ENDBRANCH 1 5
BRANCH 1 24
ATOM     24  N   SER E  44      23.562 -11.437  15.309  1.00 46.50 LIG-0.34  N 
ATOM     25  C   PHE E  43      22.345 -11.926  15.397  1.00 47.40 LIG 0.24  C 
ATOM     26 O    PHE E  43      21.954 -12.515  16.401  1.00 45.80 LIG-0.27  OA
ATOM     27 H    SER E  44      23.895 -11.038  14.624  1.00 46.50 LIG 0.16  HD
BRANCH 25 28
ATOM     28  CA  PHE E  43      21.455 -11.778  14.183  1.00 47.87 LIG 0.18  C 
BRANCH 28 29
ATOM     29  N   PHE E  43      22.487 -11.711  13.190  1.00 51.92 LIG-0.35  N 
ATOM     30  C   GLY E  42      22.436 -11.075  12.034  1.00 55.92 LIG 0.24  C 
ATOM     31 O    GLY E  42      21.472 -10.430  11.599  1.00 57.26 LIG-0.27  OA
ATOM     32 H    PHE E  43      23.188 -12.150  13.427  1.00 51.92 LIG 0.16  HD
BRANCH 30 33
ATOM     33  CA  GLY E  42      23.731 -11.220  11.274  1.00 58.33 LIG 0.33  C 
BRANCH 33 34
ATOM     34  N   GLY E  42      23.610 -11.111   9.848  1.00 60.94 LIG-0.07  N 
ATOM     35 H3   GLY E  42      23.070 -11.749   9.545  1.00 60.94 LIG 0.27  HD
ATOM     36 H1   GLY E  42      23.274 -10.313   9.639  1.00 60.94 LIG 0.27  HD
ATOM     37 H2   GLY E  42      24.413 -11.201   9.474  1.00 60.94 LIG 0.27  HD
ENDBRANCH 33 34
ENDBRANCH 30 33
ENDBRANCH 28 29
BRANCH 28 38
ATOM     38  CB  PHE E  43      20.611 -13.041  14.035  1.00 42.32 LIG 0.07  C 
BRANCH 38 39
ATOM     39  CG  PHE E  43      20.543 -13.616  12.632  1.00 35.12 LIG-0.06  A 
ATOM     40  CD1 PHE E  43      19.835 -12.917  11.667  1.00 34.02 LIG 0.01  A 
ATOM     41  CE1 PHE E  43      19.751 -13.362  10.345  1.00 29.46 LIG 0.00  A 
ATOM     42  CZ  PHE E  43      20.389 -14.537   9.964  1.00 28.92 LIG 0.00  A 
ATOM     43  CE2 PHE E  43      21.115 -15.265  10.916  1.00 30.40 LIG 0.00  A 
ATOM     44  CD2 PHE E  43      21.190 -14.802  12.259  1.00 32.72 LIG 0.01  A 
ENDBRANCH 38 39
ENDBRANCH 28 38
ENDBRANCH 25 28
ENDBRANCH 1 24
TORSDOF 16
ENDMDL
MODEL 65
USER: ADFR SOLUTION from run 5
USER: SCORE 13.930811 LL:  -3.260 LR: -11.523 RR:   0.000 FEB:  -6.751
USER: RMSD 9.436712
USER: SEED 173394
USER: STATUS no improvement in best 11 clusters for 5 generations
USER: GENES 18
USER: genes 0 Translation |==|  0.35324 0.34163 0.42646
USER: genes 1 Rotation |==|  0.43835 0.85382 0.25449 0.74645
USER: genes 2 Torsion [C]-CA--CB-[OG] |==|  0.56316
USER: genes 3 Torsion [CA]-CB--OG-[HG] |==|  0.49917
USER: genes 4 Torsion [N]-CA--C-[N] |==|  0.30426
USER: genes 5 Torsion [C]-N--CA-[C] |==|  0.83200
USER: genes 6 Torsion [N]-CA--C-[N] |==|  0.90458
USER: genes 7 Torsion [C]-N--CA-[C] |==|  0.58337
USER: genes 8 Torsion [N]-CA--C-[O] |==|  0.05422
USER: genes 9 Torsion [N]-CA--CB-[CG] |==|  0.62276
USER: genes 10 Torsion [CA]-CB--CG-[CD1] |==|  0.21757
USER: genes 11 Torsion [CB]-CA--N-[C] |==|  0.51667
USER: genes 12 Torsion [N]-C--CA-[N] |==|  0.41915
USER: genes 13 Torsion [C]-CA--N-[C] |==|  0.62681
USER: genes 14 Torsion [N]-C--CA-[N] |==|  0.06460
USER: genes 15 Torsion [C]-CA--N-[H2] |==|  0.43224
USER: genes 16 Torsion [C]-CA--CB-[CG] |==|  0.16728
USER: genes 17 Torsion [CA]-CB--CG-[CD1] |==|  0.25026
ROOT
ATOM      1  CA  SER E  44      21.807 -12.181  16.264  1.00 44.79 LIG 0.20  C 
ENDROOT
BRANCH 1 2
ATOM      2  CB  SER E  44      20.629 -13.107  16.559  1.00 46.10 LIG 0.20  C 
BRANCH 2 3
ATOM      3 OG   SER E  44      20.559 -13.387  17.942  1.00 47.85 LIG-0.40  OA
ATOM      4 HG   SER E  44      19.906 -13.893  18.093  1.00 47.85 LIG 0.21  HD
ENDBRANCH 2 3
ENDBRANCH 1 2
BRANCH 1 5
ATOM      5  C   SER E  44      21.572 -11.451  14.961  1.00 42.78 LIG 0.24  C 
ATOM      6  N   PHE E  45      22.558 -11.541  14.081  1.00 43.36 LIG-0.35  N 
ATOM      7 H    PHE E  45      23.293 -11.966  14.223  1.00 43.36 LIG 0.16  HD
ATOM      8 O    SER E  44      20.545 -10.800  14.762  1.00 37.54 LIG-0.27  OA
BRANCH 6 9
ATOM      9  CA  PHE E  45      22.467 -10.913  12.774  1.00 46.68 LIG 0.18  C 
BRANCH 9 10
ATOM     10  C   PHE E  45      21.275 -11.507  12.038  1.00 48.11 LIG 0.24  C 
ATOM     11 O    PHE E  45      20.602 -10.816  11.272  1.00 49.85 LIG-0.27  OA
ATOM     12  N   GLY E  46      21.010 -12.788  12.261  1.00 50.71 LIG-0.35  N 
ATOM     13 H    GLY E  46      21.454 -13.302  12.788  1.00 50.71 LIG 0.16  HD
BRANCH 12 14
ATOM     14  CA  GLY E  46      19.891 -13.408  11.579  1.00 54.23 LIG 0.21  C 
BRANCH 14 15
ATOM     15  C   GLY E  46      19.265 -14.526  12.383  1.00 55.55 LIG 0.21  C 
ATOM     16 O    GLY E  46      19.489 -14.547  13.609  1.00 59.11 LIG-0.29  OA
ENDBRANCH 14 15
ENDBRANCH 12 14
ENDBRANCH 9 10
BRANCH 9 17
ATOM     17  CB  PHE E  45      23.754 -11.143  11.973  1.00 43.03 LIG 0.07  C 
BRANCH 17 18
ATOM     18  CG  PHE E  45      24.256  -9.912  11.263  1.00 41.93 LIG-0.06  A 
ATOM     19  CD2 PHE E  45      24.019  -9.723   9.902  1.00 42.38 LIG 0.01  A 
ATOM     20  CE2 PHE E  45      24.460  -8.568   9.251  1.00 42.73 LIG 0.00  A 
ATOM     21  CZ  PHE E  45      25.147  -7.590   9.964  1.00 42.74 LIG 0.00  A 
ATOM     22  CE1 PHE E  45      25.389  -7.765  11.323  1.00 41.89 LIG 0.00  A 
ATOM     23  CD1 PHE E  45      24.944  -8.924  11.965  1.00 42.01 LIG 0.01  A 
ENDBRANCH 17 18
ENDBRANCH 9 17
ENDBRANCH 6 9
ENDBRANCH 1 5
BRANCH 1 24
ATOM     24  N   SER E  44      22.022 -11.279  17.375  1.00 46.50 LIG-0.34  N 
ATOM     25  C   PHE E  43      22.923 -10.331  17.239  1.00 47.40 LIG 0.24  C 
ATOM     26 O    PHE E  43      23.599 -10.220  16.219  1.00 45.80 LIG-0.27  OA
ATOM     27 H    SER E  44      21.539 -11.417  18.073  1.00 46.50 LIG 0.16  HD
BRANCH 25 28
ATOM     28  CA  PHE E  43      23.132  -9.406  18.418  1.00 47.87 LIG 0.18  C 
BRANCH 28 29
ATOM     29  N   PHE E  43      24.511  -9.094  18.181  1.00 51.92 LIG-0.35  N 
ATOM     30  C   GLY E  42      25.486  -9.077  19.072  1.00 55.92 LIG 0.24  C 
ATOM     31 O    GLY E  42      25.371  -9.319  20.282  1.00 57.26 LIG-0.27  OA
ATOM     32 H    PHE E  43      24.660  -8.906  17.354  1.00 51.92 LIG 0.16  HD
BRANCH 30 33
ATOM     33  CA  GLY E  42      26.804  -8.724  18.431  1.00 58.33 LIG 0.33  C 
BRANCH 33 34
ATOM     34  N   GLY E  42      26.701  -7.992  17.200  1.00 60.94 LIG-0.07  N 
ATOM     35 H3   GLY E  42      26.584  -8.560  16.525  1.00 60.94 LIG 0.27  HD
ATOM     36 H1   GLY E  42      26.008  -7.435  17.243  1.00 60.94 LIG 0.27  HD
ATOM     37 H2   GLY E  42      27.448  -7.526  17.068  1.00 60.94 LIG 0.27  HD
ENDBRANCH 33 34
ENDBRANCH 30 33
ENDBRANCH 28 29
BRANCH 28 38
ATOM     38  CB  PHE E  43      22.239  -8.181  18.245  1.00 42.32 LIG 0.07  C 
BRANCH 38 39
ATOM     39  CG  PHE E  43      20.750  -8.467  18.174  1.00 35.12 LIG-0.06  A 
ATOM     40  CD1 PHE E  43      20.024  -8.476  19.354  1.00 34.02 LIG 0.01  A 
ATOM     41  CE1 PHE E  43      18.644  -8.699  19.371  1.00 29.46 LIG 0.00  A 
ATOM     42  CZ  PHE E  43      17.960  -8.918  18.181  1.00 28.92 LIG 0.00  A 
ATOM     43  CE2 PHE E  43      18.666  -8.910  16.971  1.00 30.40 LIG 0.00  A 
ATOM     44  CD2 PHE E  43      20.070  -8.685  16.969  1.00 32.72 LIG 0.01  A 
ENDBRANCH 38 39
ENDBRANCH 28 38
ENDBRANCH 25 28
ENDBRANCH 1 24
TORSDOF 16
ENDMDL
MODEL 66
USER: ADFR SOLUTION from run 16
USER: SCORE 13.533525 LL:  -3.938 LR: -11.518 RR:   0.000 FEB:  -6.745
USER: RMSD 8.061380
USER: SEED 646219
USER: STATUS no improvement in best 18 clusters for 5 generations
USER: GENES 18
USER: genes 0 Translation |==|  0.28818 0.45376 0.45592
USER: genes 1 Rotation |==|  0.78368 0.82870 0.74774 0.51044
USER: genes 2 Torsion [C]-CA--CB-[OG] |==|  0.85012
USER: genes 3 Torsion [CA]-CB--OG-[HG] |==|  0.47859
USER: genes 4 Torsion [N]-CA--C-[N] |==|  0.18852
USER: genes 5 Torsion [C]-N--CA-[C] |==|  0.68333
USER: genes 6 Torsion [N]-CA--C-[N] |==|  0.02300
USER: genes 7 Torsion [C]-N--CA-[C] |==|  0.23458
USER: genes 8 Torsion [N]-CA--C-[O] |==|  0.36730
USER: genes 9 Torsion [N]-CA--CB-[CG] |==|  0.11404
USER: genes 10 Torsion [CA]-CB--CG-[CD1] |==|  0.09736
USER: genes 11 Torsion [CB]-CA--N-[C] |==|  0.42894
USER: genes 12 Torsion [N]-C--CA-[N] |==|  0.41269
USER: genes 13 Torsion [C]-CA--N-[C] |==|  0.67486
USER: genes 14 Torsion [N]-C--CA-[N] |==|  0.56159
USER: genes 15 Torsion [C]-CA--N-[H2] |==|  0.32887
USER: genes 16 Torsion [C]-CA--CB-[CG] |==|  0.34378
USER: genes 17 Torsion [CA]-CB--CG-[CD1] |==|  0.65420
ROOT
ATOM      1  CA  SER E  44      19.855  -8.817  17.148  1.00 44.79 LIG 0.20  C 
ENDROOT
BRANCH 1 2
ATOM      2  CB  SER E  44      18.469  -8.179  17.199  1.00 46.10 LIG 0.20  C 
BRANCH 2 3
ATOM      3 OG   SER E  44      17.597  -8.964  17.986  1.00 47.85 LIG-0.40  OA
ATOM      4 HG   SER E  44      16.872  -8.554  18.096  1.00 47.85 LIG 0.21  HD
ENDBRANCH 2 3
ENDBRANCH 1 2
BRANCH 1 5
ATOM      5  C   SER E  44      20.360  -9.062  18.552  1.00 42.78 LIG 0.24  C 
ATOM      6  N   PHE E  45      21.637  -9.401  18.638  1.00 43.36 LIG-0.35  N 
ATOM      7 H    PHE E  45      22.158  -9.495  17.959  1.00 43.36 LIG 0.16  HD
ATOM      8 O    SER E  44      19.614  -8.978  19.529  1.00 37.54 LIG-0.27  OA
BRANCH 6 9
ATOM      9  CA  PHE E  45      22.272  -9.645  19.922  1.00 46.68 LIG 0.18  C 
BRANCH 9 10
ATOM     10  C   PHE E  45      23.321  -8.566  20.151  1.00 48.11 LIG 0.24  C 
ATOM     11 O    PHE E  45      24.104  -8.642  21.100  1.00 49.85 LIG-0.27  OA
ATOM     12  N   GLY E  46      23.347  -7.561  19.285  1.00 50.71 LIG-0.35  N 
ATOM     13 H    GLY E  46      22.818  -7.471  18.613  1.00 50.71 LIG 0.16  HD
BRANCH 12 14
ATOM     14  CA  GLY E  46      24.332  -6.509  19.450  1.00 54.23 LIG 0.21  C 
BRANCH 14 15
ATOM     15  C   GLY E  46      25.666  -6.858  18.829  1.00 55.55 LIG 0.21  C 
ATOM     16 O    GLY E  46      26.205  -5.999  18.106  1.00 59.11 LIG-0.29  OA
ENDBRANCH 14 15
ENDBRANCH 12 14
ENDBRANCH 9 10
BRANCH 9 17
ATOM     17  CB  PHE E  45      22.923 -11.032  19.949  1.00 43.03 LIG 0.07  C 
BRANCH 17 18
ATOM     18  CG  PHE E  45      23.634 -11.394  18.670  1.00 41.93 LIG-0.06  A 
ATOM     19  CD2 PHE E  45      23.619 -12.702  18.189  1.00 42.38 LIG 0.01  A 
ATOM     20  CE2 PHE E  45      24.254 -13.031  16.988  1.00 42.73 LIG 0.00  A 
ATOM     21  CZ  PHE E  45      24.913 -12.046  16.259  1.00 42.74 LIG 0.00  A 
ATOM     22  CE1 PHE E  45      24.935 -10.736  16.729  1.00 41.89 LIG 0.00  A 
ATOM     23  CD1 PHE E  45      24.297 -10.417  17.930  1.00 42.01 LIG 0.01  A 
ENDBRANCH 17 18
ENDBRANCH 9 17
ENDBRANCH 6 9
ENDBRANCH 1 5
BRANCH 1 24
ATOM     24  N   SER E  44      19.818 -10.026  16.352  1.00 46.50 LIG-0.34  N 
ATOM     25  C   PHE E  43      20.931 -10.423  15.775  1.00 47.40 LIG 0.24  C 
ATOM     26 O    PHE E  43      21.974  -9.781  15.866  1.00 45.80 LIG-0.27  OA
ATOM     27 H    SER E  44      19.057 -10.423  16.303  1.00 46.50 LIG 0.16  HD
BRANCH 25 28
ATOM     28  CA  PHE E  43      20.862 -11.686  14.945  1.00 47.87 LIG 0.18  C 
BRANCH 28 29
ATOM     29  N   PHE E  43      21.865 -11.342  13.979  1.00 51.92 LIG-0.35  N 
ATOM     30  C   GLY E  42      21.694 -11.178  12.681  1.00 55.92 LIG 0.24  C 
ATOM     31 O    GLY E  42      20.628 -11.307  12.064  1.00 57.26 LIG-0.27  OA
ATOM     32 H    PHE E  43      22.639 -11.245  14.343  1.00 51.92 LIG 0.16  HD
BRANCH 30 33
ATOM     33  CA  GLY E  42      22.987 -10.796  12.004  1.00 58.33 LIG 0.33  C 
BRANCH 33 34
ATOM     34  N   GLY E  42      22.835 -10.126  10.744  1.00 60.94 LIG-0.07  N 
ATOM     35 H3   GLY E  42      23.251 -10.590  10.108  1.00 60.94 LIG 0.27  HD
ATOM     36 H1   GLY E  42      21.969 -10.061  10.545  1.00 60.94 LIG 0.27  HD
ATOM     37 H2   GLY E  42      23.190  -9.312  10.796  1.00 60.94 LIG 0.27  HD
ENDBRANCH 33 34
ENDBRANCH 30 33
ENDBRANCH 28 29
BRANCH 28 38
ATOM     38  CB  PHE E  43      21.293 -12.867  15.809  1.00 42.32 LIG 0.07  C 
BRANCH 38 39
ATOM     39  CG  PHE E  43      20.285 -13.996  15.915  1.00 35.12 LIG-0.06  A 
ATOM     40  CD1 PHE E  43      19.872 -14.395  17.177  1.00 34.02 LIG 0.01  A 
ATOM     41  CE1 PHE E  43      18.923 -15.405  17.359  1.00 29.46 LIG 0.00  A 
ATOM     42  CZ  PHE E  43      18.364 -16.042  16.258  1.00 28.92 LIG 0.00  A 
ATOM     43  CE2 PHE E  43      18.758 -15.659  14.969  1.00 30.40 LIG 0.00  A 
ATOM     44  CD2 PHE E  43      19.727 -14.631  14.798  1.00 32.72 LIG 0.01  A 
ENDBRANCH 38 39
ENDBRANCH 28 38
ENDBRANCH 25 28
ENDBRANCH 1 24
TORSDOF 16
ENDMDL
MODEL 67
USER: ADFR SOLUTION from run 82
USER: SCORE 13.507389 LL:  -2.735 LR: -11.522 RR:   0.000 FEB:  -6.750
USER: RMSD 9.101766
USER: SEED 81
USER: STATUS no improvement in best 9 clusters for 5 generations
USER: GENES 18
USER: genes 0 Translation |==|  0.31464 0.32246 0.43599
USER: genes 1 Rotation |==|  0.43715 0.27466 0.50712 0.94184
USER: genes 2 Torsion [C]-CA--CB-[OG] |==|  0.43879
USER: genes 3 Torsion [CA]-CB--OG-[HG] |==|  0.83395
USER: genes 4 Torsion [N]-CA--C-[N] |==|  0.46111
USER: genes 5 Torsion [C]-N--CA-[C] |==|  0.60966
USER: genes 6 Torsion [N]-CA--C-[N] |==|  0.43366
USER: genes 7 Torsion [C]-N--CA-[C] |==|  0.61606
USER: genes 8 Torsion [N]-CA--C-[O] |==|  0.98184
USER: genes 9 Torsion [N]-CA--CB-[CG] |==|  0.10334
USER: genes 10 Torsion [CA]-CB--CG-[CD1] |==|  0.19338
USER: genes 11 Torsion [CB]-CA--N-[C] |==|  0.84304
USER: genes 12 Torsion [N]-C--CA-[N] |==|  0.96593
USER: genes 13 Torsion [C]-CA--N-[C] |==|  0.68052
USER: genes 14 Torsion [N]-C--CA-[N] |==|  0.15734
USER: genes 15 Torsion [C]-CA--N-[H2] |==|  0.20006
USER: genes 16 Torsion [C]-CA--CB-[CG] |==|  0.55810
USER: genes 17 Torsion [CA]-CB--CG-[CD1] |==|  0.47891
ROOT
ATOM      1  CA  SER E  44      20.649 -12.756  16.550  1.00 44.79 LIG 0.20  C 
ENDROOT
BRANCH 1 2
ATOM      2  CB  SER E  44      21.510 -13.732  17.350  1.00 46.10 LIG 0.20  C 
BRANCH 2 3
ATOM      3 OG   SER E  44      20.691 -14.618  18.084  1.00 47.85 LIG-0.40  OA
ATOM      4 HG   SER E  44      20.206 -14.180  18.612  1.00 47.85 LIG 0.21  HD
ENDBRANCH 2 3
ENDBRANCH 1 2
BRANCH 1 5
ATOM      5  C   SER E  44      21.452 -11.518  16.217  1.00 42.78 LIG 0.24  C 
ATOM      6  N   PHE E  45      21.712 -10.726  17.246  1.00 43.36 LIG-0.35  N 
ATOM      7 H    PHE E  45      21.443 -10.875  18.049  1.00 43.36 LIG 0.16  HD
ATOM      8 O    SER E  44      21.803 -11.268  15.063  1.00 37.54 LIG-0.27  OA
BRANCH 6 9
ATOM      9  CA  PHE E  45      22.494  -9.511  17.088  1.00 46.68 LIG 0.18  C 
BRANCH 9 10
ATOM     10  C   PHE E  45      23.411  -9.371  18.295  1.00 48.11 LIG 0.24  C 
ATOM     11 O    PHE E  45      23.130  -9.917  19.363  1.00 49.85 LIG-0.27  OA
ATOM     12  N   GLY E  46      24.509  -8.645  18.134  1.00 50.71 LIG-0.35  N 
ATOM     13 H    GLY E  46      24.738  -8.247  17.406  1.00 50.71 LIG 0.16  HD
BRANCH 12 14
ATOM     14  CA  GLY E  46      25.423  -8.485  19.248  1.00 54.23 LIG 0.21  C 
BRANCH 14 15
ATOM     15  C   GLY E  46      25.947  -7.073  19.374  1.00 55.55 LIG 0.21  C 
ATOM     16 O    GLY E  46      25.653  -6.267  18.470  1.00 59.11 LIG-0.29  OA
ENDBRANCH 14 15
ENDBRANCH 12 14
ENDBRANCH 9 10
BRANCH 9 17
ATOM     17  CB  PHE E  45      21.577  -8.289  16.974  1.00 43.03 LIG 0.07  C 
BRANCH 17 18
ATOM     18  CG  PHE E  45      20.356  -8.361  17.854  1.00 41.93 LIG-0.06  A 
ATOM     19  CD2 PHE E  45      19.088  -8.555  17.305  1.00 42.38 LIG 0.01  A 
ATOM     20  CE2 PHE E  45      17.960  -8.651  18.124  1.00 42.73 LIG 0.00  A 
ATOM     21  CZ  PHE E  45      18.095  -8.551  19.505  1.00 42.74 LIG 0.00  A 
ATOM     22  CE1 PHE E  45      19.354  -8.359  20.066  1.00 41.89 LIG 0.00  A 
ATOM     23  CD1 PHE E  45      20.476  -8.265  19.239  1.00 42.01 LIG 0.01  A 
ENDBRANCH 17 18
ENDBRANCH 9 17
ENDBRANCH 6 9
ENDBRANCH 1 5
BRANCH 1 24
ATOM     24  N   SER E  44      20.121 -13.409  15.370  1.00 46.50 LIG-0.34  N 
ATOM     25  C   PHE E  43      20.972 -13.953  14.529  1.00 47.40 LIG 0.24  C 
ATOM     26 O    PHE E  43      22.186 -13.890  14.703  1.00 45.80 LIG-0.27  OA
ATOM     27 H    SER E  44      19.265 -13.402  15.286  1.00 46.50 LIG 0.16  HD
BRANCH 25 28
ATOM     28  CA  PHE E  43      20.394 -14.622  13.302  1.00 47.87 LIG 0.18  C 
BRANCH 28 29
ATOM     29  N   PHE E  43      19.021 -14.638  13.716  1.00 51.92 LIG-0.35  N 
ATOM     30  C   GLY E  42      18.279 -15.701  13.966  1.00 55.92 LIG 0.24  C 
ATOM     31 O    GLY E  42      18.642 -16.881  13.875  1.00 57.26 LIG-0.27  OA
ATOM     32 H    PHE E  43      18.700 -13.843  13.792  1.00 51.92 LIG 0.16  HD
BRANCH 30 33
ATOM     33  CA  GLY E  42      16.889 -15.306  14.400  1.00 58.33 LIG 0.33  C 
BRANCH 33 34
ATOM     34  N   GLY E  42      16.180 -14.472  13.470  1.00 60.94 LIG-0.07  N 
ATOM     35 H3   GLY E  42      15.453 -14.142  13.862  1.00 60.94 LIG 0.27  HD
ATOM     36 H1   GLY E  42      16.707 -13.803  13.210  1.00 60.94 LIG 0.27  HD
ATOM     37 H2   GLY E  42      15.942 -14.954  12.761  1.00 60.94 LIG 0.27  HD
ENDBRANCH 33 34
ENDBRANCH 30 33
ENDBRANCH 28 29
BRANCH 28 38
ATOM     38  CB  PHE E  43      20.609 -13.711  12.098  1.00 42.32 LIG 0.07  C 
BRANCH 38 39
ATOM     39  CG  PHE E  43      19.691 -13.966  10.917  1.00 35.12 LIG-0.06  A 
ATOM     40  CD1 PHE E  43      19.721 -13.077   9.854  1.00 34.02 LIG 0.01  A 
ATOM     41  CE1 PHE E  43      18.930 -13.258   8.716  1.00 29.46 LIG 0.00  A 
ATOM     42  CZ  PHE E  43      18.082 -14.356   8.625  1.00 28.92 LIG 0.00  A 
ATOM     43  CE2 PHE E  43      18.032 -15.275   9.682  1.00 30.40 LIG 0.00  A 
ATOM     44  CD2 PHE E  43      18.840 -15.076  10.835  1.00 32.72 LIG 0.01  A 
ENDBRANCH 38 39
ENDBRANCH 28 38
ENDBRANCH 25 28
ENDBRANCH 1 24
TORSDOF 16
ENDMDL
MODEL 68
USER: ADFR SOLUTION from run 156
USER: SCORE 13.314792 LL:  -2.910 LR: -11.500 RR:   0.000 FEB:  -6.727
USER: RMSD 6.514685
USER: SEED 155
USER: STATUS searching
USER: GENES 18
USER: genes 0 Translation |==|  0.48934 0.48734 0.55471
USER: genes 1 Rotation |==|  0.87574 0.67225 0.75219 0.62471
USER: genes 2 Torsion [C]-CA--CB-[OG] |==|  0.51712
USER: genes 3 Torsion [CA]-CB--OG-[HG] |==|  0.09370
USER: genes 4 Torsion [N]-CA--C-[N] |==|  0.45471
USER: genes 5 Torsion [C]-N--CA-[C] |==|  0.17965
USER: genes 6 Torsion [N]-CA--C-[N] |==|  0.65283
USER: genes 7 Torsion [C]-N--CA-[C] |==|  0.57068
USER: genes 8 Torsion [N]-CA--C-[O] |==|  0.13140
USER: genes 9 Torsion [N]-CA--CB-[CG] |==|  0.75505
USER: genes 10 Torsion [CA]-CB--CG-[CD1] |==|  0.07002
USER: genes 11 Torsion [CB]-CA--N-[C] |==|  0.82778
USER: genes 12 Torsion [N]-C--CA-[N] |==|  0.35076
USER: genes 13 Torsion [C]-CA--N-[C] |==|  0.59707
USER: genes 14 Torsion [N]-C--CA-[N] |==|  0.50619
USER: genes 15 Torsion [C]-CA--N-[H2] |==|  0.96491
USER: genes 16 Torsion [C]-CA--CB-[CG] |==|  0.73482
USER: genes 17 Torsion [CA]-CB--CG-[CD1] |==|  0.65942
ROOT
ATOM      1  CA  SER E  44      25.890  -7.810  20.111  1.00 44.79 LIG 0.20  C 
ENDROOT
BRANCH 1 2
ATOM      2  CB  SER E  44      25.453  -6.346  20.102  1.00 46.10 LIG 0.20  C 
BRANCH 2 3
ATOM      3 OG   SER E  44      25.383  -5.864  18.776  1.00 47.85 LIG-0.40  OA
ATOM      4 HG   SER E  44      25.137  -6.483  18.265  1.00 47.85 LIG 0.21  HD
ENDBRANCH 2 3
ENDBRANCH 1 2
BRANCH 1 5
ATOM      5  C   SER E  44      25.816  -8.359  21.519  1.00 42.78 LIG 0.24  C 
ATOM      6  N   PHE E  45      26.763  -7.929  22.338  1.00 43.36 LIG-0.35  N 
ATOM      7 H    PHE E  45      27.393  -7.390  22.107  1.00 43.36 LIG 0.16  HD
ATOM      8 O    SER E  44      24.949  -9.168  21.851  1.00 37.54 LIG-0.27  OA
BRANCH 6 9
ATOM      9  CA  PHE E  45      26.810  -8.349  23.729  1.00 46.68 LIG 0.18  C 
BRANCH 9 10
ATOM     10  C   PHE E  45      27.068  -9.848  23.768  1.00 48.11 LIG 0.24  C 
ATOM     11 O    PHE E  45      28.046 -10.332  23.195  1.00 49.85 LIG-0.27  OA
ATOM     12  N   GLY E  46      26.199 -10.589  24.444  1.00 50.71 LIG-0.35  N 
ATOM     13 H    GLY E  46      25.505 -10.290  24.854  1.00 50.71 LIG 0.16  HD
BRANCH 12 14
ATOM     14  CA  GLY E  46      26.401 -12.023  24.521  1.00 54.23 LIG 0.21  C 
BRANCH 14 15
ATOM     15  C   GLY E  46      25.114 -12.781  24.752  1.00 55.55 LIG 0.21  C 
ATOM     16 O    GLY E  46      24.135 -12.482  24.041  1.00 59.11 LIG-0.29  OA
ENDBRANCH 14 15
ENDBRANCH 12 14
ENDBRANCH 9 10
BRANCH 9 17
ATOM     17  CB  PHE E  45      25.492  -8.019  24.438  1.00 43.03 LIG 0.07  C 
BRANCH 17 18
ATOM     18  CG  PHE E  45      25.453  -6.637  25.037  1.00 41.93 LIG-0.06  A 
ATOM     19  CD2 PHE E  45      24.640  -6.355  26.135  1.00 42.38 LIG 0.01  A 
ATOM     20  CE2 PHE E  45      24.627  -5.080  26.708  1.00 42.73 LIG 0.00  A 
ATOM     21  CZ  PHE E  45      25.432  -4.075  26.182  1.00 42.74 LIG 0.00  A 
ATOM     22  CE1 PHE E  45      26.249  -4.344  25.088  1.00 41.89 LIG 0.00  A 
ATOM     23  CD1 PHE E  45      26.256  -5.621  24.522  1.00 42.01 LIG 0.01  A 
ENDBRANCH 17 18
ENDBRANCH 9 17
ENDBRANCH 6 9
ENDBRANCH 1 5
BRANCH 1 24
ATOM     24  N   SER E  44      25.093  -8.574  19.175  1.00 46.50 LIG-0.34  N 
ATOM     25  C   PHE E  43      23.796  -8.649  19.382  1.00 47.40 LIG 0.24  C 
ATOM     26 O    PHE E  43      23.263  -8.123  20.355  1.00 45.80 LIG-0.27  OA
ATOM     27 H    SER E  44      25.521  -8.941  18.526  1.00 46.50 LIG 0.16  HD
BRANCH 25 28
ATOM     28  CA  PHE E  43      22.989  -9.459  18.392  1.00 47.87 LIG 0.18  C 
BRANCH 28 29
ATOM     29  N   PHE E  43      22.339 -10.326  19.331  1.00 51.92 LIG-0.35  N 
ATOM     30  C   GLY E  42      22.022 -11.595  19.152  1.00 55.92 LIG 0.24  C 
ATOM     31 O    GLY E  42      22.224 -12.259  18.127  1.00 57.26 LIG-0.27  OA
ATOM     32 H    PHE E  43      22.160  -9.922  20.070  1.00 51.92 LIG 0.16  HD
BRANCH 30 33
ATOM     33  CA  GLY E  42      21.369 -12.172  20.383  1.00 58.33 LIG 0.33  C 
BRANCH 33 34
ATOM     34  N   GLY E  42      21.037 -13.566  20.294  1.00 60.94 LIG-0.07  N 
ATOM     35 H3   GLY E  42      21.595 -14.038  20.801  1.00 60.94 LIG 0.27  HD
ATOM     36 H1   GLY E  42      20.201 -13.691  20.577  1.00 60.94 LIG 0.27  HD
ATOM     37 H2   GLY E  42      21.106 -13.834  19.448  1.00 60.94 LIG 0.27  HD
ENDBRANCH 33 34
ENDBRANCH 30 33
ENDBRANCH 28 29
BRANCH 28 38
ATOM     38  CB  PHE E  43      21.994  -8.535  17.696  1.00 42.32 LIG 0.07  C 
BRANCH 38 39
ATOM     39  CG  PHE E  43      20.602  -8.506  18.299  1.00 35.12 LIG-0.06  A 
ATOM     40  CD1 PHE E  43      19.525  -8.829  17.488  1.00 34.02 LIG 0.01  A 
ATOM     41  CE1 PHE E  43      18.216  -8.857  17.975  1.00 29.46 LIG 0.00  A 
ATOM     42  CZ  PHE E  43      17.962  -8.557  19.309  1.00 28.92 LIG 0.00  A 
ATOM     43  CE2 PHE E  43      19.030  -8.231  20.155  1.00 30.40 LIG 0.00  A 
ATOM     44  CD2 PHE E  43      20.358  -8.203  19.645  1.00 32.72 LIG 0.01  A 
ENDBRANCH 38 39
ENDBRANCH 28 38
ENDBRANCH 25 28
ENDBRANCH 1 24
TORSDOF 16
ENDMDL
MODEL 69
USER: ADFR SOLUTION from run 22
USER: SCORE 13.224340 LL:  -2.922 LR: -11.496 RR:   0.000 FEB:  -6.723
USER: RMSD 8.550351
USER: SEED 21
USER: STATUS no improvement in best 18 clusters for 5 generations
USER: GENES 18
USER: genes 0 Translation |==|  0.45762 0.47782 0.53306
USER: genes 1 Rotation |==|  0.18767 0.68975 0.77666 0.69976
USER: genes 2 Torsion [C]-CA--CB-[OG] |==|  0.30391
USER: genes 3 Torsion [CA]-CB--OG-[HG] |==|  0.76099
USER: genes 4 Torsion [N]-CA--C-[N] |==|  0.48571
USER: genes 5 Torsion [C]-N--CA-[C] |==|  0.69731
USER: genes 6 Torsion [N]-CA--C-[N] |==|  0.99542
USER: genes 7 Torsion [C]-N--CA-[C] |==|  0.20546
USER: genes 8 Torsion [N]-CA--C-[O] |==|  0.11396
USER: genes 9 Torsion [N]-CA--CB-[CG] |==|  0.77104
USER: genes 10 Torsion [CA]-CB--CG-[CD1] |==|  0.54504
USER: genes 11 Torsion [CB]-CA--N-[C] |==|  0.23333
USER: genes 12 Torsion [N]-C--CA-[N] |==|  0.45478
USER: genes 13 Torsion [C]-CA--N-[C] |==|  0.74570
USER: genes 14 Torsion [N]-C--CA-[N] |==|  0.46595
USER: genes 15 Torsion [C]-CA--N-[H2] |==|  0.38901
USER: genes 16 Torsion [C]-CA--CB-[CG] |==|  0.56723
USER: genes 17 Torsion [CA]-CB--CG-[CD1] |==|  0.90361
ROOT
ATOM      1  CA  SER E  44      24.939  -8.095  19.462  1.00 44.79 LIG 0.20  C 
ENDROOT
BRANCH 1 2
ATOM      2  CB  SER E  44      26.180  -8.120  18.571  1.00 46.10 LIG 0.20  C 
BRANCH 2 3
ATOM      3 OG   SER E  44      26.211  -6.975  17.744  1.00 47.85 LIG-0.40  OA
ATOM      4 HG   SER E  44      25.765  -7.121  17.047  1.00 47.85 LIG 0.21  HD
ENDBRANCH 2 3
ENDBRANCH 1 2
BRANCH 1 5
ATOM      5  C   SER E  44      23.964  -9.160  19.012  1.00 42.78 LIG 0.24  C 
ATOM      6  N   PHE E  45      23.500  -9.012  17.781  1.00 43.36 LIG-0.35  N 
ATOM      7 H    PHE E  45      23.712  -8.359  17.261  1.00 43.36 LIG 0.16  HD
ATOM      8 O    SER E  44      23.616 -10.075  19.762  1.00 37.54 LIG-0.27  OA
BRANCH 6 9
ATOM      9  CA  PHE E  45      22.574  -9.970  17.199  1.00 46.68 LIG 0.18  C 
BRANCH 9 10
ATOM     10  C   PHE E  45      23.312 -10.759  16.127  1.00 48.11 LIG 0.24  C 
ATOM     11 O    PHE E  45      22.741 -11.657  15.505  1.00 49.85 LIG-0.27  OA
ATOM     12  N   GLY E  46      24.577 -10.430  15.903  1.00 50.71 LIG-0.35  N 
ATOM     13 H    GLY E  46      25.010  -9.813  16.317  1.00 50.71 LIG 0.16  HD
BRANCH 12 14
ATOM     14  CA  GLY E  46      25.325 -11.144  14.887  1.00 54.23 LIG 0.21  C 
BRANCH 14 15
ATOM     15  C   GLY E  46      24.921 -10.753  13.483  1.00 55.55 LIG 0.21  C 
ATOM     16 O    GLY E  46      24.710  -9.545  13.261  1.00 59.11 LIG-0.29  OA
ENDBRANCH 14 15
ENDBRANCH 12 14
ENDBRANCH 9 10
BRANCH 9 17
ATOM     17  CB  PHE E  45      21.365  -9.251  16.591  1.00 43.03 LIG 0.07  C 
BRANCH 17 18
ATOM     18  CG  PHE E  45      20.299  -8.898  17.596  1.00 41.93 LIG-0.06  A 
ATOM     19  CD2 PHE E  45      20.582  -8.876  18.961  1.00 42.38 LIG 0.01  A 
ATOM     20  CE2 PHE E  45      19.600  -8.521  19.891  1.00 42.73 LIG 0.00  A 
ATOM     21  CZ  PHE E  45      18.322  -8.183  19.455  1.00 42.74 LIG 0.00  A 
ATOM     22  CE1 PHE E  45      18.028  -8.199  18.095  1.00 41.89 LIG 0.00  A 
ATOM     23  CD1 PHE E  45      19.016  -8.556  17.174  1.00 42.01 LIG 0.01  A 
ENDBRANCH 17 18
ENDBRANCH 9 17
ENDBRANCH 6 9
ENDBRANCH 1 5
BRANCH 1 24
ATOM     24  N   SER E  44      25.319  -8.242  20.851  1.00 46.50 LIG-0.34  N 
ATOM     25  C   PHE E  43      25.690  -7.165  21.509  1.00 47.40 LIG 0.24  C 
ATOM     26 O    PHE E  43      25.752  -6.064  20.969  1.00 45.80 LIG-0.27  OA
ATOM     27 H    SER E  44      25.280  -9.038  21.172  1.00 46.50 LIG 0.16  HD
BRANCH 25 28
ATOM     28  CA  PHE E  43      26.088  -7.348  22.957  1.00 47.87 LIG 0.18  C 
BRANCH 28 29
ATOM     29  N   PHE E  43      26.765  -6.096  23.134  1.00 51.92 LIG-0.35  N 
ATOM     30  C   GLY E  42      28.051  -5.857  22.954  1.00 55.92 LIG 0.24  C 
ATOM     31 O    GLY E  42      28.905  -6.685  22.608  1.00 57.26 LIG-0.27  OA
ATOM     32 H    PHE E  43      26.227  -5.473  23.384  1.00 51.92 LIG 0.16  HD
BRANCH 30 33
ATOM     33  CA  GLY E  42      28.378  -4.408  23.218  1.00 58.33 LIG 0.33  C 
BRANCH 33 34
ATOM     34  N   GLY E  42      29.780  -4.114  23.317  1.00 60.94 LIG-0.07  N 
ATOM     35 H3   GLY E  42      30.012  -4.055  24.174  1.00 60.94 LIG 0.27  HD
ATOM     36 H1   GLY E  42      30.248  -4.763  22.926  1.00 60.94 LIG 0.27  HD
ATOM     37 H2   GLY E  42      29.950  -3.340  22.910  1.00 60.94 LIG 0.27  HD
ENDBRANCH 33 34
ENDBRANCH 30 33
ENDBRANCH 28 29
BRANCH 28 38
ATOM     38  CB  PHE E  43      24.824  -7.430  23.808  1.00 42.32 LIG 0.07  C 
BRANCH 38 39
ATOM     39  CG  PHE E  43      24.996  -7.044  25.265  1.00 35.12 LIG-0.06  A 
ATOM     40  CD1 PHE E  43      26.192  -7.355  25.893  1.00 34.02 LIG 0.01  A 
ATOM     41  CE1 PHE E  43      26.441  -7.005  27.223  1.00 29.46 LIG 0.00  A 
ATOM     42  CZ  PHE E  43      25.476  -6.324  27.956  1.00 28.92 LIG 0.00  A 
ATOM     43  CE2 PHE E  43      24.258  -5.992  27.348  1.00 30.40 LIG 0.00  A 
ATOM     44  CD2 PHE E  43      24.016  -6.357  25.995  1.00 32.72 LIG 0.01  A 
ENDBRANCH 38 39
ENDBRANCH 28 38
ENDBRANCH 25 28
ENDBRANCH 1 24
TORSDOF 16
ENDMDL
MODEL 70
USER: ADFR SOLUTION from run 19
USER: SCORE 13.755606 LL:  -3.224 LR: -11.499 RR:   0.000 FEB:  -6.727
USER: RMSD 10.510702
USER: SEED 18
USER: STATUS searching
USER: GENES 18
USER: genes 0 Translation |==|  0.34375 0.35082 0.29781
USER: genes 1 Rotation |==|  0.53832 0.07237 0.33424 0.69542
USER: genes 2 Torsion [C]-CA--CB-[OG] |==|  0.29274
USER: genes 3 Torsion [CA]-CB--OG-[HG] |==|  0.81900
USER: genes 4 Torsion [N]-CA--C-[N] |==|  0.47451
USER: genes 5 Torsion [C]-N--CA-[C] |==|  0.72598
USER: genes 6 Torsion [N]-CA--C-[N] |==|  0.39705
USER: genes 7 Torsion [C]-N--CA-[C] |==|  0.67726
USER: genes 8 Torsion [N]-CA--C-[O] |==|  0.03894
USER: genes 9 Torsion [N]-CA--CB-[CG] |==|  0.49329
USER: genes 10 Torsion [CA]-CB--CG-[CD1] |==|  0.11129
USER: genes 11 Torsion [CB]-CA--N-[C] |==|  0.50000
USER: genes 12 Torsion [N]-C--CA-[N] |==|  0.36864
USER: genes 13 Torsion [C]-CA--N-[C] |==|  0.56669
USER: genes 14 Torsion [N]-C--CA-[N] |==|  0.93711
USER: genes 15 Torsion [C]-CA--N-[H2] |==|  0.26615
USER: genes 16 Torsion [C]-CA--CB-[CG] |==|  0.73547
USER: genes 17 Torsion [CA]-CB--CG-[CD1] |==|  0.24514
ROOT
ATOM      1  CA  SER E  44      21.522 -11.905  12.404  1.00 44.79 LIG 0.20  C 
ENDROOT
BRANCH 1 2
ATOM      2  CB  SER E  44      21.016 -13.336  12.576  1.00 46.10 LIG 0.20  C 
BRANCH 2 3
ATOM      3 OG   SER E  44      19.619 -13.389  12.374  1.00 47.85 LIG-0.40  OA
ATOM      4 HG   SER E  44      19.232 -12.951  12.977  1.00 47.85 LIG 0.21  HD
ENDBRANCH 2 3
ENDBRANCH 1 2
BRANCH 1 5
ATOM      5  C   SER E  44      21.843 -11.309  13.757  1.00 42.78 LIG 0.24  C 
ATOM      6  N   PHE E  45      20.799 -11.130  14.552  1.00 43.36 LIG-0.35  N 
ATOM      7 H    PHE E  45      19.988 -11.318  14.333  1.00 43.36 LIG 0.16  HD
ATOM      8 O    SER E  44      22.992 -10.992  14.066  1.00 37.54 LIG-0.27  OA
BRANCH 6 9
ATOM      9  CA  PHE E  45      20.951 -10.589  15.892  1.00 46.68 LIG 0.18  C 
BRANCH 9 10
ATOM     10  C   PHE E  45      20.953 -11.747  16.879  1.00 48.11 LIG 0.24  C 
ATOM     11 O    PHE E  45      20.227 -12.727  16.699  1.00 49.85 LIG-0.27  OA
ATOM     12  N   GLY E  46      21.766 -11.646  17.923  1.00 50.71 LIG-0.35  N 
ATOM     13 H    GLY E  46      22.284 -10.980  18.084  1.00 50.71 LIG 0.16  HD
BRANCH 12 14
ATOM     14  CA  GLY E  46      21.814 -12.725  18.890  1.00 54.23 LIG 0.21  C 
BRANCH 14 15
ATOM     15  C   GLY E  46      21.342 -12.299  20.262  1.00 55.55 LIG 0.21  C 
ATOM     16 O    GLY E  46      20.733 -11.215  20.350  1.00 59.11 LIG-0.29  OA
ENDBRANCH 14 15
ENDBRANCH 12 14
ENDBRANCH 9 10
BRANCH 9 17
ATOM     17  CB  PHE E  45      19.811  -9.618  16.216  1.00 43.03 LIG 0.07  C 
BRANCH 17 18
ATOM     18  CG  PHE E  45      19.868  -9.057  17.614  1.00 41.93 LIG-0.06  A 
ATOM     19  CD2 PHE E  45      18.710  -8.923  18.379  1.00 42.38 LIG 0.01  A 
ATOM     20  CE2 PHE E  45      18.768  -8.430  19.685  1.00 42.73 LIG 0.00  A 
ATOM     21  CZ  PHE E  45      19.993  -8.066  20.236  1.00 42.74 LIG 0.00  A 
ATOM     22  CE1 PHE E  45      21.156  -8.197  19.483  1.00 41.89 LIG 0.00  A 
ATOM     23  CD1 PHE E  45      21.088  -8.691  18.178  1.00 42.01 LIG 0.01  A 
ENDBRANCH 17 18
ENDBRANCH 9 17
ENDBRANCH 6 9
ENDBRANCH 1 5
BRANCH 1 24
ATOM     24  N   SER E  44      22.656 -11.882  11.505  1.00 46.50 LIG-0.34  N 
ATOM     25  C   PHE E  43      23.218 -10.722  11.245  1.00 47.40 LIG 0.24  C 
ATOM     26 O    PHE E  43      22.786  -9.673  11.714  1.00 45.80 LIG-0.27  OA
ATOM     27 H    SER E  44      22.902 -12.642  11.186  1.00 46.50 LIG 0.16  HD
BRANCH 25 28
ATOM     28  CA  PHE E  43      24.397 -10.726  10.297  1.00 47.87 LIG 0.18  C 
BRANCH 28 29
ATOM     29  N   PHE E  43      23.981  -9.637   9.461  1.00 51.92 LIG-0.35  N 
ATOM     30  C   GLY E  42      24.340  -9.414   8.211  1.00 55.92 LIG 0.24  C 
ATOM     31 O    GLY E  42      25.117 -10.109   7.541  1.00 57.26 LIG-0.27  OA
ATOM     32 H    PHE E  43      23.441  -9.107   9.871  1.00 51.92 LIG 0.16  HD
BRANCH 30 33
ATOM     33  CA  GLY E  42      23.671  -8.178   7.663  1.00 58.33 LIG 0.33  C 
BRANCH 33 34
ATOM     34  N   GLY E  42      22.461  -7.798   8.336  1.00 60.94 LIG-0.07  N 
ATOM     35 H3   GLY E  42      21.884  -7.466   7.745  1.00 60.94 LIG 0.27  HD
ATOM     36 H1   GLY E  42      22.104  -8.512   8.731  1.00 60.94 LIG 0.27  HD
ATOM     37 H2   GLY E  42      22.644  -7.181   8.950  1.00 60.94 LIG 0.27  HD
ENDBRANCH 33 34
ENDBRANCH 30 33
ENDBRANCH 28 29
BRANCH 28 38
ATOM     38  CB  PHE E  43      25.660 -10.384  11.082  1.00 42.32 LIG 0.07  C 
BRANCH 38 39
ATOM     39  CG  PHE E  43      26.065  -8.921  11.055  1.00 35.12 LIG-0.06  A 
ATOM     40  CD1 PHE E  43      25.538  -8.074  12.018  1.00 34.02 LIG 0.01  A 
ATOM     41  CE1 PHE E  43      25.885  -6.722  12.082  1.00 29.46 LIG 0.00  A 
ATOM     42  CZ  PHE E  43      26.784  -6.190  11.166  1.00 28.92 LIG 0.00  A 
ATOM     43  CE2 PHE E  43      27.337  -7.021  10.183  1.00 30.40 LIG 0.00  A 
ATOM     44  CD2 PHE E  43      26.973  -8.395  10.127  1.00 32.72 LIG 0.01  A 
ENDBRANCH 38 39
ENDBRANCH 28 38
ENDBRANCH 25 28
ENDBRANCH 1 24
TORSDOF 16
ENDMDL
MODEL 71
USER: ADFR SOLUTION from run 122
USER: SCORE 13.250433 LL:  -2.757 LR: -11.491 RR:   0.000 FEB:  -6.718
USER: RMSD 4.896469
USER: SEED 121
USER: STATUS no improvement in best 13 clusters for 5 generations
USER: GENES 18
USER: genes 0 Translation |==|  0.47463 0.48087 0.62124
USER: genes 1 Rotation |==|  0.58589 0.41942 0.47109 0.98507
USER: genes 2 Torsion [C]-CA--CB-[OG] |==|  0.54491
USER: genes 3 Torsion [CA]-CB--OG-[HG] |==|  0.50167
USER: genes 4 Torsion [N]-CA--C-[N] |==|  0.42778
USER: genes 5 Torsion [C]-N--CA-[C] |==|  0.76042
USER: genes 6 Torsion [N]-CA--C-[N] |==|  0.46238
USER: genes 7 Torsion [C]-N--CA-[C] |==|  0.69352
USER: genes 8 Torsion [N]-CA--C-[O] |==|  0.07182
USER: genes 9 Torsion [N]-CA--CB-[CG] |==|  0.88459
USER: genes 10 Torsion [CA]-CB--CG-[CD1] |==|  0.74457
USER: genes 11 Torsion [CB]-CA--N-[C] |==|  0.84503
USER: genes 12 Torsion [N]-C--CA-[N] |==|  0.63936
USER: genes 13 Torsion [C]-CA--N-[C] |==|  0.18843
USER: genes 14 Torsion [N]-C--CA-[N] |==|  0.14461
USER: genes 15 Torsion [C]-CA--N-[H2] |==|  0.30016
USER: genes 16 Torsion [C]-CA--CB-[CG] |==|  0.48570
USER: genes 17 Torsion [CA]-CB--CG-[CD1] |==|  0.14038
ROOT
ATOM      1  CA  SER E  44      25.449  -8.004  22.107  1.00 44.79 LIG 0.20  C 
ENDROOT
BRANCH 1 2
ATOM      2  CB  SER E  44      26.487  -9.021  21.637  1.00 46.10 LIG 0.20  C 
BRANCH 2 3
ATOM      3 OG   SER E  44      25.851 -10.206  21.206  1.00 47.85 LIG-0.40  OA
ATOM      4 HG   SER E  44      26.430 -10.761  20.957  1.00 47.85 LIG 0.21  HD
ENDBRANCH 2 3
ENDBRANCH 1 2
BRANCH 1 5
ATOM      5  C   SER E  44      26.077  -6.630  22.187  1.00 42.78 LIG 0.24  C 
ATOM      6  N   PHE E  45      26.748  -6.384  23.302  1.00 43.36 LIG-0.35  N 
ATOM      7 H    PHE E  45      26.823  -6.943  23.952  1.00 43.36 LIG 0.16  HD
ATOM      8 O    SER E  44      25.937  -5.804  21.284  1.00 37.54 LIG-0.27  OA
BRANCH 6 9
ATOM      9  CA  PHE E  45      27.427  -5.117  23.514  1.00 46.68 LIG 0.18  C 
BRANCH 9 10
ATOM     10  C   PHE E  45      28.816  -5.209  22.899  1.00 48.11 LIG 0.24  C 
ATOM     11 O    PHE E  45      29.282  -6.298  22.562  1.00 49.85 LIG-0.27  OA
ATOM     12  N   GLY E  46      29.481  -4.071  22.747  1.00 50.71 LIG-0.35  N 
ATOM     13 H    GLY E  46      29.191  -3.293  22.971  1.00 50.71 LIG 0.16  HD
BRANCH 12 14
ATOM     14  CA  GLY E  46      30.806  -4.099  22.158  1.00 54.23 LIG 0.21  C 
BRANCH 14 15
ATOM     15  C   GLY E  46      31.894  -3.777  23.157  1.00 55.55 LIG 0.21  C 
ATOM     16 O    GLY E  46      31.661  -4.013  24.358  1.00 59.11 LIG-0.29  OA
ENDBRANCH 14 15
ENDBRANCH 12 14
ENDBRANCH 9 10
BRANCH 9 17
ATOM     17  CB  PHE E  45      27.529  -4.802  25.010  1.00 43.03 LIG 0.07  C 
BRANCH 17 18
ATOM     18  CG  PHE E  45      26.277  -5.123  25.786  1.00 41.93 LIG-0.06  A 
ATOM     19  CD2 PHE E  45      26.088  -6.385  26.349  1.00 42.38 LIG 0.01  A 
ATOM     20  CE2 PHE E  45      24.940  -6.673  27.093  1.00 42.73 LIG 0.00  A 
ATOM     21  CZ  PHE E  45      23.969  -5.694  27.276  1.00 42.74 LIG 0.00  A 
ATOM     22  CE1 PHE E  45      24.146  -4.430  26.720  1.00 41.89 LIG 0.00  A 
ATOM     23  CD1 PHE E  45      25.297  -4.152  25.979  1.00 42.01 LIG 0.01  A 
ENDBRANCH 17 18
ENDBRANCH 9 17
ENDBRANCH 6 9
ENDBRANCH 1 5
BRANCH 1 24
ATOM     24  N   SER E  44      24.291  -8.035  21.239  1.00 46.50 LIG-0.34  N 
ATOM     25  C   PHE E  43      24.477  -7.849  19.950  1.00 47.40 LIG 0.24  C 
ATOM     26 O    PHE E  43      25.588  -7.618  19.482  1.00 45.80 LIG-0.27  OA
ATOM     27 H    SER E  44      23.535  -8.177  21.622  1.00 46.50 LIG 0.16  HD
BRANCH 25 28
ATOM     28  CA  PHE E  43      23.249  -7.880  19.067  1.00 47.87 LIG 0.18  C 
BRANCH 28 29
ATOM     29  N   PHE E  43      23.737  -8.805  18.085  1.00 51.92 LIG-0.35  N 
ATOM     30  C   GLY E  42      23.994 -10.088  18.262  1.00 55.92 LIG 0.24  C 
ATOM     31 O    GLY E  42      23.869 -10.718  19.321  1.00 57.26 LIG-0.27  OA
ATOM     32 H    PHE E  43      23.855  -8.428  17.321  1.00 51.92 LIG 0.16  HD
BRANCH 30 33
ATOM     33  CA  GLY E  42      24.470 -10.729  16.982  1.00 58.33 LIG 0.33  C 
BRANCH 33 34
ATOM     34  N   GLY E  42      25.561 -10.055  16.337  1.00 60.94 LIG-0.07  N 
ATOM     35 H3   GLY E  42      25.378  -9.954  15.472  1.00 60.94 LIG 0.27  HD
ATOM     36 H1   GLY E  42      25.678  -9.255  16.711  1.00 60.94 LIG 0.27  HD
ATOM     37 H2   GLY E  42      26.303 -10.537  16.429  1.00 60.94 LIG 0.27  HD
ENDBRANCH 33 34
ENDBRANCH 30 33
ENDBRANCH 28 29
BRANCH 28 38
ATOM     38  CB  PHE E  43      22.086  -8.465  19.863  1.00 42.32 LIG 0.07  C 
BRANCH 38 39
ATOM     39  CG  PHE E  43      20.744  -8.453  19.156  1.00 35.12 LIG-0.06  A 
ATOM     40  CD1 PHE E  43      20.671  -8.967  17.871  1.00 34.02 LIG 0.01  A 
ATOM     41  CE1 PHE E  43      19.467  -9.022  17.164  1.00 29.46 LIG 0.00  A 
ATOM     42  CZ  PHE E  43      18.295  -8.555  17.748  1.00 28.92 LIG 0.00  A 
ATOM     43  CE2 PHE E  43      18.335  -8.033  19.047  1.00 30.40 LIG 0.00  A 
ATOM     44  CD2 PHE E  43      19.568  -7.980  19.754  1.00 32.72 LIG 0.01  A 
ENDBRANCH 38 39
ENDBRANCH 28 38
ENDBRANCH 25 28
ENDBRANCH 1 24
TORSDOF 16
ENDMDL
MODEL 72
USER: ADFR SOLUTION from run 156
USER: SCORE 14.163783 LL:  -3.057 LR: -11.493 RR:   0.000 FEB:  -6.720
USER: RMSD 6.584476
USER: SEED 155
USER: STATUS searching
USER: GENES 18
USER: genes 0 Translation |==|  0.48741 0.48722 0.55382
USER: genes 1 Rotation |==|  0.85807 0.67627 0.75707 0.65695
USER: genes 2 Torsion [C]-CA--CB-[OG] |==|  0.51602
USER: genes 3 Torsion [CA]-CB--OG-[HG] |==|  0.09211
USER: genes 4 Torsion [N]-CA--C-[N] |==|  0.38870
USER: genes 5 Torsion [C]-N--CA-[C] |==|  0.82222
USER: genes 6 Torsion [N]-CA--C-[N] |==|  0.43741
USER: genes 7 Torsion [C]-N--CA-[C] |==|  0.56289
USER: genes 8 Torsion [N]-CA--C-[O] |==|  0.07704
USER: genes 9 Torsion [N]-CA--CB-[CG] |==|  0.28759
USER: genes 10 Torsion [CA]-CB--CG-[CD1] |==|  0.28314
USER: genes 11 Torsion [CB]-CA--N-[C] |==|  0.84249
USER: genes 12 Torsion [N]-C--CA-[N] |==|  0.33302
USER: genes 13 Torsion [C]-CA--N-[C] |==|  0.60084
USER: genes 14 Torsion [N]-C--CA-[N] |==|  0.51152
USER: genes 15 Torsion [C]-CA--N-[H2] |==|  0.95251
USER: genes 16 Torsion [C]-CA--CB-[CG] |==|  0.73552
USER: genes 17 Torsion [CA]-CB--CG-[CD1] |==|  0.64583
ROOT
ATOM      1  CA  SER E  44      25.832  -7.813  20.085  1.00 44.79 LIG 0.20  C 
ENDROOT
BRANCH 1 2
ATOM      2  CB  SER E  44      25.440  -6.353  19.868  1.00 46.10 LIG 0.20  C 
BRANCH 2 3
ATOM      3 OG   SER E  44      25.511  -6.025  18.496  1.00 47.85 LIG-0.40  OA
ATOM      4 HG   SER E  44      25.305  -6.697  18.036  1.00 47.85 LIG 0.21  HD
ENDBRANCH 2 3
ENDBRANCH 1 2
BRANCH 1 5
ATOM      5  C   SER E  44      25.617  -8.193  21.533  1.00 42.78 LIG 0.24  C 
ATOM      6  N   PHE E  45      26.699  -8.132  22.295  1.00 43.36 LIG-0.35  N 
ATOM      7 H    PHE E  45      27.479  -7.910  22.007  1.00 43.36 LIG 0.16  HD
ATOM      8 O    SER E  44      24.516  -8.558  21.947  1.00 37.54 LIG-0.27  OA
BRANCH 6 9
ATOM      9  CA  PHE E  45      26.645  -8.444  23.713  1.00 46.68 LIG 0.18  C 
BRANCH 9 10
ATOM     10  C   PHE E  45      25.750  -7.418  24.395  1.00 48.11 LIG 0.24  C 
ATOM     11 O    PHE E  45      25.549  -6.318  23.878  1.00 49.85 LIG-0.27  OA
ATOM     12  N   GLY E  46      25.208  -7.771  25.554  1.00 50.71 LIG-0.35  N 
ATOM     13 H    GLY E  46      25.326  -8.526  25.947  1.00 50.71 LIG 0.16  HD
BRANCH 12 14
ATOM     14  CA  GLY E  46      24.340  -6.836  26.243  1.00 54.23 LIG 0.21  C 
BRANCH 14 15
ATOM     15  C   GLY E  46      24.244  -7.115  27.726  1.00 55.55 LIG 0.21  C 
ATOM     16 O    GLY E  46      25.217  -7.670  28.271  1.00 59.11 LIG-0.29  OA
ENDBRANCH 14 15
ENDBRANCH 12 14
ENDBRANCH 9 10
BRANCH 9 17
ATOM     17  CB  PHE E  45      28.049  -8.414  24.327  1.00 43.03 LIG 0.07  C 
BRANCH 17 18
ATOM     18  CG  PHE E  45      28.332  -7.176  25.139  1.00 41.93 LIG-0.06  A 
ATOM     19  CD2 PHE E  45      28.617  -5.962  24.516  1.00 42.38 LIG 0.01  A 
ATOM     20  CE2 PHE E  45      28.851  -4.808  25.269  1.00 42.73 LIG 0.00  A 
ATOM     21  CZ  PHE E  45      28.801  -4.865  26.658  1.00 42.74 LIG 0.00  A 
ATOM     22  CE1 PHE E  45      28.516  -6.071  27.292  1.00 41.89 LIG 0.00  A 
ATOM     23  CD1 PHE E  45      28.283  -7.218  26.530  1.00 42.01 LIG 0.01  A 
ENDBRANCH 17 18
ENDBRANCH 9 17
ENDBRANCH 6 9
ENDBRANCH 1 5
BRANCH 1 24
ATOM     24  N   SER E  44      25.100  -8.667  19.173  1.00 46.50 LIG-0.34  N 
ATOM     25  C   PHE E  43      23.786  -8.614  19.194  1.00 47.40 LIG 0.24  C 
ATOM     26 O    PHE E  43      23.179  -7.895  19.983  1.00 45.80 LIG-0.27  OA
ATOM     27 H    SER E  44      25.575  -9.167  18.660  1.00 46.50 LIG 0.16  HD
BRANCH 25 28
ATOM     28  CA  PHE E  43      23.046  -9.521  18.236  1.00 47.87 LIG 0.18  C 
BRANCH 28 29
ATOM     29  N   PHE E  43      22.311 -10.277  19.208  1.00 51.92 LIG-0.35  N 
ATOM     30  C   GLY E  42      22.012 -11.562  19.153  1.00 55.92 LIG 0.24  C 
ATOM     31 O    GLY E  42      22.308 -12.341  18.237  1.00 57.26 LIG-0.27  OA
ATOM     32 H    PHE E  43      22.066  -9.790  19.874  1.00 51.92 LIG 0.16  HD
BRANCH 30 33
ATOM     33  CA  GLY E  42      21.247 -11.996  20.379  1.00 58.33 LIG 0.33  C 
BRANCH 33 34
ATOM     34  N   GLY E  42      20.961 -13.401  20.446  1.00 60.94 LIG-0.07  N 
ATOM     35 H3   GLY E  42      21.519 -13.790  21.020  1.00 60.94 LIG 0.27  HD
ATOM     36 H1   GLY E  42      20.122 -13.520  20.721  1.00 60.94 LIG 0.27  HD
ATOM     37 H2   GLY E  42      21.064 -13.764  19.640  1.00 60.94 LIG 0.27  HD
ENDBRANCH 33 34
ENDBRANCH 30 33
ENDBRANCH 28 29
BRANCH 28 38
ATOM     38  CB  PHE E  43      22.123  -8.670  17.368  1.00 42.32 LIG 0.07  C 
BRANCH 38 39
ATOM     39  CG  PHE E  43      20.690  -8.562  17.855  1.00 35.12 LIG-0.06  A 
ATOM     40  CD1 PHE E  43      19.668  -8.865  16.969  1.00 34.02 LIG 0.01  A 
ATOM     41  CE1 PHE E  43      18.324  -8.822  17.349  1.00 29.46 LIG 0.00  A 
ATOM     42  CZ  PHE E  43      17.978  -8.468  18.648  1.00 28.92 LIG 0.00  A 
ATOM     43  CE2 PHE E  43      18.989  -8.160  19.569  1.00 30.40 LIG 0.00  A 
ATOM     44  CD2 PHE E  43      20.353  -8.205  19.168  1.00 32.72 LIG 0.01  A 
ENDBRANCH 38 39
ENDBRANCH 28 38
ENDBRANCH 25 28
ENDBRANCH 1 24
TORSDOF 16
ENDMDL
