MODEL 1
USER: ADFR SOLUTION from run 151
USER: SCORE 13.158306 LL:  -2.153 LR: -11.006 RR:   0.000 FEB:  -7.724
USER: RMSD 14.086858
USER: SEED 150
USER: STATUS no improvement in best 11 clusters for 5 generations
USER: GENES 13
USER: genes 0 Translation |==|  0.79450 0.15748 0.42426
USER: genes 1 Rotation |==|  0.28810 0.47068 0.16551 0.80391
USER: genes 2 Torsion [N]-CA--C-[O] |==|  0.19705
USER: genes 3 Torsion [C]-N--CA-[C] |==|  0.64927
USER: genes 4 Torsion [N]-CA--C-[OXT] |==|  0.85898
USER: genes 5 Torsion [N]-CA--CB-[CG] |==|  0.79961
USER: genes 6 Torsion [CA]-CB--CG-[CD2] |==|  0.43095
USER: genes 7 Torsion [CE2]-CZ--OH-[HH] |==|  0.60203
USER: genes 8 Torsion [N]-C--CA-[N] |==|  0.45123
USER: genes 9 Torsion [C]-CA--CB-[CG] |==|  0.73128
USER: genes 10 Torsion [CA]-CB--CG-[CD1] |==|  0.68171
USER: genes 11 Torsion [CE1]-CZ--OH-[HH] |==|  0.23475
USER: genes 12 Torsion [C]-CA--N-[H2] |==|  0.58479
ROOT
ATOM      1  C   TYR B3001      22.895  23.234  25.698  0.70 44.28 LIG 0.25  C 
ATOM      2 O    TYR B3001      22.362  23.739  24.708  0.70 44.11 LIG-0.27  OA
ATOM      3  N   PRO B3002      22.917  23.846  26.903  0.70 46.07 LIG-0.34  N 
ATOM      4  CA  PRO B3002      22.311  25.127  27.296  0.70 46.91 LIG 0.18  C 
ATOM      5  CB  PRO B3002      22.805  25.314  28.731  0.70 46.92 LIG 0.04  C 
ATOM      6  CG  PRO B3002      24.134  24.672  28.700  0.70 47.16 LIG 0.02  C 
ATOM      7  CD  PRO B3002      23.828  23.386  27.967  0.70 47.04 LIG 0.13  C 
ENDROOT
BRANCH 4 8
ATOM      8  C   PRO B3002      22.564  26.380  26.472  0.70 47.26 LIG 0.24  C 
ATOM      9  N   TYR B3003      23.404  27.254  27.029  0.70 47.47 LIG-0.34  N 
ATOM     10 H    TYR B3003      23.748  27.133  27.807  0.70 47.47 LIG 0.16  HD
ATOM     11 O    PRO B3002      22.059  26.507  25.345  0.70 46.37 LIG-0.27  OA
BRANCH 9 12
ATOM     12  CA  TYR B3003      23.834  28.499  26.398  0.70 47.51 LIG 0.19  C 
BRANCH 12 13
ATOM     13  C   TYR B3003      25.342  28.678  26.315  0.70 47.80 LIG 0.20  C 
ATOM     14 OXT  TYR B3003      26.003  28.516  27.361  0.70 46.55 LIG-0.65  OA
ATOM     15 O    TYR B3003      25.847  29.010  25.221  0.70 50.35 LIG-0.65  OA
ENDBRANCH 12 13
BRANCH 12 16
ATOM     16  CB  TYR B3003      23.187  29.692  27.112  0.70 48.13 LIG 0.07  C 
BRANCH 16 17
ATOM     17  CG  TYR B3003      21.707  29.857  26.852  0.70 49.00 LIG-0.06  A 
ATOM     18  CD2 TYR B3003      20.882  30.521  27.768  0.70 49.34 LIG 0.01  A 
ATOM     19  CE2 TYR B3003      19.515  30.666  27.528  0.70 49.34 LIG 0.04  A 
ATOM     20  CZ  TYR B3003      18.967  30.148  26.359  0.70 49.55 LIG 0.07  A 
ATOM     21  CE1 TYR B3003      19.764  29.488  25.440  0.70 48.63 LIG 0.04  A 
ATOM     22  CD1 TYR B3003      21.126  29.347  25.689  0.70 49.33 LIG 0.01  A 
BRANCH 20 23
ATOM     23 OH   TYR B3003      17.621  30.309  26.095  0.70 50.92 LIG-0.36  OA
ATOM     24 HH   TYR B3003      17.325  29.618  25.719  0.70 50.92 LIG 0.22  HD
ENDBRANCH 20 23
ENDBRANCH 16 17
ENDBRANCH 12 16
ENDBRANCH 9 12
ENDBRANCH 4 8
BRANCH 1 25
ATOM     25  CA  TYR B3001      23.607  21.884  25.603  0.70 43.08 LIG 0.28  C 
BRANCH 25 26
ATOM     26  CB  TYR B3001      25.133  22.063  25.472  0.70 40.59 LIG 0.08  C 
BRANCH 26 27
ATOM     27  CG  TYR B3001      25.637  22.005  24.037  0.70 39.24 LIG-0.06  A 
ATOM     28  CD1 TYR B3001      26.475  20.971  23.610  0.70 40.30 LIG 0.01  A 
ATOM     29  CE1 TYR B3001      27.009  20.952  22.301  0.70 38.36 LIG 0.04  A 
ATOM     30  CZ  TYR B3001      26.694  21.977  21.412  0.70 37.05 LIG 0.07  A 
ATOM     31  CE2 TYR B3001      25.853  23.008  21.815  0.70 37.49 LIG 0.04  A 
ATOM     32  CD2 TYR B3001      25.330  23.016  23.121  0.70 38.19 LIG 0.01  A 
BRANCH 30 33
ATOM     33 OH   TYR B3001      27.231  21.988  20.140  0.70 32.30 LIG-0.36  OA
ATOM     34 HH   TYR B3001      26.763  21.509  19.634  0.70 32.30 LIG 0.22  HD
ENDBRANCH 30 33
ENDBRANCH 26 27
ENDBRANCH 25 26
BRANCH 25 35
ATOM     35  N   TYR B3001      23.060  21.269  24.357  0.70 42.81 LIG-0.07  N 
ATOM     36 H3   TYR B3001      22.231  21.561  24.220  0.70 42.81 LIG 0.28  HD
ATOM     37 H2   TYR B3001      23.053  20.383  24.441  0.70 42.81 LIG 0.28  HD
ATOM     38 H1   TYR B3001      23.571  21.496  23.664  0.70 42.81 LIG 0.28  HD
ENDBRANCH 25 35
ENDBRANCH 1 25
TORSDOF 11
ENDMDL
MODEL 2
USER: ADFR SOLUTION from run 70
USER: SCORE 13.043592 LL:  -2.385 LR: -10.658 RR:   0.000 FEB:  -7.377
USER: RMSD 12.716615
USER: SEED 69
USER: STATUS no improvement in best 22 clusters for 5 generations
USER: GENES 13
USER: genes 0 Translation |==|  0.40741 0.16026 0.54463
USER: genes 1 Rotation |==|  0.03620 0.47864 0.52652 0.68365
USER: genes 2 Torsion [N]-CA--C-[O] |==|  0.13474
USER: genes 3 Torsion [C]-N--CA-[C] |==|  0.43293
USER: genes 4 Torsion [N]-CA--C-[OXT] |==|  0.05663
USER: genes 5 Torsion [N]-CA--CB-[CG] |==|  0.72258
USER: genes 6 Torsion [CA]-CB--CG-[CD2] |==|  0.52724
USER: genes 7 Torsion [CE2]-CZ--OH-[HH] |==|  0.68110
USER: genes 8 Torsion [N]-C--CA-[N] |==|  0.34659
USER: genes 9 Torsion [C]-CA--CB-[CG] |==|  0.86550
USER: genes 10 Torsion [CA]-CB--CG-[CD1] |==|  0.75927
USER: genes 11 Torsion [CE1]-CZ--OH-[HH] |==|  0.55983
USER: genes 12 Torsion [C]-CA--N-[H2] |==|  0.65485
ROOT
ATOM      1  C   TYR B3001      11.282  23.318  29.309  0.70 44.28 LIG 0.25  C 
ATOM      2 O    TYR B3001      10.294  22.904  29.916  0.70 44.11 LIG-0.27  OA
ATOM      3  N   PRO B3002      11.409  24.606  28.919  0.70 46.07 LIG-0.34  N 
ATOM      4  CA  PRO B3002      10.497  25.734  29.157  0.70 46.91 LIG 0.18  C 
ATOM      5  CB  PRO B3002      11.136  26.868  28.355  0.70 46.92 LIG 0.04  C 
ATOM      6  CG  PRO B3002      11.752  26.152  27.220  0.70 47.16 LIG 0.02  C 
ATOM      7  CD  PRO B3002      12.426  24.997  27.924  0.70 47.04 LIG 0.13  C 
ENDROOT
BRANCH 4 8
ATOM      8  C   PRO B3002       9.018  25.608  28.826  0.70 47.26 LIG 0.24  C 
ATOM      9  N   TYR B3003       8.533  26.586  28.059  0.70 47.47 LIG-0.34  N 
ATOM     10 H    TYR B3003       9.012  27.252  27.801  0.70 47.47 LIG 0.16  HD
ATOM     11 O    PRO B3002       8.368  24.621  29.204  0.70 46.37 LIG-0.27  OA
BRANCH 9 12
ATOM     12  CA  TYR B3003       7.157  26.645  27.573  0.70 47.51 LIG 0.19  C 
BRANCH 12 13
ATOM     13  C   TYR B3003       6.666  28.044  27.234  0.70 47.80 LIG 0.20  C 
ATOM     14 OXT  TYR B3003       7.525  28.923  27.017  0.70 46.55 LIG-0.65  OA
ATOM     15 O    TYR B3003       5.435  28.260  27.220  0.70 50.35 LIG-0.65  OA
ENDBRANCH 12 13
BRANCH 12 16
ATOM     16  CB  TYR B3003       6.220  25.974  28.583  0.70 48.13 LIG 0.07  C 
BRANCH 16 17
ATOM     17  CG  TYR B3003       5.821  24.559  28.232  0.70 49.00 LIG-0.06  A 
ATOM     18  CD2 TYR B3003       4.817  23.893  28.946  0.70 49.34 LIG 0.01  A 
ATOM     19  CE2 TYR B3003       4.456  22.585  28.624  0.70 49.34 LIG 0.04  A 
ATOM     20  CZ  TYR B3003       5.100  21.935  27.575  0.70 49.55 LIG 0.07  A 
ATOM     21  CE1 TYR B3003       6.095  22.574  26.857  0.70 48.63 LIG 0.04  A 
ATOM     22  CD1 TYR B3003       6.450  23.879  27.188  0.70 49.33 LIG 0.01  A 
BRANCH 20 23
ATOM     23 OH   TYR B3003       4.733  20.651  27.227  0.70 50.92 LIG-0.36  OA
ATOM     24 HH   TYR B3003       5.372  20.126  27.376  0.70 50.92 LIG 0.22  HD
ENDBRANCH 20 23
ENDBRANCH 16 17
ENDBRANCH 12 16
ENDBRANCH 9 12
ENDBRANCH 4 8
BRANCH 1 25
ATOM     25  CA  TYR B3001      12.419  22.370  28.923  0.70 43.08 LIG 0.28  C 
BRANCH 25 26
ATOM     26  CB  TYR B3001      11.924  21.258  27.974  0.70 40.59 LIG 0.08  C 
BRANCH 26 27
ATOM     27  CG  TYR B3001      10.652  20.570  28.449  0.70 39.24 LIG-0.06  A 
ATOM     28  CD1 TYR B3001      10.707  19.484  29.327  0.70 40.30 LIG 0.01  A 
ATOM     29  CE1 TYR B3001       9.535  18.792  29.710  0.70 38.36 LIG 0.04  A 
ATOM     30  CZ  TYR B3001       8.299  19.195  29.212  0.70 37.05 LIG 0.07  A 
ATOM     31  CE2 TYR B3001       8.224  20.280  28.345  0.70 37.49 LIG 0.04  A 
ATOM     32  CD2 TYR B3001       9.398  20.960  27.970  0.70 38.19 LIG 0.01  A 
BRANCH 30 33
ATOM     33 OH   TYR B3001       7.151  18.510  29.554  0.70 32.30 LIG-0.36  OA
ATOM     34 HH   TYR B3001       6.555  18.658  28.981  0.70 32.30 LIG 0.22  HD
ENDBRANCH 30 33
ENDBRANCH 26 27
ENDBRANCH 25 26
BRANCH 25 35
ATOM     35  N   TYR B3001      12.855  21.774  30.220  0.70 42.81 LIG-0.07  N 
ATOM     36 H3   TYR B3001      12.403  22.150  30.887  0.70 42.81 LIG 0.28  HD
ATOM     37 H2   TYR B3001      13.726  21.915  30.334  0.70 42.81 LIG 0.28  HD
ATOM     38 H1   TYR B3001      12.696  20.898  30.212  0.70 42.81 LIG 0.28  HD
ENDBRANCH 25 35
ENDBRANCH 1 25
TORSDOF 11
ENDMDL
MODEL 3
USER: ADFR SOLUTION from run 10
USER: SCORE 12.584294 LL:  -1.926 LR: -10.659 RR:   0.000 FEB:  -7.377
USER: RMSD 13.537707
USER: SEED 464133
USER: STATUS no improvement in best 16 clusters for 5 generations
USER: GENES 13
USER: genes 0 Translation |==|  0.79465 0.15048 0.45146
USER: genes 1 Rotation |==|  0.16733 0.61318 0.39059 0.83845
USER: genes 2 Torsion [N]-CA--C-[O] |==|  0.39118
USER: genes 3 Torsion [C]-N--CA-[C] |==|  0.41455
USER: genes 4 Torsion [N]-CA--C-[OXT] |==|  0.31790
USER: genes 5 Torsion [N]-CA--CB-[CG] |==|  0.61009
USER: genes 6 Torsion [CA]-CB--CG-[CD2] |==|  0.30191
USER: genes 7 Torsion [CE2]-CZ--OH-[HH] |==|  0.72326
USER: genes 8 Torsion [N]-C--CA-[N] |==|  0.43758
USER: genes 9 Torsion [C]-CA--CB-[CG] |==|  0.38126
USER: genes 10 Torsion [CA]-CB--CG-[CD1] |==|  0.52220
USER: genes 11 Torsion [CE1]-CZ--OH-[HH] |==|  0.66235
USER: genes 12 Torsion [C]-CA--N-[H2] |==|  0.54821
ROOT
ATOM      1  C   TYR B3001      22.900  23.024  26.514  0.70 44.28 LIG 0.25  C 
ATOM      2 O    TYR B3001      21.689  23.186  26.679  0.70 44.11 LIG-0.27  OA
ATOM      3  N   PRO B3002      23.827  23.743  27.186  0.70 46.07 LIG-0.34  N 
ATOM      4  CA  PRO B3002      23.625  24.761  28.226  0.70 46.91 LIG 0.18  C 
ATOM      5  CB  PRO B3002      25.041  25.281  28.477  0.70 46.92 LIG 0.04  C 
ATOM      6  CG  PRO B3002      25.671  25.154  27.147  0.70 47.16 LIG 0.02  C 
ATOM      7  CD  PRO B3002      25.232  23.766  26.740  0.70 47.04 LIG 0.13  C 
ENDROOT
BRANCH 4 8
ATOM      8  C   PRO B3002      22.662  25.916  27.994  0.70 47.26 LIG 0.24  C 
ATOM      9  N   TYR B3003      22.629  26.370  26.740  0.70 47.47 LIG-0.34  N 
ATOM     10 H    TYR B3003      23.137  26.057  26.121  0.70 47.47 LIG 0.16  HD
ATOM     11 O    PRO B3002      21.935  26.326  28.912  0.70 46.37 LIG-0.27  OA
BRANCH 9 12
ATOM     12  CA  TYR B3003      21.744  27.434  26.274  0.70 47.51 LIG 0.19  C 
BRANCH 12 13
ATOM     13  C   TYR B3003      22.310  28.275  25.140  0.70 47.80 LIG 0.20  C 
ATOM     14 OXT  TYR B3003      21.737  28.216  24.033  0.70 46.55 LIG-0.65  OA
ATOM     15 O    TYR B3003      23.335  28.959  25.354  0.70 50.35 LIG-0.65  OA
ENDBRANCH 12 13
BRANCH 12 16
ATOM     16  CB  TYR B3003      21.335  28.323  27.454  0.70 48.13 LIG 0.07  C 
BRANCH 16 17
ATOM     17  CG  TYR B3003      19.892  28.774  27.434  0.70 49.00 LIG-0.06  A 
ATOM     18  CD2 TYR B3003      18.962  28.260  28.346  0.70 49.34 LIG 0.01  A 
ATOM     19  CE2 TYR B3003      17.629  28.673  28.320  0.70 49.34 LIG 0.04  A 
ATOM     20  CZ  TYR B3003      17.222  29.614  27.380  0.70 49.55 LIG 0.07  A 
ATOM     21  CE1 TYR B3003      18.125  30.135  26.470  0.70 48.63 LIG 0.04  A 
ATOM     22  CD1 TYR B3003      19.452  29.715  26.501  0.70 49.33 LIG 0.01  A 
BRANCH 20 23
ATOM     23 OH   TYR B3003      15.914  30.053  27.362  0.70 50.92 LIG-0.36  OA
ATOM     24 HH   TYR B3003      15.489  29.647  26.761  0.70 50.92 LIG 0.22  HD
ENDBRANCH 20 23
ENDBRANCH 16 17
ENDBRANCH 12 16
ENDBRANCH 9 12
ENDBRANCH 4 8
BRANCH 1 25
ATOM     25  CA  TYR B3001      23.424  22.014  25.493  0.70 43.08 LIG 0.28  C 
BRANCH 25 26
ATOM     26  CB  TYR B3001      23.713  22.687  24.135  0.70 40.59 LIG 0.08  C 
BRANCH 26 27
ATOM     27  CG  TYR B3001      25.016  22.234  23.491  0.70 39.24 LIG-0.06  A 
ATOM     28  CD1 TYR B3001      25.508  22.864  22.345  0.70 40.30 LIG 0.01  A 
ATOM     29  CE1 TYR B3001      26.676  22.399  21.698  0.70 38.36 LIG 0.04  A 
ATOM     30  CZ  TYR B3001      27.357  21.297  22.207  0.70 37.05 LIG 0.07  A 
ATOM     31  CE2 TYR B3001      26.888  20.664  23.353  0.70 37.49 LIG 0.04  A 
ATOM     32  CD2 TYR B3001      25.724  21.135  23.988  0.70 38.19 LIG 0.01  A 
BRANCH 30 33
ATOM     33 OH   TYR B3001      28.481  20.814  21.569  0.70 32.30 LIG-0.36  OA
ATOM     34 HH   TYR B3001      28.360  20.010  21.357  0.70 32.30 LIG 0.22  HD
ENDBRANCH 30 33
ENDBRANCH 26 27
ENDBRANCH 25 26
BRANCH 25 35
ATOM     35  N   TYR B3001      22.310  21.031  25.345  0.70 42.81 LIG-0.07  N 
ATOM     36 H3   TYR B3001      21.972  20.842  26.146  0.70 42.81 LIG 0.28  HD
ATOM     37 H2   TYR B3001      22.619  20.286  24.970  0.70 42.81 LIG 0.28  HD
ATOM     38 H1   TYR B3001      21.673  21.379  24.830  0.70 42.81 LIG 0.28  HD
ENDBRANCH 25 35
ENDBRANCH 1 25
TORSDOF 11
ENDMDL
MODEL 4
USER: ADFR SOLUTION from run 90
USER: SCORE 12.448429 LL:  -1.897 LR: -10.552 RR:   0.000 FEB:  -7.270
USER: RMSD 13.484922
USER: SEED 89
USER: STATUS no improvement in best 22 clusters for 5 generations
USER: GENES 13
USER: genes 0 Translation |==|  0.78899 0.16621 0.41756
USER: genes 1 Rotation |==|  0.18241 0.53916 0.32816 0.84362
USER: genes 2 Torsion [N]-CA--C-[O] |==|  0.93686
USER: genes 3 Torsion [C]-N--CA-[C] |==|  0.90396
USER: genes 4 Torsion [N]-CA--C-[OXT] |==|  0.88214
USER: genes 5 Torsion [N]-CA--CB-[CG] |==|  0.89870
USER: genes 6 Torsion [CA]-CB--CG-[CD2] |==|  0.23638
USER: genes 7 Torsion [CE2]-CZ--OH-[HH] |==|  0.83030
USER: genes 8 Torsion [N]-C--CA-[N] |==|  0.40501
USER: genes 9 Torsion [C]-CA--CB-[CG] |==|  0.42303
USER: genes 10 Torsion [CA]-CB--CG-[CD1] |==|  0.49649
USER: genes 11 Torsion [CE1]-CZ--OH-[HH] |==|  0.82136
USER: genes 12 Torsion [C]-CA--N-[H2] |==|  0.31826
ROOT
ATOM      1  C   TYR B3001      22.730  23.496  25.497  0.70 44.28 LIG 0.25  C 
ATOM      2 O    TYR B3001      21.546  23.629  25.183  0.70 44.11 LIG-0.27  OA
ATOM      3  N   PRO B3002      23.330  24.283  26.417  0.70 46.07 LIG-0.34  N 
ATOM      4  CA  PRO B3002      22.745  25.358  27.232  0.70 46.91 LIG 0.18  C 
ATOM      5  CB  PRO B3002      23.959  25.936  27.961  0.70 46.92 LIG 0.04  C 
ATOM      6  CG  PRO B3002      25.045  25.746  26.978  0.70 47.16 LIG 0.02  C 
ATOM      7  CD  PRO B3002      24.800  24.323  26.533  0.70 47.04 LIG 0.13  C 
ENDROOT
BRANCH 4 8
ATOM      8  C   PRO B3002      21.935  26.464  26.575  0.70 47.26 LIG 0.24  C 
ATOM      9  N   TYR B3003      21.133  27.135  27.403  0.70 47.47 LIG-0.34  N 
ATOM     10 H    TYR B3003      21.055  26.935  28.236  0.70 47.47 LIG 0.16  HD
ATOM     11 O    PRO B3002      22.090  26.732  25.374  0.70 46.37 LIG-0.27  OA
BRANCH 9 12
ATOM     12  CA  TYR B3003      20.303  28.270  27.007  0.70 47.51 LIG 0.19  C 
BRANCH 12 13
ATOM     13  C   TYR B3003      20.920  29.162  25.941  0.70 47.80 LIG 0.20  C 
ATOM     14 OXT  TYR B3003      22.132  29.441  26.049  0.70 46.55 LIG-0.65  OA
ATOM     15 O    TYR B3003      20.187  29.603  25.029  0.70 50.35 LIG-0.65  OA
ENDBRANCH 12 13
BRANCH 12 16
ATOM     16  CB  TYR B3003      19.922  29.091  28.244  0.70 48.13 LIG 0.07  C 
BRANCH 16 17
ATOM     17  CG  TYR B3003      19.662  28.274  29.489  0.70 49.00 LIG-0.06  A 
ATOM     18  CD2 TYR B3003      20.711  27.885  30.330  0.70 49.34 LIG 0.01  A 
ATOM     19  CE2 TYR B3003      20.469  27.126  31.475  0.70 49.34 LIG 0.04  A 
ATOM     20  CZ  TYR B3003      19.165  26.754  31.787  0.70 49.55 LIG 0.07  A 
ATOM     21  CE1 TYR B3003      18.113  27.128  30.969  0.70 48.63 LIG 0.04  A 
ATOM     22  CD1 TYR B3003      18.365  27.884  29.828  0.70 49.33 LIG 0.01  A 
BRANCH 20 23
ATOM     23 OH   TYR B3003      18.907  26.027  32.931  0.70 50.92 LIG-0.36  OA
ATOM     24 HH   TYR B3003      19.310  25.291  32.893  0.70 50.92 LIG 0.22  HD
ENDBRANCH 20 23
ENDBRANCH 16 17
ENDBRANCH 12 16
ENDBRANCH 9 12
ENDBRANCH 4 8
BRANCH 1 25
ATOM     25  CA  TYR B3001      23.607  22.441  24.821  0.70 43.08 LIG 0.28  C 
BRANCH 25 26
ATOM     26  CB  TYR B3001      24.153  22.948  23.470  0.70 40.59 LIG 0.08  C 
BRANCH 26 27
ATOM     27  CG  TYR B3001      25.480  22.318  23.071  0.70 39.24 LIG-0.06  A 
ATOM     28  CD1 TYR B3001      26.098  22.650  21.861  0.70 40.30 LIG 0.01  A 
ATOM     29  CE1 TYR B3001      27.290  22.011  21.448  0.70 38.36 LIG 0.04  A 
ATOM     30  CZ  TYR B3001      27.869  21.038  22.257  0.70 37.05 LIG 0.07  A 
ATOM     31  CE2 TYR B3001      27.274  20.702  23.469  0.70 37.49 LIG 0.04  A 
ATOM     32  CD2 TYR B3001      26.087  21.343  23.868  0.70 38.19 LIG 0.01  A 
BRANCH 30 33
ATOM     33 OH   TYR B3001      29.016  20.385  21.853  0.70 32.30 LIG-0.36  OA
ATOM     34 HH   TYR B3001      28.855  19.935  21.162  0.70 32.30 LIG 0.22  HD
ENDBRANCH 30 33
ENDBRANCH 26 27
ENDBRANCH 25 26
BRANCH 25 35
ATOM     35  N   TYR B3001      22.685  21.289  24.595  0.70 42.81 LIG-0.07  N 
ATOM     36 H3   TYR B3001      23.032  20.555  24.960  0.70 42.81 LIG 0.28  HD
ATOM     37 H2   TYR B3001      22.576  21.162  23.721  0.70 42.81 LIG 0.28  HD
ATOM     38 H1   TYR B3001      21.897  21.461  24.970  0.70 42.81 LIG 0.28  HD
ENDBRANCH 25 35
ENDBRANCH 1 25
TORSDOF 11
ENDMDL
MODEL 5
USER: ADFR SOLUTION from run 99
USER: SCORE 12.157378 LL:  -1.749 LR: -10.408 RR:   0.000 FEB:  -7.127
USER: RMSD 13.011938
USER: SEED 98
USER: STATUS no improvement in best 20 clusters for 5 generations
USER: GENES 13
USER: genes 0 Translation |==|  0.51246 0.16253 0.52290
USER: genes 1 Rotation |==|  0.34207 0.70584 0.92054 0.57637
USER: genes 2 Torsion [N]-CA--C-[O] |==|  0.81917
USER: genes 3 Torsion [C]-N--CA-[C] |==|  0.04322
USER: genes 4 Torsion [N]-CA--C-[OXT] |==|  0.78157
USER: genes 5 Torsion [N]-CA--CB-[CG] |==|  0.93975
USER: genes 6 Torsion [CA]-CB--CG-[CD2] |==|  0.73478
USER: genes 7 Torsion [CE2]-CZ--OH-[HH] |==|  0.17973
USER: genes 8 Torsion [N]-C--CA-[N] |==|  0.39581
USER: genes 9 Torsion [C]-CA--CB-[CG] |==|  0.46722
USER: genes 10 Torsion [CA]-CB--CG-[CD1] |==|  0.90910
USER: genes 11 Torsion [CE1]-CZ--OH-[HH] |==|  0.97102
USER: genes 12 Torsion [C]-CA--N-[H2] |==|  0.87216
ROOT
ATOM      1  C   TYR B3001      14.434  23.386  28.657  0.70 44.28 LIG 0.25  C 
ATOM      2 O    TYR B3001      15.560  23.018  28.993  0.70 44.11 LIG-0.27  OA
ATOM      3  N   PRO B3002      14.086  24.690  28.587  0.70 46.07 LIG-0.34  N 
ATOM      4  CA  PRO B3002      14.918  25.879  28.823  0.70 46.91 LIG 0.18  C 
ATOM      5  CB  PRO B3002      13.914  27.027  28.720  0.70 46.92 LIG 0.04  C 
ATOM      6  CG  PRO B3002      12.672  26.416  29.233  0.70 47.16 LIG 0.02  C 
ATOM      7  CD  PRO B3002      12.669  25.090  28.507  0.70 47.04 LIG 0.13  C 
ENDROOT
BRANCH 4 8
ATOM      8  C   PRO B3002      15.743  25.998  30.096  0.70 47.26 LIG 0.24  C 
ATOM      9  N   TYR B3003      17.060  26.075  29.902  0.70 47.47 LIG-0.34  N 
ATOM     10 H    TYR B3003      17.416  26.028  29.120  0.70 47.47 LIG 0.16  HD
ATOM     11 O    PRO B3002      15.187  26.081  31.202  0.70 46.37 LIG-0.27  OA
BRANCH 9 12
ATOM     12  CA  TYR B3003      18.041  26.248  30.970  0.70 47.51 LIG 0.19  C 
BRANCH 12 13
ATOM     13  C   TYR B3003      17.510  25.967  32.367  0.70 47.80 LIG 0.20  C 
ATOM     14 OXT  TYR B3003      16.822  26.853  32.914  0.70 46.55 LIG-0.65  OA
ATOM     15 O    TYR B3003      17.810  24.885  32.917  0.70 50.35 LIG-0.65  OA
ENDBRANCH 12 13
BRANCH 12 16
ATOM     16  CB  TYR B3003      18.648  27.653  30.895  0.70 48.13 LIG 0.07  C 
BRANCH 16 17
ATOM     17  CG  TYR B3003      18.535  28.320  29.543  0.70 49.00 LIG-0.06  A 
ATOM     18  CD2 TYR B3003      19.584  28.260  28.618  0.70 49.34 LIG 0.01  A 
ATOM     19  CE2 TYR B3003      19.479  28.882  27.374  0.70 49.34 LIG 0.04  A 
ATOM     20  CZ  TYR B3003      18.312  29.567  27.047  0.70 49.55 LIG 0.07  A 
ATOM     21  CE1 TYR B3003      17.264  29.638  27.947  0.70 48.63 LIG 0.04  A 
ATOM     22  CD1 TYR B3003      17.379  29.016  29.187  0.70 49.33 LIG 0.01  A 
BRANCH 20 23
ATOM     23 OH   TYR B3003      18.183  30.163  25.809  0.70 50.92 LIG-0.36  OA
ATOM     24 HH   TYR B3003      18.185  29.573  25.211  0.70 50.92 LIG 0.22  HD
ENDBRANCH 20 23
ENDBRANCH 16 17
ENDBRANCH 12 16
ENDBRANCH 9 12
ENDBRANCH 4 8
BRANCH 1 25
ATOM     25  CA  TYR B3001      13.340  22.367  28.334  0.70 43.08 LIG 0.28  C 
BRANCH 25 26
ATOM     26  CB  TYR B3001      12.709  21.795  29.621  0.70 40.59 LIG 0.08  C 
BRANCH 26 27
ATOM     27  CG  TYR B3001      11.435  20.999  29.376  0.70 39.24 LIG-0.06  A 
ATOM     28  CD1 TYR B3001      10.562  21.340  28.340  0.70 40.30 LIG 0.01  A 
ATOM     29  CE1 TYR B3001       9.339  20.654  28.155  0.70 38.36 LIG 0.04  A 
ATOM     30  CZ  TYR B3001       8.993  19.616  29.015  0.70 37.05 LIG 0.07  A 
ATOM     31  CE2 TYR B3001       9.853  19.255  30.046  0.70 37.49 LIG 0.04  A 
ATOM     32  CD2 TYR B3001      11.067  19.947  30.220  0.70 38.19 LIG 0.01  A 
BRANCH 30 33
ATOM     33 OH   TYR B3001       7.789  18.957  28.866  0.70 32.30 LIG-0.36  OA
ATOM     34 HH   TYR B3001       7.308  19.372  28.317  0.70 32.30 LIG 0.22  HD
ENDBRANCH 30 33
ENDBRANCH 26 27
ENDBRANCH 25 26
BRANCH 25 35
ATOM     35  N   TYR B3001      14.054  21.284  27.595  0.70 42.81 LIG-0.07  N 
ATOM     36 H3   TYR B3001      14.542  20.806  28.166  0.70 42.81 LIG 0.28  HD
ATOM     37 H2   TYR B3001      14.587  21.645  26.981  0.70 42.81 LIG 0.28  HD
ATOM     38 H1   TYR B3001      13.460  20.754  27.198  0.70 42.81 LIG 0.28  HD
ENDBRANCH 25 35
ENDBRANCH 1 25
TORSDOF 11
ENDMDL
MODEL 6
USER: ADFR SOLUTION from run 41
USER: SCORE 12.654552 LL:  -2.509 LR: -10.145 RR:   0.000 FEB:  -6.864
USER: RMSD 12.450450
USER: SEED 40
USER: STATUS no improvement in best 24 clusters for 5 generations
USER: GENES 13
USER: genes 0 Translation |==|  0.42536 0.09208 0.50807
USER: genes 1 Rotation |==|  0.59137 0.34805 0.36132 0.94646
USER: genes 2 Torsion [N]-CA--C-[O] |==|  0.99575
USER: genes 3 Torsion [C]-N--CA-[C] |==|  0.19417
USER: genes 4 Torsion [N]-CA--C-[OXT] |==|  0.50283
USER: genes 5 Torsion [N]-CA--CB-[CG] |==|  0.34675
USER: genes 6 Torsion [CA]-CB--CG-[CD2] |==|  0.29727
USER: genes 7 Torsion [CE2]-CZ--OH-[HH] |==|  0.81958
USER: genes 8 Torsion [N]-C--CA-[N] |==|  0.37039
USER: genes 9 Torsion [C]-CA--CB-[CG] |==|  0.93489
USER: genes 10 Torsion [CA]-CB--CG-[CD1] |==|  0.75630
USER: genes 11 Torsion [CE1]-CZ--OH-[HH] |==|  0.84643
USER: genes 12 Torsion [C]-CA--N-[H2] |==|  0.57873
ROOT
ATOM      1  C   TYR B3001      11.821  21.272  28.212  0.70 44.28 LIG 0.25  C 
ATOM      2 O    TYR B3001      11.435  21.892  27.220  0.70 44.11 LIG-0.27  OA
ATOM      3  N   PRO B3002      11.034  20.392  28.870  0.70 46.07 LIG-0.34  N 
ATOM      4  CA  PRO B3002       9.666  19.962  28.549  0.70 46.91 LIG 0.18  C 
ATOM      5  CB  PRO B3002       9.298  19.071  29.736  0.70 46.92 LIG 0.04  C 
ATOM      6  CG  PRO B3002      10.038  19.697  30.850  0.70 47.16 LIG 0.02  C 
ATOM      7  CD  PRO B3002      11.394  19.920  30.220  0.70 47.04 LIG 0.13  C 
ENDROOT
BRANCH 4 8
ATOM      8  C   PRO B3002       8.577  20.993  28.293  0.70 47.26 LIG 0.24  C 
ATOM      9  N   TYR B3003       7.370  20.481  28.051  0.70 47.47 LIG-0.34  N 
ATOM     10 H    TYR B3003       7.226  19.634  28.009  0.70 47.47 LIG 0.16  HD
ATOM     11 O    PRO B3002       8.824  22.206  28.380  0.70 46.37 LIG-0.27  OA
BRANCH 9 12
ATOM     12  CA  TYR B3003       6.166  21.279  27.831  0.70 47.51 LIG 0.19  C 
BRANCH 12 13
ATOM     13  C   TYR B3003       6.146  22.043  26.516  0.70 47.80 LIG 0.20  C 
ATOM     14 OXT  TYR B3003       5.153  22.760  26.278  0.70 46.55 LIG-0.65  OA
ATOM     15 O    TYR B3003       7.101  21.896  25.722  0.70 50.35 LIG-0.65  OA
ENDBRANCH 12 13
BRANCH 12 16
ATOM     16  CB  TYR B3003       5.952  22.231  29.013  0.70 48.13 LIG 0.07  C 
BRANCH 16 17
ATOM     17  CG  TYR B3003       5.833  23.690  28.635  0.70 49.00 LIG-0.06  A 
ATOM     18  CD2 TYR B3003       4.599  24.351  28.684  0.70 49.34 LIG 0.01  A 
ATOM     19  CE2 TYR B3003       4.492  25.696  28.328  0.70 49.34 LIG 0.04  A 
ATOM     20  CZ  TYR B3003       5.628  26.390  27.924  0.70 49.55 LIG 0.07  A 
ATOM     21  CE1 TYR B3003       6.856  25.756  27.868  0.70 48.63 LIG 0.04  A 
ATOM     22  CD1 TYR B3003       6.953  24.414  28.223  0.70 49.33 LIG 0.01  A 
BRANCH 20 23
ATOM     23 OH   TYR B3003       5.541  27.728  27.597  0.70 50.92 LIG-0.36  OA
ATOM     24 HH   TYR B3003       5.060  27.820  26.914  0.70 50.92 LIG 0.22  HD
ENDBRANCH 20 23
ENDBRANCH 16 17
ENDBRANCH 12 16
ENDBRANCH 9 12
ENDBRANCH 4 8
BRANCH 1 25
ATOM     25  CA  TYR B3001      13.220  21.501  28.785  0.70 43.08 LIG 0.28  C 
BRANCH 25 26
ATOM     26  CB  TYR B3001      13.338  22.892  29.441  0.70 40.59 LIG 0.08  C 
BRANCH 26 27
ATOM     27  CG  TYR B3001      12.329  23.904  28.916  0.70 39.24 LIG-0.06  A 
ATOM     28  CD1 TYR B3001      12.612  24.684  27.791  0.70 40.30 LIG 0.01  A 
ATOM     29  CE1 TYR B3001      11.713  25.680  27.344  0.70 38.36 LIG 0.04  A 
ATOM     30  CZ  TYR B3001      10.520  25.891  28.029  0.70 37.05 LIG 0.07  A 
ATOM     31  CE2 TYR B3001      10.216  25.118  29.144  0.70 37.49 LIG 0.04  A 
ATOM     32  CD2 TYR B3001      11.120  24.130  29.580  0.70 38.19 LIG 0.01  A 
BRANCH 30 33
ATOM     33 OH   TYR B3001       9.646  26.879  27.622  0.70 32.30 LIG-0.36  OA
ATOM     34 HH   TYR B3001      10.049  27.616  27.595  0.70 32.30 LIG 0.22  HD
ENDBRANCH 30 33
ENDBRANCH 26 27
ENDBRANCH 25 26
BRANCH 25 35
ATOM     35  N   TYR B3001      14.120  21.424  27.595  0.70 42.81 LIG-0.07  N 
ATOM     36 H3   TYR B3001      13.778  20.857  27.000  0.70 42.81 LIG 0.28  HD
ATOM     37 H2   TYR B3001      14.924  21.140  27.848  0.70 42.81 LIG 0.28  HD
ATOM     38 H1   TYR B3001      14.193  22.230  27.226  0.70 42.81 LIG 0.28  HD
ENDBRANCH 25 35
ENDBRANCH 1 25
TORSDOF 11
ENDMDL
MODEL 7
USER: ADFR SOLUTION from run 45
USER: SCORE 12.974705 LL:  -2.866 LR: -10.109 RR:   0.000 FEB:  -6.828
USER: RMSD 13.758599
USER: SEED 44
USER: STATUS no improvement in best 13 clusters for 5 generations
USER: GENES 13
USER: genes 0 Translation |==|  0.78196 0.15843 0.43115
USER: genes 1 Rotation |==|  0.25360 0.49241 0.16972 0.78309
USER: genes 2 Torsion [N]-CA--C-[O] |==|  0.16941
USER: genes 3 Torsion [C]-N--CA-[C] |==|  0.65162
USER: genes 4 Torsion [N]-CA--C-[OXT] |==|  0.36683
USER: genes 5 Torsion [N]-CA--CB-[CG] |==|  0.80668
USER: genes 6 Torsion [CA]-CB--CG-[CD2] |==|  0.43013
USER: genes 7 Torsion [CE2]-CZ--OH-[HH] |==|  0.63738
USER: genes 8 Torsion [N]-C--CA-[N] |==|  0.36426
USER: genes 9 Torsion [C]-CA--CB-[CG] |==|  0.16924
USER: genes 10 Torsion [CA]-CB--CG-[CD1] |==|  0.27158
USER: genes 11 Torsion [CE1]-CZ--OH-[HH] |==|  0.60569
USER: genes 12 Torsion [C]-CA--N-[H2] |==|  0.81054
ROOT
ATOM      1  C   TYR B3001      22.519  23.263  25.904  0.70 44.28 LIG 0.25  C 
ATOM      2 O    TYR B3001      21.889  23.760  24.970  0.70 44.11 LIG-0.27  OA
ATOM      3  N   PRO B3002      22.773  23.935  27.049  0.70 46.07 LIG-0.34  N 
ATOM      4  CA  PRO B3002      22.344  25.287  27.437  0.70 46.91 LIG 0.18  C 
ATOM      5  CB  PRO B3002      23.062  25.506  28.769  0.70 46.92 LIG 0.04  C 
ATOM      6  CG  PRO B3002      24.312  24.740  28.591  0.70 47.16 LIG 0.02  C 
ATOM      7  CD  PRO B3002      23.791  23.450  28.000  0.70 47.04 LIG 0.13  C 
ENDROOT
BRANCH 4 8
ATOM      8  C   PRO B3002      22.577  26.464  26.502  0.70 47.26 LIG 0.24  C 
ATOM      9  N   TYR B3003      23.412  27.392  26.970  0.70 47.47 LIG-0.34  N 
ATOM     10 H    TYR B3003      23.765  27.345  27.753  0.70 47.47 LIG 0.16  HD
ATOM     11 O    PRO B3002      22.062  26.484  25.373  0.70 46.37 LIG-0.27  OA
BRANCH 9 12
ATOM     12  CA  TYR B3003      23.824  28.579  26.226  0.70 47.51 LIG 0.19  C 
BRANCH 12 13
ATOM     13  C   TYR B3003      25.329  28.754  26.096  0.70 47.80 LIG 0.20  C 
ATOM     14 OXT  TYR B3003      25.787  29.010  24.964  0.70 46.55 LIG-0.65  OA
ATOM     15 O    TYR B3003      26.041  28.600  27.113  0.70 50.35 LIG-0.65  OA
ENDBRANCH 12 13
BRANCH 12 16
ATOM     16  CB  TYR B3003      23.188  29.828  26.848  0.70 48.13 LIG 0.07  C 
BRANCH 16 17
ATOM     17  CG  TYR B3003      21.692  29.936  26.658  0.70 49.00 LIG-0.06  A 
ATOM     18  CD2 TYR B3003      20.902  30.671  27.550  0.70 49.34 LIG 0.01  A 
ATOM     19  CE2 TYR B3003      19.521  30.763  27.375  0.70 49.34 LIG 0.04  A 
ATOM     20  CZ  TYR B3003      18.922  30.120  26.296  0.70 49.55 LIG 0.07  A 
ATOM     21  CE1 TYR B3003      19.685  29.389  25.403  0.70 48.63 LIG 0.04  A 
ATOM     22  CD1 TYR B3003      21.062  29.301  25.587  0.70 49.33 LIG 0.01  A 
BRANCH 20 23
ATOM     23 OH   TYR B3003      17.561  30.227  26.095  0.70 50.92 LIG-0.36  OA
ATOM     24 HH   TYR B3003      17.234  29.462  25.976  0.70 50.92 LIG 0.22  HD
ENDBRANCH 20 23
ENDBRANCH 16 17
ENDBRANCH 12 16
ENDBRANCH 9 12
ENDBRANCH 4 8
BRANCH 1 25
ATOM     25  CA  TYR B3001      23.090  21.848  25.800  0.70 43.08 LIG 0.28  C 
BRANCH 25 26
ATOM     26  CB  TYR B3001      24.228  21.778  24.761  0.70 40.59 LIG 0.08  C 
BRANCH 26 27
ATOM     27  CG  TYR B3001      25.414  22.674  25.088  0.70 39.24 LIG-0.06  A 
ATOM     28  CD1 TYR B3001      26.551  22.160  25.718  0.70 40.30 LIG 0.01  A 
ATOM     29  CE1 TYR B3001      27.623  23.001  26.095  0.70 38.36 LIG 0.04  A 
ATOM     30  CZ  TYR B3001      27.555  24.367  25.835  0.70 37.05 LIG 0.07  A 
ATOM     31  CE2 TYR B3001      26.437  24.895  25.200  0.70 37.49 LIG 0.04  A 
ATOM     32  CD2 TYR B3001      25.375  24.048  24.830  0.70 38.19 LIG 0.01  A 
BRANCH 30 33
ATOM     33 OH   TYR B3001      28.581  25.205  26.224  0.70 32.30 LIG-0.36  OA
ATOM     34 HH   TYR B3001      28.262  25.933  26.494  0.70 32.30 LIG 0.22  HD
ENDBRANCH 30 33
ENDBRANCH 26 27
ENDBRANCH 25 26
BRANCH 25 35
ATOM     35  N   TYR B3001      21.935  21.019  25.345  0.70 42.81 LIG-0.07  N 
ATOM     36 H3   TYR B3001      21.570  21.389  24.623  0.70 42.81 LIG 0.28  HD
ATOM     37 H2   TYR B3001      21.328  20.973  25.994  0.70 42.81 LIG 0.28  HD
ATOM     38 H1   TYR B3001      22.218  20.199  25.146  0.70 42.81 LIG 0.28  HD
ENDBRANCH 25 35
ENDBRANCH 1 25
TORSDOF 11
ENDMDL
MODEL 8
USER: ADFR SOLUTION from run 70
USER: SCORE 12.622422 LL:  -2.517 LR: -10.105 RR:   0.000 FEB:  -6.824
USER: RMSD 10.672460
USER: SEED 69
USER: STATUS no improvement in best 22 clusters for 5 generations
USER: GENES 13
USER: genes 0 Translation |==|  0.44121 0.15051 0.51341
USER: genes 1 Rotation |==|  0.35209 0.33592 0.29475 0.89884
USER: genes 2 Torsion [N]-CA--C-[O] |==|  0.94829
USER: genes 3 Torsion [C]-N--CA-[C] |==|  0.66401
USER: genes 4 Torsion [N]-CA--C-[OXT] |==|  0.08078
USER: genes 5 Torsion [N]-CA--CB-[CG] |==|  0.11829
USER: genes 6 Torsion [CA]-CB--CG-[CD2] |==|  0.25808
USER: genes 7 Torsion [CE2]-CZ--OH-[HH] |==|  0.52473
USER: genes 8 Torsion [N]-C--CA-[N] |==|  0.36918
USER: genes 9 Torsion [C]-CA--CB-[CG] |==|  0.24057
USER: genes 10 Torsion [CA]-CB--CG-[CD1] |==|  0.77023
USER: genes 11 Torsion [CE1]-CZ--OH-[HH] |==|  0.16245
USER: genes 12 Torsion [C]-CA--N-[H2] |==|  0.48223
ROOT
ATOM      1  C   TYR B3001      12.296  23.025  28.372  0.70 44.28 LIG 0.25  C 
ATOM      2 O    TYR B3001      11.851  23.003  27.224  0.70 44.11 LIG-0.27  OA
ATOM      3  N   PRO B3002      11.550  23.405  29.433  0.70 46.07 LIG-0.34  N 
ATOM      4  CA  PRO B3002      10.133  23.795  29.470  0.70 46.91 LIG 0.18  C 
ATOM      5  CB  PRO B3002       9.935  24.234  30.921  0.70 46.92 LIG 0.04  C 
ATOM      6  CG  PRO B3002      11.255  24.795  31.271  0.70 47.16 LIG 0.02  C 
ATOM      7  CD  PRO B3002      12.185  23.736  30.723  0.70 47.04 LIG 0.13  C 
ENDROOT
BRANCH 4 8
ATOM      8  C   PRO B3002       9.603  24.851  28.511  0.70 47.26 LIG 0.24  C 
ATOM      9  N   TYR B3003       8.274  24.896  28.412  0.70 47.47 LIG-0.34  N 
ATOM     10 H    TYR B3003       7.759  24.349  28.831  0.70 47.47 LIG 0.16  HD
ATOM     11 O    PRO B3002      10.380  25.631  27.939  0.70 46.37 LIG-0.27  OA
BRANCH 9 12
ATOM     12  CA  TYR B3003       7.542  25.861  27.595  0.70 47.51 LIG 0.19  C 
BRANCH 12 13
ATOM     13  C   TYR B3003       6.567  26.734  28.370  0.70 47.80 LIG 0.20  C 
ATOM     14 OXT  TYR B3003       6.832  26.981  29.563  0.70 46.55 LIG-0.65  OA
ATOM     15 O    TYR B3003       5.532  27.135  27.792  0.70 50.35 LIG-0.65  OA
ENDBRANCH 12 13
BRANCH 12 16
ATOM     16  CB  TYR B3003       6.826  25.135  26.451  0.70 48.13 LIG 0.07  C 
BRANCH 16 17
ATOM     17  CG  TYR B3003       6.150  23.842  26.847  0.70 49.00 LIG-0.06  A 
ATOM     18  CD2 TYR B3003       4.803  23.818  27.227  0.70 49.34 LIG 0.01  A 
ATOM     19  CE2 TYR B3003       4.184  22.624  27.599  0.70 49.34 LIG 0.04  A 
ATOM     20  CZ  TYR B3003       4.916  21.441  27.587  0.70 49.55 LIG 0.07  A 
ATOM     21  CE1 TYR B3003       6.249  21.443  27.215  0.70 48.63 LIG 0.04  A 
ATOM     22  CD1 TYR B3003       6.858  22.639  26.848  0.70 49.33 LIG 0.01  A 
BRANCH 20 23
ATOM     23 OH   TYR B3003       4.310  20.248  27.926  0.70 50.92 LIG-0.36  OA
ATOM     24 HH   TYR B3003       4.892  19.646  27.993  0.70 50.92 LIG 0.22  HD
ENDBRANCH 20 23
ENDBRANCH 16 17
ENDBRANCH 12 16
ENDBRANCH 9 12
ENDBRANCH 4 8
BRANCH 1 25
ATOM     25  CA  TYR B3001      13.753  22.656  28.657  0.70 43.08 LIG 0.28  C 
BRANCH 25 26
ATOM     26  CB  TYR B3001      14.720  23.726  28.107  0.70 40.59 LIG 0.08  C 
BRANCH 26 27
ATOM     27  CG  TYR B3001      14.975  24.874  29.073  0.70 39.24 LIG-0.06  A 
ATOM     28  CD1 TYR B3001      14.083  25.946  29.167  0.70 40.30 LIG 0.01  A 
ATOM     29  CE1 TYR B3001      14.353  27.053  30.005  0.70 38.36 LIG 0.04  A 
ATOM     30  CZ  TYR B3001      15.524  27.082  30.756  0.70 37.05 LIG 0.07  A 
ATOM     31  CE2 TYR B3001      16.419  26.020  30.683  0.70 37.49 LIG 0.04  A 
ATOM     32  CD2 TYR B3001      16.140  24.924  29.845  0.70 38.19 LIG 0.01  A 
BRANCH 30 33
ATOM     33 OH   TYR B3001      15.815  28.170  31.555  0.70 32.30 LIG-0.36  OA
ATOM     34 HH   TYR B3001      15.199  28.280  32.114  0.70 32.30 LIG 0.22  HD
ENDBRANCH 30 33
ENDBRANCH 26 27
ENDBRANCH 25 26
BRANCH 25 35
ATOM     35  N   TYR B3001      13.954  21.369  27.928  0.70 42.81 LIG-0.07  N 
ATOM     36 H3   TYR B3001      13.454  20.734  28.302  0.70 42.81 LIG 0.28  HD
ATOM     37 H2   TYR B3001      14.811  21.134  27.969  0.70 42.81 LIG 0.28  HD
ATOM     38 H1   TYR B3001      13.715  21.469  27.076  0.70 42.81 LIG 0.28  HD
ENDBRANCH 25 35
ENDBRANCH 1 25
TORSDOF 11
ENDMDL
MODEL 9
USER: ADFR SOLUTION from run 139
USER: SCORE 12.177165 LL:  -2.082 LR: -10.095 RR:   0.000 FEB:  -6.814
USER: RMSD 7.548009
USER: SEED 138
USER: STATUS no improvement in best 29 clusters for 5 generations
USER: GENES 13
USER: genes 0 Translation |==|  0.56207 0.30660 0.54717
USER: genes 1 Rotation |==|  0.09667 0.26384 0.58918 0.65363
USER: genes 2 Torsion [N]-CA--C-[O] |==|  0.02250
USER: genes 3 Torsion [C]-N--CA-[C] |==|  0.53219
USER: genes 4 Torsion [N]-CA--C-[OXT] |==|  0.50026
USER: genes 5 Torsion [N]-CA--CB-[CG] |==|  0.76853
USER: genes 6 Torsion [CA]-CB--CG-[CD2] |==|  0.40634
USER: genes 7 Torsion [CE2]-CZ--OH-[HH] |==|  0.42365
USER: genes 8 Torsion [N]-C--CA-[N] |==|  0.46220
USER: genes 9 Torsion [C]-CA--CB-[CG] |==|  0.39849
USER: genes 10 Torsion [CA]-CB--CG-[CD1] |==|  0.88608
USER: genes 11 Torsion [CE1]-CZ--OH-[HH] |==|  0.55718
USER: genes 12 Torsion [C]-CA--N-[H2] |==|  0.12842
ROOT
ATOM      1  C   TYR B3001      15.922  27.708  29.385  0.70 44.28 LIG 0.25  C 
ATOM      2 O    TYR B3001      15.639  26.639  29.928  0.70 44.11 LIG-0.27  OA
ATOM      3  N   PRO B3002      14.981  28.587  28.975  0.70 46.07 LIG-0.34  N 
ATOM      4  CA  PRO B3002      13.520  28.507  29.121  0.70 46.91 LIG 0.18  C 
ATOM      5  CB  PRO B3002      13.029  29.727  28.341  0.70 46.92 LIG 0.04  C 
ATOM      6  CG  PRO B3002      14.039  29.852  27.271  0.70 47.16 LIG 0.02  C 
ATOM      7  CD  PRO B3002      15.323  29.682  28.049  0.70 47.04 LIG 0.13  C 
ENDROOT
BRANCH 4 8
ATOM      8  C   PRO B3002      12.774  27.255  28.686  0.70 47.26 LIG 0.24  C 
ATOM      9  N   TYR B3003      11.447  27.384  28.639  0.70 47.47 LIG-0.34  N 
ATOM     10 H    TYR B3003      11.044  28.108  28.870  0.70 47.47 LIG 0.16  HD
ATOM     11 O    PRO B3002      13.395  26.236  28.345  0.70 46.37 LIG-0.27  OA
BRANCH 9 12
ATOM     12  CA  TYR B3003      10.533  26.334  28.200  0.70 47.51 LIG 0.19  C 
BRANCH 12 13
ATOM     13  C   TYR B3003       9.102  26.797  27.970  0.70 47.80 LIG 0.20  C 
ATOM     14 OXT  TYR B3003       8.271  25.945  27.595  0.70 46.55 LIG-0.65  OA
ATOM     15 O    TYR B3003       8.830  28.006  28.132  0.70 50.35 LIG-0.65  OA
ENDBRANCH 12 13
BRANCH 12 16
ATOM     16  CB  TYR B3003      10.569  25.166  29.192  0.70 48.13 LIG 0.07  C 
BRANCH 16 17
ATOM     17  CG  TYR B3003      11.698  24.185  28.972  0.70 49.00 LIG-0.06  A 
ATOM     18  CD2 TYR B3003      12.310  23.534  30.051  0.70 49.34 LIG 0.01  A 
ATOM     19  CE2 TYR B3003      13.357  22.635  29.845  0.70 49.34 LIG 0.04  A 
ATOM     20  CZ  TYR B3003      13.795  22.378  28.549  0.70 49.55 LIG 0.07  A 
ATOM     21  CE1 TYR B3003      13.204  23.011  27.470  0.70 48.63 LIG 0.04  A 
ATOM     22  CD1 TYR B3003      12.162  23.908  27.685  0.70 49.33 LIG 0.01  A 
BRANCH 20 23
ATOM     23 OH   TYR B3003      14.810  21.470  28.329  0.70 50.92 LIG-0.36  OA
ATOM     24 HH   TYR B3003      14.726  21.135  27.563  0.70 50.92 LIG 0.22  HD
ENDBRANCH 20 23
ENDBRANCH 16 17
ENDBRANCH 12 16
ENDBRANCH 9 12
ENDBRANCH 4 8
BRANCH 1 25
ATOM     25  CA  TYR B3001      17.378  28.083  29.105  0.70 43.08 LIG 0.28  C 
BRANCH 25 26
ATOM     26  CB  TYR B3001      17.731  27.885  27.616  0.70 40.59 LIG 0.08  C 
BRANCH 26 27
ATOM     27  CG  TYR B3001      18.684  28.937  27.067  0.70 39.24 LIG-0.06  A 
ATOM     28  CD1 TYR B3001      18.543  30.284  27.412  0.70 40.30 LIG 0.01  A 
ATOM     29  CE1 TYR B3001      19.375  31.278  26.845  0.70 38.36 LIG 0.04  A 
ATOM     30  CZ  TYR B3001      20.358  30.915  25.929  0.70 37.05 LIG 0.07  A 
ATOM     31  CE2 TYR B3001      20.520  29.579  25.581  0.70 37.49 LIG 0.04  A 
ATOM     32  CD2 TYR B3001      19.685  28.600  26.151  0.70 38.19 LIG 0.01  A 
BRANCH 30 33
ATOM     33 OH   TYR B3001      21.158  31.877  25.345  0.70 32.30 LIG-0.36  OA
ATOM     34 HH   TYR B3001      21.492  31.572  24.637  0.70 32.30 LIG 0.22  HD
ENDBRANCH 30 33
ENDBRANCH 26 27
ENDBRANCH 25 26
BRANCH 25 35
ATOM     35  N   TYR B3001      18.169  27.135  29.944  0.70 42.81 LIG-0.07  N 
ATOM     36 H3   TYR B3001      19.022  27.154  29.691  0.70 42.81 LIG 0.28  HD
ATOM     37 H2   TYR B3001      17.848  26.311  29.845  0.70 42.81 LIG 0.28  HD
ATOM     38 H1   TYR B3001      18.109  27.375  30.799  0.70 42.81 LIG 0.28  HD
ENDBRANCH 25 35
ENDBRANCH 1 25
TORSDOF 11
ENDMDL
MODEL 10
USER: ADFR SOLUTION from run 54
USER: SCORE 12.330427 LL:  -2.289 LR: -10.041 RR:   0.000 FEB:  -6.760
USER: RMSD 10.947401
USER: SEED 53
USER: STATUS no improvement in best 26 clusters for 5 generations
USER: GENES 13
USER: genes 0 Translation |==|  0.41588 0.21030 0.50703
USER: genes 1 Rotation |==|  0.70594 0.66205 0.54064 0.92389
USER: genes 2 Torsion [N]-CA--C-[O] |==|  0.78904
USER: genes 3 Torsion [C]-N--CA-[C] |==|  0.65481
USER: genes 4 Torsion [N]-CA--C-[OXT] |==|  0.92180
USER: genes 5 Torsion [N]-CA--CB-[CG] |==|  0.14732
USER: genes 6 Torsion [CA]-CB--CG-[CD2] |==|  0.67890
USER: genes 7 Torsion [CE2]-CZ--OH-[HH] |==|  0.64834
USER: genes 8 Torsion [N]-C--CA-[N] |==|  0.45770
USER: genes 9 Torsion [C]-CA--CB-[CG] |==|  0.34248
USER: genes 10 Torsion [CA]-CB--CG-[CD1] |==|  0.16500
USER: genes 11 Torsion [CE1]-CZ--OH-[HH] |==|  0.51729
USER: genes 12 Torsion [C]-CA--N-[H2] |==|  0.79386
ROOT
ATOM      1  C   TYR B3001      11.536  24.819  28.181  0.70 44.28 LIG 0.25  C 
ATOM      2 O    TYR B3001      10.321  24.667  28.313  0.70 44.11 LIG-0.27  OA
ATOM      3  N   PRO B3002      12.388  23.778  28.049  0.70 46.07 LIG-0.34  N 
ATOM      4  CA  PRO B3002      12.083  22.342  27.982  0.70 46.91 LIG 0.18  C 
ATOM      5  CB  PRO B3002      13.469  21.696  27.970  0.70 46.92 LIG 0.04  C 
ATOM      6  CG  PRO B3002      14.266  22.630  28.791  0.70 47.16 LIG 0.02  C 
ATOM      7  CD  PRO B3002      13.841  23.965  28.223  0.70 47.04 LIG 0.13  C 
ENDROOT
BRANCH 4 8
ATOM      8  C   PRO B3002      11.198  21.695  29.036  0.70 47.26 LIG 0.24  C 
ATOM      9  N   TYR B3003       9.977  21.365  28.614  0.70 47.47 LIG-0.34  N 
ATOM     10 H    TYR B3003       9.701  21.535  27.817  0.70 47.47 LIG 0.16  HD
ATOM     11 O    PRO B3002      11.641  21.451  30.170  0.70 46.37 LIG-0.27  OA
BRANCH 9 12
ATOM     12  CA  TYR B3003       8.977  20.687  29.434  0.70 47.51 LIG 0.19  C 
BRANCH 12 13
ATOM     13  C   TYR B3003       8.441  19.395  28.838  0.70 47.80 LIG 0.20  C 
ATOM     14 OXT  TYR B3003       8.435  19.289  27.595  0.70 46.55 LIG-0.65  OA
ATOM     15 O    TYR B3003       8.001  18.515  29.610  0.70 50.35 LIG-0.65  OA
ENDBRANCH 12 13
BRANCH 12 16
ATOM     16  CB  TYR B3003       7.829  21.651  29.755  0.70 48.13 LIG 0.07  C 
BRANCH 16 17
ATOM     17  CG  TYR B3003       7.209  22.319  28.549  0.70 49.00 LIG-0.06  A 
ATOM     18  CD2 TYR B3003       7.291  23.705  28.370  0.70 49.34 LIG 0.01  A 
ATOM     19  CE2 TYR B3003       6.711  24.319  27.259  0.70 49.34 LIG 0.04  A 
ATOM     20  CZ  TYR B3003       6.047  23.542  26.315  0.70 49.55 LIG 0.07  A 
ATOM     21  CE1 TYR B3003       5.955  22.171  26.474  0.70 48.63 LIG 0.04  A 
ATOM     22  CD1 TYR B3003       6.534  21.567  27.586  0.70 49.33 LIG 0.01  A 
BRANCH 20 23
ATOM     23 OH   TYR B3003       5.494  24.133  25.197  0.70 50.92 LIG-0.36  OA
ATOM     24 HH   TYR B3003       4.685  23.915  25.136  0.70 50.92 LIG 0.22  HD
ENDBRANCH 20 23
ENDBRANCH 16 17
ENDBRANCH 12 16
ENDBRANCH 9 12
ENDBRANCH 4 8
BRANCH 1 25
ATOM     25  CA  TYR B3001      12.159  26.215  28.200  0.70 43.08 LIG 0.28  C 
BRANCH 25 26
ATOM     26  CB  TYR B3001      12.809  26.521  29.566  0.70 40.59 LIG 0.08  C 
BRANCH 26 27
ATOM     27  CG  TYR B3001      14.283  26.889  29.475  0.70 39.24 LIG-0.06  A 
ATOM     28  CD1 TYR B3001      14.704  27.990  28.724  0.70 40.30 LIG 0.01  A 
ATOM     29  CE1 TYR B3001      16.077  28.291  28.572  0.70 38.36 LIG 0.04  A 
ATOM     30  CZ  TYR B3001      17.034  27.484  29.181  0.70 37.05 LIG 0.07  A 
ATOM     31  CE2 TYR B3001      16.634  26.391  29.941  0.70 37.49 LIG 0.04  A 
ATOM     32  CD2 TYR B3001      15.264  26.100  30.084  0.70 38.19 LIG 0.01  A 
BRANCH 30 33
ATOM     33 OH   TYR B3001      18.379  27.749  29.017  0.70 32.30 LIG-0.36  OA
ATOM     34 HH   TYR B3001      18.831  27.135  29.369  0.70 32.30 LIG 0.22  HD
ENDBRANCH 30 33
ENDBRANCH 26 27
ENDBRANCH 25 26
BRANCH 25 35
ATOM     35  N   TYR B3001      11.005  27.135  27.970  0.70 42.81 LIG-0.07  N 
ATOM     36 H3   TYR B3001      10.324  26.891  28.488  0.70 42.81 LIG 0.28  HD
ATOM     37 H2   TYR B3001      10.759  27.094  27.116  0.70 42.81 LIG 0.28  HD
ATOM     38 H1   TYR B3001      11.245  27.968  28.170  0.70 42.81 LIG 0.28  HD
ENDBRANCH 25 35
ENDBRANCH 1 25
TORSDOF 11
ENDMDL
MODEL 11
USER: ADFR SOLUTION from run 146
USER: SCORE 12.039092 LL:  -2.007 LR: -10.032 RR:   0.000 FEB:  -6.751
USER: RMSD 13.013537
USER: SEED 145
USER: STATUS no improvement in best 21 clusters for 5 generations
USER: GENES 13
USER: genes 0 Translation |==|  0.42803 0.14089 0.59189
USER: genes 1 Rotation |==|  0.19736 0.89359 0.45273 0.53548
USER: genes 2 Torsion [N]-CA--C-[O] |==|  0.60459
USER: genes 3 Torsion [C]-N--CA-[C] |==|  0.21821
USER: genes 4 Torsion [N]-CA--C-[OXT] |==|  0.53695
USER: genes 5 Torsion [N]-CA--CB-[CG] |==|  0.83836
USER: genes 6 Torsion [CA]-CB--CG-[CD2] |==|  0.78030
USER: genes 7 Torsion [CE2]-CZ--OH-[HH] |==|  0.55671
USER: genes 8 Torsion [N]-C--CA-[N] |==|  0.33296
USER: genes 9 Torsion [C]-CA--CB-[CG] |==|  0.29115
USER: genes 10 Torsion [CA]-CB--CG-[CD1] |==|  0.57884
USER: genes 11 Torsion [CE1]-CZ--OH-[HH] |==|  0.21464
USER: genes 12 Torsion [C]-CA--N-[H2] |==|  0.01581
ROOT
ATOM      1  C   TYR B3001      11.901  22.737  30.727  0.70 44.28 LIG 0.25  C 
ATOM      2 O    TYR B3001      12.189  23.768  31.336  0.70 44.11 LIG-0.27  OA
ATOM      3  N   PRO B3002      12.703  22.206  29.777  0.70 46.07 LIG-0.34  N 
ATOM      4  CA  PRO B3002      14.024  22.666  29.325  0.70 46.91 LIG 0.18  C 
ATOM      5  CB  PRO B3002      14.332  21.732  28.155  0.70 46.92 LIG 0.04  C 
ATOM      6  CG  PRO B3002      12.992  21.465  27.595  0.70 47.16 LIG 0.02  C 
ATOM      7  CD  PRO B3002      12.195  21.179  28.848  0.70 47.04 LIG 0.13  C 
ENDROOT
BRANCH 4 8
ATOM      8  C   PRO B3002      14.234  24.118  28.923  0.70 47.26 LIG 0.24  C 
ATOM      9  N   TYR B3003      13.628  25.008  29.710  0.70 47.47 LIG-0.34  N 
ATOM     10 H    TYR B3003      13.131  24.777  30.373  0.70 47.47 LIG 0.16  HD
ATOM     11 O    PRO B3002      14.974  24.409  27.970  0.70 46.37 LIG-0.27  OA
BRANCH 9 12
ATOM     12  CA  TYR B3003      13.733  26.456  29.548  0.70 47.51 LIG 0.19  C 
BRANCH 12 13
ATOM     13  C   TYR B3003      12.861  27.033  28.444  0.70 47.80 LIG 0.20  C 
ATOM     14 OXT  TYR B3003      13.084  28.206  28.083  0.70 46.55 LIG-0.65  OA
ATOM     15 O    TYR B3003      11.943  26.326  27.973  0.70 50.35 LIG-0.65  OA
ENDBRANCH 12 13
BRANCH 12 16
ATOM     16  CB  TYR B3003      15.199  26.850  29.340  0.70 48.13 LIG 0.07  C 
BRANCH 16 17
ATOM     17  CG  TYR B3003      16.130  26.437  30.457  0.70 49.00 LIG-0.06  A 
ATOM     18  CD2 TYR B3003      16.202  27.172  31.647  0.70 49.34 LIG 0.01  A 
ATOM     19  CE2 TYR B3003      17.067  26.791  32.673  0.70 49.34 LIG 0.04  A 
ATOM     20  CZ  TYR B3003      17.865  25.663  32.513  0.70 49.55 LIG 0.07  A 
ATOM     21  CE1 TYR B3003      17.810  24.923  31.345  0.70 48.63 LIG 0.04  A 
ATOM     22  CD1 TYR B3003      16.945  25.312  30.326  0.70 49.33 LIG 0.01  A 
BRANCH 20 23
ATOM     23 OH   TYR B3003      18.705  25.259  33.531  0.70 50.92 LIG-0.36  OA
ATOM     24 HH   TYR B3003      19.308  24.764  33.218  0.70 50.92 LIG 0.22  HD
ENDBRANCH 20 23
ENDBRANCH 16 17
ENDBRANCH 12 16
ENDBRANCH 9 12
ENDBRANCH 4 8
BRANCH 1 25
ATOM     25  CA  TYR B3001      10.580  22.013  30.990  0.70 43.08 LIG 0.28  C 
BRANCH 25 26
ATOM     26  CB  TYR B3001       9.374  22.949  30.769  0.70 40.59 LIG 0.08  C 
BRANCH 26 27
ATOM     27  CG  TYR B3001       8.620  22.682  29.474  0.70 39.24 LIG-0.06  A 
ATOM     28  CD1 TYR B3001       7.930  23.707  28.819  0.70 40.30 LIG 0.01  A 
ATOM     29  CE1 TYR B3001       7.165  23.450  27.658  0.70 38.36 LIG 0.04  A 
ATOM     30  CZ  TYR B3001       7.094  22.156  27.149  0.70 37.05 LIG 0.07  A 
ATOM     31  CE2 TYR B3001       7.783  21.126  27.780  0.70 37.49 LIG 0.04  A 
ATOM     32  CD2 TYR B3001       8.540  21.394  28.936  0.70 38.19 LIG 0.01  A 
BRANCH 30 33
ATOM     33 OH   TYR B3001       6.327  21.885  26.034  0.70 32.30 LIG-0.36  OA
ATOM     34 HH   TYR B3001       6.732  22.143  25.345  0.70 32.30 LIG 0.22  HD
ENDBRANCH 30 33
ENDBRANCH 26 27
ENDBRANCH 25 26
BRANCH 25 35
ATOM     35  N   TYR B3001      10.658  21.618  32.428  0.70 42.81 LIG-0.07  N 
ATOM     36 H3   TYR B3001       9.943  21.924  32.859  0.70 42.81 LIG 0.28  HD
ATOM     37 H2   TYR B3001      11.394  21.963  32.791  0.70 42.81 LIG 0.28  HD
ATOM     38 H1   TYR B3001      10.685  20.731  32.491  0.70 42.81 LIG 0.28  HD
ENDBRANCH 25 35
ENDBRANCH 1 25
TORSDOF 11
ENDMDL
MODEL 12
USER: ADFR SOLUTION from run 25
USER: SCORE 12.033917 LL:  -2.063 LR:  -9.971 RR:   0.000 FEB:  -6.689
USER: RMSD 14.299773
USER: SEED 24
USER: STATUS no improvement in best 23 clusters for 5 generations
USER: GENES 13
USER: genes 0 Translation |==|  0.81268 0.14981 0.44401
USER: genes 1 Rotation |==|  0.15466 0.64888 0.42045 0.81976
USER: genes 2 Torsion [N]-CA--C-[O] |==|  0.89116
USER: genes 3 Torsion [C]-N--CA-[C] |==|  0.45735
USER: genes 4 Torsion [N]-CA--C-[OXT] |==|  0.50836
USER: genes 5 Torsion [N]-CA--CB-[CG] |==|  0.65252
USER: genes 6 Torsion [CA]-CB--CG-[CD2] |==|  0.98888
USER: genes 7 Torsion [CE2]-CZ--OH-[HH] |==|  0.66885
USER: genes 8 Torsion [N]-C--CA-[N] |==|  0.46393
USER: genes 9 Torsion [C]-CA--CB-[CG] |==|  0.35542
USER: genes 10 Torsion [CA]-CB--CG-[CD1] |==|  0.51225
USER: genes 11 Torsion [CE1]-CZ--OH-[HH] |==|  0.70103
USER: genes 12 Torsion [C]-CA--N-[H2] |==|  0.90835
ROOT
ATOM      1  C   TYR B3001      23.440  23.004  26.290  0.70 44.28 LIG 0.25  C 
ATOM      2 O    TYR B3001      22.292  23.195  26.693  0.70 44.11 LIG-0.27  OA
ATOM      3  N   PRO B3002      24.496  23.718  26.740  0.70 46.07 LIG-0.34  N 
ATOM      4  CA  PRO B3002      24.527  24.765  27.772  0.70 46.91 LIG 0.18  C 
ATOM      5  CB  PRO B3002      25.973  25.260  27.716  0.70 46.92 LIG 0.04  C 
ATOM      6  CG  PRO B3002      26.317  25.088  26.290  0.70 47.16 LIG 0.02  C 
ATOM      7  CD  PRO B3002      25.782  23.700  26.018  0.70 47.04 LIG 0.13  C 
ENDROOT
BRANCH 4 8
ATOM      8  C   PRO B3002      23.556  25.934  27.707  0.70 47.26 LIG 0.24  C 
ATOM      9  N   TYR B3003      23.124  26.366  28.893  0.70 47.47 LIG-0.34  N 
ATOM     10 H    TYR B3003      23.351  25.990  29.633  0.70 47.47 LIG 0.16  HD
ATOM     11 O    PRO B3002      23.269  26.457  26.619  0.70 46.37 LIG-0.27  OA
BRANCH 9 12
ATOM     12  CA  TYR B3003      22.230  27.506  29.078  0.70 47.51 LIG 0.19  C 
BRANCH 12 13
ATOM     13  C   TYR B3003      21.588  27.589  30.454  0.70 47.80 LIG 0.20  C 
ATOM     14 OXT  TYR B3003      20.769  28.508  30.657  0.70 46.55 LIG-0.65  OA
ATOM     15 O    TYR B3003      21.929  26.760  31.326  0.70 50.35 LIG-0.65  OA
ENDBRANCH 12 13
BRANCH 12 16
ATOM     16  CB  TYR B3003      21.160  27.510  27.981  0.70 48.13 LIG 0.07  C 
BRANCH 16 17
ATOM     17  CG  TYR B3003      21.071  28.794  27.189  0.70 49.00 LIG-0.06  A 
ATOM     18  CD2 TYR B3003      21.860  29.903  27.519  0.70 49.34 LIG 0.01  A 
ATOM     19  CE2 TYR B3003      21.771  31.089  26.791  0.70 49.34 LIG 0.04  A 
ATOM     20  CZ  TYR B3003      20.888  31.169  25.718  0.70 49.55 LIG 0.07  A 
ATOM     21  CE1 TYR B3003      20.099  30.086  25.375  0.70 48.63 LIG 0.04  A 
ATOM     22  CD1 TYR B3003      20.194  28.907  26.109  0.70 49.33 LIG 0.01  A 
BRANCH 20 23
ATOM     23 OH   TYR B3003      20.810  32.327  24.971  0.70 50.92 LIG-0.36  OA
ATOM     24 HH   TYR B3003      20.032  32.639  25.018  0.70 50.92 LIG 0.22  HD
ENDBRANCH 20 23
ENDBRANCH 16 17
ENDBRANCH 12 16
ENDBRANCH 9 12
ENDBRANCH 4 8
BRANCH 1 25
ATOM     25  CA  TYR B3001      23.730  21.959  25.212  0.70 43.08 LIG 0.28  C 
BRANCH 25 26
ATOM     26  CB  TYR B3001      23.981  22.621  23.842  0.70 40.59 LIG 0.08  C 
BRANCH 26 27
ATOM     27  CG  TYR B3001      25.273  22.175  23.173  0.70 39.24 LIG-0.06  A 
ATOM     28  CD1 TYR B3001      25.695  22.748  21.970  0.70 40.30 LIG 0.01  A 
ATOM     29  CE1 TYR B3001      26.853  22.284  21.304  0.70 38.36 LIG 0.04  A 
ATOM     30  CZ  TYR B3001      27.596  21.243  21.852  0.70 37.05 LIG 0.07  A 
ATOM     31  CE2 TYR B3001      27.198  20.667  23.054  0.70 37.49 LIG 0.04  A 
ATOM     32  CD2 TYR B3001      26.042  21.136  23.707  0.70 38.19 LIG 0.01  A 
BRANCH 30 33
ATOM     33 OH   TYR B3001      28.712  20.760  21.198  0.70 32.30 LIG-0.36  OA
ATOM     34 HH   TYR B3001      28.543  20.004  20.875  0.70 32.30 LIG 0.22  HD
ENDBRANCH 30 33
ENDBRANCH 26 27
ENDBRANCH 25 26
BRANCH 25 35
ATOM     35  N   TYR B3001      22.486  21.135  25.158  0.70 42.81 LIG-0.07  N 
ATOM     36 H3   TYR B3001      21.906  21.509  24.595  0.70 42.81 LIG 0.28  HD
ATOM     37 H2   TYR B3001      22.124  21.089  25.969  0.70 42.81 LIG 0.28  HD
ATOM     38 H1   TYR B3001      22.685  20.315  24.875  0.70 42.81 LIG 0.28  HD
ENDBRANCH 25 35
ENDBRANCH 1 25
TORSDOF 11
ENDMDL
MODEL 13
USER: ADFR SOLUTION from run 105
USER: SCORE 12.286518 LL:  -2.387 LR:  -9.900 RR:   0.000 FEB:  -6.618
USER: RMSD 16.267958
USER: SEED 104
USER: STATUS no improvement in best 24 clusters for 5 generations
USER: GENES 13
USER: genes 0 Translation |==|  0.92061 0.12688 0.32399
USER: genes 1 Rotation |==|  0.28334 0.56531 0.36819 0.92593
USER: genes 2 Torsion [N]-CA--C-[O] |==|  0.07042
USER: genes 3 Torsion [C]-N--CA-[C] |==|  0.56558
USER: genes 4 Torsion [N]-CA--C-[OXT] |==|  0.97523
USER: genes 5 Torsion [N]-CA--CB-[CG] |==|  0.98892
USER: genes 6 Torsion [CA]-CB--CG-[CD2] |==|  0.69239
USER: genes 7 Torsion [CE2]-CZ--OH-[HH] |==|  0.06771
USER: genes 8 Torsion [N]-C--CA-[N] |==|  0.26902
USER: genes 9 Torsion [C]-CA--CB-[CG] |==|  0.18930
USER: genes 10 Torsion [CA]-CB--CG-[CD1] |==|  0.96678
USER: genes 11 Torsion [CE1]-CZ--OH-[HH] |==|  0.28925
USER: genes 12 Torsion [C]-CA--N-[H2] |==|  0.72376
ROOT
ATOM      1  C   TYR B3001      26.678  22.316  22.690  0.70 44.28 LIG 0.25  C 
ATOM      2 O    TYR B3001      25.475  22.445  22.460  0.70 44.11 LIG-0.27  OA
ATOM      3  N   PRO B3002      27.220  22.585  23.898  0.70 46.07 LIG-0.34  N 
ATOM      4  CA  PRO B3002      26.547  23.007  25.135  0.70 46.91 LIG 0.18  C 
ATOM      5  CB  PRO B3002      27.714  23.272  26.088  0.70 46.92 LIG 0.04  C 
ATOM      6  CG  PRO B3002      28.772  23.749  25.175  0.70 47.16 LIG 0.02  C 
ATOM      7  CD  PRO B3002      28.678  22.739  24.054  0.70 47.04 LIG 0.13  C 
ENDROOT
BRANCH 4 8
ATOM      8  C   PRO B3002      25.585  24.185  25.123  0.70 47.26 LIG 0.24  C 
ATOM      9  N   TYR B3003      25.503  24.851  26.275  0.70 47.47 LIG-0.34  N 
ATOM     10 H    TYR B3003      25.936  24.612  26.980  0.70 47.47 LIG 0.16  HD
ATOM     11 O    PRO B3002      24.994  24.506  24.080  0.70 46.37 LIG-0.27  OA
BRANCH 9 12
ATOM     12  CA  TYR B3003      24.687  26.044  26.480  0.70 47.51 LIG 0.19  C 
BRANCH 12 13
ATOM     13  C   TYR B3003      25.150  26.938  27.620  0.70 47.80 LIG 0.20  C 
ATOM     14 OXT  TYR B3003      26.049  26.505  28.368  0.70 46.55 LIG-0.65  OA
ATOM     15 O    TYR B3003      24.591  28.046  27.778  0.70 50.35 LIG-0.65  OA
ENDBRANCH 12 13
BRANCH 12 16
ATOM     16  CB  TYR B3003      23.220  25.643  26.671  0.70 48.13 LIG 0.07  C 
BRANCH 16 17
ATOM     17  CG  TYR B3003      22.943  24.165  26.511  0.70 49.00 LIG-0.06  A 
ATOM     18  CD2 TYR B3003      22.215  23.680  25.418  0.70 49.34 LIG 0.01  A 
ATOM     19  CE2 TYR B3003      21.956  22.316  25.278  0.70 49.34 LIG 0.04  A 
ATOM     20  CZ  TYR B3003      22.431  21.427  26.236  0.70 49.55 LIG 0.07  A 
ATOM     21  CE1 TYR B3003      23.152  21.885  27.324  0.70 48.63 LIG 0.04  A 
ATOM     22  CD1 TYR B3003      23.405  23.247  27.457  0.70 49.33 LIG 0.01  A 
BRANCH 20 23
ATOM     23 OH   TYR B3003      22.206  20.072  26.095  0.70 50.92 LIG-0.36  OA
ATOM     24 HH   TYR B3003      22.087  19.890  25.284  0.70 50.92 LIG 0.22  HD
ENDBRANCH 20 23
ENDBRANCH 16 17
ENDBRANCH 12 16
ENDBRANCH 9 12
ENDBRANCH 4 8
BRANCH 1 25
ATOM     25  CA  TYR B3001      27.644  21.876  21.589  0.70 43.08 LIG 0.28  C 
BRANCH 25 26
ATOM     26  CB  TYR B3001      27.206  22.413  20.211  0.70 40.59 LIG 0.08  C 
BRANCH 26 27
ATOM     27  CG  TYR B3001      27.328  23.924  20.075  0.70 39.24 LIG-0.06  A 
ATOM     28  CD1 TYR B3001      27.559  24.730  21.193  0.70 40.30 LIG 0.01  A 
ATOM     29  CE1 TYR B3001      27.596  26.140  21.086  0.70 38.36 LIG 0.04  A 
ATOM     30  CZ  TYR B3001      27.405  26.744  19.847  0.70 37.05 LIG 0.07  A 
ATOM     31  CE2 TYR B3001      27.185  25.958  18.721  0.70 37.49 LIG 0.04  A 
ATOM     32  CD2 TYR B3001      27.149  24.556  18.841  0.70 38.19 LIG 0.01  A 
BRANCH 30 33
ATOM     33 OH   TYR B3001      27.409  28.119  19.732  0.70 32.30 LIG-0.36  OA
ATOM     34 HH   TYR B3001      28.136  28.371  19.396  0.70 32.30 LIG 0.22  HD
ENDBRANCH 30 33
ENDBRANCH 26 27
ENDBRANCH 25 26
BRANCH 25 35
ATOM     35  N   TYR B3001      27.560  20.385  21.602  0.70 42.81 LIG-0.07  N 
ATOM     36 H3   TYR B3001      26.800  20.134  21.993  0.70 42.81 LIG 0.28  HD
ATOM     37 H2   TYR B3001      28.250  20.052  22.055  0.70 42.81 LIG 0.28  HD
ATOM     38 H1   TYR B3001      27.578  20.079  20.767  0.70 42.81 LIG 0.28  HD
ENDBRANCH 25 35
ENDBRANCH 1 25
TORSDOF 11
ENDMDL
MODEL 14
USER: ADFR SOLUTION from run 118
USER: SCORE 12.123870 LL:  -2.266 LR:  -9.858 RR:   0.000 FEB:  -6.576
USER: RMSD 9.791698
USER: SEED 117
USER: STATUS no improvement in best 22 clusters for 5 generations
USER: GENES 13
USER: genes 0 Translation |==|  0.40247 0.29779 0.57978
USER: genes 1 Rotation |==|  0.06286 0.37261 0.52139 0.70547
USER: genes 2 Torsion [N]-CA--C-[O] |==|  0.37464
USER: genes 3 Torsion [C]-N--CA-[C] |==|  0.19478
USER: genes 4 Torsion [N]-CA--C-[OXT] |==|  0.65754
USER: genes 5 Torsion [N]-CA--CB-[CG] |==|  0.65351
USER: genes 6 Torsion [CA]-CB--CG-[CD2] |==|  0.35816
USER: genes 7 Torsion [CE2]-CZ--OH-[HH] |==|  0.50402
USER: genes 8 Torsion [N]-C--CA-[N] |==|  0.43279
USER: genes 9 Torsion [C]-CA--CB-[CG] |==|  0.68257
USER: genes 10 Torsion [CA]-CB--CG-[CD1] |==|  0.28867
USER: genes 11 Torsion [CE1]-CZ--OH-[HH] |==|  0.35634
USER: genes 12 Torsion [C]-CA--N-[H2] |==|  0.17277
ROOT
ATOM      1  C   TYR B3001      11.134  27.444  30.363  0.70 44.28 LIG 0.25  C 
ATOM      2 O    TYR B3001      10.312  26.601  30.725  0.70 44.11 LIG-0.27  OA
ATOM      3  N   PRO B3002      10.802  28.736  30.146  0.70 46.07 LIG-0.34  N 
ATOM      4  CA  PRO B3002       9.501  29.395  30.328  0.70 46.91 LIG 0.18  C 
ATOM      5  CB  PRO B3002       9.751  30.804  29.788  0.70 46.92 LIG 0.04  C 
ATOM      6  CG  PRO B3002      10.742  30.568  28.719  0.70 47.16 LIG 0.02  C 
ATOM      7  CD  PRO B3002      11.710  29.635  29.410  0.70 47.04 LIG 0.13  C 
ENDROOT
BRANCH 4 8
ATOM      8  C   PRO B3002       8.245  28.798  29.712  0.70 47.26 LIG 0.24  C 
ATOM      9  N   TYR B3003       8.400  28.333  28.471  0.70 47.47 LIG-0.34  N 
ATOM     10 H    TYR B3003       9.143  28.397  28.042  0.70 47.47 LIG 0.16  HD
ATOM     11 O    PRO B3002       7.198  28.710  30.372  0.70 46.37 LIG-0.27  OA
BRANCH 9 12
ATOM     12  CA  TYR B3003       7.348  27.671  27.703  0.70 47.51 LIG 0.19  C 
BRANCH 12 13
ATOM     13  C   TYR B3003       6.221  28.588  27.253  0.70 47.80 LIG 0.20  C 
ATOM     14 OXT  TYR B3003       5.060  28.289  27.595  0.70 46.55 LIG-0.65  OA
ATOM     15 O    TYR B3003       6.501  29.575  26.538  0.70 50.35 LIG-0.65  OA
ENDBRANCH 12 13
BRANCH 12 16
ATOM     16  CB  TYR B3003       6.794  26.484  28.498  0.70 48.13 LIG 0.07  C 
BRANCH 16 17
ATOM     17  CG  TYR B3003       6.839  25.160  27.771  0.70 49.00 LIG-0.06  A 
ATOM     18  CD2 TYR B3003       7.399  24.025  28.370  0.70 49.34 LIG 0.01  A 
ATOM     19  CE2 TYR B3003       7.445  22.806  27.693  0.70 49.34 LIG 0.04  A 
ATOM     20  CZ  TYR B3003       6.922  22.716  26.407  0.70 49.55 LIG 0.07  A 
ATOM     21  CE1 TYR B3003       6.364  23.826  25.797  0.70 48.63 LIG 0.04  A 
ATOM     22  CD1 TYR B3003       6.324  25.038  26.479  0.70 49.33 LIG 0.01  A 
BRANCH 20 23
ATOM     23 OH   TYR B3003       6.935  21.510  25.737  0.70 50.92 LIG-0.36  OA
ATOM     24 HH   TYR B3003       6.607  21.611  24.970  0.70 50.92 LIG 0.22  HD
ENDBRANCH 20 23
ENDBRANCH 16 17
ENDBRANCH 12 16
ENDBRANCH 9 12
ENDBRANCH 4 8
BRANCH 1 25
ATOM     25  CA  TYR B3001      12.590  27.057  30.099  0.70 43.08 LIG 0.28  C 
BRANCH 25 26
ATOM     26  CB  TYR B3001      12.814  26.699  28.615  0.70 40.59 LIG 0.08  C 
BRANCH 26 27
ATOM     27  CG  TYR B3001      13.179  25.239  28.385  0.70 39.24 LIG-0.06  A 
ATOM     28  CD1 TYR B3001      12.239  24.333  27.886  0.70 40.30 LIG 0.01  A 
ATOM     29  CE1 TYR B3001      12.548  22.961  27.744  0.70 38.36 LIG 0.04  A 
ATOM     30  CZ  TYR B3001      13.811  22.495  28.100  0.70 37.05 LIG 0.07  A 
ATOM     31  CE2 TYR B3001      14.763  23.384  28.589  0.70 37.49 LIG 0.04  A 
ATOM     32  CD2 TYR B3001      14.443  24.748  28.727  0.70 38.19 LIG 0.01  A 
BRANCH 30 33
ATOM     33 OH   TYR B3001      14.117  21.154  27.995  0.70 32.30 LIG-0.36  OA
ATOM     34 HH   TYR B3001      14.829  21.062  27.559  0.70 32.30 LIG 0.22  HD
ENDBRANCH 30 33
ENDBRANCH 26 27
ENDBRANCH 25 26
BRANCH 25 35
ATOM     35  N   TYR B3001      12.809  25.850  30.950  0.70 42.81 LIG-0.07  N 
ATOM     36 H3   TYR B3001      13.654  25.582  30.874  0.70 42.81 LIG 0.28  HD
ATOM     37 H2   TYR B3001      12.266  25.197  30.685  0.70 42.81 LIG 0.28  HD
ATOM     38 H1   TYR B3001      12.638  26.051  31.800  0.70 42.81 LIG 0.28  HD
ENDBRANCH 25 35
ENDBRANCH 1 25
TORSDOF 11
ENDMDL
MODEL 15
USER: ADFR SOLUTION from run 81
USER: SCORE 12.735816 LL:  -2.873 LR:  -9.863 RR:   0.000 FEB:  -6.582
USER: RMSD 11.738026
USER: SEED 80
USER: STATUS no improvement in best 36 clusters for 5 generations
USER: GENES 13
USER: genes 0 Translation |==|  0.35524 0.12179 0.54132
USER: genes 1 Rotation |==|  0.18430 0.41560 0.24774 0.78209
USER: genes 2 Torsion [N]-CA--C-[O] |==|  0.84281
USER: genes 3 Torsion [C]-N--CA-[C] |==|  0.61547
USER: genes 4 Torsion [N]-CA--C-[OXT] |==|  0.87987
USER: genes 5 Torsion [N]-CA--CB-[CG] |==|  0.09777
USER: genes 6 Torsion [CA]-CB--CG-[CD2] |==|  0.18908
USER: genes 7 Torsion [CE2]-CZ--OH-[HH] |==|  0.52437
USER: genes 8 Torsion [N]-C--CA-[N] |==|  0.36987
USER: genes 9 Torsion [C]-CA--CB-[CG] |==|  0.20171
USER: genes 10 Torsion [CA]-CB--CG-[CD1] |==|  0.29457
USER: genes 11 Torsion [CE1]-CZ--OH-[HH] |==|  0.85549
USER: genes 12 Torsion [C]-CA--N-[H2] |==|  0.70563
ROOT
ATOM      1  C   TYR B3001       9.717  22.164  29.210  0.70 44.28 LIG 0.25  C 
ATOM      2 O    TYR B3001       8.867  22.070  28.323  0.70 44.11 LIG-0.27  OA
ATOM      3  N   PRO B3002       9.839  23.263  29.986  0.70 46.07 LIG-0.34  N 
ATOM      4  CA  PRO B3002       9.016  24.482  29.992  0.70 46.91 LIG 0.18  C 
ATOM      5  CB  PRO B3002       9.744  25.383  30.990  0.70 46.92 LIG 0.04  C 
ATOM      6  CG  PRO B3002      11.156  24.991  30.808  0.70 47.16 LIG 0.02  C 
ATOM      7  CD  PRO B3002      11.049  23.483  30.799  0.70 47.04 LIG 0.13  C 
ENDROOT
BRANCH 4 8
ATOM      8  C   PRO B3002       8.741  25.228  28.696  0.70 47.26 LIG 0.24  C 
ATOM      9  N   TYR B3003       7.451  25.454  28.445  0.70 47.47 LIG-0.34  N 
ATOM     10 H    TYR B3003       6.823  25.170  28.960  0.70 47.47 LIG 0.16  HD
ATOM     11 O    PRO B3002       9.678  25.635  27.990  0.70 46.37 LIG-0.27  OA
BRANCH 9 12
ATOM     12  CA  TYR B3003       6.954  26.196  27.290  0.70 47.51 LIG 0.19  C 
BRANCH 12 13
ATOM     13  C   TYR B3003       5.810  27.150  27.595  0.70 47.80 LIG 0.20  C 
ATOM     14 OXT  TYR B3003       4.900  26.742  28.345  0.70 46.55 LIG-0.65  OA
ATOM     15 O    TYR B3003       5.812  28.280  27.060  0.70 50.35 LIG-0.65  OA
ENDBRANCH 12 13
BRANCH 12 16
ATOM     16  CB  TYR B3003       6.560  25.219  26.176  0.70 48.13 LIG 0.07  C 
BRANCH 16 17
ATOM     17  CG  TYR B3003       5.965  23.917  26.659  0.70 49.00 LIG-0.06  A 
ATOM     18  CD2 TYR B3003       4.709  23.881  27.278  0.70 49.34 LIG 0.01  A 
ATOM     19  CE2 TYR B3003       4.166  22.678  27.729  0.70 49.34 LIG 0.04  A 
ATOM     20  CZ  TYR B3003       4.880  21.497  27.555  0.70 49.55 LIG 0.07  A 
ATOM     21  CE1 TYR B3003       6.122  21.509  26.946  0.70 48.63 LIG 0.04  A 
ATOM     22  CD1 TYR B3003       6.657  22.715  26.502  0.70 49.33 LIG 0.01  A 
BRANCH 20 23
ATOM     23 OH   TYR B3003       4.342  20.295  27.971  0.70 50.92 LIG-0.36  OA
ATOM     24 HH   TYR B3003       4.924  19.693  27.915  0.70 50.92 LIG 0.22  HD
ENDBRANCH 20 23
ENDBRANCH 16 17
ENDBRANCH 12 16
ENDBRANCH 9 12
ENDBRANCH 4 8
BRANCH 1 25
ATOM     25  CA  TYR B3001      10.723  21.038  29.454  0.70 43.08 LIG 0.28  C 
BRANCH 25 26
ATOM     26  CB  TYR B3001      11.739  20.932  28.298  0.70 40.59 LIG 0.08  C 
BRANCH 26 27
ATOM     27  CG  TYR B3001      12.759  22.062  28.274  0.70 39.24 LIG-0.06  A 
ATOM     28  CD1 TYR B3001      14.082  21.845  28.666  0.70 40.30 LIG 0.01  A 
ATOM     29  CE1 TYR B3001      15.015  22.906  28.720  0.70 38.36 LIG 0.04  A 
ATOM     30  CZ  TYR B3001      14.617  24.194  28.373  0.70 37.05 LIG 0.07  A 
ATOM     31  CE2 TYR B3001      13.307  24.428  27.970  0.70 37.49 LIG 0.04  A 
ATOM     32  CD2 TYR B3001      12.388  23.364  27.922  0.70 38.19 LIG 0.01  A 
BRANCH 30 33
ATOM     33 OH   TYR B3001      15.508  25.245  28.449  0.70 32.30 LIG-0.36  OA
ATOM     34 HH   TYR B3001      15.861  25.259  29.211  0.70 32.30 LIG 0.22  HD
ENDBRANCH 30 33
ENDBRANCH 26 27
ENDBRANCH 25 26
BRANCH 25 35
ATOM     35  N   TYR B3001       9.885  19.803  29.507  0.70 42.81 LIG-0.07  N 
ATOM     36 H3   TYR B3001       9.073  19.981  29.189  0.70 42.81 LIG 0.28  HD
ATOM     37 H2   TYR B3001       9.819  19.525  30.349  0.70 42.81 LIG 0.28  HD
ATOM     38 H1   TYR B3001      10.263  19.167  29.013  0.70 42.81 LIG 0.28  HD
ENDBRANCH 25 35
ENDBRANCH 1 25
TORSDOF 11
ENDMDL
MODEL 16
USER: ADFR SOLUTION from run 103
USER: SCORE 11.980900 LL:  -2.116 LR:  -9.865 RR:   0.000 FEB:  -6.584
USER: RMSD 12.672600
USER: SEED 102
USER: STATUS no improvement in best 11 clusters for 5 generations
USER: GENES 13
USER: genes 0 Translation |==|  0.47559 0.16331 0.50115
USER: genes 1 Rotation |==|  0.65866 0.31802 0.07460 0.60367
USER: genes 2 Torsion [N]-CA--C-[O] |==|  0.90033
USER: genes 3 Torsion [C]-N--CA-[C] |==|  0.61255
USER: genes 4 Torsion [N]-CA--C-[OXT] |==|  0.92889
USER: genes 5 Torsion [N]-CA--CB-[CG] |==|  0.77073
USER: genes 6 Torsion [CA]-CB--CG-[CD2] |==|  0.20074
USER: genes 7 Torsion [CE2]-CZ--OH-[HH] |==|  0.37217
USER: genes 8 Torsion [N]-C--CA-[N] |==|  0.47633
USER: genes 9 Torsion [C]-CA--CB-[CG] |==|  0.34572
USER: genes 10 Torsion [CA]-CB--CG-[CD1] |==|  0.45352
USER: genes 11 Torsion [CE1]-CZ--OH-[HH] |==|  0.42773
USER: genes 12 Torsion [C]-CA--N-[H2] |==|  0.13137
ROOT
ATOM      1  C   TYR B3001      13.328  23.409  28.005  0.70 44.28 LIG 0.25  C 
ATOM      2 O    TYR B3001      14.480  23.846  27.987  0.70 44.11 LIG-0.27  OA
ATOM      3  N   PRO B3002      12.244  24.217  27.996  0.70 46.07 LIG-0.34  N 
ATOM      4  CA  PRO B3002      12.190  25.684  27.914  0.70 46.91 LIG 0.18  C 
ATOM      5  CB  PRO B3002      10.700  25.983  28.084  0.70 46.92 LIG 0.04  C 
ATOM      6  CG  PRO B3002      10.255  24.899  28.982  0.70 47.16 LIG 0.02  C 
ATOM      7  CD  PRO B3002      10.910  23.694  28.345  0.70 47.04 LIG 0.13  C 
ENDROOT
BRANCH 4 8
ATOM      8  C   PRO B3002      13.021  26.536  28.861  0.70 47.26 LIG 0.24  C 
ATOM      9  N   TYR B3003      13.448  27.689  28.345  0.70 47.47 LIG-0.34  N 
ATOM     10 H    TYR B3003      13.293  27.917  27.529  0.70 47.47 LIG 0.16  HD
ATOM     11 O    PRO B3002      13.206  26.179  30.035  0.70 46.37 LIG-0.27  OA
BRANCH 9 12
ATOM     12  CA  TYR B3003      14.214  28.689  29.084  0.70 47.51 LIG 0.19  C 
BRANCH 12 13
ATOM     13  C   TYR B3003      13.812  30.129  28.803  0.70 47.80 LIG 0.20  C 
ATOM     14 OXT  TYR B3003      13.281  30.378  27.702  0.70 46.55 LIG-0.65  OA
ATOM     15 O    TYR B3003      14.060  30.999  29.666  0.70 50.35 LIG-0.65  OA
ENDBRANCH 12 13
BRANCH 12 16
ATOM     16  CB  TYR B3003      15.712  28.487  28.828  0.70 48.13 LIG 0.07  C 
BRANCH 16 17
ATOM     17  CG  TYR B3003      16.362  27.424  29.683  0.70 49.00 LIG-0.06  A 
ATOM     18  CD2 TYR B3003      16.111  26.064  29.461  0.70 49.34 LIG 0.01  A 
ATOM     19  CE2 TYR B3003      16.706  25.086  30.257  0.70 49.34 LIG 0.04  A 
ATOM     20  CZ  TYR B3003      17.566  25.467  31.283  0.70 49.55 LIG 0.07  A 
ATOM     21  CE1 TYR B3003      17.828  26.805  31.519  0.70 48.63 LIG 0.04  A 
ATOM     22  CD1 TYR B3003      17.227  27.774  30.721  0.70 49.33 LIG 0.01  A 
BRANCH 20 23
ATOM     23 OH   TYR B3003      18.185  24.508  32.060  0.70 50.92 LIG-0.36  OA
ATOM     24 HH   TYR B3003      18.999  24.697  32.143  0.70 50.92 LIG 0.22  HD
ENDBRANCH 20 23
ENDBRANCH 16 17
ENDBRANCH 12 16
ENDBRANCH 9 12
ENDBRANCH 4 8
BRANCH 1 25
ATOM     25  CA  TYR B3001      13.060  21.905  28.078  0.70 43.08 LIG 0.28  C 
BRANCH 25 26
ATOM     26  CB  TYR B3001      12.516  21.500  29.464  0.70 40.59 LIG 0.08  C 
BRANCH 26 27
ATOM     27  CG  TYR B3001      11.187  20.761  29.408  0.70 39.24 LIG-0.06  A 
ATOM     28  CD1 TYR B3001      10.726  20.027  30.505  0.70 40.30 LIG 0.01  A 
ATOM     29  CE1 TYR B3001       9.530  19.275  30.433  0.70 38.36 LIG 0.04  A 
ATOM     30  CZ  TYR B3001       8.790  19.263  29.254  0.70 37.05 LIG 0.07  A 
ATOM     31  CE2 TYR B3001       9.228  19.996  28.156  0.70 37.49 LIG 0.04  A 
ATOM     32  CD2 TYR B3001      10.420  20.739  28.239  0.70 38.19 LIG 0.01  A 
BRANCH 30 33
ATOM     33 OH   TYR B3001       7.638  18.510  29.160  0.70 32.30 LIG-0.36  OA
ATOM     34 HH   TYR B3001       7.128  18.848  28.585  0.70 32.30 LIG 0.22  HD
ENDBRANCH 30 33
ENDBRANCH 26 27
ENDBRANCH 25 26
BRANCH 25 35
ATOM     35  N   TYR B3001      14.399  21.284  27.858  0.70 42.81 LIG-0.07  N 
ATOM     36 H3   TYR B3001      14.364  20.419  28.066  0.70 42.81 LIG 0.28  HD
ATOM     37 H2   TYR B3001      15.003  21.688  28.371  0.70 42.81 LIG 0.28  HD
ATOM     38 H1   TYR B3001      14.631  21.372  27.003  0.70 42.81 LIG 0.28  HD
ENDBRANCH 25 35
ENDBRANCH 1 25
TORSDOF 11
ENDMDL
MODEL 17
USER: ADFR SOLUTION from run 62
USER: SCORE 11.845902 LL:  -1.983 LR:  -9.863 RR:   0.000 FEB:  -6.581
USER: RMSD 13.009721
USER: SEED 61
USER: STATUS no improvement in best 20 clusters for 5 generations
USER: GENES 13
USER: genes 0 Translation |==|  0.43379 0.13616 0.58751
USER: genes 1 Rotation |==|  0.24608 0.91439 0.56991 0.59447
USER: genes 2 Torsion [N]-CA--C-[O] |==|  0.94732
USER: genes 3 Torsion [C]-N--CA-[C] |==|  0.24385
USER: genes 4 Torsion [N]-CA--C-[OXT] |==|  0.69633
USER: genes 5 Torsion [N]-CA--CB-[CG] |==|  0.63116
USER: genes 6 Torsion [CA]-CB--CG-[CD2] |==|  0.49371
USER: genes 7 Torsion [CE2]-CZ--OH-[HH] |==|  0.35710
USER: genes 8 Torsion [N]-C--CA-[N] |==|  0.41001
USER: genes 9 Torsion [C]-CA--CB-[CG] |==|  0.35180
USER: genes 10 Torsion [CA]-CB--CG-[CD1] |==|  0.03802
USER: genes 11 Torsion [CE1]-CZ--OH-[HH] |==|  0.71310
USER: genes 12 Torsion [C]-CA--N-[H2] |==|  0.72962
ROOT
ATOM      1  C   TYR B3001      12.074  22.595  30.595  0.70 44.28 LIG 0.25  C 
ATOM      2 O    TYR B3001      12.553  23.118  31.602  0.70 44.11 LIG-0.27  OA
ATOM      3  N   PRO B3002      12.736  22.542  29.418  0.70 46.07 LIG-0.34  N 
ATOM      4  CA  PRO B3002      14.095  23.008  29.105  0.70 46.91 LIG 0.18  C 
ATOM      5  CB  PRO B3002      14.194  22.787  27.595  0.70 46.92 LIG 0.04  C 
ATOM      6  CG  PRO B3002      12.806  23.011  27.145  0.70 47.16 LIG 0.02  C 
ATOM      7  CD  PRO B3002      12.027  22.215  28.167  0.70 47.04 LIG 0.13  C 
ENDROOT
BRANCH 4 8
ATOM      8  C   PRO B3002      14.524  24.421  29.470  0.70 47.26 LIG 0.24  C 
ATOM      9  N   TYR B3003      15.841  24.628  29.441  0.70 47.47 LIG-0.34  N 
ATOM     10 H    TYR B3003      16.405  24.003  29.263  0.70 47.47 LIG 0.16  HD
ATOM     11 O    PRO B3002      13.678  25.298  29.704  0.70 46.37 LIG-0.27  OA
BRANCH 9 12
ATOM     12  CA  TYR B3003      16.478  25.916  29.703  0.70 47.51 LIG 0.19  C 
BRANCH 12 13
ATOM     13  C   TYR B3003      16.784  26.184  31.169  0.70 47.80 LIG 0.20  C 
ATOM     14 OXT  TYR B3003      16.104  27.051  31.754  0.70 46.55 LIG-0.65  OA
ATOM     15 O    TYR B3003      17.718  25.554  31.711  0.70 50.35 LIG-0.65  OA
ENDBRANCH 12 13
BRANCH 12 16
ATOM     16  CB  TYR B3003      15.625  27.046  29.115  0.70 48.13 LIG 0.07  C 
BRANCH 16 17
ATOM     17  CG  TYR B3003      16.396  28.067  28.310  0.70 49.00 LIG-0.06  A 
ATOM     18  CD2 TYR B3003      15.742  29.129  27.673  0.70 49.34 LIG 0.01  A 
ATOM     19  CE2 TYR B3003      16.456  30.065  26.924  0.70 49.34 LIG 0.04  A 
ATOM     20  CZ  TYR B3003      17.837  29.943  26.814  0.70 49.55 LIG 0.07  A 
ATOM     21  CE1 TYR B3003      18.503  28.901  27.435  0.70 48.63 LIG 0.04  A 
ATOM     22  CD1 TYR B3003      17.782  27.971  28.177  0.70 49.33 LIG 0.01  A 
BRANCH 20 23
ATOM     23 OH   TYR B3003      18.560  30.878  26.100  0.70 50.92 LIG-0.36  OA
ATOM     24 HH   TYR B3003      19.194  31.163  26.572  0.70 50.92 LIG 0.22  HD
ENDBRANCH 20 23
ENDBRANCH 16 17
ENDBRANCH 12 16
ENDBRANCH 9 12
ENDBRANCH 4 8
BRANCH 1 25
ATOM     25  CA  TYR B3001      10.664  22.003  30.614  0.70 43.08 LIG 0.28  C 
BRANCH 25 26
ATOM     26  CB  TYR B3001       9.597  23.088  30.358  0.70 40.59 LIG 0.08  C 
BRANCH 26 27
ATOM     27  CG  TYR B3001       8.641  22.751  29.223  0.70 39.24 LIG-0.06  A 
ATOM     28  CD1 TYR B3001       8.574  21.457  28.700  0.70 40.30 LIG 0.01  A 
ATOM     29  CE1 TYR B3001       7.745  21.155  27.594  0.70 38.36 LIG 0.04  A 
ATOM     30  CZ  TYR B3001       6.976  22.158  27.013  0.70 37.05 LIG 0.07  A 
ATOM     31  CE2 TYR B3001       7.022  23.450  27.526  0.70 37.49 LIG 0.04  A 
ATOM     32  CD2 TYR B3001       7.851  23.738  28.625  0.70 38.19 LIG 0.01  A 
BRANCH 30 33
ATOM     33 OH   TYR B3001       6.185  21.885  25.915  0.70 32.30 LIG-0.36  OA
ATOM     34 HH   TYR B3001       6.555  22.182  25.222  0.70 32.30 LIG 0.22  HD
ENDBRANCH 30 33
ENDBRANCH 26 27
ENDBRANCH 25 26
BRANCH 25 35
ATOM     35  N   TYR B3001      10.513  21.461  31.997  0.70 42.81 LIG-0.07  N 
ATOM     36 H3   TYR B3001      11.081  21.875  32.543  0.70 42.81 LIG 0.28  HD
ATOM     37 H2   TYR B3001      10.687  20.588  31.995  0.70 42.81 LIG 0.28  HD
ATOM     38 H1   TYR B3001       9.680  21.595  32.280  0.70 42.81 LIG 0.28  HD
ENDBRANCH 25 35
ENDBRANCH 1 25
TORSDOF 11
ENDMDL
MODEL 18
USER: ADFR SOLUTION from run 14
USER: SCORE 11.553605 LL:  -1.704 LR:  -9.850 RR:   0.000 FEB:  -6.568
USER: RMSD 12.902050
USER: SEED 955946
USER: STATUS no improvement in best 21 clusters for 5 generations
USER: GENES 13
USER: genes 0 Translation |==|  0.42451 0.08701 0.50765
USER: genes 1 Rotation |==|  0.42687 0.27683 0.47049 0.94043
USER: genes 2 Torsion [N]-CA--C-[O] |==|  0.15526
USER: genes 3 Torsion [C]-N--CA-[C] |==|  0.85644
USER: genes 4 Torsion [N]-CA--C-[OXT] |==|  0.24744
USER: genes 5 Torsion [N]-CA--CB-[CG] |==|  0.61681
USER: genes 6 Torsion [CA]-CB--CG-[CD2] |==|  0.63708
USER: genes 7 Torsion [CE2]-CZ--OH-[HH] |==|  0.95263
USER: genes 8 Torsion [N]-C--CA-[N] |==|  0.41323
USER: genes 9 Torsion [C]-CA--CB-[CG] |==|  0.49159
USER: genes 10 Torsion [CA]-CB--CG-[CD1] |==|  0.01055
USER: genes 11 Torsion [CE1]-CZ--OH-[HH] |==|  0.10186
USER: genes 12 Torsion [C]-CA--N-[H2] |==|  0.32758
ROOT
ATOM      1  C   TYR B3001      11.795  21.120  28.200  0.70 44.28 LIG 0.25  C 
ATOM      2 O    TYR B3001      11.578  20.760  27.042  0.70 44.11 LIG-0.27  OA
ATOM      3  N   PRO B3002      10.945  20.852  29.216  0.70 46.07 LIG-0.34  N 
ATOM      4  CA  PRO B3002       9.694  20.082  29.189  0.70 46.91 LIG 0.18  C 
ATOM      5  CB  PRO B3002       9.150  20.261  30.607  0.70 46.92 LIG 0.04  C 
ATOM      6  CG  PRO B3002       9.619  21.615  30.963  0.70 47.16 LIG 0.02  C 
ATOM      7  CD  PRO B3002      11.058  21.563  30.502  0.70 47.04 LIG 0.13  C 
ENDROOT
BRANCH 4 8
ATOM      8  C   PRO B3002       8.620  20.397  28.158  0.70 47.26 LIG 0.24  C 
ATOM      9  N   TYR B3003       7.439  20.743  28.671  0.70 47.47 LIG-0.34  N 
ATOM     10 H    TYR B3003       7.287  20.754  29.518  0.70 47.47 LIG 0.16  HD
ATOM     11 O    PRO B3002       8.886  20.385  26.946  0.70 46.37 LIG-0.27  OA
BRANCH 9 12
ATOM     12  CA  TYR B3003       6.280  21.138  27.875  0.70 47.51 LIG 0.19  C 
BRANCH 12 13
ATOM     13  C   TYR B3003       6.556  22.233  26.857  0.70 47.80 LIG 0.20  C 
ATOM     14 OXT  TYR B3003       6.935  21.885  25.720  0.70 46.55 LIG-0.65  OA
ATOM     15 O    TYR B3003       6.426  23.426  27.208  0.70 50.35 LIG-0.65  OA
ENDBRANCH 12 13
BRANCH 12 16
ATOM     16  CB  TYR B3003       5.127  21.541  28.802  0.70 48.13 LIG 0.07  C 
BRANCH 16 17
ATOM     17  CG  TYR B3003       3.768  21.035  28.376  0.70 49.00 LIG-0.06  A 
ATOM     18  CD2 TYR B3003       2.666  21.895  28.305  0.70 49.34 LIG 0.01  A 
ATOM     19  CE2 TYR B3003       1.411  21.423  27.919  0.70 49.34 LIG 0.04  A 
ATOM     20  CZ  TYR B3003       1.255  20.079  27.595  0.70 49.55 LIG 0.07  A 
ATOM     21  CE1 TYR B3003       2.331  19.211  27.660  0.70 48.63 LIG 0.04  A 
ATOM     22  CD1 TYR B3003       3.578  19.691  28.048  0.70 49.33 LIG 0.01  A 
BRANCH 20 23
ATOM     23 OH   TYR B3003       0.026  19.604  27.184  0.70 50.92 LIG-0.36  OA
ATOM     24 HH   TYR B3003      -0.572  20.155  27.394  0.70 50.92 LIG 0.22  HD
ENDBRANCH 20 23
ENDBRANCH 16 17
ENDBRANCH 12 16
ENDBRANCH 9 12
ENDBRANCH 4 8
BRANCH 1 25
ATOM     25  CA  TYR B3001      13.039  21.939  28.546  0.70 43.08 LIG 0.28  C 
BRANCH 25 26
ATOM     26  CB  TYR B3001      12.798  23.447  28.323  0.70 40.59 LIG 0.08  C 
BRANCH 26 27
ATOM     27  CG  TYR B3001      13.979  24.321  28.721  0.70 39.24 LIG-0.06  A 
ATOM     28  CD1 TYR B3001      15.178  23.754  29.161  0.70 40.30 LIG 0.01  A 
ATOM     29  CE1 TYR B3001      16.251  24.560  29.606  0.70 38.36 LIG 0.04  A 
ATOM     30  CZ  TYR B3001      16.122  25.946  29.604  0.70 37.05 LIG 0.07  A 
ATOM     31  CE2 TYR B3001      14.940  26.529  29.159  0.70 37.49 LIG 0.04  A 
ATOM     32  CD2 TYR B3001      13.879  25.716  28.720  0.70 38.19 LIG 0.01  A 
BRANCH 30 33
ATOM     33 OH   TYR B3001      17.149  26.745  30.063  0.70 32.30 LIG-0.36  OA
ATOM     34 HH   TYR B3001      17.887  26.406  29.845  0.70 32.30 LIG 0.22  HD
ENDBRANCH 30 33
ENDBRANCH 26 27
ENDBRANCH 25 26
BRANCH 25 35
ATOM     35  N   TYR B3001      14.079  21.446  27.595  0.70 42.81 LIG-0.07  N 
ATOM     36 H3   TYR B3001      14.776  21.135  28.052  0.70 42.81 LIG 0.28  HD
ATOM     37 H2   TYR B3001      14.343  22.114  27.070  0.70 42.81 LIG 0.28  HD
ATOM     38 H1   TYR B3001      13.739  20.793  27.095  0.70 42.81 LIG 0.28  HD
ENDBRANCH 25 35
ENDBRANCH 1 25
TORSDOF 11
ENDMDL
MODEL 19
USER: ADFR SOLUTION from run 58
USER: SCORE 12.486298 LL:  -2.660 LR:  -9.826 RR:   0.000 FEB:  -6.545
USER: RMSD 11.481819
USER: SEED 57
USER: STATUS no improvement in best 29 clusters for 5 generations
USER: GENES 13
USER: genes 0 Translation |==|  0.35442 0.19820 0.60010
USER: genes 1 Rotation |==|  0.04303 0.43633 0.34120 0.60911
USER: genes 2 Torsion [N]-CA--C-[O] |==|  0.80329
USER: genes 3 Torsion [C]-N--CA-[C] |==|  0.66225
USER: genes 4 Torsion [N]-CA--C-[OXT] |==|  0.72891
USER: genes 5 Torsion [N]-CA--CB-[CG] |==|  0.78437
USER: genes 6 Torsion [CA]-CB--CG-[CD2] |==|  0.77399
USER: genes 7 Torsion [CE2]-CZ--OH-[HH] |==|  0.74943
USER: genes 8 Torsion [N]-C--CA-[N] |==|  0.34552
USER: genes 9 Torsion [C]-CA--CB-[CG] |==|  0.24929
USER: genes 10 Torsion [CA]-CB--CG-[CD1] |==|  0.55286
USER: genes 11 Torsion [CE1]-CZ--OH-[HH] |==|  0.79742
USER: genes 12 Torsion [C]-CA--N-[H2] |==|  0.45853
ROOT
ATOM      1  C   TYR B3001       9.693  24.456  30.973  0.70 44.28 LIG 0.25  C 
ATOM      2 O    TYR B3001       8.505  24.207  30.759  0.70 44.11 LIG-0.27  OA
ATOM      3  N   PRO B3002      10.277  25.609  30.577  0.70 46.07 LIG-0.34  N 
ATOM      4  CA  PRO B3002       9.668  26.765  29.903  0.70 46.91 LIG 0.18  C 
ATOM      5  CB  PRO B3002      10.869  27.666  29.614  0.70 46.92 LIG 0.04  C 
ATOM      6  CG  PRO B3002      11.957  26.691  29.394  0.70 47.16 LIG 0.02  C 
ATOM      7  CD  PRO B3002      11.745  25.741  30.550  0.70 47.04 LIG 0.13  C 
ENDROOT
BRANCH 4 8
ATOM      8  C   PRO B3002       8.830  26.568  28.649  0.70 47.26 LIG 0.24  C 
ATOM      9  N   TYR B3003       7.533  26.840  28.797  0.70 47.47 LIG-0.34  N 
ATOM     10 H    TYR B3003       7.192  27.076  29.551  0.70 47.47 LIG 0.16  HD
ATOM     11 O    PRO B3002       9.364  26.244  27.577  0.70 46.37 LIG-0.27  OA
BRANCH 9 12
ATOM     12  CA  TYR B3003       6.549  26.774  27.719  0.70 47.51 LIG 0.19  C 
BRANCH 12 13
ATOM     13  C   TYR B3003       5.811  28.077  27.456  0.70 47.80 LIG 0.20  C 
ATOM     14 OXT  TYR B3003       4.683  28.218  27.970  0.70 46.55 LIG-0.65  OA
ATOM     15 O    TYR B3003       6.346  28.929  26.714  0.70 50.35 LIG-0.65  OA
ENDBRANCH 12 13
BRANCH 12 16
ATOM     16  CB  TYR B3003       5.558  25.637  27.991  0.70 48.13 LIG 0.07  C 
BRANCH 16 17
ATOM     17  CG  TYR B3003       6.082  24.253  27.683  0.70 49.00 LIG-0.06  A 
ATOM     18  CD2 TYR B3003       6.081  23.754  26.375  0.70 49.34 LIG 0.01  A 
ATOM     19  CE2 TYR B3003       6.560  22.474  26.095  0.70 49.34 LIG 0.04  A 
ATOM     20  CZ  TYR B3003       7.050  21.685  27.131  0.70 49.55 LIG 0.07  A 
ATOM     21  CE1 TYR B3003       7.060  22.158  28.431  0.70 48.63 LIG 0.04  A 
ATOM     22  CD1 TYR B3003       6.578  23.436  28.701  0.70 49.33 LIG 0.01  A 
BRANCH 20 23
ATOM     23 OH   TYR B3003       7.553  20.427  26.864  0.70 50.92 LIG-0.36  OA
ATOM     24 HH   TYR B3003       6.935  19.861  26.918  0.70 50.92 LIG 0.22  HD
ENDBRANCH 20 23
ENDBRANCH 16 17
ENDBRANCH 12 16
ENDBRANCH 9 12
ENDBRANCH 4 8
BRANCH 1 25
ATOM     25  CA  TYR B3001      10.593  23.438  31.675  0.70 43.08 LIG 0.28  C 
BRANCH 25 26
ATOM     26  CB  TYR B3001      10.691  22.127  30.868  0.70 40.59 LIG 0.08  C 
BRANCH 26 27
ATOM     27  CG  TYR B3001      11.830  22.112  29.859  0.70 39.24 LIG-0.06  A 
ATOM     28  CD1 TYR B3001      11.836  21.207  28.794  0.70 40.30 LIG 0.01  A 
ATOM     29  CE1 TYR B3001      12.927  21.136  27.898  0.70 38.36 LIG 0.04  A 
ATOM     30  CZ  TYR B3001      14.019  21.983  28.069  0.70 37.05 LIG 0.07  A 
ATOM     31  CE2 TYR B3001      14.027  22.897  29.116  0.70 37.49 LIG 0.04  A 
ATOM     32  CD2 TYR B3001      12.935  22.957  30.003  0.70 38.19 LIG 0.01  A 
BRANCH 30 33
ATOM     33 OH   TYR B3001      15.104  21.904  27.220  0.70 32.30 LIG-0.36  OA
ATOM     34 HH   TYR B3001      15.543  21.208  27.389  0.70 32.30 LIG 0.22  HD
ENDBRANCH 30 33
ENDBRANCH 26 27
ENDBRANCH 25 26
BRANCH 25 35
ATOM     35  N   TYR B3001       9.910  23.182  32.978  0.70 42.81 LIG-0.07  N 
ATOM     36 H3   TYR B3001      10.035  23.876  33.520  0.70 42.81 LIG 0.28  HD
ATOM     37 H2   TYR B3001      10.248  22.449  33.351  0.70 42.81 LIG 0.28  HD
ATOM     38 H1   TYR B3001       9.038  23.069  32.839  0.70 42.81 LIG 0.28  HD
ENDBRANCH 25 35
ENDBRANCH 1 25
TORSDOF 11
ENDMDL
MODEL 20
USER: ADFR SOLUTION from run 105
USER: SCORE 12.141885 LL:  -2.307 LR:  -9.834 RR:   0.000 FEB:  -6.553
USER: RMSD 12.404158
USER: SEED 104
USER: STATUS no improvement in best 24 clusters for 5 generations
USER: GENES 13
USER: genes 0 Translation |==|  0.49308 0.16875 0.51539
USER: genes 1 Rotation |==|  0.71791 0.31340 0.09058 0.50855
USER: genes 2 Torsion [N]-CA--C-[O] |==|  0.00012
USER: genes 3 Torsion [C]-N--CA-[C] |==|  0.59211
USER: genes 4 Torsion [N]-CA--C-[OXT] |==|  0.48120
USER: genes 5 Torsion [N]-CA--CB-[CG] |==|  0.12243
USER: genes 6 Torsion [CA]-CB--CG-[CD2] |==|  0.65346
USER: genes 7 Torsion [CE2]-CZ--OH-[HH] |==|  0.06324
USER: genes 8 Torsion [N]-C--CA-[N] |==|  0.39645
USER: genes 9 Torsion [C]-CA--CB-[CG] |==|  0.37736
USER: genes 10 Torsion [CA]-CB--CG-[CD1] |==|  0.43374
USER: genes 11 Torsion [CE1]-CZ--OH-[HH] |==|  0.43179
USER: genes 12 Torsion [C]-CA--N-[H2] |==|  0.80073
ROOT
ATOM      1  C   TYR B3001      13.852  23.572  28.432  0.70 44.28 LIG 0.25  C 
ATOM      2 O    TYR B3001      14.991  23.710  28.881  0.70 44.11 LIG-0.27  OA
ATOM      3  N   PRO B3002      13.034  24.621  28.192  0.70 46.07 LIG-0.34  N 
ATOM      4  CA  PRO B3002      13.309  26.057  28.347  0.70 46.91 LIG 0.18  C 
ATOM      5  CB  PRO B3002      11.955  26.701  28.048  0.70 46.92 LIG 0.04  C 
ATOM      6  CG  PRO B3002      11.001  25.688  28.544  0.70 47.16 LIG 0.02  C 
ATOM      7  CD  PRO B3002      11.590  24.418  27.973  0.70 47.04 LIG 0.13  C 
ENDROOT
BRANCH 4 8
ATOM      8  C   PRO B3002      13.884  26.593  29.649  0.70 47.26 LIG 0.24  C 
ATOM      9  N   TYR B3003      14.022  27.918  29.695  0.70 47.47 LIG-0.34  N 
ATOM     10 H    TYR B3003      13.833  28.427  29.027  0.70 47.47 LIG 0.16  HD
ATOM     11 O    PRO B3002      14.127  25.826  30.595  0.70 46.37 LIG-0.27  OA
BRANCH 9 12
ATOM     12  CA  TYR B3003      14.502  28.656  30.860  0.70 47.51 LIG 0.19  C 
BRANCH 12 13
ATOM     13  C   TYR B3003      13.885  30.036  31.033  0.70 47.80 LIG 0.20  C 
ATOM     14 OXT  TYR B3003      14.154  30.664  32.076  0.70 46.55 LIG-0.65  OA
ATOM     15 O    TYR B3003      13.114  30.463  30.146  0.70 50.35 LIG-0.65  OA
ENDBRANCH 12 13
BRANCH 12 16
ATOM     16  CB  TYR B3003      16.031  28.750  30.821  0.70 48.13 LIG 0.07  C 
BRANCH 16 17
ATOM     17  CG  TYR B3003      16.609  29.097  29.468  0.70 49.00 LIG-0.06  A 
ATOM     18  CD2 TYR B3003      17.569  28.279  28.861  0.70 49.34 LIG 0.01  A 
ATOM     19  CE2 TYR B3003      18.105  28.606  27.615  0.70 49.34 LIG 0.04  A 
ATOM     20  CZ  TYR B3003      17.676  29.759  26.966  0.70 49.55 LIG 0.07  A 
ATOM     21  CE1 TYR B3003      16.728  30.582  27.548  0.70 48.63 LIG 0.04  A 
ATOM     22  CD1 TYR B3003      16.201  30.248  28.792  0.70 49.33 LIG 0.01  A 
BRANCH 20 23
ATOM     23 OH   TYR B3003      18.177  30.079  25.720  0.70 50.92 LIG-0.36  OA
ATOM     24 HH   TYR B3003      18.466  29.385  25.347  0.70 50.92 LIG 0.22  HD
ENDBRANCH 20 23
ENDBRANCH 16 17
ENDBRANCH 12 16
ENDBRANCH 9 12
ENDBRANCH 4 8
BRANCH 1 25
ATOM     25  CA  TYR B3001      13.281  22.181  28.154  0.70 43.08 LIG 0.28  C 
BRANCH 25 26
ATOM     26  CB  TYR B3001      12.785  21.510  29.452  0.70 40.59 LIG 0.08  C 
BRANCH 26 27
ATOM     27  CG  TYR B3001      11.433  20.825  29.309  0.70 39.24 LIG-0.06  A 
ATOM     28  CD1 TYR B3001      11.059  19.786  30.166  0.70 40.30 LIG 0.01  A 
ATOM     29  CE1 TYR B3001       9.838  19.094  29.990  0.70 38.36 LIG 0.04  A 
ATOM     30  CZ  TYR B3001       8.985  19.451  28.950  0.70 37.05 LIG 0.07  A 
ATOM     31  CE2 TYR B3001       9.335  20.489  28.094  0.70 37.49 LIG 0.04  A 
ATOM     32  CD2 TYR B3001      10.553  21.169  28.278  0.70 38.19 LIG 0.01  A 
BRANCH 30 33
ATOM     33 OH   TYR B3001       7.804  18.765  28.748  0.70 32.30 LIG-0.36  OA
ATOM     34 HH   TYR B3001       7.258  19.259  28.345  0.70 32.30 LIG 0.22  HD
ENDBRANCH 30 33
ENDBRANCH 26 27
ENDBRANCH 25 26
BRANCH 25 35
ATOM     35  N   TYR B3001      14.435  21.416  27.597  0.70 42.81 LIG-0.07  N 
ATOM     36 H3   TYR B3001      15.148  21.533  28.115  0.70 42.81 LIG 0.28  HD
ATOM     37 H2   TYR B3001      14.615  21.705  26.775  0.70 42.81 LIG 0.28  HD
ATOM     38 H1   TYR B3001      14.231  20.550  27.567  0.70 42.81 LIG 0.28  HD
ENDBRANCH 25 35
ENDBRANCH 1 25
TORSDOF 11
ENDMDL
MODEL 21
USER: ADFR SOLUTION from run 14
USER: SCORE 12.095146 LL:  -2.296 LR:  -9.799 RR:   0.000 FEB:  -6.518
USER: RMSD 11.916507
USER: SEED 955946
USER: STATUS no improvement in best 21 clusters for 5 generations
USER: GENES 13
USER: genes 0 Translation |==|  0.41406 0.08693 0.51295
USER: genes 1 Rotation |==|  0.42460 0.29359 0.47092 0.94818
USER: genes 2 Torsion [N]-CA--C-[O] |==|  0.29682
USER: genes 3 Torsion [C]-N--CA-[C] |==|  0.84998
USER: genes 4 Torsion [N]-CA--C-[OXT] |==|  0.15115
USER: genes 5 Torsion [N]-CA--CB-[CG] |==|  0.17310
USER: genes 6 Torsion [CA]-CB--CG-[CD2] |==|  0.87194
USER: genes 7 Torsion [CE2]-CZ--OH-[HH] |==|  0.45057
USER: genes 8 Torsion [N]-C--CA-[N] |==|  0.41190
USER: genes 9 Torsion [C]-CA--CB-[CG] |==|  0.48952
USER: genes 10 Torsion [CA]-CB--CG-[CD1] |==|  0.01109
USER: genes 11 Torsion [CE1]-CZ--OH-[HH] |==|  0.10076
USER: genes 12 Torsion [C]-CA--N-[H2] |==|  0.36184
ROOT
ATOM      1  C   TYR B3001      11.482  21.118  28.358  0.70 44.28 LIG 0.25  C 
ATOM      2 O    TYR B3001      11.176  20.760  27.220  0.70 44.11 LIG-0.27  OA
ATOM      3  N   PRO B3002      10.706  20.858  29.435  0.70 46.07 LIG-0.34  N 
ATOM      4  CA  PRO B3002       9.448  20.101  29.501  0.70 46.91 LIG 0.18  C 
ATOM      5  CB  PRO B3002       9.012  20.286  30.955  0.70 46.92 LIG 0.04  C 
ATOM      6  CG  PRO B3002       9.521  21.635  31.274  0.70 47.16 LIG 0.02  C 
ATOM      7  CD  PRO B3002      10.921  21.568  30.709  0.70 47.04 LIG 0.13  C 
ENDROOT
BRANCH 4 8
ATOM      8  C   PRO B3002       8.305  20.428  28.552  0.70 47.26 LIG 0.24  C 
ATOM      9  N   TYR B3003       7.708  21.598  28.780  0.70 47.47 LIG-0.34  N 
ATOM     10 H    TYR B3003       7.930  22.112  29.433  0.70 47.47 LIG 0.16  HD
ATOM     11 O    PRO B3002       8.029  19.667  27.611  0.70 46.37 LIG-0.27  OA
BRANCH 9 12
ATOM     12  CA  TYR B3003       6.625  22.142  27.965  0.70 47.51 LIG 0.19  C 
BRANCH 12 13
ATOM     13  C   TYR B3003       6.935  22.231  26.479  0.70 47.80 LIG 0.20  C 
ATOM     14 OXT  TYR B3003       7.310  21.190  25.902  0.70 46.55 LIG-0.65  OA
ATOM     15 O    TYR B3003       6.835  23.340  25.910  0.70 50.35 LIG-0.65  OA
ENDBRANCH 12 13
BRANCH 12 16
ATOM     16  CB  TYR B3003       6.201  23.510  28.511  0.70 48.13 LIG 0.07  C 
BRANCH 16 17
ATOM     17  CG  TYR B3003       7.281  24.567  28.474  0.70 49.00 LIG-0.06  A 
ATOM     18  CD2 TYR B3003       8.582  24.288  28.911  0.70 49.34 LIG 0.01  A 
ATOM     19  CE2 TYR B3003       9.574  25.268  28.881  0.70 49.34 LIG 0.04  A 
ATOM     20  CZ  TYR B3003       9.268  26.539  28.406  0.70 49.55 LIG 0.07  A 
ATOM     21  CE1 TYR B3003       7.989  26.837  27.970  0.70 48.63 LIG 0.04  A 
ATOM     22  CD1 TYR B3003       7.005  25.853  28.005  0.70 49.33 LIG 0.01  A 
BRANCH 20 23
ATOM     23 OH   TYR B3003      10.247  27.510  28.345  0.70 50.92 LIG-0.36  OA
ATOM     24 HH   TYR B3003      10.000  28.126  27.830  0.70 50.92 LIG 0.22  HD
ENDBRANCH 20 23
ENDBRANCH 16 17
ENDBRANCH 12 16
ENDBRANCH 9 12
ENDBRANCH 4 8
BRANCH 1 25
ATOM     25  CA  TYR B3001      12.757  21.924  28.612  0.70 43.08 LIG 0.28  C 
BRANCH 25 26
ATOM     26  CB  TYR B3001      12.519  23.432  28.394  0.70 40.59 LIG 0.08  C 
BRANCH 26 27
ATOM     27  CG  TYR B3001      13.729  24.297  28.720  0.70 39.24 LIG-0.06  A 
ATOM     28  CD1 TYR B3001      14.946  23.719  29.092  0.70 40.30 LIG 0.01  A 
ATOM     29  CE1 TYR B3001      16.051  24.516  29.470  0.70 38.36 LIG 0.04  A 
ATOM     30  CZ  TYR B3001      15.935  25.903  29.472  0.70 37.05 LIG 0.07  A 
ATOM     31  CE2 TYR B3001      14.735  26.496  29.095  0.70 37.49 LIG 0.04  A 
ATOM     32  CD2 TYR B3001      13.642  25.692  28.721  0.70 38.19 LIG 0.01  A 
BRANCH 30 33
ATOM     33 OH   TYR B3001      16.995  26.693  29.867  0.70 32.30 LIG-0.36  OA
ATOM     34 HH   TYR B3001      17.715  26.344  29.613  0.70 32.30 LIG 0.22  HD
ENDBRANCH 30 33
ENDBRANCH 26 27
ENDBRANCH 25 26
BRANCH 25 35
ATOM     35  N   TYR B3001      13.722  21.411  27.595  0.70 42.81 LIG-0.07  N 
ATOM     36 H3   TYR B3001      14.357  20.937  28.000  0.70 42.81 LIG 0.28  HD
ATOM     37 H2   TYR B3001      14.093  22.096  27.165  0.70 42.81 LIG 0.28  HD
ATOM     38 H1   TYR B3001      13.293  20.893  27.013  0.70 42.81 LIG 0.28  HD
ENDBRANCH 25 35
ENDBRANCH 1 25
TORSDOF 11
ENDMDL
MODEL 22
USER: ADFR SOLUTION from run 113
USER: SCORE 12.096416 LL:  -2.319 LR:  -9.778 RR:   0.000 FEB:  -6.496
USER: RMSD 12.823221
USER: SEED 112
USER: STATUS no improvement in best 33 clusters for 5 generations
USER: GENES 13
USER: genes 0 Translation |==|  0.30129 0.11510 0.52293
USER: genes 1 Rotation |==|  0.79553 0.26223 0.20961 0.64764
USER: genes 2 Torsion [N]-CA--C-[O] |==|  0.81666
USER: genes 3 Torsion [C]-N--CA-[C] |==|  0.78504
USER: genes 4 Torsion [N]-CA--C-[OXT] |==|  0.66952
USER: genes 5 Torsion [N]-CA--CB-[CG] |==|  0.83302
USER: genes 6 Torsion [CA]-CB--CG-[CD2] |==|  0.78005
USER: genes 7 Torsion [CE2]-CZ--OH-[HH] |==|  0.91392
USER: genes 8 Torsion [N]-C--CA-[N] |==|  0.16003
USER: genes 9 Torsion [C]-CA--CB-[CG] |==|  0.85567
USER: genes 10 Torsion [CA]-CB--CG-[CD1] |==|  0.36311
USER: genes 11 Torsion [CE1]-CZ--OH-[HH] |==|  0.55638
USER: genes 12 Torsion [C]-CA--N-[H2] |==|  0.40266
ROOT
ATOM      1  C   TYR B3001       8.099  21.963  28.658  0.70 44.28 LIG 0.25  C 
ATOM      2 O    TYR B3001       8.841  22.868  29.040  0.70 44.11 LIG-0.27  OA
ATOM      3  N   PRO B3002       7.104  22.167  27.765  0.70 46.07 LIG-0.34  N 
ATOM      4  CA  PRO B3002       6.742  23.403  27.057  0.70 46.91 LIG 0.18  C 
ATOM      5  CB  PRO B3002       5.467  23.010  26.310  0.70 46.92 LIG 0.04  C 
ATOM      6  CG  PRO B3002       4.851  22.024  27.220  0.70 47.16 LIG 0.02  C 
ATOM      7  CD  PRO B3002       6.041  21.163  27.577  0.70 47.04 LIG 0.13  C 
ENDROOT
BRANCH 4 8
ATOM      8  C   PRO B3002       6.534  24.697  27.830  0.70 47.26 LIG 0.24  C 
ATOM      9  N   TYR B3003       7.386  25.675  27.519  0.70 47.47 LIG-0.34  N 
ATOM     10 H    TYR B3003       8.023  25.571  26.950  0.70 47.47 LIG 0.16  HD
ATOM     11 O    PRO B3002       5.592  24.811  28.629  0.70 46.37 LIG-0.27  OA
BRANCH 9 12
ATOM     12  CA  TYR B3003       7.343  27.017  28.092  0.70 47.51 LIG 0.19  C 
BRANCH 12 13
ATOM     13  C   TYR B3003       6.263  27.918  27.514  0.70 47.80 LIG 0.20  C 
ATOM     14 OXT  TYR B3003       6.627  28.966  26.942  0.70 46.55 LIG-0.65  OA
ATOM     15 O    TYR B3003       5.065  27.591  27.663  0.70 50.35 LIG-0.65  OA
ENDBRANCH 12 13
BRANCH 12 16
ATOM     16  CB  TYR B3003       8.720  27.678  27.970  0.70 48.13 LIG 0.07  C 
BRANCH 16 17
ATOM     17  CG  TYR B3003       9.838  26.945  28.675  0.70 49.00 LIG-0.06  A 
ATOM     18  CD2 TYR B3003      10.016  27.057  30.059  0.70 49.34 LIG 0.01  A 
ATOM     19  CE2 TYR B3003      11.053  26.385  30.706  0.70 49.34 LIG 0.04  A 
ATOM     20  CZ  TYR B3003      11.919  25.587  29.965  0.70 49.55 LIG 0.07  A 
ATOM     21  CE1 TYR B3003      11.761  25.462  28.596  0.70 48.63 LIG 0.04  A 
ATOM     22  CD1 TYR B3003      10.725  26.139  27.959  0.70 49.33 LIG 0.01  A 
BRANCH 20 23
ATOM     23 OH   TYR B3003      12.932  24.893  30.595  0.70 50.92 LIG-0.36  OA
ATOM     24 HH   TYR B3003      13.189  25.322  31.270  0.70 50.92 LIG 0.22  HD
ENDBRANCH 20 23
ENDBRANCH 16 17
ENDBRANCH 12 16
ENDBRANCH 9 12
ENDBRANCH 4 8
BRANCH 1 25
ATOM     25  CA  TYR B3001       8.240  20.545  29.213  0.70 43.08 LIG 0.28  C 
BRANCH 25 26
ATOM     26  CB  TYR B3001       9.468  20.426  30.139  0.70 40.59 LIG 0.08  C 
BRANCH 26 27
ATOM     27  CG  TYR B3001      10.760  20.932  29.512  0.70 39.24 LIG-0.06  A 
ATOM     28  CD1 TYR B3001      11.591  21.821  30.198  0.70 40.30 LIG 0.01  A 
ATOM     29  CE1 TYR B3001      12.752  22.356  29.592  0.70 38.36 LIG 0.04  A 
ATOM     30  CZ  TYR B3001      13.082  21.991  28.290  0.70 37.05 LIG 0.07  A 
ATOM     31  CE2 TYR B3001      12.272  21.099  27.596  0.70 37.49 LIG 0.04  A 
ATOM     32  CD2 TYR B3001      11.119  20.575  28.209  0.70 38.19 LIG 0.01  A 
BRANCH 30 33
ATOM     33 OH   TYR B3001      14.195  22.527  27.675  0.70 32.30 LIG-0.36  OA
ATOM     34 HH   TYR B3001      14.121  22.448  26.843  0.70 32.30 LIG 0.22  HD
ENDBRANCH 30 33
ENDBRANCH 26 27
ENDBRANCH 25 26
BRANCH 25 35
ATOM     35  N   TYR B3001       8.434  19.695  28.001  0.70 42.81 LIG-0.07  N 
ATOM     36 H3   TYR B3001       7.651  19.361  27.744  0.70 42.81 LIG 0.28  HD
ATOM     37 H2   TYR B3001       8.992  19.029  28.192  0.70 42.81 LIG 0.28  HD
ATOM     38 H1   TYR B3001       8.776  20.188  27.344  0.70 42.81 LIG 0.28  HD
ENDBRANCH 25 35
ENDBRANCH 1 25
TORSDOF 11
ENDMDL
MODEL 23
USER: ADFR SOLUTION from run 135
USER: SCORE 11.684969 LL:  -1.919 LR:  -9.766 RR:   0.000 FEB:  -6.485
USER: RMSD 11.850950
USER: SEED 134
USER: STATUS no improvement in best 24 clusters for 5 generations
USER: GENES 13
USER: genes 0 Translation |==|  0.44954 0.09704 0.51817
USER: genes 1 Rotation |==|  0.34972 0.28513 0.50724 0.92567
USER: genes 2 Torsion [N]-CA--C-[O] |==|  0.12825
USER: genes 3 Torsion [C]-N--CA-[C] |==|  0.84190
USER: genes 4 Torsion [N]-CA--C-[OXT] |==|  0.88074
USER: genes 5 Torsion [N]-CA--CB-[CG] |==|  0.39226
USER: genes 6 Torsion [CA]-CB--CG-[CD2] |==|  0.77707
USER: genes 7 Torsion [CE2]-CZ--OH-[HH] |==|  0.37643
USER: genes 8 Torsion [N]-C--CA-[N] |==|  0.43387
USER: genes 9 Torsion [C]-CA--CB-[CG] |==|  0.39058
USER: genes 10 Torsion [CA]-CB--CG-[CD1] |==|  0.11810
USER: genes 11 Torsion [CE1]-CZ--OH-[HH] |==|  0.02794
USER: genes 12 Torsion [C]-CA--N-[H2] |==|  0.96056
ROOT
ATOM      1  C   TYR B3001      12.546  21.421  28.515  0.70 44.28 LIG 0.25  C 
ATOM      2 O    TYR B3001      12.274  20.695  27.558  0.70 44.11 LIG-0.27  OA
ATOM      3  N   PRO B3002      11.740  21.533  29.595  0.70 46.07 LIG-0.34  N 
ATOM      4  CA  PRO B3002      10.482  20.829  29.880  0.70 46.91 LIG 0.18  C 
ATOM      5  CB  PRO B3002      10.004  21.490  31.173  0.70 46.92 LIG 0.04  C 
ATOM      6  CG  PRO B3002      10.501  22.873  31.030  0.70 47.16 LIG 0.02  C 
ATOM      7  CD  PRO B3002      11.917  22.635  30.558  0.70 47.04 LIG 0.13  C 
ENDROOT
BRANCH 4 8
ATOM      8  C   PRO B3002       9.366  20.802  28.846  0.70 47.26 LIG 0.24  C 
ATOM      9  N   TYR B3003       8.164  21.138  29.314  0.70 47.47 LIG-0.34  N 
ATOM     10 H    TYR B3003       8.024  21.323  30.143  0.70 47.47 LIG 0.16  HD
ATOM     11 O    PRO B3002       9.614  20.546  27.657  0.70 46.37 LIG-0.27  OA
BRANCH 9 12
ATOM     12  CA  TYR B3003       6.958  21.232  28.495  0.70 47.51 LIG 0.19  C 
BRANCH 12 13
ATOM     13  C   TYR B3003       7.066  22.192  27.320  0.70 47.80 LIG 0.20  C 
ATOM     14 OXT  TYR B3003       7.616  23.294  27.521  0.70 46.55 LIG-0.65  OA
ATOM     15 O    TYR B3003       6.573  21.854  26.222  0.70 50.35 LIG-0.65  OA
ENDBRANCH 12 13
BRANCH 12 16
ATOM     16  CB  TYR B3003       5.758  21.592  29.378  0.70 48.13 LIG 0.07  C 
BRANCH 16 17
ATOM     17  CG  TYR B3003       4.780  22.559  28.751  0.70 49.00 LIG-0.06  A 
ATOM     18  CD2 TYR B3003       5.033  23.937  28.739  0.70 49.34 LIG 0.01  A 
ATOM     19  CE2 TYR B3003       4.125  24.827  28.167  0.70 49.34 LIG 0.04  A 
ATOM     20  CZ  TYR B3003       2.954  24.339  27.595  0.70 49.55 LIG 0.07  A 
ATOM     21  CE1 TYR B3003       2.684  22.982  27.596  0.70 48.63 LIG 0.04  A 
ATOM     22  CD1 TYR B3003       3.595  22.101  28.172  0.70 49.33 LIG 0.01  A 
BRANCH 20 23
ATOM     23 OH   TYR B3003       2.060  25.206  27.000  0.70 50.92 LIG-0.36  OA
ATOM     24 HH   TYR B3003       1.804  24.885  26.267  0.70 50.92 LIG 0.22  HD
ENDBRANCH 20 23
ENDBRANCH 16 17
ENDBRANCH 12 16
ENDBRANCH 9 12
ENDBRANCH 4 8
BRANCH 1 25
ATOM     25  CA  TYR B3001      13.812  22.280  28.514  0.70 43.08 LIG 0.28  C 
BRANCH 25 26
ATOM     26  CB  TYR B3001      13.529  23.695  27.970  0.70 40.59 LIG 0.08  C 
BRANCH 26 27
ATOM     27  CG  TYR B3001      14.263  24.798  28.720  0.70 39.24 LIG-0.06  A 
ATOM     28  CD1 TYR B3001      15.600  24.644  29.097  0.70 40.30 LIG 0.01  A 
ATOM     29  CE1 TYR B3001      16.265  25.631  29.861  0.70 38.36 LIG 0.04  A 
ATOM     30  CZ  TYR B3001      15.584  26.782  30.245  0.70 37.05 LIG 0.07  A 
ATOM     31  CE2 TYR B3001      14.256  26.958  29.871  0.70 37.49 LIG 0.04  A 
ATOM     32  CD2 TYR B3001      13.605  25.968  29.111  0.70 38.19 LIG 0.01  A 
BRANCH 30 33
ATOM     33 OH   TYR B3001      16.211  27.740  31.016  0.70 32.30 LIG-0.36  OA
ATOM     34 HH   TYR B3001      17.031  27.569  31.065  0.70 32.30 LIG 0.22  HD
ENDBRANCH 30 33
ENDBRANCH 26 27
ENDBRANCH 25 26
BRANCH 25 35
ATOM     35  N   TYR B3001      14.742  21.559  27.595  0.70 42.81 LIG-0.07  N 
ATOM     36 H3   TYR B3001      14.799  22.000  26.824  0.70 42.81 LIG 0.28  HD
ATOM     37 H2   TYR B3001      14.435  20.738  27.445  0.70 42.81 LIG 0.28  HD
ATOM     38 H1   TYR B3001      15.549  21.510  27.968  0.70 42.81 LIG 0.28  HD
ENDBRANCH 25 35
ENDBRANCH 1 25
TORSDOF 11
ENDMDL
MODEL 24
USER: ADFR SOLUTION from run 15
USER: SCORE 12.720371 LL:  -3.002 LR:  -9.718 RR:   0.000 FEB:  -6.437
USER: RMSD 13.549897
USER: SEED 821211
USER: STATUS no improvement in best 28 clusters for 5 generations
USER: GENES 13
USER: genes 0 Translation |==|  0.29089 0.10567 0.52764
USER: genes 1 Rotation |==|  0.27609 0.80674 0.29560 0.75298
USER: genes 2 Torsion [N]-CA--C-[O] |==|  0.48455
USER: genes 3 Torsion [C]-N--CA-[C] |==|  0.62847
USER: genes 4 Torsion [N]-CA--C-[OXT] |==|  0.15178
USER: genes 5 Torsion [N]-CA--CB-[CG] |==|  0.88529
USER: genes 6 Torsion [CA]-CB--CG-[CD2] |==|  0.74328
USER: genes 7 Torsion [CE2]-CZ--OH-[HH] |==|  0.55286
USER: genes 8 Torsion [N]-C--CA-[N] |==|  0.31250
USER: genes 9 Torsion [C]-CA--CB-[CG] |==|  0.88053
USER: genes 10 Torsion [CA]-CB--CG-[CD1] |==|  0.82178
USER: genes 11 Torsion [CE1]-CZ--OH-[HH] |==|  0.24669
USER: genes 12 Torsion [C]-CA--N-[H2] |==|  0.10961
ROOT
ATOM      1  C   TYR B3001       7.787  21.680  28.799  0.70 44.28 LIG 0.25  C 
ATOM      2 O    TYR B3001       7.317  22.697  29.311  0.70 44.11 LIG-0.27  OA
ATOM      3  N   PRO B3002       8.974  21.157  29.180  0.70 46.07 LIG-0.34  N 
ATOM      4  CA  PRO B3002       9.880  21.609  30.245  0.70 46.91 LIG 0.18  C 
ATOM      5  CB  PRO B3002      11.092  20.692  30.078  0.70 46.92 LIG 0.04  C 
ATOM      6  CG  PRO B3002      11.114  20.451  28.621  0.70 47.16 LIG 0.02  C 
ATOM      7  CD  PRO B3002       9.658  20.153  28.344  0.70 47.04 LIG 0.13  C 
ENDROOT
BRANCH 4 8
ATOM      8  C   PRO B3002      10.314  23.065  30.315  0.70 47.26 LIG 0.24  C 
ATOM      9  N   TYR B3003       9.846  23.835  29.332  0.70 47.47 LIG-0.34  N 
ATOM     10 H    TYR B3003       9.365  23.525  28.690  0.70 47.47 LIG 0.16  HD
ATOM     11 O    PRO B3002      10.995  23.476  31.268  0.70 46.37 LIG-0.27  OA
BRANCH 9 12
ATOM     12  CA  TYR B3003      10.088  25.271  29.225  0.70 47.51 LIG 0.19  C 
BRANCH 12 13
ATOM     13  C   TYR B3003       8.853  26.099  28.905  0.70 47.80 LIG 0.20  C 
ATOM     14 OXT  TYR B3003       7.863  25.975  29.654  0.70 46.55 LIG-0.65  OA
ATOM     15 O    TYR B3003       8.869  26.835  27.895  0.70 50.35 LIG-0.65  OA
ENDBRANCH 12 13
BRANCH 12 16
ATOM     16  CB  TYR B3003      11.195  25.536  28.198  0.70 48.13 LIG 0.07  C 
BRANCH 16 17
ATOM     17  CG  TYR B3003      12.361  24.575  28.263  0.70 49.00 LIG-0.06  A 
ATOM     18  CD2 TYR B3003      13.492  24.862  29.037  0.70 49.34 LIG 0.01  A 
ATOM     19  CE2 TYR B3003      14.568  23.976  29.090  0.70 49.34 LIG 0.04  A 
ATOM     20  CZ  TYR B3003      14.514  22.789  28.366  0.70 49.55 LIG 0.07  A 
ATOM     21  CE1 TYR B3003      13.406  22.486  27.595  0.70 48.63 LIG 0.04  A 
ATOM     22  CD1 TYR B3003      12.338  23.377  27.547  0.70 49.33 LIG 0.01  A 
BRANCH 20 23
ATOM     23 OH   TYR B3003      15.559  21.890  28.431  0.70 50.92 LIG-0.36  OA
ATOM     24 HH   TYR B3003      15.522  21.369  27.774  0.70 50.92 LIG 0.22  HD
ENDBRANCH 20 23
ENDBRANCH 16 17
ENDBRANCH 12 16
ENDBRANCH 9 12
ENDBRANCH 4 8
BRANCH 1 25
ATOM     25  CA  TYR B3001       7.058  20.967  27.659  0.70 43.08 LIG 0.28  C 
BRANCH 25 26
ATOM     26  CB  TYR B3001       6.640  21.960  26.554  0.70 40.59 LIG 0.08  C 
BRANCH 26 27
ATOM     27  CG  TYR B3001       6.057  23.261  27.088  0.70 39.24 LIG-0.06  A 
ATOM     28  CD1 TYR B3001       4.862  23.269  27.812  0.70 40.30 LIG 0.01  A 
ATOM     29  CE1 TYR B3001       4.275  24.481  28.244  0.70 38.36 LIG 0.04  A 
ATOM     30  CZ  TYR B3001       4.895  25.692  27.951  0.70 37.05 LIG 0.07  A 
ATOM     31  CE2 TYR B3001       6.090  25.703  27.240  0.70 37.49 LIG 0.04  A 
ATOM     32  CD2 TYR B3001       6.664  24.491  26.815  0.70 38.19 LIG 0.01  A 
BRANCH 30 33
ATOM     33 OH   TYR B3001       4.318  26.885  28.340  0.70 32.30 LIG-0.36  OA
ATOM     34 HH   TYR B3001       4.581  27.085  29.112  0.70 32.30 LIG 0.22  HD
ENDBRANCH 30 33
ENDBRANCH 26 27
ENDBRANCH 25 26
BRANCH 25 35
ATOM     35  N   TYR B3001       5.844  20.387  28.306  0.70 42.81 LIG-0.07  N 
ATOM     36 H3   TYR B3001       5.229  20.218  27.685  0.70 42.81 LIG 0.28  HD
ATOM     37 H2   TYR B3001       5.517  20.966  28.897  0.70 42.81 LIG 0.28  HD
ATOM     38 H1   TYR B3001       6.062  19.631  28.721  0.70 42.81 LIG 0.28  HD
ENDBRANCH 25 35
ENDBRANCH 1 25
TORSDOF 11
ENDMDL
MODEL 25
USER: ADFR SOLUTION from run 37
USER: SCORE 11.686674 LL:  -1.973 LR:  -9.714 RR:   0.000 FEB:  -6.432
USER: RMSD 16.724256
USER: SEED 36
USER: STATUS no improvement in best 23 clusters for 5 generations
USER: GENES 13
USER: genes 0 Translation |==|  0.81591 0.21464 0.44975
USER: genes 1 Rotation |==|  0.60203 0.06981 0.65999 0.67010
USER: genes 2 Torsion [N]-CA--C-[O] |==|  0.91270
USER: genes 3 Torsion [C]-N--CA-[C] |==|  0.55973
USER: genes 4 Torsion [N]-CA--C-[OXT] |==|  0.04821
USER: genes 5 Torsion [N]-CA--CB-[CG] |==|  0.63680
USER: genes 6 Torsion [CA]-CB--CG-[CD2] |==|  0.43606
USER: genes 7 Torsion [CE2]-CZ--OH-[HH] |==|  0.87434
USER: genes 8 Torsion [N]-C--CA-[N] |==|  0.23527
USER: genes 9 Torsion [C]-CA--CB-[CG] |==|  0.41117
USER: genes 10 Torsion [CA]-CB--CG-[CD1] |==|  0.11516
USER: genes 11 Torsion [CE1]-CZ--OH-[HH] |==|  0.77130
USER: genes 12 Torsion [C]-CA--N-[H2] |==|  0.88859
ROOT
ATOM      1  C   TYR B3001      23.537  24.949  26.462  0.70 44.28 LIG 0.25  C 
ATOM      2 O    TYR B3001      24.628  25.389  26.095  0.70 44.11 LIG-0.27  OA
ATOM      3  N   PRO B3002      23.189  23.652  26.312  0.70 46.07 LIG-0.34  N 
ATOM      4  CA  PRO B3002      23.985  22.542  25.769  0.70 46.91 LIG 0.18  C 
ATOM      5  CB  PRO B3002      22.988  21.383  25.745  0.70 46.92 LIG 0.04  C 
ATOM      6  CG  PRO B3002      21.705  22.067  25.485  0.70 47.16 LIG 0.02  C 
ATOM      7  CD  PRO B3002      21.783  23.227  26.452  0.70 47.04 LIG 0.13  C 
ENDROOT
BRANCH 4 8
ATOM      8  C   PRO B3002      24.679  22.681  24.423  0.70 47.26 LIG 0.24  C 
ATOM      9  N   TYR B3003      25.782  21.945  24.285  0.70 47.47 LIG-0.34  N 
ATOM     10 H    TYR B3003      26.095  21.456  24.920  0.70 47.47 LIG 0.16  HD
ATOM     11 O    PRO B3002      24.185  23.385  23.528  0.70 46.37 LIG-0.27  OA
BRANCH 9 12
ATOM     12  CA  TYR B3003      26.581  21.879  23.064  0.70 47.51 LIG 0.19  C 
BRANCH 12 13
ATOM     13  C   TYR B3003      27.455  20.640  22.946  0.70 47.80 LIG 0.20  C 
ATOM     14 OXT  TYR B3003      27.185  19.669  23.682  0.70 46.55 LIG-0.65  OA
ATOM     15 O    TYR B3003      28.418  20.659  22.150  0.70 50.35 LIG-0.65  OA
ENDBRANCH 12 13
BRANCH 12 16
ATOM     16  CB  TYR B3003      27.426  23.150  22.927  0.70 48.13 LIG 0.07  C 
BRANCH 16 17
ATOM     17  CG  TYR B3003      27.346  23.819  21.574  0.70 49.00 LIG-0.06  A 
ATOM     18  CD2 TYR B3003      27.641  25.180  21.421  0.70 49.34 LIG 0.01  A 
ATOM     19  CE2 TYR B3003      27.560  25.796  20.172  0.70 49.34 LIG 0.04  A 
ATOM     20  CZ  TYR B3003      27.185  25.045  19.062  0.70 49.55 LIG 0.07  A 
ATOM     21  CE1 TYR B3003      26.888  23.700  19.190  0.70 48.63 LIG 0.04  A 
ATOM     22  CD1 TYR B3003      26.970  23.095  20.441  0.70 49.33 LIG 0.01  A 
BRANCH 20 23
ATOM     23 OH   TYR B3003      27.128  25.635  17.815  0.70 50.92 LIG-0.36  OA
ATOM     24 HH   TYR B3003      26.739  26.377  17.873  0.70 50.92 LIG 0.22  HD
ENDBRANCH 20 23
ENDBRANCH 16 17
ENDBRANCH 12 16
ENDBRANCH 9 12
ENDBRANCH 4 8
BRANCH 1 25
ATOM     25  CA  TYR B3001      22.488  25.873  27.083  0.70 43.08 LIG 0.28  C 
BRANCH 25 26
ATOM     26  CB  TYR B3001      22.737  27.345  26.694  0.70 40.59 LIG 0.08  C 
BRANCH 26 27
ATOM     27  CG  TYR B3001      21.464  28.171  26.575  0.70 39.24 LIG-0.06  A 
ATOM     28  CD1 TYR B3001      20.427  28.032  27.502  0.70 40.30 LIG 0.01  A 
ATOM     29  CE1 TYR B3001      19.211  28.738  27.354  0.70 38.36 LIG 0.04  A 
ATOM     30  CZ  TYR B3001      19.036  29.593  26.269  0.70 37.05 LIG 0.07  A 
ATOM     31  CE2 TYR B3001      20.060  29.752  25.342  0.70 37.49 LIG 0.04  A 
ATOM     32  CD2 TYR B3001      21.265  29.042  25.500  0.70 38.19 LIG 0.01  A 
BRANCH 30 33
ATOM     33 OH   TYR B3001      17.844  30.266  26.095  0.70 32.30 LIG-0.36  OA
ATOM     34 HH   TYR B3001      17.288  29.760  25.720  0.70 32.30 LIG 0.22  HD
ENDBRANCH 30 33
ENDBRANCH 26 27
ENDBRANCH 25 26
BRANCH 25 35
ATOM     35  N   TYR B3001      22.671  25.698  28.554  0.70 42.81 LIG-0.07  N 
ATOM     36 H3   TYR B3001      23.362  26.187  28.828  0.70 42.81 LIG 0.28  HD
ATOM     37 H2   TYR B3001      22.823  24.841  28.735  0.70 42.81 LIG 0.28  HD
ATOM     38 H1   TYR B3001      21.935  25.965  28.978  0.70 42.81 LIG 0.28  HD
ENDBRANCH 25 35
ENDBRANCH 1 25
TORSDOF 11
ENDMDL
MODEL 26
USER: ADFR SOLUTION from run 76
USER: SCORE 11.339146 LL:  -1.637 LR:  -9.702 RR:   0.000 FEB:  -6.421
USER: RMSD 11.088660
USER: SEED 75
USER: STATUS no improvement in best 30 clusters for 5 generations
USER: GENES 13
USER: genes 0 Translation |==|  0.56239 0.30416 0.52557
USER: genes 1 Rotation |==|  0.55197 0.14128 0.16068 0.55902
USER: genes 2 Torsion [N]-CA--C-[O] |==|  0.41830
USER: genes 3 Torsion [C]-N--CA-[C] |==|  0.11051
USER: genes 4 Torsion [N]-CA--C-[OXT] |==|  0.06418
USER: genes 5 Torsion [N]-CA--CB-[CG] |==|  0.20302
USER: genes 6 Torsion [CA]-CB--CG-[CD2] |==|  0.76181
USER: genes 7 Torsion [CE2]-CZ--OH-[HH] |==|  0.39925
USER: genes 8 Torsion [N]-C--CA-[N] |==|  0.81244
USER: genes 9 Torsion [C]-CA--CB-[CG] |==|  0.26299
USER: genes 10 Torsion [CA]-CB--CG-[CD1] |==|  0.52766
USER: genes 11 Torsion [CE1]-CZ--OH-[HH] |==|  0.35027
USER: genes 12 Torsion [C]-CA--N-[H2] |==|  0.31847
ROOT
ATOM      1  C   TYR B3001      15.932  27.635  28.737  0.70 44.28 LIG 0.25  C 
ATOM      2 O    TYR B3001      17.130  27.395  28.581  0.70 44.11 LIG-0.27  OA
ATOM      3  N   PRO B3002      15.282  28.583  28.026  0.70 46.07 LIG-0.34  N 
ATOM      4  CA  PRO B3002      15.798  29.441  26.949  0.70 46.91 LIG 0.18  C 
ATOM      5  CB  PRO B3002      14.622  30.374  26.660  0.70 46.92 LIG 0.04  C 
ATOM      6  CG  PRO B3002      13.985  30.509  27.986  0.70 47.16 LIG 0.02  C 
ATOM      7  CD  PRO B3002      13.958  29.071  28.452  0.70 47.04 LIG 0.13  C 
ENDROOT
BRANCH 4 8
ATOM      8  C   PRO B3002      17.079  30.236  27.149  0.70 47.26 LIG 0.24  C 
ATOM      9  N   TYR B3003      17.360  30.532  28.418  0.70 47.47 LIG-0.34  N 
ATOM     10 H    TYR B3003      16.839  30.319  29.069  0.70 47.47 LIG 0.16  HD
ATOM     11 O    PRO B3002      17.810  30.508  26.184  0.70 46.37 LIG-0.27  OA
BRANCH 9 12
ATOM     12  CA  TYR B3003      18.561  31.241  28.853  0.70 47.51 LIG 0.19  C 
BRANCH 12 13
ATOM     13  C   TYR B3003      18.983  32.385  27.944  0.70 47.80 LIG 0.20  C 
ATOM     14 OXT  TYR B3003      18.109  32.902  27.220  0.70 46.55 LIG-0.65  OA
ATOM     15 O    TYR B3003      20.183  32.734  27.937  0.70 50.35 LIG-0.65  OA
ENDBRANCH 12 13
BRANCH 12 16
ATOM     16  CB  TYR B3003      19.712  30.245  29.037  0.70 48.13 LIG 0.07  C 
BRANCH 16 17
ATOM     17  CG  TYR B3003      20.296  29.709  27.751  0.70 49.00 LIG-0.06  A 
ATOM     18  CD2 TYR B3003      19.734  28.599  27.109  0.70 49.34 LIG 0.01  A 
ATOM     19  CE2 TYR B3003      20.280  28.102  25.925  0.70 49.34 LIG 0.04  A 
ATOM     20  CZ  TYR B3003      21.396  28.723  25.373  0.70 49.55 LIG 0.07  A 
ATOM     21  CE1 TYR B3003      21.968  29.821  25.991  0.70 48.63 LIG 0.04  A 
ATOM     22  CD1 TYR B3003      21.417  30.308  27.173  0.70 49.33 LIG 0.01  A 
BRANCH 20 23
ATOM     23 OH   TYR B3003      21.930  28.260  24.187  0.70 50.92 LIG-0.36  OA
ATOM     24 HH   TYR B3003      22.208  28.909  23.732  0.70 50.92 LIG 0.22  HD
ENDBRANCH 20 23
ENDBRANCH 16 17
ENDBRANCH 12 16
ENDBRANCH 9 12
ENDBRANCH 4 8
BRANCH 1 25
ATOM     25  CA  TYR B3001      15.112  26.887  29.790  0.70 43.08 LIG 0.28  C 
BRANCH 25 26
ATOM     26  CB  TYR B3001      13.799  26.340  29.193  0.70 40.59 LIG 0.08  C 
BRANCH 26 27
ATOM     27  CG  TYR B3001      13.896  24.896  28.720  0.70 39.24 LIG-0.06  A 
ATOM     28  CD1 TYR B3001      12.869  24.314  27.972  0.70 40.30 LIG 0.01  A 
ATOM     29  CE1 TYR B3001      12.918  22.952  27.596  0.70 38.36 LIG 0.04  A 
ATOM     30  CZ  TYR B3001      14.006  22.169  27.970  0.70 37.05 LIG 0.07  A 
ATOM     31  CE2 TYR B3001      15.042  22.733  28.706  0.70 37.49 LIG 0.04  A 
ATOM     32  CD2 TYR B3001      14.982  24.090  29.075  0.70 38.19 LIG 0.01  A 
BRANCH 30 33
ATOM     33 OH   TYR B3001      14.053  20.831  27.636  0.70 32.30 LIG-0.36  OA
ATOM     34 HH   TYR B3001      14.770  20.668  27.231  0.70 32.30 LIG 0.22  HD
ENDBRANCH 30 33
ENDBRANCH 26 27
ENDBRANCH 25 26
BRANCH 25 35
ATOM     35  N   TYR B3001      14.808  27.923  30.821  0.70 42.81 LIG-0.07  N 
ATOM     36 H3   TYR B3001      15.080  27.638  31.618  0.70 42.81 LIG 0.28  HD
ATOM     37 H2   TYR B3001      13.931  28.072  30.842  0.70 42.81 LIG 0.28  HD
ATOM     38 H1   TYR B3001      15.231  28.679  30.616  0.70 42.81 LIG 0.28  HD
ENDBRANCH 25 35
ENDBRANCH 1 25
TORSDOF 11
ENDMDL
MODEL 27
USER: ADFR SOLUTION from run 62
USER: SCORE 11.859808 LL:  -2.193 LR:  -9.667 RR:   0.000 FEB:  -6.385
USER: RMSD 14.780611
USER: SEED 61
USER: STATUS no improvement in best 20 clusters for 5 generations
USER: GENES 13
USER: genes 0 Translation |==|  0.78722 0.16417 0.41931
USER: genes 1 Rotation |==|  0.22841 0.53006 0.27543 0.85342
USER: genes 2 Torsion [N]-CA--C-[O] |==|  0.95412
USER: genes 3 Torsion [C]-N--CA-[C] |==|  0.10113
USER: genes 4 Torsion [N]-CA--C-[OXT] |==|  0.54793
USER: genes 5 Torsion [N]-CA--CB-[CG] |==|  0.15529
USER: genes 6 Torsion [CA]-CB--CG-[CD2] |==|  0.74743
USER: genes 7 Torsion [CE2]-CZ--OH-[HH] |==|  0.52552
USER: genes 8 Torsion [N]-C--CA-[N] |==|  0.34330
USER: genes 9 Torsion [C]-CA--CB-[CG] |==|  0.41675
USER: genes 10 Torsion [CA]-CB--CG-[CD1] |==|  0.52593
USER: genes 11 Torsion [CE1]-CZ--OH-[HH] |==|  0.82348
USER: genes 12 Torsion [C]-CA--N-[H2] |==|  0.42568
ROOT
ATOM      1  C   TYR B3001      22.677  23.435  25.549  0.70 44.28 LIG 0.25  C 
ATOM      2 O    TYR B3001      21.619  23.760  25.008  0.70 44.11 LIG-0.27  OA
ATOM      3  N   PRO B3002      23.130  24.030  26.675  0.70 46.07 LIG-0.34  N 
ATOM      4  CA  PRO B3002      22.492  25.080  27.482  0.70 46.91 LIG 0.18  C 
ATOM      5  CB  PRO B3002      23.560  25.407  28.526  0.70 46.92 LIG 0.04  C 
ATOM      6  CG  PRO B3002      24.816  25.179  27.784  0.70 47.16 LIG 0.02  C 
ATOM      7  CD  PRO B3002      24.529  23.858  27.109  0.70 47.04 LIG 0.13  C 
ENDROOT
BRANCH 4 8
ATOM      8  C   PRO B3002      21.979  26.350  26.821  0.70 47.26 LIG 0.24  C 
ATOM      9  N   TYR B3003      21.186  27.098  27.590  0.70 47.47 LIG-0.34  N 
ATOM     10 H    TYR B3003      20.956  26.862  28.385  0.70 47.47 LIG 0.16  HD
ATOM     11 O    PRO B3002      22.350  26.662  25.679  0.70 46.37 LIG-0.27  OA
BRANCH 9 12
ATOM     12  CA  TYR B3003      20.621  28.383  27.186  0.70 47.51 LIG 0.19  C 
BRANCH 12 13
ATOM     13  C   TYR B3003      20.226  28.467  25.720  0.70 47.80 LIG 0.20  C 
ATOM     14 OXT  TYR B3003      20.052  29.602  25.231  0.70 46.55 LIG-0.65  OA
ATOM     15 O    TYR B3003      20.061  27.405  25.081  0.70 50.35 LIG-0.65  OA
ENDBRANCH 12 13
BRANCH 12 16
ATOM     16  CB  TYR B3003      21.590  29.513  27.551  0.70 48.13 LIG 0.07  C 
BRANCH 16 17
ATOM     17  CG  TYR B3003      22.980  29.364  26.976  0.70 49.00 LIG-0.06  A 
ATOM     18  CD2 TYR B3003      23.989  28.703  27.687  0.70 49.34 LIG 0.01  A 
ATOM     19  CE2 TYR B3003      25.273  28.573  27.157  0.70 49.34 LIG 0.04  A 
ATOM     20  CZ  TYR B3003      25.552  29.104  25.901  0.70 49.55 LIG 0.07  A 
ATOM     21  CE1 TYR B3003      24.569  29.760  25.182  0.70 48.63 LIG 0.04  A 
ATOM     22  CD1 TYR B3003      23.292  29.887  25.720  0.70 49.33 LIG 0.01  A 
BRANCH 20 23
ATOM     23 OH   TYR B3003      26.810  28.958  25.352  0.70 50.92 LIG-0.36  OA
ATOM     24 HH   TYR B3003      26.869  29.429  24.659  0.70 50.92 LIG 0.22  HD
ENDBRANCH 20 23
ENDBRANCH 16 17
ENDBRANCH 12 16
ENDBRANCH 9 12
ENDBRANCH 4 8
BRANCH 1 25
ATOM     25  CA  TYR B3001      23.567  22.350  24.942  0.70 43.08 LIG 0.28  C 
BRANCH 25 26
ATOM     26  CB  TYR B3001      24.033  22.736  23.523  0.70 40.59 LIG 0.08  C 
BRANCH 26 27
ATOM     27  CG  TYR B3001      25.392  22.162  23.147  0.70 39.24 LIG-0.06  A 
ATOM     28  CD1 TYR B3001      26.046  22.569  21.981  0.70 40.30 LIG 0.01  A 
ATOM     29  CE1 TYR B3001      27.272  21.984  21.586  0.70 38.36 LIG 0.04  A 
ATOM     30  CZ  TYR B3001      27.846  20.988  22.369  0.70 37.05 LIG 0.07  A 
ATOM     31  CE2 TYR B3001      27.215  20.577  23.539  0.70 37.49 LIG 0.04  A 
ATOM     32  CD2 TYR B3001      25.995  21.166  23.920  0.70 38.19 LIG 0.01  A 
BRANCH 30 33
ATOM     33 OH   TYR B3001      29.027  20.387  21.981  0.70 32.30 LIG-0.36  OA
ATOM     34 HH   TYR B3001      28.908  19.977  21.258  0.70 32.30 LIG 0.22  HD
ENDBRANCH 30 33
ENDBRANCH 26 27
ENDBRANCH 25 26
BRANCH 25 35
ATOM     35  N   TYR B3001      22.685  21.147  24.877  0.70 42.81 LIG-0.07  N 
ATOM     36 H3   TYR B3001      22.723  20.708  25.650  0.70 42.81 LIG 0.28  HD
ATOM     37 H2   TYR B3001      22.959  20.613  24.220  0.70 42.81 LIG 0.28  HD
ATOM     38 H1   TYR B3001      21.846  21.401  24.722  0.70 42.81 LIG 0.28  HD
ENDBRANCH 25 35
ENDBRANCH 1 25
TORSDOF 11
ENDMDL
MODEL 28
USER: ADFR SOLUTION from run 153
USER: SCORE 12.541248 LL:  -2.892 LR:  -9.650 RR:   0.000 FEB:  -6.368
USER: RMSD 10.183101
USER: SEED 152
USER: STATUS no improvement in best 16 clusters for 5 generations
USER: GENES 13
USER: genes 0 Translation |==|  0.44248 0.31508 0.53311
USER: genes 1 Rotation |==|  0.36784 0.58280 0.02651 0.53858
USER: genes 2 Torsion [N]-CA--C-[O] |==|  0.64477
USER: genes 3 Torsion [C]-N--CA-[C] |==|  0.56865
USER: genes 4 Torsion [N]-CA--C-[OXT] |==|  0.45830
USER: genes 5 Torsion [N]-CA--CB-[CG] |==|  0.81711
USER: genes 6 Torsion [CA]-CB--CG-[CD2] |==|  0.81410
USER: genes 7 Torsion [CE2]-CZ--OH-[HH] |==|  0.79879
USER: genes 8 Torsion [N]-C--CA-[N] |==|  0.28665
USER: genes 9 Torsion [C]-CA--CB-[CG] |==|  0.22218
USER: genes 10 Torsion [CA]-CB--CG-[CD1] |==|  0.88571
USER: genes 11 Torsion [CE1]-CZ--OH-[HH] |==|  0.55140
USER: genes 12 Torsion [C]-CA--N-[H2] |==|  0.00662
ROOT
ATOM      1  C   TYR B3001      12.334  27.963  28.963  0.70 44.28 LIG 0.25  C 
ATOM      2 O    TYR B3001      12.921  28.519  28.034  0.70 44.11 LIG-0.27  OA
ATOM      3  N   PRO B3002      12.636  28.200  30.259  0.70 46.07 LIG-0.34  N 
ATOM      4  CA  PRO B3002      13.617  29.142  30.819  0.70 46.91 LIG 0.18  C 
ATOM      5  CB  PRO B3002      13.572  28.836  32.316  0.70 46.92 LIG 0.04  C 
ATOM      6  CG  PRO B3002      13.275  27.390  32.340  0.70 47.16 LIG 0.02  C 
ATOM      7  CD  PRO B3002      12.161  27.296  31.323  0.70 47.04 LIG 0.13  C 
ENDROOT
BRANCH 4 8
ATOM      8  C   PRO B3002      15.051  29.146  30.314  0.70 47.26 LIG 0.24  C 
ATOM      9  N   TYR B3003      15.178  29.311  28.996  0.70 47.47 LIG-0.34  N 
ATOM     10 H    TYR B3003      14.501  29.376  28.470  0.70 47.47 LIG 0.16  HD
ATOM     11 O    PRO B3002      16.001  29.067  31.109  0.70 46.37 LIG-0.27  OA
BRANCH 9 12
ATOM     12  CA  TYR B3003      16.458  29.400  28.297  0.70 47.51 LIG 0.19  C 
BRANCH 12 13
ATOM     13  C   TYR B3003      16.404  30.148  26.974  0.70 47.80 LIG 0.20  C 
ATOM     14 OXT  TYR B3003      17.486  30.510  26.469  0.70 46.55 LIG-0.65  OA
ATOM     15 O    TYR B3003      15.287  30.397  26.470  0.70 50.35 LIG-0.65  OA
ENDBRANCH 12 13
BRANCH 12 16
ATOM     16  CB  TYR B3003      17.041  27.996  28.101  0.70 48.13 LIG 0.07  C 
BRANCH 16 17
ATOM     17  CG  TYR B3003      17.429  27.288  29.379  0.70 49.00 LIG-0.06  A 
ATOM     18  CD2 TYR B3003      18.487  27.753  30.170  0.70 49.34 LIG 0.01  A 
ATOM     19  CE2 TYR B3003      18.847  27.094  31.345  0.70 49.34 LIG 0.04  A 
ATOM     20  CZ  TYR B3003      18.141  25.961  31.738  0.70 49.55 LIG 0.07  A 
ATOM     21  CE1 TYR B3003      17.093  25.485  30.971  0.70 48.63 LIG 0.04  A 
ATOM     22  CD1 TYR B3003      16.742  26.148  29.799  0.70 49.33 LIG 0.01  A 
BRANCH 20 23
ATOM     23 OH   TYR B3003      18.468  25.315  32.914  0.70 50.92 LIG-0.36  OA
ATOM     24 HH   TYR B3003      19.196  24.908  32.817  0.70 50.92 LIG 0.22  HD
ENDBRANCH 20 23
ENDBRANCH 16 17
ENDBRANCH 12 16
ENDBRANCH 9 12
ENDBRANCH 4 8
BRANCH 1 25
ATOM     25  CA  TYR B3001      11.243  26.926  28.693  0.70 43.08 LIG 0.28  C 
BRANCH 25 26
ATOM     26  CB  TYR B3001      11.618  26.013  27.508  0.70 40.59 LIG 0.08  C 
BRANCH 26 27
ATOM     27  CG  TYR B3001      12.589  24.899  27.876  0.70 39.24 LIG-0.06  A 
ATOM     28  CD1 TYR B3001      13.668  25.140  28.731  0.70 40.30 LIG 0.01  A 
ATOM     29  CE1 TYR B3001      14.617  24.131  29.015  0.70 38.36 LIG 0.04  A 
ATOM     30  CZ  TYR B3001      14.479  22.870  28.440  0.70 37.05 LIG 0.07  A 
ATOM     31  CE2 TYR B3001      13.406  22.609  27.595  0.70 37.49 LIG 0.04  A 
ATOM     32  CD2 TYR B3001      12.469  23.622  27.319  0.70 38.19 LIG 0.01  A 
BRANCH 30 33
ATOM     33 OH   TYR B3001      15.414  21.885  28.685  0.70 32.30 LIG-0.36  OA
ATOM     34 HH   TYR B3001      15.352  21.287  28.097  0.70 32.30 LIG 0.22  HD
ENDBRANCH 30 33
ENDBRANCH 26 27
ENDBRANCH 25 26
BRANCH 25 35
ATOM     35  N   TYR B3001      10.042  27.742  28.345  0.70 42.81 LIG-0.07  N 
ATOM     36 H3   TYR B3001       9.749  27.509  27.537  0.70 42.81 LIG 0.28  HD
ATOM     37 H2   TYR B3001      10.258  28.604  28.345  0.70 42.81 LIG 0.28  HD
ATOM     38 H1   TYR B3001       9.400  27.597  28.945  0.70 42.81 LIG 0.28  HD
ENDBRANCH 25 35
ENDBRANCH 1 25
TORSDOF 11
ENDMDL
MODEL 29
USER: ADFR SOLUTION from run 68
USER: SCORE 11.779230 LL:  -2.127 LR:  -9.652 RR:   0.000 FEB:  -6.371
USER: RMSD 13.240402
USER: SEED 67
USER: STATUS no improvement in best 31 clusters for 5 generations
USER: GENES 13
USER: genes 0 Translation |==|  0.42403 0.09311 0.50845
USER: genes 1 Rotation |==|  0.59157 0.34077 0.35869 0.94305
USER: genes 2 Torsion [N]-CA--C-[O] |==|  0.95867
USER: genes 3 Torsion [C]-N--CA-[C] |==|  0.09669
USER: genes 4 Torsion [N]-CA--C-[OXT] |==|  0.21668
USER: genes 5 Torsion [N]-CA--CB-[CG] |==|  0.64987
USER: genes 6 Torsion [CA]-CB--CG-[CD2] |==|  0.69725
USER: genes 7 Torsion [CE2]-CZ--OH-[HH] |==|  0.87078
USER: genes 8 Torsion [N]-C--CA-[N] |==|  0.36696
USER: genes 9 Torsion [C]-CA--CB-[CG] |==|  0.94578
USER: genes 10 Torsion [CA]-CB--CG-[CD1] |==|  0.74350
USER: genes 11 Torsion [CE1]-CZ--OH-[HH] |==|  0.87327
USER: genes 12 Torsion [C]-CA--N-[H2] |==|  0.23367
ROOT
ATOM      1  C   TYR B3001      11.781  21.303  28.224  0.70 44.28 LIG 0.25  C 
ATOM      2 O    TYR B3001      11.435  21.928  27.220  0.70 44.11 LIG-0.27  OA
ATOM      3  N   PRO B3002      10.960  20.438  28.860  0.70 46.07 LIG-0.34  N 
ATOM      4  CA  PRO B3002       9.593  20.033  28.501  0.70 46.91 LIG 0.18  C 
ATOM      5  CB  PRO B3002       9.176  19.151  29.678  0.70 46.92 LIG 0.04  C 
ATOM      6  CG  PRO B3002       9.895  19.766  30.812  0.70 47.16 LIG 0.02  C 
ATOM      7  CD  PRO B3002      11.273  19.963  30.220  0.70 47.04 LIG 0.13  C 
ENDROOT
BRANCH 4 8
ATOM      8  C   PRO B3002       8.532  21.083  28.213  0.70 47.26 LIG 0.24  C 
ATOM      9  N   TYR B3003       7.410  20.608  27.670  0.70 47.47 LIG-0.34  N 
ATOM     10 H    TYR B3003       7.309  19.778  27.467  0.70 47.47 LIG 0.16  HD
ATOM     11 O    PRO B3002       8.711  22.268  28.536  0.70 46.37 LIG-0.27  OA
BRANCH 9 12
ATOM     12  CA  TYR B3003       6.238  21.422  27.357  0.70 47.51 LIG 0.19  C 
BRANCH 12 13
ATOM     13  C   TYR B3003       6.555  22.836  26.895  0.70 47.80 LIG 0.20  C 
ATOM     14 OXT  TYR B3003       6.935  22.989  25.717  0.70 46.55 LIG-0.65  OA
ATOM     15 O    TYR B3003       6.454  23.772  27.718  0.70 50.35 LIG-0.65  OA
ENDBRANCH 12 13
BRANCH 12 16
ATOM     16  CB  TYR B3003       5.288  21.446  28.560  0.70 48.13 LIG 0.07  C 
BRANCH 16 17
ATOM     17  CG  TYR B3003       3.868  21.031  28.252  0.70 49.00 LIG-0.06  A 
ATOM     18  CD2 TYR B3003       2.826  21.966  28.247  0.70 49.34 LIG 0.01  A 
ATOM     19  CE2 TYR B3003       1.515  21.578  27.970  0.70 49.34 LIG 0.04  A 
ATOM     20  CZ  TYR B3003       1.241  20.243  27.689  0.70 49.55 LIG 0.07  A 
ATOM     21  CE1 TYR B3003       2.256  19.302  27.689  0.70 48.63 LIG 0.04  A 
ATOM     22  CD1 TYR B3003       3.560  19.699  27.970  0.70 49.33 LIG 0.01  A 
BRANCH 20 23
ATOM     23 OH   TYR B3003      -0.047  19.850  27.385  0.70 50.92 LIG-0.36  OA
ATOM     24 HH   TYR B3003      -0.581  20.188  27.938  0.70 50.92 LIG 0.22  HD
ENDBRANCH 20 23
ENDBRANCH 16 17
ENDBRANCH 12 16
ENDBRANCH 9 12
ENDBRANCH 4 8
BRANCH 1 25
ATOM     25  CA  TYR B3001      13.168  21.507  28.835  0.70 43.08 LIG 0.28  C 
BRANCH 25 26
ATOM     26  CB  TYR B3001      13.302  22.909  29.466  0.70 40.59 LIG 0.08  C 
BRANCH 26 27
ATOM     27  CG  TYR B3001      12.275  23.911  28.956  0.70 39.24 LIG-0.06  A 
ATOM     28  CD1 TYR B3001      12.560  24.741  27.868  0.70 40.30 LIG 0.01  A 
ATOM     29  CE1 TYR B3001      11.642  25.727  27.438  0.70 38.36 LIG 0.04  A 
ATOM     30  CZ  TYR B3001      10.428  25.877  28.102  0.70 37.05 LIG 0.07  A 
ATOM     31  CE2 TYR B3001      10.123  25.053  29.180  0.70 37.49 LIG 0.04  A 
ATOM     32  CD2 TYR B3001      11.045  24.077  29.599  0.70 38.19 LIG 0.01  A 
BRANCH 30 33
ATOM     33 OH   TYR B3001       9.535  26.855  27.713  0.70 32.30 LIG-0.36  OA
ATOM     34 HH   TYR B3001       9.945  27.578  27.595  0.70 32.30 LIG 0.22  HD
ENDBRANCH 30 33
ENDBRANCH 26 27
ENDBRANCH 25 26
BRANCH 25 35
ATOM     35  N   TYR B3001      14.101  21.381  27.677  0.70 42.81 LIG-0.07  N 
ATOM     36 H3   TYR B3001      14.906  21.140  27.969  0.70 42.81 LIG 0.28  HD
ATOM     37 H2   TYR B3001      14.160  22.163  27.256  0.70 42.81 LIG 0.28  HD
ATOM     38 H1   TYR B3001      13.794  20.764  27.114  0.70 42.81 LIG 0.28  HD
ENDBRANCH 25 35
ENDBRANCH 1 25
TORSDOF 11
ENDMDL
MODEL 30
USER: ADFR SOLUTION from run 137
USER: SCORE 11.777882 LL:  -2.130 LR:  -9.648 RR:   0.000 FEB:  -6.366
USER: RMSD 11.922477
USER: SEED 136
USER: STATUS no improvement in best 31 clusters for 5 generations
USER: GENES 13
USER: genes 0 Translation |==|  0.47990 0.31589 0.53124
USER: genes 1 Rotation |==|  0.74598 0.26199 0.86445 0.50521
USER: genes 2 Torsion [N]-CA--C-[O] |==|  0.87820
USER: genes 3 Torsion [C]-N--CA-[C] |==|  0.22548
USER: genes 4 Torsion [N]-CA--C-[OXT] |==|  0.61682
USER: genes 5 Torsion [N]-CA--CB-[CG] |==|  0.58396
USER: genes 6 Torsion [CA]-CB--CG-[CD2] |==|  0.16138
USER: genes 7 Torsion [CE2]-CZ--OH-[HH] |==|  0.01244
USER: genes 8 Torsion [N]-C--CA-[N] |==|  0.41772
USER: genes 9 Torsion [C]-CA--CB-[CG] |==|  0.28646
USER: genes 10 Torsion [CA]-CB--CG-[CD1] |==|  0.61632
USER: genes 11 Torsion [CE1]-CZ--OH-[HH] |==|  0.35382
USER: genes 12 Torsion [C]-CA--N-[H2] |==|  0.38849
ROOT
ATOM      1  C   TYR B3001      13.457  27.987  28.907  0.70 44.28 LIG 0.25  C 
ATOM      2 O    TYR B3001      13.665  28.973  28.200  0.70 44.11 LIG-0.27  OA
ATOM      3  N   PRO B3002      14.426  27.410  29.653  0.70 46.07 LIG-0.34  N 
ATOM      4  CA  PRO B3002      15.826  27.824  29.823  0.70 46.91 LIG 0.18  C 
ATOM      5  CB  PRO B3002      16.418  26.696  30.669  0.70 46.92 LIG 0.04  C 
ATOM      6  CG  PRO B3002      15.650  25.519  30.217  0.70 47.16 LIG 0.02  C 
ATOM      7  CD  PRO B3002      14.239  26.062  30.221  0.70 47.04 LIG 0.13  C 
ENDROOT
BRANCH 4 8
ATOM      8  C   PRO B3002      16.698  28.099  28.608  0.70 47.26 LIG 0.24  C 
ATOM      9  N   TYR B3003      17.502  29.157  28.726  0.70 47.47 LIG-0.34  N 
ATOM     10 H    TYR B3003      17.502  29.663  29.422  0.70 47.47 LIG 0.16  HD
ATOM     11 O    PRO B3002      16.679  27.334  27.631  0.70 46.37 LIG-0.27  OA
BRANCH 9 12
ATOM     12  CA  TYR B3003      18.462  29.578  27.710  0.70 47.51 LIG 0.19  C 
BRANCH 12 13
ATOM     13  C   TYR B3003      17.863  30.389  26.571  0.70 47.80 LIG 0.20  C 
ATOM     14 OXT  TYR B3003      18.249  30.135  25.413  0.70 46.55 LIG-0.65  OA
ATOM     15 O    TYR B3003      17.041  31.291  26.845  0.70 50.35 LIG-0.65  OA
ENDBRANCH 12 13
BRANCH 12 16
ATOM     16  CB  TYR B3003      19.212  28.357  27.166  0.70 48.13 LIG 0.07  C 
BRANCH 16 17
ATOM     17  CG  TYR B3003      20.624  28.637  26.705  0.70 49.00 LIG-0.06  A 
ATOM     18  CD2 TYR B3003      21.577  29.176  27.578  0.70 49.34 LIG 0.01  A 
ATOM     19  CE2 TYR B3003      22.877  29.440  27.146  0.70 49.34 LIG 0.04  A 
ATOM     20  CZ  TYR B3003      23.233  29.156  25.831  0.70 49.55 LIG 0.07  A 
ATOM     21  CE1 TYR B3003      22.307  28.623  24.952  0.70 48.63 LIG 0.04  A 
ATOM     22  CD1 TYR B3003      21.012  28.366  25.391  0.70 49.33 LIG 0.01  A 
BRANCH 20 23
ATOM     23 OH   TYR B3003      24.524  29.385  25.399  0.70 50.92 LIG-0.36  OA
ATOM     24 HH   TYR B3003      24.996  29.636  26.046  0.70 50.92 LIG 0.22  HD
ENDBRANCH 20 23
ENDBRANCH 16 17
ENDBRANCH 12 16
ENDBRANCH 9 12
ENDBRANCH 4 8
BRANCH 1 25
ATOM     25  CA  TYR B3001      12.078  27.328  28.949  0.70 43.08 LIG 0.28  C 
BRANCH 25 26
ATOM     26  CB  TYR B3001      11.924  26.278  27.829  0.70 40.59 LIG 0.08  C 
BRANCH 26 27
ATOM     27  CG  TYR B3001      12.051  24.841  28.315  0.70 39.24 LIG-0.06  A 
ATOM     28  CD1 TYR B3001      12.770  23.894  27.580  0.70 40.30 LIG 0.01  A 
ATOM     29  CE1 TYR B3001      12.828  22.541  27.985  0.70 38.36 LIG 0.04  A 
ATOM     30  CZ  TYR B3001      12.163  22.135  29.138  0.70 37.05 LIG 0.07  A 
ATOM     31  CE2 TYR B3001      11.451  23.065  29.888  0.70 37.49 LIG 0.04  A 
ATOM     32  CD2 TYR B3001      11.400  24.409  29.474  0.70 38.19 LIG 0.01  A 
BRANCH 30 33
ATOM     33 OH   TYR B3001      12.185  20.812  29.530  0.70 32.30 LIG-0.36  OA
ATOM     34 HH   TYR B3001      12.438  20.760  30.329  0.70 32.30 LIG 0.22  HD
ENDBRANCH 30 33
ENDBRANCH 26 27
ENDBRANCH 25 26
BRANCH 25 35
ATOM     35  N   TYR B3001      11.126  28.456  28.720  0.70 42.81 LIG-0.07  N 
ATOM     36 H3   TYR B3001      10.785  28.719  29.499  0.70 42.81 LIG 0.28  HD
ATOM     37 H2   TYR B3001      10.469  28.186  28.184  0.70 42.81 LIG 0.28  HD
ATOM     38 H1   TYR B3001      11.557  29.136  28.341  0.70 42.81 LIG 0.28  HD
ENDBRANCH 25 35
ENDBRANCH 1 25
TORSDOF 11
ENDMDL
MODEL 31
USER: ADFR SOLUTION from run 9
USER: SCORE 11.807936 LL:  -2.244 LR:  -9.564 RR:   0.000 FEB:  -6.283
USER: RMSD 12.427368
USER: SEED 562958
USER: STATUS no improvement in best 36 clusters for 5 generations
USER: GENES 13
USER: genes 0 Translation |==|  0.49269 0.16746 0.52367
USER: genes 1 Rotation |==|  0.22890 0.67582 0.87817 0.55080
USER: genes 2 Torsion [N]-CA--C-[O] |==|  0.96382
USER: genes 3 Torsion [C]-N--CA-[C] |==|  0.67637
USER: genes 4 Torsion [N]-CA--C-[OXT] |==|  0.42457
USER: genes 5 Torsion [N]-CA--CB-[CG] |==|  0.75774
USER: genes 6 Torsion [CA]-CB--CG-[CD2] |==|  0.73473
USER: genes 7 Torsion [CE2]-CZ--OH-[HH] |==|  0.65363
USER: genes 8 Torsion [N]-C--CA-[N] |==|  0.36750
USER: genes 9 Torsion [C]-CA--CB-[CG] |==|  0.32235
USER: genes 10 Torsion [CA]-CB--CG-[CD1] |==|  0.32930
USER: genes 11 Torsion [CE1]-CZ--OH-[HH] |==|  0.96636
USER: genes 12 Torsion [C]-CA--N-[H2] |==|  0.12526
ROOT
ATOM      1  C   TYR B3001      13.841  23.534  28.680  0.70 44.28 LIG 0.25  C 
ATOM      2 O    TYR B3001      14.786  23.511  29.470  0.70 44.11 LIG-0.27  OA
ATOM      3  N   PRO B3002      13.224  24.681  28.317  0.70 46.07 LIG-0.34  N 
ATOM      4  CA  PRO B3002      13.547  26.062  28.704  0.70 46.91 LIG 0.18  C 
ATOM      5  CB  PRO B3002      12.410  26.869  28.076  0.70 46.92 LIG 0.04  C 
ATOM      6  CG  PRO B3002      11.274  25.929  28.141  0.70 47.16 LIG 0.02  C 
ATOM      7  CD  PRO B3002      11.913  24.652  27.644  0.70 47.04 LIG 0.13  C 
ENDROOT
BRANCH 4 8
ATOM      8  C   PRO B3002      13.719  26.427  30.171  0.70 47.26 LIG 0.24  C 
ATOM      9  N   TYR B3003      14.204  27.650  30.388  0.70 47.47 LIG-0.34  N 
ATOM     10 H    TYR B3003      14.433  28.177  29.748  0.70 47.47 LIG 0.16  HD
ATOM     11 O    PRO B3002      13.360  25.642  31.063  0.70 46.37 LIG-0.27  OA
BRANCH 9 12
ATOM     12  CA  TYR B3003      14.403  28.234  31.712  0.70 47.51 LIG 0.19  C 
BRANCH 12 13
ATOM     13  C   TYR B3003      13.555  29.465  31.994  0.70 47.80 LIG 0.20  C 
ATOM     14 OXT  TYR B3003      13.265  29.708  33.182  0.70 46.55 LIG-0.65  OA
ATOM     15 O    TYR B3003      13.161  30.155  31.028  0.70 50.35 LIG-0.65  OA
ENDBRANCH 12 13
BRANCH 12 16
ATOM     16  CB  TYR B3003      15.890  28.542  31.925  0.70 48.13 LIG 0.07  C 
BRANCH 16 17
ATOM     17  CG  TYR B3003      16.700  27.391  32.478  0.70 49.00 LIG-0.06  A 
ATOM     18  CD2 TYR B3003      16.946  27.275  33.851  0.70 49.34 LIG 0.01  A 
ATOM     19  CE2 TYR B3003      17.701  26.216  34.357  0.70 49.34 LIG 0.04  A 
ATOM     20  CZ  TYR B3003      18.211  25.260  33.484  0.70 49.55 LIG 0.07  A 
ATOM     21  CE1 TYR B3003      17.980  25.357  32.123  0.70 48.63 LIG 0.04  A 
ATOM     22  CD1 TYR B3003      17.228  26.418  31.627  0.70 49.33 LIG 0.01  A 
BRANCH 20 23
ATOM     23 OH   TYR B3003      18.935  24.192  33.973  0.70 50.92 LIG-0.36  OA
ATOM     24 HH   TYR B3003      19.685  24.164  33.595  0.70 50.92 LIG 0.22  HD
ENDBRANCH 20 23
ENDBRANCH 16 17
ENDBRANCH 12 16
ENDBRANCH 9 12
ENDBRANCH 4 8
BRANCH 1 25
ATOM     25  CA  TYR B3001      13.280  22.239  28.090  0.70 43.08 LIG 0.28  C 
BRANCH 25 26
ATOM     26  CB  TYR B3001      12.564  21.397  29.166  0.70 40.59 LIG 0.08  C 
BRANCH 26 27
ATOM     27  CG  TYR B3001      11.073  21.221  28.914  0.70 39.24 LIG-0.06  A 
ATOM     28  CD1 TYR B3001      10.522  19.951  28.720  0.70 40.30 LIG 0.01  A 
ATOM     29  CE1 TYR B3001       9.152  19.786  28.409  0.70 38.36 LIG 0.04  A 
ATOM     30  CZ  TYR B3001       8.330  20.903  28.296  0.70 37.05 LIG 0.07  A 
ATOM     31  CE2 TYR B3001       8.858  22.174  28.496  0.70 37.49 LIG 0.04  A 
ATOM     32  CD2 TYR B3001      10.223  22.325  28.804  0.70 38.19 LIG 0.01  A 
BRANCH 30 33
ATOM     33 OH   TYR B3001       6.998  20.760  27.963  0.70 32.30 LIG-0.36  OA
ATOM     34 HH   TYR B3001       6.858  19.975  27.698  0.70 32.30 LIG 0.22  HD
ENDBRANCH 30 33
ENDBRANCH 26 27
ENDBRANCH 25 26
BRANCH 25 35
ATOM     35  N   TYR B3001      14.486  21.510  27.595  0.70 42.81 LIG-0.07  N 
ATOM     36 H3   TYR B3001      14.274  20.661  27.434  0.70 42.81 LIG 0.28  HD
ATOM     37 H2   TYR B3001      15.127  21.544  28.211  0.70 42.81 LIG 0.28  HD
ATOM     38 H1   TYR B3001      14.776  21.891  26.845  0.70 42.81 LIG 0.28  HD
ENDBRANCH 25 35
ENDBRANCH 1 25
TORSDOF 11
ENDMDL
MODEL 32
USER: ADFR SOLUTION from run 127
USER: SCORE 12.467523 LL:  -2.903 LR:  -9.565 RR:   0.000 FEB:  -6.283
USER: RMSD 13.720402
USER: SEED 126
USER: STATUS no improvement in best 31 clusters for 5 generations
USER: GENES 13
USER: genes 0 Translation |==|  0.31202 0.10542 0.58167
USER: genes 1 Rotation |==|  0.69807 0.08268 0.68849 0.53298
USER: genes 2 Torsion [N]-CA--C-[O] |==|  0.81293
USER: genes 3 Torsion [C]-N--CA-[C] |==|  0.43317
USER: genes 4 Torsion [N]-CA--C-[OXT] |==|  0.87567
USER: genes 5 Torsion [N]-CA--CB-[CG] |==|  0.21672
USER: genes 6 Torsion [CA]-CB--CG-[CD2] |==|  0.79978
USER: genes 7 Torsion [CE2]-CZ--OH-[HH] |==|  0.53832
USER: genes 8 Torsion [N]-C--CA-[N] |==|  0.25255
USER: genes 9 Torsion [C]-CA--CB-[CG] |==|  0.20219
USER: genes 10 Torsion [CA]-CB--CG-[CD1] |==|  0.06347
USER: genes 11 Torsion [CE1]-CZ--OH-[HH] |==|  0.87732
USER: genes 12 Torsion [C]-CA--N-[H2] |==|  0.41788
ROOT
ATOM      1  C   TYR B3001       8.421  21.672  30.420  0.70 44.28 LIG 0.25  C 
ATOM      2 O    TYR B3001       9.144  22.667  30.492  0.70 44.11 LIG-0.27  OA
ATOM      3  N   PRO B3002       8.901  20.444  30.122  0.70 46.07 LIG-0.34  N 
ATOM      4  CA  PRO B3002      10.292  20.032  29.888  0.70 46.91 LIG 0.18  C 
ATOM      5  CB  PRO B3002      10.151  18.567  29.472  0.70 46.92 LIG 0.04  C 
ATOM      6  CG  PRO B3002       8.851  18.556  28.771  0.70 47.16 LIG 0.02  C 
ATOM      7  CD  PRO B3002       7.991  19.355  29.724  0.70 47.04 LIG 0.13  C 
ENDROOT
BRANCH 4 8
ATOM      8  C   PRO B3002      11.161  20.791  28.897  0.70 47.26 LIG 0.24  C 
ATOM      9  N   TYR B3003      12.216  21.404  29.436  0.70 47.47 LIG-0.34  N 
ATOM     10 H    TYR B3003      12.373  21.398  30.282  0.70 47.47 LIG 0.16  HD
ATOM     11 O    PRO B3002      10.909  20.760  27.683  0.70 46.37 LIG-0.27  OA
BRANCH 9 12
ATOM     12  CA  TYR B3003      13.216  22.146  28.672  0.70 47.51 LIG 0.19  C 
BRANCH 12 13
ATOM     13  C   TYR B3003      13.964  23.203  29.470  0.70 47.80 LIG 0.20  C 
ATOM     14 OXT  TYR B3003      13.296  23.943  30.220  0.70 46.55 LIG-0.65  OA
ATOM     15 O    TYR B3003      15.200  23.307  29.316  0.70 50.35 LIG-0.65  OA
ENDBRANCH 12 13
BRANCH 12 16
ATOM     16  CB  TYR B3003      12.565  22.767  27.431  0.70 48.13 LIG 0.07  C 
BRANCH 16 17
ATOM     17  CG  TYR B3003      11.760  24.018  27.698  0.70 49.00 LIG-0.06  A 
ATOM     18  CD2 TYR B3003      10.525  23.957  28.356  0.70 49.34 LIG 0.01  A 
ATOM     19  CE2 TYR B3003       9.782  25.113  28.594  0.70 49.34 LIG 0.04  A 
ATOM     20  CZ  TYR B3003      10.278  26.345  28.177  0.70 49.55 LIG 0.07  A 
ATOM     21  CE1 TYR B3003      11.496  26.427  27.525  0.70 48.63 LIG 0.04  A 
ATOM     22  CD1 TYR B3003      12.229  25.268  27.290  0.70 49.33 LIG 0.01  A 
BRANCH 20 23
ATOM     23 OH   TYR B3003       9.567  27.500  28.432  0.70 50.92 LIG-0.36  OA
ATOM     24 HH   TYR B3003       9.879  28.129  27.970  0.70 50.92 LIG 0.22  HD
ENDBRANCH 20 23
ENDBRANCH 16 17
ENDBRANCH 12 16
ENDBRANCH 9 12
ENDBRANCH 4 8
BRANCH 1 25
ATOM     25  CA  TYR B3001       6.910  21.785  30.629  0.70 43.08 LIG 0.28  C 
BRANCH 25 26
ATOM     26  CB  TYR B3001       6.394  23.187  30.244  0.70 40.59 LIG 0.08  C 
BRANCH 26 27
ATOM     27  CG  TYR B3001       6.369  23.440  28.743  0.70 39.24 LIG-0.06  A 
ATOM     28  CD1 TYR B3001       6.318  22.378  27.836  0.70 40.30 LIG 0.01  A 
ATOM     29  CE1 TYR B3001       6.373  22.603  26.440  0.70 38.36 LIG 0.04  A 
ATOM     30  CZ  TYR B3001       6.475  23.902  25.953  0.70 37.05 LIG 0.07  A 
ATOM     31  CE2 TYR B3001       6.516  24.973  26.840  0.70 37.49 LIG 0.04  A 
ATOM     32  CD2 TYR B3001       6.462  24.736  28.227  0.70 38.19 LIG 0.01  A 
BRANCH 30 33
ATOM     33 OH   TYR B3001       6.560  24.135  24.595  0.70 32.30 LIG-0.36  OA
ATOM     34 HH   TYR B3001       7.099  23.591  24.250  0.70 32.30 LIG 0.22  HD
ENDBRANCH 30 33
ENDBRANCH 26 27
ENDBRANCH 25 26
BRANCH 25 35
ATOM     35  N   TYR B3001       6.725  21.561  32.093  0.70 42.81 LIG-0.07  N 
ATOM     36 H3   TYR B3001       6.615  20.691  32.249  0.70 42.81 LIG 0.28  HD
ATOM     37 H2   TYR B3001       6.007  22.005  32.373  0.70 42.81 LIG 0.28  HD
ATOM     38 H1   TYR B3001       7.443  21.851  32.531  0.70 42.81 LIG 0.28  HD
ENDBRANCH 25 35
ENDBRANCH 1 25
TORSDOF 11
ENDMDL
MODEL 33
USER: ADFR SOLUTION from run 92
USER: SCORE 11.950630 LL:  -2.425 LR:  -9.526 RR:   0.000 FEB:  -6.245
USER: RMSD 11.814171
USER: SEED 91
USER: STATUS no improvement in best 22 clusters for 5 generations
USER: GENES 13
USER: genes 0 Translation |==|  0.39351 0.14160 0.55100
USER: genes 1 Rotation |==|  0.09515 0.73168 0.36163 0.61521
USER: genes 2 Torsion [N]-CA--C-[O] |==|  0.83990
USER: genes 3 Torsion [C]-N--CA-[C] |==|  0.69237
USER: genes 4 Torsion [N]-CA--C-[OXT] |==|  0.81824
USER: genes 5 Torsion [N]-CA--CB-[CG] |==|  0.73298
USER: genes 6 Torsion [CA]-CB--CG-[CD2] |==|  0.64928
USER: genes 7 Torsion [CE2]-CZ--OH-[HH] |==|  0.98034
USER: genes 8 Torsion [N]-C--CA-[N] |==|  0.18863
USER: genes 9 Torsion [C]-CA--CB-[CG] |==|  0.19073
USER: genes 10 Torsion [CA]-CB--CG-[CD1] |==|  0.71168
USER: genes 11 Torsion [CE1]-CZ--OH-[HH] |==|  0.72763
USER: genes 12 Torsion [C]-CA--N-[H2] |==|  0.12788
ROOT
ATOM      1  C   TYR B3001      10.865  22.758  29.500  0.70 44.28 LIG 0.25  C 
ATOM      2 O    TYR B3001      10.124  23.700  29.786  0.70 44.11 LIG-0.27  OA
ATOM      3  N   PRO B3002      12.158  22.932  29.146  0.70 46.07 LIG-0.34  N 
ATOM      4  CA  PRO B3002      12.934  24.178  29.079  0.70 46.91 LIG 0.18  C 
ATOM      5  CB  PRO B3002      14.269  23.720  28.490  0.70 46.92 LIG 0.04  C 
ATOM      6  CG  PRO B3002      13.866  22.608  27.606  0.70 47.16 LIG 0.02  C 
ATOM      7  CD  PRO B3002      12.917  21.844  28.501  0.70 47.04 LIG 0.13  C 
ENDROOT
BRANCH 4 8
ATOM      8  C   PRO B3002      12.394  25.379  28.317  0.70 47.26 LIG 0.24  C 
ATOM      9  N   TYR B3003      12.333  26.508  29.024  0.70 47.47 LIG-0.34  N 
ATOM     10 H    TYR B3003      12.551  26.545  29.855  0.70 47.47 LIG 0.16  HD
ATOM     11 O    PRO B3002      12.107  25.285  27.113  0.70 46.37 LIG-0.27  OA
BRANCH 9 12
ATOM     12  CA  TYR B3003      11.899  27.794  28.486  0.70 47.51 LIG 0.19  C 
BRANCH 12 13
ATOM     13  C   TYR B3003      13.003  28.832  28.360  0.70 47.80 LIG 0.20  C 
ATOM     14 OXT  TYR B3003      13.530  29.248  29.411  0.70 46.55 LIG-0.65  OA
ATOM     15 O    TYR B3003      13.310  29.245  27.220  0.70 50.35 LIG-0.65  OA
ENDBRANCH 12 13
BRANCH 12 16
ATOM     16  CB  TYR B3003      10.737  28.341  29.324  0.70 48.13 LIG 0.07  C 
BRANCH 16 17
ATOM     17  CG  TYR B3003       9.363  28.044  28.769  0.70 49.00 LIG-0.06  A 
ATOM     18  CD2 TYR B3003       8.436  29.070  28.546  0.70 49.34 LIG 0.01  A 
ATOM     19  CE2 TYR B3003       7.167  28.792  28.040  0.70 49.34 LIG 0.04  A 
ATOM     20  CZ  TYR B3003       6.819  27.477  27.748  0.70 49.55 LIG 0.07  A 
ATOM     21  CE1 TYR B3003       7.719  26.448  27.961  0.70 48.63 LIG 0.04  A 
ATOM     22  CD1 TYR B3003       8.983  26.735  28.468  0.70 49.33 LIG 0.01  A 
BRANCH 20 23
ATOM     23 OH   TYR B3003       5.576  27.190  27.221  0.70 50.92 LIG-0.36  OA
ATOM     24 HH   TYR B3003       5.104  27.885  27.220  0.70 50.92 LIG 0.22  HD
ENDBRANCH 20 23
ENDBRANCH 16 17
ENDBRANCH 12 16
ENDBRANCH 9 12
ENDBRANCH 4 8
BRANCH 1 25
ATOM     25  CA  TYR B3001      10.340  21.322  29.492  0.70 43.08 LIG 0.28  C 
BRANCH 25 26
ATOM     26  CB  TYR B3001       8.822  21.278  29.762  0.70 40.59 LIG 0.08  C 
BRANCH 26 27
ATOM     27  CG  TYR B3001       7.982  21.857  28.632  0.70 39.24 LIG-0.06  A 
ATOM     28  CD1 TYR B3001       7.405  23.126  28.743  0.70 40.30 LIG 0.01  A 
ATOM     29  CE1 TYR B3001       6.561  23.638  27.731  0.70 38.36 LIG 0.04  A 
ATOM     30  CZ  TYR B3001       6.297  22.873  26.598  0.70 37.05 LIG 0.07  A 
ATOM     31  CE2 TYR B3001       6.870  21.613  26.466  0.70 37.49 LIG 0.04  A 
ATOM     32  CD2 TYR B3001       7.708  21.114  27.481  0.70 38.19 LIG 0.01  A 
BRANCH 30 33
ATOM     33 OH   TYR B3001       5.451  23.347  25.616  0.70 32.30 LIG-0.36  OA
ATOM     34 HH   TYR B3001       4.685  23.020  25.723  0.70 32.30 LIG 0.22  HD
ENDBRANCH 30 33
ENDBRANCH 26 27
ENDBRANCH 25 26
BRANCH 25 35
ATOM     35  N   TYR B3001      11.073  20.658  30.611  0.70 42.81 LIG-0.07  N 
ATOM     36 H3   TYR B3001      10.683  19.881  30.802  0.70 42.81 LIG 0.28  HD
ATOM     37 H2   TYR B3001      11.058  21.182  31.329  0.70 42.81 LIG 0.28  HD
ATOM     38 H1   TYR B3001      11.917  20.512  30.368  0.70 42.81 LIG 0.28  HD
ENDBRANCH 25 35
ENDBRANCH 1 25
TORSDOF 11
ENDMDL
MODEL 34
USER: ADFR SOLUTION from run 26
USER: SCORE 11.715553 LL:  -2.198 LR:  -9.518 RR:   0.000 FEB:  -6.236
USER: RMSD 13.481961
USER: SEED 25
USER: STATUS no improvement in best 25 clusters for 5 generations
USER: GENES 13
USER: genes 0 Translation |==|  0.32938 0.10654 0.52396
USER: genes 1 Rotation |==|  0.17426 0.75995 0.29275 0.68268
USER: genes 2 Torsion [N]-CA--C-[O] |==|  0.84981
USER: genes 3 Torsion [C]-N--CA-[C] |==|  0.21092
USER: genes 4 Torsion [N]-CA--C-[OXT] |==|  0.38337
USER: genes 5 Torsion [N]-CA--CB-[CG] |==|  0.84271
USER: genes 6 Torsion [CA]-CB--CG-[CD2] |==|  0.76481
USER: genes 7 Torsion [CE2]-CZ--OH-[HH] |==|  0.78175
USER: genes 8 Torsion [N]-C--CA-[N] |==|  0.32567
USER: genes 9 Torsion [C]-CA--CB-[CG] |==|  0.83541
USER: genes 10 Torsion [CA]-CB--CG-[CD1] |==|  0.80313
USER: genes 11 Torsion [CE1]-CZ--OH-[HH] |==|  0.71313
USER: genes 12 Torsion [C]-CA--N-[H2] |==|  0.43643
ROOT
ATOM      1  C   TYR B3001       8.941  21.706  28.689  0.70 44.28 LIG 0.25  C 
ATOM      2 O    TYR B3001       8.331  22.757  28.890  0.70 44.11 LIG-0.27  OA
ATOM      3  N   PRO B3002      10.272  21.587  28.896  0.70 46.07 LIG-0.34  N 
ATOM      4  CA  PRO B3002      11.215  22.586  29.419  0.70 46.91 LIG 0.18  C 
ATOM      5  CB  PRO B3002      12.568  21.886  29.282  0.70 46.92 LIG 0.04  C 
ATOM      6  CG  PRO B3002      12.379  21.053  28.077  0.70 47.16 LIG 0.02  C 
ATOM      7  CD  PRO B3002      11.022  20.443  28.345  0.70 47.04 LIG 0.13  C 
ENDROOT
BRANCH 4 8
ATOM      8  C   PRO B3002      11.269  23.981  28.815  0.70 47.26 LIG 0.24  C 
ATOM      9  N   TYR B3003      11.196  24.975  29.701  0.70 47.47 LIG-0.34  N 
ATOM     10 H    TYR B3003      11.093  24.837  30.544  0.70 47.47 LIG 0.16  HD
ATOM     11 O    PRO B3002      11.435  24.135  27.595  0.70 46.37 LIG-0.27  OA
BRANCH 9 12
ATOM     12  CA  TYR B3003      11.281  26.392  29.357  0.70 47.51 LIG 0.19  C 
BRANCH 12 13
ATOM     13  C   TYR B3003      10.021  26.966  28.729  0.70 47.80 LIG 0.20  C 
ATOM     14 OXT  TYR B3003       9.650  28.097  29.103  0.70 46.55 LIG-0.65  OA
ATOM     15 O    TYR B3003       9.396  26.273  27.896  0.70 50.35 LIG-0.65  OA
ENDBRANCH 12 13
BRANCH 12 16
ATOM     16  CB  TYR B3003      12.495  26.635  28.453  0.70 48.13 LIG 0.07  C 
BRANCH 16 17
ATOM     17  CG  TYR B3003      13.815  26.185  29.034  0.70 49.00 LIG-0.06  A 
ATOM     18  CD2 TYR B3003      14.546  27.013  29.896  0.70 49.34 LIG 0.01  A 
ATOM     19  CE2 TYR B3003      15.768  26.597  30.425  0.70 49.34 LIG 0.04  A 
ATOM     20  CZ  TYR B3003      16.265  25.340  30.094  0.70 49.55 LIG 0.07  A 
ATOM     21  CE1 TYR B3003      15.560  24.507  29.244  0.70 48.63 LIG 0.04  A 
ATOM     22  CD1 TYR B3003      14.342  24.931  28.720  0.70 49.33 LIG 0.01  A 
BRANCH 20 23
ATOM     23 OH   TYR B3003      17.459  24.904  30.632  0.70 50.92 LIG-0.36  OA
ATOM     24 HH   TYR B3003      18.099  25.260  30.220  0.70 50.92 LIG 0.22  HD
ENDBRANCH 20 23
ENDBRANCH 16 17
ENDBRANCH 12 16
ENDBRANCH 9 12
ENDBRANCH 4 8
BRANCH 1 25
ATOM     25  CA  TYR B3001       8.219  20.471  28.147  0.70 43.08 LIG 0.28  C 
BRANCH 25 26
ATOM     26  CB  TYR B3001       7.458  20.793  26.845  0.70 40.59 LIG 0.08  C 
BRANCH 26 27
ATOM     27  CG  TYR B3001       6.408  21.884  27.003  0.70 39.24 LIG-0.06  A 
ATOM     28  CD1 TYR B3001       5.230  21.650  27.717  0.70 40.30 LIG 0.01  A 
ATOM     29  CE1 TYR B3001       4.216  22.633  27.803  0.70 38.36 LIG 0.04  A 
ATOM     30  CZ  TYR B3001       4.389  23.861  27.170  0.70 37.05 LIG 0.07  A 
ATOM     31  CE2 TYR B3001       5.559  24.116  26.463  0.70 37.49 LIG 0.04  A 
ATOM     32  CD2 TYR B3001       6.560  23.129  26.385  0.70 38.19 LIG 0.01  A 
BRANCH 30 33
ATOM     33 OH   TYR B3001       3.396  24.818  27.220  0.70 32.30 LIG-0.36  OA
ATOM     34 HH   TYR B3001       2.987  24.836  26.486  0.70 32.30 LIG 0.22  HD
ENDBRANCH 30 33
ENDBRANCH 26 27
ENDBRANCH 25 26
BRANCH 25 35
ATOM     35  N   TYR B3001       7.251  20.111  29.225  0.70 42.81 LIG-0.07  N 
ATOM     36 H3   TYR B3001       7.666  19.631  29.849  0.70 42.81 LIG 0.28  HD
ATOM     37 H2   TYR B3001       6.584  19.635  28.879  0.70 42.81 LIG 0.28  HD
ATOM     38 H1   TYR B3001       6.926  20.854  29.592  0.70 42.81 LIG 0.28  HD
ENDBRANCH 25 35
ENDBRANCH 1 25
TORSDOF 11
ENDMDL
MODEL 35
USER: ADFR SOLUTION from run 87
USER: SCORE 11.789276 LL:  -2.270 LR:  -9.520 RR:   0.000 FEB:  -6.238
USER: RMSD 13.895497
USER: SEED 86
USER: STATUS no improvement in best 20 clusters for 5 generations
USER: GENES 13
USER: genes 0 Translation |==|  0.77774 0.15817 0.43765
USER: genes 1 Rotation |==|  0.24116 0.52164 0.20723 0.81115
USER: genes 2 Torsion [N]-CA--C-[O] |==|  0.91523
USER: genes 3 Torsion [C]-N--CA-[C] |==|  0.17239
USER: genes 4 Torsion [N]-CA--C-[OXT] |==|  0.34680
USER: genes 5 Torsion [N]-CA--CB-[CG] |==|  0.50067
USER: genes 6 Torsion [CA]-CB--CG-[CD2] |==|  0.58123
USER: genes 7 Torsion [CE2]-CZ--OH-[HH] |==|  0.46638
USER: genes 8 Torsion [N]-C--CA-[N] |==|  0.37088
USER: genes 9 Torsion [C]-CA--CB-[CG] |==|  0.21530
USER: genes 10 Torsion [CA]-CB--CG-[CD1] |==|  0.26099
USER: genes 11 Torsion [CE1]-CZ--OH-[HH] |==|  0.80388
USER: genes 12 Torsion [C]-CA--N-[H2] |==|  0.18334
ROOT
ATOM      1  C   TYR B3001      22.392  23.255  26.099  0.70 44.28 LIG 0.25  C 
ATOM      2 O    TYR B3001      21.563  23.765  25.345  0.70 44.11 LIG-0.27  OA
ATOM      3  N   PRO B3002      22.784  23.842  27.252  0.70 46.07 LIG-0.34  N 
ATOM      4  CA  PRO B3002      22.311  25.097  27.853  0.70 46.91 LIG 0.18  C 
ATOM      5  CB  PRO B3002      23.232  25.269  29.061  0.70 46.92 LIG 0.04  C 
ATOM      6  CG  PRO B3002      24.494  24.664  28.592  0.70 47.16 LIG 0.02  C 
ATOM      7  CD  PRO B3002      23.995  23.385  27.958  0.70 47.04 LIG 0.13  C 
ENDROOT
BRANCH 4 8
ATOM      8  C   PRO B3002      22.264  26.374  27.027  0.70 47.26 LIG 0.24  C 
ATOM      9  N   TYR B3003      21.348  27.260  27.421  0.70 47.47 LIG-0.34  N 
ATOM     10 H    TYR B3003      20.804  27.106  28.069  0.70 47.47 LIG 0.16  HD
ATOM     11 O    PRO B3002      23.079  26.563  26.110  0.70 46.37 LIG-0.27  OA
BRANCH 9 12
ATOM     12  CA  TYR B3003      21.158  28.574  26.812  0.70 47.51 LIG 0.19  C 
BRANCH 12 13
ATOM     13  C   TYR B3003      20.755  28.539  25.346  0.70 47.80 LIG 0.20  C 
ATOM     14 OXT  TYR B3003      19.714  29.142  25.017  0.70 46.55 LIG-0.65  OA
ATOM     15 O    TYR B3003      21.459  27.885  24.546  0.70 50.35 LIG-0.65  OA
ENDBRANCH 12 13
BRANCH 12 16
ATOM     16  CB  TYR B3003      22.420  29.422  27.005  0.70 48.13 LIG 0.07  C 
BRANCH 16 17
ATOM     17  CG  TYR B3003      22.343  30.813  26.420  0.70 49.00 LIG-0.06  A 
ATOM     18  CD2 TYR B3003      23.492  31.471  25.964  0.70 49.34 LIG 0.01  A 
ATOM     19  CE2 TYR B3003      23.417  32.758  25.431  0.70 49.34 LIG 0.04  A 
ATOM     20  CZ  TYR B3003      22.182  33.394  25.345  0.70 49.55 LIG 0.07  A 
ATOM     21  CE1 TYR B3003      21.035  32.762  25.790  0.70 48.63 LIG 0.04  A 
ATOM     22  CD1 TYR B3003      21.119  31.479  26.323  0.70 49.33 LIG 0.01  A 
BRANCH 20 23
ATOM     23 OH   TYR B3003      22.090  34.656  24.794  0.70 50.92 LIG-0.36  OA
ATOM     24 HH   TYR B3003      21.283  34.843  24.656  0.70 50.92 LIG 0.22  HD
ENDBRANCH 20 23
ENDBRANCH 16 17
ENDBRANCH 12 16
ENDBRANCH 9 12
ENDBRANCH 4 8
BRANCH 1 25
ATOM     25  CA  TYR B3001      23.062  21.927  25.745  0.70 43.08 LIG 0.28  C 
BRANCH 25 26
ATOM     26  CB  TYR B3001      24.042  22.090  24.565  0.70 40.59 LIG 0.08  C 
BRANCH 26 27
ATOM     27  CG  TYR B3001      25.370  22.724  24.954  0.70 39.24 LIG-0.06  A 
ATOM     28  CD1 TYR B3001      26.475  21.933  25.284  0.70 40.30 LIG 0.01  A 
ATOM     29  CE1 TYR B3001      27.688  22.514  25.722  0.70 38.36 LIG 0.04  A 
ATOM     30  CZ  TYR B3001      27.794  23.898  25.824  0.70 37.05 LIG 0.07  A 
ATOM     31  CE2 TYR B3001      26.710  24.701  25.490  0.70 37.49 LIG 0.04  A 
ATOM     32  CD2 TYR B3001      25.507  24.111  25.058  0.70 38.19 LIG 0.01  A 
BRANCH 30 33
ATOM     33 OH   TYR B3001      28.962  24.477  26.278  0.70 32.30 LIG-0.36  OA
ATOM     34 HH   TYR B3001      29.050  24.324  27.099  0.70 32.30 LIG 0.22  HD
ENDBRANCH 30 33
ENDBRANCH 26 27
ENDBRANCH 25 26
BRANCH 25 35
ATOM     35  N   TYR B3001      21.930  21.040  25.345  0.70 42.81 LIG-0.07  N 
ATOM     36 H3   TYR B3001      22.233  20.215  25.207  0.70 42.81 LIG 0.28  HD
ATOM     37 H2   TYR B3001      21.560  21.350  24.597  0.70 42.81 LIG 0.28  HD
ATOM     38 H1   TYR B3001      21.320  21.026  25.993  0.70 42.81 LIG 0.28  HD
ENDBRANCH 25 35
ENDBRANCH 1 25
TORSDOF 11
ENDMDL
MODEL 36
USER: ADFR SOLUTION from run 119
USER: SCORE 11.476957 LL:  -1.960 LR:  -9.517 RR:   0.000 FEB:  -6.235
USER: RMSD 8.837963
USER: SEED 118
USER: STATUS no improvement in best 38 clusters for 5 generations
USER: GENES 13
USER: genes 0 Translation |==|  0.57587 0.27058 0.55757
USER: genes 1 Rotation |==|  0.21415 0.16568 0.65961 0.67620
USER: genes 2 Torsion [N]-CA--C-[O] |==|  0.01957
USER: genes 3 Torsion [C]-N--CA-[C] |==|  0.79755
USER: genes 4 Torsion [N]-CA--C-[OXT] |==|  0.48035
USER: genes 5 Torsion [N]-CA--CB-[CG] |==|  0.30412
USER: genes 6 Torsion [CA]-CB--CG-[CD2] |==|  0.27908
USER: genes 7 Torsion [CE2]-CZ--OH-[HH] |==|  0.09797
USER: genes 8 Torsion [N]-C--CA-[N] |==|  0.44958
USER: genes 9 Torsion [C]-CA--CB-[CG] |==|  0.54375
USER: genes 10 Torsion [CA]-CB--CG-[CD1] |==|  0.27492
USER: genes 11 Torsion [CE1]-CZ--OH-[HH] |==|  0.19065
USER: genes 12 Torsion [C]-CA--N-[H2] |==|  0.34272
ROOT
ATOM      1  C   TYR B3001      16.336  26.627  29.697  0.70 44.28 LIG 0.25  C 
ATOM      2 O    TYR B3001      16.852  25.562  30.037  0.70 44.11 LIG-0.27  OA
ATOM      3  N   PRO B3002      14.997  26.806  29.656  0.70 46.07 LIG-0.34  N 
ATOM      4  CA  PRO B3002      13.931  25.866  30.031  0.70 46.91 LIG 0.18  C 
ATOM      5  CB  PRO B3002      12.658  26.613  29.630  0.70 46.92 LIG 0.04  C 
ATOM      6  CG  PRO B3002      13.098  27.390  28.454  0.70 47.16 LIG 0.02  C 
ATOM      7  CD  PRO B3002      14.411  27.957  28.944  0.70 47.04 LIG 0.13  C 
ENDROOT
BRANCH 4 8
ATOM      8  C   PRO B3002      13.923  24.452  29.471  0.70 47.26 LIG 0.24  C 
ATOM      9  N   TYR B3003      12.803  23.767  29.702  0.70 47.47 LIG-0.34  N 
ATOM     10 H    TYR B3003      12.150  24.088  30.161  0.70 47.47 LIG 0.16  HD
ATOM     11 O    PRO B3002      14.879  24.034  28.799  0.70 46.37 LIG-0.27  OA
BRANCH 9 12
ATOM     12  CA  TYR B3003      12.550  22.413  29.215  0.70 47.51 LIG 0.19  C 
BRANCH 12 13
ATOM     13  C   TYR B3003      12.275  22.320  27.722  0.70 47.80 LIG 0.20  C 
ATOM     14 OXT  TYR B3003      12.185  21.181  27.220  0.70 46.55 LIG-0.65  OA
ATOM     15 O    TYR B3003      12.185  23.377  27.062  0.70 50.35 LIG-0.65  OA
ENDBRANCH 12 13
BRANCH 12 16
ATOM     16  CB  TYR B3003      11.408  21.778  30.016  0.70 48.13 LIG 0.07  C 
BRANCH 16 17
ATOM     17  CG  TYR B3003      10.119  21.600  29.246  0.70 49.00 LIG-0.06  A 
ATOM     18  CD2 TYR B3003       9.764  20.356  28.710  0.70 49.34 LIG 0.01  A 
ATOM     19  CE2 TYR B3003       8.577  20.197  27.994  0.70 49.34 LIG 0.04  A 
ATOM     20  CZ  TYR B3003       7.734  21.288  27.815  0.70 49.55 LIG 0.07  A 
ATOM     21  CE1 TYR B3003       8.066  22.526  28.336  0.70 48.63 LIG 0.04  A 
ATOM     22  CD1 TYR B3003       9.253  22.676  29.047  0.70 49.33 LIG 0.01  A 
BRANCH 20 23
ATOM     23 OH   TYR B3003       6.543  21.139  27.133  0.70 50.92 LIG-0.36  OA
ATOM     24 HH   TYR B3003       6.218  20.381  27.298  0.70 50.92 LIG 0.22  HD
ENDBRANCH 20 23
ENDBRANCH 16 17
ENDBRANCH 12 16
ENDBRANCH 9 12
ENDBRANCH 4 8
BRANCH 1 25
ATOM     25  CA  TYR B3001      17.199  27.811  29.257  0.70 43.08 LIG 0.28  C 
BRANCH 25 26
ATOM     26  CB  TYR B3001      17.282  27.904  27.720  0.70 40.59 LIG 0.08  C 
BRANCH 26 27
ATOM     27  CG  TYR B3001      18.406  28.801  27.220  0.70 39.24 LIG-0.06  A 
ATOM     28  CD1 TYR B3001      19.621  28.261  26.791  0.70 40.30 LIG 0.01  A 
ATOM     29  CE1 TYR B3001      20.696  29.092  26.399  0.70 38.36 LIG 0.04  A 
ATOM     30  CZ  TYR B3001      20.547  30.476  26.434  0.70 37.05 LIG 0.07  A 
ATOM     31  CE2 TYR B3001      19.342  31.032  26.847  0.70 37.49 LIG 0.04  A 
ATOM     32  CD2 TYR B3001      18.280  30.194  27.236  0.70 38.19 LIG 0.01  A 
BRANCH 30 33
ATOM     33 OH   TYR B3001      21.597  31.300  26.083  0.70 32.30 LIG-0.36  OA
ATOM     34 HH   TYR B3001      21.747  31.229  25.259  0.70 32.30 LIG 0.22  HD
ENDBRANCH 30 33
ENDBRANCH 26 27
ENDBRANCH 25 26
BRANCH 25 35
ATOM     35  N   TYR B3001      18.549  27.510  29.821  0.70 42.81 LIG-0.07  N 
ATOM     36 H3   TYR B3001      18.768  28.135  30.416  0.70 42.81 LIG 0.28  HD
ATOM     37 H2   TYR B3001      19.149  27.500  29.165  0.70 42.81 LIG 0.28  HD
ATOM     38 H1   TYR B3001      18.533  26.715  30.220  0.70 42.81 LIG 0.28  HD
ENDBRANCH 25 35
ENDBRANCH 1 25
TORSDOF 11
ENDMDL
MODEL 37
USER: ADFR SOLUTION from run 43
USER: SCORE 11.581147 LL:  -2.060 LR:  -9.521 RR:   0.000 FEB:  -6.240
USER: RMSD 12.866152
USER: SEED 42
USER: STATUS no improvement in best 16 clusters for 5 generations
USER: GENES 13
USER: genes 0 Translation |==|  0.38886 0.13917 0.53741
USER: genes 1 Rotation |==|  0.39440 0.27680 0.07740 0.60219
USER: genes 2 Torsion [N]-CA--C-[O] |==|  0.36800
USER: genes 3 Torsion [C]-N--CA-[C] |==|  0.62614
USER: genes 4 Torsion [N]-CA--C-[OXT] |==|  0.58201
USER: genes 5 Torsion [N]-CA--CB-[CG] |==|  0.63006
USER: genes 6 Torsion [CA]-CB--CG-[CD2] |==|  0.79096
USER: genes 7 Torsion [CE2]-CZ--OH-[HH] |==|  0.15060
USER: genes 8 Torsion [N]-C--CA-[N] |==|  0.81396
USER: genes 9 Torsion [C]-CA--CB-[CG] |==|  0.10677
USER: genes 10 Torsion [CA]-CB--CG-[CD1] |==|  0.18357
USER: genes 11 Torsion [CE1]-CZ--OH-[HH] |==|  0.94550
USER: genes 12 Torsion [C]-CA--N-[H2] |==|  0.21179
ROOT
ATOM      1  C   TYR B3001      10.726  22.685  29.092  0.70 44.28 LIG 0.25  C 
ATOM      2 O    TYR B3001      11.424  22.436  28.108  0.70 44.11 LIG-0.27  OA
ATOM      3  N   PRO B3002      10.319  23.938  29.396  0.70 46.07 LIG-0.34  N 
ATOM      4  CA  PRO B3002      10.548  25.185  28.654  0.70 46.91 LIG 0.18  C 
ATOM      5  CB  PRO B3002       9.958  26.250  29.579  0.70 46.92 LIG 0.04  C 
ATOM      6  CG  PRO B3002      10.213  25.687  30.921  0.70 47.16 LIG 0.02  C 
ATOM      7  CD  PRO B3002       9.776  24.252  30.731  0.70 47.04 LIG 0.13  C 
ENDROOT
BRANCH 4 8
ATOM      8  C   PRO B3002      11.953  25.572  28.218  0.70 47.26 LIG 0.24  C 
ATOM      9  N   TYR B3003      12.893  25.400  29.148  0.70 47.47 LIG-0.34  N 
ATOM     10 H    TYR B3003      12.713  25.124  29.943  0.70 47.47 LIG 0.16  HD
ATOM     11 O    PRO B3002      12.173  25.950  27.056  0.70 46.37 LIG-0.27  OA
BRANCH 9 12
ATOM     12  CA  TYR B3003      14.316  25.653  28.938  0.70 47.51 LIG 0.19  C 
BRANCH 12 13
ATOM     13  C   TYR B3003      15.237  24.564  29.467  0.70 47.80 LIG 0.20  C 
ATOM     14 OXT  TYR B3003      16.377  24.902  29.844  0.70 46.55 LIG-0.65  OA
ATOM     15 O    TYR B3003      14.828  23.382  29.470  0.70 50.35 LIG-0.65  OA
ENDBRANCH 12 13
BRANCH 12 16
ATOM     16  CB  TYR B3003      14.694  27.015  29.532  0.70 48.13 LIG 0.07  C 
BRANCH 16 17
ATOM     17  CG  TYR B3003      15.532  27.888  28.626  0.70 49.00 LIG-0.06  A 
ATOM     18  CD2 TYR B3003      16.893  27.626  28.426  0.70 49.34 LIG 0.01  A 
ATOM     19  CE2 TYR B3003      17.665  28.438  27.595  0.70 49.34 LIG 0.04  A 
ATOM     20  CZ  TYR B3003      17.072  29.521  26.953  0.70 49.55 LIG 0.07  A 
ATOM     21  CE1 TYR B3003      15.729  29.798  27.137  0.70 48.63 LIG 0.04  A 
ATOM     22  CD1 TYR B3003      14.967  28.983  27.970  0.70 49.33 LIG 0.01  A 
BRANCH 20 23
ATOM     23 OH   TYR B3003      17.817  30.316  26.105  0.70 50.92 LIG-0.36  OA
ATOM     24 HH   TYR B3003      18.184  29.837  25.521  0.70 50.92 LIG 0.22  HD
ENDBRANCH 20 23
ENDBRANCH 16 17
ENDBRANCH 12 16
ENDBRANCH 9 12
ENDBRANCH 4 8
BRANCH 1 25
ATOM     25  CA  TYR B3001      10.310  21.576  30.060  0.70 43.08 LIG 0.28  C 
BRANCH 25 26
ATOM     26  CB  TYR B3001       8.793  21.612  30.335  0.70 40.59 LIG 0.08  C 
BRANCH 26 27
ATOM     27  CG  TYR B3001       7.956  21.951  29.109  0.70 39.24 LIG-0.06  A 
ATOM     28  CD1 TYR B3001       7.896  21.081  28.016  0.70 40.30 LIG 0.01  A 
ATOM     29  CE1 TYR B3001       7.184  21.425  26.844  0.70 38.36 LIG 0.04  A 
ATOM     30  CZ  TYR B3001       6.524  22.648  26.770  0.70 37.05 LIG 0.07  A 
ATOM     31  CE2 TYR B3001       6.564  23.522  27.851  0.70 37.49 LIG 0.04  A 
ATOM     32  CD2 TYR B3001       7.277  23.169  29.012  0.70 38.19 LIG 0.01  A 
BRANCH 30 33
ATOM     33 OH   TYR B3001       5.850  23.010  25.621  0.70 32.30 LIG-0.36  OA
ATOM     34 HH   TYR B3001       6.131  22.552  24.975  0.70 32.30 LIG 0.22  HD
ENDBRANCH 30 33
ENDBRANCH 26 27
ENDBRANCH 25 26
BRANCH 25 35
ATOM     35  N   TYR B3001      11.060  21.885  31.314  0.70 42.81 LIG-0.07  N 
ATOM     36 H3   TYR B3001      11.060  21.170  31.844  0.70 42.81 LIG 0.28  HD
ATOM     37 H2   TYR B3001      10.669  22.564  31.734  0.70 42.81 LIG 0.28  HD
ATOM     38 H1   TYR B3001      11.898  22.104  31.113  0.70 42.81 LIG 0.28  HD
ENDBRANCH 25 35
ENDBRANCH 1 25
TORSDOF 11
ENDMDL
MODEL 38
USER: ADFR SOLUTION from run 73
USER: SCORE 11.771429 LL:  -2.296 LR:  -9.476 RR:   0.000 FEB:  -6.194
USER: RMSD 12.901934
USER: SEED 72
USER: STATUS no improvement in best 16 clusters for 5 generations
USER: GENES 13
USER: genes 0 Translation |==|  0.38188 0.10144 0.51232
USER: genes 1 Rotation |==|  0.71122 0.47263 0.30999 0.91053
USER: genes 2 Torsion [N]-CA--C-[O] |==|  0.93990
USER: genes 3 Torsion [C]-N--CA-[C] |==|  0.52098
USER: genes 4 Torsion [N]-CA--C-[OXT] |==|  0.99408
USER: genes 5 Torsion [N]-CA--CB-[CG] |==|  0.13142
USER: genes 6 Torsion [CA]-CB--CG-[CD2] |==|  0.59960
USER: genes 7 Torsion [CE2]-CZ--OH-[HH] |==|  0.21819
USER: genes 8 Torsion [N]-C--CA-[N] |==|  0.35931
USER: genes 9 Torsion [C]-CA--CB-[CG] |==|  0.67009
USER: genes 10 Torsion [CA]-CB--CG-[CD1] |==|  0.79535
USER: genes 11 Torsion [CE1]-CZ--OH-[HH] |==|  0.97440
USER: genes 12 Torsion [C]-CA--N-[H2] |==|  0.19070
ROOT
ATOM      1  C   TYR B3001      10.516  21.553  28.340  0.70 44.28 LIG 0.25  C 
ATOM      2 O    TYR B3001       9.916  22.601  28.095  0.70 44.11 LIG-0.27  OA
ATOM      3  N   PRO B3002       9.880  20.373  28.507  0.70 46.07 LIG-0.34  N 
ATOM      4  CA  PRO B3002       8.445  20.076  28.390  0.70 46.91 LIG 0.18  C 
ATOM      5  CB  PRO B3002       8.360  18.612  28.825  0.70 46.92 LIG 0.04  C 
ATOM      6  CG  PRO B3002       9.443  18.510  29.824  0.70 47.16 LIG 0.02  C 
ATOM      7  CD  PRO B3002      10.573  19.221  29.114  0.70 47.04 LIG 0.13  C 
ENDROOT
BRANCH 4 8
ATOM      8  C   PRO B3002       7.424  20.919  29.139  0.70 47.26 LIG 0.24  C 
ATOM      9  N   TYR B3003       6.175  20.820  28.680  0.70 47.47 LIG-0.34  N 
ATOM     10 H    TYR B3003       5.971  20.344  27.994  0.70 47.47 LIG 0.16  HD
ATOM     11 O    PRO B3002       7.758  21.579  30.135  0.70 46.37 LIG-0.27  OA
BRANCH 9 12
ATOM     12  CA  TYR B3003       5.025  21.495  29.274  0.70 47.51 LIG 0.19  C 
BRANCH 12 13
ATOM     13  C   TYR B3003       3.681  21.089  28.687  0.70 47.80 LIG 0.20  C 
ATOM     14 OXT  TYR B3003       3.684  20.269  27.747  0.70 46.55 LIG-0.65  OA
ATOM     15 O    TYR B3003       2.644  21.616  29.144  0.70 50.35 LIG-0.65  OA
ENDBRANCH 12 13
BRANCH 12 16
ATOM     16  CB  TYR B3003       5.214  23.014  29.189  0.70 48.13 LIG 0.07  C 
BRANCH 16 17
ATOM     17  CG  TYR B3003       5.653  23.522  27.835  0.70 49.00 LIG-0.06  A 
ATOM     18  CD2 TYR B3003       6.537  24.602  27.721  0.70 49.34 LIG 0.01  A 
ATOM     19  CE2 TYR B3003       6.935  25.073  26.469  0.70 49.34 LIG 0.04  A 
ATOM     20  CZ  TYR B3003       6.451  24.457  25.320  0.70 49.55 LIG 0.07  A 
ATOM     21  CE1 TYR B3003       5.576  23.389  25.410  0.70 48.63 LIG 0.04  A 
ATOM     22  CD1 TYR B3003       5.183  22.927  26.663  0.70 49.33 LIG 0.01  A 
BRANCH 20 23
ATOM     23 OH   TYR B3003       6.858  24.894  24.075  0.70 50.92 LIG-0.36  OA
ATOM     24 HH   TYR B3003       7.624  24.591  23.909  0.70 50.92 LIG 0.22  HD
ENDBRANCH 20 23
ENDBRANCH 16 17
ENDBRANCH 12 16
ENDBRANCH 9 12
ENDBRANCH 4 8
BRANCH 1 25
ATOM     25  CA  TYR B3001      12.036  21.542  28.509  0.70 43.08 LIG 0.28  C 
BRANCH 25 26
ATOM     26  CB  TYR B3001      12.466  22.333  29.762  0.70 40.59 LIG 0.08  C 
BRANCH 26 27
ATOM     27  CG  TYR B3001      13.362  23.526  29.455  0.70 39.24 LIG-0.06  A 
ATOM     28  CD1 TYR B3001      14.698  23.345  29.087  0.70 40.30 LIG 0.01  A 
ATOM     29  CE1 TYR B3001      15.556  24.449  28.877  0.70 38.36 LIG 0.04  A 
ATOM     30  CZ  TYR B3001      15.069  25.743  29.033  0.70 37.05 LIG 0.07  A 
ATOM     31  CE2 TYR B3001      13.739  25.943  29.389  0.70 37.49 LIG 0.04  A 
ATOM     32  CD2 TYR B3001      12.895  24.836  29.597  0.70 38.19 LIG 0.01  A 
BRANCH 30 33
ATOM     33 OH   TYR B3001      15.902  26.830  28.860  0.70 32.30 LIG-0.36  OA
ATOM     34 HH   TYR B3001      16.696  26.566  28.789  0.70 32.30 LIG 0.22  HD
ENDBRANCH 30 33
ENDBRANCH 26 27
ENDBRANCH 25 26
BRANCH 25 35
ATOM     35  N   TYR B3001      12.547  22.220  27.281  0.70 42.81 LIG-0.07  N 
ATOM     36 H3   TYR B3001      13.433  22.141  27.245  0.70 42.81 LIG 0.28  HD
ATOM     37 H2   TYR B3001      12.327  23.081  27.303  0.70 42.81 LIG 0.28  HD
ATOM     38 H1   TYR B3001      12.187  21.841  26.561  0.70 42.81 LIG 0.28  HD
ENDBRANCH 25 35
ENDBRANCH 1 25
TORSDOF 11
ENDMDL
MODEL 39
USER: ADFR SOLUTION from run 52
USER: SCORE 11.236357 LL:  -1.762 LR:  -9.474 RR:   0.000 FEB:  -6.193
USER: RMSD 10.577331
USER: SEED 51
USER: STATUS no improvement in best 16 clusters for 5 generations
USER: GENES 13
USER: genes 0 Translation |==|  0.38841 0.26860 0.51031
USER: genes 1 Rotation |==|  0.38357 0.29148 0.48541 0.93903
USER: genes 2 Torsion [N]-CA--C-[O] |==|  0.12176
USER: genes 3 Torsion [C]-N--CA-[C] |==|  0.61364
USER: genes 4 Torsion [N]-CA--C-[OXT] |==|  0.85933
USER: genes 5 Torsion [N]-CA--CB-[CG] |==|  0.87065
USER: genes 6 Torsion [CA]-CB--CG-[CD2] |==|  0.29644
USER: genes 7 Torsion [CE2]-CZ--OH-[HH] |==|  0.20346
USER: genes 8 Torsion [N]-C--CA-[N] |==|  0.83327
USER: genes 9 Torsion [C]-CA--CB-[CG] |==|  0.19917
USER: genes 10 Torsion [CA]-CB--CG-[CD1] |==|  0.79715
USER: genes 11 Torsion [CE1]-CZ--OH-[HH] |==|  0.21004
USER: genes 12 Torsion [C]-CA--N-[H2] |==|  0.62794
ROOT
ATOM      1  C   TYR B3001      10.712  26.568  28.279  0.70 44.28 LIG 0.25  C 
ATOM      2 O    TYR B3001      10.404  26.020  27.220  0.70 44.11 LIG-0.27  OA
ATOM      3  N   PRO B3002       9.929  26.514  29.380  0.70 46.07 LIG-0.34  N 
ATOM      4  CA  PRO B3002       8.658  25.802  29.571  0.70 46.91 LIG 0.18  C 
ATOM      5  CB  PRO B3002       8.221  26.247  30.967  0.70 46.92 LIG 0.04  C 
ATOM      6  CG  PRO B3002       8.752  27.623  31.047  0.70 47.16 LIG 0.02  C 
ATOM      7  CD  PRO B3002      10.152  27.435  30.510  0.70 47.04 LIG 0.13  C 
ENDROOT
BRANCH 4 8
ATOM      8  C   PRO B3002       7.524  25.974  28.573  0.70 47.26 LIG 0.24  C 
ATOM      9  N   TYR B3003       6.330  26.206  29.119  0.70 47.47 LIG-0.34  N 
ATOM     10 H    TYR B3003       6.206  26.223  29.970  0.70 47.47 LIG 0.16  HD
ATOM     11 O    PRO B3002       7.749  25.960  27.352  0.70 46.37 LIG-0.27  OA
BRANCH 9 12
ATOM     12  CA  TYR B3003       5.109  26.455  28.357  0.70 47.51 LIG 0.19  C 
BRANCH 12 13
ATOM     13  C   TYR B3003       4.220  27.549  28.926  0.70 47.80 LIG 0.20  C 
ATOM     14 OXT  TYR B3003       3.925  27.485  30.137  0.70 46.55 LIG-0.65  OA
ATOM     15 O    TYR B3003       3.799  28.440  28.157  0.70 50.35 LIG-0.65  OA
ENDBRANCH 12 13
BRANCH 12 16
ATOM     16  CB  TYR B3003       4.322  25.149  28.196  0.70 48.13 LIG 0.07  C 
BRANCH 16 17
ATOM     17  CG  TYR B3003       5.152  23.959  27.771  0.70 49.00 LIG-0.06  A 
ATOM     18  CD2 TYR B3003       5.465  22.937  28.675  0.70 49.34 LIG 0.01  A 
ATOM     19  CE2 TYR B3003       6.237  21.843  28.281  0.70 49.34 LIG 0.04  A 
ATOM     20  CZ  TYR B3003       6.698  21.767  26.970  0.70 49.55 LIG 0.07  A 
ATOM     21  CE1 TYR B3003       6.400  22.767  26.061  0.70 48.63 LIG 0.04  A 
ATOM     22  CD1 TYR B3003       5.631  23.855  26.464  0.70 49.33 LIG 0.01  A 
BRANCH 20 23
ATOM     23 OH   TYR B3003       7.438  20.677  26.559  0.70 50.92 LIG-0.36  OA
ATOM     24 HH   TYR B3003       6.935  20.009  26.482  0.70 50.92 LIG 0.22  HD
ENDBRANCH 20 23
ENDBRANCH 16 17
ENDBRANCH 12 16
ENDBRANCH 9 12
ENDBRANCH 4 8
BRANCH 1 25
ATOM     25  CA  TYR B3001      12.000  27.385  28.394  0.70 43.08 LIG 0.28  C 
BRANCH 25 26
ATOM     26  CB  TYR B3001      12.900  26.856  29.530  0.70 40.59 LIG 0.08  C 
BRANCH 26 27
ATOM     27  CG  TYR B3001      13.557  25.519  29.218  0.70 39.24 LIG-0.06  A 
ATOM     28  CD1 TYR B3001      12.813  24.336  29.215  0.70 40.30 LIG 0.01  A 
ATOM     29  CE1 TYR B3001      13.431  23.081  29.003  0.70 38.36 LIG 0.04  A 
ATOM     30  CZ  TYR B3001      14.804  23.015  28.789  0.70 37.05 LIG 0.07  A 
ATOM     31  CE2 TYR B3001      15.560  24.182  28.778  0.70 37.49 LIG 0.04  A 
ATOM     32  CD2 TYR B3001      14.933  25.425  28.991  0.70 38.19 LIG 0.01  A 
BRANCH 30 33
ATOM     33 OH   TYR B3001      15.425  21.795  28.610  0.70 32.30 LIG-0.36  OA
ATOM     34 HH   TYR B3001      15.263  21.508  27.838  0.70 32.30 LIG 0.22  HD
ENDBRANCH 30 33
ENDBRANCH 26 27
ENDBRANCH 25 26
BRANCH 25 35
ATOM     35  N   TYR B3001      11.530  28.765  28.720  0.70 42.81 LIG-0.07  N 
ATOM     36 H3   TYR B3001      10.655  28.824  28.571  0.70 42.81 LIG 0.28  HD
ATOM     37 H2   TYR B3001      11.959  29.353  28.209  0.70 42.81 LIG 0.28  HD
ATOM     38 H1   TYR B3001      11.696  28.940  29.577  0.70 42.81 LIG 0.28  HD
ENDBRANCH 25 35
ENDBRANCH 1 25
TORSDOF 11
ENDMDL
MODEL 40
USER: ADFR SOLUTION from run 109
USER: SCORE 11.857681 LL:  -2.421 LR:  -9.437 RR:   0.000 FEB:  -6.155
USER: RMSD 12.811250
USER: SEED 108
USER: STATUS no improvement in best 27 clusters for 5 generations
USER: GENES 13
USER: genes 0 Translation |==|  0.34078 0.07873 0.53622
USER: genes 1 Rotation |==|  0.41180 0.28066 0.40422 0.93004
USER: genes 2 Torsion [N]-CA--C-[O] |==|  0.42012
USER: genes 3 Torsion [C]-N--CA-[C] |==|  0.73185
USER: genes 4 Torsion [N]-CA--C-[OXT] |==|  0.08281
USER: genes 5 Torsion [N]-CA--CB-[CG] |==|  0.18332
USER: genes 6 Torsion [CA]-CB--CG-[CD2] |==|  0.91983
USER: genes 7 Torsion [CE2]-CZ--OH-[HH] |==|  0.40519
USER: genes 8 Torsion [N]-C--CA-[N] |==|  0.15555
USER: genes 9 Torsion [C]-CA--CB-[CG] |==|  0.41545
USER: genes 10 Torsion [CA]-CB--CG-[CD1] |==|  0.35135
USER: genes 11 Torsion [CE1]-CZ--OH-[HH] |==|  0.89119
USER: genes 12 Torsion [C]-CA--N-[H2] |==|  0.02927
ROOT
ATOM      1  C   TYR B3001       9.283  20.872  29.056  0.70 44.28 LIG 0.25  C 
ATOM      2 O    TYR B3001       9.035  20.645  27.871  0.70 44.11 LIG-0.27  OA
ATOM      3  N   PRO B3002       8.345  20.782  30.025  0.70 46.07 LIG-0.34  N 
ATOM      4  CA  PRO B3002       6.938  20.372  29.909  0.70 46.91 LIG 0.18  C 
ATOM      5  CB  PRO B3002       6.393  20.611  31.318  0.70 46.92 LIG 0.04  C 
ATOM      6  CG  PRO B3002       7.183  21.772  31.775  0.70 47.16 LIG 0.02  C 
ATOM      7  CD  PRO B3002       8.578  21.368  31.358  0.70 47.04 LIG 0.13  C 
ENDROOT
BRANCH 4 8
ATOM      8  C   PRO B3002       6.035  21.014  28.867  0.70 47.26 LIG 0.24  C 
ATOM      9  N   TYR B3003       6.403  22.239  28.489  0.70 47.47 LIG-0.34  N 
ATOM     10 H    TYR B3003       7.079  22.647  28.833  0.70 47.47 LIG 0.16  HD
ATOM     11 O    PRO B3002       5.081  20.385  28.385  0.70 46.37 LIG-0.27  OA
BRANCH 9 12
ATOM     12  CA  TYR B3003       5.719  23.025  27.466  0.70 47.51 LIG 0.19  C 
BRANCH 12 13
ATOM     13  C   TYR B3003       6.343  22.941  26.081  0.70 47.80 LIG 0.20  C 
ATOM     14 OXT  TYR B3003       6.935  21.885  25.776  0.70 46.55 LIG-0.65  OA
ATOM     15 O    TYR B3003       6.268  23.935  25.328  0.70 50.35 LIG-0.65  OA
ENDBRANCH 12 13
BRANCH 12 16
ATOM     16  CB  TYR B3003       5.610  24.485  27.920  0.70 48.13 LIG 0.07  C 
BRANCH 16 17
ATOM     17  CG  TYR B3003       6.930  25.211  28.040  0.70 49.00 LIG-0.06  A 
ATOM     18  CD2 TYR B3003       8.109  24.521  28.345  0.70 49.34 LIG 0.01  A 
ATOM     19  CE2 TYR B3003       9.325  25.195  28.462  0.70 49.34 LIG 0.04  A 
ATOM     20  CZ  TYR B3003       9.366  26.572  28.267  0.70 49.55 LIG 0.07  A 
ATOM     21  CE1 TYR B3003       8.213  27.273  27.965  0.70 48.63 LIG 0.04  A 
ATOM     22  CD1 TYR B3003       7.004  26.593  27.853  0.70 49.33 LIG 0.01  A 
BRANCH 20 23
ATOM     23 OH   TYR B3003      10.567  27.247  28.351  0.70 50.92 LIG-0.36  OA
ATOM     24 HH   TYR B3003      10.569  27.885  27.804  0.70 50.92 LIG 0.22  HD
ENDBRANCH 20 23
ENDBRANCH 16 17
ENDBRANCH 12 16
ENDBRANCH 9 12
ENDBRANCH 4 8
BRANCH 1 25
ATOM     25  CA  TYR B3001      10.680  21.314  29.495  0.70 43.08 LIG 0.28  C 
BRANCH 25 26
ATOM     26  CB  TYR B3001      11.684  21.239  28.326  0.70 40.59 LIG 0.08  C 
BRANCH 26 27
ATOM     27  CG  TYR B3001      12.801  22.271  28.411  0.70 39.24 LIG-0.06  A 
ATOM     28  CD1 TYR B3001      14.142  21.885  28.345  0.70 40.30 LIG 0.01  A 
ATOM     29  CE1 TYR B3001      15.185  22.828  28.501  0.70 38.36 LIG 0.04  A 
ATOM     30  CZ  TYR B3001      14.878  24.168  28.720  0.70 37.05 LIG 0.07  A 
ATOM     31  CE2 TYR B3001      13.549  24.572  28.778  0.70 37.49 LIG 0.04  A 
ATOM     32  CD2 TYR B3001      12.520  23.624  28.623  0.70 38.19 LIG 0.01  A 
BRANCH 30 33
ATOM     33 OH   TYR B3001      15.885  25.094  28.904  0.70 32.30 LIG-0.36  OA
ATOM     34 HH   TYR B3001      16.496  24.756  29.370  0.70 32.30 LIG 0.22  HD
ENDBRANCH 30 33
ENDBRANCH 26 27
ENDBRANCH 25 26
BRANCH 25 35
ATOM     35  N   TYR B3001      11.060  20.331  30.553  0.70 42.81 LIG-0.07  N 
ATOM     36 H3   TYR B3001      11.873  20.011  30.384  0.70 42.81 LIG 0.28  HD
ATOM     37 H2   TYR B3001      10.474  19.661  30.561  0.70 42.81 LIG 0.28  HD
ATOM     38 H1   TYR B3001      11.060  20.734  31.346  0.70 42.81 LIG 0.28  HD
ENDBRANCH 25 35
ENDBRANCH 1 25
TORSDOF 11
ENDMDL
MODEL 41
USER: ADFR SOLUTION from run 111
USER: SCORE 10.948740 LL:  -1.519 LR:  -9.430 RR:   0.000 FEB:  -6.148
USER: RMSD 12.721479
USER: SEED 110
USER: STATUS no improvement in best 27 clusters for 5 generations
USER: GENES 13
USER: genes 0 Translation |==|  0.46078 0.17352 0.53521
USER: genes 1 Rotation |==|  0.57735 0.66813 0.96398 0.52167
USER: genes 2 Torsion [N]-CA--C-[O] |==|  0.20792
USER: genes 3 Torsion [C]-N--CA-[C] |==|  0.67457
USER: genes 4 Torsion [N]-CA--C-[OXT] |==|  0.30051
USER: genes 5 Torsion [N]-CA--CB-[CG] |==|  0.81936
USER: genes 6 Torsion [CA]-CB--CG-[CD2] |==|  0.21406
USER: genes 7 Torsion [CE2]-CZ--OH-[HH] |==|  0.70357
USER: genes 8 Torsion [N]-C--CA-[N] |==|  0.80135
USER: genes 9 Torsion [C]-CA--CB-[CG] |==|  0.34470
USER: genes 10 Torsion [CA]-CB--CG-[CD1] |==|  0.54902
USER: genes 11 Torsion [CE1]-CZ--OH-[HH] |==|  0.61919
USER: genes 12 Torsion [C]-CA--N-[H2] |==|  0.52973
ROOT
ATOM      1  C   TYR B3001      12.883  23.716  29.026  0.70 44.28 LIG 0.25  C 
ATOM      2 O    TYR B3001      13.706  23.277  28.221  0.70 44.11 LIG-0.27  OA
ATOM      3  N   PRO B3002      12.939  24.977  29.508  0.70 46.07 LIG-0.34  N 
ATOM      4  CA  PRO B3002      13.885  26.051  29.170  0.70 46.91 LIG 0.18  C 
ATOM      5  CB  PRO B3002      13.501  27.166  30.143  0.70 46.92 LIG 0.04  C 
ATOM      6  CG  PRO B3002      13.044  26.415  31.329  0.70 47.16 LIG 0.02  C 
ATOM      7  CD  PRO B3002      12.157  25.367  30.696  0.70 47.04 LIG 0.13  C 
ENDROOT
BRANCH 4 8
ATOM      8  C   PRO B3002      15.383  25.794  29.211  0.70 47.26 LIG 0.24  C 
ATOM      9  N   TYR B3003      16.001  26.268  30.294  0.70 47.47 LIG-0.34  N 
ATOM     10 H    TYR B3003      15.589  26.713  30.904  0.70 47.47 LIG 0.16  HD
ATOM     11 O    PRO B3002      15.935  25.133  28.318  0.70 46.37 LIG-0.27  OA
BRANCH 9 12
ATOM     12  CA  TYR B3003      17.424  26.094  30.572  0.70 47.51 LIG 0.19  C 
BRANCH 12 13
ATOM     13  C   TYR B3003      17.729  25.294  31.830  0.70 47.80 LIG 0.20  C 
ATOM     14 OXT  TYR B3003      18.185  24.142  31.687  0.70 46.55 LIG-0.65  OA
ATOM     15 O    TYR B3003      17.480  25.808  32.942  0.70 50.35 LIG-0.65  OA
ENDBRANCH 12 13
BRANCH 12 16
ATOM     16  CB  TYR B3003      18.114  27.462  30.622  0.70 48.13 LIG 0.07  C 
BRANCH 16 17
ATOM     17  CG  TYR B3003      18.123  28.213  29.310  0.70 49.00 LIG-0.06  A 
ATOM     18  CD2 TYR B3003      16.978  28.873  28.848  0.70 49.34 LIG 0.01  A 
ATOM     19  CE2 TYR B3003      16.987  29.560  27.633  0.70 49.34 LIG 0.04  A 
ATOM     20  CZ  TYR B3003      18.153  29.593  26.874  0.70 49.55 LIG 0.07  A 
ATOM     21  CE1 TYR B3003      19.296  28.947  27.313  0.70 48.63 LIG 0.04  A 
ATOM     22  CD1 TYR B3003      19.276  28.263  28.524  0.70 49.33 LIG 0.01  A 
BRANCH 20 23
ATOM     23 OH   TYR B3003      18.185  30.292  25.685  0.70 50.92 LIG-0.36  OA
ATOM     24 HH   TYR B3003      18.185  29.752  25.041  0.70 50.92 LIG 0.22  HD
ENDBRANCH 20 23
ENDBRANCH 16 17
ENDBRANCH 12 16
ENDBRANCH 9 12
ENDBRANCH 4 8
BRANCH 1 25
ATOM     25  CA  TYR B3001      11.760  22.827  29.562  0.70 43.08 LIG 0.28  C 
BRANCH 25 26
ATOM     26  CB  TYR B3001      10.405  23.566  29.547  0.70 40.59 LIG 0.08  C 
BRANCH 26 27
ATOM     27  CG  TYR B3001       9.318  22.837  28.770  0.70 39.24 LIG-0.06  A 
ATOM     28  CD1 TYR B3001       8.167  23.506  28.345  0.70 40.30 LIG 0.01  A 
ATOM     29  CE1 TYR B3001       7.119  22.818  27.691  0.70 38.36 LIG 0.04  A 
ATOM     30  CZ  TYR B3001       7.229  21.450  27.459  0.70 37.05 LIG 0.07  A 
ATOM     31  CE2 TYR B3001       8.371  20.769  27.865  0.70 37.49 LIG 0.04  A 
ATOM     32  CD2 TYR B3001       9.407  21.465  28.516  0.70 38.19 LIG 0.01  A 
BRANCH 30 33
ATOM     33 OH   TYR B3001       6.201  20.760  26.849  0.70 32.30 LIG-0.36  OA
ATOM     34 HH   TYR B3001       6.079  20.030  27.245  0.70 32.30 LIG 0.22  HD
ENDBRANCH 30 33
ENDBRANCH 26 27
ENDBRANCH 25 26
BRANCH 25 35
ATOM     35  N   TYR B3001      12.163  22.536  30.970  0.70 42.81 LIG-0.07  N 
ATOM     36 H3   TYR B3001      13.009  22.263  30.986  0.70 42.81 LIG 0.28  HD
ATOM     37 H2   TYR B3001      11.639  21.898  31.303  0.70 42.81 LIG 0.28  HD
ATOM     38 H1   TYR B3001      12.080  23.273  31.461  0.70 42.81 LIG 0.28  HD
ENDBRANCH 25 35
ENDBRANCH 1 25
TORSDOF 11
ENDMDL
MODEL 42
USER: ADFR SOLUTION from run 18
USER: SCORE 11.802465 LL:  -2.425 LR:  -9.378 RR:   0.000 FEB:  -6.097
USER: RMSD 12.904813
USER: SEED 17
USER: STATUS no improvement in best 20 clusters for 5 generations
USER: GENES 13
USER: genes 0 Translation |==|  0.77791 0.15287 0.42937
USER: genes 1 Rotation |==|  0.23497 0.51117 0.20127 0.80066
USER: genes 2 Torsion [N]-CA--C-[O] |==|  0.05662
USER: genes 3 Torsion [C]-N--CA-[C] |==|  0.50452
USER: genes 4 Torsion [N]-CA--C-[OXT] |==|  0.02267
USER: genes 5 Torsion [N]-CA--CB-[CG] |==|  0.20091
USER: genes 6 Torsion [CA]-CB--CG-[CD2] |==|  0.86232
USER: genes 7 Torsion [CE2]-CZ--OH-[HH] |==|  0.30714
USER: genes 8 Torsion [N]-C--CA-[N] |==|  0.31550
USER: genes 9 Torsion [C]-CA--CB-[CG] |==|  0.19606
USER: genes 10 Torsion [CA]-CB--CG-[CD1] |==|  0.04390
USER: genes 11 Torsion [CE1]-CZ--OH-[HH] |==|  0.13602
USER: genes 12 Torsion [C]-CA--N-[H2] |==|  0.44710
ROOT
ATOM      1  C   TYR B3001      22.397  23.096  25.851  0.70 44.28 LIG 0.25  C 
ATOM      2 O    TYR B3001      21.593  23.571  25.048  0.70 44.11 LIG-0.27  OA
ATOM      3  N   PRO B3002      22.775  23.748  26.973  0.70 46.07 LIG-0.34  N 
ATOM      4  CA  PRO B3002      22.310  25.046  27.484  0.70 46.91 LIG 0.18  C 
ATOM      5  CB  PRO B3002      23.208  25.278  28.700  0.70 46.92 LIG 0.04  C 
ATOM      6  CG  PRO B3002      24.469  24.625  28.298  0.70 47.16 LIG 0.02  C 
ATOM      7  CD  PRO B3002      23.962  23.317  27.734  0.70 47.04 LIG 0.13  C 
ENDROOT
BRANCH 4 8
ATOM      8  C   PRO B3002      22.303  26.269  26.579  0.70 47.26 LIG 0.24  C 
ATOM      9  N   TYR B3003      22.353  27.437  27.220  0.70 47.47 LIG-0.34  N 
ATOM     10 H    TYR B3003      22.355  27.495  28.079  0.70 47.47 LIG 0.16  HD
ATOM     11 O    PRO B3002      22.318  26.141  25.345  0.70 46.37 LIG-0.27  OA
BRANCH 9 12
ATOM     12  CA  TYR B3003      22.410  28.738  26.558  0.70 47.51 LIG 0.19  C 
BRANCH 12 13
ATOM     13  C   TYR B3003      22.500  29.925  27.504  0.70 47.80 LIG 0.20  C 
ATOM     14 OXT  TYR B3003      22.673  29.688  28.717  0.70 46.55 LIG-0.65  OA
ATOM     15 O    TYR B3003      22.363  31.077  27.036  0.70 50.35 LIG-0.65  OA
ENDBRANCH 12 13
BRANCH 12 16
ATOM     16  CB  TYR B3003      21.215  28.891  25.611  0.70 48.13 LIG 0.07  C 
BRANCH 16 17
ATOM     17  CG  TYR B3003      19.885  29.099  26.300  0.70 49.00 LIG-0.06  A 
ATOM     18  CD2 TYR B3003      19.471  28.260  27.341  0.70 49.34 LIG 0.01  A 
ATOM     19  CE2 TYR B3003      18.241  28.451  27.970  0.70 49.34 LIG 0.04  A 
ATOM     20  CZ  TYR B3003      17.416  29.494  27.559  0.70 49.55 LIG 0.07  A 
ATOM     21  CE1 TYR B3003      17.806  30.335  26.532  0.70 48.63 LIG 0.04  A 
ATOM     22  CD1 TYR B3003      19.035  30.135  25.909  0.70 49.33 LIG 0.01  A 
BRANCH 20 23
ATOM     23 OH   TYR B3003      16.209  29.712  28.191  0.70 50.92 LIG-0.36  OA
ATOM     24 HH   TYR B3003      16.248  30.426  28.632  0.70 50.92 LIG 0.22  HD
ENDBRANCH 20 23
ENDBRANCH 16 17
ENDBRANCH 12 16
ENDBRANCH 9 12
ENDBRANCH 4 8
BRANCH 1 25
ATOM     25  CA  TYR B3001      23.052  21.738  25.596  0.70 43.08 LIG 0.28  C 
BRANCH 25 26
ATOM     26  CB  TYR B3001      23.656  21.664  24.178  0.70 40.59 LIG 0.08  C 
BRANCH 26 27
ATOM     27  CG  TYR B3001      24.894  22.531  23.994  0.70 39.24 LIG-0.06  A 
ATOM     28  CD1 TYR B3001      25.586  23.039  25.097  0.70 40.30 LIG 0.01  A 
ATOM     29  CE1 TYR B3001      26.690  23.907  24.933  0.70 38.36 LIG 0.04  A 
ATOM     30  CZ  TYR B3001      27.105  24.264  23.653  0.70 37.05 LIG 0.07  A 
ATOM     31  CE2 TYR B3001      26.435  23.760  22.544  0.70 37.49 LIG 0.04  A 
ATOM     32  CD2 TYR B3001      25.337  22.898  22.720  0.70 38.19 LIG 0.01  A 
BRANCH 30 33
ATOM     33 OH   TYR B3001      28.162  25.134  23.479  0.70 32.30 LIG-0.36  OA
ATOM     34 HH   TYR B3001      28.810  24.888  23.953  0.70 32.30 LIG 0.22  HD
ENDBRANCH 30 33
ENDBRANCH 26 27
ENDBRANCH 25 26
BRANCH 25 35
ATOM     35  N   TYR B3001      21.929  20.761  25.720  0.70 42.81 LIG-0.07  N 
ATOM     36 H3   TYR B3001      21.760  20.610  26.581  0.70 42.81 LIG 0.28  HD
ATOM     37 H2   TYR B3001      22.155  19.997  25.324  0.70 42.81 LIG 0.28  HD
ATOM     38 H1   TYR B3001      21.202  21.093  25.329  0.70 42.81 LIG 0.28  HD
ENDBRANCH 25 35
ENDBRANCH 1 25
TORSDOF 11
ENDMDL
MODEL 43
USER: ADFR SOLUTION from run 36
USER: SCORE 11.871005 LL:  -2.512 LR:  -9.359 RR:   0.000 FEB:  -6.078
USER: RMSD 11.817188
USER: SEED 35
USER: STATUS no improvement in best 16 clusters for 5 generations
USER: GENES 13
USER: genes 0 Translation |==|  0.41429 0.21067 0.51040
USER: genes 1 Rotation |==|  0.73975 0.61824 0.65406 0.89345
USER: genes 2 Torsion [N]-CA--C-[O] |==|  0.50403
USER: genes 3 Torsion [C]-N--CA-[C] |==|  0.16868
USER: genes 4 Torsion [N]-CA--C-[OXT] |==|  0.76799
USER: genes 5 Torsion [N]-CA--CB-[CG] |==|  0.77630
USER: genes 6 Torsion [CA]-CB--CG-[CD2] |==|  0.46003
USER: genes 7 Torsion [CE2]-CZ--OH-[HH] |==|  0.08903
USER: genes 8 Torsion [N]-C--CA-[N] |==|  0.26778
USER: genes 9 Torsion [C]-CA--CB-[CG] |==|  0.77640
USER: genes 10 Torsion [CA]-CB--CG-[CD1] |==|  0.73428
USER: genes 11 Torsion [CE1]-CZ--OH-[HH] |==|  0.62257
USER: genes 12 Torsion [C]-CA--N-[H2] |==|  0.82034
ROOT
ATOM      1  C   TYR B3001      11.489  24.830  28.282  0.70 44.28 LIG 0.25  C 
ATOM      2 O    TYR B3001      10.387  24.375  27.970  0.70 44.11 LIG-0.27  OA
ATOM      3  N   PRO B3002      12.632  24.121  28.149  0.70 46.07 LIG-0.34  N 
ATOM      4  CA  PRO B3002      12.820  22.773  27.595  0.70 46.91 LIG 0.18  C 
ATOM      5  CB  PRO B3002      14.302  22.500  27.851  0.70 46.92 LIG 0.04  C 
ATOM      6  CG  PRO B3002      14.552  23.234  29.107  0.70 47.16 LIG 0.02  C 
ATOM      7  CD  PRO B3002      13.870  24.553  28.824  0.70 47.04 LIG 0.13  C 
ENDROOT
BRANCH 4 8
ATOM      8  C   PRO B3002      11.966  21.615  28.088  0.70 47.26 LIG 0.24  C 
ATOM      9  N   TYR B3003      11.010  21.955  28.953  0.70 47.47 LIG-0.34  N 
ATOM     10 H    TYR B3003      10.906  22.762  29.234  0.70 47.47 LIG 0.16  HD
ATOM     11 O    PRO B3002      12.139  20.469  27.644  0.70 46.37 LIG-0.27  OA
BRANCH 9 12
ATOM     12  CA  TYR B3003      10.039  21.021  29.517  0.70 47.51 LIG 0.19  C 
BRANCH 12 13
ATOM     13  C   TYR B3003      10.650  19.888  30.328  0.70 47.80 LIG 0.20  C 
ATOM     14 OXT  TYR B3003      11.060  18.887  29.706  0.70 46.55 LIG-0.65  OA
ATOM     15 O    TYR B3003      10.683  19.992  31.573  0.70 50.35 LIG-0.65  OA
ENDBRANCH 12 13
BRANCH 12 16
ATOM     16  CB  TYR B3003       9.144  20.467  28.404  0.70 48.13 LIG 0.07  C 
BRANCH 16 17
ATOM     17  CG  TYR B3003       8.017  21.383  27.984  0.70 49.00 LIG-0.06  A 
ATOM     18  CD2 TYR B3003       7.307  21.159  26.798  0.70 49.34 LIG 0.01  A 
ATOM     19  CE2 TYR B3003       6.271  22.010  26.411  0.70 49.34 LIG 0.04  A 
ATOM     20  CZ  TYR B3003       5.937  23.093  27.218  0.70 49.55 LIG 0.07  A 
ATOM     21  CE1 TYR B3003       6.626  23.332  28.394  0.70 48.63 LIG 0.04  A 
ATOM     22  CD1 TYR B3003       7.659  22.479  28.771  0.70 49.33 LIG 0.01  A 
BRANCH 20 23
ATOM     23 OH   TYR B3003       4.896  23.927  26.862  0.70 50.92 LIG-0.36  OA
ATOM     24 HH   TYR B3003       4.310  23.485  26.453  0.70 50.92 LIG 0.22  HD
ENDBRANCH 20 23
ENDBRANCH 16 17
ENDBRANCH 12 16
ENDBRANCH 9 12
ENDBRANCH 4 8
BRANCH 1 25
ATOM     25  CA  TYR B3001      11.617  26.230  28.884  0.70 43.08 LIG 0.28  C 
BRANCH 25 26
ATOM     26  CB  TYR B3001      10.391  26.582  29.751  0.70 40.59 LIG 0.08  C 
BRANCH 26 27
ATOM     27  CG  TYR B3001       9.185  27.048  28.947  0.70 39.24 LIG-0.06  A 
ATOM     28  CD1 TYR B3001       8.935  28.408  28.748  0.70 40.30 LIG 0.01  A 
ATOM     29  CE1 TYR B3001       7.776  28.849  28.069  0.70 38.36 LIG 0.04  A 
ATOM     30  CZ  TYR B3001       6.864  27.918  27.582  0.70 37.05 LIG 0.07  A 
ATOM     31  CE2 TYR B3001       7.100  26.559  27.761  0.70 37.49 LIG 0.04  A 
ATOM     32  CD2 TYR B3001       8.257  26.133  28.440  0.70 38.19 LIG 0.01  A 
BRANCH 30 33
ATOM     33 OH   TYR B3001       5.713  28.334  26.943  0.70 32.30 LIG-0.36  OA
ATOM     34 HH   TYR B3001       5.060  27.885  27.220  0.70 32.30 LIG 0.22  HD
ENDBRANCH 30 33
ENDBRANCH 26 27
ENDBRANCH 25 26
BRANCH 25 35
ATOM     35  N   TYR B3001      11.676  27.135  27.697  0.70 42.81 LIG-0.07  N 
ATOM     36 H3   TYR B3001      10.963  26.996  27.183  0.70 42.81 LIG 0.28  HD
ATOM     37 H2   TYR B3001      12.415  26.967  27.232  0.70 42.81 LIG 0.28  HD
ATOM     38 H1   TYR B3001      11.683  27.982  27.970  0.70 42.81 LIG 0.28  HD
ENDBRANCH 25 35
ENDBRANCH 1 25
TORSDOF 11
ENDMDL
MODEL 44
USER: ADFR SOLUTION from run 45
USER: SCORE 11.489580 LL:  -2.133 LR:  -9.357 RR:   0.000 FEB:  -6.075
USER: RMSD 12.474963
USER: SEED 44
USER: STATUS no improvement in best 13 clusters for 5 generations
USER: GENES 13
USER: genes 0 Translation |==|  0.42366 0.14574 0.59053
USER: genes 1 Rotation |==|  0.17957 0.87906 0.44791 0.53039
USER: genes 2 Torsion [N]-CA--C-[O] |==|  0.85560
USER: genes 3 Torsion [C]-N--CA-[C] |==|  0.52002
USER: genes 4 Torsion [N]-CA--C-[OXT] |==|  0.87239
USER: genes 5 Torsion [N]-CA--CB-[CG] |==|  0.54891
USER: genes 6 Torsion [CA]-CB--CG-[CD2] |==|  0.04136
USER: genes 7 Torsion [CE2]-CZ--OH-[HH] |==|  0.36586
USER: genes 8 Torsion [N]-C--CA-[N] |==|  0.32283
USER: genes 9 Torsion [C]-CA--CB-[CG] |==|  0.28871
USER: genes 10 Torsion [CA]-CB--CG-[CD1] |==|  0.08384
USER: genes 11 Torsion [CE1]-CZ--OH-[HH] |==|  0.68680
USER: genes 12 Torsion [C]-CA--N-[H2] |==|  0.66812
ROOT
ATOM      1  C   TYR B3001      11.770  22.882  30.686  0.70 44.28 LIG 0.25  C 
ATOM      2 O    TYR B3001      11.969  23.957  31.253  0.70 44.11 LIG-0.27  OA
ATOM      3  N   PRO B3002      12.610  22.388  29.750  0.70 46.07 LIG-0.34  N 
ATOM      4  CA  PRO B3002      13.883  22.945  29.270  0.70 46.91 LIG 0.18  C 
ATOM      5  CB  PRO B3002      14.266  21.996  28.133  0.70 46.92 LIG 0.04  C 
ATOM      6  CG  PRO B3002      12.952  21.592  27.595  0.70 47.16 LIG 0.02  C 
ATOM      7  CD  PRO B3002      12.190  21.286  28.865  0.70 47.04 LIG 0.13  C 
ENDROOT
BRANCH 4 8
ATOM      8  C   PRO B3002      13.963  24.393  28.811  0.70 47.26 LIG 0.24  C 
ATOM      9  N   TYR B3003      14.978  25.086  29.328  0.70 47.47 LIG-0.34  N 
ATOM     10 H    TYR B3003      15.525  24.750  29.900  0.70 47.47 LIG 0.16  HD
ATOM     11 O    PRO B3002      13.164  24.834  27.970  0.70 46.37 LIG-0.27  OA
BRANCH 9 12
ATOM     12  CA  TYR B3003      15.283  26.475  28.991  0.70 47.51 LIG 0.19  C 
BRANCH 12 13
ATOM     13  C   TYR B3003      16.587  26.995  29.575  0.70 47.80 LIG 0.20  C 
ATOM     14 OXT  TYR B3003      16.822  26.753  30.776  0.70 46.55 LIG-0.65  OA
ATOM     15 O    TYR B3003      17.346  27.667  28.843  0.70 50.35 LIG-0.65  OA
ENDBRANCH 12 13
BRANCH 12 16
ATOM     16  CB  TYR B3003      14.111  27.376  29.398  0.70 48.13 LIG 0.07  C 
BRANCH 16 17
ATOM     17  CG  TYR B3003      14.107  28.739  28.745  0.70 49.00 LIG-0.06  A 
ATOM     18  CD2 TYR B3003      14.911  29.010  27.631  0.70 49.34 LIG 0.01  A 
ATOM     19  CE2 TYR B3003      14.910  30.272  27.036  0.70 49.34 LIG 0.04  A 
ATOM     20  CZ  TYR B3003      14.094  31.273  27.554  0.70 49.55 LIG 0.07  A 
ATOM     21  CE1 TYR B3003      13.291  31.026  28.654  0.70 48.63 LIG 0.04  A 
ATOM     22  CD1 TYR B3003      13.301  29.765  29.243  0.70 49.33 LIG 0.01  A 
BRANCH 20 23
ATOM     23 OH   TYR B3003      14.061  32.517  26.958  0.70 50.92 LIG-0.36  OA
ATOM     24 HH   TYR B3003      13.263  32.754  26.846  0.70 50.92 LIG 0.22  HD
ENDBRANCH 20 23
ENDBRANCH 16 17
ENDBRANCH 12 16
ENDBRANCH 9 12
ENDBRANCH 4 8
BRANCH 1 25
ATOM     25  CA  TYR B3001      10.519  22.056  30.988  0.70 43.08 LIG 0.28  C 
BRANCH 25 26
ATOM     26  CB  TYR B3001       9.238  22.900  30.829  0.70 40.59 LIG 0.08  C 
BRANCH 26 27
ATOM     27  CG  TYR B3001       8.466  22.610  29.549  0.70 39.24 LIG-0.06  A 
ATOM     28  CD1 TYR B3001       8.496  21.341  28.965  0.70 40.30 LIG 0.01  A 
ATOM     29  CE1 TYR B3001       7.846  21.085  27.735  0.70 38.36 LIG 0.04  A 
ATOM     30  CZ  TYR B3001       7.158  22.109  27.091  0.70 37.05 LIG 0.07  A 
ATOM     31  CE2 TYR B3001       7.109  23.376  27.662  0.70 37.49 LIG 0.04  A 
ATOM     32  CD2 TYR B3001       7.761  23.618  28.886  0.70 38.19 LIG 0.01  A 
BRANCH 30 33
ATOM     33 OH   TYR B3001       6.544  21.881  25.876  0.70 32.30 LIG-0.36  OA
ATOM     34 HH   TYR B3001       6.936  22.320  25.277  0.70 32.30 LIG 0.22  HD
ENDBRANCH 30 33
ENDBRANCH 26 27
ENDBRANCH 25 26
BRANCH 25 35
ATOM     35  N   TYR B3001      10.684  21.648  32.414  0.70 42.81 LIG-0.07  N 
ATOM     36 H3   TYR B3001      11.445  21.983  32.733  0.70 42.81 LIG 0.28  HD
ATOM     37 H2   TYR B3001      10.706  20.760  32.469  0.70 42.81 LIG 0.28  HD
ATOM     38 H1   TYR B3001      10.001  21.958  32.893  0.70 42.81 LIG 0.28  HD
ENDBRANCH 25 35
ENDBRANCH 1 25
TORSDOF 11
ENDMDL
MODEL 45
USER: ADFR SOLUTION from run 119
USER: SCORE 11.338067 LL:  -2.004 LR:  -9.334 RR:   0.000 FEB:  -6.053
USER: RMSD 9.141955
USER: SEED 118
USER: STATUS no improvement in best 38 clusters for 5 generations
USER: GENES 13
USER: genes 0 Translation |==|  0.56384 0.25926 0.56190
USER: genes 1 Rotation |==|  0.23201 0.15679 0.65093 0.69394
USER: genes 2 Torsion [N]-CA--C-[O] |==|  0.98633
USER: genes 3 Torsion [C]-N--CA-[C] |==|  0.84752
USER: genes 4 Torsion [N]-CA--C-[OXT] |==|  0.47615
USER: genes 5 Torsion [N]-CA--CB-[CG] |==|  0.28873
USER: genes 6 Torsion [CA]-CB--CG-[CD2] |==|  0.29112
USER: genes 7 Torsion [CE2]-CZ--OH-[HH] |==|  0.08906
USER: genes 8 Torsion [N]-C--CA-[N] |==|  0.46291
USER: genes 9 Torsion [C]-CA--CB-[CG] |==|  0.33710
USER: genes 10 Torsion [CA]-CB--CG-[CD1] |==|  0.14968
USER: genes 11 Torsion [CE1]-CZ--OH-[HH] |==|  0.90094
USER: genes 12 Torsion [C]-CA--N-[H2] |==|  0.32368
ROOT
ATOM      1  C   TYR B3001      15.975  26.288  29.827  0.70 44.28 LIG 0.25  C 
ATOM      2 O    TYR B3001      16.537  25.212  30.039  0.70 44.11 LIG-0.27  OA
ATOM      3  N   PRO B3002      14.631  26.423  29.853  0.70 46.07 LIG-0.34  N 
ATOM      4  CA  PRO B3002      13.610  25.413  30.169  0.70 46.91 LIG 0.18  C 
ATOM      5  CB  PRO B3002      12.299  26.151  29.892  0.70 46.92 LIG 0.04  C 
ATOM      6  CG  PRO B3002      12.668  27.057  28.785  0.70 47.16 LIG 0.02  C 
ATOM      7  CD  PRO B3002      13.981  27.617  29.281  0.70 47.04 LIG 0.13  C 
ENDROOT
BRANCH 4 8
ATOM      8  C   PRO B3002      13.624  24.063  29.470  0.70 47.26 LIG 0.24  C 
ATOM      9  N   TYR B3003      12.668  23.221  29.863  0.70 47.47 LIG-0.34  N 
ATOM     10 H    TYR B3003      12.108  23.415  30.487  0.70 47.47 LIG 0.16  HD
ATOM     11 O    PRO B3002      14.439  23.830  28.563  0.70 46.37 LIG-0.27  OA
BRANCH 9 12
ATOM     12  CA  TYR B3003      12.456  21.892  29.296  0.70 47.51 LIG 0.19  C 
BRANCH 12 13
ATOM     13  C   TYR B3003      12.272  21.872  27.786  0.70 47.80 LIG 0.20  C 
ATOM     14 OXT  TYR B3003      12.251  20.760  27.220  0.70 46.55 LIG-0.65  OA
ATOM     15 O    TYR B3003      12.185  22.961  27.178  0.70 50.35 LIG-0.65  OA
ENDBRANCH 12 13
BRANCH 12 16
ATOM     16  CB  TYR B3003      11.272  21.212  29.993  0.70 48.13 LIG 0.07  C 
BRANCH 16 17
ATOM     17  CG  TYR B3003       9.994  21.184  29.186  0.70 49.00 LIG-0.06  A 
ATOM     18  CD2 TYR B3003       9.555  20.006  28.569  0.70 49.34 LIG 0.01  A 
ATOM     19  CE2 TYR B3003       8.379  19.985  27.819  0.70 49.34 LIG 0.04  A 
ATOM     20  CZ  TYR B3003       7.630  21.150  27.687  0.70 49.55 LIG 0.07  A 
ATOM     21  CE1 TYR B3003       8.046  22.325  28.288  0.70 48.63 LIG 0.04  A 
ATOM     22  CD1 TYR B3003       9.222  22.337  29.032  0.70 49.33 LIG 0.01  A 
BRANCH 20 23
ATOM     23 OH   TYR B3003       6.450  21.137  26.971  0.70 50.92 LIG-0.36  OA
ATOM     24 HH   TYR B3003       6.084  20.385  27.048  0.70 50.92 LIG 0.22  HD
ENDBRANCH 20 23
ENDBRANCH 16 17
ENDBRANCH 12 16
ENDBRANCH 9 12
ENDBRANCH 4 8
BRANCH 1 25
ATOM     25  CA  TYR B3001      16.783  27.539  29.478  0.70 43.08 LIG 0.28  C 
BRANCH 25 26
ATOM     26  CB  TYR B3001      16.704  27.854  27.970  0.70 40.59 LIG 0.08  C 
BRANCH 26 27
ATOM     27  CG  TYR B3001      16.136  29.233  27.661  0.70 39.24 LIG-0.06  A 
ATOM     28  CD1 TYR B3001      16.684  30.381  28.239  0.70 40.30 LIG 0.01  A 
ATOM     29  CE1 TYR B3001      16.113  31.656  28.018  0.70 38.36 LIG 0.04  A 
ATOM     30  CZ  TYR B3001      14.988  31.779  27.208  0.70 37.05 LIG 0.07  A 
ATOM     31  CE2 TYR B3001      14.435  30.649  26.616  0.70 37.49 LIG 0.04  A 
ATOM     32  CD2 TYR B3001      15.011  29.385  26.845  0.70 38.19 LIG 0.01  A 
BRANCH 30 33
ATOM     33 OH   TYR B3001      14.402  33.013  27.007  0.70 32.30 LIG-0.36  OA
ATOM     34 HH   TYR B3001      14.455  33.466  27.712  0.70 32.30 LIG 0.22  HD
ENDBRANCH 30 33
ENDBRANCH 26 27
ENDBRANCH 25 26
BRANCH 25 35
ATOM     35  N   TYR B3001      18.185  27.185  29.849  0.70 42.81 LIG-0.07  N 
ATOM     36 H3   TYR B3001      18.498  27.782  30.431  0.70 42.81 LIG 0.28  HD
ATOM     37 H2   TYR B3001      18.695  27.186  29.120  0.70 42.81 LIG 0.28  HD
ATOM     38 H1   TYR B3001      18.199  26.376  30.220  0.70 42.81 LIG 0.28  HD
ENDBRANCH 25 35
ENDBRANCH 1 25
TORSDOF 11
ENDMDL
MODEL 46
USER: ADFR SOLUTION from run 23
USER: SCORE 12.382671 LL:  -3.060 LR:  -9.322 RR:   0.000 FEB:  -6.041
USER: RMSD 10.798112
USER: SEED 22
USER: STATUS no improvement in best 29 clusters for 5 generations
USER: GENES 13
USER: genes 0 Translation |==|  0.39336 0.15968 0.55742
USER: genes 1 Rotation |==|  0.22311 0.30851 0.32852 0.82750
USER: genes 2 Torsion [N]-CA--C-[O] |==|  0.92045
USER: genes 3 Torsion [C]-N--CA-[C] |==|  0.66920
USER: genes 4 Torsion [N]-CA--C-[OXT] |==|  0.29789
USER: genes 5 Torsion [N]-CA--CB-[CG] |==|  0.96725
USER: genes 6 Torsion [CA]-CB--CG-[CD2] |==|  0.22427
USER: genes 7 Torsion [CE2]-CZ--OH-[HH] |==|  0.22931
USER: genes 8 Torsion [N]-C--CA-[N] |==|  0.38365
USER: genes 9 Torsion [C]-CA--CB-[CG] |==|  0.14379
USER: genes 10 Torsion [CA]-CB--CG-[CD1] |==|  0.25949
USER: genes 11 Torsion [CE1]-CZ--OH-[HH] |==|  0.60155
USER: genes 12 Torsion [C]-CA--N-[H2] |==|  0.81389
ROOT
ATOM      1  C   TYR B3001      10.861  23.300  29.693  0.70 44.28 LIG 0.25  C 
ATOM      2 O    TYR B3001      10.293  22.719  28.767  0.70 44.11 LIG-0.27  OA
ATOM      3  N   PRO B3002      10.286  24.317  30.374  0.70 46.07 LIG-0.34  N 
ATOM      4  CA  PRO B3002       8.939  24.883  30.219  0.70 46.91 LIG 0.18  C 
ATOM      5  CB  PRO B3002       8.955  26.076  31.175  0.70 46.92 LIG 0.04  C 
ATOM      6  CG  PRO B3002      10.363  26.516  31.117  0.70 47.16 LIG 0.02  C 
ATOM      7  CD  PRO B3002      11.094  25.198  31.237  0.70 47.04 LIG 0.13  C 
ENDROOT
BRANCH 4 8
ATOM      8  C   PRO B3002       8.435  25.302  28.846  0.70 47.26 LIG 0.24  C 
ATOM      9  N   TYR B3003       7.108  25.293  28.712  0.70 47.47 LIG-0.34  N 
ATOM     10 H    TYR B3003       6.581  25.039  29.342  0.70 47.47 LIG 0.16  HD
ATOM     11 O    PRO B3002       9.229  25.678  27.970  0.70 46.37 LIG-0.27  OA
BRANCH 9 12
ATOM     12  CA  TYR B3003       6.400  25.707  27.504  0.70 47.51 LIG 0.19  C 
BRANCH 12 13
ATOM     13  C   TYR B3003       5.457  26.885  27.695  0.70 47.80 LIG 0.20  C 
ATOM     14 OXT  TYR B3003       5.801  27.986  27.220  0.70 46.55 LIG-0.65  OA
ATOM     15 O    TYR B3003       4.403  26.709  28.345  0.70 50.35 LIG-0.65  OA
ENDBRANCH 12 13
BRANCH 12 16
ATOM     16  CB  TYR B3003       5.654  24.510  26.904  0.70 48.13 LIG 0.07  C 
BRANCH 16 17
ATOM     17  CG  TYR B3003       6.030  23.170  27.495  0.70 49.00 LIG-0.06  A 
ATOM     18  CD2 TYR B3003       5.485  22.738  28.710  0.70 49.34 LIG 0.01  A 
ATOM     19  CE2 TYR B3003       5.839  21.505  29.256  0.70 49.34 LIG 0.04  A 
ATOM     20  CZ  TYR B3003       6.742  20.690  28.581  0.70 49.55 LIG 0.07  A 
ATOM     21  CE1 TYR B3003       7.293  21.098  27.379  0.70 48.63 LIG 0.04  A 
ATOM     22  CD1 TYR B3003       6.935  22.332  26.842  0.70 49.33 LIG 0.01  A 
BRANCH 20 23
ATOM     23 OH   TYR B3003       7.080  19.455  29.095  0.70 50.92 LIG-0.36  OA
ATOM     24 HH   TYR B3003       6.493  18.892  28.882  0.70 50.92 LIG 0.22  HD
ENDBRANCH 20 23
ENDBRANCH 16 17
ENDBRANCH 12 16
ENDBRANCH 9 12
ENDBRANCH 4 8
BRANCH 1 25
ATOM     25  CA  TYR B3001      12.286  22.923  30.100  0.70 43.08 LIG 0.28  C 
BRANCH 25 26
ATOM     26  CB  TYR B3001      13.318  23.453  29.083  0.70 40.59 LIG 0.08  C 
BRANCH 26 27
ATOM     27  CG  TYR B3001      13.175  24.938  28.782  0.70 39.24 LIG-0.06  A 
ATOM     28  CD1 TYR B3001      13.913  25.890  29.491  0.70 40.30 LIG 0.01  A 
ATOM     29  CE1 TYR B3001      13.728  27.274  29.271  0.70 38.36 LIG 0.04  A 
ATOM     30  CZ  TYR B3001      12.798  27.706  28.329  0.70 37.05 LIG 0.07  A 
ATOM     31  CE2 TYR B3001      12.061  26.774  27.607  0.70 37.49 LIG 0.04  A 
ATOM     32  CD2 TYR B3001      12.254  25.398  27.836  0.70 38.19 LIG 0.01  A 
BRANCH 30 33
ATOM     33 OH   TYR B3001      12.585  29.054  28.124  0.70 32.30 LIG-0.36  OA
ATOM     34 HH   TYR B3001      11.771  29.190  27.970  0.70 32.30 LIG 0.22  HD
ENDBRANCH 30 33
ENDBRANCH 26 27
ENDBRANCH 25 26
BRANCH 25 35
ATOM     35  N   TYR B3001      12.286  21.429  30.090  0.70 42.81 LIG-0.07  N 
ATOM     36 H3   TYR B3001      11.986  21.137  29.305  0.70 42.81 LIG 0.28  HD
ATOM     37 H2   TYR B3001      11.758  21.128  30.740  0.70 42.81 LIG 0.28  HD
ATOM     38 H1   TYR B3001      13.114  21.132  30.220  0.70 42.81 LIG 0.28  HD
ENDBRANCH 25 35
ENDBRANCH 1 25
TORSDOF 11
ENDMDL
MODEL 47
USER: ADFR SOLUTION from run 3
USER: SCORE 12.126448 LL:  -2.841 LR:  -9.285 RR:   0.000 FEB:  -6.004
USER: RMSD 12.069770
USER: SEED 692447
USER: STATUS no improvement in best 23 clusters for 5 generations
USER: GENES 13
USER: genes 0 Translation |==|  0.42373 0.14438 0.59885
USER: genes 1 Rotation |==|  0.22697 0.91840 0.48257 0.50971
USER: genes 2 Torsion [N]-CA--C-[O] |==|  0.55650
USER: genes 3 Torsion [C]-N--CA-[C] |==|  0.24884
USER: genes 4 Torsion [N]-CA--C-[OXT] |==|  0.96204
USER: genes 5 Torsion [N]-CA--CB-[CG] |==|  0.80904
USER: genes 6 Torsion [CA]-CB--CG-[CD2] |==|  0.80365
USER: genes 7 Torsion [CE2]-CZ--OH-[HH] |==|  0.60486
USER: genes 8 Torsion [N]-C--CA-[N] |==|  0.30171
USER: genes 9 Torsion [C]-CA--CB-[CG] |==|  0.13148
USER: genes 10 Torsion [CA]-CB--CG-[CD1] |==|  0.69050
USER: genes 11 Torsion [CE1]-CZ--OH-[HH] |==|  0.15526
USER: genes 12 Torsion [C]-CA--N-[H2] |==|  0.39803
ROOT
ATOM      1  C   TYR B3001      11.772  22.841  30.935  0.70 44.28 LIG 0.25  C 
ATOM      2 O    TYR B3001      12.303  23.779  31.532  0.70 44.11 LIG-0.27  OA
ATOM      3  N   PRO B3002      12.335  22.255  29.856  0.70 46.07 LIG-0.34  N 
ATOM      4  CA  PRO B3002      13.632  22.539  29.226  0.70 46.91 LIG 0.18  C 
ATOM      5  CB  PRO B3002      13.617  21.641  27.988  0.70 46.92 LIG 0.04  C 
ATOM      6  CG  PRO B3002      12.185  21.612  27.629  0.70 47.16 LIG 0.02  C 
ATOM      7  CD  PRO B3002      11.543  21.374  28.977  0.70 47.04 LIG 0.13  C 
ENDROOT
BRANCH 4 8
ATOM      8  C   PRO B3002      14.008  23.964  28.851  0.70 47.26 LIG 0.24  C 
ATOM      9  N   TYR B3003      13.372  24.909  29.545  0.70 47.47 LIG-0.34  N 
ATOM     10 H    TYR B3003      12.772  24.727  30.134  0.70 47.47 LIG 0.16  HD
ATOM     11 O    PRO B3002      14.891  24.183  28.007  0.70 46.37 LIG-0.27  OA
BRANCH 9 12
ATOM     12  CA  TYR B3003      13.610  26.342  29.394  0.70 47.51 LIG 0.19  C 
BRANCH 12 13
ATOM     13  C   TYR B3003      12.743  27.020  28.345  0.70 47.80 LIG 0.20  C 
ATOM     14 OXT  TYR B3003      12.121  26.290  27.547  0.70 46.55 LIG-0.65  OA
ATOM     15 O    TYR B3003      12.717  28.270  28.304  0.70 50.35 LIG-0.65  OA
ENDBRANCH 12 13
BRANCH 12 16
ATOM     16  CB  TYR B3003      15.096  26.595  29.111  0.70 48.13 LIG 0.07  C 
BRANCH 16 17
ATOM     17  CG  TYR B3003      16.018  26.304  30.273  0.70 49.00 LIG-0.06  A 
ATOM     18  CD2 TYR B3003      16.034  27.127  31.406  0.70 49.34 LIG 0.01  A 
ATOM     19  CE2 TYR B3003      16.892  26.860  32.474  0.70 49.34 LIG 0.04  A 
ATOM     20  CZ  TYR B3003      17.739  25.758  32.413  0.70 49.55 LIG 0.07  A 
ATOM     21  CE1 TYR B3003      17.740  24.933  31.302  0.70 48.63 LIG 0.04  A 
ATOM     22  CD1 TYR B3003      16.882  25.208  30.241  0.70 49.33 LIG 0.01  A 
BRANCH 20 23
ATOM     23 OH   TYR B3003      18.573  25.466  33.473  0.70 50.92 LIG-0.36  OA
ATOM     24 HH   TYR B3003      19.310  25.187  33.182  0.70 50.92 LIG 0.22  HD
ENDBRANCH 20 23
ENDBRANCH 16 17
ENDBRANCH 12 16
ENDBRANCH 9 12
ENDBRANCH 4 8
BRANCH 1 25
ATOM     25  CA  TYR B3001      10.405  22.309  31.369  0.70 43.08 LIG 0.28  C 
BRANCH 25 26
ATOM     26  CB  TYR B3001       9.415  23.461  31.640  0.70 40.59 LIG 0.08  C 
BRANCH 26 27
ATOM     27  CG  TYR B3001       9.392  24.519  30.545  0.70 39.24 LIG-0.06  A 
ATOM     28  CD1 TYR B3001       9.880  25.807  30.779  0.70 40.30 LIG 0.01  A 
ATOM     29  CE1 TYR B3001       9.790  26.816  29.792  0.70 38.36 LIG 0.04  A 
ATOM     30  CZ  TYR B3001       9.211  26.528  28.560  0.70 37.05 LIG 0.07  A 
ATOM     31  CE2 TYR B3001       8.729  25.249  28.305  0.70 37.49 LIG 0.04  A 
ATOM     32  CD2 TYR B3001       8.823  24.253  29.296  0.70 38.19 LIG 0.01  A 
BRANCH 30 33
ATOM     33 OH   TYR B3001       9.089  27.510  27.598  0.70 32.30 LIG-0.36  OA
ATOM     34 HH   TYR B3001       9.844  27.841  27.438  0.70 32.30 LIG 0.22  HD
ENDBRANCH 30 33
ENDBRANCH 26 27
ENDBRANCH 25 26
BRANCH 25 35
ATOM     35  N   TYR B3001      10.685  21.572  32.637  0.70 42.81 LIG-0.07  N 
ATOM     36 H3   TYR B3001      10.780  20.705  32.463  0.70 42.81 LIG 0.28  HD
ATOM     37 H2   TYR B3001      10.009  21.688  33.204  0.70 42.81 LIG 0.28  HD
ATOM     38 H1   TYR B3001      11.434  21.884  33.003  0.70 42.81 LIG 0.28  HD
ENDBRANCH 25 35
ENDBRANCH 1 25
TORSDOF 11
ENDMDL
MODEL 48
USER: ADFR SOLUTION from run 60
USER: SCORE 11.587588 LL:  -2.325 LR:  -9.263 RR:   0.000 FEB:  -5.982
USER: RMSD 13.039057
USER: SEED 59
USER: STATUS no improvement in best 34 clusters for 5 generations
USER: GENES 13
USER: genes 0 Translation |==|  0.35196 0.12984 0.56176
USER: genes 1 Rotation |==|  0.62571 0.18241 0.44845 0.86149
USER: genes 2 Torsion [N]-CA--C-[O] |==|  0.42396
USER: genes 3 Torsion [C]-N--CA-[C] |==|  0.53508
USER: genes 4 Torsion [N]-CA--C-[OXT] |==|  0.59362
USER: genes 5 Torsion [N]-CA--CB-[CG] |==|  0.09327
USER: genes 6 Torsion [CA]-CB--CG-[CD2] |==|  0.22290
USER: genes 7 Torsion [CE2]-CZ--OH-[HH] |==|  0.93134
USER: genes 8 Torsion [N]-C--CA-[N] |==|  0.16173
USER: genes 9 Torsion [C]-CA--CB-[CG] |==|  0.86527
USER: genes 10 Torsion [CA]-CB--CG-[CD1] |==|  0.41375
USER: genes 11 Torsion [CE1]-CZ--OH-[HH] |==|  0.47798
USER: genes 12 Torsion [C]-CA--N-[H2] |==|  0.10873
ROOT
ATOM      1  C   TYR B3001       9.619  22.405  29.823  0.70 44.28 LIG 0.25  C 
ATOM      2 O    TYR B3001      10.036  22.911  28.780  0.70 44.11 LIG-0.27  OA
ATOM      3  N   PRO B3002       8.680  21.433  29.834  0.70 46.07 LIG-0.34  N 
ATOM      4  CA  PRO B3002       8.031  20.767  28.696  0.70 46.91 LIG 0.18  C 
ATOM      5  CB  PRO B3002       6.985  19.877  29.369  0.70 46.92 LIG 0.04  C 
ATOM      6  CG  PRO B3002       6.613  20.664  30.562  0.70 47.16 LIG 0.02  C 
ATOM      7  CD  PRO B3002       7.970  21.084  31.079  0.70 47.04 LIG 0.13  C 
ENDROOT
BRANCH 4 8
ATOM      8  C   PRO B3002       7.399  21.590  27.584  0.70 47.26 LIG 0.24  C 
ATOM      9  N   TYR B3003       7.038  22.824  27.939  0.70 47.47 LIG-0.34  N 
ATOM     10 H    TYR B3003       7.124  23.118  28.743  0.70 47.47 LIG 0.16  HD
ATOM     11 O    PRO B3002       7.309  21.133  26.433  0.70 46.37 LIG-0.27  OA
BRANCH 9 12
ATOM     12  CA  TYR B3003       6.462  23.808  27.026  0.70 47.51 LIG 0.19  C 
BRANCH 12 13
ATOM     13  C   TYR B3003       6.411  25.225  27.576  0.70 47.80 LIG 0.20  C 
ATOM     14 OXT  TYR B3003       5.450  25.945  27.234  0.70 46.55 LIG-0.65  OA
ATOM     15 O    TYR B3003       7.342  25.617  28.312  0.70 50.35 LIG-0.65  OA
ENDBRANCH 12 13
BRANCH 12 16
ATOM     16  CB  TYR B3003       5.068  23.350  26.581  0.70 48.13 LIG 0.07  C 
BRANCH 16 17
ATOM     17  CG  TYR B3003       4.290  22.586  27.628  0.70 49.00 LIG-0.06  A 
ATOM     18  CD2 TYR B3003       3.614  23.253  28.656  0.70 49.34 LIG 0.01  A 
ATOM     19  CE2 TYR B3003       2.902  22.543  29.624  0.70 49.34 LIG 0.04  A 
ATOM     20  CZ  TYR B3003       2.861  21.154  29.563  0.70 49.55 LIG 0.07  A 
ATOM     21  CE1 TYR B3003       3.523  20.475  28.555  0.70 48.63 LIG 0.04  A 
ATOM     22  CD1 TYR B3003       4.232  21.191  27.595  0.70 49.33 LIG 0.01  A 
BRANCH 20 23
ATOM     23 OH   TYR B3003       2.138  20.440  30.497  0.70 50.92 LIG-0.36  OA
ATOM     24 HH   TYR B3003       2.064  20.894  31.201  0.70 50.92 LIG 0.22  HD
ENDBRANCH 20 23
ENDBRANCH 16 17
ENDBRANCH 12 16
ENDBRANCH 9 12
ENDBRANCH 4 8
BRANCH 1 25
ATOM     25  CA  TYR B3001      10.121  22.888  31.184  0.70 43.08 LIG 0.28  C 
BRANCH 25 26
ATOM     26  CB  TYR B3001      11.246  23.932  31.029  0.70 40.59 LIG 0.08  C 
BRANCH 26 27
ATOM     27  CG  TYR B3001      12.341  23.514  30.057  0.70 39.24 LIG-0.06  A 
ATOM     28  CD1 TYR B3001      13.040  24.465  29.309  0.70 40.30 LIG 0.01  A 
ATOM     29  CE1 TYR B3001      14.003  24.078  28.348  0.70 38.36 LIG 0.04  A 
ATOM     30  CZ  TYR B3001      14.269  22.728  28.141  0.70 37.05 LIG 0.07  A 
ATOM     31  CE2 TYR B3001      13.591  21.767  28.883  0.70 37.49 LIG 0.04  A 
ATOM     32  CD2 TYR B3001      12.633  22.165  29.835  0.70 38.19 LIG 0.01  A 
BRANCH 30 33
ATOM     33 OH   TYR B3001      15.185  22.335  27.186  0.70 32.30 LIG-0.36  OA
ATOM     34 HH   TYR B3001      15.319  21.508  27.249  0.70 32.30 LIG 0.22  HD
ENDBRANCH 30 33
ENDBRANCH 26 27
ENDBRANCH 25 26
BRANCH 25 35
ATOM     35  N   TYR B3001      10.660  21.656  31.834  0.70 42.81 LIG-0.07  N 
ATOM     36 H3   TYR B3001      11.229  21.884  32.478  0.70 42.81 LIG 0.28  HD
ATOM     37 H2   TYR B3001      11.082  21.160  31.227  0.70 42.81 LIG 0.28  HD
ATOM     38 H1   TYR B3001       9.989  21.188  32.184  0.70 42.81 LIG 0.28  HD
ENDBRANCH 25 35
ENDBRANCH 1 25
TORSDOF 11
ENDMDL
MODEL 49
USER: ADFR SOLUTION from run 114
USER: SCORE 11.970528 LL:  -2.735 LR:  -9.235 RR:   0.000 FEB:  -5.954
USER: RMSD 11.231924
USER: SEED 113
USER: STATUS no improvement in best 38 clusters for 5 generations
USER: GENES 13
USER: genes 0 Translation |==|  0.43698 0.12903 0.52237
USER: genes 1 Rotation |==|  0.36027 0.34813 0.32551 0.92067
USER: genes 2 Torsion [N]-CA--C-[O] |==|  0.06059
USER: genes 3 Torsion [C]-N--CA-[C] |==|  0.50202
USER: genes 4 Torsion [N]-CA--C-[OXT] |==|  0.52477
USER: genes 5 Torsion [N]-CA--CB-[CG] |==|  0.16790
USER: genes 6 Torsion [CA]-CB--CG-[CD2] |==|  0.26135
USER: genes 7 Torsion [CE2]-CZ--OH-[HH] |==|  0.51559
USER: genes 8 Torsion [N]-C--CA-[N] |==|  0.43151
USER: genes 9 Torsion [C]-CA--CB-[CG] |==|  0.01799
USER: genes 10 Torsion [CA]-CB--CG-[CD1] |==|  0.30099
USER: genes 11 Torsion [CE1]-CZ--OH-[HH] |==|  0.39644
USER: genes 12 Torsion [C]-CA--N-[H2] |==|  0.96578
ROOT
ATOM      1  C   TYR B3001      12.169  22.381  28.641  0.70 44.28 LIG 0.25  C 
ATOM      2 O    TYR B3001      11.627  22.330  27.536  0.70 44.11 LIG-0.27  OA
ATOM      3  N   PRO B3002      11.482  22.632  29.777  0.70 46.07 LIG-0.34  N 
ATOM      4  CA  PRO B3002      10.036  22.832  29.953  0.70 46.91 LIG 0.18  C 
ATOM      5  CB  PRO B3002       9.918  23.204  31.432  0.70 46.92 LIG 0.04  C 
ATOM      6  CG  PRO B3002      11.182  23.924  31.684  0.70 47.16 LIG 0.02  C 
ATOM      7  CD  PRO B3002      12.185  23.010  31.017  0.70 47.04 LIG 0.13  C 
ENDROOT
BRANCH 4 8
ATOM      8  C   PRO B3002       9.288  23.833  29.085  0.70 47.26 LIG 0.24  C 
ATOM      9  N   TYR B3003       8.174  24.322  29.631  0.70 47.47 LIG-0.34  N 
ATOM     10 H    TYR B3003       7.884  24.065  30.399  0.70 47.47 LIG 0.16  HD
ATOM     11 O    PRO B3002       9.751  24.189  27.990  0.70 46.37 LIG-0.27  OA
BRANCH 9 12
ATOM     12  CA  TYR B3003       7.325  25.332  29.006  0.70 47.51 LIG 0.19  C 
BRANCH 12 13
ATOM     13  C   TYR B3003       6.117  25.743  29.832  0.70 47.80 LIG 0.20  C 
ATOM     14 OXT  TYR B3003       5.263  26.471  29.288  0.70 46.55 LIG-0.65  OA
ATOM     15 O    TYR B3003       6.047  25.364  31.022  0.70 50.35 LIG-0.65  OA
ENDBRANCH 12 13
BRANCH 12 16
ATOM     16  CB  TYR B3003       6.892  24.857  27.614  0.70 48.13 LIG 0.07  C 
BRANCH 16 17
ATOM     17  CG  TYR B3003       6.096  23.572  27.605  0.70 49.00 LIG-0.06  A 
ATOM     18  CD2 TYR B3003       4.696  23.588  27.617  0.70 49.34 LIG 0.01  A 
ATOM     19  CE2 TYR B3003       3.965  22.400  27.615  0.70 49.34 LIG 0.04  A 
ATOM     20  CZ  TYR B3003       4.638  21.182  27.596  0.70 49.55 LIG 0.07  A 
ATOM     21  CE1 TYR B3003       6.021  21.143  27.584  0.70 48.63 LIG 0.04  A 
ATOM     22  CD1 TYR B3003       6.742  22.334  27.588  0.70 49.33 LIG 0.01  A 
BRANCH 20 23
ATOM     23 OH   TYR B3003       3.928  19.999  27.565  0.70 50.92 LIG-0.36  OA
ATOM     24 HH   TYR B3003       4.458  19.351  27.634  0.70 50.92 LIG 0.22  HD
ENDBRANCH 20 23
ENDBRANCH 16 17
ENDBRANCH 12 16
ENDBRANCH 9 12
ENDBRANCH 4 8
BRANCH 1 25
ATOM     25  CA  TYR B3001      13.681  22.199  28.782  0.70 43.08 LIG 0.28  C 
BRANCH 25 26
ATOM     26  CB  TYR B3001      14.416  23.554  28.726  0.70 40.59 LIG 0.08  C 
BRANCH 26 27
ATOM     27  CG  TYR B3001      13.483  24.757  28.704  0.70 39.24 LIG-0.06  A 
ATOM     28  CD1 TYR B3001      13.360  25.592  29.818  0.70 40.30 LIG 0.01  A 
ATOM     29  CE1 TYR B3001      12.439  26.665  29.832  0.70 38.36 LIG 0.04  A 
ATOM     30  CZ  TYR B3001      11.639  26.903  28.718  0.70 37.05 LIG 0.07  A 
ATOM     31  CE2 TYR B3001      11.754  26.089  27.597  0.70 37.49 LIG 0.04  A 
ATOM     32  CD2 TYR B3001      12.674  25.024  27.596  0.70 38.19 LIG 0.01  A 
BRANCH 30 33
ATOM     33 OH   TYR B3001      10.714  27.928  28.729  0.70 32.30 LIG-0.36  OA
ATOM     34 HH   TYR B3001      10.685  28.287  27.970  0.70 32.30 LIG 0.22  HD
ENDBRANCH 30 33
ENDBRANCH 26 27
ENDBRANCH 25 26
BRANCH 25 35
ATOM     35  N   TYR B3001      14.062  21.367  27.602  0.70 42.81 LIG-0.07  N 
ATOM     36 H3   TYR B3001      14.501  21.870  27.013  0.70 42.81 LIG 0.28  HD
ATOM     37 H2   TYR B3001      13.328  21.038  27.221  0.70 42.81 LIG 0.28  HD
ATOM     38 H1   TYR B3001      14.584  20.697  27.867  0.70 42.81 LIG 0.28  HD
ENDBRANCH 25 35
ENDBRANCH 1 25
TORSDOF 11
ENDMDL
MODEL 50
USER: ADFR SOLUTION from run 68
USER: SCORE 11.993854 LL:  -2.752 LR:  -9.242 RR:   0.000 FEB:  -5.960
USER: RMSD 13.301039
USER: SEED 67
USER: STATUS no improvement in best 31 clusters for 5 generations
USER: GENES 13
USER: genes 0 Translation |==|  0.38953 0.11048 0.59491
USER: genes 1 Rotation |==|  0.11960 0.82292 0.47087 0.51297
USER: genes 2 Torsion [N]-CA--C-[O] |==|  0.67542
USER: genes 3 Torsion [C]-N--CA-[C] |==|  0.17405
USER: genes 4 Torsion [N]-CA--C-[OXT] |==|  0.01555
USER: genes 5 Torsion [N]-CA--CB-[CG] |==|  0.89477
USER: genes 6 Torsion [CA]-CB--CG-[CD2] |==|  0.26313
USER: genes 7 Torsion [CE2]-CZ--OH-[HH] |==|  0.09709
USER: genes 8 Torsion [N]-C--CA-[N] |==|  0.33838
USER: genes 9 Torsion [C]-CA--CB-[CG] |==|  0.17241
USER: genes 10 Torsion [CA]-CB--CG-[CD1] |==|  0.16863
USER: genes 11 Torsion [CE1]-CZ--OH-[HH] |==|  0.10301
USER: genes 12 Torsion [C]-CA--N-[H2] |==|  0.92652
ROOT
ATOM      1  C   TYR B3001      10.746  21.824  30.817  0.70 44.28 LIG 0.25  C 
ATOM      2 O    TYR B3001      10.656  22.925  31.363  0.70 44.11 LIG-0.27  OA
ATOM      3  N   PRO B3002      11.583  21.593  29.781  0.70 46.07 LIG-0.34  N 
ATOM      4  CA  PRO B3002      12.544  22.510  29.152  0.70 46.91 LIG 0.18  C 
ATOM      5  CB  PRO B3002      13.072  21.696  27.970  0.70 46.92 LIG 0.04  C 
ATOM      6  CG  PRO B3002      11.902  20.877  27.595  0.70 47.16 LIG 0.02  C 
ATOM      7  CD  PRO B3002      11.435  20.386  28.947  0.70 47.04 LIG 0.13  C 
ENDROOT
BRANCH 4 8
ATOM      8  C   PRO B3002      12.101  23.892  28.698  0.70 47.26 LIG 0.24  C 
ATOM      9  N   TYR B3003      11.752  24.719  29.685  0.70 47.47 LIG-0.34  N 
ATOM     10 H    TYR B3003      11.747  24.478  30.510  0.70 47.47 LIG 0.16  HD
ATOM     11 O    PRO B3002      12.140  24.205  27.497  0.70 46.37 LIG-0.27  OA
BRANCH 9 12
ATOM     12  CA  TYR B3003      11.345  26.108  29.490  0.70 47.51 LIG 0.19  C 
BRANCH 12 13
ATOM     13  C   TYR B3003      10.080  26.287  28.666  0.70 47.80 LIG 0.20  C 
ATOM     14 OXT  TYR B3003       9.457  25.259  28.331  0.70 46.55 LIG-0.65  OA
ATOM     15 O    TYR B3003       9.739  27.443  28.334  0.70 50.35 LIG-0.65  OA
ENDBRANCH 12 13
BRANCH 12 16
ATOM     16  CB  TYR B3003      12.503  26.907  28.882  0.70 48.13 LIG 0.07  C 
BRANCH 16 17
ATOM     17  CG  TYR B3003      13.872  26.534  29.403  0.70 49.00 LIG-0.06  A 
ATOM     18  CD2 TYR B3003      14.675  25.608  28.727  0.70 49.34 LIG 0.01  A 
ATOM     19  CE2 TYR B3003      15.935  25.260  29.214  0.70 49.34 LIG 0.04  A 
ATOM     20  CZ  TYR B3003      16.401  25.847  30.387  0.70 49.55 LIG 0.07  A 
ATOM     21  CE1 TYR B3003      15.624  26.764  31.071  0.70 48.63 LIG 0.04  A 
ATOM     22  CD1 TYR B3003      14.367  27.103  30.578  0.70 49.33 LIG 0.01  A 
BRANCH 20 23
ATOM     23 OH   TYR B3003      17.657  25.534  30.866  0.70 50.92 LIG-0.36  OA
ATOM     24 HH   TYR B3003      18.181  25.410  30.220  0.70 50.92 LIG 0.22  HD
ENDBRANCH 20 23
ENDBRANCH 16 17
ENDBRANCH 12 16
ENDBRANCH 9 12
ENDBRANCH 4 8
BRANCH 1 25
ATOM     25  CA  TYR B3001       9.870  20.653  31.265  0.70 43.08 LIG 0.28  C 
BRANCH 25 26
ATOM     26  CB  TYR B3001       8.371  20.994  31.139  0.70 40.59 LIG 0.08  C 
BRANCH 26 27
ATOM     27  CG  TYR B3001       7.926  21.285  29.713  0.70 39.24 LIG-0.06  A 
ATOM     28  CD1 TYR B3001       8.045  20.317  28.712  0.70 40.30 LIG 0.01  A 
ATOM     29  CE1 TYR B3001       7.706  20.606  27.369  0.70 38.36 LIG 0.04  A 
ATOM     30  CZ  TYR B3001       7.241  21.873  27.031  0.70 37.05 LIG 0.07  A 
ATOM     31  CE2 TYR B3001       7.106  22.846  28.015  0.70 37.49 LIG 0.04  A 
ATOM     32  CD2 TYR B3001       7.448  22.547  29.348  0.70 38.19 LIG 0.01  A 
BRANCH 30 33
ATOM     33 OH   TYR B3001       6.935  22.179  25.720  0.70 32.30 LIG-0.36  OA
ATOM     34 HH   TYR B3001       6.586  21.510  25.350  0.70 32.30 LIG 0.22  HD
ENDBRANCH 30 33
ENDBRANCH 26 27
ENDBRANCH 25 26
BRANCH 25 35
ATOM     35  N   TYR B3001      10.227  20.457  32.701  0.70 42.81 LIG-0.07  N 
ATOM     36 H3   TYR B3001       9.661  20.914  33.213  0.70 42.81 LIG 0.28  HD
ATOM     37 H2   TYR B3001      11.056  20.747  32.844  0.70 42.81 LIG 0.28  HD
ATOM     38 H1   TYR B3001      10.177  19.592  32.904  0.70 42.81 LIG 0.28  HD
ENDBRANCH 25 35
ENDBRANCH 1 25
TORSDOF 11
ENDMDL
MODEL 51
USER: ADFR SOLUTION from run 133
USER: SCORE 11.548310 LL:  -2.312 LR:  -9.236 RR:   0.000 FEB:  -5.955
USER: RMSD 11.574198
USER: SEED 132
USER: STATUS no improvement in best 32 clusters for 5 generations
USER: GENES 13
USER: genes 0 Translation |==|  0.37619 0.19225 0.58003
USER: genes 1 Rotation |==|  0.02761 0.61094 0.53054 0.61667
USER: genes 2 Torsion [N]-CA--C-[O] |==|  0.18182
USER: genes 3 Torsion [C]-N--CA-[C] |==|  0.78678
USER: genes 4 Torsion [N]-CA--C-[OXT] |==|  0.94665
USER: genes 5 Torsion [N]-CA--CB-[CG] |==|  0.79707
USER: genes 6 Torsion [CA]-CB--CG-[CD2] |==|  0.56943
USER: genes 7 Torsion [CE2]-CZ--OH-[HH] |==|  0.52978
USER: genes 8 Torsion [N]-C--CA-[N] |==|  0.27900
USER: genes 9 Torsion [C]-CA--CB-[CG] |==|  0.19672
USER: genes 10 Torsion [CA]-CB--CG-[CD1] |==|  0.32384
USER: genes 11 Torsion [CE1]-CZ--OH-[HH] |==|  0.77868
USER: genes 12 Torsion [C]-CA--N-[H2] |==|  0.96355
ROOT
ATOM      1  C   TYR B3001      10.346  24.278  30.371  0.70 44.28 LIG 0.25  C 
ATOM      2 O    TYR B3001       9.467  24.542  31.193  0.70 44.11 LIG-0.27  OA
ATOM      3  N   PRO B3002      10.901  25.217  29.573  0.70 46.07 LIG-0.34  N 
ATOM      4  CA  PRO B3002      10.647  26.664  29.541  0.70 46.91 LIG 0.18  C 
ATOM      5  CB  PRO B3002      11.477  27.133  28.345  0.70 46.92 LIG 0.04  C 
ATOM      6  CG  PRO B3002      11.418  25.969  27.438  0.70 47.16 LIG 0.02  C 
ATOM      7  CD  PRO B3002      11.696  24.831  28.392  0.70 47.04 LIG 0.13  C 
ENDROOT
BRANCH 4 8
ATOM      8  C   PRO B3002       9.223  27.191  29.446  0.70 47.26 LIG 0.24  C 
ATOM      9  N   TYR B3003       8.922  27.781  28.289  0.70 47.47 LIG-0.34  N 
ATOM     10 H    TYR B3003       9.499  27.885  27.659  0.70 47.47 LIG 0.16  HD
ATOM     11 O    PRO B3002       8.418  27.005  30.372  0.70 46.37 LIG-0.27  OA
BRANCH 9 12
ATOM     12  CA  TYR B3003       7.604  28.313  27.954  0.70 47.51 LIG 0.19  C 
BRANCH 12 13
ATOM     13  C   TYR B3003       6.575  27.260  27.575  0.70 47.80 LIG 0.20  C 
ATOM     14 OXT  TYR B3003       6.995  26.138  27.226  0.70 46.55 LIG-0.65  OA
ATOM     15 O    TYR B3003       5.363  27.570  27.595  0.70 50.35 LIG-0.65  OA
ENDBRANCH 12 13
BRANCH 12 16
ATOM     16  CB  TYR B3003       7.735  29.364  26.845  0.70 48.13 LIG 0.07  C 
BRANCH 16 17
ATOM     17  CG  TYR B3003       8.333  30.679  27.288  0.70 49.00 LIG-0.06  A 
ATOM     18  CD2 TYR B3003       8.060  31.866  26.598  0.70 49.34 LIG 0.01  A 
ATOM     19  CE2 TYR B3003       8.619  33.078  27.005  0.70 49.34 LIG 0.04  A 
ATOM     20  CZ  TYR B3003       9.456  33.106  28.116  0.70 49.55 LIG 0.07  A 
ATOM     21  CE1 TYR B3003       9.739  31.944  28.813  0.70 48.63 LIG 0.04  A 
ATOM     22  CD1 TYR B3003       9.178  30.740  28.397  0.70 49.33 LIG 0.01  A 
BRANCH 20 23
ATOM     23 OH   TYR B3003       9.994  34.302  28.548  0.70 50.92 LIG-0.36  OA
ATOM     24 HH   TYR B3003      10.585  34.151  29.125  0.70 50.92 LIG 0.22  HD
ENDBRANCH 20 23
ENDBRANCH 16 17
ENDBRANCH 12 16
ENDBRANCH 9 12
ENDBRANCH 4 8
BRANCH 1 25
ATOM     25  CA  TYR B3001      10.834  22.841  30.180  0.70 43.08 LIG 0.28  C 
BRANCH 25 26
ATOM     26  CB  TYR B3001       9.674  21.833  30.307  0.70 40.59 LIG 0.08  C 
BRANCH 26 27
ATOM     27  CG  TYR B3001       8.696  21.873  29.141  0.70 39.24 LIG-0.06  A 
ATOM     28  CD1 TYR B3001       8.529  20.765  28.305  0.70 40.30 LIG 0.01  A 
ATOM     29  CE1 TYR B3001       7.682  20.821  27.174  0.70 38.36 LIG 0.04  A 
ATOM     30  CZ  TYR B3001       6.993  21.996  26.884  0.70 37.05 LIG 0.07  A 
ATOM     31  CE2 TYR B3001       7.139  23.105  27.711  0.70 37.49 LIG 0.04  A 
ATOM     32  CD2 TYR B3001       7.987  23.037  28.832  0.70 38.19 LIG 0.01  A 
BRANCH 30 33
ATOM     33 OH   TYR B3001       6.185  22.075  25.768  0.70 32.30 LIG-0.36  OA
ATOM     34 HH   TYR B3001       6.659  22.208  25.087  0.70 32.30 LIG 0.22  HD
ENDBRANCH 30 33
ENDBRANCH 26 27
ENDBRANCH 25 26
BRANCH 25 35
ATOM     35  N   TYR B3001      11.810  22.635  31.291  0.70 42.81 LIG-0.07  N 
ATOM     36 H3   TYR B3001      11.451  22.101  31.906  0.70 42.81 LIG 0.28  HD
ATOM     37 H2   TYR B3001      12.011  23.419  31.659  0.70 42.81 LIG 0.28  HD
ATOM     38 H1   TYR B3001      12.551  22.260  30.970  0.70 42.81 LIG 0.28  HD
ENDBRANCH 25 35
ENDBRANCH 1 25
TORSDOF 11
ENDMDL
MODEL 52
USER: ADFR SOLUTION from run 57
USER: SCORE 11.590544 LL:  -2.367 LR:  -9.224 RR:   0.000 FEB:  -5.942
USER: RMSD 11.134227
USER: SEED 56
USER: STATUS no improvement in best 26 clusters for 5 generations
USER: GENES 13
USER: genes 0 Translation |==|  0.58463 0.30021 0.51823
USER: genes 1 Rotation |==|  0.49059 0.15391 0.14732 0.57582
USER: genes 2 Torsion [N]-CA--C-[O] |==|  0.68658
USER: genes 3 Torsion [C]-N--CA-[C] |==|  0.53181
USER: genes 4 Torsion [N]-CA--C-[OXT] |==|  0.07102
USER: genes 5 Torsion [N]-CA--CB-[CG] |==|  0.14495
USER: genes 6 Torsion [CA]-CB--CG-[CD2] |==|  0.25335
USER: genes 7 Torsion [CE2]-CZ--OH-[HH] |==|  0.89416
USER: genes 8 Torsion [N]-C--CA-[N] |==|  0.81563
USER: genes 9 Torsion [C]-CA--CB-[CG] |==|  0.27326
USER: genes 10 Torsion [CA]-CB--CG-[CD1] |==|  0.02647
USER: genes 11 Torsion [CE1]-CZ--OH-[HH] |==|  0.95985
USER: genes 12 Torsion [C]-CA--N-[H2] |==|  0.64187
ROOT
ATOM      1  C   TYR B3001      16.599  27.516  28.517  0.70 44.28 LIG 0.25  C 
ATOM      2 O    TYR B3001      17.689  27.135  28.088  0.70 44.11 LIG-0.27  OA
ATOM      3  N   PRO B3002      15.941  28.574  27.992  0.70 46.07 LIG-0.34  N 
ATOM      4  CA  PRO B3002      16.316  29.414  26.845  0.70 46.91 LIG 0.18  C 
ATOM      5  CB  PRO B3002      15.241  30.502  26.850  0.70 46.92 LIG 0.04  C 
ATOM      6  CG  PRO B3002      14.939  30.648  28.288  0.70 47.16 LIG 0.02  C 
ATOM      7  CD  PRO B3002      14.822  29.203  28.718  0.70 47.04 LIG 0.13  C 
ENDROOT
BRANCH 4 8
ATOM      8  C   PRO B3002      17.704  30.030  26.766  0.70 47.26 LIG 0.24  C 
ATOM      9  N   TYR B3003      18.688  29.159  26.535  0.70 47.47 LIG-0.34  N 
ATOM     10 H    TYR B3003      18.551  28.313  26.470  0.70 47.47 LIG 0.16  HD
ATOM     11 O    PRO B3002      17.856  31.259  26.848  0.70 46.37 LIG-0.27  OA
BRANCH 9 12
ATOM     12  CA  TYR B3003      20.091  29.528  26.368  0.70 47.51 LIG 0.19  C 
BRANCH 12 13
ATOM     13  C   TYR B3003      20.981  28.410  25.847  0.70 47.80 LIG 0.20  C 
ATOM     14 OXT  TYR B3003      20.444  27.510  25.170  0.70 46.55 LIG-0.65  OA
ATOM     15 O    TYR B3003      22.196  28.422  26.145  0.70 50.35 LIG-0.65  OA
ENDBRANCH 12 13
BRANCH 12 16
ATOM     16  CB  TYR B3003      20.641  30.087  27.685  0.70 48.13 LIG 0.07  C 
BRANCH 16 17
ATOM     17  CG  TYR B3003      20.416  29.203  28.890  0.70 49.00 LIG-0.06  A 
ATOM     18  CD2 TYR B3003      21.367  28.251  29.276  0.70 49.34 LIG 0.01  A 
ATOM     19  CE2 TYR B3003      21.152  27.432  30.384  0.70 49.34 LIG 0.04  A 
ATOM     20  CZ  TYR B3003      19.979  27.568  31.120  0.70 49.55 LIG 0.07  A 
ATOM     21  CE1 TYR B3003      19.026  28.503  30.756  0.70 48.63 LIG 0.04  A 
ATOM     22  CD1 TYR B3003      19.248  29.314  29.646  0.70 49.33 LIG 0.01  A 
BRANCH 20 23
ATOM     23 OH   TYR B3003      19.766  26.784  32.236  0.70 50.92 LIG-0.36  OA
ATOM     24 HH   TYR B3003      20.060  26.010  32.095  0.70 50.92 LIG 0.22  HD
ENDBRANCH 20 23
ENDBRANCH 16 17
ENDBRANCH 12 16
ENDBRANCH 9 12
ENDBRANCH 4 8
BRANCH 1 25
ATOM     25  CA  TYR B3001      15.940  26.825  29.712  0.70 43.08 LIG 0.28  C 
BRANCH 25 26
ATOM     26  CB  TYR B3001      14.474  26.454  29.407  0.70 40.59 LIG 0.08  C 
BRANCH 26 27
ATOM     27  CG  TYR B3001      14.285  25.002  28.989  0.70 39.24 LIG-0.06  A 
ATOM     28  CD1 TYR B3001      15.330  24.081  29.095  0.70 40.30 LIG 0.01  A 
ATOM     29  CE1 TYR B3001      15.185  22.751  28.637  0.70 38.36 LIG 0.04  A 
ATOM     30  CZ  TYR B3001      13.980  22.342  28.074  0.70 37.05 LIG 0.07  A 
ATOM     31  CE2 TYR B3001      12.924  23.241  27.970  0.70 37.49 LIG 0.04  A 
ATOM     32  CD2 TYR B3001      13.082  24.563  28.428  0.70 38.19 LIG 0.01  A 
BRANCH 30 33
ATOM     33 OH   TYR B3001      13.833  21.055  27.595  0.70 32.30 LIG-0.36  OA
ATOM     34 HH   TYR B3001      14.588  20.694  27.524  0.70 32.30 LIG 0.22  HD
ENDBRANCH 30 33
ENDBRANCH 26 27
ENDBRANCH 25 26
BRANCH 25 35
ATOM     35  N   TYR B3001      15.989  27.848  30.799  0.70 42.81 LIG-0.07  N 
ATOM     36 H3   TYR B3001      16.488  28.536  30.537  0.70 42.81 LIG 0.28  HD
ATOM     37 H2   TYR B3001      16.341  27.487  31.531  0.70 42.81 LIG 0.28  HD
ATOM     38 H1   TYR B3001      15.164  28.132  30.976  0.70 42.81 LIG 0.28  HD
ENDBRANCH 25 35
ENDBRANCH 1 25
TORSDOF 11
ENDMDL
MODEL 53
USER: ADFR SOLUTION from run 24
USER: SCORE 11.239669 LL:  -2.035 LR:  -9.205 RR:   0.000 FEB:  -5.924
USER: RMSD 9.450928
USER: SEED 23
USER: STATUS no improvement in best 19 clusters for 5 generations
USER: GENES 13
USER: genes 0 Translation |==|  0.55039 0.28016 0.52784
USER: genes 1 Rotation |==|  0.14989 0.28462 0.52902 0.78318
USER: genes 2 Torsion [N]-CA--C-[O] |==|  0.89509
USER: genes 3 Torsion [C]-N--CA-[C] |==|  0.67338
USER: genes 4 Torsion [N]-CA--C-[OXT] |==|  0.46000
USER: genes 5 Torsion [N]-CA--CB-[CG] |==|  0.86357
USER: genes 6 Torsion [CA]-CB--CG-[CD2] |==|  0.38289
USER: genes 7 Torsion [CE2]-CZ--OH-[HH] |==|  0.26954
USER: genes 8 Torsion [N]-C--CA-[N] |==|  0.81921
USER: genes 9 Torsion [C]-CA--CB-[CG] |==|  0.21354
USER: genes 10 Torsion [CA]-CB--CG-[CD1] |==|  0.48983
USER: genes 11 Torsion [CE1]-CZ--OH-[HH] |==|  0.69547
USER: genes 12 Torsion [C]-CA--N-[H2] |==|  0.93196
ROOT
ATOM      1  C   TYR B3001      15.572  26.915  28.805  0.70 44.28 LIG 0.25  C 
ATOM      2 O    TYR B3001      15.160  25.758  28.710  0.70 44.11 LIG-0.27  OA
ATOM      3  N   PRO B3002      14.757  27.955  29.087  0.70 46.07 LIG-0.34  N 
ATOM      4  CA  PRO B3002      13.316  27.944  29.378  0.70 46.91 LIG 0.18  C 
ATOM      5  CB  PRO B3002      12.973  29.431  29.476  0.70 46.92 LIG 0.04  C 
ATOM      6  CG  PRO B3002      13.912  30.041  28.513  0.70 47.16 LIG 0.02  C 
ATOM      7  CD  PRO B3002      15.204  29.344  28.873  0.70 47.04 LIG 0.13  C 
ENDROOT
BRANCH 4 8
ATOM      8  C   PRO B3002      12.351  27.229  28.445  0.70 47.26 LIG 0.24  C 
ATOM      9  N   TYR B3003      11.310  26.657  29.051  0.70 47.47 LIG-0.34  N 
ATOM     10 H    TYR B3003      11.211  26.662  29.906  0.70 47.47 LIG 0.16  HD
ATOM     11 O    PRO B3002      12.521  27.260  27.216  0.70 46.37 LIG-0.27  OA
BRANCH 9 12
ATOM     12  CA  TYR B3003      10.230  25.963  28.353  0.70 47.51 LIG 0.19  C 
BRANCH 12 13
ATOM     13  C   TYR B3003       8.856  26.589  28.533  0.70 47.80 LIG 0.20  C 
ATOM     14 OXT  TYR B3003       7.947  26.224  27.760  0.70 46.55 LIG-0.65  OA
ATOM     15 O    TYR B3003       8.705  27.460  29.418  0.70 50.35 LIG-0.65  OA
ENDBRANCH 12 13
BRANCH 12 16
ATOM     16  CB  TYR B3003      10.209  24.487  28.767  0.70 48.13 LIG 0.07  C 
BRANCH 16 17
ATOM     17  CG  TYR B3003      11.551  23.794  28.703  0.70 49.00 LIG-0.06  A 
ATOM     18  CD2 TYR B3003      11.962  22.919  29.716  0.70 49.34 LIG 0.01  A 
ATOM     19  CE2 TYR B3003      13.204  22.286  29.658  0.70 49.34 LIG 0.04  A 
ATOM     20  CZ  TYR B3003      14.043  22.524  28.574  0.70 49.55 LIG 0.07  A 
ATOM     21  CE1 TYR B3003      13.657  23.385  27.562  0.70 48.63 LIG 0.04  A 
ATOM     22  CD1 TYR B3003      12.417  24.013  27.630  0.70 49.33 LIG 0.01  A 
BRANCH 20 23
ATOM     23 OH   TYR B3003      15.262  21.883  28.488  0.70 50.92 LIG-0.36  OA
ATOM     24 HH   TYR B3003      15.190  21.207  27.995  0.70 50.92 LIG 0.22  HD
ENDBRANCH 20 23
ENDBRANCH 16 17
ENDBRANCH 12 16
ENDBRANCH 9 12
ENDBRANCH 4 8
BRANCH 1 25
ATOM     25  CA  TYR B3001      17.046  27.245  28.565  0.70 43.08 LIG 0.28  C 
BRANCH 25 26
ATOM     26  CB  TYR B3001      17.635  28.062  29.733  0.70 40.59 LIG 0.08  C 
BRANCH 26 27
ATOM     27  CG  TYR B3001      17.948  27.228  30.968  0.70 39.24 LIG-0.06  A 
ATOM     28  CD1 TYR B3001      18.557  27.801  32.087  0.70 40.30 LIG 0.01  A 
ATOM     29  CE1 TYR B3001      18.921  27.017  33.206  0.70 38.36 LIG 0.04  A 
ATOM     30  CZ  TYR B3001      18.668  25.648  33.203  0.70 37.05 LIG 0.07  A 
ATOM     31  CE2 TYR B3001      18.053  25.062  32.102  0.70 37.49 LIG 0.04  A 
ATOM     32  CD2 TYR B3001      17.696  25.853  30.994  0.70 38.19 LIG 0.01  A 
BRANCH 30 33
ATOM     33 OH   TYR B3001      19.045  24.865  34.275  0.70 32.30 LIG-0.36  OA
ATOM     34 HH   TYR B3001      19.684  24.369  34.050  0.70 32.30 LIG 0.22  HD
ENDBRANCH 30 33
ENDBRANCH 26 27
ENDBRANCH 25 26
BRANCH 25 35
ATOM     35  N   TYR B3001      17.038  28.071  27.321  0.70 42.81 LIG-0.07  N 
ATOM     36 H3   TYR B3001      17.037  28.934  27.538  0.70 42.81 LIG 0.28  HD
ATOM     37 H2   TYR B3001      16.310  27.885  26.845  0.70 42.81 LIG 0.28  HD
ATOM     38 H1   TYR B3001      17.763  27.888  26.839  0.70 42.81 LIG 0.28  HD
ENDBRANCH 25 35
ENDBRANCH 1 25
TORSDOF 11
ENDMDL
MODEL 54
USER: ADFR SOLUTION from run 48
USER: SCORE 11.901267 LL:  -2.695 LR:  -9.207 RR:   0.000 FEB:  -5.925
USER: RMSD 11.474742
USER: SEED 47
USER: STATUS no improvement in best 22 clusters for 5 generations
USER: GENES 13
USER: genes 0 Translation |==|  0.36180 0.17074 0.56935
USER: genes 1 Rotation |==|  0.10630 0.31837 0.42449 0.73729
USER: genes 2 Torsion [N]-CA--C-[O] |==|  0.89831
USER: genes 3 Torsion [C]-N--CA-[C] |==|  0.62913
USER: genes 4 Torsion [N]-CA--C-[OXT] |==|  0.57752
USER: genes 5 Torsion [N]-CA--CB-[CG] |==|  0.84707
USER: genes 6 Torsion [CA]-CB--CG-[CD2] |==|  0.31897
USER: genes 7 Torsion [CE2]-CZ--OH-[HH] |==|  0.24728
USER: genes 8 Torsion [N]-C--CA-[N] |==|  0.42497
USER: genes 9 Torsion [C]-CA--CB-[CG] |==|  0.37392
USER: genes 10 Torsion [CA]-CB--CG-[CD1] |==|  0.28889
USER: genes 11 Torsion [CE1]-CZ--OH-[HH] |==|  0.95892
USER: genes 12 Torsion [C]-CA--N-[H2] |==|  0.74366
ROOT
ATOM      1  C   TYR B3001       9.914  23.632  30.050  0.70 44.28 LIG 0.25  C 
ATOM      2 O    TYR B3001       9.128  22.711  29.825  0.70 44.11 LIG-0.27  OA
ATOM      3  N   PRO B3002       9.528  24.927  30.077  0.70 46.07 LIG-0.34  N 
ATOM      4  CA  PRO B3002       8.180  25.489  29.912  0.70 46.91 LIG 0.18  C 
ATOM      5  CB  PRO B3002       8.434  26.997  29.910  0.70 46.92 LIG 0.04  C 
ATOM      6  CG  PRO B3002       9.768  27.098  29.286  0.70 47.16 LIG 0.02  C 
ATOM      7  CD  PRO B3002      10.524  26.013  30.020  0.70 47.04 LIG 0.13  C 
ENDROOT
BRANCH 4 8
ATOM      8  C   PRO B3002       7.321  25.088  28.723  0.70 47.26 LIG 0.24  C 
ATOM      9  N   TYR B3003       6.011  25.043  28.970  0.70 47.47 LIG-0.34  N 
ATOM     10 H    TYR B3003       5.682  25.197  29.749  0.70 47.47 LIG 0.16  HD
ATOM     11 O    PRO B3002       7.835  24.891  27.610  0.70 46.37 LIG-0.27  OA
BRANCH 9 12
ATOM     12  CA  TYR B3003       4.994  24.734  27.968  0.70 47.51 LIG 0.19  C 
BRANCH 12 13
ATOM     13  C   TYR B3003       3.799  25.675  27.970  0.70 47.80 LIG 0.20  C 
ATOM     14 OXT  TYR B3003       2.706  25.223  27.573  0.70 46.55 LIG-0.65  OA
ATOM     15 O    TYR B3003       3.968  26.859  28.334  0.70 50.35 LIG-0.65  OA
ENDBRANCH 12 13
BRANCH 12 16
ATOM     16  CB  TYR B3003       4.537  23.280  28.123  0.70 48.13 LIG 0.07  C 
BRANCH 16 17
ATOM     17  CG  TYR B3003       5.651  22.259  28.075  0.70 49.00 LIG-0.06  A 
ATOM     18  CD2 TYR B3003       5.966  21.479  29.194  0.70 49.34 LIG 0.01  A 
ATOM     19  CE2 TYR B3003       6.999  20.542  29.148  0.70 49.34 LIG 0.04  A 
ATOM     20  CZ  TYR B3003       7.722  20.378  27.970  0.70 49.55 LIG 0.07  A 
ATOM     21  CE1 TYR B3003       7.427  21.139  26.852  0.70 48.63 LIG 0.04  A 
ATOM     22  CD1 TYR B3003       6.396  22.072  26.909  0.70 49.33 LIG 0.01  A 
BRANCH 20 23
ATOM     23 OH   TYR B3003       8.728  19.435  27.901  0.70 50.92 LIG-0.36  OA
ATOM     24 HH   TYR B3003       8.407  18.700  27.654  0.70 50.92 LIG 0.22  HD
ENDBRANCH 20 23
ENDBRANCH 16 17
ENDBRANCH 12 16
ENDBRANCH 9 12
ENDBRANCH 4 8
BRANCH 1 25
ATOM     25  CA  TYR B3001      11.401  23.356  30.276  0.70 43.08 LIG 0.28  C 
BRANCH 25 26
ATOM     26  CB  TYR B3001      12.185  23.386  28.947  0.70 40.59 LIG 0.08  C 
BRANCH 26 27
ATOM     27  CG  TYR B3001      13.486  24.173  29.021  0.70 39.24 LIG-0.06  A 
ATOM     28  CD1 TYR B3001      14.719  23.518  29.089  0.70 40.30 LIG 0.01  A 
ATOM     29  CE1 TYR B3001      15.925  24.241  29.235  0.70 38.36 LIG 0.04  A 
ATOM     30  CZ  TYR B3001      15.894  25.630  29.310  0.70 37.05 LIG 0.07  A 
ATOM     31  CE2 TYR B3001      14.678  26.300  29.233  0.70 37.49 LIG 0.04  A 
ATOM     32  CD2 TYR B3001      13.484  25.569  29.088  0.70 38.19 LIG 0.01  A 
BRANCH 30 33
ATOM     33 OH   TYR B3001      17.061  26.347  29.483  0.70 32.30 LIG-0.36  OA
ATOM     34 HH   TYR B3001      17.675  25.829  29.727  0.70 32.30 LIG 0.22  HD
ENDBRANCH 30 33
ENDBRANCH 26 27
ENDBRANCH 25 26
BRANCH 25 35
ATOM     35  N   TYR B3001      11.435  21.980  30.854  0.70 42.81 LIG-0.07  N 
ATOM     36 H3   TYR B3001      10.728  21.521  30.569  0.70 42.81 LIG 0.28  HD
ATOM     37 H2   TYR B3001      11.418  22.030  31.742  0.70 42.81 LIG 0.28  HD
ATOM     38 H1   TYR B3001      12.180  21.567  30.595  0.70 42.81 LIG 0.28  HD
ENDBRANCH 25 35
ENDBRANCH 1 25
TORSDOF 11
ENDMDL
MODEL 55
USER: ADFR SOLUTION from run 122
USER: SCORE 12.240688 LL:  -3.030 LR:  -9.210 RR:   0.000 FEB:  -5.929
USER: RMSD 12.594556
USER: SEED 121
USER: STATUS no improvement in best 33 clusters for 5 generations
USER: GENES 13
USER: genes 0 Translation |==|  0.40000 0.11049 0.59724
USER: genes 1 Rotation |==|  0.15106 0.84843 0.50676 0.58239
USER: genes 2 Torsion [N]-CA--C-[O] |==|  0.42977
USER: genes 3 Torsion [C]-N--CA-[C] |==|  0.67858
USER: genes 4 Torsion [N]-CA--C-[OXT] |==|  0.40286
USER: genes 5 Torsion [N]-CA--CB-[CG] |==|  0.32572
USER: genes 6 Torsion [CA]-CB--CG-[CD2] |==|  0.76654
USER: genes 7 Torsion [CE2]-CZ--OH-[HH] |==|  0.92528
USER: genes 8 Torsion [N]-C--CA-[N] |==|  0.32293
USER: genes 9 Torsion [C]-CA--CB-[CG] |==|  0.25840
USER: genes 10 Torsion [CA]-CB--CG-[CD1] |==|  0.09247
USER: genes 11 Torsion [CE1]-CZ--OH-[HH] |==|  0.91202
USER: genes 12 Torsion [C]-CA--N-[H2] |==|  0.65716
ROOT
ATOM      1  C   TYR B3001      11.060  21.825  30.887  0.70 44.28 LIG 0.25  C 
ATOM      2 O    TYR B3001      11.057  22.709  31.745  0.70 44.11 LIG-0.27  OA
ATOM      3  N   PRO B3002      11.956  21.797  29.876  0.70 46.07 LIG-0.34  N 
ATOM      4  CA  PRO B3002      13.080  22.708  29.616  0.70 46.91 LIG 0.18  C 
ATOM      5  CB  PRO B3002      13.613  22.222  28.268  0.70 46.92 LIG 0.04  C 
ATOM      6  CG  PRO B3002      12.390  21.738  27.595  0.70 47.16 LIG 0.02  C 
ATOM      7  CD  PRO B3002      11.739  20.936  28.698  0.70 47.04 LIG 0.13  C 
ENDROOT
BRANCH 4 8
ATOM      8  C   PRO B3002      12.859  24.213  29.596  0.70 47.26 LIG 0.24  C 
ATOM      9  N   TYR B3003      11.600  24.588  29.367  0.70 47.47 LIG-0.34  N 
ATOM     10 H    TYR B3003      10.970  24.024  29.210  0.70 47.47 LIG 0.16  HD
ATOM     11 O    PRO B3002      13.792  24.992  29.845  0.70 46.37 LIG-0.27  OA
BRANCH 9 12
ATOM     12  CA  TYR B3003      11.144  25.976  29.355  0.70 47.51 LIG 0.19  C 
BRANCH 12 13
ATOM     13  C   TYR B3003      10.146  26.323  30.449  0.70 47.80 LIG 0.20  C 
ATOM     14 OXT  TYR B3003      10.203  27.466  30.944  0.70 46.55 LIG-0.65  OA
ATOM     15 O    TYR B3003       9.340  25.444  30.826  0.70 50.35 LIG-0.65  OA
ENDBRANCH 12 13
BRANCH 12 16
ATOM     16  CB  TYR B3003      10.574  26.323  27.975  0.70 48.13 LIG 0.07  C 
BRANCH 16 17
ATOM     17  CG  TYR B3003       9.108  26.689  27.970  0.70 49.00 LIG-0.06  A 
ATOM     18  CD2 TYR B3003       8.116  25.701  27.920  0.70 49.34 LIG 0.01  A 
ATOM     19  CE2 TYR B3003       6.764  26.043  27.908  0.70 49.34 LIG 0.04  A 
ATOM     20  CZ  TYR B3003       6.396  27.384  27.952  0.70 49.55 LIG 0.07  A 
ATOM     21  CE1 TYR B3003       7.359  28.376  28.001  0.70 48.63 LIG 0.04  A 
ATOM     22  CD1 TYR B3003       8.706  28.025  28.010  0.70 49.33 LIG 0.01  A 
BRANCH 20 23
ATOM     23 OH   TYR B3003       5.061  27.735  27.970  0.70 50.92 LIG-0.36  OA
ATOM     24 HH   TYR B3003       4.608  27.136  27.595  0.70 50.92 LIG 0.22  HD
ENDBRANCH 20 23
ENDBRANCH 16 17
ENDBRANCH 12 16
ENDBRANCH 9 12
ENDBRANCH 4 8
BRANCH 1 25
ATOM     25  CA  TYR B3001      10.006  20.717  30.899  0.70 43.08 LIG 0.28  C 
BRANCH 25 26
ATOM     26  CB  TYR B3001       8.579  21.301  30.948  0.70 40.59 LIG 0.08  C 
BRANCH 26 27
ATOM     27  CG  TYR B3001       7.945  21.487  29.577  0.70 39.24 LIG-0.06  A 
ATOM     28  CD1 TYR B3001       8.227  20.606  28.529  0.70 40.30 LIG 0.01  A 
ATOM     29  CE1 TYR B3001       7.704  20.818  27.233  0.70 38.36 LIG 0.04  A 
ATOM     30  CZ  TYR B3001       6.888  21.919  26.988  0.70 37.05 LIG 0.07  A 
ATOM     31  CE2 TYR B3001       6.588  22.800  28.020  0.70 37.49 LIG 0.04  A 
ATOM     32  CD2 TYR B3001       7.116  22.580  29.306  0.70 38.19 LIG 0.01  A 
BRANCH 30 33
ATOM     33 OH   TYR B3001       6.394  22.154  25.720  0.70 32.30 LIG-0.36  OA
ATOM     34 HH   TYR B3001       6.945  21.881  25.149  0.70 32.30 LIG 0.22  HD
ENDBRANCH 30 33
ENDBRANCH 26 27
ENDBRANCH 25 26
BRANCH 25 35
ATOM     35  N   TYR B3001      10.287  19.957  32.153  0.70 42.81 LIG-0.07  N 
ATOM     36 H3   TYR B3001      11.009  20.295  32.550  0.70 42.81 LIG 0.28  HD
ATOM     37 H2   TYR B3001      10.429  19.102  31.957  0.70 42.81 LIG 0.28  HD
ATOM     38 H1   TYR B3001       9.590  20.023  32.703  0.70 42.81 LIG 0.28  HD
ENDBRANCH 25 35
ENDBRANCH 1 25
TORSDOF 11
ENDMDL
MODEL 56
USER: ADFR SOLUTION from run 83
USER: SCORE 11.255205 LL:  -2.047 LR:  -9.208 RR:   0.000 FEB:  -5.927
USER: RMSD 11.624325
USER: SEED 82
USER: STATUS no improvement in best 22 clusters for 5 generations
USER: GENES 13
USER: genes 0 Translation |==|  0.39889 0.17197 0.55918
USER: genes 1 Rotation |==|  0.03784 0.61147 0.56065 0.64249
USER: genes 2 Torsion [N]-CA--C-[O] |==|  0.18964
USER: genes 3 Torsion [C]-N--CA-[C] |==|  0.76493
USER: genes 4 Torsion [N]-CA--C-[OXT] |==|  0.47709
USER: genes 5 Torsion [N]-CA--CB-[CG] |==|  0.52702
USER: genes 6 Torsion [CA]-CB--CG-[CD2] |==|  0.22099
USER: genes 7 Torsion [CE2]-CZ--OH-[HH] |==|  0.85564
USER: genes 8 Torsion [N]-C--CA-[N] |==|  0.26559
USER: genes 9 Torsion [C]-CA--CB-[CG] |==|  0.17735
USER: genes 10 Torsion [CA]-CB--CG-[CD1] |==|  0.32191
USER: genes 11 Torsion [CE1]-CZ--OH-[HH] |==|  0.86406
USER: genes 12 Torsion [C]-CA--N-[H2] |==|  0.11646
ROOT
ATOM      1  C   TYR B3001      11.027  23.669  29.745  0.70 44.28 LIG 0.25  C 
ATOM      2 O    TYR B3001      10.228  23.807  30.673  0.70 44.11 LIG-0.27  OA
ATOM      3  N   PRO B3002      11.500  24.715  29.032  0.70 46.07 LIG-0.34  N 
ATOM      4  CA  PRO B3002      11.237  26.150  29.218  0.70 46.91 LIG 0.18  C 
ATOM      5  CB  PRO B3002      11.949  26.787  28.023  0.70 46.92 LIG 0.04  C 
ATOM      6  CG  PRO B3002      11.810  25.753  26.978  0.70 47.16 LIG 0.02  C 
ATOM      7  CD  PRO B3002      12.181  24.503  27.742  0.70 47.04 LIG 0.13  C 
ENDROOT
BRANCH 4 8
ATOM      8  C   PRO B3002       9.809  26.660  29.327  0.70 47.26 LIG 0.24  C 
ATOM      9  N   TYR B3003       9.378  27.344  28.266  0.70 47.47 LIG-0.34  N 
ATOM     10 H    TYR B3003       9.880  27.511  27.588  0.70 47.47 LIG 0.16  HD
ATOM     11 O    PRO B3002       9.112  26.381  30.316  0.70 46.37 LIG-0.27  OA
BRANCH 9 12
ATOM     12  CA  TYR B3003       8.027  27.882  28.126  0.70 47.51 LIG 0.19  C 
BRANCH 12 13
ATOM     13  C   TYR B3003       7.005  26.892  27.590  0.70 47.80 LIG 0.20  C 
ATOM     14 OXT  TYR B3003       5.806  27.238  27.595  0.70 46.55 LIG-0.65  OA
ATOM     15 O    TYR B3003       7.401  25.771  27.203  0.70 50.35 LIG-0.65  OA
ENDBRANCH 12 13
BRANCH 12 16
ATOM     16  CB  TYR B3003       8.060  29.147  27.261  0.70 48.13 LIG 0.07  C 
BRANCH 16 17
ATOM     17  CG  TYR B3003       6.765  29.926  27.231  0.70 49.00 LIG-0.06  A 
ATOM     18  CD2 TYR B3003       6.411  30.781  28.282  0.70 49.34 LIG 0.01  A 
ATOM     19  CE2 TYR B3003       5.212  31.493  28.255  0.70 49.34 LIG 0.04  A 
ATOM     20  CZ  TYR B3003       4.358  31.355  27.165  0.70 49.55 LIG 0.07  A 
ATOM     21  CE1 TYR B3003       4.688  30.515  26.116  0.70 48.63 LIG 0.04  A 
ATOM     22  CD1 TYR B3003       5.886  29.807  26.153  0.70 49.33 LIG 0.01  A 
BRANCH 20 23
ATOM     23 OH   TYR B3003       3.182  32.075  27.111  0.70 50.92 LIG-0.36  OA
ATOM     24 HH   TYR B3003       2.750  31.961  27.822  0.70 50.92 LIG 0.22  HD
ENDBRANCH 20 23
ENDBRANCH 16 17
ENDBRANCH 12 16
ENDBRANCH 9 12
ENDBRANCH 4 8
BRANCH 1 25
ATOM     25  CA  TYR B3001      11.501  22.279  29.319  0.70 43.08 LIG 0.28  C 
BRANCH 25 26
ATOM     26  CB  TYR B3001      10.399  21.221  29.531  0.70 40.59 LIG 0.08  C 
BRANCH 26 27
ATOM     27  CG  TYR B3001       9.161  21.446  28.674  0.70 39.24 LIG-0.06  A 
ATOM     28  CD1 TYR B3001       8.786  20.520  27.696  0.70 40.30 LIG 0.01  A 
ATOM     29  CE1 TYR B3001       7.682  20.760  26.845  0.70 38.36 LIG 0.04  A 
ATOM     30  CZ  TYR B3001       6.948  21.935  26.980  0.70 37.05 LIG 0.07  A 
ATOM     31  CE2 TYR B3001       7.299  22.862  27.954  0.70 37.49 LIG 0.04  A 
ATOM     32  CD2 TYR B3001       8.401  22.613  28.794  0.70 38.19 LIG 0.01  A 
BRANCH 30 33
ATOM     33 OH   TYR B3001       5.887  22.196  26.136  0.70 32.30 LIG-0.36  OA
ATOM     34 HH   TYR B3001       6.124  22.072  25.340  0.70 32.30 LIG 0.22  HD
ENDBRANCH 30 33
ENDBRANCH 26 27
ENDBRANCH 25 26
BRANCH 25 35
ATOM     35  N   TYR B3001      12.658  21.995  30.220  0.70 42.81 LIG-0.07  N 
ATOM     36 H3   TYR B3001      12.826  21.121  30.221  0.70 42.81 LIG 0.28  HD
ATOM     37 H2   TYR B3001      12.463  22.260  31.046  0.70 42.81 LIG 0.28  HD
ATOM     38 H1   TYR B3001      13.375  22.434  29.930  0.70 42.81 LIG 0.28  HD
ENDBRANCH 25 35
ENDBRANCH 1 25
TORSDOF 11
ENDMDL
MODEL 57
USER: ADFR SOLUTION from run 142
USER: SCORE 12.300890 LL:  -3.101 LR:  -9.200 RR:   0.000 FEB:  -5.919
USER: RMSD 12.451939
USER: SEED 141
USER: STATUS no improvement in best 9 clusters for 5 generations
USER: GENES 13
USER: genes 0 Translation |==|  0.29146 0.19470 0.56175
USER: genes 1 Rotation |==|  0.03922 0.42652 0.42364 0.66265
USER: genes 2 Torsion [N]-CA--C-[O] |==|  0.67235
USER: genes 3 Torsion [C]-N--CA-[C] |==|  0.74605
USER: genes 4 Torsion [N]-CA--C-[OXT] |==|  0.91670
USER: genes 5 Torsion [N]-CA--CB-[CG] |==|  0.86408
USER: genes 6 Torsion [CA]-CB--CG-[CD2] |==|  0.37882
USER: genes 7 Torsion [CE2]-CZ--OH-[HH] |==|  0.15127
USER: genes 8 Torsion [N]-C--CA-[N] |==|  0.42793
USER: genes 9 Torsion [C]-CA--CB-[CG] |==|  0.41332
USER: genes 10 Torsion [CA]-CB--CG-[CD1] |==|  0.87474
USER: genes 11 Torsion [CE1]-CZ--OH-[HH] |==|  0.50611
USER: genes 12 Torsion [C]-CA--N-[H2] |==|  0.64404
ROOT
ATOM      1  C   TYR B3001       7.804  24.351  29.822  0.70 44.28 LIG 0.25  C 
ATOM      2 O    TYR B3001       6.663  23.902  29.945  0.70 44.11 LIG-0.27  OA
ATOM      3  N   PRO B3002       8.047  25.631  29.461  0.70 46.07 LIG-0.34  N 
ATOM      4  CA  PRO B3002       7.085  26.713  29.204  0.70 46.91 LIG 0.18  C 
ATOM      5  CB  PRO B3002       7.976  27.854  28.712  0.70 46.92 LIG 0.04  C 
ATOM      6  CG  PRO B3002       9.061  27.137  28.013  0.70 47.16 LIG 0.02  C 
ATOM      7  CD  PRO B3002       9.387  26.045  29.007  0.70 47.04 LIG 0.13  C 
ENDROOT
BRANCH 4 8
ATOM      8  C   PRO B3002       5.919  26.493  28.253  0.70 47.26 LIG 0.24  C 
ATOM      9  N   TYR B3003       5.027  25.590  28.664  0.70 47.47 LIG-0.34  N 
ATOM     10 H    TYR B3003       5.122  25.143  29.392  0.70 47.47 LIG 0.16  HD
ATOM     11 O    PRO B3002       5.810  27.172  27.220  0.70 46.37 LIG-0.27  OA
BRANCH 9 12
ATOM     12  CA  TYR B3003       3.803  25.255  27.941  0.70 47.51 LIG 0.19  C 
BRANCH 12 13
ATOM     13  C   TYR B3003       2.586  26.073  28.346  0.70 47.80 LIG 0.20  C 
ATOM     14 OXT  TYR B3003       2.530  26.485  29.523  0.70 46.55 LIG-0.65  OA
ATOM     15 O    TYR B3003       1.685  26.266  27.501  0.70 50.35 LIG-0.65  OA
ENDBRANCH 12 13
BRANCH 12 16
ATOM     16  CB  TYR B3003       3.515  23.756  28.076  0.70 48.13 LIG 0.07  C 
BRANCH 16 17
ATOM     17  CG  TYR B3003       4.693  22.857  27.779  0.70 49.00 LIG-0.06  A 
ATOM     18  CD2 TYR B3003       4.988  21.758  28.595  0.70 49.34 LIG 0.01  A 
ATOM     19  CE2 TYR B3003       6.081  20.935  28.323  0.70 49.34 LIG 0.04  A 
ATOM     20  CZ  TYR B3003       6.885  21.207  27.220  0.70 49.55 LIG 0.07  A 
ATOM     21  CE1 TYR B3003       6.611  22.287  26.400  0.70 48.63 LIG 0.04  A 
ATOM     22  CD1 TYR B3003       5.520  23.105  26.682  0.70 49.33 LIG 0.01  A 
BRANCH 20 23
ATOM     23 OH   TYR B3003       7.952  20.384  26.922  0.70 50.92 LIG-0.36  OA
ATOM     24 HH   TYR B3003       7.685  19.590  26.856  0.70 50.92 LIG 0.22  HD
ENDBRANCH 20 23
ENDBRANCH 16 17
ENDBRANCH 12 16
ENDBRANCH 9 12
ENDBRANCH 4 8
BRANCH 1 25
ATOM     25  CA  TYR B3001       9.026  23.457  30.038  0.70 43.08 LIG 0.28  C 
BRANCH 25 26
ATOM     26  CB  TYR B3001       9.473  22.791  28.720  0.70 40.59 LIG 0.08  C 
BRANCH 26 27
ATOM     27  CG  TYR B3001      10.972  22.540  28.638  0.70 39.24 LIG-0.06  A 
ATOM     28  CD1 TYR B3001      11.888  23.525  29.020  0.70 40.30 LIG 0.01  A 
ATOM     29  CE1 TYR B3001      13.280  23.327  28.873  0.70 38.36 LIG 0.04  A 
ATOM     30  CZ  TYR B3001      13.757  22.131  28.345  0.70 37.05 LIG 0.07  A 
ATOM     31  CE2 TYR B3001      12.861  21.135  27.970  0.70 37.49 LIG 0.04  A 
ATOM     32  CD2 TYR B3001      11.478  21.344  28.119  0.70 38.19 LIG 0.01  A 
BRANCH 30 33
ATOM     33 OH   TYR B3001      15.112  21.935  28.169  0.70 32.30 LIG-0.36  OA
ATOM     34 HH   TYR B3001      15.243  21.184  27.816  0.70 32.30 LIG 0.22  HD
ENDBRANCH 30 33
ENDBRANCH 26 27
ENDBRANCH 25 26
BRANCH 25 35
ATOM     35  N   TYR B3001       8.553  22.415  30.997  0.70 42.81 LIG-0.07  N 
ATOM     36 H3   TYR B3001       7.741  22.630  31.293  0.70 42.81 LIG 0.28  HD
ATOM     37 H2   TYR B3001       9.115  22.366  31.684  0.70 42.81 LIG 0.28  HD
ATOM     38 H1   TYR B3001       8.518  21.627  30.586  0.70 42.81 LIG 0.28  HD
ENDBRANCH 25 35
ENDBRANCH 1 25
TORSDOF 11
ENDMDL
MODEL 58
USER: ADFR SOLUTION from run 22
USER: SCORE 11.981507 LL:  -2.787 LR:  -9.194 RR:   0.000 FEB:  -5.913
USER: RMSD 11.632023
USER: SEED 21
USER: STATUS no improvement in best 24 clusters for 5 generations
USER: GENES 13
USER: genes 0 Translation |==|  0.38440 0.11699 0.51251
USER: genes 1 Rotation |==|  0.74318 0.41620 0.22821 0.83162
USER: genes 2 Torsion [N]-CA--C-[O] |==|  0.83664
USER: genes 3 Torsion [C]-N--CA-[C] |==|  0.48552
USER: genes 4 Torsion [N]-CA--C-[OXT] |==|  0.44655
USER: genes 5 Torsion [N]-CA--CB-[CG] |==|  0.19206
USER: genes 6 Torsion [CA]-CB--CG-[CD2] |==|  0.90528
USER: genes 7 Torsion [CE2]-CZ--OH-[HH] |==|  0.29198
USER: genes 8 Torsion [N]-C--CA-[N] |==|  0.31240
USER: genes 9 Torsion [C]-CA--CB-[CG] |==|  0.77488
USER: genes 10 Torsion [CA]-CB--CG-[CD1] |==|  0.75716
USER: genes 11 Torsion [CE1]-CZ--OH-[HH] |==|  0.85713
USER: genes 12 Torsion [C]-CA--N-[H2] |==|  0.40438
ROOT
ATOM      1  C   TYR B3001      10.592  22.020  28.345  0.70 44.28 LIG 0.25  C 
ATOM      2 O    TYR B3001      10.572  23.249  28.265  0.70 44.11 LIG-0.27  OA
ATOM      3  N   PRO B3002       9.475  21.267  28.239  0.70 46.07 LIG-0.34  N 
ATOM      4  CA  PRO B3002       8.096  21.699  27.970  0.70 46.91 LIG 0.18  C 
ATOM      5  CB  PRO B3002       7.296  20.403  28.109  0.70 46.92 LIG 0.04  C 
ATOM      6  CG  PRO B3002       8.053  19.667  29.142  0.70 47.16 LIG 0.02  C 
ATOM      7  CD  PRO B3002       9.474  19.853  28.661  0.70 47.04 LIG 0.13  C 
ENDROOT
BRANCH 4 8
ATOM      8  C   PRO B3002       7.465  22.810  28.794  0.70 47.26 LIG 0.24  C 
ATOM      9  N   TYR B3003       6.992  23.833  28.082  0.70 47.47 LIG-0.34  N 
ATOM     10 H    TYR B3003       7.068  23.876  27.226  0.70 47.47 LIG 0.16  HD
ATOM     11 O    PRO B3002       7.360  22.701  30.026  0.70 46.37 LIG-0.27  OA
BRANCH 9 12
ATOM     12  CA  TYR B3003       6.299  24.985  28.654  0.70 47.51 LIG 0.19  C 
BRANCH 12 13
ATOM     13  C   TYR B3003       5.963  26.081  27.655  0.70 47.80 LIG 0.20  C 
ATOM     14 OXT  TYR B3003       5.077  26.900  27.970  0.70 46.55 LIG-0.65  OA
ATOM     15 O    TYR B3003       6.560  26.095  26.556  0.70 50.35 LIG-0.65  OA
ENDBRANCH 12 13
BRANCH 12 16
ATOM     16  CB  TYR B3003       7.113  25.551  29.823  0.70 48.13 LIG 0.07  C 
BRANCH 16 17
ATOM     17  CG  TYR B3003       8.411  26.216  29.427  0.70 49.00 LIG-0.06  A 
ATOM     18  CD2 TYR B3003       9.164  25.744  28.345  0.70 49.34 LIG 0.01  A 
ATOM     19  CE2 TYR B3003      10.365  26.356  27.986  0.70 49.34 LIG 0.04  A 
ATOM     20  CZ  TYR B3003      10.818  27.455  28.710  0.70 49.55 LIG 0.07  A 
ATOM     21  CE1 TYR B3003      10.089  27.937  29.783  0.70 48.63 LIG 0.04  A 
ATOM     22  CD1 TYR B3003       8.893  27.319  30.135  0.70 49.33 LIG 0.01  A 
BRANCH 20 23
ATOM     23 OH   TYR B3003      11.990  28.088  28.349  0.70 50.92 LIG-0.36  OA
ATOM     24 HH   TYR B3003      11.810  28.816  27.970  0.70 50.92 LIG 0.22  HD
ENDBRANCH 20 23
ENDBRANCH 16 17
ENDBRANCH 12 16
ENDBRANCH 9 12
ENDBRANCH 4 8
BRANCH 1 25
ATOM     25  CA  TYR B3001      11.899  21.272  28.614  0.70 43.08 LIG 0.28  C 
BRANCH 25 26
ATOM     26  CB  TYR B3001      12.660  21.883  29.808  0.70 40.59 LIG 0.08  C 
BRANCH 26 27
ATOM     27  CG  TYR B3001      13.467  23.124  29.451  0.70 39.24 LIG-0.06  A 
ATOM     28  CD1 TYR B3001      14.778  23.017  28.980  0.70 40.30 LIG 0.01  A 
ATOM     29  CE1 TYR B3001      15.560  24.166  28.720  0.70 38.36 LIG 0.04  A 
ATOM     30  CZ  TYR B3001      15.019  25.431  28.930  0.70 37.05 LIG 0.07  A 
ATOM     31  CE2 TYR B3001      13.712  25.558  29.387  0.70 37.49 LIG 0.04  A 
ATOM     32  CD2 TYR B3001      12.945  24.406  29.644  0.70 38.19 LIG 0.01  A 
BRANCH 30 33
ATOM     33 OH   TYR B3001      15.780  26.562  28.708  0.70 32.30 LIG-0.36  OA
ATOM     34 HH   TYR B3001      16.510  26.494  29.119  0.70 32.30 LIG 0.22  HD
ENDBRANCH 30 33
ENDBRANCH 26 27
ENDBRANCH 25 26
BRANCH 25 35
ATOM     35  N   TYR B3001      12.690  21.456  27.361  0.70 42.81 LIG-0.07  N 
ATOM     36 H3   TYR B3001      12.560  20.760  26.822  0.70 42.81 LIG 0.28  HD
ATOM     37 H2   TYR B3001      13.554  21.518  27.562  0.70 42.81 LIG 0.28  HD
ATOM     38 H1   TYR B3001      12.427  22.201  26.950  0.70 42.81 LIG 0.28  HD
ENDBRANCH 25 35
ENDBRANCH 1 25
TORSDOF 11
ENDMDL
MODEL 59
USER: ADFR SOLUTION from run 127
USER: SCORE 12.217096 LL:  -3.032 LR:  -9.186 RR:   0.000 FEB:  -5.904
USER: RMSD 11.730585
USER: SEED 126
USER: STATUS no improvement in best 31 clusters for 5 generations
USER: GENES 13
USER: genes 0 Translation |==|  0.44514 0.09527 0.52330
USER: genes 1 Rotation |==|  0.31267 0.30099 0.57746 0.91146
USER: genes 2 Torsion [N]-CA--C-[O] |==|  0.28352
USER: genes 3 Torsion [C]-N--CA-[C] |==|  0.79078
USER: genes 4 Torsion [N]-CA--C-[OXT] |==|  0.11120
USER: genes 5 Torsion [N]-CA--CB-[CG] |==|  0.16505
USER: genes 6 Torsion [CA]-CB--CG-[CD2] |==|  0.30152
USER: genes 7 Torsion [CE2]-CZ--OH-[HH] |==|  0.71998
USER: genes 8 Torsion [N]-C--CA-[N] |==|  0.40225
USER: genes 9 Torsion [C]-CA--CB-[CG] |==|  0.28379
USER: genes 10 Torsion [CA]-CB--CG-[CD1] |==|  0.62647
USER: genes 11 Torsion [CE1]-CZ--OH-[HH] |==|  0.89622
USER: genes 12 Torsion [C]-CA--N-[H2] |==|  0.31324
ROOT
ATOM      1  C   TYR B3001      12.414  21.368  28.669  0.70 44.28 LIG 0.25  C 
ATOM      2 O    TYR B3001      12.185  20.380  27.970  0.70 44.11 LIG-0.27  OA
ATOM      3  N   PRO B3002      11.701  21.653  29.781  0.70 46.07 LIG-0.34  N 
ATOM      4  CA  PRO B3002      10.611  20.883  30.398  0.70 46.91 LIG 0.18  C 
ATOM      5  CB  PRO B3002      10.145  21.795  31.533  0.70 46.92 LIG 0.04  C 
ATOM      6  CG  PRO B3002      10.385  23.144  30.981  0.70 47.16 LIG 0.02  C 
ATOM      7  CD  PRO B3002      11.774  22.988  30.403  0.70 47.04 LIG 0.13  C 
ENDROOT
BRANCH 4 8
ATOM      8  C   PRO B3002       9.429  20.421  29.560  0.70 47.26 LIG 0.24  C 
ATOM      9  N   TYR B3003       8.563  21.384  29.238  0.70 47.47 LIG-0.34  N 
ATOM     10 H    TYR B3003       8.650  22.195  29.511  0.70 47.47 LIG 0.16  HD
ATOM     11 O    PRO B3002       9.350  19.245  29.172  0.70 46.37 LIG-0.27  OA
BRANCH 9 12
ATOM     12  CA  TYR B3003       7.385  21.185  28.398  0.70 47.51 LIG 0.19  C 
BRANCH 12 13
ATOM     13  C   TYR B3003       7.683  21.049  26.913  0.70 47.80 LIG 0.20  C 
ATOM     14 OXT  TYR B3003       8.686  20.385  26.582  0.70 46.55 LIG-0.65  OA
ATOM     15 O    TYR B3003       6.937  21.630  26.095  0.70 50.35 LIG-0.65  OA
ENDBRANCH 12 13
BRANCH 12 16
ATOM     16  CB  TYR B3003       6.376  22.312  28.645  0.70 48.13 LIG 0.07  C 
BRANCH 16 17
ATOM     17  CG  TYR B3003       6.896  23.701  28.356  0.70 49.00 LIG-0.06  A 
ATOM     18  CD2 TYR B3003       6.447  24.425  27.245  0.70 49.34 LIG 0.01  A 
ATOM     19  CE2 TYR B3003       6.935  25.705  26.978  0.70 49.34 LIG 0.04  A 
ATOM     20  CZ  TYR B3003       7.877  26.270  27.831  0.70 49.55 LIG 0.07  A 
ATOM     21  CE1 TYR B3003       8.334  25.572  28.935  0.70 48.63 LIG 0.04  A 
ATOM     22  CD1 TYR B3003       7.844  24.296  29.192  0.70 49.33 LIG 0.01  A 
BRANCH 20 23
ATOM     23 OH   TYR B3003       8.347  27.546  27.595  0.70 50.92 LIG-0.36  OA
ATOM     24 HH   TYR B3003       9.102  27.504  27.229  0.70 50.92 LIG 0.22  HD
ENDBRANCH 20 23
ENDBRANCH 16 17
ENDBRANCH 12 16
ENDBRANCH 9 12
ENDBRANCH 4 8
BRANCH 1 25
ATOM     25  CA  TYR B3001      13.511  22.363  28.286  0.70 43.08 LIG 0.28  C 
BRANCH 25 26
ATOM     26  CB  TYR B3001      13.014  23.362  27.220  0.70 40.59 LIG 0.08  C 
BRANCH 26 27
ATOM     27  CG  TYR B3001      12.660  24.732  27.782  0.70 39.24 LIG-0.06  A 
ATOM     28  CD1 TYR B3001      11.479  25.379  27.408  0.70 40.30 LIG 0.01  A 
ATOM     29  CE1 TYR B3001      11.181  26.683  27.866  0.70 38.36 LIG 0.04  A 
ATOM     30  CZ  TYR B3001      12.073  27.341  28.708  0.70 37.05 LIG 0.07  A 
ATOM     31  CE2 TYR B3001      13.248  26.709  29.100  0.70 37.49 LIG 0.04  A 
ATOM     32  CD2 TYR B3001      13.534  25.411  28.636  0.70 38.19 LIG 0.01  A 
BRANCH 30 33
ATOM     33 OH   TYR B3001      11.810  28.626  29.139  0.70 32.30 LIG-0.36  OA
ATOM     34 HH   TYR B3001      11.451  29.062  28.517  0.70 32.30 LIG 0.22  HD
ENDBRANCH 30 33
ENDBRANCH 26 27
ENDBRANCH 25 26
BRANCH 25 35
ATOM     35  N   TYR B3001      14.595  21.511  27.714  0.70 42.81 LIG-0.07  N 
ATOM     36 H3   TYR B3001      15.363  21.691  28.127  0.70 42.81 LIG 0.28  HD
ATOM     37 H2   TYR B3001      14.679  21.679  26.845  0.70 42.81 LIG 0.28  HD
ATOM     38 H1   TYR B3001      14.391  20.652  27.832  0.70 42.81 LIG 0.28  HD
ENDBRANCH 25 35
ENDBRANCH 1 25
TORSDOF 11
ENDMDL
MODEL 60
USER: ADFR SOLUTION from run 61
USER: SCORE 11.212961 LL:  -2.033 LR:  -9.180 RR:   0.000 FEB:  -5.898
USER: RMSD 9.954607
USER: SEED 60
USER: STATUS no improvement in best 24 clusters for 5 generations
USER: GENES 13
USER: genes 0 Translation |==|  0.45424 0.16360 0.50708
USER: genes 1 Rotation |==|  0.57275 0.36917 0.24056 0.90035
USER: genes 2 Torsion [N]-CA--C-[O] |==|  0.94932
USER: genes 3 Torsion [C]-N--CA-[C] |==|  0.44614
USER: genes 4 Torsion [N]-CA--C-[OXT] |==|  0.43074
USER: genes 5 Torsion [N]-CA--CB-[CG] |==|  0.53735
USER: genes 6 Torsion [CA]-CB--CG-[CD2] |==|  0.24330
USER: genes 7 Torsion [CE2]-CZ--OH-[HH] |==|  0.02740
USER: genes 8 Torsion [N]-C--CA-[N] |==|  0.25668
USER: genes 9 Torsion [C]-CA--CB-[CG] |==|  0.21052
USER: genes 10 Torsion [CA]-CB--CG-[CD1] |==|  0.84629
USER: genes 11 Torsion [CE1]-CZ--OH-[HH] |==|  0.31106
USER: genes 12 Torsion [C]-CA--N-[H2] |==|  0.24694
ROOT
ATOM      1  C   TYR B3001      12.687  23.418  28.182  0.70 44.28 LIG 0.25  C 
ATOM      2 O    TYR B3001      12.560  24.299  27.331  0.70 44.11 LIG-0.27  OA
ATOM      3  N   PRO B3002      11.637  22.908  28.863  0.70 46.07 LIG-0.34  N 
ATOM      4  CA  PRO B3002      10.208  23.221  28.720  0.70 46.91 LIG 0.18  C 
ATOM      5  CB  PRO B3002       9.565  22.421  29.854  0.70 46.92 LIG 0.04  C 
ATOM      6  CG  PRO B3002      10.613  22.441  30.895  0.70 47.16 LIG 0.02  C 
ATOM      7  CD  PRO B3002      11.845  22.109  30.085  0.70 47.04 LIG 0.13  C 
ENDROOT
BRANCH 4 8
ATOM      8  C   PRO B3002       9.732  24.665  28.745  0.70 47.26 LIG 0.24  C 
ATOM      9  N   TYR B3003       8.488  24.851  28.302  0.70 47.47 LIG-0.34  N 
ATOM     10 H    TYR B3003       8.005  24.208  27.996  0.70 47.47 LIG 0.16  HD
ATOM     11 O    PRO B3002      10.455  25.560  29.211  0.70 46.37 LIG-0.27  OA
BRANCH 9 12
ATOM     12  CA  TYR B3003       7.804  26.141  28.284  0.70 47.51 LIG 0.19  C 
BRANCH 12 13
ATOM     13  C   TYR B3003       6.613  26.212  27.341  0.70 47.80 LIG 0.20  C 
ATOM     14 OXT  TYR B3003       5.722  27.047  27.595  0.70 46.55 LIG-0.65  OA
ATOM     15 O    TYR B3003       6.561  25.414  26.380  0.70 50.35 LIG-0.65  OA
ENDBRANCH 12 13
BRANCH 12 16
ATOM     16  CB  TYR B3003       8.808  27.256  27.970  0.70 48.13 LIG 0.07  C 
BRANCH 16 17
ATOM     17  CG  TYR B3003       8.301  28.655  28.233  0.70 49.00 LIG-0.06  A 
ATOM     18  CD2 TYR B3003       8.431  29.246  29.496  0.70 49.34 LIG 0.01  A 
ATOM     19  CE2 TYR B3003       7.956  30.535  29.737  0.70 49.34 LIG 0.04  A 
ATOM     20  CZ  TYR B3003       7.349  31.245  28.706  0.70 49.55 LIG 0.07  A 
ATOM     21  CE1 TYR B3003       7.210  30.680  27.450  0.70 48.63 LIG 0.04  A 
ATOM     22  CD1 TYR B3003       7.685  29.392  27.220  0.70 49.33 LIG 0.01  A 
BRANCH 20 23
ATOM     23 OH   TYR B3003       6.900  32.532  28.922  0.70 50.92 LIG-0.36  OA
ATOM     24 HH   TYR B3003       7.176  32.804  29.667  0.70 50.92 LIG 0.22  HD
ENDBRANCH 20 23
ENDBRANCH 16 17
ENDBRANCH 12 16
ENDBRANCH 9 12
ENDBRANCH 4 8
BRANCH 1 25
ATOM     25  CA  TYR B3001      14.069  22.874  28.548  0.70 43.08 LIG 0.28  C 
BRANCH 25 26
ATOM     26  CB  TYR B3001      15.164  23.942  28.345  0.70 40.59 LIG 0.08  C 
BRANCH 26 27
ATOM     27  CG  TYR B3001      15.189  25.007  29.433  0.70 39.24 LIG-0.06  A 
ATOM     28  CD1 TYR B3001      14.047  25.752  29.736  0.70 40.30 LIG 0.01  A 
ATOM     29  CE1 TYR B3001      14.084  26.795  30.690  0.70 38.36 LIG 0.04  A 
ATOM     30  CZ  TYR B3001      15.275  27.089  31.348  0.70 37.05 LIG 0.07  A 
ATOM     31  CE2 TYR B3001      16.420  26.351  31.067  0.70 37.49 LIG 0.04  A 
ATOM     32  CD2 TYR B3001      16.371  25.316  30.114  0.70 38.19 LIG 0.01  A 
BRANCH 30 33
ATOM     33 OH   TYR B3001      15.333  28.123  32.260  0.70 32.30 LIG-0.36  OA
ATOM     34 HH   TYR B3001      15.449  27.811  33.031  0.70 32.30 LIG 0.22  HD
ENDBRANCH 30 33
ENDBRANCH 26 27
ENDBRANCH 25 26
BRANCH 25 35
ATOM     35  N   TYR B3001      14.281  21.744  27.595  0.70 42.81 LIG-0.07  N 
ATOM     36 H3   TYR B3001      14.810  21.134  27.970  0.70 42.81 LIG 0.28  HD
ATOM     37 H2   TYR B3001      14.661  22.049  26.851  0.70 42.81 LIG 0.28  HD
ATOM     38 H1   TYR B3001      13.497  21.372  27.396  0.70 42.81 LIG 0.28  HD
ENDBRANCH 25 35
ENDBRANCH 1 25
TORSDOF 11
ENDMDL
MODEL 61
USER: ADFR SOLUTION from run 32
USER: SCORE 11.721189 LL:  -2.542 LR:  -9.179 RR:   0.000 FEB:  -5.898
USER: RMSD 10.706162
USER: SEED 31
USER: STATUS no improvement in best 8 clusters for 5 generations
USER: GENES 13
USER: genes 0 Translation |==|  0.45000 0.33746 0.51280
USER: genes 1 Rotation |==|  0.65318 0.72270 0.91242 0.58280
USER: genes 2 Torsion [N]-CA--C-[O] |==|  0.39798
USER: genes 3 Torsion [C]-N--CA-[C] |==|  0.54444
USER: genes 4 Torsion [N]-CA--C-[OXT] |==|  0.27444
USER: genes 5 Torsion [N]-CA--CB-[CG] |==|  0.66111
USER: genes 6 Torsion [CA]-CB--CG-[CD2] |==|  0.77529
USER: genes 7 Torsion [CE2]-CZ--OH-[HH] |==|  0.59774
USER: genes 8 Torsion [N]-C--CA-[N] |==|  0.34075
USER: genes 9 Torsion [C]-CA--CB-[CG] |==|  0.86816
USER: genes 10 Torsion [CA]-CB--CG-[CD1] |==|  0.30996
USER: genes 11 Torsion [CE1]-CZ--OH-[HH] |==|  0.55847
USER: genes 12 Torsion [C]-CA--N-[H2] |==|  0.74660
ROOT
ATOM      1  C   TYR B3001      12.560  28.634  28.354  0.70 44.28 LIG 0.25  C 
ATOM      2 O    TYR B3001      12.983  27.761  27.595  0.70 44.11 LIG-0.27  OA
ATOM      3  N   PRO B3002      13.073  29.884  28.381  0.70 46.07 LIG-0.34  N 
ATOM      4  CA  PRO B3002      14.131  30.463  27.542  0.70 46.91 LIG 0.18  C 
ATOM      5  CB  PRO B3002      14.336  31.849  28.154  0.70 46.92 LIG 0.04  C 
ATOM      6  CG  PRO B3002      14.049  31.615  29.584  0.70 47.16 LIG 0.02  C 
ATOM      7  CD  PRO B3002      12.781  30.795  29.504  0.70 47.04 LIG 0.13  C 
ENDROOT
BRANCH 4 8
ATOM      8  C   PRO B3002      15.462  29.745  27.381  0.70 47.26 LIG 0.24  C 
ATOM      9  N   TYR B3003      15.864  29.066  28.456  0.70 47.47 LIG-0.34  N 
ATOM     10 H    TYR B3003      15.421  29.064  29.194  0.70 47.47 LIG 0.16  HD
ATOM     11 O    PRO B3002      16.061  29.760  26.294  0.70 46.37 LIG-0.27  OA
BRANCH 9 12
ATOM     12  CA  TYR B3003      17.080  28.260  28.515  0.70 47.51 LIG 0.19  C 
BRANCH 12 13
ATOM     13  C   TYR B3003      17.139  27.289  29.684  0.70 47.80 LIG 0.20  C 
ATOM     14 OXT  TYR B3003      16.835  26.099  29.464  0.70 46.55 LIG-0.65  OA
ATOM     15 O    TYR B3003      17.454  27.726  30.812  0.70 50.35 LIG-0.65  OA
ENDBRANCH 12 13
BRANCH 12 16
ATOM     16  CB  TYR B3003      18.310  29.175  28.511  0.70 48.13 LIG 0.07  C 
BRANCH 16 17
ATOM     17  CG  TYR B3003      19.279  28.927  27.377  0.70 49.00 LIG-0.06  A 
ATOM     18  CD2 TYR B3003      20.215  27.887  27.441  0.70 49.34 LIG 0.01  A 
ATOM     19  CE2 TYR B3003      21.112  27.665  26.396  0.70 49.34 LIG 0.04  A 
ATOM     20  CZ  TYR B3003      21.072  28.486  25.273  0.70 49.55 LIG 0.07  A 
ATOM     21  CE1 TYR B3003      20.156  29.519  25.190  0.70 48.63 LIG 0.04  A 
ATOM     22  CD1 TYR B3003      19.266  29.734  26.239  0.70 49.33 LIG 0.01  A 
BRANCH 20 23
ATOM     23 OH   TYR B3003      21.935  28.260  24.220  0.70 50.92 LIG-0.36  OA
ATOM     24 HH   TYR B3003      22.161  28.994  23.880  0.70 50.92 LIG 0.22  HD
ENDBRANCH 20 23
ENDBRANCH 16 17
ENDBRANCH 12 16
ENDBRANCH 9 12
ENDBRANCH 4 8
BRANCH 1 25
ATOM     25  CA  TYR B3001      11.440  28.331  29.350  0.70 43.08 LIG 0.28  C 
BRANCH 25 26
ATOM     26  CB  TYR B3001      11.841  27.201  30.320  0.70 40.59 LIG 0.08  C 
BRANCH 26 27
ATOM     27  CG  TYR B3001      12.448  25.988  29.628  0.70 39.24 LIG-0.06  A 
ATOM     28  CD1 TYR B3001      13.798  25.665  29.796  0.70 40.30 LIG 0.01  A 
ATOM     29  CE1 TYR B3001      14.386  24.587  29.096  0.70 38.36 LIG 0.04  A 
ATOM     30  CZ  TYR B3001      13.613  23.823  28.226  0.70 37.05 LIG 0.07  A 
ATOM     31  CE2 TYR B3001      12.266  24.122  28.054  0.70 37.49 LIG 0.04  A 
ATOM     32  CD2 TYR B3001      11.692  25.200  28.755  0.70 38.19 LIG 0.01  A 
BRANCH 30 33
ATOM     33 OH   TYR B3001      14.181  22.786  27.513  0.70 32.30 LIG-0.36  OA
ATOM     34 HH   TYR B3001      13.704  22.611  26.845  0.70 32.30 LIG 0.22  HD
ENDBRANCH 30 33
ENDBRANCH 26 27
ENDBRANCH 25 26
BRANCH 25 35
ATOM     35  N   TYR B3001      10.300  27.885  28.495  0.70 42.81 LIG-0.07  N 
ATOM     36 H3   TYR B3001      10.615  27.508  27.753  0.70 42.81 LIG 0.28  HD
ATOM     37 H2   TYR B3001       9.797  28.587  28.281  0.70 42.81 LIG 0.28  HD
ATOM     38 H1   TYR B3001       9.808  27.293  28.942  0.70 42.81 LIG 0.28  HD
ENDBRANCH 25 35
ENDBRANCH 1 25
TORSDOF 11
ENDMDL
MODEL 62
USER: ADFR SOLUTION from run 119
USER: SCORE 11.508396 LL:  -2.342 LR:  -9.166 RR:   0.000 FEB:  -5.885
USER: RMSD 12.287099
USER: SEED 118
USER: STATUS no improvement in best 38 clusters for 5 generations
USER: GENES 13
USER: genes 0 Translation |==|  0.43574 0.10009 0.53877
USER: genes 1 Rotation |==|  0.28670 0.35554 0.53174 0.92735
USER: genes 2 Torsion [N]-CA--C-[O] |==|  0.92592
USER: genes 3 Torsion [C]-N--CA-[C] |==|  0.50117
USER: genes 4 Torsion [N]-CA--C-[OXT] |==|  0.46926
USER: genes 5 Torsion [N]-CA--CB-[CG] |==|  0.71400
USER: genes 6 Torsion [CA]-CB--CG-[CD2] |==|  0.85556
USER: genes 7 Torsion [CE2]-CZ--OH-[HH] |==|  0.88508
USER: genes 8 Torsion [N]-C--CA-[N] |==|  0.44824
USER: genes 9 Torsion [C]-CA--CB-[CG] |==|  0.34342
USER: genes 10 Torsion [CA]-CB--CG-[CD1] |==|  0.11899
USER: genes 11 Torsion [CE1]-CZ--OH-[HH] |==|  0.89435
USER: genes 12 Torsion [C]-CA--N-[H2] |==|  0.42538
ROOT
ATOM      1  C   TYR B3001      12.132  21.513  29.133  0.70 44.28 LIG 0.25  C 
ATOM      2 O    TYR B3001      11.553  20.625  28.505  0.70 44.11 LIG-0.27  OA
ATOM      3  N   PRO B3002      11.668  21.992  30.308  0.70 46.07 LIG-0.34  N 
ATOM      4  CA  PRO B3002      10.490  21.564  31.076  0.70 46.91 LIG 0.18  C 
ATOM      5  CB  PRO B3002      10.439  22.576  32.221  0.70 46.92 LIG 0.04  C 
ATOM      6  CG  PRO B3002      10.977  23.800  31.592  0.70 47.16 LIG 0.02  C 
ATOM      7  CD  PRO B3002      12.185  23.256  30.865  0.70 47.04 LIG 0.13  C 
ENDROOT
BRANCH 4 8
ATOM      8  C   PRO B3002       9.133  21.449  30.400  0.70 47.26 LIG 0.24  C 
ATOM      9  N   TYR B3003       8.276  20.624  31.004  0.70 47.47 LIG-0.34  N 
ATOM     10 H    TYR B3003       8.487  20.168  31.702  0.70 47.47 LIG 0.16  HD
ATOM     11 O    PRO B3002       8.864  22.139  29.404  0.70 46.37 LIG-0.27  OA
BRANCH 9 12
ATOM     12  CA  TYR B3003       6.902  20.398  30.564  0.70 47.51 LIG 0.19  C 
BRANCH 12 13
ATOM     13  C   TYR B3003       6.117  19.419  31.422  0.70 47.80 LIG 0.20  C 
ATOM     14 OXT  TYR B3003       4.886  19.340  31.234  0.70 46.55 LIG-0.65  OA
ATOM     15 O    TYR B3003       6.727  18.764  32.296  0.70 50.35 LIG-0.65  OA
ENDBRANCH 12 13
BRANCH 12 16
ATOM     16  CB  TYR B3003       6.892  19.958  29.096  0.70 48.13 LIG 0.07  C 
BRANCH 16 17
ATOM     17  CG  TYR B3003       6.493  21.037  28.115  0.70 49.00 LIG-0.06  A 
ATOM     18  CD2 TYR B3003       5.313  21.770  28.288  0.70 49.34 LIG 0.01  A 
ATOM     19  CE2 TYR B3003       4.944  22.760  27.377  0.70 49.34 LIG 0.04  A 
ATOM     20  CZ  TYR B3003       5.764  23.025  26.285  0.70 49.55 LIG 0.07  A 
ATOM     21  CE1 TYR B3003       6.935  22.313  26.095  0.70 48.63 LIG 0.04  A 
ATOM     22  CD1 TYR B3003       7.293  21.325  27.008  0.70 49.33 LIG 0.01  A 
BRANCH 20 23
ATOM     23 OH   TYR B3003       5.426  24.022  25.391  0.70 50.92 LIG-0.36  OA
ATOM     24 HH   TYR B3003       4.601  23.994  25.239  0.70 50.92 LIG 0.22  HD
ENDBRANCH 20 23
ENDBRANCH 16 17
ENDBRANCH 12 16
ENDBRANCH 9 12
ENDBRANCH 4 8
BRANCH 1 25
ATOM     25  CA  TYR B3001      13.407  22.157  28.586  0.70 43.08 LIG 0.28  C 
BRANCH 25 26
ATOM     26  CB  TYR B3001      13.101  23.494  27.880  0.70 40.59 LIG 0.08  C 
BRANCH 26 27
ATOM     27  CG  TYR B3001      13.876  24.676  28.445  0.70 39.24 LIG-0.06  A 
ATOM     28  CD1 TYR B3001      15.231  24.561  28.765  0.70 40.30 LIG 0.01  A 
ATOM     29  CE1 TYR B3001      15.938  25.631  29.363  0.70 38.36 LIG 0.04  A 
ATOM     30  CZ  TYR B3001      15.279  26.826  29.636  0.70 37.05 LIG 0.07  A 
ATOM     31  CE2 TYR B3001      13.933  26.963  29.315  0.70 37.49 LIG 0.04  A 
ATOM     32  CD2 TYR B3001      13.241  25.891  28.722  0.70 38.19 LIG 0.01  A 
BRANCH 30 33
ATOM     33 OH   TYR B3001      15.948  27.868  30.246  0.70 32.30 LIG-0.36  OA
ATOM     34 HH   TYR B3001      16.472  27.564  30.827  0.70 32.30 LIG 0.22  HD
ENDBRANCH 30 33
ENDBRANCH 26 27
ENDBRANCH 25 26
BRANCH 25 35
ATOM     35  N   TYR B3001      13.922  21.166  27.595  0.70 42.81 LIG-0.07  N 
ATOM     36 H3   TYR B3001      14.435  20.569  28.010  0.70 42.81 LIG 0.28  HD
ATOM     37 H2   TYR B3001      14.400  21.587  26.975  0.70 42.81 LIG 0.28  HD
ATOM     38 H1   TYR B3001      13.237  20.749  27.208  0.70 42.81 LIG 0.28  HD
ENDBRANCH 25 35
ENDBRANCH 1 25
TORSDOF 11
ENDMDL
MODEL 63
USER: ADFR SOLUTION from run 134
USER: SCORE 10.927697 LL:  -1.771 LR:  -9.157 RR:   0.000 FEB:  -5.876
USER: RMSD 15.194265
USER: SEED 133
USER: STATUS no improvement in best 24 clusters for 5 generations
USER: GENES 13
USER: genes 0 Translation |==|  0.86964 0.16632 0.39509
USER: genes 1 Rotation |==|  0.70761 0.44820 0.17162 0.81045
USER: genes 2 Torsion [N]-CA--C-[O] |==|  0.79413
USER: genes 3 Torsion [C]-N--CA-[C] |==|  0.54406
USER: genes 4 Torsion [N]-CA--C-[OXT] |==|  0.45502
USER: genes 5 Torsion [N]-CA--CB-[CG] |==|  0.74469
USER: genes 6 Torsion [CA]-CB--CG-[CD2] |==|  0.33836
USER: genes 7 Torsion [CE2]-CZ--OH-[HH] |==|  0.40322
USER: genes 8 Torsion [N]-C--CA-[N] |==|  0.80826
USER: genes 9 Torsion [C]-CA--CB-[CG] |==|  0.27213
USER: genes 10 Torsion [CA]-CB--CG-[CD1] |==|  0.27752
USER: genes 11 Torsion [CE1]-CZ--OH-[HH] |==|  0.15543
USER: genes 12 Torsion [C]-CA--N-[H2] |==|  0.99622
ROOT
ATOM      1  C   TYR B3001      25.149  23.500  24.823  0.70 44.28 LIG 0.25  C 
ATOM      2 O    TYR B3001      25.311  24.720  24.791  0.70 44.11 LIG-0.27  OA
ATOM      3  N   PRO B3002      23.934  22.931  24.985  0.70 46.07 LIG-0.34  N 
ATOM      4  CA  PRO B3002      22.621  23.582  25.097  0.70 46.91 LIG 0.18  C 
ATOM      5  CB  PRO B3002      21.681  22.413  25.396  0.70 46.92 LIG 0.04  C 
ATOM      6  CG  PRO B3002      22.543  21.499  26.172  0.70 47.16 LIG 0.02  C 
ATOM      7  CD  PRO B3002      23.809  21.506  25.345  0.70 47.04 LIG 0.13  C 
ENDROOT
BRANCH 4 8
ATOM      8  C   PRO B3002      22.407  24.711  26.094  0.70 47.26 LIG 0.24  C 
ATOM      9  N   TYR B3003      22.256  25.918  25.546  0.70 47.47 LIG-0.34  N 
ATOM     10 H    TYR B3003      22.310  26.051  24.697  0.70 47.47 LIG 0.16  HD
ATOM     11 O    PRO B3002      22.318  24.473  27.308  0.70 46.37 LIG-0.27  OA
BRANCH 9 12
ATOM     12  CA  TYR B3003      21.987  27.138  26.302  0.70 47.51 LIG 0.19  C 
BRANCH 12 13
ATOM     13  C   TYR B3003      21.485  28.304  25.464  0.70 47.80 LIG 0.20  C 
ATOM     14 OXT  TYR B3003      20.949  29.258  26.061  0.70 46.55 LIG-0.65  OA
ATOM     15 O    TYR B3003      21.599  28.241  24.220  0.70 50.35 LIG-0.65  OA
ENDBRANCH 12 13
BRANCH 12 16
ATOM     16  CB  TYR B3003      23.235  27.542  27.096  0.70 48.13 LIG 0.07  C 
BRANCH 16 17
ATOM     17  CG  TYR B3003      23.295  26.991  28.502  0.70 49.00 LIG-0.06  A 
ATOM     18  CD2 TYR B3003      24.365  26.191  28.920  0.70 49.34 LIG 0.01  A 
ATOM     19  CE2 TYR B3003      24.414  25.679  30.216  0.70 49.34 LIG 0.04  A 
ATOM     20  CZ  TYR B3003      23.386  25.972  31.108  0.70 49.55 LIG 0.07  A 
ATOM     21  CE1 TYR B3003      22.319  26.760  30.715  0.70 48.63 LIG 0.04  A 
ATOM     22  CD1 TYR B3003      22.278  27.265  29.419  0.70 49.33 LIG 0.01  A 
BRANCH 20 23
ATOM     23 OH   TYR B3003      23.435  25.495  32.402  0.70 50.92 LIG-0.36  OA
ATOM     24 HH   TYR B3003      23.096  26.061  32.923  0.70 50.92 LIG 0.22  HD
ENDBRANCH 20 23
ENDBRANCH 16 17
ENDBRANCH 12 16
ENDBRANCH 9 12
ENDBRANCH 4 8
BRANCH 1 25
ATOM     25  CA  TYR B3001      26.342  22.548  24.718  0.70 43.08 LIG 0.28  C 
BRANCH 25 26
ATOM     26  CB  TYR B3001      26.076  21.427  23.691  0.70 40.59 LIG 0.08  C 
BRANCH 26 27
ATOM     27  CG  TYR B3001      26.685  21.694  22.322  0.70 39.24 LIG-0.06  A 
ATOM     28  CD1 TYR B3001      27.890  21.097  21.942  0.70 40.30 LIG 0.01  A 
ATOM     29  CE1 TYR B3001      28.501  21.401  20.703  0.70 38.36 LIG 0.04  A 
ATOM     30  CZ  TYR B3001      27.894  22.306  19.837  0.70 37.05 LIG 0.07  A 
ATOM     31  CE2 TYR B3001      26.689  22.902  20.193  0.70 37.49 LIG 0.04  A 
ATOM     32  CD2 TYR B3001      26.092  22.593  21.430  0.70 38.19 LIG 0.01  A 
BRANCH 30 33
ATOM     33 OH   TYR B3001      28.493  22.635  18.638  0.70 32.30 LIG-0.36  OA
ATOM     34 HH   TYR B3001      28.634  21.936  18.194  0.70 32.30 LIG 0.22  HD
ENDBRANCH 30 33
ENDBRANCH 26 27
ENDBRANCH 25 26
BRANCH 25 35
ATOM     35  N   TYR B3001      26.465  21.963  26.086  0.70 42.81 LIG-0.07  N 
ATOM     36 H3   TYR B3001      26.352  21.081  26.044  0.70 42.81 LIG 0.28  HD
ATOM     37 H2   TYR B3001      25.845  22.316  26.617  0.70 42.81 LIG 0.28  HD
ATOM     38 H1   TYR B3001      27.273  22.142  26.414  0.70 42.81 LIG 0.28  HD
ENDBRANCH 25 35
ENDBRANCH 1 25
TORSDOF 11
ENDMDL
MODEL 64
USER: ADFR SOLUTION from run 147
USER: SCORE 11.362195 LL:  -2.227 LR:  -9.135 RR:   0.000 FEB:  -5.854
USER: RMSD 11.647179
USER: SEED 146
USER: STATUS no improvement in best 31 clusters for 5 generations
USER: GENES 13
USER: genes 0 Translation |==|  0.43991 0.13519 0.50526
USER: genes 1 Rotation |==|  0.65495 0.41506 0.28040 0.91298
USER: genes 2 Torsion [N]-CA--C-[O] |==|  0.15484
USER: genes 3 Torsion [C]-N--CA-[C] |==|  0.60390
USER: genes 4 Torsion [N]-CA--C-[OXT] |==|  0.97992
USER: genes 5 Torsion [N]-CA--CB-[CG] |==|  0.84577
USER: genes 6 Torsion [CA]-CB--CG-[CD2] |==|  0.79020
USER: genes 7 Torsion [CE2]-CZ--OH-[HH] |==|  0.26559
USER: genes 8 Torsion [N]-C--CA-[N] |==|  0.18144
USER: genes 9 Torsion [C]-CA--CB-[CG] |==|  0.22971
USER: genes 10 Torsion [CA]-CB--CG-[CD1] |==|  0.34774
USER: genes 11 Torsion [CE1]-CZ--OH-[HH] |==|  0.12710
USER: genes 12 Torsion [C]-CA--N-[H2] |==|  0.31461
ROOT
ATOM      1  C   TYR B3001      12.257  22.566  28.128  0.70 44.28 LIG 0.25  C 
ATOM      2 O    TYR B3001      11.893  23.603  27.572  0.70 44.11 LIG-0.27  OA
ATOM      3  N   PRO B3002      11.386  21.621  28.546  0.70 46.07 LIG-0.34  N 
ATOM      4  CA  PRO B3002       9.924  21.586  28.397  0.70 46.91 LIG 0.18  C 
ATOM      5  CB  PRO B3002       9.527  20.340  29.189  0.70 46.92 LIG 0.04  C 
ATOM      6  CG  PRO B3002      10.540  20.306  30.263  0.70 47.16 LIG 0.02  C 
ATOM      7  CD  PRO B3002      11.810  20.566  29.485  0.70 47.04 LIG 0.13  C 
ENDROOT
BRANCH 4 8
ATOM      8  C   PRO B3002       9.082  22.781  28.816  0.70 47.26 LIG 0.24  C 
ATOM      9  N   TYR B3003       8.170  22.519  29.754  0.70 47.47 LIG-0.34  N 
ATOM     10 H    TYR B3003       8.046  21.729  30.071  0.70 47.47 LIG 0.16  HD
ATOM     11 O    PRO B3002       9.305  23.907  28.345  0.70 46.37 LIG-0.27  OA
BRANCH 9 12
ATOM     12  CA  TYR B3003       7.287  23.520  30.346  0.70 47.51 LIG 0.19  C 
BRANCH 12 13
ATOM     13  C   TYR B3003       7.020  23.329  31.831  0.70 47.80 LIG 0.20  C 
ATOM     14 OXT  TYR B3003       7.449  22.287  32.367  0.70 46.55 LIG-0.65  OA
ATOM     15 O    TYR B3003       6.358  24.199  32.438  0.70 50.35 LIG-0.65  OA
ENDBRANCH 12 13
BRANCH 12 16
ATOM     16  CB  TYR B3003       5.970  23.578  29.563  0.70 48.13 LIG 0.07  C 
BRANCH 16 17
ATOM     17  CG  TYR B3003       6.125  23.836  28.082  0.70 49.00 LIG-0.06  A 
ATOM     18  CD2 TYR B3003       6.433  25.114  27.600  0.70 49.34 LIG 0.01  A 
ATOM     19  CE2 TYR B3003       6.569  25.350  26.231  0.70 49.34 LIG 0.04  A 
ATOM     20  CZ  TYR B3003       6.401  24.300  25.335  0.70 49.55 LIG 0.07  A 
ATOM     21  CE1 TYR B3003       6.096  23.029  25.790  0.70 48.63 LIG 0.04  A 
ATOM     22  CD1 TYR B3003       5.960  22.803  27.157  0.70 49.33 LIG 0.01  A 
BRANCH 20 23
ATOM     23 OH   TYR B3003       6.560  24.513  23.981  0.70 50.92 LIG-0.36  OA
ATOM     24 HH   TYR B3003       7.342  24.306  23.754  0.70 50.92 LIG 0.22  HD
ENDBRANCH 20 23
ENDBRANCH 16 17
ENDBRANCH 12 16
ENDBRANCH 9 12
ENDBRANCH 4 8
BRANCH 1 25
ATOM     25  CA  TYR B3001      13.737  22.308  28.415  0.70 43.08 LIG 0.28  C 
BRANCH 25 26
ATOM     26  CB  TYR B3001      14.610  23.499  27.970  0.70 40.59 LIG 0.08  C 
BRANCH 26 27
ATOM     27  CG  TYR B3001      14.669  24.630  28.988  0.70 39.24 LIG-0.06  A 
ATOM     28  CD1 TYR B3001      15.894  25.104  29.466  0.70 40.30 LIG 0.01  A 
ATOM     29  CE1 TYR B3001      15.954  26.100  30.468  0.70 38.36 LIG 0.04  A 
ATOM     30  CZ  TYR B3001      14.776  26.626  30.991  0.70 37.05 LIG 0.07  A 
ATOM     31  CE2 TYR B3001      13.548  26.175  30.520  0.70 37.49 LIG 0.04  A 
ATOM     32  CD2 TYR B3001      13.502  25.182  29.523  0.70 38.19 LIG 0.01  A 
BRANCH 30 33
ATOM     33 OH   TYR B3001      14.819  27.577  31.990  0.70 32.30 LIG-0.36  OA
ATOM     34 HH   TYR B3001      15.390  28.162  31.797  0.70 32.30 LIG 0.22  HD
ENDBRANCH 30 33
ENDBRANCH 26 27
ENDBRANCH 25 26
BRANCH 25 35
ATOM     35  N   TYR B3001      14.065  21.104  27.595  0.70 42.81 LIG-0.07  N 
ATOM     36 H3   TYR B3001      14.433  20.482  28.114  0.70 42.81 LIG 0.28  HD
ATOM     37 H2   TYR B3001      14.636  21.330  26.951  0.70 42.81 LIG 0.28  HD
ATOM     38 H1   TYR B3001      13.320  20.782  27.230  0.70 42.81 LIG 0.28  HD
ENDBRANCH 25 35
ENDBRANCH 1 25
TORSDOF 11
ENDMDL
MODEL 65
USER: ADFR SOLUTION from run 54
USER: SCORE 11.689111 LL:  -2.569 LR:  -9.120 RR:   0.000 FEB:  -5.839
USER: RMSD 12.143224
USER: SEED 53
USER: STATUS no improvement in best 26 clusters for 5 generations
USER: GENES 13
USER: genes 0 Translation |==|  0.42395 0.09509 0.51033
USER: genes 1 Rotation |==|  0.36218 0.26306 0.46733 0.91689
USER: genes 2 Torsion [N]-CA--C-[O] |==|  0.26162
USER: genes 3 Torsion [C]-N--CA-[C] |==|  0.55931
USER: genes 4 Torsion [N]-CA--C-[OXT] |==|  0.00601
USER: genes 5 Torsion [N]-CA--CB-[CG] |==|  0.09727
USER: genes 6 Torsion [CA]-CB--CG-[CD2] |==|  0.16376
USER: genes 7 Torsion [CE2]-CZ--OH-[HH] |==|  0.53550
USER: genes 8 Torsion [N]-C--CA-[N] |==|  0.44657
USER: genes 9 Torsion [C]-CA--CB-[CG] |==|  0.45666
USER: genes 10 Torsion [CA]-CB--CG-[CD1] |==|  0.51722
USER: genes 11 Torsion [CE1]-CZ--OH-[HH] |==|  0.64006
USER: genes 12 Torsion [C]-CA--N-[H2] |==|  0.65724
ROOT
ATOM      1  C   TYR B3001      11.779  21.363  28.280  0.70 44.28 LIG 0.25  C 
ATOM      2 O    TYR B3001      11.588  20.760  27.223  0.70 44.11 LIG-0.27  OA
ATOM      3  N   PRO B3002      10.840  21.446  29.249  0.70 46.07 LIG-0.34  N 
ATOM      4  CA  PRO B3002       9.501  20.840  29.288  0.70 46.91 LIG 0.18  C 
ATOM      5  CB  PRO B3002       8.900  21.417  30.570  0.70 46.92 LIG 0.04  C 
ATOM      6  CG  PRO B3002       9.521  22.754  30.643  0.70 47.16 LIG 0.02  C 
ATOM      7  CD  PRO B3002      10.966  22.430  30.340  0.70 47.04 LIG 0.13  C 
ENDROOT
BRANCH 4 8
ATOM      8  C   PRO B3002       8.545  21.016  28.119  0.70 47.26 LIG 0.24  C 
ATOM      9  N   TYR B3003       7.867  22.165  28.120  0.70 47.47 LIG-0.34  N 
ATOM     10 H    TYR B3003       7.941  22.745  28.752  0.70 47.47 LIG 0.16  HD
ATOM     11 O    PRO B3002       8.481  20.162  27.220  0.70 46.37 LIG-0.27  OA
BRANCH 9 12
ATOM     12  CA  TYR B3003       6.935  22.573  27.073  0.70 47.51 LIG 0.19  C 
BRANCH 12 13
ATOM     13  C   TYR B3003       6.677  24.070  27.004  0.70 47.80 LIG 0.20  C 
ATOM     14 OXT  TYR B3003       7.300  24.803  27.798  0.70 46.55 LIG-0.65  OA
ATOM     15 O    TYR B3003       5.834  24.496  26.184  0.70 50.35 LIG-0.65  OA
ENDBRANCH 12 13
BRANCH 12 16
ATOM     16  CB  TYR B3003       5.617  21.805  27.223  0.70 48.13 LIG 0.07  C 
BRANCH 16 17
ATOM     17  CG  TYR B3003       5.210  21.520  28.651  0.70 49.00 LIG-0.06  A 
ATOM     18  CD2 TYR B3003       5.010  22.560  29.566  0.70 49.34 LIG 0.01  A 
ATOM     19  CE2 TYR B3003       4.642  22.294  30.885  0.70 49.34 LIG 0.04  A 
ATOM     20  CZ  TYR B3003       4.466  20.976  31.294  0.70 49.55 LIG 0.07  A 
ATOM     21  CE1 TYR B3003       4.659  19.933  30.406  0.70 48.63 LIG 0.04  A 
ATOM     22  CD1 TYR B3003       5.029  20.208  29.092  0.70 49.33 LIG 0.01  A 
BRANCH 20 23
ATOM     23 OH   TYR B3003       4.074  20.698  32.588  0.70 50.92 LIG-0.36  OA
ATOM     24 HH   TYR B3003       4.176  19.879  32.743  0.70 50.92 LIG 0.22  HD
ENDBRANCH 20 23
ENDBRANCH 16 17
ENDBRANCH 12 16
ENDBRANCH 9 12
ENDBRANCH 4 8
BRANCH 1 25
ATOM     25  CA  TYR B3001      13.096  22.094  28.539  0.70 43.08 LIG 0.28  C 
BRANCH 25 26
ATOM     26  CB  TYR B3001      12.973  23.600  28.224  0.70 40.59 LIG 0.08  C 
BRANCH 26 27
ATOM     27  CG  TYR B3001      14.102  24.441  28.803  0.70 39.24 LIG-0.06  A 
ATOM     28  CD1 TYR B3001      14.074  25.836  28.720  0.70 40.30 LIG 0.01  A 
ATOM     29  CE1 TYR B3001      15.155  26.620  29.186  0.70 38.36 LIG 0.04  A 
ATOM     30  CZ  TYR B3001      16.269  25.999  29.744  0.70 37.05 LIG 0.07  A 
ATOM     31  CE2 TYR B3001      16.310  24.613  29.845  0.70 37.49 LIG 0.04  A 
ATOM     32  CD2 TYR B3001      15.229  23.843  29.376  0.70 38.19 LIG 0.01  A 
BRANCH 30 33
ATOM     33 OH   TYR B3001      17.344  26.749  30.176  0.70 32.30 LIG-0.36  OA
ATOM     34 HH   TYR B3001      18.053  26.437  29.852  0.70 32.30 LIG 0.22  HD
ENDBRANCH 30 33
ENDBRANCH 26 27
ENDBRANCH 25 26
BRANCH 25 35
ATOM     35  N   TYR B3001      14.061  21.456  27.595  0.70 42.81 LIG-0.07  N 
ATOM     36 H3   TYR B3001      13.658  20.792  27.161  0.70 42.81 LIG 0.28  HD
ATOM     37 H2   TYR B3001      14.754  21.134  28.051  0.70 42.81 LIG 0.28  HD
ATOM     38 H1   TYR B3001      14.348  22.061  27.009  0.70 42.81 LIG 0.28  HD
ENDBRANCH 25 35
ENDBRANCH 1 25
TORSDOF 11
ENDMDL
MODEL 66
USER: ADFR SOLUTION from run 26
USER: SCORE 11.266401 LL:  -2.158 LR:  -9.108 RR:   0.000 FEB:  -5.827
USER: RMSD 11.534319
USER: SEED 25
USER: STATUS no improvement in best 25 clusters for 5 generations
USER: GENES 13
USER: genes 0 Translation |==|  0.43877 0.22710 0.56902
USER: genes 1 Rotation |==|  0.37690 0.96790 0.39664 0.57233
USER: genes 2 Torsion [N]-CA--C-[O] |==|  0.71238
USER: genes 3 Torsion [C]-N--CA-[C] |==|  0.63608
USER: genes 4 Torsion [N]-CA--C-[OXT] |==|  0.65081
USER: genes 5 Torsion [N]-CA--CB-[CG] |==|  0.68354
USER: genes 6 Torsion [CA]-CB--CG-[CD2] |==|  0.84631
USER: genes 7 Torsion [CE2]-CZ--OH-[HH] |==|  0.21720
USER: genes 8 Torsion [N]-C--CA-[N] |==|  0.42431
USER: genes 9 Torsion [C]-CA--CB-[CG] |==|  0.47813
USER: genes 10 Torsion [CA]-CB--CG-[CD1] |==|  0.34044
USER: genes 11 Torsion [CE1]-CZ--OH-[HH] |==|  0.53805
USER: genes 12 Torsion [C]-CA--N-[H2] |==|  0.98602
ROOT
ATOM      1  C   TYR B3001      12.223  25.323  30.041  0.70 44.28 LIG 0.25  C 
ATOM      2 O    TYR B3001      12.960  25.943  30.809  0.70 44.11 LIG-0.27  OA
ATOM      3  N   PRO B3002      12.658  24.280  29.300  0.70 46.07 LIG-0.34  N 
ATOM      4  CA  PRO B3002      13.989  23.656  29.281  0.70 46.91 LIG 0.18  C 
ATOM      5  CB  PRO B3002      13.873  22.632  28.151  0.70 46.92 LIG 0.04  C 
ATOM      6  CG  PRO B3002      12.936  23.288  27.218  0.70 47.16 LIG 0.02  C 
ATOM      7  CD  PRO B3002      11.863  23.775  28.165  0.70 47.04 LIG 0.13  C 
ENDROOT
BRANCH 4 8
ATOM      8  C   PRO B3002      15.235  24.511  29.106  0.70 47.26 LIG 0.24  C 
ATOM      9  N   TYR B3003      15.648  25.129  30.214  0.70 47.47 LIG-0.34  N 
ATOM     10 H    TYR B3003      15.223  25.075  30.960  0.70 47.47 LIG 0.16  HD
ATOM     11 O    PRO B3002      15.827  24.548  28.016  0.70 46.37 LIG-0.27  OA
BRANCH 9 12
ATOM     12  CA  TYR B3003      16.847  25.957  30.296  0.70 47.51 LIG 0.19  C 
BRANCH 12 13
ATOM     13  C   TYR B3003      17.760  25.634  31.468  0.70 47.80 LIG 0.20  C 
ATOM     14 OXT  TYR B3003      18.070  26.567  32.236  0.70 46.55 LIG-0.65  OA
ATOM     15 O    TYR B3003      18.185  24.464  31.593  0.70 50.35 LIG-0.65  OA
ENDBRANCH 12 13
BRANCH 12 16
ATOM     16  CB  TYR B3003      16.455  27.439  30.310  0.70 48.13 LIG 0.07  C 
BRANCH 16 17
ATOM     17  CG  TYR B3003      16.896  28.222  29.094  0.70 49.00 LIG-0.06  A 
ATOM     18  CD2 TYR B3003      18.240  28.253  28.704  0.70 49.34 LIG 0.01  A 
ATOM     19  CE2 TYR B3003      18.645  28.982  27.585  0.70 49.34 LIG 0.04  A 
ATOM     20  CZ  TYR B3003      17.698  29.683  26.845  0.70 49.55 LIG 0.07  A 
ATOM     21  CE1 TYR B3003      16.364  29.666  27.214  0.70 48.63 LIG 0.04  A 
ATOM     22  CD1 TYR B3003      15.970  28.937  28.333  0.70 49.33 LIG 0.01  A 
BRANCH 20 23
ATOM     23 OH   TYR B3003      18.080  30.385  25.720  0.70 50.92 LIG-0.36  OA
ATOM     24 HH   TYR B3003      18.185  29.852  25.079  0.70 50.92 LIG 0.22  HD
ENDBRANCH 20 23
ENDBRANCH 16 17
ENDBRANCH 12 16
ENDBRANCH 9 12
ENDBRANCH 4 8
BRANCH 1 25
ATOM     25  CA  TYR B3001      10.762  25.735  29.851  0.70 43.08 LIG 0.28  C 
BRANCH 25 26
ATOM     26  CB  TYR B3001      10.614  26.771  28.718  0.70 40.59 LIG 0.08  C 
BRANCH 26 27
ATOM     27  CG  TYR B3001       9.169  27.078  28.354  0.70 39.24 LIG-0.06  A 
ATOM     28  CD1 TYR B3001       8.674  28.384  28.415  0.70 40.30 LIG 0.01  A 
ATOM     29  CE1 TYR B3001       7.313  28.666  28.154  0.70 38.36 LIG 0.04  A 
ATOM     30  CZ  TYR B3001       6.444  27.630  27.824  0.70 37.05 LIG 0.07  A 
ATOM     31  CE2 TYR B3001       6.920  26.325  27.749  0.70 37.49 LIG 0.04  A 
ATOM     32  CD2 TYR B3001       8.276  26.058  28.012  0.70 38.19 LIG 0.01  A 
BRANCH 30 33
ATOM     33 OH   TYR B3001       5.107  27.885  27.596  0.70 32.30 LIG-0.36  OA
ATOM     34 HH   TYR B3001       4.679  27.163  27.595  0.70 32.30 LIG 0.22  HD
ENDBRANCH 30 33
ENDBRANCH 26 27
ENDBRANCH 25 26
BRANCH 25 35
ATOM     35  N   TYR B3001      10.384  26.353  31.157  0.70 42.81 LIG-0.07  N 
ATOM     36 H3   TYR B3001      10.207  27.217  31.036  0.70 42.81 LIG 0.28  HD
ATOM     37 H2   TYR B3001      11.056  26.266  31.733  0.70 42.81 LIG 0.28  HD
ATOM     38 H1   TYR B3001       9.662  25.946  31.480  0.70 42.81 LIG 0.28  HD
ENDBRANCH 25 35
ENDBRANCH 1 25
TORSDOF 11
ENDMDL
MODEL 67
USER: ADFR SOLUTION from run 44
USER: SCORE 11.468154 LL:  -2.354 LR:  -9.114 RR:   0.000 FEB:  -5.833
USER: RMSD 10.036558
USER: SEED 43
USER: STATUS no improvement in best 30 clusters for 5 generations
USER: GENES 13
USER: genes 0 Translation |==|  0.45339 0.33062 0.52033
USER: genes 1 Rotation |==|  0.50742 0.75605 0.92775 0.53752
USER: genes 2 Torsion [N]-CA--C-[O] |==|  0.71661
USER: genes 3 Torsion [C]-N--CA-[C] |==|  0.74782
USER: genes 4 Torsion [N]-CA--C-[OXT] |==|  0.87086
USER: genes 5 Torsion [N]-CA--CB-[CG] |==|  0.70625
USER: genes 6 Torsion [CA]-CB--CG-[CD2] |==|  0.33311
USER: genes 7 Torsion [CE2]-CZ--OH-[HH] |==|  0.30099
USER: genes 8 Torsion [N]-C--CA-[N] |==|  0.28213
USER: genes 9 Torsion [C]-CA--CB-[CG] |==|  0.82282
USER: genes 10 Torsion [CA]-CB--CG-[CD1] |==|  0.79491
USER: genes 11 Torsion [CE1]-CZ--OH-[HH] |==|  0.11646
USER: genes 12 Torsion [C]-CA--N-[H2] |==|  0.05279
ROOT
ATOM      1  C   TYR B3001      12.662  28.428  28.580  0.70 44.28 LIG 0.25  C 
ATOM      2 O    TYR B3001      13.675  27.830  28.217  0.70 44.11 LIG-0.27  OA
ATOM      3  N   PRO B3002      12.553  29.775  28.522  0.70 46.07 LIG-0.34  N 
ATOM      4  CA  PRO B3002      13.517  30.755  28.004  0.70 46.91 LIG 0.18  C 
ATOM      5  CB  PRO B3002      12.863  32.094  28.345  0.70 46.92 LIG 0.04  C 
ATOM      6  CG  PRO B3002      12.146  31.792  29.600  0.70 47.16 LIG 0.02  C 
ATOM      7  CD  PRO B3002      11.483  30.477  29.256  0.70 47.04 LIG 0.13  C 
ENDROOT
BRANCH 4 8
ATOM      8  C   PRO B3002      14.964  30.729  28.471  0.70 47.26 LIG 0.24  C 
ATOM      9  N   TYR B3003      15.734  29.831  27.853  0.70 47.47 LIG-0.34  N 
ATOM     10 H    TYR B3003      15.427  29.288  27.261  0.70 47.47 LIG 0.16  HD
ATOM     11 O    PRO B3002      15.370  31.542  29.316  0.70 46.37 LIG-0.27  OA
BRANCH 9 12
ATOM     12  CA  TYR B3003      17.164  29.664  28.100  0.70 47.51 LIG 0.19  C 
BRANCH 12 13
ATOM     13  C   TYR B3003      18.063  30.500  27.202  0.70 47.80 LIG 0.20  C 
ATOM     14 OXT  TYR B3003      17.814  30.508  25.980  0.70 46.55 LIG-0.65  OA
ATOM     15 O    TYR B3003      19.024  31.110  27.718  0.70 50.35 LIG-0.65  OA
ENDBRANCH 12 13
BRANCH 12 16
ATOM     16  CB  TYR B3003      17.536  28.180  28.006  0.70 48.13 LIG 0.07  C 
BRANCH 16 17
ATOM     17  CG  TYR B3003      17.805  27.510  29.334  0.70 49.00 LIG-0.06  A 
ATOM     18  CD2 TYR B3003      17.040  26.417  29.760  0.70 49.34 LIG 0.01  A 
ATOM     19  CE2 TYR B3003      17.287  25.806  30.990  0.70 49.34 LIG 0.04  A 
ATOM     20  CZ  TYR B3003      18.311  26.286  31.800  0.70 49.55 LIG 0.07  A 
ATOM     21  CE1 TYR B3003      19.078  27.365  31.398  0.70 48.63 LIG 0.04  A 
ATOM     22  CD1 TYR B3003      18.823  27.970  30.171  0.70 49.33 LIG 0.01  A 
BRANCH 20 23
ATOM     23 OH   TYR B3003      18.584  25.673  33.006  0.70 50.92 LIG-0.36  OA
ATOM     24 HH   TYR B3003      19.310  25.254  32.950  0.70 50.92 LIG 0.22  HD
ENDBRANCH 20 23
ENDBRANCH 16 17
ENDBRANCH 12 16
ENDBRANCH 9 12
ENDBRANCH 4 8
BRANCH 1 25
ATOM     25  CA  TYR B3001      11.469  27.669  29.162  0.70 43.08 LIG 0.28  C 
BRANCH 25 26
ATOM     26  CB  TYR B3001      11.931  26.503  30.060  0.70 40.59 LIG 0.08  C 
BRANCH 26 27
ATOM     27  CG  TYR B3001      12.703  25.424  29.314  0.70 39.24 LIG-0.06  A 
ATOM     28  CD1 TYR B3001      12.048  24.530  28.462  0.70 40.30 LIG 0.01  A 
ATOM     29  CE1 TYR B3001      12.747  23.478  27.827  0.70 38.36 LIG 0.04  A 
ATOM     30  CZ  TYR B3001      14.113  23.324  28.044  0.70 37.05 LIG 0.07  A 
ATOM     31  CE2 TYR B3001      14.784  24.210  28.881  0.70 37.49 LIG 0.04  A 
ATOM     32  CD2 TYR B3001      14.077  25.253  29.508  0.70 38.19 LIG 0.01  A 
BRANCH 30 33
ATOM     33 OH   TYR B3001      14.802  22.284  27.455  0.70 32.30 LIG-0.36  OA
ATOM     34 HH   TYR B3001      14.546  22.192  26.660  0.70 32.30 LIG 0.22  HD
ENDBRANCH 30 33
ENDBRANCH 26 27
ENDBRANCH 25 26
BRANCH 25 35
ATOM     35  N   TYR B3001      10.755  27.135  27.964  0.70 42.81 LIG-0.07  N 
ATOM     36 H3   TYR B3001      10.482  26.304  28.127  0.70 42.81 LIG 0.28  HD
ATOM     37 H2   TYR B3001      11.305  27.135  27.266  0.70 42.81 LIG 0.28  HD
ATOM     38 H1   TYR B3001      10.049  27.648  27.786  0.70 42.81 LIG 0.28  HD
ENDBRANCH 25 35
ENDBRANCH 1 25
TORSDOF 11
ENDMDL
MODEL 68
USER: ADFR SOLUTION from run 59
USER: SCORE 11.141398 LL:  -2.045 LR:  -9.096 RR:   0.000 FEB:  -5.815
USER: RMSD 12.665194
USER: SEED 58
USER: STATUS no improvement in best 21 clusters for 5 generations
USER: GENES 13
USER: genes 0 Translation |==|  0.40235 0.12735 0.59188
USER: genes 1 Rotation |==|  0.14434 0.84819 0.45561 0.51742
USER: genes 2 Torsion [N]-CA--C-[O] |==|  0.69195
USER: genes 3 Torsion [C]-N--CA-[C] |==|  0.13907
USER: genes 4 Torsion [N]-CA--C-[OXT] |==|  0.77328
USER: genes 5 Torsion [N]-CA--CB-[CG] |==|  0.48585
USER: genes 6 Torsion [CA]-CB--CG-[CD2] |==|  0.10168
USER: genes 7 Torsion [CE2]-CZ--OH-[HH] |==|  0.07561
USER: genes 8 Torsion [N]-C--CA-[N] |==|  0.32055
USER: genes 9 Torsion [C]-CA--CB-[CG] |==|  0.23131
USER: genes 10 Torsion [CA]-CB--CG-[CD1] |==|  0.11747
USER: genes 11 Torsion [CE1]-CZ--OH-[HH] |==|  0.76689
USER: genes 12 Torsion [C]-CA--N-[H2] |==|  0.68612
ROOT
ATOM      1  C   TYR B3001      11.130  22.331  30.726  0.70 44.28 LIG 0.25  C 
ATOM      2 O    TYR B3001      11.165  23.444  31.251  0.70 44.11 LIG-0.27  OA
ATOM      3  N   PRO B3002      11.986  21.962  29.748  0.70 46.07 LIG-0.34  N 
ATOM      4  CA  PRO B3002      13.103  22.721  29.167  0.70 46.91 LIG 0.18  C 
ATOM      5  CB  PRO B3002      13.581  21.815  28.031  0.70 46.92 LIG 0.04  C 
ATOM      6  CG  PRO B3002      12.331  21.161  27.595  0.70 47.16 LIG 0.02  C 
ATOM      7  CD  PRO B3002      11.719  20.770  28.921  0.70 47.04 LIG 0.13  C 
ENDROOT
BRANCH 4 8
ATOM      8  C   PRO B3002      12.888  24.141  28.668  0.70 47.26 LIG 0.24  C 
ATOM      9  N   TYR B3003      12.725  25.052  29.629  0.70 47.47 LIG-0.34  N 
ATOM     10 H    TYR B3003      12.710  24.845  30.464  0.70 47.47 LIG 0.16  HD
ATOM     11 O    PRO B3002      12.935  24.398  27.455  0.70 46.37 LIG-0.27  OA
BRANCH 9 12
ATOM     12  CA  TYR B3003      12.557  26.482  29.388  0.70 47.51 LIG 0.19  C 
BRANCH 12 13
ATOM     13  C   TYR B3003      11.494  26.829  28.357  0.70 47.80 LIG 0.20  C 
ATOM     14 OXT  TYR B3003      11.812  26.760  27.153  0.70 46.55 LIG-0.65  OA
ATOM     15 O    TYR B3003      10.369  27.198  28.757  0.70 50.35 LIG-0.65  OA
ENDBRANCH 12 13
BRANCH 12 16
ATOM     16  CB  TYR B3003      13.904  27.106  29.007  0.70 48.13 LIG 0.07  C 
BRANCH 16 17
ATOM     17  CG  TYR B3003      13.837  28.564  28.614  0.70 49.00 LIG-0.06  A 
ATOM     18  CD2 TYR B3003      12.959  29.446  29.258  0.70 49.34 LIG 0.01  A 
ATOM     19  CE2 TYR B3003      12.895  30.790  28.888  0.70 49.34 LIG 0.04  A 
ATOM     20  CZ  TYR B3003      13.718  31.261  27.870  0.70 49.55 LIG 0.07  A 
ATOM     21  CE1 TYR B3003      14.592  30.406  27.221  0.70 48.63 LIG 0.04  A 
ATOM     22  CD1 TYR B3003      14.647  29.067  27.595  0.70 49.33 LIG 0.01  A 
BRANCH 20 23
ATOM     23 OH   TYR B3003      13.685  32.594  27.514  0.70 50.92 LIG-0.36  OA
ATOM     24 HH   TYR B3003      13.446  33.055  28.174  0.70 50.92 LIG 0.22  HD
ENDBRANCH 20 23
ENDBRANCH 16 17
ENDBRANCH 12 16
ENDBRANCH 9 12
ENDBRANCH 4 8
BRANCH 1 25
ATOM     25  CA  TYR B3001      10.073  21.304  31.134  0.70 43.08 LIG 0.28  C 
BRANCH 25 26
ATOM     26  CB  TYR B3001       8.653  21.903  31.063  0.70 40.59 LIG 0.08  C 
BRANCH 26 27
ATOM     27  CG  TYR B3001       8.044  21.871  29.668  0.70 39.24 LIG-0.06  A 
ATOM     28  CD1 TYR B3001       8.178  20.746  28.851  0.70 40.30 LIG 0.01  A 
ATOM     29  CE1 TYR B3001       7.682  20.738  27.526  0.70 38.36 LIG 0.04  A 
ATOM     30  CZ  TYR B3001       7.044  21.867  27.020  0.70 37.05 LIG 0.07  A 
ATOM     31  CE2 TYR B3001       6.892  22.993  27.822  0.70 37.49 LIG 0.04  A 
ATOM     32  CD2 TYR B3001       7.391  22.989  29.139  0.70 38.19 LIG 0.01  A 
BRANCH 30 33
ATOM     33 OH   TYR B3001       6.582  21.885  25.720  0.70 32.30 LIG-0.36  OA
ATOM     34 HH   TYR B3001       7.209  22.094  25.202  0.70 32.30 LIG 0.22  HD
ENDBRANCH 30 33
ENDBRANCH 26 27
ENDBRANCH 25 26
BRANCH 25 35
ATOM     35  N   TYR B3001      10.412  20.971  32.549  0.70 42.81 LIG-0.07  N 
ATOM     36 H3   TYR B3001      11.060  21.510  32.835  0.70 42.81 LIG 0.28  HD
ATOM     37 H2   TYR B3001      10.686  20.126  32.598  0.70 42.81 LIG 0.28  HD
ATOM     38 H1   TYR B3001       9.692  21.078  33.061  0.70 42.81 LIG 0.28  HD
ENDBRANCH 25 35
ENDBRANCH 1 25
TORSDOF 11
ENDMDL
MODEL 69
USER: ADFR SOLUTION from run 24
USER: SCORE 11.989939 LL:  -2.891 LR:  -9.099 RR:   0.000 FEB:  -5.818
USER: RMSD 7.899673
USER: SEED 23
USER: STATUS no improvement in best 19 clusters for 5 generations
USER: GENES 13
USER: genes 0 Translation |==|  0.54717 0.28860 0.55030
USER: genes 1 Rotation |==|  0.22966 0.24688 0.51928 0.83537
USER: genes 2 Torsion [N]-CA--C-[O] |==|  0.95043
USER: genes 3 Torsion [C]-N--CA-[C] |==|  0.66285
USER: genes 4 Torsion [N]-CA--C-[OXT] |==|  0.44657
USER: genes 5 Torsion [N]-CA--CB-[CG] |==|  0.85997
USER: genes 6 Torsion [CA]-CB--CG-[CD2] |==|  0.38448
USER: genes 7 Torsion [CE2]-CZ--OH-[HH] |==|  0.25936
USER: genes 8 Torsion [N]-C--CA-[N] |==|  0.38370
USER: genes 9 Torsion [C]-CA--CB-[CG] |==|  0.20664
USER: genes 10 Torsion [CA]-CB--CG-[CD1] |==|  0.24597
USER: genes 11 Torsion [CE1]-CZ--OH-[HH] |==|  0.87236
USER: genes 12 Torsion [C]-CA--N-[H2] |==|  0.51852
ROOT
ATOM      1  C   TYR B3001      15.475  27.168  29.479  0.70 44.28 LIG 0.25  C 
ATOM      2 O    TYR B3001      15.307  26.057  28.974  0.70 44.11 LIG-0.27  OA
ATOM      3  N   PRO B3002      14.473  27.858  30.069  0.70 46.07 LIG-0.34  N 
ATOM      4  CA  PRO B3002      13.076  27.453  30.278  0.70 46.91 LIG 0.18  C 
ATOM      5  CB  PRO B3002      12.438  28.711  30.868  0.70 46.92 LIG 0.04  C 
ATOM      6  CG  PRO B3002      13.200  29.794  30.214  0.70 47.16 LIG 0.02  C 
ATOM      7  CD  PRO B3002      14.619  29.295  30.364  0.70 47.04 LIG 0.13  C 
ENDROOT
BRANCH 4 8
ATOM      8  C   PRO B3002      12.248  26.924  29.117  0.70 47.26 LIG 0.24  C 
ATOM      9  N   TYR B3003      11.117  26.313  29.472  0.70 47.47 LIG-0.34  N 
ATOM     10 H    TYR B3003      10.890  26.198  30.294  0.70 47.47 LIG 0.16  HD
ATOM     11 O    PRO B3002      12.602  27.127  27.945  0.70 46.37 LIG-0.27  OA
BRANCH 9 12
ATOM     12  CA  TYR B3003      10.141  25.775  28.528  0.70 47.51 LIG 0.19  C 
BRANCH 12 13
ATOM     13  C   TYR B3003       8.744  26.362  28.659  0.70 47.80 LIG 0.20  C 
ATOM     14 OXT  TYR B3003       7.970  26.239  27.688  0.70 46.55 LIG-0.65  OA
ATOM     15 O    TYR B3003       8.444  26.966  29.712  0.70 50.35 LIG-0.65  OA
ENDBRANCH 12 13
BRANCH 12 16
ATOM     16  CB  TYR B3003      10.098  24.247  28.640  0.70 48.13 LIG 0.07  C 
BRANCH 16 17
ATOM     17  CG  TYR B3003      11.447  23.570  28.574  0.70 49.00 LIG-0.06  A 
ATOM     18  CD2 TYR B3003      11.764  22.503  29.424  0.70 49.34 LIG 0.01  A 
ATOM     19  CE2 TYR B3003      13.013  21.885  29.365  0.70 49.34 LIG 0.04  A 
ATOM     20  CZ  TYR B3003      13.955  22.332  28.444  0.70 49.55 LIG 0.07  A 
ATOM     21  CE1 TYR B3003      13.664  23.385  27.595  0.70 48.63 LIG 0.04  A 
ATOM     22  CD1 TYR B3003      12.415  23.997  27.663  0.70 49.33 LIG 0.01  A 
BRANCH 20 23
ATOM     23 OH   TYR B3003      15.185  21.712  28.355  0.70 50.92 LIG-0.36  OA
ATOM     24 HH   TYR B3003      15.157  21.116  27.763  0.70 50.92 LIG 0.22  HD
ENDBRANCH 20 23
ENDBRANCH 16 17
ENDBRANCH 12 16
ENDBRANCH 9 12
ENDBRANCH 4 8
BRANCH 1 25
ATOM     25  CA  TYR B3001      16.841  27.854  29.428  0.70 43.08 LIG 0.28  C 
BRANCH 25 26
ATOM     26  CB  TYR B3001      17.138  28.408  28.019  0.70 40.59 LIG 0.08  C 
BRANCH 26 27
ATOM     27  CG  TYR B3001      16.351  29.666  27.678  0.70 39.24 LIG-0.06  A 
ATOM     28  CD1 TYR B3001      16.849  30.933  27.995  0.70 40.30 LIG 0.01  A 
ATOM     29  CE1 TYR B3001      16.090  32.101  27.751  0.70 38.36 LIG 0.04  A 
ATOM     30  CZ  TYR B3001      14.825  31.997  27.181  0.70 37.05 LIG 0.07  A 
ATOM     31  CE2 TYR B3001      14.317  30.745  26.849  0.70 37.49 LIG 0.04  A 
ATOM     32  CD2 TYR B3001      15.081  29.590  27.098  0.70 38.19 LIG 0.01  A 
BRANCH 30 33
ATOM     33 OH   TYR B3001      14.060  33.125  26.965  0.70 32.30 LIG-0.36  OA
ATOM     34 HH   TYR B3001      14.077  33.611  27.650  0.70 32.30 LIG 0.22  HD
ENDBRANCH 30 33
ENDBRANCH 26 27
ENDBRANCH 25 26
BRANCH 25 35
ATOM     35  N   TYR B3001      17.809  26.766  29.759  0.70 42.81 LIG-0.07  N 
ATOM     36 H3   TYR B3001      17.570  26.378  30.523  0.70 42.81 LIG 0.28  HD
ATOM     37 H2   TYR B3001      18.625  27.111  29.844  0.70 42.81 LIG 0.28  HD
ATOM     38 H1   TYR B3001      17.810  26.161  29.107  0.70 42.81 LIG 0.28  HD
ENDBRANCH 25 35
ENDBRANCH 1 25
TORSDOF 11
ENDMDL
MODEL 70
USER: ADFR SOLUTION from run 100
USER: SCORE 11.722845 LL:  -2.635 LR:  -9.087 RR:   0.000 FEB:  -5.806
USER: RMSD 13.274120
USER: SEED 99
USER: STATUS no improvement in best 30 clusters for 5 generations
USER: GENES 13
USER: genes 0 Translation |==|  0.38746 0.08740 0.52181
USER: genes 1 Rotation |==|  0.63110 0.43913 0.32601 0.94591
USER: genes 2 Torsion [N]-CA--C-[O] |==|  0.94943
USER: genes 3 Torsion [C]-N--CA-[C] |==|  0.44773
USER: genes 4 Torsion [N]-CA--C-[OXT] |==|  0.49332
USER: genes 5 Torsion [N]-CA--CB-[CG] |==|  0.17959
USER: genes 6 Torsion [CA]-CB--CG-[CD2] |==|  0.45689
USER: genes 7 Torsion [CE2]-CZ--OH-[HH] |==|  0.59929
USER: genes 8 Torsion [N]-C--CA-[N] |==|  0.35386
USER: genes 9 Torsion [C]-CA--CB-[CG] |==|  0.87720
USER: genes 10 Torsion [CA]-CB--CG-[CD1] |==|  0.27569
USER: genes 11 Torsion [CE1]-CZ--OH-[HH] |==|  0.42159
USER: genes 12 Torsion [C]-CA--N-[H2] |==|  0.36320
ROOT
ATOM      1  C   TYR B3001      10.684  21.132  28.624  0.70 44.28 LIG 0.25  C 
ATOM      2 O    TYR B3001      10.055  21.994  28.008  0.70 44.11 LIG-0.27  OA
ATOM      3  N   PRO B3002      10.081  20.077  29.216  0.70 46.07 LIG-0.34  N 
ATOM      4  CA  PRO B3002       8.658  19.711  29.216  0.70 46.91 LIG 0.18  C 
ATOM      5  CB  PRO B3002       8.612  18.510  30.162  0.70 46.92 LIG 0.04  C 
ATOM      6  CG  PRO B3002       9.683  18.821  31.129  0.70 47.16 LIG 0.02  C 
ATOM      7  CD  PRO B3002      10.800  19.256  30.208  0.70 47.04 LIG 0.13  C 
ENDROOT
BRANCH 4 8
ATOM      8  C   PRO B3002       7.602  20.736  29.598  0.70 47.26 LIG 0.24  C 
ATOM      9  N   TYR B3003       6.353  20.400  29.270  0.70 47.47 LIG-0.34  N 
ATOM     10 H    TYR B3003       6.165  19.676  28.846  0.70 47.47 LIG 0.16  HD
ATOM     11 O    PRO B3002       7.914  21.761  30.224  0.70 46.37 LIG-0.27  OA
BRANCH 9 12
ATOM     12  CA  TYR B3003       5.175  21.204  29.583  0.70 47.51 LIG 0.19  C 
BRANCH 12 13
ATOM     13  C   TYR B3003       3.946  20.876  28.749  0.70 47.80 LIG 0.20  C 
ATOM     14 OXT  TYR B3003       2.893  21.497  29.000  0.70 46.55 LIG-0.65  OA
ATOM     15 O    TYR B3003       4.033  19.983  27.878  0.70 50.35 LIG-0.65  OA
ENDBRANCH 12 13
BRANCH 12 16
ATOM     16  CB  TYR B3003       5.519  22.694  29.476  0.70 48.13 LIG 0.07  C 
BRANCH 16 17
ATOM     17  CG  TYR B3003       5.886  23.159  28.085  0.70 49.00 LIG-0.06  A 
ATOM     18  CD2 TYR B3003       5.910  24.521  27.761  0.70 49.34 LIG 0.01  A 
ATOM     19  CE2 TYR B3003       6.243  24.946  26.475  0.70 49.34 LIG 0.04  A 
ATOM     20  CZ  TYR B3003       6.560  24.003  25.503  0.70 49.55 LIG 0.07  A 
ATOM     21  CE1 TYR B3003       6.542  22.652  25.801  0.70 48.63 LIG 0.04  A 
ATOM     22  CD1 TYR B3003       6.207  22.237  27.087  0.70 49.33 LIG 0.01  A 
BRANCH 20 23
ATOM     23 OH   TYR B3003       6.919  24.411  24.234  0.70 50.92 LIG-0.36  OA
ATOM     24 HH   TYR B3003       6.621  23.865  23.669  0.70 50.92 LIG 0.22  HD
ENDBRANCH 20 23
ENDBRANCH 16 17
ENDBRANCH 12 16
ENDBRANCH 9 12
ENDBRANCH 4 8
BRANCH 1 25
ATOM     25  CA  TYR B3001      12.201  21.235  28.788  0.70 43.08 LIG 0.28  C 
BRANCH 25 26
ATOM     26  CB  TYR B3001      12.592  22.475  29.618  0.70 40.59 LIG 0.08  C 
BRANCH 26 27
ATOM     27  CG  TYR B3001      11.835  23.737  29.228  0.70 39.24 LIG-0.06  A 
ATOM     28  CD1 TYR B3001      10.731  24.170  29.967  0.70 40.30 LIG 0.01  A 
ATOM     29  CE1 TYR B3001       9.977  25.297  29.566  0.70 38.36 LIG 0.04  A 
ATOM     30  CZ  TYR B3001      10.336  25.996  28.417  0.70 37.05 LIG 0.07  A 
ATOM     31  CE2 TYR B3001      11.438  25.586  27.674  0.70 37.49 LIG 0.04  A 
ATOM     32  CD2 TYR B3001      12.180  24.462  28.083  0.70 38.19 LIG 0.01  A 
BRANCH 30 33
ATOM     33 OH   TYR B3001       9.591  27.080  27.997  0.70 32.30 LIG-0.36  OA
ATOM     34 HH   TYR B3001      10.085  27.612  27.574  0.70 32.30 LIG 0.22  HD
ENDBRANCH 30 33
ENDBRANCH 26 27
ENDBRANCH 25 26
BRANCH 25 35
ATOM     35  N   TYR B3001      12.711  21.377  27.392  0.70 42.81 LIG-0.07  N 
ATOM     36 H3   TYR B3001      13.131  20.630  27.152  0.70 42.81 LIG 0.28  HD
ATOM     37 H2   TYR B3001      13.278  22.061  27.351  0.70 42.81 LIG 0.28  HD
ATOM     38 H1   TYR B3001      12.029  21.523  26.840  0.70 42.81 LIG 0.28  HD
ENDBRANCH 25 35
ENDBRANCH 1 25
TORSDOF 11
ENDMDL
MODEL 71
USER: ADFR SOLUTION from run 135
USER: SCORE 11.453006 LL:  -2.364 LR:  -9.089 RR:   0.000 FEB:  -5.808
USER: RMSD 12.109855
USER: SEED 134
USER: STATUS no improvement in best 24 clusters for 5 generations
USER: GENES 13
USER: genes 0 Translation |==|  0.43084 0.13692 0.58606
USER: genes 1 Rotation |==|  0.26345 0.91905 0.59502 0.59702
USER: genes 2 Torsion [N]-CA--C-[O] |==|  0.96254
USER: genes 3 Torsion [C]-N--CA-[C] |==|  0.22292
USER: genes 4 Torsion [N]-CA--C-[OXT] |==|  0.18582
USER: genes 5 Torsion [N]-CA--CB-[CG] |==|  0.63689
USER: genes 6 Torsion [CA]-CB--CG-[CD2] |==|  0.99714
USER: genes 7 Torsion [CE2]-CZ--OH-[HH] |==|  0.78205
USER: genes 8 Torsion [N]-C--CA-[N] |==|  0.34555
USER: genes 9 Torsion [C]-CA--CB-[CG] |==|  0.18674
USER: genes 10 Torsion [CA]-CB--CG-[CD1] |==|  0.75592
USER: genes 11 Torsion [CE1]-CZ--OH-[HH] |==|  0.09249
USER: genes 12 Torsion [C]-CA--N-[H2] |==|  0.79540
ROOT
ATOM      1  C   TYR B3001      11.985  22.618  30.552  0.70 44.28 LIG 0.25  C 
ATOM      2 O    TYR B3001      12.544  23.014  31.575  0.70 44.11 LIG-0.27  OA
ATOM      3  N   PRO B3002      12.580  22.652  29.339  0.70 46.07 LIG-0.34  N 
ATOM      4  CA  PRO B3002      13.943  23.084  28.993  0.70 46.91 LIG 0.18  C 
ATOM      5  CB  PRO B3002      13.950  23.010  27.466  0.70 46.92 LIG 0.04  C 
ATOM      6  CG  PRO B3002      12.553  23.343  27.121  0.70 47.16 LIG 0.02  C 
ATOM      7  CD  PRO B3002      11.790  22.486  28.105  0.70 47.04 LIG 0.13  C 
ENDROOT
BRANCH 4 8
ATOM      8  C   PRO B3002      14.464  24.431  29.469  0.70 47.26 LIG 0.24  C 
ATOM      9  N   TYR B3003      15.770  24.623  29.278  0.70 47.47 LIG-0.34  N 
ATOM     10 H    TYR B3003      16.283  24.018  28.943  0.70 47.47 LIG 0.16  HD
ATOM     11 O    PRO B3002      13.687  25.282  29.931  0.70 46.37 LIG-0.27  OA
BRANCH 9 12
ATOM     12  CA  TYR B3003      16.478  25.857  29.607  0.70 47.51 LIG 0.19  C 
BRANCH 12 13
ATOM     13  C   TYR B3003      16.837  26.008  31.077  0.70 47.80 LIG 0.20  C 
ATOM     14 OXT  TYR B3003      17.678  25.217  31.552  0.70 46.55 LIG-0.65  OA
ATOM     15 O    TYR B3003      16.255  26.886  31.750  0.70 50.35 LIG-0.65  OA
ENDBRANCH 12 13
BRANCH 12 16
ATOM     16  CB  TYR B3003      15.667  27.065  29.123  0.70 48.13 LIG 0.07  C 
BRANCH 16 17
ATOM     17  CG  TYR B3003      16.456  28.076  28.323  0.70 49.00 LIG-0.06  A 
ATOM     18  CD2 TYR B3003      17.825  27.899  28.083  0.70 49.34 LIG 0.01  A 
ATOM     19  CE2 TYR B3003      18.551  28.838  27.350  0.70 49.34 LIG 0.04  A 
ATOM     20  CZ  TYR B3003      17.905  29.962  26.846  0.70 49.55 LIG 0.07  A 
ATOM     21  CE1 TYR B3003      16.554  30.157  27.072  0.70 48.63 LIG 0.04  A 
ATOM     22  CD1 TYR B3003      15.838  29.216  27.806  0.70 49.33 LIG 0.01  A 
BRANCH 20 23
ATOM     23 OH   TYR B3003      18.605  30.885  26.096  0.70 50.92 LIG-0.36  OA
ATOM     24 HH   TYR B3003      19.056  31.377  26.605  0.70 50.92 LIG 0.22  HD
ENDBRANCH 20 23
ENDBRANCH 16 17
ENDBRANCH 12 16
ENDBRANCH 9 12
ENDBRANCH 4 8
BRANCH 1 25
ATOM     25  CA  TYR B3001      10.549  22.094  30.595  0.70 43.08 LIG 0.28  C 
BRANCH 25 26
ATOM     26  CB  TYR B3001       9.570  23.182  31.081  0.70 40.59 LIG 0.08  C 
BRANCH 26 27
ATOM     27  CG  TYR B3001       9.414  24.344  30.110  0.70 39.24 LIG-0.06  A 
ATOM     28  CD1 TYR B3001      10.273  25.445  30.164  0.70 40.30 LIG 0.01  A 
ATOM     29  CE1 TYR B3001      10.087  26.563  29.317  0.70 38.36 LIG 0.04  A 
ATOM     30  CZ  TYR B3001       9.034  26.572  28.407  0.70 37.05 LIG 0.07  A 
ATOM     31  CE2 TYR B3001       8.175  25.481  28.332  0.70 37.49 LIG 0.04  A 
ATOM     32  CD2 TYR B3001       8.370  24.376  29.181  0.70 38.19 LIG 0.01  A 
BRANCH 30 33
ATOM     33 OH   TYR B3001       8.822  27.668  27.595  0.70 32.30 LIG-0.36  OA
ATOM     34 HH   TYR B3001       9.559  28.020  27.401  0.70 32.30 LIG 0.22  HD
ENDBRANCH 30 33
ENDBRANCH 26 27
ENDBRANCH 25 26
BRANCH 25 35
ATOM     35  N   TYR B3001      10.597  20.976  31.584  0.70 42.81 LIG-0.07  N 
ATOM     36 H3   TYR B3001      11.042  21.239  32.308  0.70 42.81 LIG 0.28  HD
ATOM     37 H2   TYR B3001      11.007  20.275  31.221  0.70 42.81 LIG 0.28  HD
ATOM     38 H1   TYR B3001       9.768  20.747  31.814  0.70 42.81 LIG 0.28  HD
ENDBRANCH 25 35
ENDBRANCH 1 25
TORSDOF 11
ENDMDL
MODEL 72
USER: ADFR SOLUTION from run 128
USER: SCORE 11.619869 LL:  -2.528 LR:  -9.092 RR:   0.000 FEB:  -5.811
USER: RMSD 11.791932
USER: SEED 127
USER: STATUS no improvement in best 19 clusters for 5 generations
USER: GENES 13
USER: genes 0 Translation |==|  0.36476 0.17634 0.56571
USER: genes 1 Rotation |==|  0.09611 0.27928 0.41956 0.67801
USER: genes 2 Torsion [N]-CA--C-[O] |==|  0.66230
USER: genes 3 Torsion [C]-N--CA-[C] |==|  0.85355
USER: genes 4 Torsion [N]-CA--C-[OXT] |==|  0.25266
USER: genes 5 Torsion [N]-CA--CB-[CG] |==|  0.89028
USER: genes 6 Torsion [CA]-CB--CG-[CD2] |==|  0.83190
USER: genes 7 Torsion [CE2]-CZ--OH-[HH] |==|  0.34804
USER: genes 8 Torsion [N]-C--CA-[N] |==|  0.41923
USER: genes 9 Torsion [C]-CA--CB-[CG] |==|  0.37605
USER: genes 10 Torsion [CA]-CB--CG-[CD1] |==|  0.95562
USER: genes 11 Torsion [CE1]-CZ--OH-[HH] |==|  0.37076
USER: genes 12 Torsion [C]-CA--N-[H2] |==|  0.62366
ROOT
ATOM      1  C   TYR B3001      10.003  23.800  29.941  0.70 44.28 LIG 0.25  C 
ATOM      2 O    TYR B3001       9.309  22.791  29.806  0.70 44.11 LIG-0.27  OA
ATOM      3  N   PRO B3002       9.562  25.035  29.612  0.70 46.07 LIG-0.34  N 
ATOM      4  CA  PRO B3002       8.240  25.437  29.110  0.70 46.91 LIG 0.18  C 
ATOM      5  CB  PRO B3002       8.424  26.925  28.810  0.70 46.92 LIG 0.04  C 
ATOM      6  CG  PRO B3002       9.842  26.997  28.402  0.70 47.16 LIG 0.02  C 
ATOM      7  CD  PRO B3002      10.504  26.161  29.473  0.70 47.04 LIG 0.13  C 
ENDROOT
BRANCH 4 8
ATOM      8  C   PRO B3002       7.621  24.721  27.920  0.70 47.26 LIG 0.24  C 
ATOM      9  N   TYR B3003       7.390  23.421  28.109  0.70 47.47 LIG-0.34  N 
ATOM     10 H    TYR B3003       7.605  23.013  28.836  0.70 47.47 LIG 0.16  HD
ATOM     11 O    PRO B3002       7.310  25.350  26.896  0.70 46.37 LIG-0.27  OA
BRANCH 9 12
ATOM     12  CA  TYR B3003       6.756  22.545  27.127  0.70 47.51 LIG 0.19  C 
BRANCH 12 13
ATOM     13  C   TYR B3003       5.421  23.050  26.600  0.70 47.80 LIG 0.20  C 
ATOM     14 OXT  TYR B3003       5.435  23.760  25.574  0.70 46.55 LIG-0.65  OA
ATOM     15 O    TYR B3003       4.380  22.762  27.229  0.70 50.35 LIG-0.65  OA
ENDBRANCH 12 13
BRANCH 12 16
ATOM     16  CB  TYR B3003       6.608  21.135  27.708  0.70 48.13 LIG 0.07  C 
BRANCH 16 17
ATOM     17  CG  TYR B3003       7.784  20.664  28.532  0.70 49.00 LIG-0.06  A 
ATOM     18  CD2 TYR B3003       9.062  20.553  27.970  0.70 49.34 LIG 0.01  A 
ATOM     19  CE2 TYR B3003      10.144  20.111  28.731  0.70 49.34 LIG 0.04  A 
ATOM     20  CZ  TYR B3003       9.952  19.782  30.069  0.70 49.55 LIG 0.07  A 
ATOM     21  CE1 TYR B3003       8.698  19.884  30.644  0.70 48.63 LIG 0.04  A 
ATOM     22  CD1 TYR B3003       7.623  20.324  29.876  0.70 49.33 LIG 0.01  A 
BRANCH 20 23
ATOM     23 OH   TYR B3003      11.019  19.371  30.842  0.70 50.92 LIG-0.36  OA
ATOM     24 HH   TYR B3003      11.073  19.855  31.526  0.70 50.92 LIG 0.22  HD
ENDBRANCH 20 23
ENDBRANCH 16 17
ENDBRANCH 12 16
ENDBRANCH 9 12
ENDBRANCH 4 8
BRANCH 1 25
ATOM     25  CA  TYR B3001      11.438  23.701  30.459  0.70 43.08 LIG 0.28  C 
BRANCH 25 26
ATOM     26  CB  TYR B3001      12.434  23.457  29.307  0.70 40.59 LIG 0.08  C 
BRANCH 26 27
ATOM     27  CG  TYR B3001      13.687  24.319  29.387  0.70 39.24 LIG-0.06  A 
ATOM     28  CD1 TYR B3001      13.732  25.446  30.213  0.70 40.30 LIG 0.01  A 
ATOM     29  CE1 TYR B3001      14.863  26.295  30.234  0.70 38.36 LIG 0.04  A 
ATOM     30  CZ  TYR B3001      15.958  26.007  29.423  0.70 37.05 LIG 0.07  A 
ATOM     31  CE2 TYR B3001      15.935  24.885  28.602  0.70 37.49 LIG 0.04  A 
ATOM     32  CD2 TYR B3001      14.803  24.049  28.590  0.70 38.19 LIG 0.01  A 
BRANCH 30 33
ATOM     33 OH   TYR B3001      17.056  26.843  29.410  0.70 32.30 LIG-0.36  OA
ATOM     34 HH   TYR B3001      17.758  26.385  29.469  0.70 32.30 LIG 0.22  HD
ENDBRANCH 30 33
ENDBRANCH 26 27
ENDBRANCH 25 26
BRANCH 25 35
ATOM     35  N   TYR B3001      11.418  22.519  31.371  0.70 42.81 LIG-0.07  N 
ATOM     36 H3   TYR B3001      10.575  22.309  31.566  0.70 42.81 LIG 0.28  HD
ATOM     37 H2   TYR B3001      11.856  22.714  32.120  0.70 42.81 LIG 0.28  HD
ATOM     38 H1   TYR B3001      11.810  21.828  30.970  0.70 42.81 LIG 0.28  HD
ENDBRANCH 25 35
ENDBRANCH 1 25
TORSDOF 11
ENDMDL
MODEL 73
USER: ADFR SOLUTION from run 65
USER: SCORE 12.096303 LL:  -3.015 LR:  -9.082 RR:   0.000 FEB:  -5.800
USER: RMSD 14.733209
USER: SEED 64
USER: STATUS no improvement in best 22 clusters for 5 generations
USER: GENES 13
USER: genes 0 Translation |==|  0.77835 0.14781 0.42985
USER: genes 1 Rotation |==|  0.23562 0.50893 0.19956 0.79960
USER: genes 2 Torsion [N]-CA--C-[O] |==|  0.00778
USER: genes 3 Torsion [C]-N--CA-[C] |==|  0.15489
USER: genes 4 Torsion [N]-CA--C-[OXT] |==|  0.78217
USER: genes 5 Torsion [N]-CA--CB-[CG] |==|  0.93610
USER: genes 6 Torsion [CA]-CB--CG-[CD2] |==|  0.32905
USER: genes 7 Torsion [CE2]-CZ--OH-[HH] |==|  0.56454
USER: genes 8 Torsion [N]-C--CA-[N] |==|  0.31816
USER: genes 9 Torsion [C]-CA--CB-[CG] |==|  0.18419
USER: genes 10 Torsion [CA]-CB--CG-[CD1] |==|  0.04457
USER: genes 11 Torsion [CE1]-CZ--OH-[HH] |==|  0.25286
USER: genes 12 Torsion [C]-CA--N-[H2] |==|  0.77846
ROOT
ATOM      1  C   TYR B3001      22.411  22.944  25.865  0.70 44.28 LIG 0.25  C 
ATOM      2 O    TYR B3001      21.616  23.416  25.051  0.70 44.11 LIG-0.27  OA
ATOM      3  N   PRO B3002      22.777  23.603  26.987  0.70 46.07 LIG-0.34  N 
ATOM      4  CA  PRO B3002      22.310  24.905  27.485  0.70 46.91 LIG 0.18  C 
ATOM      5  CB  PRO B3002      23.195  25.143  28.709  0.70 46.92 LIG 0.04  C 
ATOM      6  CG  PRO B3002      24.460  24.484  28.324  0.70 47.16 LIG 0.02  C 
ATOM      7  CD  PRO B3002      23.956  23.174  27.763  0.70 47.04 LIG 0.13  C 
ENDROOT
BRANCH 4 8
ATOM      8  C   PRO B3002      22.315  26.122  26.573  0.70 47.26 LIG 0.24  C 
ATOM      9  N   TYR B3003      21.993  27.269  27.172  0.70 47.47 LIG-0.34  N 
ATOM     10 H    TYR B3003      21.767  27.311  28.001  0.70 47.47 LIG 0.16  HD
ATOM     11 O    PRO B3002      22.664  26.020  25.386  0.70 46.37 LIG-0.27  OA
BRANCH 9 12
ATOM     12  CA  TYR B3003      21.984  28.570  26.508  0.70 47.51 LIG 0.19  C 
BRANCH 12 13
ATOM     13  C   TYR B3003      21.109  28.640  25.266  0.70 47.80 LIG 0.20  C 
ATOM     14 OXT  TYR B3003      21.560  28.149  24.211  0.70 46.55 LIG-0.65  OA
ATOM     15 O    TYR B3003      19.999  29.211  25.345  0.70 50.35 LIG-0.65  OA
ENDBRANCH 12 13
BRANCH 12 16
ATOM     16  CB  TYR B3003      23.419  28.997  26.182  0.70 48.13 LIG 0.07  C 
BRANCH 16 17
ATOM     17  CG  TYR B3003      24.482  28.346  27.038  0.70 49.00 LIG-0.06  A 
ATOM     18  CD2 TYR B3003      25.471  27.534  26.470  0.70 49.34 LIG 0.01  A 
ATOM     19  CE2 TYR B3003      26.446  26.930  27.264  0.70 49.34 LIG 0.04  A 
ATOM     20  CZ  TYR B3003      26.437  27.142  28.639  0.70 49.55 LIG 0.07  A 
ATOM     21  CE1 TYR B3003      25.469  27.940  29.221  0.70 48.63 LIG 0.04  A 
ATOM     22  CD1 TYR B3003      24.499  28.537  28.421  0.70 49.33 LIG 0.01  A 
BRANCH 20 23
ATOM     23 OH   TYR B3003      27.412  26.573  29.434  0.70 50.92 LIG-0.36  OA
ATOM     24 HH   TYR B3003      27.129  26.506  30.221  0.70 50.92 LIG 0.22  HD
ENDBRANCH 20 23
ENDBRANCH 16 17
ENDBRANCH 12 16
ENDBRANCH 9 12
ENDBRANCH 4 8
BRANCH 1 25
ATOM     25  CA  TYR B3001      23.065  21.583  25.625  0.70 43.08 LIG 0.28  C 
BRANCH 25 26
ATOM     26  CB  TYR B3001      23.705  21.508  24.224  0.70 40.59 LIG 0.08  C 
BRANCH 26 27
ATOM     27  CG  TYR B3001      24.889  22.446  24.040  0.70 39.24 LIG-0.06  A 
ATOM     28  CD1 TYR B3001      25.526  23.025  25.141  0.70 40.30 LIG 0.01  A 
ATOM     29  CE1 TYR B3001      26.576  23.957  24.975  0.70 38.36 LIG 0.04  A 
ATOM     30  CZ  TYR B3001      26.994  24.307  23.694  0.70 37.05 LIG 0.07  A 
ATOM     31  CE2 TYR B3001      26.379  23.734  22.586  0.70 37.49 LIG 0.04  A 
ATOM     32  CD2 TYR B3001      25.334  22.808  22.764  0.70 38.19 LIG 0.01  A 
BRANCH 30 33
ATOM     33 OH   TYR B3001      27.997  25.238  23.516  0.70 32.30 LIG-0.36  OA
ATOM     34 HH   TYR B3001      28.740  24.847  23.483  0.70 32.30 LIG 0.22  HD
ENDBRANCH 30 33
ENDBRANCH 26 27
ENDBRANCH 25 26
BRANCH 25 35
ATOM     35  N   TYR B3001      21.935  20.612  25.720  0.70 42.81 LIG-0.07  N 
ATOM     36 H3   TYR B3001      21.217  20.952  25.320  0.70 42.81 LIG 0.28  HD
ATOM     37 H2   TYR B3001      21.751  20.453  26.575  0.70 42.81 LIG 0.28  HD
ATOM     38 H1   TYR B3001      22.164  19.850  25.320  0.70 42.81 LIG 0.28  HD
ENDBRANCH 25 35
ENDBRANCH 1 25
TORSDOF 11
ENDMDL
MODEL 74
USER: ADFR SOLUTION from run 11
USER: SCORE 11.925472 LL:  -2.857 LR:  -9.069 RR:   0.000 FEB:  -5.787
USER: RMSD 11.652687
USER: SEED 722814
USER: STATUS no improvement in best 29 clusters for 5 generations
USER: GENES 13
USER: genes 0 Translation |==|  0.36001 0.24744 0.53855
USER: genes 1 Rotation |==|  0.17863 0.17297 0.53066 0.69706
USER: genes 2 Torsion [N]-CA--C-[O] |==|  0.75172
USER: genes 3 Torsion [C]-N--CA-[C] |==|  0.80741
USER: genes 4 Torsion [N]-CA--C-[OXT] |==|  0.66563
USER: genes 5 Torsion [N]-CA--CB-[CG] |==|  0.85846
USER: genes 6 Torsion [CA]-CB--CG-[CD2] |==|  0.72916
USER: genes 7 Torsion [CE2]-CZ--OH-[HH] |==|  0.55144
USER: genes 8 Torsion [N]-C--CA-[N] |==|  0.35914
USER: genes 9 Torsion [C]-CA--CB-[CG] |==|  0.78469
USER: genes 10 Torsion [CA]-CB--CG-[CD1] |==|  0.76049
USER: genes 11 Torsion [CE1]-CZ--OH-[HH] |==|  0.57149
USER: genes 12 Torsion [C]-CA--N-[H2] |==|  0.13553
ROOT
ATOM      1  C   TYR B3001       9.860  25.933  29.127  0.70 44.28 LIG 0.25  C 
ATOM      2 O    TYR B3001       9.942  24.704  29.155  0.70 44.11 LIG-0.27  OA
ATOM      3  N   PRO B3002       8.700  26.578  28.873  0.70 46.07 LIG-0.34  N 
ATOM      4  CA  PRO B3002       7.363  26.012  28.644  0.70 46.91 LIG 0.18  C 
ATOM      5  CB  PRO B3002       6.526  27.241  28.285  0.70 46.92 LIG 0.04  C 
ATOM      6  CG  PRO B3002       7.504  28.105  27.595  0.70 47.16 LIG 0.02  C 
ATOM      7  CD  PRO B3002       8.694  28.011  28.523  0.70 47.04 LIG 0.13  C 
ENDROOT
BRANCH 4 8
ATOM      8  C   PRO B3002       7.162  24.907  27.619  0.70 47.26 LIG 0.24  C 
ATOM      9  N   TYR B3003       7.211  23.670  28.115  0.70 47.47 LIG-0.34  N 
ATOM     10 H    TYR B3003       7.377  23.510  28.944  0.70 47.47 LIG 0.16  HD
ATOM     11 O    PRO B3002       6.909  25.182  26.436  0.70 46.37 LIG-0.27  OA
BRANCH 9 12
ATOM     12  CA  TYR B3003       6.994  22.458  27.330  0.70 47.51 LIG 0.19  C 
BRANCH 12 13
ATOM     13  C   TYR B3003       5.563  22.261  26.854  0.70 47.80 LIG 0.20  C 
ATOM     14 OXT  TYR B3003       4.968  21.228  27.220  0.70 46.55 LIG-0.65  OA
ATOM     15 O    TYR B3003       5.060  23.119  26.095  0.70 50.35 LIG-0.65  OA
ENDBRANCH 12 13
BRANCH 12 16
ATOM     16  CB  TYR B3003       7.474  21.235  28.119  0.70 48.13 LIG 0.07  C 
BRANCH 16 17
ATOM     17  CG  TYR B3003       8.877  21.349  28.670  0.70 49.00 LIG-0.06  A 
ATOM     18  CD2 TYR B3003       9.966  20.785  27.996  0.70 49.34 LIG 0.01  A 
ATOM     19  CE2 TYR B3003      11.259  20.886  28.511  0.70 49.34 LIG 0.04  A 
ATOM     20  CZ  TYR B3003      11.467  21.562  29.709  0.70 49.55 LIG 0.07  A 
ATOM     21  CE1 TYR B3003      10.405  22.126  30.392  0.70 48.63 LIG 0.04  A 
ATOM     22  CD1 TYR B3003       9.118  22.018  29.871  0.70 49.33 LIG 0.01  A 
BRANCH 20 23
ATOM     23 OH   TYR B3003      12.744  21.694  30.217  0.70 50.92 LIG-0.36  OA
ATOM     24 HH   TYR B3003      12.704  21.885  31.034  0.70 50.92 LIG 0.22  HD
ENDBRANCH 20 23
ENDBRANCH 16 17
ENDBRANCH 12 16
ENDBRANCH 9 12
ENDBRANCH 4 8
BRANCH 1 25
ATOM     25  CA  TYR B3001      11.097  26.807  29.342  0.70 43.08 LIG 0.28  C 
BRANCH 25 26
ATOM     26  CB  TYR B3001      12.113  26.632  28.194  0.70 40.59 LIG 0.08  C 
BRANCH 26 27
ATOM     27  CG  TYR B3001      12.930  25.351  28.289  0.70 39.24 LIG-0.06  A 
ATOM     28  CD1 TYR B3001      14.105  25.302  29.045  0.70 40.30 LIG 0.01  A 
ATOM     29  CE1 TYR B3001      14.909  24.139  29.075  0.70 38.36 LIG 0.04  A 
ATOM     30  CZ  TYR B3001      14.529  23.017  28.345  0.70 37.05 LIG 0.07  A 
ATOM     31  CE2 TYR B3001      13.358  23.043  27.595  0.70 37.49 LIG 0.04  A 
ATOM     32  CD2 TYR B3001      12.567  24.207  27.572  0.70 38.19 LIG 0.01  A 
BRANCH 30 33
ATOM     33 OH   TYR B3001      15.319  21.885  28.341  0.70 32.30 LIG-0.36  OA
ATOM     34 HH   TYR B3001      15.185  21.452  27.634  0.70 32.30 LIG 0.22  HD
ENDBRANCH 30 33
ENDBRANCH 26 27
ENDBRANCH 25 26
BRANCH 25 35
ATOM     35  N   TYR B3001      11.683  26.304  30.619  0.70 42.81 LIG-0.07  N 
ATOM     36 H3   TYR B3001      12.494  26.652  30.732  0.70 42.81 LIG 0.28  HD
ATOM     37 H2   TYR B3001      11.743  25.417  30.590  0.70 42.81 LIG 0.28  HD
ATOM     38 H1   TYR B3001      11.162  26.543  31.300  0.70 42.81 LIG 0.28  HD
ENDBRANCH 25 35
ENDBRANCH 1 25
TORSDOF 11
ENDMDL
MODEL 75
USER: ADFR SOLUTION from run 117
USER: SCORE 11.490570 LL:  -2.433 LR:  -9.058 RR:   0.000 FEB:  -5.776
USER: RMSD 11.419796
USER: SEED 116
USER: STATUS no improvement in best 21 clusters for 5 generations
USER: GENES 13
USER: genes 0 Translation |==|  0.55117 0.29233 0.60182
USER: genes 1 Rotation |==|  0.20615 0.71904 0.19981 0.65986
USER: genes 2 Torsion [N]-CA--C-[O] |==|  0.48143
USER: genes 3 Torsion [C]-N--CA-[C] |==|  0.50662
USER: genes 4 Torsion [N]-CA--C-[OXT] |==|  0.48364
USER: genes 5 Torsion [N]-CA--CB-[CG] |==|  0.28753
USER: genes 6 Torsion [CA]-CB--CG-[CD2] |==|  0.76134
USER: genes 7 Torsion [CE2]-CZ--OH-[HH] |==|  0.55116
USER: genes 8 Torsion [N]-C--CA-[N] |==|  0.41037
USER: genes 9 Torsion [C]-CA--CB-[CG] |==|  0.49643
USER: genes 10 Torsion [CA]-CB--CG-[CD1] |==|  0.21760
USER: genes 11 Torsion [CE1]-CZ--OH-[HH] |==|  0.23628
USER: genes 12 Torsion [C]-CA--N-[H2] |==|  0.71016
ROOT
ATOM      1  C   TYR B3001      15.595  27.280  31.025  0.70 44.28 LIG 0.25  C 
ATOM      2 O    TYR B3001      15.144  28.394  30.755  0.70 44.11 LIG-0.27  OA
ATOM      3  N   PRO B3002      16.772  27.109  31.667  0.70 46.07 LIG-0.34  N 
ATOM      4  CA  PRO B3002      17.687  28.129  32.199  0.70 46.91 LIG 0.18  C 
ATOM      5  CB  PRO B3002      18.881  27.303  32.678  0.70 46.92 LIG 0.04  C 
ATOM      6  CG  PRO B3002      18.899  26.179  31.721  0.70 47.16 LIG 0.02  C 
ATOM      7  CD  PRO B3002      17.438  25.793  31.684  0.70 47.04 LIG 0.13  C 
ENDROOT
BRANCH 4 8
ATOM      8  C   PRO B3002      18.148  29.280  31.320  0.70 47.26 LIG 0.24  C 
ATOM      9  N   TYR B3003      17.713  29.228  30.060  0.70 47.47 LIG-0.34  N 
ATOM     10 H    TYR B3003      17.238  28.577  29.760  0.70 47.47 LIG 0.16  HD
ATOM     11 O    PRO B3002      18.819  30.209  31.796  0.70 46.37 LIG-0.27  OA
BRANCH 9 12
ATOM     12  CA  TYR B3003      17.985  30.250  29.052  0.70 47.51 LIG 0.19  C 
BRANCH 12 13
ATOM     13  C   TYR B3003      17.334  29.995  27.701  0.70 47.80 LIG 0.20  C 
ATOM     14 OXT  TYR B3003      17.434  30.885  26.833  0.70 46.55 LIG-0.65  OA
ATOM     15 O    TYR B3003      16.703  28.929  27.532  0.70 50.35 LIG-0.65  OA
ENDBRANCH 12 13
BRANCH 12 16
ATOM     16  CB  TYR B3003      19.499  30.435  28.896  0.70 48.13 LIG 0.07  C 
BRANCH 16 17
ATOM     17  CG  TYR B3003      20.089  29.797  27.660  0.70 49.00 LIG-0.06  A 
ATOM     18  CD2 TYR B3003      20.481  28.452  27.658  0.70 49.34 LIG 0.01  A 
ATOM     19  CE2 TYR B3003      21.032  27.868  26.517  0.70 49.34 LIG 0.04  A 
ATOM     20  CZ  TYR B3003      21.189  28.631  25.364  0.70 49.55 LIG 0.07  A 
ATOM     21  CE1 TYR B3003      20.809  29.961  25.345  0.70 48.63 LIG 0.04  A 
ATOM     22  CD1 TYR B3003      20.262  30.536  26.489  0.70 49.33 LIG 0.01  A 
BRANCH 20 23
ATOM     23 OH   TYR B3003      21.707  28.058  24.220  0.70 50.92 LIG-0.36  OA
ATOM     24 HH   TYR B3003      21.978  28.662  23.702  0.70 50.92 LIG 0.22  HD
ENDBRANCH 20 23
ENDBRANCH 16 17
ENDBRANCH 12 16
ENDBRANCH 9 12
ENDBRANCH 4 8
BRANCH 1 25
ATOM     25  CA  TYR B3001      14.853  26.010  30.604  0.70 43.08 LIG 0.28  C 
BRANCH 25 26
ATOM     26  CB  TYR B3001      15.198  25.614  29.154  0.70 40.59 LIG 0.08  C 
BRANCH 26 27
ATOM     27  CG  TYR B3001      14.512  24.337  28.688  0.70 39.24 LIG-0.06  A 
ATOM     28  CD1 TYR B3001      13.171  24.344  28.296  0.70 40.30 LIG 0.01  A 
ATOM     29  CE1 TYR B3001      12.506  23.149  27.936  0.70 38.36 LIG 0.04  A 
ATOM     30  CZ  TYR B3001      13.194  21.939  27.967  0.70 37.05 LIG 0.07  A 
ATOM     31  CE2 TYR B3001      14.532  21.914  28.344  0.70 37.49 LIG 0.04  A 
ATOM     32  CD2 TYR B3001      15.182  23.110  28.701  0.70 38.19 LIG 0.01  A 
BRANCH 30 33
ATOM     33 OH   TYR B3001      12.550  20.761  27.647  0.70 32.30 LIG-0.36  OA
ATOM     34 HH   TYR B3001      12.562  20.651  26.815  0.70 32.30 LIG 0.22  HD
ENDBRANCH 30 33
ENDBRANCH 26 27
ENDBRANCH 25 26
BRANCH 25 35
ATOM     35  N   TYR B3001      13.410  26.381  30.699  0.70 42.81 LIG-0.07  N 
ATOM     36 H3   TYR B3001      13.333  27.266  30.744  0.70 42.81 LIG 0.28  HD
ATOM     37 H2   TYR B3001      13.057  26.015  31.429  0.70 42.81 LIG 0.28  HD
ATOM     38 H1   TYR B3001      12.979  26.082  29.980  0.70 42.81 LIG 0.28  HD
ENDBRANCH 25 35
ENDBRANCH 1 25
TORSDOF 11
ENDMDL
MODEL 76
USER: ADFR SOLUTION from run 78
USER: SCORE 11.932125 LL:  -2.886 LR:  -9.046 RR:   0.000 FEB:  -5.765
USER: RMSD 11.581873
USER: SEED 77
USER: STATUS no improvement in best 35 clusters for 5 generations
USER: GENES 13
USER: genes 0 Translation |==|  0.35318 0.16831 0.62020
USER: genes 1 Rotation |==|  0.27162 0.29911 0.24735 0.80602
USER: genes 2 Torsion [N]-CA--C-[O] |==|  0.91227
USER: genes 3 Torsion [C]-N--CA-[C] |==|  0.50407
USER: genes 4 Torsion [N]-CA--C-[OXT] |==|  0.37139
USER: genes 5 Torsion [N]-CA--CB-[CG] |==|  0.15521
USER: genes 6 Torsion [CA]-CB--CG-[CD2] |==|  0.77260
USER: genes 7 Torsion [CE2]-CZ--OH-[HH] |==|  0.11387
USER: genes 8 Torsion [N]-C--CA-[N] |==|  0.38042
USER: genes 9 Torsion [C]-CA--CB-[CG] |==|  0.87763
USER: genes 10 Torsion [CA]-CB--CG-[CD1] |==|  0.76098
USER: genes 11 Torsion [CE1]-CZ--OH-[HH] |==|  0.90812
USER: genes 12 Torsion [C]-CA--N-[H2] |==|  0.26211
ROOT
ATOM      1  C   TYR B3001       9.655  23.559  31.576  0.70 44.28 LIG 0.25  C 
ATOM      2 O    TYR B3001       9.342  23.246  30.427  0.70 44.11 LIG-0.27  OA
ATOM      3  N   PRO B3002       9.018  24.534  32.263  0.70 46.07 LIG-0.34  N 
ATOM      4  CA  PRO B3002       7.861  25.342  31.854  0.70 46.91 LIG 0.18  C 
ATOM      5  CB  PRO B3002       7.715  26.340  33.004  0.70 46.92 LIG 0.04  C 
ATOM      6  CG  PRO B3002       9.112  26.533  33.441  0.70 47.16 LIG 0.02  C 
ATOM      7  CD  PRO B3002       9.612  25.107  33.485  0.70 47.04 LIG 0.13  C 
ENDROOT
BRANCH 4 8
ATOM      8  C   PRO B3002       7.863  26.062  30.514  0.70 47.26 LIG 0.24  C 
ATOM      9  N   TYR B3003       6.655  26.252  29.981  0.70 47.47 LIG-0.34  N 
ATOM     10 H    TYR B3003       5.935  25.959  30.350  0.70 47.47 LIG 0.16  HD
ATOM     11 O    PRO B3002       8.923  26.483  30.025  0.70 46.37 LIG-0.27  OA
BRANCH 9 12
ATOM     12  CA  TYR B3003       6.410  26.964  28.730  0.70 47.51 LIG 0.19  C 
BRANCH 12 13
ATOM     13  C   TYR B3003       4.943  27.080  28.345  0.70 47.80 LIG 0.20  C 
ATOM     14 OXT  TYR B3003       4.529  28.195  27.970  0.70 46.55 LIG-0.65  OA
ATOM     15 O    TYR B3003       4.214  26.070  28.453  0.70 50.35 LIG-0.65  OA
ENDBRANCH 12 13
BRANCH 12 16
ATOM     16  CB  TYR B3003       7.216  26.317  27.598  0.70 48.13 LIG 0.07  C 
BRANCH 16 17
ATOM     17  CG  TYR B3003       6.959  24.841  27.403  0.70 49.00 LIG-0.06  A 
ATOM     18  CD2 TYR B3003       7.597  23.884  28.203  0.70 49.34 LIG 0.01  A 
ATOM     19  CE2 TYR B3003       7.363  22.522  28.016  0.70 49.34 LIG 0.04  A 
ATOM     20  CZ  TYR B3003       6.480  22.109  27.023  0.70 49.55 LIG 0.07  A 
ATOM     21  CE1 TYR B3003       5.839  23.037  26.222  0.70 48.63 LIG 0.04  A 
ATOM     22  CD1 TYR B3003       6.080  24.394  26.414  0.70 49.33 LIG 0.01  A 
BRANCH 20 23
ATOM     23 OH   TYR B3003       6.217  20.765  26.846  0.70 50.92 LIG-0.36  OA
ATOM     24 HH   TYR B3003       6.143  20.393  27.595  0.70 50.92 LIG 0.22  HD
ENDBRANCH 20 23
ENDBRANCH 16 17
ENDBRANCH 12 16
ENDBRANCH 9 12
ENDBRANCH 4 8
BRANCH 1 25
ATOM     25  CA  TYR B3001      10.829  22.879  32.282  0.70 43.08 LIG 0.28  C 
BRANCH 25 26
ATOM     26  CB  TYR B3001      12.180  23.361  31.716  0.70 40.59 LIG 0.08  C 
BRANCH 26 27
ATOM     27  CG  TYR B3001      12.215  23.439  30.196  0.70 39.24 LIG-0.06  A 
ATOM     28  CD1 TYR B3001      12.536  22.319  29.426  0.70 40.30 LIG 0.01  A 
ATOM     29  CE1 TYR B3001      12.646  22.403  28.018  0.70 38.36 LIG 0.04  A 
ATOM     30  CZ  TYR B3001      12.427  23.621  27.380  0.70 37.05 LIG 0.07  A 
ATOM     31  CE2 TYR B3001      12.097  24.745  28.129  0.70 37.49 LIG 0.04  A 
ATOM     32  CD2 TYR B3001      11.992  24.648  29.529  0.70 38.19 LIG 0.01  A 
BRANCH 30 33
ATOM     33 OH   TYR B3001      12.560  23.725  26.010  0.70 32.30 LIG-0.36  OA
ATOM     34 HH   TYR B3001      13.163  23.204  25.746  0.70 32.30 LIG 0.22  HD
ENDBRANCH 30 33
ENDBRANCH 26 27
ENDBRANCH 25 26
BRANCH 25 35
ATOM     35  N   TYR B3001      10.643  21.427  31.984  0.70 42.81 LIG-0.07  N 
ATOM     36 H3   TYR B3001      10.912  20.944  32.681  0.70 42.81 LIG 0.28  HD
ATOM     37 H2   TYR B3001      11.122  21.207  31.268  0.70 42.81 LIG 0.28  HD
ATOM     38 H1   TYR B3001       9.782  21.264  31.827  0.70 42.81 LIG 0.28  HD
ENDBRANCH 25 35
ENDBRANCH 1 25
TORSDOF 11
ENDMDL
MODEL 77
USER: ADFR SOLUTION from run 102
USER: SCORE 10.957860 LL:  -1.909 LR:  -9.049 RR:   0.000 FEB:  -5.768
USER: RMSD 12.791883
USER: SEED 101
USER: STATUS no improvement in best 15 clusters for 5 generations
USER: GENES 13
USER: genes 0 Translation |==|  0.61746 0.24101 0.61041
USER: genes 1 Rotation |==|  0.37352 0.61210 0.84041 0.82489
USER: genes 2 Torsion [N]-CA--C-[O] |==|  0.89297
USER: genes 3 Torsion [C]-N--CA-[C] |==|  0.65845
USER: genes 4 Torsion [N]-CA--C-[OXT] |==|  0.98141
USER: genes 5 Torsion [N]-CA--CB-[CG] |==|  0.66995
USER: genes 6 Torsion [CA]-CB--CG-[CD2] |==|  0.94744
USER: genes 7 Torsion [CE2]-CZ--OH-[HH] |==|  0.12521
USER: genes 8 Torsion [N]-C--CA-[N] |==|  0.19769
USER: genes 9 Torsion [C]-CA--CB-[CG] |==|  0.42260
USER: genes 10 Torsion [CA]-CB--CG-[CD1] |==|  0.48006
USER: genes 11 Torsion [CE1]-CZ--OH-[HH] |==|  0.58840
USER: genes 12 Torsion [C]-CA--N-[H2] |==|  0.32548
ROOT
ATOM      1  C   TYR B3001      17.584  25.740  31.282  0.70 44.28 LIG 0.25  C 
ATOM      2 O    TYR B3001      17.800  24.549  31.509  0.70 44.11 LIG-0.27  OA
ATOM      3  N   PRO B3002      18.177  26.733  31.983  0.70 46.07 LIG-0.34  N 
ATOM      4  CA  PRO B3002      19.179  26.632  33.053  0.70 46.91 LIG 0.18  C 
ATOM      5  CB  PRO B3002      19.337  28.082  33.514  0.70 46.92 LIG 0.04  C 
ATOM      6  CG  PRO B3002      17.985  28.636  33.300  0.70 47.16 LIG 0.02  C 
ATOM      7  CD  PRO B3002      17.662  28.113  31.918  0.70 47.04 LIG 0.13  C 
ENDROOT
BRANCH 4 8
ATOM      8  C   PRO B3002      18.942  25.713  34.242  0.70 47.26 LIG 0.24  C 
ATOM      9  N   TYR B3003      20.040  25.126  34.720  0.70 47.47 LIG-0.34  N 
ATOM     10 H    TYR B3003      20.815  25.232  34.363  0.70 47.47 LIG 0.16  HD
ATOM     11 O    PRO B3002      17.810  25.601  34.738  0.70 46.37 LIG-0.27  OA
BRANCH 9 12
ATOM     12  CA  TYR B3003      20.062  24.247  35.886  0.70 47.51 LIG 0.19  C 
BRANCH 12 13
ATOM     13  C   TYR B3003      21.004  24.690  36.994  0.70 47.80 LIG 0.20  C 
ATOM     14 OXT  TYR B3003      21.751  25.662  36.766  0.70 46.55 LIG-0.65  OA
ATOM     15 O    TYR B3003      21.015  24.045  38.066  0.70 50.35 LIG-0.65  OA
ENDBRANCH 12 13
BRANCH 12 16
ATOM     16  CB  TYR B3003      20.379  22.812  35.449  0.70 48.13 LIG 0.07  C 
BRANCH 16 17
ATOM     17  CG  TYR B3003      19.297  21.803  35.756  0.70 49.00 LIG-0.06  A 
ATOM     18  CD2 TYR B3003      18.309  22.071  36.712  0.70 49.34 LIG 0.01  A 
ATOM     19  CE2 TYR B3003      17.316  21.135  36.999  0.70 49.34 LIG 0.04  A 
ATOM     20  CZ  TYR B3003      17.304  19.920  36.321  0.70 49.55 LIG 0.07  A 
ATOM     21  CE1 TYR B3003      18.270  19.635  35.372  0.70 48.63 LIG 0.04  A 
ATOM     22  CD1 TYR B3003      19.259  20.574  35.095  0.70 49.33 LIG 0.01  A 
BRANCH 20 23
ATOM     23 OH   TYR B3003      16.310  18.996  36.573  0.70 50.92 LIG-0.36  OA
ATOM     24 HH   TYR B3003      15.565  19.384  36.596  0.70 50.92 LIG 0.22  HD
ENDBRANCH 20 23
ENDBRANCH 16 17
ENDBRANCH 12 16
ENDBRANCH 9 12
ENDBRANCH 4 8
BRANCH 1 25
ATOM     25  CA  TYR B3001      16.585  26.165  30.205  0.70 43.08 LIG 0.28  C 
BRANCH 25 26
ATOM     26  CB  TYR B3001      15.811  24.952  29.648  0.70 40.59 LIG 0.08  C 
BRANCH 26 27
ATOM     27  CG  TYR B3001      14.424  25.297  29.126  0.70 39.24 LIG-0.06  A 
ATOM     28  CD1 TYR B3001      13.651  24.346  28.454  0.70 40.30 LIG 0.01  A 
ATOM     29  CE1 TYR B3001      12.395  24.682  27.898  0.70 38.36 LIG 0.04  A 
ATOM     30  CZ  TYR B3001      11.909  25.980  28.021  0.70 37.05 LIG 0.07  A 
ATOM     31  CE2 TYR B3001      12.659  26.938  28.695  0.70 37.49 LIG 0.04  A 
ATOM     32  CD2 TYR B3001      13.909  26.592  29.243  0.70 38.19 LIG 0.01  A 
BRANCH 30 33
ATOM     33 OH   TYR B3001      10.699  26.330  27.458  0.70 32.30 LIG-0.36  OA
ATOM     34 HH   TYR B3001      10.722  27.135  27.220  0.70 32.30 LIG 0.22  HD
ENDBRANCH 30 33
ENDBRANCH 26 27
ENDBRANCH 25 26
BRANCH 25 35
ATOM     35  N   TYR B3001      17.435  26.760  29.131  0.70 42.81 LIG-0.07  N 
ATOM     36 H3   TYR B3001      17.174  27.596  28.975  0.70 42.81 LIG 0.28  HD
ATOM     37 H2   TYR B3001      17.353  26.280  28.387  0.70 42.81 LIG 0.28  HD
ATOM     38 H1   TYR B3001      18.286  26.760  29.392  0.70 42.81 LIG 0.28  HD
ENDBRANCH 25 35
ENDBRANCH 1 25
TORSDOF 11
ENDMDL
MODEL 78
USER: ADFR SOLUTION from run 126
USER: SCORE 10.835726 LL:  -1.800 LR:  -9.035 RR:   0.000 FEB:  -5.754
USER: RMSD 9.031610
USER: SEED 125
USER: STATUS no improvement in best 26 clusters for 5 generations
USER: GENES 13
USER: genes 0 Translation |==|  0.50104 0.22795 0.54368
USER: genes 1 Rotation |==|  0.83086 0.53523 0.37618 0.85208
USER: genes 2 Torsion [N]-CA--C-[O] |==|  0.74009
USER: genes 3 Torsion [C]-N--CA-[C] |==|  0.20678
USER: genes 4 Torsion [N]-CA--C-[OXT] |==|  0.52118
USER: genes 5 Torsion [N]-CA--CB-[CG] |==|  0.77271
USER: genes 6 Torsion [CA]-CB--CG-[CD2] |==|  0.92287
USER: genes 7 Torsion [CE2]-CZ--OH-[HH] |==|  0.69769
USER: genes 8 Torsion [N]-C--CA-[N] |==|  0.15253
USER: genes 9 Torsion [C]-CA--CB-[CG] |==|  0.72318
USER: genes 10 Torsion [CA]-CB--CG-[CD1] |==|  0.24883
USER: genes 11 Torsion [CE1]-CZ--OH-[HH] |==|  0.73559
USER: genes 12 Torsion [C]-CA--N-[H2] |==|  0.46852
ROOT
ATOM      1  C   TYR B3001      14.091  25.348  29.280  0.70 44.28 LIG 0.25  C 
ATOM      2 O    TYR B3001      13.230  26.194  29.529  0.70 44.11 LIG-0.27  OA
ATOM      3  N   PRO B3002      13.802  24.169  28.686  0.70 46.07 LIG-0.34  N 
ATOM      4  CA  PRO B3002      12.507  23.683  28.188  0.70 46.91 LIG 0.18  C 
ATOM      5  CB  PRO B3002      12.820  22.249  27.759  0.70 46.92 LIG 0.04  C 
ATOM      6  CG  PRO B3002      13.868  21.848  28.720  0.70 47.16 LIG 0.02  C 
ATOM      7  CD  PRO B3002      14.772  23.059  28.699  0.70 47.04 LIG 0.13  C 
ENDROOT
BRANCH 4 8
ATOM      8  C   PRO B3002      11.278  23.721  29.082  0.70 47.26 LIG 0.24  C 
ATOM      9  N   TYR B3003      10.567  24.847  29.007  0.70 47.47 LIG-0.34  N 
ATOM     10 H    TYR B3003      10.805  25.512  28.517  0.70 47.47 LIG 0.16  HD
ATOM     11 O    PRO B3002      10.961  22.732  29.762  0.70 46.37 LIG-0.27  OA
BRANCH 9 12
ATOM     12  CA  TYR B3003       9.323  25.085  29.733  0.70 47.51 LIG 0.19  C 
BRANCH 12 13
ATOM     13  C   TYR B3003       9.500  25.355  31.220  0.70 47.80 LIG 0.20  C 
ATOM     14 OXT  TYR B3003       8.472  25.422  31.923  0.70 46.55 LIG-0.65  OA
ATOM     15 O    TYR B3003      10.656  25.531  31.664  0.70 50.35 LIG-0.65  OA
ENDBRANCH 12 13
BRANCH 12 16
ATOM     16  CB  TYR B3003       8.358  23.916  29.508  0.70 48.13 LIG 0.07  C 
BRANCH 16 17
ATOM     17  CG  TYR B3003       7.579  23.978  28.214  0.70 49.00 LIG-0.06  A 
ATOM     18  CD2 TYR B3003       7.285  25.205  27.607  0.70 49.34 LIG 0.01  A 
ATOM     19  CE2 TYR B3003       6.560  25.260  26.416  0.70 49.34 LIG 0.04  A 
ATOM     20  CZ  TYR B3003       6.129  24.078  25.822  0.70 49.55 LIG 0.07  A 
ATOM     21  CE1 TYR B3003       6.408  22.855  26.406  0.70 48.63 LIG 0.04  A 
ATOM     22  CD1 TYR B3003       7.130  22.811  27.595  0.70 49.33 LIG 0.01  A 
BRANCH 20 23
ATOM     23 OH   TYR B3003       5.435  24.116  24.629  0.70 50.92 LIG-0.36  OA
ATOM     24 HH   TYR B3003       4.631  23.915  24.766  0.70 50.92 LIG 0.22  HD
ENDBRANCH 20 23
ENDBRANCH 16 17
ENDBRANCH 12 16
ENDBRANCH 9 12
ENDBRANCH 4 8
BRANCH 1 25
ATOM     25  CA  TYR B3001      15.551  25.576  29.674  0.70 43.08 LIG 0.28  C 
BRANCH 25 26
ATOM     26  CB  TYR B3001      15.776  27.015  30.185  0.70 40.59 LIG 0.08  C 
BRANCH 26 27
ATOM     27  CG  TYR B3001      16.373  27.949  29.142  0.70 39.24 LIG-0.06  A 
ATOM     28  CD1 TYR B3001      15.552  28.684  28.282  0.70 40.30 LIG 0.01  A 
ATOM     29  CE1 TYR B3001      16.100  29.494  27.261  0.70 38.36 LIG 0.04  A 
ATOM     30  CZ  TYR B3001      17.480  29.570  27.104  0.70 37.05 LIG 0.07  A 
ATOM     31  CE2 TYR B3001      18.313  28.854  27.957  0.70 37.49 LIG 0.04  A 
ATOM     32  CD2 TYR B3001      17.756  28.050  28.969  0.70 38.19 LIG 0.01  A 
BRANCH 30 33
ATOM     33 OH   TYR B3001      18.028  30.333  26.092  0.70 32.30 LIG-0.36  OA
ATOM     34 HH   TYR B3001      18.185  29.845  25.427  0.70 32.30 LIG 0.22  HD
ENDBRANCH 30 33
ENDBRANCH 26 27
ENDBRANCH 25 26
BRANCH 25 35
ATOM     35  N   TYR B3001      16.310  25.365  28.406  0.70 42.81 LIG-0.07  N 
ATOM     36 H3   TYR B3001      16.304  24.500  28.197  0.70 42.81 LIG 0.28  HD
ATOM     37 H2   TYR B3001      17.150  25.638  28.513  0.70 42.81 LIG 0.28  HD
ATOM     38 H1   TYR B3001      15.928  25.829  27.750  0.70 42.81 LIG 0.28  HD
ENDBRANCH 25 35
ENDBRANCH 1 25
TORSDOF 11
ENDMDL
MODEL 79
USER: ADFR SOLUTION from run 118
USER: SCORE 12.028425 LL:  -3.012 LR:  -9.016 RR:   0.000 FEB:  -5.735
USER: RMSD 14.057793
USER: SEED 117
USER: STATUS no improvement in best 22 clusters for 5 generations
USER: GENES 13
USER: genes 0 Translation |==|  0.29338 0.09746 0.59337
USER: genes 1 Rotation |==|  0.12353 0.76957 0.33047 0.58285
USER: genes 2 Torsion [N]-CA--C-[O] |==|  0.89017
USER: genes 3 Torsion [C]-N--CA-[C] |==|  0.13487
USER: genes 4 Torsion [N]-CA--C-[OXT] |==|  0.59038
USER: genes 5 Torsion [N]-CA--CB-[CG] |==|  0.94787
USER: genes 6 Torsion [CA]-CB--CG-[CD2] |==|  0.77057
USER: genes 7 Torsion [CE2]-CZ--OH-[HH] |==|  0.57204
USER: genes 8 Torsion [N]-C--CA-[N] |==|  0.44493
USER: genes 9 Torsion [C]-CA--CB-[CG] |==|  0.90580
USER: genes 10 Torsion [CA]-CB--CG-[CD1] |==|  0.78219
USER: genes 11 Torsion [CE1]-CZ--OH-[HH] |==|  0.87709
USER: genes 12 Torsion [C]-CA--N-[H2] |==|  0.28709
ROOT
ATOM      1  C   TYR B3001       7.861  21.434  30.771  0.70 44.28 LIG 0.25  C 
ATOM      2 O    TYR B3001       7.361  22.547  30.936  0.70 44.11 LIG-0.27  OA
ATOM      3  N   PRO B3002       9.167  21.262  30.466  0.70 46.07 LIG-0.34  N 
ATOM      4  CA  PRO B3002      10.221  22.277  30.325  0.70 46.91 LIG 0.18  C 
ATOM      5  CB  PRO B3002      11.422  21.461  29.845  0.70 46.92 LIG 0.04  C 
ATOM      6  CG  PRO B3002      10.787  20.394  29.046  0.70 47.16 LIG 0.02  C 
ATOM      7  CD  PRO B3002       9.659  19.968  29.958  0.70 47.04 LIG 0.13  C 
ENDROOT
BRANCH 4 8
ATOM      8  C   PRO B3002      10.004  23.490  29.434  0.70 47.26 LIG 0.24  C 
ATOM      9  N   TYR B3003      10.546  24.620  29.888  0.70 47.47 LIG-0.34  N 
ATOM     10 H    TYR B3003      10.957  24.666  30.643  0.70 47.47 LIG 0.16  HD
ATOM     11 O    PRO B3002       9.419  23.377  28.345  0.70 46.37 LIG-0.27  OA
BRANCH 9 12
ATOM     12  CA  TYR B3003      10.511  25.895  29.177  0.70 47.51 LIG 0.19  C 
BRANCH 12 13
ATOM     13  C   TYR B3003       9.137  26.291  28.658  0.70 47.80 LIG 0.20  C 
ATOM     14 OXT  TYR B3003       9.085  26.943  27.595  0.70 46.55 LIG-0.65  OA
ATOM     15 O    TYR B3003       8.129  25.980  29.329  0.70 50.35 LIG-0.65  OA
ENDBRANCH 12 13
BRANCH 12 16
ATOM     16  CB  TYR B3003      11.535  25.882  28.037  0.70 48.13 LIG 0.07  C 
BRANCH 16 17
ATOM     17  CG  TYR B3003      12.611  24.827  28.166  0.70 49.00 LIG-0.06  A 
ATOM     18  CD2 TYR B3003      13.742  25.043  28.963  0.70 49.34 LIG 0.01  A 
ATOM     19  CE2 TYR B3003      14.736  24.071  29.074  0.70 49.34 LIG 0.04  A 
ATOM     20  CZ  TYR B3003      14.598  22.868  28.388  0.70 49.55 LIG 0.07  A 
ATOM     21  CE1 TYR B3003      13.488  22.635  27.595  0.70 48.63 LIG 0.04  A 
ATOM     22  CD1 TYR B3003      12.503  23.612  27.488  0.70 49.33 LIG 0.01  A 
BRANCH 20 23
ATOM     23 OH   TYR B3003      15.560  21.886  28.512  0.70 50.92 LIG-0.36  OA
ATOM     24 HH   TYR B3003      15.558  21.403  27.824  0.70 50.92 LIG 0.22  HD
ENDBRANCH 20 23
ENDBRANCH 16 17
ENDBRANCH 12 16
ENDBRANCH 9 12
ENDBRANCH 4 8
BRANCH 1 25
ATOM     25  CA  TYR B3001       7.008  20.168  30.866  0.70 43.08 LIG 0.28  C 
BRANCH 25 26
ATOM     26  CB  TYR B3001       6.556  19.691  29.470  0.70 40.59 LIG 0.08  C 
BRANCH 26 27
ATOM     27  CG  TYR B3001       6.296  20.826  28.489  0.70 39.24 LIG-0.06  A 
ATOM     28  CD1 TYR B3001       5.112  21.566  28.543  0.70 40.30 LIG 0.01  A 
ATOM     29  CE1 TYR B3001       4.830  22.569  27.587  0.70 38.36 LIG 0.04  A 
ATOM     30  CZ  TYR B3001       5.746  22.834  26.573  0.70 37.05 LIG 0.07  A 
ATOM     31  CE2 TYR B3001       6.934  22.115  26.509  0.70 37.49 LIG 0.04  A 
ATOM     32  CD2 TYR B3001       7.203  21.118  27.465  0.70 38.19 LIG 0.01  A 
BRANCH 30 33
ATOM     33 OH   TYR B3001       5.471  23.790  25.616  0.70 32.30 LIG-0.36  OA
ATOM     34 HH   TYR B3001       4.678  23.705  25.354  0.70 32.30 LIG 0.22  HD
ENDBRANCH 30 33
ENDBRANCH 26 27
ENDBRANCH 25 26
BRANCH 25 35
ATOM     35  N   TYR B3001       5.820  20.587  31.668  0.70 42.81 LIG-0.07  N 
ATOM     36 H3   TYR B3001       5.630  19.958  32.268  0.70 42.81 LIG 0.28  HD
ATOM     37 H2   TYR B3001       5.123  20.702  31.128  0.70 42.81 LIG 0.28  HD
ATOM     38 H1   TYR B3001       5.999  21.351  32.087  0.70 42.81 LIG 0.28  HD
ENDBRANCH 25 35
ENDBRANCH 1 25
TORSDOF 11
ENDMDL
MODEL 80
USER: ADFR SOLUTION from run 46
USER: SCORE 11.578551 LL:  -2.554 LR:  -9.024 RR:   0.000 FEB:  -5.743
USER: RMSD 11.499400
USER: SEED 45
USER: STATUS no improvement in best 22 clusters for 5 generations
USER: GENES 13
USER: genes 0 Translation |==|  0.44207 0.11559 0.51403
USER: genes 1 Rotation |==|  0.37737 0.33063 0.38639 0.93974
USER: genes 2 Torsion [N]-CA--C-[O] |==|  0.92288
USER: genes 3 Torsion [C]-N--CA-[C] |==|  0.23038
USER: genes 4 Torsion [N]-CA--C-[OXT] |==|  0.59690
USER: genes 5 Torsion [N]-CA--CB-[CG] |==|  0.58793
USER: genes 6 Torsion [CA]-CB--CG-[CD2] |==|  0.45521
USER: genes 7 Torsion [CE2]-CZ--OH-[HH] |==|  0.65928
USER: genes 8 Torsion [N]-C--CA-[N] |==|  0.39024
USER: genes 9 Torsion [C]-CA--CB-[CG] |==|  0.08884
USER: genes 10 Torsion [CA]-CB--CG-[CD1] |==|  0.74665
USER: genes 11 Torsion [CE1]-CZ--OH-[HH] |==|  0.85786
USER: genes 12 Torsion [C]-CA--N-[H2] |==|  0.11469
ROOT
ATOM      1  C   TYR B3001      12.322  21.978  28.391  0.70 44.28 LIG 0.25  C 
ATOM      2 O    TYR B3001      11.807  21.760  27.293  0.70 44.11 LIG-0.27  OA
ATOM      3  N   PRO B3002      11.599  22.058  29.530  0.70 46.07 LIG-0.34  N 
ATOM      4  CA  PRO B3002      10.154  21.864  29.718  0.70 46.91 LIG 0.18  C 
ATOM      5  CB  PRO B3002       9.948  22.221  31.191  0.70 46.92 LIG 0.04  C 
ATOM      6  CG  PRO B3002      10.973  23.260  31.416  0.70 47.16 LIG 0.02  C 
ATOM      7  CD  PRO B3002      12.181  22.637  30.755  0.70 47.04 LIG 0.13  C 
ENDROOT
BRANCH 4 8
ATOM      8  C   PRO B3002       9.159  22.609  28.841  0.70 47.26 LIG 0.24  C 
ATOM      9  N   TYR B3003       7.967  22.022  28.726  0.70 47.47 LIG-0.34  N 
ATOM     10 H    TYR B3003       7.787  21.265  29.092  0.70 47.47 LIG 0.16  HD
ATOM     11 O    PRO B3002       9.454  23.708  28.345  0.70 46.37 LIG-0.27  OA
BRANCH 9 12
ATOM     12  CA  TYR B3003       6.843  22.580  27.980  0.70 47.51 LIG 0.19  C 
BRANCH 12 13
ATOM     13  C   TYR B3003       6.879  22.307  26.484  0.70 47.80 LIG 0.20  C 
ATOM     14 OXT  TYR B3003       6.440  23.193  25.723  0.70 46.55 LIG-0.65  OA
ATOM     15 O    TYR B3003       7.311  21.204  26.086  0.70 50.35 LIG-0.65  OA
ENDBRANCH 12 13
BRANCH 12 16
ATOM     16  CB  TYR B3003       6.735  24.084  28.252  0.70 48.13 LIG 0.07  C 
BRANCH 16 17
ATOM     17  CG  TYR B3003       5.327  24.634  28.213  0.70 49.00 LIG-0.06  A 
ATOM     18  CD2 TYR B3003       5.026  25.888  28.759  0.70 49.34 LIG 0.01  A 
ATOM     19  CE2 TYR B3003       3.724  26.390  28.728  0.70 49.34 LIG 0.04  A 
ATOM     20  CZ  TYR B3003       2.714  25.635  28.141  0.70 49.55 LIG 0.07  A 
ATOM     21  CE1 TYR B3003       2.990  24.394  27.596  0.70 48.63 LIG 0.04  A 
ATOM     22  CD1 TYR B3003       4.291  23.901  27.634  0.70 49.33 LIG 0.01  A 
BRANCH 20 23
ATOM     23 OH   TYR B3003       1.427  26.131  28.077  0.70 50.92 LIG-0.36  OA
ATOM     24 HH   TYR B3003       0.902  25.597  28.458  0.70 50.92 LIG 0.22  HD
ENDBRANCH 20 23
ENDBRANCH 16 17
ENDBRANCH 12 16
ENDBRANCH 9 12
ENDBRANCH 4 8
BRANCH 1 25
ATOM     25  CA  TYR B3001      13.828  22.212  28.518  0.70 43.08 LIG 0.28  C 
BRANCH 25 26
ATOM     26  CB  TYR B3001      14.213  23.637  28.069  0.70 40.59 LIG 0.08  C 
BRANCH 26 27
ATOM     27  CG  TYR B3001      13.135  24.678  28.341  0.70 39.24 LIG-0.06  A 
ATOM     28  CD1 TYR B3001      12.165  24.975  27.380  0.70 40.30 LIG 0.01  A 
ATOM     29  CE1 TYR B3001      11.209  25.995  27.595  0.70 38.36 LIG 0.04  A 
ATOM     30  CZ  TYR B3001      11.224  26.717  28.785  0.70 37.05 LIG 0.07  A 
ATOM     31  CE2 TYR B3001      12.176  26.428  29.757  0.70 37.49 LIG 0.04  A 
ATOM     32  CD2 TYR B3001      13.123  25.412  29.530  0.70 38.19 LIG 0.01  A 
BRANCH 30 33
ATOM     33 OH   TYR B3001      10.316  27.735  28.996  0.70 32.30 LIG-0.36  OA
ATOM     34 HH   TYR B3001      10.327  28.261  28.342  0.70 32.30 LIG 0.22  HD
ENDBRANCH 30 33
ENDBRANCH 26 27
ENDBRANCH 25 26
BRANCH 25 35
ATOM     35  N   TYR B3001      14.435  21.208  27.595  0.70 42.81 LIG-0.07  N 
ATOM     36 H3   TYR B3001      15.270  21.447  27.403  0.70 42.81 LIG 0.28  HD
ATOM     37 H2   TYR B3001      13.958  21.168  26.845  0.70 42.81 LIG 0.28  HD
ATOM     38 H1   TYR B3001      14.438  20.409  27.987  0.70 42.81 LIG 0.28  HD
ENDBRANCH 25 35
ENDBRANCH 1 25
TORSDOF 11
ENDMDL
MODEL 81
USER: ADFR SOLUTION from run 139
USER: SCORE 11.575543 LL:  -2.558 LR:  -9.018 RR:   0.000 FEB:  -5.737
USER: RMSD 8.724474
USER: SEED 138
USER: STATUS no improvement in best 29 clusters for 5 generations
USER: GENES 13
USER: genes 0 Translation |==|  0.54685 0.29736 0.55861
USER: genes 1 Rotation |==|  0.02726 0.50823 0.61227 0.61768
USER: genes 2 Torsion [N]-CA--C-[O] |==|  0.49096
USER: genes 3 Torsion [C]-N--CA-[C] |==|  0.67919
USER: genes 4 Torsion [N]-CA--C-[OXT] |==|  0.89865
USER: genes 5 Torsion [N]-CA--CB-[CG] |==|  0.59050
USER: genes 6 Torsion [CA]-CB--CG-[CD2] |==|  0.62815
USER: genes 7 Torsion [CE2]-CZ--OH-[HH] |==|  0.34896
USER: genes 8 Torsion [N]-C--CA-[N] |==|  0.22934
USER: genes 9 Torsion [C]-CA--CB-[CG] |==|  0.22369
USER: genes 10 Torsion [CA]-CB--CG-[CD1] |==|  0.86639
USER: genes 11 Torsion [CE1]-CZ--OH-[HH] |==|  0.34963
USER: genes 12 Torsion [C]-CA--N-[H2] |==|  0.35528
ROOT
ATOM      1  C   TYR B3001      15.466  27.431  29.728  0.70 44.28 LIG 0.25  C 
ATOM      2 O    TYR B3001      14.773  27.222  30.725  0.70 44.11 LIG-0.27  OA
ATOM      3  N   PRO B3002      15.355  28.558  28.990  0.70 46.07 LIG-0.34  N 
ATOM      4  CA  PRO B3002      14.493  29.726  29.217  0.70 46.91 LIG 0.18  C 
ATOM      5  CB  PRO B3002      14.737  30.581  27.973  0.70 46.92 LIG 0.04  C 
ATOM      6  CG  PRO B3002      14.988  29.566  26.930  0.70 47.16 LIG 0.02  C 
ATOM      7  CD  PRO B3002      15.946  28.637  27.641  0.70 47.04 LIG 0.13  C 
ENDROOT
BRANCH 4 8
ATOM      8  C   PRO B3002      13.003  29.544  29.460  0.70 47.26 LIG 0.24  C 
ATOM      9  N   TYR B3003      12.586  28.277  29.449  0.70 47.47 LIG-0.34  N 
ATOM     10 H    TYR B3003      13.113  27.618  29.284  0.70 47.47 LIG 0.16  HD
ATOM     11 O    PRO B3002      12.280  30.521  29.712  0.70 46.37 LIG-0.27  OA
BRANCH 9 12
ATOM     12  CA  TYR B3003      11.211  27.860  29.711  0.70 47.51 LIG 0.19  C 
BRANCH 12 13
ATOM     13  C   TYR B3003      11.035  27.014  30.963  0.70 47.80 LIG 0.20  C 
ATOM     14 OXT  TYR B3003      11.937  26.201  31.244  0.70 46.55 LIG-0.65  OA
ATOM     15 O    TYR B3003       9.986  27.145  31.632  0.70 50.35 LIG-0.65  OA
ENDBRANCH 12 13
BRANCH 12 16
ATOM     16  CB  TYR B3003      10.646  27.135  28.485  0.70 48.13 LIG 0.07  C 
BRANCH 16 17
ATOM     17  CG  TYR B3003       9.163  27.325  28.265  0.70 49.00 LIG-0.06  A 
ATOM     18  CD2 TYR B3003       8.331  26.238  27.970  0.70 49.34 LIG 0.01  A 
ATOM     19  CE2 TYR B3003       6.963  26.419  27.761  0.70 49.34 LIG 0.04  A 
ATOM     20  CZ  TYR B3003       6.419  27.696  27.853  0.70 49.55 LIG 0.07  A 
ATOM     21  CE1 TYR B3003       7.224  28.783  28.143  0.70 48.63 LIG 0.04  A 
ATOM     22  CD1 TYR B3003       8.587  28.594  28.347  0.70 49.33 LIG 0.01  A 
BRANCH 20 23
ATOM     23 OH   TYR B3003       5.063  27.885  27.676  0.70 50.92 LIG-0.36  OA
ATOM     24 HH   TYR B3003       4.748  28.291  28.340  0.70 50.92 LIG 0.22  HD
ENDBRANCH 20 23
ENDBRANCH 16 17
ENDBRANCH 12 16
ENDBRANCH 9 12
ENDBRANCH 4 8
BRANCH 1 25
ATOM     25  CA  TYR B3001      16.476  26.390  29.243  0.70 43.08 LIG 0.28  C 
BRANCH 25 26
ATOM     26  CB  TYR B3001      16.160  24.993  29.815  0.70 40.59 LIG 0.08  C 
BRANCH 26 27
ATOM     27  CG  TYR B3001      15.057  24.259  29.065  0.70 39.24 LIG-0.06  A 
ATOM     28  CD1 TYR B3001      13.851  24.895  28.756  0.70 40.30 LIG 0.01  A 
ATOM     29  CE1 TYR B3001      12.793  24.197  28.129  0.70 38.36 LIG 0.04  A 
ATOM     30  CZ  TYR B3001      12.949  22.852  27.805  0.70 37.05 LIG 0.07  A 
ATOM     31  CE2 TYR B3001      14.145  22.205  28.095  0.70 37.49 LIG 0.04  A 
ATOM     32  CD2 TYR B3001      15.190  22.911  28.720  0.70 38.19 LIG 0.01  A 
BRANCH 30 33
ATOM     33 OH   TYR B3001      11.915  22.150  27.220  0.70 32.30 LIG-0.36  OA
ATOM     34 HH   TYR B3001      12.185  21.791  26.510  0.70 32.30 LIG 0.22  HD
ENDBRANCH 30 33
ENDBRANCH 26 27
ENDBRANCH 25 26
BRANCH 25 35
ATOM     35  N   TYR B3001      17.784  26.873  29.777  0.70 42.81 LIG-0.07  N 
ATOM     36 H3   TYR B3001      18.302  27.135  29.102  0.70 42.81 LIG 0.28  HD
ATOM     37 H2   TYR B3001      18.185  26.214  30.220  0.70 42.81 LIG 0.28  HD
ATOM     38 H1   TYR B3001      17.645  27.559  30.326  0.70 42.81 LIG 0.28  HD
ENDBRANCH 25 35
ENDBRANCH 1 25
TORSDOF 11
ENDMDL
