MODEL 1
USER: ADFR SOLUTION from run 4
USER: SCORE 18.734167 LL:  -4.057 LR: -15.080 RR:   0.000 FEB:  -9.711
USER: RMSD 6.757063
USER: SEED 938946
USER: STATUS no improvement in best 2 clusters for 5 generations
USER: GENES 20
USER: genes 0 Translation |==|  0.55027 0.58101 0.51359
USER: genes 1 Rotation |==|  0.86815 0.82091 0.54682 0.59640
USER: genes 2 Torsion [C]-CA--N-[C] |==|  0.78438
USER: genes 3 Torsion [N]-C--CA-[N] |==|  0.87470
USER: genes 4 Torsion [C]-CA--CB-[CG] |==|  0.98105
USER: genes 5 Torsion [CA]-CB--CG-[CD] |==|  0.41221
USER: genes 6 Torsion [CB]-CG--CD-[OE1] |==|  0.82946
USER: genes 7 Torsion [C]-CA--N-[C] |==|  0.73982
USER: genes 8 Torsion [N]-C--CA-[N] |==|  0.38702
USER: genes 9 Torsion [C]-CA--N-[H3] |==|  0.17219
USER: genes 10 Torsion [C]-CA--CB-[CG2] |==|  0.14401
USER: genes 11 Torsion [CA]-CB--OG1-[HG1] |==|  0.22965
USER: genes 12 Torsion [N]-CA--CB-[CG] |==|  0.52164
USER: genes 13 Torsion [CA]-CB--CG-[CD2] |==|  0.11538
USER: genes 14 Torsion [N]-CA--C-[N] |==|  0.36888
USER: genes 15 Torsion [C]-N--CA-[C] |==|  0.75435
USER: genes 16 Torsion [N]-CA--CB-[SG] |==|  0.29053
USER: genes 17 Torsion [N]-CA--C-[N] |==|  0.46029
USER: genes 18 Torsion [C]-N--CA-[CB] |==|  0.27866
USER: genes 19 Torsion [N]-CA--C-[O] |==|  0.25746
ROOT
ATOM      1  CA  PHE D   5      -8.062  -1.930   3.918  1.00 26.58 LIG 0.18  C 
ENDROOT
BRANCH 1 2
ATOM      2  N   PHE D   5      -8.399  -3.313   3.609  1.00 35.71 LIG-0.35  N 
ATOM      3  C   GLU D   4      -7.693  -4.022   2.740  1.00 38.23 LIG 0.24  C 
ATOM      4 O    GLU D   4      -6.745  -3.557   2.123  1.00 38.91 LIG-0.27  OA
ATOM      5 H    PHE D   5      -9.082  -3.616   4.034  1.00 35.71 LIG 0.16  HD
BRANCH 3 6
ATOM      6  CA  GLU D   4      -8.147  -5.458   2.511  1.00 41.03 LIG 0.18  C 
BRANCH 6 7
ATOM      7  CB  GLU D   4      -9.376  -5.497   1.594  1.00 45.60 LIG 0.04  C 
BRANCH 7 8
ATOM      8  CG  GLU D   4      -9.968  -4.138   1.251  1.00 48.48 LIG 0.12  C 
BRANCH 8 9
ATOM      9  CD  GLU D   4     -10.598  -4.107  -0.136  1.00 50.69 LIG 0.17  C 
ATOM     10 OE1  GLU D   4      -9.868  -4.326  -1.126  1.00 53.00 LIG-0.65  OA
ATOM     11 OE2  GLU D   4     -11.820  -3.865  -0.240  1.00 50.91 LIG-0.65  OA
ENDBRANCH 8 9
ENDBRANCH 7 8
ENDBRANCH 6 7
BRANCH 6 12
ATOM     12  N   GLU D   4      -8.442  -6.139   3.764  1.00 42.32 LIG-0.35  N 
ATOM     13  C   THR D   3      -7.521  -6.871   4.381  1.00 42.71 LIG 0.25  C 
ATOM     14 O    THR D   3      -6.379  -7.014   3.940  1.00 42.89 LIG-0.27  OA
ATOM     15 H    GLU D   4      -9.243  -6.024   4.055  1.00 42.32 LIG 0.16  HD
BRANCH 13 16
ATOM     16  CA  THR D   3      -7.959  -7.552   5.679  1.00 43.40 LIG 0.30  C 
BRANCH 16 17
ATOM     17  N   THR D   3      -7.407  -8.936   5.760  1.00 40.96 LIG-0.06  N 
ATOM     18 H3   THR D   3      -6.518  -8.902   5.767  1.00 40.96 LIG 0.28  HD
ATOM     19 H2   THR D   3      -7.679  -9.406   5.055  1.00 40.96 LIG 0.28  HD
ATOM     20 H1   THR D   3      -7.695  -9.328   6.505  1.00 40.96 LIG 0.28  HD
ENDBRANCH 16 17
BRANCH 16 21
ATOM     21  CB  THR D   3      -7.499  -6.717   6.894  1.00 43.84 LIG 0.15  C 
ATOM     22  CG2 THR D   3      -7.942  -5.274   6.740  1.00 45.56 LIG 0.04  C 
BRANCH 21 23
ATOM     23 OG1  THR D   3      -8.041  -7.267   8.101  1.00 47.34 LIG-0.39  OA
ATOM     24 HG1  THR D   3      -7.560  -7.905   8.359  1.00 47.34 LIG 0.21  HD
ENDBRANCH 21 23
ENDBRANCH 16 21
ENDBRANCH 13 16
ENDBRANCH 6 12
ENDBRANCH 3 6
ENDBRANCH 1 2
BRANCH 1 25
ATOM     25  CB  PHE D   5      -9.281  -1.218   4.502  1.00 27.60 LIG 0.07  C 
BRANCH 25 26
ATOM     26  CG  PHE D   5      -9.081   0.259   4.678  1.00 27.05 LIG-0.06  A 
ATOM     27  CD1 PHE D   5      -9.555   0.907   5.814  1.00 25.07 LIG 0.01  A 
ATOM     28  CE1 PHE D   5      -9.388   2.279   5.972  1.00 26.61 LIG 0.00  A 
ATOM     29  CZ  PHE D   5      -8.741   3.016   4.989  1.00 27.22 LIG 0.00  A 
ATOM     30  CE2 PHE D   5      -8.262   2.380   3.848  1.00 29.34 LIG 0.00  A 
ATOM     31  CD2 PHE D   5      -8.436   1.004   3.699  1.00 26.26 LIG 0.01  A 
ENDBRANCH 25 26
ENDBRANCH 1 25
BRANCH 1 32
ATOM     32  C   PHE D   5      -6.875  -1.777   4.864  1.00 23.70 LIG 0.24  C 
ATOM     33  N   CYS D   6      -5.952  -0.894   4.507  1.00 21.13 LIG-0.34  N 
ATOM     34 H    CYS D   6      -5.975  -0.438   3.777  1.00 21.13 LIG 0.16  HD
ATOM     35 O    PHE D   5      -6.791  -2.449   5.893  1.00 21.21 LIG-0.27  OA
BRANCH 33 36
ATOM     36  CA  CYS D   6      -4.799  -0.624   5.354  1.00 20.21 LIG 0.19  C 
BRANCH 36 37
ATOM     37  CB  CYS D   6      -3.599  -0.132   4.544  1.00 23.91 LIG 0.12  C 
ATOM     38 SG   CYS D   6      -3.157   1.640   4.591  1.00 28.50 LIG-0.10  SA
ENDBRANCH 36 37
BRANCH 36 39
ATOM     39  C   CYS D   6      -5.230   0.484   6.306  1.00 23.47 LIG 0.24  C 
ATOM     40  N   ALA D   7      -4.453   0.698   7.360  1.00 20.97 LIG-0.34  N 
ATOM     41 H    ALA D   7      -3.738   0.251   7.529  1.00 20.97 LIG 0.16  HD
ATOM     42 O    CYS D   6      -6.254   1.134   6.083  1.00 21.16 LIG-0.27  OA
BRANCH 40 43
ATOM     43  CA  ALA D   7      -4.763   1.737   8.337  1.00 22.00 LIG 0.18  C 
ATOM     44  CB  ALA D   7      -5.418   1.125   9.562  1.00 24.79 LIG 0.04  C 
BRANCH 43 45
ATOM     45  C   ALA D   7      -3.494   2.479   8.738  1.00 23.22 LIG 0.20  C 
ATOM     46 O    ALA D   7      -3.195   3.515   8.106  1.00 20.96 LIG-0.65  OA
ATOM     47 OXT  ALA D   7      -2.820   2.015   9.681  1.00 20.40 LIG-0.65  OA
ENDBRANCH 43 45
ENDBRANCH 40 43
ENDBRANCH 36 39
ENDBRANCH 33 36
ENDBRANCH 1 32
TORSDOF 18
ENDMDL
MODEL 2
USER: ADFR SOLUTION from run 66
USER: SCORE 17.440511 LL:  -3.351 LR: -14.339 RR:   0.000 FEB:  -8.969
USER: RMSD 12.790740
USER: SEED 65
USER: STATUS no improvement in best 12 clusters for 5 generations
USER: GENES 20
USER: genes 0 Translation |==|  0.65400 0.69868 0.69470
USER: genes 1 Rotation |==|  0.24452 0.65272 0.79366 0.77417
USER: genes 2 Torsion [C]-CA--N-[C] |==|  0.63222
USER: genes 3 Torsion [N]-C--CA-[N] |==|  0.33449
USER: genes 4 Torsion [C]-CA--CB-[CG] |==|  0.85883
USER: genes 5 Torsion [CA]-CB--CG-[CD] |==|  0.49058
USER: genes 6 Torsion [CB]-CG--CD-[OE1] |==|  0.00084
USER: genes 7 Torsion [C]-CA--N-[C] |==|  0.81585
USER: genes 8 Torsion [N]-C--CA-[N] |==|  0.40922
USER: genes 9 Torsion [C]-CA--N-[H3] |==|  0.02863
USER: genes 10 Torsion [C]-CA--CB-[CG2] |==|  0.48379
USER: genes 11 Torsion [CA]-CB--OG1-[HG1] |==|  0.69801
USER: genes 12 Torsion [N]-CA--CB-[CG] |==|  0.49024
USER: genes 13 Torsion [CA]-CB--CG-[CD2] |==|  0.17634
USER: genes 14 Torsion [N]-CA--C-[N] |==|  0.45806
USER: genes 15 Torsion [C]-N--CA-[C] |==|  0.85556
USER: genes 16 Torsion [N]-CA--CB-[SG] |==|  0.88488
USER: genes 17 Torsion [N]-CA--C-[N] |==|  0.37569
USER: genes 18 Torsion [C]-N--CA-[CB] |==|  0.85316
USER: genes 19 Torsion [N]-CA--C-[O] |==|  0.61865
ROOT
ATOM      1  CA  PHE D   5      -4.950   1.600   9.351  1.00 26.58 LIG 0.18  C 
ENDROOT
BRANCH 1 2
ATOM      2  N   PHE D   5      -4.943   1.551  10.807  1.00 35.71 LIG-0.35  N 
ATOM      3  C   GLU D   4      -4.648   2.618  11.536  1.00 38.23 LIG 0.24  C 
ATOM      4 O    GLU D   4      -4.334   3.690  11.040  1.00 38.91 LIG-0.27  OA
ATOM      5 H    PHE D   5      -5.143   0.783  11.138  1.00 35.71 LIG 0.16  HD
BRANCH 3 6
ATOM      6  CA  GLU D   4      -4.681   2.434  13.048  1.00 41.03 LIG 0.18  C 
BRANCH 6 7
ATOM      7  CB  GLU D   4      -5.763   3.320  13.678  1.00 45.60 LIG 0.04  C 
BRANCH 7 8
ATOM      8  CG  GLU D   4      -5.719   4.784  13.265  1.00 48.48 LIG 0.12  C 
BRANCH 8 9
ATOM      9  CD  GLU D   4      -6.864   5.595  13.856  1.00 50.69 LIG 0.17  C 
ATOM     10 OE1  GLU D   4      -7.688   5.011  14.592  1.00 53.00 LIG-0.65  OA
ATOM     11 OE2  GLU D   4      -6.945   6.813  13.589  1.00 50.91 LIG-0.65  OA
ENDBRANCH 8 9
ENDBRANCH 7 8
ENDBRANCH 6 7
BRANCH 6 12
ATOM     12  N   GLU D   4      -3.389   2.722  13.656  1.00 42.32 LIG-0.35  N 
ATOM     13  C   THR D   3      -2.331   1.956  13.415  1.00 42.71 LIG 0.25  C 
ATOM     14 O    THR D   3      -2.376   0.973  12.673  1.00 42.89 LIG-0.27  OA
ATOM     15 H    GLU D   4      -3.380   3.413  14.168  1.00 42.32 LIG 0.16  HD
BRANCH 13 16
ATOM     16  CA  THR D   3      -1.036   2.351  14.129  1.00 43.40 LIG 0.30  C 
BRANCH 16 17
ATOM     17  N   THR D   3      -0.222   1.141  14.450  1.00 40.96 LIG-0.06  N 
ATOM     18 H3   THR D   3      -0.568   0.432  14.038  1.00 40.96 LIG 0.28  HD
ATOM     19 H2   THR D   3      -0.229   1.004  15.330  1.00 40.96 LIG 0.28  HD
ATOM     20 H1   THR D   3       0.615   1.265  14.177  1.00 40.96 LIG 0.28  HD
ENDBRANCH 16 17
BRANCH 16 21
ATOM     21  CB  THR D   3      -0.226   3.327  13.249  1.00 43.84 LIG 0.15  C 
ATOM     22  CG2 THR D   3       0.987   3.836  14.006  1.00 45.56 LIG 0.04  C 
BRANCH 21 23
ATOM     23 OG1  THR D   3       0.191   2.673  12.044  1.00 47.34 LIG-0.39  OA
ATOM     24 HG1  THR D   3       1.020   2.538  12.071  1.00 47.34 LIG 0.21  HD
ENDBRANCH 21 23
ENDBRANCH 16 21
ENDBRANCH 13 16
ENDBRANCH 6 12
ENDBRANCH 3 6
ENDBRANCH 1 2
BRANCH 1 25
ATOM     25  CB  PHE D   5      -3.697   0.920   8.803  1.00 27.60 LIG 0.07  C 
BRANCH 25 26
ATOM     26  CG  PHE D   5      -3.662   0.851   7.305  1.00 27.05 LIG-0.06  A 
ATOM     27  CD1 PHE D   5      -3.656  -0.378   6.653  1.00 25.07 LIG 0.01  A 
ATOM     28  CE1 PHE D   5      -3.605  -0.447   5.265  1.00 26.61 LIG 0.00  A 
ATOM     29  CZ  PHE D   5      -3.562   0.721   4.514  1.00 27.22 LIG 0.00  A 
ATOM     30  CE2 PHE D   5      -3.569   1.957   5.154  1.00 29.34 LIG 0.00  A 
ATOM     31  CD2 PHE D   5      -3.619   2.014   6.546  1.00 26.26 LIG 0.01  A 
ENDBRANCH 25 26
ENDBRANCH 1 25
BRANCH 1 32
ATOM     32  C   PHE D   5      -6.191   0.979   8.716  1.00 23.70 LIG 0.24  C 
ATOM     33  N   CYS D   6      -6.399   1.267   7.438  1.00 21.13 LIG-0.34  N 
ATOM     34 H    CYS D   6      -5.902   1.792   6.973  1.00 21.13 LIG 0.16  HD
ATOM     35 O    PHE D   5      -6.947   0.260   9.369  1.00 21.21 LIG-0.27  OA
BRANCH 33 36
ATOM     36  CA  CYS D   6      -7.523   0.692   6.710  1.00 20.21 LIG 0.19  C 
BRANCH 36 37
ATOM     37  CB  CYS D   6      -7.429   0.967   5.209  1.00 23.91 LIG 0.12  C 
ATOM     38 SG   CYS D   6      -6.895   2.617   4.635  1.00 28.50 LIG-0.10  SA
ENDBRANCH 36 37
BRANCH 36 39
ATOM     39  C   CYS D   6      -7.440  -0.812   6.935  1.00 23.47 LIG 0.24  C 
ATOM     40  N   ALA D   7      -8.576  -1.432   7.230  1.00 20.97 LIG-0.34  N 
ATOM     41 H    ALA D   7      -9.335  -1.036   7.302  1.00 20.97 LIG 0.16  HD
ATOM     42 O    CYS D   6      -6.360  -1.398   6.841  1.00 21.16 LIG-0.27  OA
BRANCH 40 43
ATOM     43  CA  ALA D   7      -8.619  -2.873   7.461  1.00 22.00 LIG 0.18  C 
ATOM     44  CB  ALA D   7      -7.981  -3.609   6.296  1.00 24.79 LIG 0.04  C 
BRANCH 43 45
ATOM     45  C   ALA D   7      -7.899  -3.221   8.758  1.00 23.22 LIG 0.20  C 
ATOM     46 O    ALA D   7      -7.147  -4.219   8.762  1.00 20.96 LIG-0.65  OA
ATOM     47 OXT  ALA D   7      -8.094  -2.486   9.748  1.00 20.40 LIG-0.65  OA
ENDBRANCH 43 45
ENDBRANCH 40 43
ENDBRANCH 36 39
ENDBRANCH 33 36
ENDBRANCH 1 32
TORSDOF 18
ENDMDL
MODEL 3
USER: ADFR SOLUTION from run 45
USER: SCORE 17.425127 LL:  -3.625 LR: -14.238 RR:   0.000 FEB:  -8.868
USER: RMSD 12.525872
USER: SEED 44
USER: STATUS searching
USER: GENES 20
USER: genes 0 Translation |==|  0.66512 0.71690 0.71639
USER: genes 1 Rotation |==|  0.38327 0.56118 0.90312 0.76480
USER: genes 2 Torsion [C]-CA--N-[C] |==|  0.62732
USER: genes 3 Torsion [N]-C--CA-[N] |==|  0.39873
USER: genes 4 Torsion [C]-CA--CB-[CG] |==|  0.32092
USER: genes 5 Torsion [CA]-CB--CG-[CD] |==|  0.70967
USER: genes 6 Torsion [CB]-CG--CD-[OE1] |==|  0.04100
USER: genes 7 Torsion [C]-CA--N-[C] |==|  0.83333
USER: genes 8 Torsion [N]-C--CA-[N] |==|  0.30805
USER: genes 9 Torsion [C]-CA--N-[H3] |==|  0.46102
USER: genes 10 Torsion [C]-CA--CB-[CG2] |==|  0.20975
USER: genes 11 Torsion [CA]-CB--OG1-[HG1] |==|  0.19654
USER: genes 12 Torsion [N]-CA--CB-[CG] |==|  0.22288
USER: genes 13 Torsion [CA]-CB--CG-[CD2] |==|  0.85703
USER: genes 14 Torsion [N]-CA--C-[N] |==|  0.38510
USER: genes 15 Torsion [C]-N--CA-[C] |==|  0.76495
USER: genes 16 Torsion [N]-CA--CB-[SG] |==|  0.98114
USER: genes 17 Torsion [N]-CA--C-[N] |==|  0.18382
USER: genes 18 Torsion [C]-N--CA-[CB] |==|  0.81084
USER: genes 19 Torsion [N]-CA--C-[O] |==|  0.75135
ROOT
ATOM      1  CA  PHE D   5      -4.617   2.147  10.002  1.00 26.58 LIG 0.18  C 
ENDROOT
BRANCH 1 2
ATOM      2  N   PHE D   5      -3.991   1.336  11.038  1.00 35.71 LIG-0.35  N 
ATOM      3  C   GLU D   4      -3.542   1.872  12.163  1.00 38.23 LIG 0.24  C 
ATOM      4 O    GLU D   4      -3.592   3.073  12.388  1.00 38.91 LIG-0.27  OA
ATOM      5 H    PHE D   5      -3.943   0.498  10.852  1.00 35.71 LIG 0.16  HD
BRANCH 3 6
ATOM      6  CA  GLU D   4      -2.913   0.914  13.166  1.00 41.03 LIG 0.18  C 
BRANCH 6 7
ATOM      7  CB  GLU D   4      -3.955   0.439  14.187  1.00 45.60 LIG 0.04  C 
BRANCH 7 8
ATOM      8  CG  GLU D   4      -4.263  -1.051  14.147  1.00 48.48 LIG 0.12  C 
BRANCH 8 9
ATOM      9  CD  GLU D   4      -5.604  -1.354  13.490  1.00 50.69 LIG 0.17  C 
ATOM     10 OE1  GLU D   4      -6.157  -0.454  12.824  1.00 53.00 LIG-0.65  OA
ATOM     11 OE2  GLU D   4      -6.106  -2.490  13.636  1.00 50.91 LIG-0.65  OA
ENDBRANCH 8 9
ENDBRANCH 7 8
ENDBRANCH 6 7
BRANCH 6 12
ATOM     12  N   GLU D   4      -1.782   1.519  13.857  1.00 42.32 LIG-0.35  N 
ATOM     13  C   THR D   3      -0.719   1.949  13.187  1.00 42.71 LIG 0.25  C 
ATOM     14 O    THR D   3      -0.627   1.867  11.961  1.00 42.89 LIG-0.27  OA
ATOM     15 H    GLU D   4      -1.869   1.569  14.711  1.00 42.32 LIG 0.16  HD
BRANCH 13 16
ATOM     16  CA  THR D   3       0.411   2.547  14.028  1.00 43.40 LIG 0.30  C 
BRANCH 16 17
ATOM     17  N   THR D   3       1.608   1.657  14.010  1.00 40.96 LIG-0.06  N 
ATOM     18 H3   THR D   3       2.313   2.100  14.325  1.00 40.96 LIG 0.28  HD
ATOM     19 H2   THR D   3       1.772   1.395  13.176  1.00 40.96 LIG 0.28  HD
ATOM     20 H1   THR D   3       1.456   0.943  14.520  1.00 40.96 LIG 0.28  HD
ENDBRANCH 16 17
BRANCH 16 21
ATOM     21  CB  THR D   3       0.776   3.951  13.499  1.00 43.84 LIG 0.15  C 
ATOM     22  CG2 THR D   3      -0.278   4.962  13.915  1.00 45.56 LIG 0.04  C 
BRANCH 21 23
ATOM     23 OG1  THR D   3       2.057   4.348  14.003  1.00 47.34 LIG-0.39  OA
ATOM     24 HG1  THR D   3       2.657   3.890  13.635  1.00 47.34 LIG 0.21  HD
ENDBRANCH 21 23
ENDBRANCH 16 21
ENDBRANCH 13 16
ENDBRANCH 6 12
ENDBRANCH 3 6
ENDBRANCH 1 2
BRANCH 1 25
ATOM     25  CB  PHE D   5      -3.626   2.388   8.864  1.00 27.60 LIG 0.07  C 
BRANCH 25 26
ATOM     26  CG  PHE D   5      -3.515   1.231   7.915  1.00 27.05 LIG-0.06  A 
ATOM     27  CD1 PHE D   5      -3.664   1.422   6.545  1.00 25.07 LIG 0.01  A 
ATOM     28  CE1 PHE D   5      -3.580   0.348   5.664  1.00 26.61 LIG 0.00  A 
ATOM     29  CZ  PHE D   5      -3.343  -0.930   6.151  1.00 27.22 LIG 0.00  A 
ATOM     30  CE2 PHE D   5      -3.190  -1.135   7.519  1.00 29.34 LIG 0.00  A 
ATOM     31  CD2 PHE D   5      -3.277  -0.052   8.393  1.00 26.26 LIG 0.01  A 
ENDBRANCH 25 26
ENDBRANCH 1 25
BRANCH 1 32
ATOM     32  C   PHE D   5      -5.906   1.552   9.443  1.00 23.70 LIG 0.24  C 
ATOM     33  N   CYS D   6      -6.898   2.406   9.229  1.00 21.13 LIG-0.34  N 
ATOM     34 H    CYS D   6      -6.862   3.246   9.410  1.00 21.13 LIG 0.16  HD
ATOM     35 O    PHE D   5      -6.004   0.346   9.217  1.00 21.21 LIG-0.27  OA
BRANCH 33 36
ATOM     36  CA  CYS D   6      -8.160   1.964   8.651  1.00 20.21 LIG 0.19  C 
BRANCH 36 37
ATOM     37  CB  CYS D   6      -9.308   2.914   8.995  1.00 23.91 LIG 0.12  C 
ATOM     38 SG   CYS D   6      -9.013   4.281  10.171  1.00 28.50 LIG-0.10  SA
ENDBRANCH 36 37
BRANCH 36 39
ATOM     39  C   CYS D   6      -7.955   1.976   7.142  1.00 23.47 LIG 0.24  C 
ATOM     40  N   ALA D   7      -7.082   1.104   6.654  1.00 20.97 LIG-0.34  N 
ATOM     41 H    ALA D   7      -6.636   0.549   7.137  1.00 20.97 LIG 0.16  HD
ATOM     42 O    CYS D   6      -8.582   2.766   6.433  1.00 21.16 LIG-0.27  OA
BRANCH 40 43
ATOM     43  CA  ALA D   7      -6.807   1.019   5.223  1.00 22.00 LIG 0.18  C 
ATOM     44  CB  ALA D   7      -8.024   0.487   4.487  1.00 24.79 LIG 0.04  C 
BRANCH 43 45
ATOM     45  C   ALA D   7      -6.424   2.390   4.678  1.00 23.22 LIG 0.20  C 
ATOM     46 O    ALA D   7      -7.339   3.132   4.261  1.00 20.96 LIG-0.65  OA
ATOM     47 OXT  ALA D   7      -5.215   2.702   4.682  1.00 20.40 LIG-0.65  OA
ENDBRANCH 43 45
ENDBRANCH 40 43
ENDBRANCH 36 39
ENDBRANCH 33 36
ENDBRANCH 1 32
TORSDOF 18
ENDMDL
MODEL 4
USER: ADFR SOLUTION from run 14
USER: SCORE 16.266608 LL:  -4.074 LR: -14.116 RR:   0.000 FEB:  -8.747
USER: RMSD 13.496300
USER: SEED 984103
USER: STATUS no improvement in best 3 clusters for 5 generations
USER: GENES 20
USER: genes 0 Translation |==|  0.72367 0.69813 0.70558
USER: genes 1 Rotation |==|  0.45225 0.76656 0.69956 0.86992
USER: genes 2 Torsion [C]-CA--N-[C] |==|  0.89348
USER: genes 3 Torsion [N]-C--CA-[N] |==|  0.27150
USER: genes 4 Torsion [C]-CA--CB-[CG] |==|  0.31366
USER: genes 5 Torsion [CA]-CB--CG-[CD] |==|  0.83547
USER: genes 6 Torsion [CB]-CG--CD-[OE1] |==|  0.95072
USER: genes 7 Torsion [C]-CA--N-[C] |==|  0.17182
USER: genes 8 Torsion [N]-C--CA-[N] |==|  0.09063
USER: genes 9 Torsion [C]-CA--N-[H3] |==|  0.45571
USER: genes 10 Torsion [C]-CA--CB-[CG2] |==|  0.51449
USER: genes 11 Torsion [CA]-CB--OG1-[HG1] |==|  0.62413
USER: genes 12 Torsion [N]-CA--CB-[CG] |==|  0.42414
USER: genes 13 Torsion [CA]-CB--CG-[CD2] |==|  0.20187
USER: genes 14 Torsion [N]-CA--C-[N] |==|  0.88483
USER: genes 15 Torsion [C]-N--CA-[C] |==|  0.67485
USER: genes 16 Torsion [N]-CA--CB-[SG] |==|  0.04216
USER: genes 17 Torsion [N]-CA--C-[N] |==|  0.27903
USER: genes 18 Torsion [C]-N--CA-[CB] |==|  0.26793
USER: genes 19 Torsion [N]-CA--C-[O] |==|  0.96750
ROOT
ATOM      1  CA  PHE D   5      -2.860   1.584   9.677  1.00 26.58 LIG 0.18  C 
ENDROOT
BRANCH 1 2
ATOM      2  N   PHE D   5      -2.546   0.932  10.942  1.00 35.71 LIG-0.35  N 
ATOM      3  C   GLU D   4      -2.754   1.534  12.104  1.00 38.23 LIG 0.24  C 
ATOM      4 O    GLU D   4      -3.186   2.675  12.188  1.00 38.91 LIG-0.27  OA
ATOM      5 H    PHE D   5      -2.221   0.140  10.863  1.00 35.71 LIG 0.16  HD
BRANCH 3 6
ATOM      6  CA  GLU D   4      -2.388   0.742  13.352  1.00 41.03 LIG 0.18  C 
BRANCH 6 7
ATOM      7  CB  GLU D   4      -3.442   0.941  14.448  1.00 45.60 LIG 0.04  C 
BRANCH 7 8
ATOM      8  CG  GLU D   4      -4.257  -0.299  14.791  1.00 48.48 LIG 0.12  C 
BRANCH 8 9
ATOM      9  CD  GLU D   4      -5.019  -0.849  13.593  1.00 50.69 LIG 0.17  C 
ATOM     10 OE1  GLU D   4      -5.190  -0.105  12.604  1.00 53.00 LIG-0.65  OA
ATOM     11 OE2  GLU D   4      -5.446  -2.023  13.635  1.00 50.91 LIG-0.65  OA
ENDBRANCH 8 9
ENDBRANCH 7 8
ENDBRANCH 6 7
BRANCH 6 12
ATOM     12  N   GLU D   4      -1.072   1.108  13.859  1.00 42.32 LIG-0.35  N 
ATOM     13  C   THR D   3      -0.814   2.344  14.271  1.00 42.71 LIG 0.25  C 
ATOM     14 O    THR D   3      -1.660   3.241  14.253  1.00 42.89 LIG-0.27  OA
ATOM     15 H    GLU D   4      -0.499   0.467  13.864  1.00 42.32 LIG 0.16  HD
BRANCH 13 16
ATOM     16  CA  THR D   3       0.611   2.608  14.762  1.00 43.40 LIG 0.30  C 
BRANCH 16 17
ATOM     17  N   THR D   3       1.590   1.769  14.010  1.00 40.96 LIG-0.06  N 
ATOM     18 H3   THR D   3       2.412   2.089  14.133  1.00 40.96 LIG 0.28  HD
ATOM     19 H2   THR D   3       1.393   1.788  13.142  1.00 40.96 LIG 0.28  HD
ATOM     20 H1   THR D   3       1.552   0.931  14.305  1.00 40.96 LIG 0.28  HD
ENDBRANCH 16 17
BRANCH 16 21
ATOM     21  CB  THR D   3       0.953   4.106  14.607  1.00 43.84 LIG 0.15  C 
ATOM     22  CG2 THR D   3       2.405   4.355  14.970  1.00 45.56 LIG 0.04  C 
BRANCH 21 23
ATOM     23 OG1  THR D   3       0.709   4.529  13.260  1.00 47.34 LIG-0.39  OA
ATOM     24 HG1  THR D   3       1.352   4.998  12.993  1.00 47.34 LIG 0.21  HD
ENDBRANCH 21 23
ENDBRANCH 16 21
ENDBRANCH 13 16
ENDBRANCH 6 12
ENDBRANCH 3 6
ENDBRANCH 1 2
BRANCH 1 25
ATOM     25  CB  PHE D   5      -2.953   0.540   8.566  1.00 27.60 LIG 0.07  C 
BRANCH 25 26
ATOM     26  CG  PHE D   5      -3.859   0.946   7.441  1.00 27.05 LIG-0.06  A 
ATOM     27  CD1 PHE D   5      -5.093   0.327   7.268  1.00 25.07 LIG 0.01  A 
ATOM     28  CE1 PHE D   5      -5.928   0.687   6.215  1.00 26.61 LIG 0.00  A 
ATOM     29  CZ  PHE D   5      -5.532   1.677   5.325  1.00 27.22 LIG 0.00  A 
ATOM     30  CE2 PHE D   5      -4.301   2.304   5.487  1.00 29.34 LIG 0.00  A 
ATOM     31  CD2 PHE D   5      -3.471   1.935   6.545  1.00 26.26 LIG 0.01  A 
ENDBRANCH 25 26
ENDBRANCH 1 25
BRANCH 1 32
ATOM     32  C   PHE D   5      -4.139   2.415   9.710  1.00 23.70 LIG 0.24  C 
ATOM     33  N   CYS D   6      -5.167   1.881  10.356  1.00 21.13 LIG-0.34  N 
ATOM     34 H    CYS D   6      -5.157   1.102  10.721  1.00 21.13 LIG 0.16  HD
ATOM     35 O    PHE D   5      -4.198   3.514   9.157  1.00 21.21 LIG-0.27  OA
BRANCH 33 36
ATOM     36  CA  CYS D   6      -6.425   2.601  10.497  1.00 20.21 LIG 0.19  C 
BRANCH 36 37
ATOM     37  CB  CYS D   6      -7.609   1.790   9.970  1.00 23.91 LIG 0.12  C 
ATOM     38 SG   CYS D   6      -7.400   0.001   9.667  1.00 28.50 LIG-0.10  SA
ENDBRANCH 36 37
BRANCH 36 39
ATOM     39  C   CYS D   6      -6.614   2.822  11.992  1.00 23.47 LIG 0.24  C 
ATOM     40  N   ALA D   7      -6.301   4.023  12.460  1.00 20.97 LIG-0.34  N 
ATOM     41 H    ALA D   7      -6.001   4.666  11.973  1.00 20.97 LIG 0.16  HD
ATOM     42 O    CYS D   6      -7.039   1.913  12.708  1.00 21.16 LIG-0.27  OA
BRANCH 40 43
ATOM     43  CA  ALA D   7      -6.446   4.352  13.875  1.00 22.00 LIG 0.18  C 
ATOM     44  CB  ALA D   7      -5.118   4.180  14.591  1.00 24.79 LIG 0.04  C 
BRANCH 43 45
ATOM     45  C   ALA D   7      -6.945   5.783  14.035  1.00 23.22 LIG 0.20  C 
ATOM     46 O    ALA D   7      -6.942   6.522  13.027  1.00 20.96 LIG-0.65  OA
ATOM     47 OXT  ALA D   7      -7.336   6.141  15.165  1.00 20.40 LIG-0.65  OA
ENDBRANCH 43 45
ENDBRANCH 40 43
ENDBRANCH 36 39
ENDBRANCH 33 36
ENDBRANCH 1 32
TORSDOF 18
ENDMDL
MODEL 5
USER: ADFR SOLUTION from run 138
USER: SCORE 16.842335 LL:  -3.513 LR: -14.015 RR:   0.000 FEB:  -8.646
USER: RMSD 12.320529
USER: SEED 137
USER: STATUS no improvement in best 7 clusters for 5 generations
USER: GENES 20
USER: genes 0 Translation |==|  0.65358 0.71388 0.70235
USER: genes 1 Rotation |==|  0.35985 0.56612 0.89991 0.75701
USER: genes 2 Torsion [C]-CA--N-[C] |==|  0.61217
USER: genes 3 Torsion [N]-C--CA-[N] |==|  0.40885
USER: genes 4 Torsion [C]-CA--CB-[CG] |==|  0.37596
USER: genes 5 Torsion [CA]-CB--CG-[CD] |==|  0.71252
USER: genes 6 Torsion [CB]-CG--CD-[OE1] |==|  0.00729
USER: genes 7 Torsion [C]-CA--N-[C] |==|  0.80828
USER: genes 8 Torsion [N]-C--CA-[N] |==|  0.37877
USER: genes 9 Torsion [C]-CA--N-[H3] |==|  0.45525
USER: genes 10 Torsion [C]-CA--CB-[CG2] |==|  0.22625
USER: genes 11 Torsion [CA]-CB--OG1-[HG1] |==|  0.20173
USER: genes 12 Torsion [N]-CA--CB-[CG] |==|  0.21292
USER: genes 13 Torsion [CA]-CB--CG-[CD2] |==|  0.86244
USER: genes 14 Torsion [N]-CA--C-[N] |==|  0.56665
USER: genes 15 Torsion [C]-N--CA-[C] |==|  0.83399
USER: genes 16 Torsion [N]-CA--CB-[SG] |==|  0.06494
USER: genes 17 Torsion [N]-CA--C-[N] |==|  0.40672
USER: genes 18 Torsion [C]-N--CA-[CB] |==|  0.86316
USER: genes 19 Torsion [N]-CA--C-[O] |==|  0.60093
ROOT
ATOM      1  CA  PHE D   5      -4.963   2.056   9.580  1.00 26.58 LIG 0.18  C 
ENDROOT
BRANCH 1 2
ATOM      2  N   PHE D   5      -4.387   1.341  10.712  1.00 35.71 LIG-0.35  N 
ATOM      3  C   GLU D   4      -3.927   1.981  11.777  1.00 38.23 LIG 0.24  C 
ATOM      4 O    GLU D   4      -3.924   3.201  11.864  1.00 38.91 LIG-0.27  OA
ATOM      5 H    PHE D   5      -4.376   0.486  10.623  1.00 35.71 LIG 0.16  HD
BRANCH 3 6
ATOM      6  CA  GLU D   4      -3.355   1.116  12.892  1.00 41.03 LIG 0.18  C 
BRANCH 6 7
ATOM      7  CB  GLU D   4      -4.451   0.732  13.895  1.00 45.60 LIG 0.04  C 
BRANCH 7 8
ATOM      8  CG  GLU D   4      -4.448  -0.728  14.325  1.00 48.48 LIG 0.12  C 
BRANCH 8 9
ATOM      9  CD  GLU D   4      -5.545  -1.540  13.649  1.00 50.69 LIG 0.17  C 
ATOM     10 OE1  GLU D   4      -6.274  -0.970  12.809  1.00 53.00 LIG-0.65  OA
ATOM     11 OE2  GLU D   4      -5.682  -2.744  13.953  1.00 50.91 LIG-0.65  OA
ENDBRANCH 8 9
ENDBRANCH 7 8
ENDBRANCH 6 7
BRANCH 6 12
ATOM     12  N   GLU D   4      -2.260   1.781  13.585  1.00 42.32 LIG-0.35  N 
ATOM     13  C   THR D   3      -1.095   1.992  12.984  1.00 42.71 LIG 0.25  C 
ATOM     14 O    THR D   3      -0.874   1.647  11.821  1.00 42.89 LIG-0.27  OA
ATOM     15 H    GLU D   4      -2.437   2.015  14.394  1.00 42.32 LIG 0.16  HD
BRANCH 13 16
ATOM     16  CA  THR D   3      -0.018   2.682  13.824  1.00 43.40 LIG 0.30  C 
BRANCH 16 17
ATOM     17  N   THR D   3       1.304   2.015  13.635  1.00 40.96 LIG-0.06  N 
ATOM     18 H3   THR D   3       1.952   2.549  13.931  1.00 40.96 LIG 0.28  HD
ATOM     19 H2   THR D   3       1.432   1.847  12.770  1.00 40.96 LIG 0.28  HD
ATOM     20 H1   THR D   3       1.320   1.251  14.090  1.00 40.96 LIG 0.28  HD
ENDBRANCH 16 17
BRANCH 16 21
ATOM     21  CB  THR D   3       0.073   4.175  13.442  1.00 43.84 LIG 0.15  C 
ATOM     22  CG2 THR D   3      -1.012   4.967  14.149  1.00 45.56 LIG 0.04  C 
BRANCH 21 23
ATOM     23 OG1  THR D   3       1.362   4.694  13.793  1.00 47.34 LIG-0.39  OA
ATOM     24 HG1  THR D   3       1.939   4.393  13.261  1.00 47.34 LIG 0.21  HD
ENDBRANCH 21 23
ENDBRANCH 16 21
ENDBRANCH 13 16
ENDBRANCH 6 12
ENDBRANCH 3 6
ENDBRANCH 1 2
BRANCH 1 25
ATOM     25  CB  PHE D   5      -3.906   2.240   8.493  1.00 27.60 LIG 0.07  C 
BRANCH 25 26
ATOM     26  CG  PHE D   5      -3.646   0.995   7.698  1.00 27.05 LIG-0.06  A 
ATOM     27  CD1 PHE D   5      -3.662   1.026   6.307  1.00 25.07 LIG 0.01  A 
ATOM     28  CE1 PHE D   5      -3.440  -0.131   5.566  1.00 26.61 LIG 0.00  A 
ATOM     29  CZ  PHE D   5      -3.196  -1.333   6.217  1.00 27.22 LIG 0.00  A 
ATOM     30  CE2 PHE D   5      -3.175  -1.378   7.607  1.00 29.34 LIG 0.00  A 
ATOM     31  CD2 PHE D   5      -3.401  -0.213   8.340  1.00 26.26 LIG 0.01  A 
ENDBRANCH 25 26
ENDBRANCH 1 25
BRANCH 1 32
ATOM     32  C   PHE D   5      -6.199   1.387   8.988  1.00 23.70 LIG 0.24  C 
ATOM     33  N   CYS D   6      -6.469   1.675   7.721  1.00 21.13 LIG-0.34  N 
ATOM     34 H    CYS D   6      -6.013   2.225   7.242  1.00 21.13 LIG 0.16  HD
ATOM     35 O    PHE D   5      -6.898   0.631   9.663  1.00 21.21 LIG-0.27  OA
BRANCH 33 36
ATOM     36  CA  CYS D   6      -7.594   1.058   7.032  1.00 20.21 LIG 0.19  C 
BRANCH 36 37
ATOM     37  CB  CYS D   6      -7.679   1.500   5.571  1.00 23.91 LIG 0.12  C 
ATOM     38 SG   CYS D   6      -6.175   2.112   4.734  1.00 28.50 LIG-0.10  SA
ENDBRANCH 36 37
BRANCH 36 39
ATOM     39  C   CYS D   6      -7.335  -0.442   7.071  1.00 23.47 LIG 0.24  C 
ATOM     40  N   ALA D   7      -8.401  -1.227   7.160  1.00 20.97 LIG-0.34  N 
ATOM     41 H    ALA D   7      -9.210  -0.938   7.200  1.00 20.97 LIG 0.16  HD
ATOM     42 O    CYS D   6      -6.183  -0.878   7.018  1.00 21.16 LIG-0.27  OA
BRANCH 40 43
ATOM     43  CA  ALA D   7      -8.275  -2.682   7.199  1.00 22.00 LIG 0.18  C 
ATOM     44  CB  ALA D   7      -7.371  -3.159   6.077  1.00 24.79 LIG 0.04  C 
BRANCH 43 45
ATOM     45  C   ALA D   7      -7.718  -3.126   8.546  1.00 23.22 LIG 0.20  C 
ATOM     46 O    ALA D   7      -6.934  -4.099   8.565  1.00 20.96 LIG-0.65  OA
ATOM     47 OXT  ALA D   7      -8.070  -2.491   9.562  1.00 20.40 LIG-0.65  OA
ENDBRANCH 43 45
ENDBRANCH 40 43
ENDBRANCH 36 39
ENDBRANCH 33 36
ENDBRANCH 1 32
TORSDOF 18
ENDMDL
MODEL 6
USER: ADFR SOLUTION from run 64
USER: SCORE 17.455845 LL:  -4.180 LR: -13.865 RR:   0.000 FEB:  -8.496
USER: RMSD 6.247867
USER: SEED 63
USER: STATUS searching
USER: GENES 20
USER: genes 0 Translation |==|  0.55879 0.56910 0.52343
USER: genes 1 Rotation |==|  0.84503 0.84490 0.51825 0.60799
USER: genes 2 Torsion [C]-CA--N-[C] |==|  0.73489
USER: genes 3 Torsion [N]-C--CA-[N] |==|  0.39684
USER: genes 4 Torsion [C]-CA--CB-[CG] |==|  0.30800
USER: genes 5 Torsion [CA]-CB--CG-[CD] |==|  0.86575
USER: genes 6 Torsion [CB]-CG--CD-[OE1] |==|  0.70336
USER: genes 7 Torsion [C]-CA--N-[C] |==|  0.52778
USER: genes 8 Torsion [N]-C--CA-[N] |==|  0.39558
USER: genes 9 Torsion [C]-CA--N-[H3] |==|  0.62186
USER: genes 10 Torsion [C]-CA--CB-[CG2] |==|  0.20407
USER: genes 11 Torsion [CA]-CB--OG1-[HG1] |==|  0.42849
USER: genes 12 Torsion [N]-CA--CB-[CG] |==|  0.50361
USER: genes 13 Torsion [CA]-CB--CG-[CD2] |==|  0.61552
USER: genes 14 Torsion [N]-CA--C-[N] |==|  0.35669
USER: genes 15 Torsion [C]-N--CA-[C] |==|  0.79777
USER: genes 16 Torsion [N]-CA--CB-[SG] |==|  0.28256
USER: genes 17 Torsion [N]-CA--C-[N] |==|  0.44857
USER: genes 18 Torsion [C]-N--CA-[CB] |==|  0.25861
USER: genes 19 Torsion [N]-CA--C-[O] |==|  0.24618
ROOT
ATOM      1  CA  PHE D   5      -7.806  -2.287   4.213  1.00 26.58 LIG 0.18  C 
ENDROOT
BRANCH 1 2
ATOM      2  N   PHE D   5      -8.009  -3.726   4.112  1.00 35.71 LIG-0.35  N 
ATOM      3  C   GLU D   4      -7.553  -4.421   3.080  1.00 38.23 LIG 0.24  C 
ATOM      4 O    GLU D   4      -6.968  -3.901   2.141  1.00 38.91 LIG-0.27  OA
ATOM      5 H    PHE D   5      -8.443  -4.071   4.769  1.00 35.71 LIG 0.16  HD
BRANCH 3 6
ATOM      6  CA  GLU D   4      -7.828  -5.919   3.098  1.00 41.03 LIG 0.18  C 
BRANCH 6 7
ATOM      7  CB  GLU D   4      -6.642  -6.680   3.704  1.00 45.60 LIG 0.04  C 
BRANCH 7 8
ATOM      8  CG  GLU D   4      -6.908  -7.314   5.061  1.00 48.48 LIG 0.12  C 
BRANCH 8 9
ATOM      9  CD  GLU D   4      -7.562  -6.349   6.041  1.00 50.69 LIG 0.17  C 
ATOM     10 OE1  GLU D   4      -6.871  -5.890   6.975  1.00 53.00 LIG-0.65  OA
ATOM     11 OE2  GLU D   4      -8.764  -6.044   5.880  1.00 50.91 LIG-0.65  OA
ENDBRANCH 8 9
ENDBRANCH 7 8
ENDBRANCH 6 7
BRANCH 6 12
ATOM     12  N   GLU D   4      -8.118  -6.432   1.766  1.00 42.32 LIG-0.35  N 
ATOM     13  C   THR D   3      -8.576  -7.666   1.590  1.00 42.71 LIG 0.25  C 
ATOM     14 O    THR D   3      -8.782  -8.439   2.527  1.00 42.89 LIG-0.27  OA
ATOM     15 H    GLU D   4      -7.969  -5.875   1.127  1.00 42.32 LIG 0.16  HD
BRANCH 13 16
ATOM     16  CA  THR D   3      -8.823  -8.094   0.142  1.00 43.40 LIG 0.30  C 
BRANCH 16 17
ATOM     17  N   THR D   3      -8.445  -9.524  -0.057  1.00 40.96 LIG-0.06  N 
ATOM     18 H3   THR D   3      -7.991  -9.609  -0.818  1.00 40.96 LIG 0.28  HD
ATOM     19 H2   THR D   3      -9.181 -10.023  -0.094  1.00 40.96 LIG 0.28  HD
ATOM     20 H1   THR D   3      -7.938  -9.794   0.622  1.00 40.96 LIG 0.28  HD
ENDBRANCH 16 17
BRANCH 16 21
ATOM     21  CB  THR D   3     -10.305  -7.872  -0.228  1.00 43.84 LIG 0.15  C 
ATOM     22  CG2 THR D   3     -10.589  -6.391  -0.405  1.00 45.56 LIG 0.04  C 
BRANCH 21 23
ATOM     23 OG1  THR D   3     -10.621  -8.576  -1.436  1.00 47.34 LIG-0.39  OA
ATOM     24 HG1  THR D   3     -11.442  -8.753  -1.450  1.00 47.34 LIG 0.21  HD
ENDBRANCH 21 23
ENDBRANCH 16 21
ENDBRANCH 13 16
ENDBRANCH 6 12
ENDBRANCH 3 6
ENDBRANCH 1 2
BRANCH 1 25
ATOM     25  CB  PHE D   5      -9.059  -1.626   4.785  1.00 27.60 LIG 0.07  C 
BRANCH 25 26
ATOM     26  CG  PHE D   5      -8.949  -0.134   4.895  1.00 27.05 LIG-0.06  A 
ATOM     27  CD1 PHE D   5      -8.347   0.608   3.883  1.00 25.07 LIG 0.01  A 
ATOM     28  CE1 PHE D   5      -8.226   1.990   3.990  1.00 26.61 LIG 0.00  A 
ATOM     29  CZ  PHE D   5      -8.711   2.643   5.116  1.00 27.22 LIG 0.00  A 
ATOM     30  CE2 PHE D   5      -9.316   1.913   6.134  1.00 29.34 LIG 0.00  A 
ATOM     31  CD2 PHE D   5      -9.431   0.528   6.018  1.00 26.26 LIG 0.01  A 
ENDBRANCH 25 26
ENDBRANCH 1 25
BRANCH 1 32
ATOM     32  C   PHE D   5      -6.591  -1.890   5.045  1.00 23.70 LIG 0.24  C 
ATOM     33  N   CYS D   6      -5.743  -1.045   4.473  1.00 21.13 LIG-0.34  N 
ATOM     34 H    CYS D   6      -5.826  -0.742   3.672  1.00 21.13 LIG 0.16  HD
ATOM     35 O    PHE D   5      -6.419  -2.342   6.177  1.00 21.21 LIG-0.27  OA
BRANCH 33 36
ATOM     36  CA  CYS D   6      -4.572  -0.554   5.188  1.00 20.21 LIG 0.19  C 
BRANCH 36 37
ATOM     37  CB  CYS D   6      -3.606   0.183   4.260  1.00 23.91 LIG 0.12  C 
ATOM     38 SG   CYS D   6      -3.585   2.010   4.262  1.00 28.50 LIG-0.10  SA
ENDBRANCH 36 37
BRANCH 36 39
ATOM     39  C   CYS D   6      -5.098   0.431   6.223  1.00 23.47 LIG 0.24  C 
ATOM     40  N   ALA D   7      -4.287   0.722   7.233  1.00 20.97 LIG-0.34  N 
ATOM     41 H    ALA D   7      -3.501   0.388   7.330  1.00 20.97 LIG 0.16  HD
ATOM     42 O    CYS D   6      -6.224   0.920   6.105  1.00 21.16 LIG-0.27  OA
BRANCH 40 43
ATOM     43  CA  ALA D   7      -4.681   1.658   8.282  1.00 22.00 LIG 0.18  C 
ATOM     44  CB  ALA D   7      -5.305   0.907   9.445  1.00 24.79 LIG 0.04  C 
BRANCH 43 45
ATOM     45  C   ALA D   7      -3.472   2.452   8.760  1.00 23.22 LIG 0.20  C 
ATOM     46 O    ALA D   7      -3.195   3.515   8.164  1.00 20.96 LIG-0.65  OA
ATOM     47 OXT  ALA D   7      -2.823   2.002   9.727  1.00 20.40 LIG-0.65  OA
ENDBRANCH 43 45
ENDBRANCH 40 43
ENDBRANCH 36 39
ENDBRANCH 33 36
ENDBRANCH 1 32
TORSDOF 18
ENDMDL
MODEL 7
USER: ADFR SOLUTION from run 68
USER: SCORE 17.151893 LL:  -3.890 LR: -13.749 RR:   0.000 FEB:  -8.380
USER: RMSD 6.022856
USER: SEED 67
USER: STATUS no improvement in best 3 clusters for 5 generations
USER: GENES 20
USER: genes 0 Translation |==|  0.54847 0.57686 0.52296
USER: genes 1 Rotation |==|  0.85616 0.84269 0.55127 0.55550
USER: genes 2 Torsion [C]-CA--N-[C] |==|  0.77742
USER: genes 3 Torsion [N]-C--CA-[N] |==|  0.85230
USER: genes 4 Torsion [C]-CA--CB-[CG] |==|  0.04075
USER: genes 5 Torsion [CA]-CB--CG-[CD] |==|  0.34922
USER: genes 6 Torsion [CB]-CG--CD-[OE1] |==|  0.33898
USER: genes 7 Torsion [C]-CA--N-[C] |==|  0.75576
USER: genes 8 Torsion [N]-C--CA-[N] |==|  0.82249
USER: genes 9 Torsion [C]-CA--N-[H3] |==|  0.85373
USER: genes 10 Torsion [C]-CA--CB-[CG2] |==|  0.26341
USER: genes 11 Torsion [CA]-CB--OG1-[HG1] |==|  0.78764
USER: genes 12 Torsion [N]-CA--CB-[CG] |==|  0.92911
USER: genes 13 Torsion [CA]-CB--CG-[CD2] |==|  0.75505
USER: genes 14 Torsion [N]-CA--C-[N] |==|  0.34699
USER: genes 15 Torsion [C]-N--CA-[C] |==|  0.76111
USER: genes 16 Torsion [N]-CA--CB-[SG] |==|  0.27816
USER: genes 17 Torsion [N]-CA--C-[N] |==|  0.45994
USER: genes 18 Torsion [C]-N--CA-[CB] |==|  0.28112
USER: genes 19 Torsion [N]-CA--C-[O] |==|  0.76568
ROOT
ATOM      1  CA  PHE D   5      -8.116  -2.054   4.199  1.00 26.58 LIG 0.18  C 
ENDROOT
BRANCH 1 2
ATOM      2  N   PHE D   5      -8.334  -3.426   3.761  1.00 35.71 LIG-0.35  N 
ATOM      3  C   GLU D   4      -7.693  -3.933   2.718  1.00 38.23 LIG 0.24  C 
ATOM      4 O    GLU D   4      -6.909  -3.280   2.043  1.00 38.91 LIG-0.27  OA
ATOM      5 H    PHE D   5      -8.906  -3.864   4.232  1.00 35.71 LIG 0.16  HD
BRANCH 3 6
ATOM      6  CA  GLU D   4      -8.008  -5.381   2.367  1.00 41.03 LIG 0.18  C 
BRANCH 6 7
ATOM      7  CB  GLU D   4      -9.432  -5.506   1.812  1.00 45.60 LIG 0.04  C 
BRANCH 7 8
ATOM      8  CG  GLU D   4     -10.082  -4.192   1.401  1.00 48.48 LIG 0.12  C 
BRANCH 8 9
ATOM      9  CD  GLU D   4     -10.588  -4.212  -0.035  1.00 50.69 LIG 0.17  C 
ATOM     10 OE1  GLU D   4     -11.800  -3.987  -0.241  1.00 53.00 LIG-0.65  OA
ATOM     11 OE2  GLU D   4      -9.780  -4.450  -0.959  1.00 50.91 LIG-0.65  OA
ENDBRANCH 8 9
ENDBRANCH 7 8
ENDBRANCH 6 7
BRANCH 6 12
ATOM     12  N   GLU D   4      -7.844  -6.264   3.514  1.00 42.32 LIG-0.35  N 
ATOM     13  C   THR D   3      -6.669  -6.816   3.793  1.00 42.71 LIG 0.25  C 
ATOM     14 O    THR D   3      -5.661  -6.615   3.112  1.00 42.89 LIG-0.27  OA
ATOM     15 H    GLU D   4      -8.559  -6.388   3.976  1.00 42.32 LIG 0.16  HD
BRANCH 13 16
ATOM     16  CA  THR D   3      -6.630  -7.739   5.012  1.00 43.40 LIG 0.30  C 
BRANCH 16 17
ATOM     17  N   THR D   3      -6.929  -6.977   6.260  1.00 40.96 LIG-0.06  N 
ATOM     18 H3   THR D   3      -6.392  -6.270   6.313  1.00 40.96 LIG 0.28  HD
ATOM     19 H2   THR D   3      -6.799  -7.501   6.968  1.00 40.96 LIG 0.28  HD
ATOM     20 H1   THR D   3      -7.776  -6.705   6.246  1.00 40.96 LIG 0.28  HD
ENDBRANCH 16 17
BRANCH 16 21
ATOM     21  CB  THR D   3      -7.638  -8.894   4.832  1.00 43.84 LIG 0.15  C 
ATOM     22  CG2 THR D   3      -6.945 -10.114   4.253  1.00 45.56 LIG 0.04  C 
BRANCH 21 23
ATOM     23 OG1  THR D   3      -8.237  -9.226   6.091  1.00 47.34 LIG-0.39  OA
ATOM     24 HG1  THR D   3      -7.692  -9.669   6.551  1.00 47.34 LIG 0.21  HD
ENDBRANCH 21 23
ENDBRANCH 16 21
ENDBRANCH 13 16
ENDBRANCH 6 12
ENDBRANCH 3 6
ENDBRANCH 1 2
BRANCH 1 25
ATOM     25  CB  PHE D   5      -9.332  -1.560   4.980  1.00 27.60 LIG 0.07  C 
BRANCH 25 26
ATOM     26  CG  PHE D   5     -10.604  -2.267   4.614  1.00 27.05 LIG-0.06  A 
ATOM     27  CD1 PHE D   5     -11.003  -3.409   5.302  1.00 25.07 LIG 0.01  A 
ATOM     28  CE1 PHE D   5     -12.172  -4.078   4.953  1.00 26.61 LIG 0.00  A 
ATOM     29  CZ  PHE D   5     -12.955  -3.605   3.908  1.00 27.22 LIG 0.00  A 
ATOM     30  CE2 PHE D   5     -12.568  -2.463   3.212  1.00 29.34 LIG 0.00  A 
ATOM     31  CD2 PHE D   5     -11.393  -1.801   3.569  1.00 26.26 LIG 0.01  A 
ENDBRANCH 25 26
ENDBRANCH 1 25
BRANCH 1 32
ATOM     32  C   PHE D   5      -6.855  -1.865   5.037  1.00 23.70 LIG 0.24  C 
ATOM     33  N   CYS D   6      -5.998  -0.950   4.603  1.00 21.13 LIG-0.34  N 
ATOM     34 H    CYS D   6      -6.101  -0.493   3.882  1.00 21.13 LIG 0.16  HD
ATOM     35 O    PHE D   5      -6.658  -2.536   6.050  1.00 21.21 LIG-0.27  OA
BRANCH 33 36
ATOM     36  CA  CYS D   6      -4.783  -0.644   5.347  1.00 20.21 LIG 0.19  C 
BRANCH 36 37
ATOM     37  CB  CYS D   6      -3.697  -0.054   4.446  1.00 23.91 LIG 0.12  C 
ATOM     38 SG   CYS D   6      -3.433   1.754   4.434  1.00 28.50 LIG-0.10  SA
ENDBRANCH 36 37
BRANCH 36 39
ATOM     39  C   CYS D   6      -5.178   0.402   6.381  1.00 23.47 LIG 0.24  C 
ATOM     40  N   ALA D   7      -4.315   0.621   7.364  1.00 20.97 LIG-0.34  N 
ATOM     41 H    ALA D   7      -3.564   0.210   7.446  1.00 20.97 LIG 0.16  HD
ATOM     42 O    CYS D   6      -6.252   1.001   6.283  1.00 21.16 LIG-0.27  OA
BRANCH 40 43
ATOM     43  CA  ALA D   7      -4.584   1.605   8.409  1.00 22.00 LIG 0.18  C 
ATOM     44  CB  ALA D   7      -5.063   0.910   9.671  1.00 24.79 LIG 0.04  C 
BRANCH 43 45
ATOM     45  C   ALA D   7      -3.329   2.417   8.703  1.00 23.22 LIG 0.20  C 
ATOM     46 O    ALA D   7      -2.497   1.943   9.506  1.00 20.96 LIG-0.65  OA
ATOM     47 OXT  ALA D   7      -3.195   3.515   8.123  1.00 20.40 LIG-0.65  OA
ENDBRANCH 43 45
ENDBRANCH 40 43
ENDBRANCH 36 39
ENDBRANCH 33 36
ENDBRANCH 1 32
TORSDOF 18
ENDMDL
MODEL 8
USER: ADFR SOLUTION from run 130
USER: SCORE 17.230680 LL:  -4.626 LR: -13.736 RR:   0.000 FEB:  -8.367
USER: RMSD 12.943150
USER: SEED 129
USER: STATUS no improvement in best 4 clusters for 5 generations
USER: GENES 20
USER: genes 0 Translation |==|  0.66045 0.73168 0.69248
USER: genes 1 Rotation |==|  0.18633 0.75360 0.70654 0.71128
USER: genes 2 Torsion [C]-CA--N-[C] |==|  0.20281
USER: genes 3 Torsion [N]-C--CA-[N] |==|  0.01146
USER: genes 4 Torsion [C]-CA--CB-[CG] |==|  0.54607
USER: genes 5 Torsion [CA]-CB--CG-[CD] |==|  0.23027
USER: genes 6 Torsion [CB]-CG--CD-[OE1] |==|  0.99064
USER: genes 7 Torsion [C]-CA--N-[C] |==|  0.69812
USER: genes 8 Torsion [N]-C--CA-[N] |==|  0.09656
USER: genes 9 Torsion [C]-CA--N-[H3] |==|  0.52396
USER: genes 10 Torsion [C]-CA--CB-[CG2] |==|  0.19217
USER: genes 11 Torsion [CA]-CB--OG1-[HG1] |==|  0.83467
USER: genes 12 Torsion [N]-CA--CB-[CG] |==|  0.52073
USER: genes 13 Torsion [CA]-CB--CG-[CD2] |==|  0.61899
USER: genes 14 Torsion [N]-CA--C-[N] |==|  0.41341
USER: genes 15 Torsion [C]-N--CA-[C] |==|  0.77778
USER: genes 16 Torsion [N]-CA--CB-[SG] |==|  0.03676
USER: genes 17 Torsion [N]-CA--C-[N] |==|  0.47750
USER: genes 18 Torsion [C]-N--CA-[CB] |==|  0.86290
USER: genes 19 Torsion [N]-CA--C-[O] |==|  0.03543
ROOT
ATOM      1  CA  PHE D   5      -4.757   2.590   9.284  1.00 26.58 LIG 0.18  C 
ENDROOT
BRANCH 1 2
ATOM      2  N   PHE D   5      -4.703   3.381  10.507  1.00 35.71 LIG-0.35  N 
ATOM      3  C   GLU D   4      -4.671   2.810  11.702  1.00 38.23 LIG 0.24  C 
ATOM      4 O    GLU D   4      -4.718   1.598  11.857  1.00 38.91 LIG-0.27  OA
ATOM      5 H    PHE D   5      -4.695   4.232  10.380  1.00 35.71 LIG 0.16  HD
BRANCH 3 6
ATOM      6  CA  GLU D   4      -4.612   3.750  12.900  1.00 41.03 LIG 0.18  C 
BRANCH 6 7
ATOM      7  CB  GLU D   4      -5.729   3.425  13.899  1.00 45.60 LIG 0.04  C 
BRANCH 7 8
ATOM      8  CG  GLU D   4      -6.020   4.516  14.919  1.00 48.48 LIG 0.12  C 
BRANCH 8 9
ATOM      9  CD  GLU D   4      -6.945   5.596  14.374  1.00 50.69 LIG 0.17  C 
ATOM     10 OE1  GLU D   4      -7.306   5.523  13.180  1.00 53.00 LIG-0.65  OA
ATOM     11 OE2  GLU D   4      -7.314   6.518  15.134  1.00 50.91 LIG-0.65  OA
ENDBRANCH 8 9
ENDBRANCH 7 8
ENDBRANCH 6 7
BRANCH 6 12
ATOM     12  N   GLU D   4      -4.698   5.147  12.496  1.00 42.32 LIG-0.35  N 
ATOM     13  C   THR D   3      -3.642   5.948  12.569  1.00 42.71 LIG 0.25  C 
ATOM     14 O    THR D   3      -2.542   5.565  12.973  1.00 42.89 LIG-0.27  OA
ATOM     15 H    GLU D   4      -5.473   5.392  12.216  1.00 42.32 LIG 0.16  HD
BRANCH 13 16
ATOM     16  CA  THR D   3      -3.865   7.399  12.135  1.00 43.40 LIG 0.30  C 
BRANCH 16 17
ATOM     17  N   THR D   3      -5.238   7.853  12.503  1.00 40.96 LIG-0.06  N 
ATOM     18 H3   THR D   3      -5.397   8.648  12.136  1.00 40.96 LIG 0.28  HD
ATOM     19 H2   THR D   3      -5.303   7.917  13.388  1.00 40.96 LIG 0.28  HD
ATOM     20 H1   THR D   3      -5.836   7.265  12.204  1.00 40.96 LIG 0.28  HD
ENDBRANCH 16 17
BRANCH 16 21
ATOM     21  CB  THR D   3      -2.803   8.313  12.784  1.00 43.84 LIG 0.15  C 
ATOM     22  CG2 THR D   3      -1.434   8.035  12.191  1.00 45.56 LIG 0.04  C 
BRANCH 21 23
ATOM     23 OG1  THR D   3      -3.151   9.689  12.583  1.00 47.34 LIG-0.39  OA
ATOM     24 HG1  THR D   3      -3.195   9.849  11.760  1.00 47.34 LIG 0.21  HD
ENDBRANCH 21 23
ENDBRANCH 16 21
ENDBRANCH 13 16
ENDBRANCH 6 12
ENDBRANCH 3 6
ENDBRANCH 1 2
BRANCH 1 25
ATOM     25  CB  PHE D   5      -3.663   1.525   9.309  1.00 27.60 LIG 0.07  C 
BRANCH 25 26
ATOM     26  CG  PHE D   5      -3.528   0.778   8.014  1.00 27.05 LIG-0.06  A 
ATOM     27  CD1 PHE D   5      -3.592   1.452   6.798  1.00 25.07 LIG 0.01  A 
ATOM     28  CE1 PHE D   5      -3.486   0.762   5.595  1.00 26.61 LIG 0.00  A 
ATOM     29  CZ  PHE D   5      -3.313  -0.616   5.601  1.00 27.22 LIG 0.00  A 
ATOM     30  CE2 PHE D   5      -3.247  -1.302   6.810  1.00 29.34 LIG 0.00  A 
ATOM     31  CD2 PHE D   5      -3.355  -0.600   8.010  1.00 26.26 LIG 0.01  A 
ENDBRANCH 25 26
ENDBRANCH 1 25
BRANCH 1 32
ATOM     32  C   PHE D   5      -6.110   1.932   9.031  1.00 23.70 LIG 0.24  C 
ATOM     33  N   CYS D   6      -6.450   1.768   7.759  1.00 21.13 LIG-0.34  N 
ATOM     34 H    CYS D   6      -5.975   2.032   7.093  1.00 21.13 LIG 0.16  HD
ATOM     35 O    PHE D   5      -6.833   1.586   9.964  1.00 21.21 LIG-0.27  OA
BRANCH 33 36
ATOM     36  CA  CYS D   6      -7.695   1.106   7.392  1.00 20.21 LIG 0.19  C 
BRANCH 36 37
ATOM     37  CB  CYS D   6      -8.099   1.413   5.950  1.00 23.91 LIG 0.12  C 
ATOM     38 SG   CYS D   6      -6.883   2.185   4.827  1.00 28.50 LIG-0.10  SA
ENDBRANCH 36 37
BRANCH 36 39
ATOM     39  C   CYS D   6      -7.425  -0.387   7.515  1.00 23.47 LIG 0.24  C 
ATOM     40  N   ALA D   7      -8.472  -1.193   7.388  1.00 20.97 LIG-0.34  N 
ATOM     41 H    ALA D   7      -9.275  -0.919   7.247  1.00 20.97 LIG 0.16  HD
ATOM     42 O    CYS D   6      -6.282  -0.800   7.720  1.00 21.16 LIG-0.27  OA
BRANCH 40 43
ATOM     43  CA  ALA D   7      -8.334  -2.643   7.480  1.00 22.00 LIG 0.18  C 
ATOM     44  CB  ALA D   7      -7.202  -3.119   6.587  1.00 24.79 LIG 0.04  C 
BRANCH 43 45
ATOM     45  C   ALA D   7      -8.070  -3.056   8.923  1.00 23.22 LIG 0.20  C 
ATOM     46 O    ALA D   7      -8.248  -2.203   9.820  1.00 20.96 LIG-0.65  OA
ATOM     47 OXT  ALA D   7      -7.694  -4.227   9.136  1.00 20.40 LIG-0.65  OA
ENDBRANCH 43 45
ENDBRANCH 40 43
ENDBRANCH 36 39
ENDBRANCH 33 36
ENDBRANCH 1 32
TORSDOF 18
ENDMDL
MODEL 9
USER: ADFR SOLUTION from run 3
USER: SCORE 16.690174 LL:  -3.987 LR: -13.720 RR:   0.000 FEB:  -8.351
USER: RMSD 8.790132
USER: SEED 954919
USER: STATUS no improvement in best 4 clusters for 5 generations
USER: GENES 20
USER: genes 0 Translation |==|  0.57888 0.59289 0.53666
USER: genes 1 Rotation |==|  0.11993 0.43247 0.72366 0.72576
USER: genes 2 Torsion [C]-CA--N-[C] |==|  0.21235
USER: genes 3 Torsion [N]-C--CA-[N] |==|  0.52438
USER: genes 4 Torsion [C]-CA--CB-[CG] |==|  0.92251
USER: genes 5 Torsion [CA]-CB--CG-[CD] |==|  0.79157
USER: genes 6 Torsion [CB]-CG--CD-[OE1] |==|  0.93698
USER: genes 7 Torsion [C]-CA--N-[C] |==|  0.72279
USER: genes 8 Torsion [N]-C--CA-[N] |==|  0.64683
USER: genes 9 Torsion [C]-CA--N-[H3] |==|  0.19051
USER: genes 10 Torsion [C]-CA--CB-[CG2] |==|  0.39667
USER: genes 11 Torsion [CA]-CB--OG1-[HG1] |==|  0.50726
USER: genes 12 Torsion [N]-CA--CB-[CG] |==|  0.63897
USER: genes 13 Torsion [CA]-CB--CG-[CD2] |==|  0.61678
USER: genes 14 Torsion [N]-CA--C-[N] |==|  0.03744
USER: genes 15 Torsion [C]-N--CA-[C] |==|  0.59699
USER: genes 16 Torsion [N]-CA--CB-[SG] |==|  0.06460
USER: genes 17 Torsion [N]-CA--C-[N] |==|  0.48333
USER: genes 18 Torsion [C]-N--CA-[CB] |==|  0.82524
USER: genes 19 Torsion [N]-CA--C-[O] |==|  0.10280
ROOT
ATOM      1  CA  PHE D   5      -7.204  -1.573   4.610  1.00 26.58 LIG 0.18  C 
ENDROOT
BRANCH 1 2
ATOM      2  N   PHE D   5      -8.224  -2.038   5.540  1.00 35.71 LIG-0.35  N 
ATOM      3  C   GLU D   4      -7.999  -3.044   6.372  1.00 38.23 LIG 0.24  C 
ATOM      4 O    GLU D   4      -6.944  -3.663   6.390  1.00 38.91 LIG-0.27  OA
ATOM      5 H    PHE D   5      -8.967  -1.607   5.497  1.00 35.71 LIG 0.16  HD
BRANCH 3 6
ATOM      6  CA  GLU D   4      -9.147  -3.428   7.296  1.00 41.03 LIG 0.18  C 
BRANCH 6 7
ATOM      7  CB  GLU D   4      -9.731  -2.186   7.980  1.00 45.60 LIG 0.04  C 
BRANCH 7 8
ATOM      8  CG  GLU D   4      -8.754  -1.035   8.170  1.00 48.48 LIG 0.12  C 
BRANCH 8 9
ATOM      9  CD  GLU D   4      -7.762  -1.288   9.297  1.00 50.69 LIG 0.17  C 
ATOM     10 OE1  GLU D   4      -8.071  -2.107  10.188  1.00 53.00 LIG-0.65  OA
ATOM     11 OE2  GLU D   4      -6.673  -0.674   9.295  1.00 50.91 LIG-0.65  OA
ENDBRANCH 8 9
ENDBRANCH 7 8
ENDBRANCH 6 7
BRANCH 6 12
ATOM     12  N   GLU D   4      -8.732  -4.398   8.301  1.00 42.32 LIG-0.35  N 
ATOM     13  C   THR D   3      -8.992  -5.692   8.155  1.00 42.71 LIG 0.25  C 
ATOM     14 O    THR D   3      -9.589  -6.145   7.176  1.00 42.89 LIG-0.27  OA
ATOM     15 H    GLU D   4      -8.315  -4.061   8.974  1.00 42.32 LIG 0.16  HD
BRANCH 13 16
ATOM     16  CA  THR D   3      -8.522  -6.607   9.288  1.00 43.40 LIG 0.30  C 
BRANCH 16 17
ATOM     17  N   THR D   3      -7.695  -7.727   8.751  1.00 40.96 LIG-0.06  N 
ATOM     18 H3   THR D   3      -6.923  -7.407   8.444  1.00 40.96 LIG 0.28  HD
ATOM     19 H2   THR D   3      -8.133  -8.129   8.089  1.00 40.96 LIG 0.28  HD
ATOM     20 H1   THR D   3      -7.534  -8.315   9.399  1.00 40.96 LIG 0.28  HD
ENDBRANCH 16 17
BRANCH 16 21
ATOM     21  CB  THR D   3      -7.717  -5.792  10.324  1.00 43.84 LIG 0.15  C 
ATOM     22  CG2 THR D   3      -8.011  -6.287  11.728  1.00 45.56 LIG 0.04  C 
BRANCH 21 23
ATOM     23 OG1  THR D   3      -6.314  -5.901  10.052  1.00 47.34 LIG-0.39  OA
ATOM     24 HG1  THR D   3      -5.882  -5.485  10.640  1.00 47.34 LIG 0.21  HD
ENDBRANCH 21 23
ENDBRANCH 16 21
ENDBRANCH 13 16
ENDBRANCH 6 12
ENDBRANCH 3 6
ENDBRANCH 1 2
BRANCH 1 25
ATOM     25  CB  PHE D   5      -5.872  -1.412   5.340  1.00 27.60 LIG 0.07  C 
BRANCH 25 26
ATOM     26  CG  PHE D   5      -5.218  -0.083   5.101  1.00 27.05 LIG-0.06  A 
ATOM     27  CD1 PHE D   5      -5.975   1.085   5.082  1.00 25.07 LIG 0.01  A 
ATOM     28  CE1 PHE D   5      -5.375   2.317   4.842  1.00 26.61 LIG 0.00  A 
ATOM     29  CZ  PHE D   5      -4.006   2.390   4.621  1.00 27.22 LIG 0.00  A 
ATOM     30  CE2 PHE D   5      -3.238   1.230   4.639  1.00 29.34 LIG 0.00  A 
ATOM     31  CD2 PHE D   5      -3.849  -0.000   4.879  1.00 26.26 LIG 0.01  A 
ENDBRANCH 25 26
ENDBRANCH 1 25
BRANCH 1 32
ATOM     32  C   PHE D   5      -7.017  -2.476   3.394  1.00 23.70 LIG 0.24  C 
ATOM     33  N   CYS D   6      -7.962  -3.384   3.190  1.00 21.13 LIG-0.34  N 
ATOM     34 H    CYS D   6      -8.637  -3.505   3.709  1.00 21.13 LIG 0.16  HD
ATOM     35 O    PHE D   5      -6.036  -2.359   2.659  1.00 21.21 LIG-0.27  OA
BRANCH 33 36
ATOM     36  CA  CYS D   6      -7.919  -4.270   2.034  1.00 20.21 LIG 0.19  C 
BRANCH 36 37
ATOM     37  CB  CYS D   6      -7.303  -5.626   2.377  1.00 23.91 LIG 0.12  C 
ATOM     38 SG   CYS D   6      -7.323  -6.202   4.111  1.00 28.50 LIG-0.10  SA
ENDBRANCH 36 37
BRANCH 36 39
ATOM     39  C   CYS D   6      -9.368  -4.485   1.619  1.00 23.47 LIG 0.24  C 
ATOM     40  N   ALA D   7      -9.571  -5.168   0.500  1.00 20.97 LIG-0.34  N 
ATOM     41 H    ALA D   7      -8.940  -5.484   0.008  1.00 20.97 LIG 0.16  HD
ATOM     42 O    CYS D   6     -10.287  -4.037   2.308  1.00 21.16 LIG-0.27  OA
BRANCH 40 43
ATOM     43  CA  ALA D   7     -10.918  -5.441   0.007  1.00 22.00 LIG 0.18  C 
ATOM     44  CB  ALA D   7     -11.674  -6.302   1.002  1.00 24.79 LIG 0.04  C 
BRANCH 43 45
ATOM     45  C   ALA D   7     -11.666  -4.136  -0.231  1.00 23.22 LIG 0.20  C 
ATOM     46 O    ALA D   7     -11.023  -3.163  -0.681  1.00 20.96 LIG-0.65  OA
ATOM     47 OXT  ALA D   7     -12.887  -4.107   0.032  1.00 20.40 LIG-0.65  OA
ENDBRANCH 43 45
ENDBRANCH 40 43
ENDBRANCH 36 39
ENDBRANCH 33 36
ENDBRANCH 1 32
TORSDOF 18
ENDMDL
MODEL 10
USER: ADFR SOLUTION from run 112
USER: SCORE 15.840172 LL:  -2.962 LR: -13.708 RR:   0.000 FEB:  -8.338
USER: RMSD 12.936207
USER: SEED 111
USER: STATUS no improvement in best 6 clusters for 5 generations
USER: GENES 20
USER: genes 0 Translation |==|  0.67252 0.72974 0.71697
USER: genes 1 Rotation |==|  0.43385 0.57523 0.89996 0.78284
USER: genes 2 Torsion [C]-CA--N-[C] |==|  0.66638
USER: genes 3 Torsion [N]-C--CA-[N] |==|  0.42643
USER: genes 4 Torsion [C]-CA--CB-[CG] |==|  0.98463
USER: genes 5 Torsion [CA]-CB--CG-[CD] |==|  0.35809
USER: genes 6 Torsion [CB]-CG--CD-[OE1] |==|  0.13128
USER: genes 7 Torsion [C]-CA--N-[C] |==|  0.81448
USER: genes 8 Torsion [N]-C--CA-[N] |==|  0.31696
USER: genes 9 Torsion [C]-CA--N-[H3] |==|  0.54714
USER: genes 10 Torsion [C]-CA--CB-[CG2] |==|  0.58420
USER: genes 11 Torsion [CA]-CB--OG1-[HG1] |==|  0.79488
USER: genes 12 Torsion [N]-CA--CB-[CG] |==|  0.20158
USER: genes 13 Torsion [CA]-CB--CG-[CD2] |==|  0.83873
USER: genes 14 Torsion [N]-CA--C-[N] |==|  0.35878
USER: genes 15 Torsion [C]-N--CA-[C] |==|  0.17088
USER: genes 16 Torsion [N]-CA--CB-[SG] |==|  0.64032
USER: genes 17 Torsion [N]-CA--C-[N] |==|  0.68333
USER: genes 18 Torsion [C]-N--CA-[CB] |==|  0.29754
USER: genes 19 Torsion [N]-CA--C-[O] |==|  0.51664
ROOT
ATOM      1  CA  PHE D   5      -4.395   2.532  10.019  1.00 26.58 LIG 0.18  C 
ENDROOT
BRANCH 1 2
ATOM      2  N   PHE D   5      -3.689   1.579  10.865  1.00 35.71 LIG-0.35  N 
ATOM      3  C   GLU D   4      -3.227   1.920  12.060  1.00 38.23 LIG 0.24  C 
ATOM      4 O    GLU D   4      -3.332   3.052  12.510  1.00 38.91 LIG-0.27  OA
ATOM      5 H    PHE D   5      -3.603   0.795  10.523  1.00 35.71 LIG 0.16  HD
BRANCH 3 6
ATOM      6  CA  GLU D   4      -2.511   0.829  12.846  1.00 41.03 LIG 0.18  C 
BRANCH 6 7
ATOM      7  CB  GLU D   4      -3.521  -0.049  13.595  1.00 45.60 LIG 0.04  C 
BRANCH 7 8
ATOM      8  CG  GLU D   4      -4.967   0.417  13.512  1.00 48.48 LIG 0.12  C 
BRANCH 8 9
ATOM      9  CD  GLU D   4      -5.916  -0.693  13.079  1.00 50.69 LIG 0.17  C 
ATOM     10 OE1  GLU D   4      -5.823  -1.806  13.638  1.00 53.00 LIG-0.65  OA
ATOM     11 OE2  GLU D   4      -6.756  -0.456  12.183  1.00 50.91 LIG-0.65  OA
ENDBRANCH 8 9
ENDBRANCH 7 8
ENDBRANCH 6 7
BRANCH 6 12
ATOM     12  N   GLU D   4      -1.544   1.384  13.783  1.00 42.32 LIG-0.35  N 
ATOM     13  C   THR D   3      -0.456   2.014  13.355  1.00 42.71 LIG 0.25  C 
ATOM     14 O    THR D   3      -0.204   2.168  12.158  1.00 42.89 LIG-0.27  OA
ATOM     15 H    GLU D   4      -1.741   1.267  14.612  1.00 42.32 LIG 0.16  HD
BRANCH 13 16
ATOM     16  CA  THR D   3       0.492   2.534  14.437  1.00 43.40 LIG 0.30  C 
BRANCH 16 17
ATOM     17  N   THR D   3       1.798   1.812  14.385  1.00 40.96 LIG-0.06  N 
ATOM     18 H3   THR D   3       2.238   1.938  15.148  1.00 40.96 LIG 0.28  HD
ATOM     19 H2   THR D   3       2.283   2.125  13.708  1.00 40.96 LIG 0.28  HD
ATOM     20 H1   THR D   3       1.652   0.942  14.267  1.00 40.96 LIG 0.28  HD
ENDBRANCH 16 17
BRANCH 16 21
ATOM     21  CB  THR D   3       0.709   4.053  14.264  1.00 43.84 LIG 0.15  C 
ATOM     22  CG2 THR D   3       2.091   4.447  14.750  1.00 45.56 LIG 0.04  C 
BRANCH 21 23
ATOM     23 OG1  THR D   3       0.555   4.417  12.887  1.00 47.34 LIG-0.39  OA
ATOM     24 HG1  THR D   3       1.226   4.158  12.452  1.00 47.34 LIG 0.21  HD
ENDBRANCH 21 23
ENDBRANCH 16 21
ENDBRANCH 13 16
ENDBRANCH 6 12
ENDBRANCH 3 6
ENDBRANCH 1 2
BRANCH 1 25
ATOM     25  CB  PHE D   5      -3.600   2.775   8.737  1.00 27.60 LIG 0.07  C 
BRANCH 25 26
ATOM     26  CG  PHE D   5      -3.637   1.617   7.784  1.00 27.05 LIG-0.06  A 
ATOM     27  CD1 PHE D   5      -4.134   1.777   6.494  1.00 25.07 LIG 0.01  A 
ATOM     28  CE1 PHE D   5      -4.187   0.701   5.614  1.00 26.61 LIG 0.00  A 
ATOM     29  CZ  PHE D   5      -3.740  -0.549   6.020  1.00 27.22 LIG 0.00  A 
ATOM     30  CE2 PHE D   5      -3.240  -0.723   7.307  1.00 29.34 LIG 0.00  A 
ATOM     31  CD2 PHE D   5      -3.192   0.362   8.182  1.00 26.26 LIG 0.01  A 
ENDBRANCH 25 26
ENDBRANCH 1 25
BRANCH 1 32
ATOM     32  C   PHE D   5      -5.819   2.113   9.669  1.00 23.70 LIG 0.24  C 
ATOM     33  N   CYS D   6      -6.764   3.018   9.885  1.00 21.13 LIG-0.34  N 
ATOM     34 H    CYS D   6      -6.622   3.794  10.229  1.00 21.13 LIG 0.16  HD
ATOM     35 O    PHE D   5      -6.060   0.993   9.219  1.00 21.21 LIG-0.27  OA
BRANCH 33 36
ATOM     36  CA  CYS D   6      -8.155   2.752   9.543  1.00 20.21 LIG 0.19  C 
BRANCH 36 37
ATOM     37  CB  CYS D   6      -8.319   2.387   8.067  1.00 23.91 LIG 0.12  C 
ATOM     38 SG   CYS D   6      -9.573   3.260   7.066  1.00 28.50 LIG-0.10  SA
ENDBRANCH 36 37
BRANCH 36 39
ATOM     39  C   CYS D   6      -8.571   1.555  10.388  1.00 23.47 LIG 0.24  C 
ATOM     40  N   ALA D   7      -8.852   0.435   9.735  1.00 20.97 LIG-0.34  N 
ATOM     41 H    ALA D   7      -8.815   0.355   8.879  1.00 20.97 LIG 0.16  HD
ATOM     42 O    CYS D   6      -8.633   1.650  11.616  1.00 21.16 LIG-0.27  OA
BRANCH 40 43
ATOM     43  CA  ALA D   7      -9.256  -0.778  10.440  1.00 22.00 LIG 0.18  C 
ATOM     44  CB  ALA D   7     -10.738  -1.033  10.235  1.00 24.79 LIG 0.04  C 
BRANCH 43 45
ATOM     45  C   ALA D   7      -8.446  -1.970   9.944  1.00 23.22 LIG 0.20  C 
ATOM     46 O    ALA D   7      -8.751  -3.105  10.369  1.00 20.96 LIG-0.65  OA
ATOM     47 OXT  ALA D   7      -7.521  -1.750   9.135  1.00 20.40 LIG-0.65  OA
ENDBRANCH 43 45
ENDBRANCH 40 43
ENDBRANCH 36 39
ENDBRANCH 33 36
ENDBRANCH 1 32
TORSDOF 18
ENDMDL
MODEL 11
USER: ADFR SOLUTION from run 63
USER: SCORE 15.690611 LL:  -3.358 LR: -13.699 RR:   0.000 FEB:  -8.330
USER: RMSD 13.169808
USER: SEED 62
USER: STATUS searching
USER: GENES 20
USER: genes 0 Translation |==|  0.66237 0.70831 0.71950
USER: genes 1 Rotation |==|  0.23700 0.68417 0.77763 0.76426
USER: genes 2 Torsion [C]-CA--N-[C] |==|  0.66296
USER: genes 3 Torsion [N]-C--CA-[N] |==|  0.19808
USER: genes 4 Torsion [C]-CA--CB-[CG] |==|  0.10906
USER: genes 5 Torsion [CA]-CB--CG-[CD] |==|  0.26595
USER: genes 6 Torsion [CB]-CG--CD-[OE1] |==|  0.78154
USER: genes 7 Torsion [C]-CA--N-[C] |==|  0.17720
USER: genes 8 Torsion [N]-C--CA-[N] |==|  0.15364
USER: genes 9 Torsion [C]-CA--N-[H3] |==|  0.53517
USER: genes 10 Torsion [C]-CA--CB-[CG2] |==|  0.49871
USER: genes 11 Torsion [CA]-CB--OG1-[HG1] |==|  0.51773
USER: genes 12 Torsion [N]-CA--CB-[CG] |==|  0.49339
USER: genes 13 Torsion [CA]-CB--CG-[CD2] |==|  0.69934
USER: genes 14 Torsion [N]-CA--C-[N] |==|  0.24001
USER: genes 15 Torsion [C]-N--CA-[C] |==|  0.74520
USER: genes 16 Torsion [N]-CA--CB-[SG] |==|  0.03831
USER: genes 17 Torsion [N]-CA--C-[N] |==|  0.20001
USER: genes 18 Torsion [C]-N--CA-[CB] |==|  0.80756
USER: genes 19 Torsion [N]-CA--C-[O] |==|  0.21241
ROOT
ATOM      1  CA  PHE D   5      -4.699   1.889  10.095  1.00 26.58 LIG 0.18  C 
ENDROOT
BRANCH 1 2
ATOM      2  N   PHE D   5      -4.644   2.028  11.544  1.00 35.71 LIG-0.35  N 
ATOM      3  C   GLU D   4      -4.467   3.207  12.123  1.00 38.23 LIG 0.24  C 
ATOM      4 O    GLU D   4      -4.307   4.238  11.485  1.00 38.91 LIG-0.27  OA
ATOM      5 H    PHE D   5      -4.735   1.290  11.976  1.00 35.71 LIG 0.16  HD
BRANCH 3 6
ATOM      6  CA  GLU D   4      -4.433   3.215  13.646  1.00 41.03 LIG 0.18  C 
BRANCH 6 7
ATOM      7  CB  GLU D   4      -4.577   4.645  14.183  1.00 45.60 LIG 0.04  C 
BRANCH 7 8
ATOM      8  CG  GLU D   4      -5.568   5.520  13.429  1.00 48.48 LIG 0.12  C 
BRANCH 8 9
ATOM      9  CD  GLU D   4      -6.945   5.540  14.079  1.00 50.69 LIG 0.17  C 
ATOM     10 OE1  GLU D   4      -7.706   4.567  13.890  1.00 53.00 LIG-0.65  OA
ATOM     11 OE2  GLU D   4      -7.270   6.523  14.779  1.00 50.91 LIG-0.65  OA
ENDBRANCH 8 9
ENDBRANCH 7 8
ENDBRANCH 6 7
BRANCH 6 12
ATOM     12  N   GLU D   4      -3.212   2.612  14.163  1.00 42.32 LIG-0.35  N 
ATOM     13  C   THR D   3      -2.024   3.154  13.922  1.00 42.71 LIG 0.25  C 
ATOM     14 O    THR D   3      -1.884   4.184  13.260  1.00 42.89 LIG-0.27  OA
ATOM     15 H    GLU D   4      -3.333   1.896  14.624  1.00 42.32 LIG 0.16  HD
BRANCH 13 16
ATOM     16  CA  THR D   3      -0.816   2.415  14.503  1.00 43.40 LIG 0.30  C 
BRANCH 16 17
ATOM     17  N   THR D   3      -0.799   0.994  14.048  1.00 40.96 LIG-0.06  N 
ATOM     18 H3   THR D   3      -0.209   0.534  14.530  1.00 40.96 LIG 0.28  HD
ATOM     19 H2   THR D   3      -0.569   0.960  13.188  1.00 40.96 LIG 0.28  HD
ATOM     20 H1   THR D   3      -1.608   0.638  14.152  1.00 40.96 LIG 0.28  HD
ENDBRANCH 16 17
BRANCH 16 21
ATOM     21  CB  THR D   3       0.489   3.129  14.089  1.00 43.84 LIG 0.15  C 
ATOM     22  CG2 THR D   3       1.691   2.410  14.671  1.00 45.56 LIG 0.04  C 
BRANCH 21 23
ATOM     23 OG1  THR D   3       0.592   3.174  12.661  1.00 47.34 LIG-0.39  OA
ATOM     24 HG1  THR D   3       1.342   3.484  12.444  1.00 47.34 LIG 0.21  HD
ENDBRANCH 21 23
ENDBRANCH 16 21
ENDBRANCH 13 16
ENDBRANCH 6 12
ENDBRANCH 3 6
ENDBRANCH 1 2
BRANCH 1 25
ATOM     25  CB  PHE D   5      -3.512   1.060   9.609  1.00 27.60 LIG 0.07  C 
BRANCH 25 26
ATOM     26  CG  PHE D   5      -3.520   0.819   8.128  1.00 27.05 LIG-0.06  A 
ATOM     27  CD1 PHE D   5      -3.258   1.857   7.240  1.00 25.07 LIG 0.01  A 
ATOM     28  CE1 PHE D   5      -3.283   1.642   5.866  1.00 26.61 LIG 0.00  A 
ATOM     29  CZ  PHE D   5      -3.570   0.377   5.368  1.00 27.22 LIG 0.00  A 
ATOM     30  CE2 PHE D   5      -3.833  -0.670   6.245  1.00 29.34 LIG 0.00  A 
ATOM     31  CD2 PHE D   5      -3.806  -0.443   7.621  1.00 26.26 LIG 0.01  A 
ENDBRANCH 25 26
ENDBRANCH 1 25
BRANCH 1 32
ATOM     32  C   PHE D   5      -5.998   1.278   9.580  1.00 23.70 LIG 0.24  C 
ATOM     33  N   CYS D   6      -6.998   2.124   9.367  1.00 21.13 LIG-0.34  N 
ATOM     34 H    CYS D   6      -6.960   2.969   9.527  1.00 21.13 LIG 0.16  HD
ATOM     35 O    PHE D   5      -6.098   0.067   9.385  1.00 21.21 LIG-0.27  OA
BRANCH 33 36
ATOM     36  CA  CYS D   6      -8.271   1.666   8.828  1.00 20.21 LIG 0.19  C 
BRANCH 36 37
ATOM     37  CB  CYS D   6      -9.439   2.523   9.318  1.00 23.91 LIG 0.12  C 
ATOM     38 SG   CYS D   6      -9.094   4.126  10.122  1.00 28.50 LIG-0.10  SA
ENDBRANCH 36 37
BRANCH 36 39
ATOM     39  C   CYS D   6      -8.161   1.813   7.316  1.00 23.47 LIG 0.24  C 
ATOM     40  N   ALA D   7      -7.369   0.951   6.692  1.00 20.97 LIG-0.34  N 
ATOM     41 H    ALA D   7      -6.924   0.331   7.089  1.00 20.97 LIG 0.16  HD
ATOM     42 O    CYS D   6      -8.788   2.696   6.728  1.00 21.16 LIG-0.27  OA
BRANCH 40 43
ATOM     43  CA  ALA D   7      -7.190   0.991   5.243  1.00 22.00 LIG 0.18  C 
ATOM     44  CB  ALA D   7      -8.469   0.563   4.546  1.00 24.79 LIG 0.04  C 
BRANCH 43 45
ATOM     45  C   ALA D   7      -6.798   2.395   4.800  1.00 23.22 LIG 0.20  C 
ATOM     46 O    ALA D   7      -5.620   2.765   4.995  1.00 20.96 LIG-0.65  OA
ATOM     47 OXT  ALA D   7      -7.674   3.102   4.260  1.00 20.40 LIG-0.65  OA
ENDBRANCH 43 45
ENDBRANCH 40 43
ENDBRANCH 36 39
ENDBRANCH 33 36
ENDBRANCH 1 32
TORSDOF 18
ENDMDL
MODEL 12
USER: ADFR SOLUTION from run 79
USER: SCORE 16.937515 LL:  -3.484 LR: -13.683 RR:   0.000 FEB:  -8.314
USER: RMSD 7.770075
USER: SEED 78
USER: STATUS 1 or 2 clusters left
USER: GENES 20
USER: genes 0 Translation |==|  0.62858 0.59784 0.64623
USER: genes 1 Rotation |==|  0.61930 0.35034 0.63888 0.94055
USER: genes 2 Torsion [C]-CA--N-[C] |==|  0.79811
USER: genes 3 Torsion [N]-C--CA-[N] |==|  0.96597
USER: genes 4 Torsion [C]-CA--CB-[CG] |==|  0.89645
USER: genes 5 Torsion [CA]-CB--CG-[CD] |==|  0.26879
USER: genes 6 Torsion [CB]-CG--CD-[OE1] |==|  0.99526
USER: genes 7 Torsion [C]-CA--N-[C] |==|  0.81021
USER: genes 8 Torsion [N]-C--CA-[N] |==|  0.73688
USER: genes 9 Torsion [C]-CA--N-[H3] |==|  0.25845
USER: genes 10 Torsion [C]-CA--CB-[CG2] |==|  0.28153
USER: genes 11 Torsion [CA]-CB--OG1-[HG1] |==|  0.61566
USER: genes 12 Torsion [N]-CA--CB-[CG] |==|  0.28754
USER: genes 13 Torsion [CA]-CB--CG-[CD2] |==|  0.75213
USER: genes 14 Torsion [N]-CA--C-[N] |==|  0.37115
USER: genes 15 Torsion [C]-N--CA-[C] |==|  0.53920
USER: genes 16 Torsion [N]-CA--CB-[SG] |==|  0.55106
USER: genes 17 Torsion [N]-CA--C-[N] |==|  0.45039
USER: genes 18 Torsion [C]-N--CA-[CB] |==|  0.87900
USER: genes 19 Torsion [N]-CA--C-[O] |==|  0.34029
ROOT
ATOM      1  CA  PHE D   5      -5.713  -1.425   7.897  1.00 26.58 LIG 0.18  C 
ENDROOT
BRANCH 1 2
ATOM      2  N   PHE D   5      -6.596  -2.336   7.181  1.00 35.71 LIG-0.35  N 
ATOM      3  C   GLU D   4      -7.671  -2.855   7.755  1.00 38.23 LIG 0.24  C 
ATOM      4 O    GLU D   4      -7.970  -2.633   8.920  1.00 38.91 LIG-0.27  OA
ATOM      5 H    PHE D   5      -6.358  -2.499   6.371  1.00 35.71 LIG 0.16  HD
BRANCH 3 6
ATOM      6  CA  GLU D   4      -8.513  -3.789   6.896  1.00 41.03 LIG 0.18  C 
BRANCH 6 7
ATOM      7  CB  GLU D   4      -8.401  -5.235   7.398  1.00 45.60 LIG 0.04  C 
BRANCH 7 8
ATOM      8  CG  GLU D   4      -7.023  -5.638   7.900  1.00 48.48 LIG 0.12  C 
BRANCH 8 9
ATOM      9  CD  GLU D   4      -6.895  -5.525   9.414  1.00 50.69 LIG 0.17  C 
ATOM     10 OE1  GLU D   4      -7.874  -5.102  10.063  1.00 53.00 LIG-0.65  OA
ATOM     11 OE2  GLU D   4      -5.820  -5.860   9.957  1.00 50.91 LIG-0.65  OA
ENDBRANCH 8 9
ENDBRANCH 7 8
ENDBRANCH 6 7
BRANCH 6 12
ATOM     12  N   GLU D   4      -8.134  -3.721   5.491  1.00 42.32 LIG-0.35  N 
ATOM     13  C   THR D   3      -8.364  -2.630   4.770  1.00 42.71 LIG 0.25  C 
ATOM     14 O    THR D   3      -8.901  -1.624   5.238  1.00 42.89 LIG-0.27  OA
ATOM     15 H    GLU D   4      -7.759  -4.433   5.186  1.00 42.32 LIG 0.16  HD
BRANCH 13 16
ATOM     16  CA  THR D   3      -7.938  -2.690   3.302  1.00 43.40 LIG 0.30  C 
BRANCH 16 17
ATOM     17  N   THR D   3      -6.573  -2.110   3.126  1.00 40.96 LIG-0.06  N 
ATOM     18 H3   THR D   3      -5.966  -2.759   3.176  1.00 40.96 LIG 0.28  HD
ATOM     19 H2   THR D   3      -6.420  -1.511   3.766  1.00 40.96 LIG 0.28  HD
ATOM     20 H1   THR D   3      -6.519  -1.714   2.331  1.00 40.96 LIG 0.28  HD
ENDBRANCH 16 17
BRANCH 16 21
ATOM     21  CB  THR D   3      -7.971  -4.150   2.802  1.00 43.84 LIG 0.15  C 
ATOM     22  CG2 THR D   3      -9.225  -4.400   1.985  1.00 45.56 LIG 0.04  C 
BRANCH 21 23
ATOM     23 OG1  THR D   3      -6.810  -4.424   2.007  1.00 47.34 LIG-0.39  OA
ATOM     24 HG1  THR D   3      -7.031  -4.878   1.336  1.00 47.34 LIG 0.21  HD
ENDBRANCH 21 23
ENDBRANCH 16 21
ENDBRANCH 13 16
ENDBRANCH 6 12
ENDBRANCH 3 6
ENDBRANCH 1 2
BRANCH 1 25
ATOM     25  CB  PHE D   5      -4.381  -1.308   7.158  1.00 27.60 LIG 0.07  C 
BRANCH 25 26
ATOM     26  CG  PHE D   5      -4.238  -0.030   6.385  1.00 27.05 LIG-0.06  A 
ATOM     27  CD1 PHE D   5      -3.687   1.100   6.980  1.00 25.07 LIG 0.01  A 
ATOM     28  CE1 PHE D   5      -3.570   2.292   6.272  1.00 26.61 LIG 0.00  A 
ATOM     29  CZ  PHE D   5      -4.006   2.361   4.955  1.00 27.22 LIG 0.00  A 
ATOM     30  CE2 PHE D   5      -4.558   1.237   4.348  1.00 29.34 LIG 0.00  A 
ATOM     31  CD2 PHE D   5      -4.672   0.048   5.067  1.00 26.26 LIG 0.01  A 
ENDBRANCH 25 26
ENDBRANCH 1 25
BRANCH 1 32
ATOM     32  C   PHE D   5      -6.302  -0.035   8.117  1.00 23.70 LIG 0.24  C 
ATOM     33  N   CYS D   6      -6.179   0.465   9.340  1.00 21.13 LIG-0.34  N 
ATOM     34 H    CYS D   6      -5.821   0.046  10.000  1.00 21.13 LIG 0.16  HD
ATOM     35 O    PHE D   5      -6.863   0.570   7.203  1.00 21.21 LIG-0.27  OA
BRANCH 33 36
ATOM     36  CA  CYS D   6      -6.658   1.803   9.658  1.00 20.21 LIG 0.19  C 
BRANCH 36 37
ATOM     37  CB  CYS D   6      -8.180   1.847   9.793  1.00 23.91 LIG 0.12  C 
ATOM     38 SG   CYS D   6      -9.041   3.455   9.684  1.00 28.50 LIG-0.10  SA
ENDBRANCH 36 37
BRANCH 36 39
ATOM     39  C   CYS D   6      -6.040   2.158  11.004  1.00 23.47 LIG 0.24  C 
ATOM     40  N   ALA D   7      -6.028   3.444  11.332  1.00 20.97 LIG-0.34  N 
ATOM     41 H    ALA D   7      -6.340   4.071  10.832  1.00 20.97 LIG 0.16  HD
ATOM     42 O    CYS D   6      -5.584   1.275  11.733  1.00 21.16 LIG-0.27  OA
BRANCH 40 43
ATOM     43  CA  ALA D   7      -5.466   3.902  12.599  1.00 22.00 LIG 0.18  C 
ATOM     44  CB  ALA D   7      -5.914   2.991  13.729  1.00 24.79 LIG 0.04  C 
BRANCH 43 45
ATOM     45  C   ALA D   7      -3.945   3.931  12.522  1.00 23.22 LIG 0.20  C 
ATOM     46 O    ALA D   7      -3.366   5.015  12.748  1.00 20.96 LIG-0.65  OA
ATOM     47 OXT  ALA D   7      -3.355   2.867  12.241  1.00 20.40 LIG-0.65  OA
ENDBRANCH 43 45
ENDBRANCH 40 43
ENDBRANCH 36 39
ENDBRANCH 33 36
ENDBRANCH 1 32
TORSDOF 18
ENDMDL
MODEL 13
USER: ADFR SOLUTION from run 66
USER: SCORE 15.899900 LL:  -3.473 LR: -13.623 RR:   0.000 FEB:  -8.253
USER: RMSD 13.269082
USER: SEED 65
USER: STATUS no improvement in best 12 clusters for 5 generations
USER: GENES 20
USER: genes 0 Translation |==|  0.65986 0.70878 0.70228
USER: genes 1 Rotation |==|  0.25756 0.66156 0.80245 0.77137
USER: genes 2 Torsion [C]-CA--N-[C] |==|  0.65404
USER: genes 3 Torsion [N]-C--CA-[N] |==|  0.32323
USER: genes 4 Torsion [C]-CA--CB-[CG] |==|  0.85828
USER: genes 5 Torsion [CA]-CB--CG-[CD] |==|  0.46079
USER: genes 6 Torsion [CB]-CG--CD-[OE1] |==|  0.49261
USER: genes 7 Torsion [C]-CA--N-[C] |==|  0.80372
USER: genes 8 Torsion [N]-C--CA-[N] |==|  0.43136
USER: genes 9 Torsion [C]-CA--N-[H3] |==|  0.93731
USER: genes 10 Torsion [C]-CA--CB-[CG2] |==|  0.45219
USER: genes 11 Torsion [CA]-CB--OG1-[HG1] |==|  0.65743
USER: genes 12 Torsion [N]-CA--CB-[CG] |==|  0.47520
USER: genes 13 Torsion [CA]-CB--CG-[CD2] |==|  0.15462
USER: genes 14 Torsion [N]-CA--C-[N] |==|  0.79543
USER: genes 15 Torsion [C]-N--CA-[C] |==|  0.69777
USER: genes 16 Torsion [N]-CA--CB-[SG] |==|  0.75985
USER: genes 17 Torsion [N]-CA--C-[N] |==|  0.12590
USER: genes 18 Torsion [C]-N--CA-[CB] |==|  0.87569
USER: genes 19 Torsion [N]-CA--C-[O] |==|  0.15348
ROOT
ATOM      1  CA  PHE D   5      -4.774   1.903   9.578  1.00 26.58 LIG 0.18  C 
ENDROOT
BRANCH 1 2
ATOM      2  N   PHE D   5      -4.663   1.835  11.030  1.00 35.71 LIG-0.35  N 
ATOM      3  C   GLU D   4      -4.459   2.920  11.762  1.00 38.23 LIG 0.24  C 
ATOM      4 O    GLU D   4      -4.318   4.031  11.272  1.00 38.91 LIG-0.27  OA
ATOM      5 H    PHE D   5      -4.741   1.043  11.355  1.00 35.71 LIG 0.16  HD
BRANCH 3 6
ATOM      6  CA  GLU D   4      -4.367   2.713  13.268  1.00 41.03 LIG 0.18  C 
BRANCH 6 7
ATOM      7  CB  GLU D   4      -5.449   3.524  13.994  1.00 45.60 LIG 0.04  C 
BRANCH 7 8
ATOM      8  CG  GLU D   4      -5.517   4.995  13.610  1.00 48.48 LIG 0.12  C 
BRANCH 8 9
ATOM      9  CD  GLU D   4      -6.799   5.665  14.086  1.00 50.69 LIG 0.17  C 
ATOM     10 OE1  GLU D   4      -6.945   6.888  13.873  1.00 53.00 LIG-0.65  OA
ATOM     11 OE2  GLU D   4      -7.662   4.976  14.671  1.00 50.91 LIG-0.65  OA
ENDBRANCH 8 9
ENDBRANCH 7 8
ENDBRANCH 6 7
BRANCH 6 12
ATOM     12  N   GLU D   4      -3.052   3.068  13.784  1.00 42.32 LIG-0.35  N 
ATOM     13  C   THR D   3      -1.987   2.320  13.520  1.00 42.71 LIG 0.25  C 
ATOM     14 O    THR D   3      -2.044   1.299  12.832  1.00 42.89 LIG-0.27  OA
ATOM     15 H    GLU D   4      -3.035   3.784  14.259  1.00 42.32 LIG 0.16  HD
BRANCH 13 16
ATOM     16  CA  THR D   3      -0.666   2.787  14.136  1.00 43.40 LIG 0.30  C 
BRANCH 16 17
ATOM     17  N   THR D   3       0.277   1.640  14.292  1.00 40.96 LIG-0.06  N 
ATOM     18 H3   THR D   3      -0.183   0.878  14.315  1.00 40.96 LIG 0.28  HD
ATOM     19 H2   THR D   3       0.735   1.733  15.050  1.00 40.96 LIG 0.28  HD
ATOM     20 H1   THR D   3       0.842   1.624  13.605  1.00 40.96 LIG 0.28  HD
ENDBRANCH 16 17
BRANCH 16 21
ATOM     21  CB  THR D   3      -0.034   3.888  13.256  1.00 43.84 LIG 0.15  C 
ATOM     22  CG2 THR D   3       1.021   4.647  14.039  1.00 45.56 LIG 0.04  C 
BRANCH 21 23
ATOM     23 OG1  THR D   3       0.552   3.305  12.086  1.00 47.34 LIG-0.39  OA
ATOM     24 HG1  THR D   3       1.364   3.515  12.046  1.00 47.34 LIG 0.21  HD
ENDBRANCH 21 23
ENDBRANCH 16 21
ENDBRANCH 13 16
ENDBRANCH 6 12
ENDBRANCH 3 6
ENDBRANCH 1 2
BRANCH 1 25
ATOM     25  CB  PHE D   5      -3.569   1.221   8.934  1.00 27.60 LIG 0.07  C 
BRANCH 25 26
ATOM     26  CG  PHE D   5      -3.700   1.056   7.449  1.00 27.05 LIG-0.06  A 
ATOM     27  CD1 PHE D   5      -3.566  -0.198   6.861  1.00 25.07 LIG 0.01  A 
ATOM     28  CE1 PHE D   5      -3.669  -0.353   5.483  1.00 26.61 LIG 0.00  A 
ATOM     29  CZ  PHE D   5      -3.911   0.753   4.678  1.00 27.22 LIG 0.00  A 
ATOM     30  CE2 PHE D   5      -4.048   2.012   5.253  1.00 29.34 LIG 0.00  A 
ATOM     31  CD2 PHE D   5      -3.942   2.156   6.636  1.00 26.26 LIG 0.01  A 
ENDBRANCH 25 26
ENDBRANCH 1 25
BRANCH 1 32
ATOM     32  C   PHE D   5      -6.062   1.300   9.026  1.00 23.70 LIG 0.24  C 
ATOM     33  N   CYS D   6      -6.139  -0.024   9.039  1.00 21.13 LIG-0.34  N 
ATOM     34 H    CYS D   6      -5.508  -0.543   9.308  1.00 21.13 LIG 0.16  HD
ATOM     35 O    PHE D   5      -6.965   2.015   8.591  1.00 21.21 LIG-0.27  OA
BRANCH 33 36
ATOM     36  CA  CYS D   6      -7.339  -0.714   8.585  1.00 20.21 LIG 0.19  C 
BRANCH 36 37
ATOM     37  CB  CYS D   6      -7.010  -1.868   7.638  1.00 23.91 LIG 0.12  C 
ATOM     38 SG   CYS D   6      -6.820  -1.530   5.852  1.00 28.50 LIG-0.10  SA
ENDBRANCH 36 37
BRANCH 36 39
ATOM     39  C   CYS D   6      -7.992  -1.284   9.837  1.00 23.47 LIG 0.24  C 
ATOM     40  N   ALA D   7      -8.078  -0.473  10.884  1.00 20.97 LIG-0.34  N 
ATOM     41 H    ALA D   7      -7.787   0.336  10.891  1.00 20.97 LIG 0.16  HD
ATOM     42 O    CYS D   6      -8.413  -2.443   9.849  1.00 21.16 LIG-0.27  OA
BRANCH 40 43
ATOM     43  CA  ALA D   7      -8.689  -0.908  12.137  1.00 22.00 LIG 0.18  C 
ATOM     44  CB  ALA D   7      -9.984  -1.650  11.857  1.00 24.79 LIG 0.04  C 
BRANCH 43 45
ATOM     45  C   ALA D   7      -7.729  -1.805  12.908  1.00 23.22 LIG 0.20  C 
ATOM     46 O    ALA D   7      -6.590  -1.360  13.167  1.00 20.96 LIG-0.65  OA
ATOM     47 OXT  ALA D   7      -8.132  -2.937  13.245  1.00 20.40 LIG-0.65  OA
ENDBRANCH 43 45
ENDBRANCH 40 43
ENDBRANCH 36 39
ENDBRANCH 33 36
ENDBRANCH 1 32
TORSDOF 18
ENDMDL
MODEL 14
USER: ADFR SOLUTION from run 146
USER: SCORE 16.313759 LL:  -3.826 LR: -13.567 RR:   0.000 FEB:  -8.198
USER: RMSD 13.003983
USER: SEED 145
USER: STATUS no improvement in best 6 clusters for 5 generations
USER: GENES 20
USER: genes 0 Translation |==|  0.66064 0.72670 0.71911
USER: genes 1 Rotation |==|  0.42192 0.56781 0.90220 0.77847
USER: genes 2 Torsion [C]-CA--N-[C] |==|  0.64376
USER: genes 3 Torsion [N]-C--CA-[N] |==|  0.41717
USER: genes 4 Torsion [C]-CA--CB-[CG] |==|  0.03364
USER: genes 5 Torsion [CA]-CB--CG-[CD] |==|  0.32081
USER: genes 6 Torsion [CB]-CG--CD-[OE1] |==|  0.60765
USER: genes 7 Torsion [C]-CA--N-[C] |==|  0.82394
USER: genes 8 Torsion [N]-C--CA-[N] |==|  0.31185
USER: genes 9 Torsion [C]-CA--N-[H3] |==|  0.45212
USER: genes 10 Torsion [C]-CA--CB-[CG2] |==|  0.26020
USER: genes 11 Torsion [CA]-CB--OG1-[HG1] |==|  0.23039
USER: genes 12 Torsion [N]-CA--CB-[CG] |==|  0.19846
USER: genes 13 Torsion [CA]-CB--CG-[CD2] |==|  0.82590
USER: genes 14 Torsion [N]-CA--C-[N] |==|  0.39851
USER: genes 15 Torsion [C]-N--CA-[C] |==|  0.22222
USER: genes 16 Torsion [N]-CA--CB-[SG] |==|  0.78795
USER: genes 17 Torsion [N]-CA--C-[N] |==|  0.13955
USER: genes 18 Torsion [C]-N--CA-[CB] |==|  0.20678
USER: genes 19 Torsion [N]-CA--C-[O] |==|  0.83203
ROOT
ATOM      1  CA  PHE D   5      -4.751   2.441  10.083  1.00 26.58 LIG 0.18  C 
ENDROOT
BRANCH 1 2
ATOM      2  N   PHE D   5      -4.061   1.513  10.969  1.00 35.71 LIG-0.35  N 
ATOM      3  C   GLU D   4      -3.531   1.911  12.116  1.00 38.23 LIG 0.24  C 
ATOM      4 O    GLU D   4      -3.558   3.077  12.486  1.00 38.91 LIG-0.27  OA
ATOM      5 H    PHE D   5      -4.031   0.703  10.682  1.00 35.71 LIG 0.16  HD
BRANCH 3 6
ATOM      6  CA  GLU D   4      -2.842   0.841  12.952  1.00 41.03 LIG 0.18  C 
BRANCH 6 7
ATOM      7  CB  GLU D   4      -3.851   0.132  13.864  1.00 45.60 LIG 0.04  C 
BRANCH 7 8
ATOM      8  CG  GLU D   4      -5.313   0.416  13.551  1.00 48.48 LIG 0.12  C 
BRANCH 8 9
ATOM      9  CD  GLU D   4      -6.066  -0.825  13.091  1.00 50.69 LIG 0.17  C 
ATOM     10 OE1  GLU D   4      -6.908  -0.705  12.176  1.00 53.00 LIG-0.65  OA
ATOM     11 OE2  GLU D   4      -5.819  -1.921  13.639  1.00 50.91 LIG-0.65  OA
ENDBRANCH 8 9
ENDBRANCH 7 8
ENDBRANCH 6 7
BRANCH 6 12
ATOM     12  N   GLU D   4      -1.756   1.394  13.750  1.00 42.32 LIG-0.35  N 
ATOM     13  C   THR D   3      -0.691   1.942  13.176  1.00 42.71 LIG 0.25  C 
ATOM     14 O    THR D   3      -0.560   2.017  11.952  1.00 42.89 LIG-0.27  OA
ATOM     15 H    GLU D   4      -1.869   1.333  14.601  1.00 42.32 LIG 0.16  HD
BRANCH 13 16
ATOM     16  CA  THR D   3       0.390   2.469  14.122  1.00 43.40 LIG 0.30  C 
BRANCH 16 17
ATOM     17  N   THR D   3       1.632   1.650  14.010  1.00 40.96 LIG-0.06  N 
ATOM     18 H3   THR D   3       2.317   2.098  14.361  1.00 40.96 LIG 0.28  HD
ATOM     19 H2   THR D   3       1.799   1.479  13.153  1.00 40.96 LIG 0.28  HD
ATOM     20 H1   THR D   3       1.524   0.884  14.449  1.00 40.96 LIG 0.28  HD
ENDBRANCH 16 17
BRANCH 16 21
ATOM     21  CB  THR D   3       0.690   3.950  13.806  1.00 43.84 LIG 0.15  C 
ATOM     22  CG2 THR D   3      -0.148   4.858  14.687  1.00 45.56 LIG 0.04  C 
BRANCH 21 23
ATOM     23 OG1  THR D   3       2.082   4.223  14.010  1.00 47.34 LIG-0.39  OA
ATOM     24 HG1  THR D   3       2.515   3.994  13.328  1.00 47.34 LIG 0.21  HD
ENDBRANCH 21 23
ENDBRANCH 16 21
ENDBRANCH 13 16
ENDBRANCH 6 12
ENDBRANCH 3 6
ENDBRANCH 1 2
BRANCH 1 25
ATOM     25  CB  PHE D   5      -3.899   2.703   8.843  1.00 27.60 LIG 0.07  C 
BRANCH 25 26
ATOM     26  CG  PHE D   5      -3.831   1.532   7.908  1.00 27.05 LIG-0.06  A 
ATOM     27  CD1 PHE D   5      -4.350   1.622   6.620  1.00 25.07 LIG 0.01  A 
ATOM     28  CE1 PHE D   5      -4.306   0.532   5.756  1.00 26.61 LIG 0.00  A 
ATOM     29  CZ  PHE D   5      -3.736  -0.662   6.178  1.00 27.22 LIG 0.00  A 
ATOM     30  CE2 PHE D   5      -3.212  -0.766   7.462  1.00 29.34 LIG 0.00  A 
ATOM     31  CD2 PHE D   5      -3.263   0.332   8.320  1.00 26.26 LIG 0.01  A 
ENDBRANCH 25 26
ENDBRANCH 1 25
BRANCH 1 32
ATOM     32  C   PHE D   5      -6.142   1.977   9.663  1.00 23.70 LIG 0.24  C 
ATOM     33  N   CYS D   6      -7.063   2.926   9.545  1.00 21.13 LIG-0.34  N 
ATOM     34 H    CYS D   6      -6.926   3.757   9.716  1.00 21.13 LIG 0.16  HD
ATOM     35 O    PHE D   5      -6.381   0.788   9.456  1.00 21.21 LIG-0.27  OA
BRANCH 33 36
ATOM     36  CA  CYS D   6      -8.415   2.612   9.101  1.00 20.21 LIG 0.19  C 
BRANCH 36 37
ATOM     37  CB  CYS D   6      -8.422   1.545   8.006  1.00 23.91 LIG 0.12  C 
ATOM     38 SG   CYS D   6      -7.952   2.011   6.303  1.00 28.50 LIG-0.10  SA
ENDBRANCH 36 37
BRANCH 36 39
ATOM     39  C   CYS D   6      -9.137   2.060  10.322  1.00 23.47 LIG 0.24  C 
ATOM     40  N   ALA D   7      -9.057   2.779  11.435  1.00 20.97 LIG-0.34  N 
ATOM     41 H    ALA D   7      -8.626   3.520  11.499  1.00 20.97 LIG 0.16  HD
ATOM     42 O    CYS D   6      -9.758   0.997  10.253  1.00 21.16 LIG-0.27  OA
BRANCH 40 43
ATOM     43  CA  ALA D   7      -9.715   2.352  12.667  1.00 22.00 LIG 0.18  C 
ATOM     44  CB  ALA D   7      -8.952   1.199  13.294  1.00 24.79 LIG 0.04  C 
BRANCH 43 45
ATOM     45  C   ALA D   7      -9.804   3.515  13.647  1.00 23.22 LIG 0.20  C 
ATOM     46 O    ALA D   7      -8.737   4.040  14.033  1.00 20.96 LIG-0.65  OA
ATOM     47 OXT  ALA D   7     -10.939   3.887  14.009  1.00 20.40 LIG-0.65  OA
ENDBRANCH 43 45
ENDBRANCH 40 43
ENDBRANCH 36 39
ENDBRANCH 33 36
ENDBRANCH 1 32
TORSDOF 18
ENDMDL
MODEL 15
USER: ADFR SOLUTION from run 16
USER: SCORE 16.395398 LL:  -3.651 LR: -13.445 RR:   0.000 FEB:  -8.075
USER: RMSD 6.747269
USER: SEED 710995
USER: STATUS no improvement in best 9 clusters for 5 generations
USER: GENES 20
USER: genes 0 Translation |==|  0.57418 0.54258 0.53446
USER: genes 1 Rotation |==|  0.96437 0.52434 0.62661 0.63319
USER: genes 2 Torsion [C]-CA--N-[C] |==|  0.72706
USER: genes 3 Torsion [N]-C--CA-[N] |==|  0.61928
USER: genes 4 Torsion [C]-CA--CB-[CG] |==|  0.57064
USER: genes 5 Torsion [CA]-CB--CG-[CD] |==|  0.77669
USER: genes 6 Torsion [CB]-CG--CD-[OE1] |==|  0.06737
USER: genes 7 Torsion [C]-CA--N-[C] |==|  0.14819
USER: genes 8 Torsion [N]-C--CA-[N] |==|  0.16390
USER: genes 9 Torsion [C]-CA--N-[H3] |==|  0.43554
USER: genes 10 Torsion [C]-CA--CB-[CG2] |==|  0.81242
USER: genes 11 Torsion [CA]-CB--OG1-[HG1] |==|  0.53534
USER: genes 12 Torsion [N]-CA--CB-[CG] |==|  0.57983
USER: genes 13 Torsion [CA]-CB--CG-[CD2] |==|  0.72559
USER: genes 14 Torsion [N]-CA--C-[N] |==|  0.01184
USER: genes 15 Torsion [C]-N--CA-[C] |==|  0.16666
USER: genes 16 Torsion [N]-CA--CB-[SG] |==|  0.83178
USER: genes 17 Torsion [N]-CA--C-[N] |==|  0.10089
USER: genes 18 Torsion [C]-N--CA-[CB] |==|  0.81179
USER: genes 19 Torsion [N]-CA--C-[O] |==|  0.63666
ROOT
ATOM      1  CA  PHE D   5      -7.345  -3.083   4.544  1.00 26.58 LIG 0.18  C 
ENDROOT
BRANCH 1 2
ATOM      2  N   PHE D   5      -8.339  -3.323   3.506  1.00 35.71 LIG-0.35  N 
ATOM      3  C   GLU D   4      -8.041  -3.991   2.401  1.00 38.23 LIG 0.24  C 
ATOM      4 O    GLU D   4      -6.918  -4.415   2.168  1.00 38.91 LIG-0.27  OA
ATOM      5 H    PHE D   5      -9.116  -2.997   3.676  1.00 35.71 LIG 0.16  HD
BRANCH 3 6
ATOM      6  CA  GLU D   4      -9.172  -4.177   1.397  1.00 41.03 LIG 0.18  C 
BRANCH 6 7
ATOM      7  CB  GLU D   4     -10.525  -3.846   2.039  1.00 45.60 LIG 0.04  C 
BRANCH 7 8
ATOM      8  CG  GLU D   4     -11.725  -4.535   1.405  1.00 48.48 LIG 0.12  C 
BRANCH 8 9
ATOM      9  CD  GLU D   4     -12.197  -3.839   0.135  1.00 50.69 LIG 0.17  C 
ATOM     10 OE1  GLU D   4     -11.377  -3.143  -0.502  1.00 53.00 LIG-0.65  OA
ATOM     11 OE2  GLU D   4     -13.383  -3.985  -0.231  1.00 50.91 LIG-0.65  OA
ENDBRANCH 8 9
ENDBRANCH 7 8
ENDBRANCH 6 7
BRANCH 6 12
ATOM     12  N   GLU D   4      -9.198  -5.529   0.856  1.00 42.32 LIG-0.35  N 
ATOM     13  C   THR D   3      -9.228  -6.588   1.657  1.00 42.71 LIG 0.25  C 
ATOM     14 O    THR D   3      -9.239  -6.494   2.885  1.00 42.89 LIG-0.27  OA
ATOM     15 H    GLU D   4      -9.192  -5.571  -0.003  1.00 42.32 LIG 0.16  HD
BRANCH 13 16
ATOM     16  CA  THR D   3      -9.233  -7.954   0.967  1.00 43.40 LIG 0.30  C 
BRANCH 16 17
ATOM     17  N   THR D   3      -8.020  -8.117   0.112  1.00 40.96 LIG-0.06  N 
ATOM     18 H3   THR D   3      -7.854  -8.983  -0.007  1.00 40.96 LIG 0.28  HD
ATOM     19 H2   THR D   3      -7.322  -7.733   0.510  1.00 40.96 LIG 0.28  HD
ATOM     20 H1   THR D   3      -8.159  -7.731  -0.678  1.00 40.96 LIG 0.28  HD
ENDBRANCH 16 17
BRANCH 16 21
ATOM     21  CB  THR D   3      -9.301  -9.078   2.023  1.00 43.84 LIG 0.15  C 
ATOM     22  CG2 THR D   3      -8.018  -9.120   2.833  1.00 45.56 LIG 0.04  C 
BRANCH 21 23
ATOM     23 OG1  THR D   3     -10.420  -8.867   2.894  1.00 47.34 LIG-0.39  OA
ATOM     24 HG1  THR D   3     -10.354  -9.371   3.562  1.00 47.34 LIG 0.21  HD
ENDBRANCH 21 23
ENDBRANCH 16 21
ENDBRANCH 13 16
ENDBRANCH 6 12
ENDBRANCH 3 6
ENDBRANCH 1 2
BRANCH 1 25
ATOM     25  CB  PHE D   5      -7.475  -1.652   5.065  1.00 27.60 LIG 0.07  C 
BRANCH 25 26
ATOM     26  CG  PHE D   5      -6.183  -1.084   5.574  1.00 27.05 LIG-0.06  A 
ATOM     27  CD1 PHE D   5      -5.238  -0.572   4.692  1.00 25.07 LIG 0.01  A 
ATOM     28  CE1 PHE D   5      -4.031  -0.061   5.159  1.00 26.61 LIG 0.00  A 
ATOM     29  CZ  PHE D   5      -3.762  -0.057   6.521  1.00 27.22 LIG 0.00  A 
ATOM     30  CE2 PHE D   5      -4.700  -0.565   7.415  1.00 29.34 LIG 0.00  A 
ATOM     31  CD2 PHE D   5      -5.905  -1.076   6.936  1.00 26.26 LIG 0.01  A 
ENDBRANCH 25 26
ENDBRANCH 1 25
BRANCH 1 32
ATOM     32  C   PHE D   5      -7.418  -4.063   5.711  1.00 23.70 LIG 0.24  C 
ATOM     33  N   CYS D   6      -8.302  -5.045   5.593  1.00 21.13 LIG-0.34  N 
ATOM     34 H    CYS D   6      -8.838  -5.137   4.927  1.00 21.13 LIG 0.16  HD
ATOM     35 O    PHE D   5      -6.696  -3.931   6.699  1.00 21.21 LIG-0.27  OA
BRANCH 33 36
ATOM     36  CA  CYS D   6      -8.428  -6.072   6.620  1.00 20.21 LIG 0.19  C 
BRANCH 36 37
ATOM     37  CB  CYS D   6      -7.112  -6.816   6.847  1.00 23.91 LIG 0.12  C 
ATOM     38 SG   CYS D   6      -6.356  -7.735   5.461  1.00 28.50 LIG-0.10  SA
ENDBRANCH 36 37
BRANCH 36 39
ATOM     39  C   CYS D   6      -8.798  -5.336   7.901  1.00 23.47 LIG 0.24  C 
ATOM     40  N   ALA D   7      -9.604  -4.290   7.773  1.00 20.97 LIG-0.34  N 
ATOM     41 H    ALA D   7      -9.917  -4.012   7.022  1.00 20.97 LIG 0.16  HD
ATOM     42 O    CYS D   6      -8.359  -5.716   8.988  1.00 21.16 LIG-0.27  OA
BRANCH 40 43
ATOM     43  CA  ALA D   7     -10.032  -3.511   8.932  1.00 22.00 LIG 0.18  C 
ATOM     44  CB  ALA D   7     -10.945  -4.345   9.814  1.00 24.79 LIG 0.04  C 
BRANCH 43 45
ATOM     45  C   ALA D   7      -8.820  -3.044   9.729  1.00 23.22 LIG 0.20  C 
ATOM     46 O    ALA D   7      -8.820  -3.233  10.964  1.00 20.96 LIG-0.65  OA
ATOM     47 OXT  ALA D   7      -7.886  -2.499   9.104  1.00 20.40 LIG-0.65  OA
ENDBRANCH 43 45
ENDBRANCH 40 43
ENDBRANCH 36 39
ENDBRANCH 33 36
ENDBRANCH 1 32
TORSDOF 18
ENDMDL
MODEL 16
USER: ADFR SOLUTION from run 48
USER: SCORE 15.917199 LL:  -3.925 LR: -13.360 RR:   0.000 FEB:  -7.991
USER: RMSD 14.250185
USER: SEED 47
USER: STATUS no improvement in best 4 clusters for 5 generations
USER: GENES 20
USER: genes 0 Translation |==|  0.71719 0.69740 0.71379
USER: genes 1 Rotation |==|  0.41566 0.77689 0.65658 0.87643
USER: genes 2 Torsion [C]-CA--N-[C] |==|  0.65264
USER: genes 3 Torsion [N]-C--CA-[N] |==|  0.50556
USER: genes 4 Torsion [C]-CA--CB-[CG] |==|  0.78566
USER: genes 5 Torsion [CA]-CB--CG-[CD] |==|  0.19974
USER: genes 6 Torsion [CB]-CG--CD-[OE1] |==|  0.62108
USER: genes 7 Torsion [C]-CA--N-[C] |==|  0.51744
USER: genes 8 Torsion [N]-C--CA-[N] |==|  0.77688
USER: genes 9 Torsion [C]-CA--N-[H3] |==|  0.43855
USER: genes 10 Torsion [C]-CA--CB-[CG2] |==|  0.30136
USER: genes 11 Torsion [CA]-CB--OG1-[HG1] |==|  0.30104
USER: genes 12 Torsion [N]-CA--CB-[CG] |==|  0.47503
USER: genes 13 Torsion [CA]-CB--CG-[CD2] |==|  0.09320
USER: genes 14 Torsion [N]-CA--C-[N] |==|  0.84751
USER: genes 15 Torsion [C]-N--CA-[C] |==|  0.66449
USER: genes 16 Torsion [N]-CA--CB-[SG] |==|  0.87005
USER: genes 17 Torsion [N]-CA--C-[N] |==|  0.24348
USER: genes 18 Torsion [C]-N--CA-[CB] |==|  0.23036
USER: genes 19 Torsion [N]-CA--C-[O] |==|  0.49167
ROOT
ATOM      1  CA  PHE D   5      -3.054   1.562   9.924  1.00 26.58 LIG 0.18  C 
ENDROOT
BRANCH 1 2
ATOM      2  N   PHE D   5      -2.851   1.180  11.315  1.00 35.71 LIG-0.35  N 
ATOM      3  C   GLU D   4      -1.704   1.409  11.938  1.00 38.23 LIG 0.24  C 
ATOM      4 O    GLU D   4      -0.742   1.920  11.382  1.00 38.91 LIG-0.27  OA
ATOM      5 H    PHE D   5      -3.530   0.801  11.682  1.00 35.71 LIG 0.16  HD
BRANCH 3 6
ATOM      6  CA  GLU D   4      -1.623   0.965  13.392  1.00 41.03 LIG 0.18  C 
BRANCH 6 7
ATOM      7  CB  GLU D   4      -2.763   1.584  14.212  1.00 45.60 LIG 0.04  C 
BRANCH 7 8
ATOM      8  CG  GLU D   4      -2.569   3.046  14.586  1.00 48.48 LIG 0.12  C 
BRANCH 8 9
ATOM      9  CD  GLU D   4      -2.721   3.981  13.393  1.00 50.69 LIG 0.17  C 
ATOM     10 OE1  GLU D   4      -1.895   4.909  13.256  1.00 53.00 LIG-0.65  OA
ATOM     11 OE2  GLU D   4      -3.661   3.792  12.591  1.00 50.91 LIG-0.65  OA
ENDBRANCH 8 9
ENDBRANCH 7 8
ENDBRANCH 6 7
BRANCH 6 12
ATOM     12  N   GLU D   4      -0.340   1.307  13.991  1.00 42.32 LIG-0.35  N 
ATOM     13  C   THR D   3      -0.023   0.897  15.214  1.00 42.71 LIG 0.25  C 
ATOM     14 O    THR D   3      -0.781   0.212  15.904  1.00 42.89 LIG-0.27  OA
ATOM     15 H    GLU D   4       0.173   1.783  13.492  1.00 42.32 LIG 0.16  HD
BRANCH 13 16
ATOM     16  CA  THR D   3       1.345   1.338  15.739  1.00 43.40 LIG 0.30  C 
BRANCH 16 17
ATOM     17  N   THR D   3       2.425   0.466  15.190  1.00 40.96 LIG-0.06  N 
ATOM     18 H3   THR D   3       3.203   0.897  15.227  1.00 40.96 LIG 0.28  HD
ATOM     19 H2   THR D   3       2.241   0.261  14.344  1.00 40.96 LIG 0.28  HD
ATOM     20 H1   THR D   3       2.478  -0.281  15.670  1.00 40.96 LIG 0.28  HD
ENDBRANCH 16 17
BRANCH 16 21
ATOM     21  CB  THR D   3       1.603   2.814  15.367  1.00 43.84 LIG 0.15  C 
ATOM     22  CG2 THR D   3       1.522   3.691  16.603  1.00 45.56 LIG 0.04  C 
BRANCH 21 23
ATOM     23 OG1  THR D   3       2.892   2.949  14.757  1.00 47.34 LIG-0.39  OA
ATOM     24 HG1  THR D   3       2.799   3.104  13.937  1.00 47.34 LIG 0.21  HD
ENDBRANCH 21 23
ENDBRANCH 16 21
ENDBRANCH 13 16
ENDBRANCH 6 12
ENDBRANCH 3 6
ENDBRANCH 1 2
BRANCH 1 25
ATOM     25  CB  PHE D   5      -3.162   0.311   9.053  1.00 27.60 LIG 0.07  C 
BRANCH 25 26
ATOM     26  CG  PHE D   5      -3.584   0.601   7.643  1.00 27.05 LIG-0.06  A 
ATOM     27  CD1 PHE D   5      -4.359  -0.312   6.934  1.00 25.07 LIG 0.01  A 
ATOM     28  CE1 PHE D   5      -4.737  -0.056   5.620  1.00 26.61 LIG 0.00  A 
ATOM     29  CZ  PHE D   5      -4.341   1.124   5.003  1.00 27.22 LIG 0.00  A 
ATOM     30  CE2 PHE D   5      -3.567   2.046   5.701  1.00 29.34 LIG 0.00  A 
ATOM     31  CD2 PHE D   5      -3.193   1.779   7.018  1.00 26.26 LIG 0.01  A 
ENDBRANCH 25 26
ENDBRANCH 1 25
BRANCH 1 32
ATOM     32  C   PHE D   5      -4.273   2.452   9.697  1.00 23.70 LIG 0.24  C 
ATOM     33  N   CYS D   6      -5.430   1.983  10.145  1.00 21.13 LIG-0.34  N 
ATOM     34 H    CYS D   6      -5.529   1.214  10.518  1.00 21.13 LIG 0.16  HD
ATOM     35 O    PHE D   5      -4.170   3.537   9.125  1.00 21.21 LIG-0.27  OA
BRANCH 33 36
ATOM     36  CA  CYS D   6      -6.654   2.765  10.031  1.00 20.21 LIG 0.19  C 
BRANCH 36 37
ATOM     37  CB  CYS D   6      -7.725   2.032   9.223  1.00 23.91 LIG 0.12  C 
ATOM     38 SG   CYS D   6      -7.267   1.251   7.636  1.00 28.50 LIG-0.10  SA
ENDBRANCH 36 37
BRANCH 36 39
ATOM     39  C   CYS D   6      -7.163   2.952  11.455  1.00 23.47 LIG 0.24  C 
ATOM     40  N   ALA D   7      -6.693   3.999  12.120  1.00 20.97 LIG-0.34  N 
ATOM     41 H    ALA D   7      -6.128   4.561  11.797  1.00 20.97 LIG 0.16  HD
ATOM     42 O    CYS D   6      -7.970   2.156  11.938  1.00 21.16 LIG-0.27  OA
BRANCH 40 43
ATOM     43  CA  ALA D   7      -7.114   4.283  13.489  1.00 22.00 LIG 0.18  C 
ATOM     44  CB  ALA D   7      -6.302   3.454  14.468  1.00 24.79 LIG 0.04  C 
BRANCH 43 45
ATOM     45  C   ALA D   7      -6.945   5.766  13.795  1.00 23.22 LIG 0.20  C 
ATOM     46 O    ALA D   7      -7.317   6.182  14.914  1.00 20.96 LIG-0.65  OA
ATOM     47 OXT  ALA D   7      -6.439   6.490  12.912  1.00 20.40 LIG-0.65  OA
ENDBRANCH 43 45
ENDBRANCH 40 43
ENDBRANCH 36 39
ENDBRANCH 33 36
ENDBRANCH 1 32
TORSDOF 18
ENDMDL
MODEL 17
USER: ADFR SOLUTION from run 93
USER: SCORE 16.966286 LL:  -4.606 LR: -13.289 RR:   0.000 FEB:  -7.920
USER: RMSD 13.299439
USER: SEED 92
USER: STATUS no improvement in best 4 clusters for 5 generations
USER: GENES 20
USER: genes 0 Translation |==|  0.65233 0.72808 0.69916
USER: genes 1 Rotation |==|  0.17065 0.70519 0.79357 0.61509
USER: genes 2 Torsion [C]-CA--N-[C] |==|  0.16853
USER: genes 3 Torsion [N]-C--CA-[N] |==|  0.95805
USER: genes 4 Torsion [C]-CA--CB-[CG] |==|  0.54595
USER: genes 5 Torsion [CA]-CB--CG-[CD] |==|  0.23135
USER: genes 6 Torsion [CB]-CG--CD-[OE1] |==|  0.99686
USER: genes 7 Torsion [C]-CA--N-[C] |==|  0.70314
USER: genes 8 Torsion [N]-C--CA-[N] |==|  0.09429
USER: genes 9 Torsion [C]-CA--N-[H3] |==|  0.84780
USER: genes 10 Torsion [C]-CA--CB-[CG2] |==|  0.19941
USER: genes 11 Torsion [CA]-CB--OG1-[HG1] |==|  0.81576
USER: genes 12 Torsion [N]-CA--CB-[CG] |==|  0.51980
USER: genes 13 Torsion [CA]-CB--CG-[CD2] |==|  0.19730
USER: genes 14 Torsion [N]-CA--C-[N] |==|  0.20545
USER: genes 15 Torsion [C]-N--CA-[C] |==|  0.16857
USER: genes 16 Torsion [N]-CA--CB-[SG] |==|  0.88148
USER: genes 17 Torsion [N]-CA--C-[N] |==|  0.10700
USER: genes 18 Torsion [C]-N--CA-[CB] |==|  0.82385
USER: genes 19 Torsion [N]-CA--C-[O] |==|  0.66339
ROOT
ATOM      1  CA  PHE D   5      -5.000   2.482   9.485  1.00 26.58 LIG 0.18  C 
ENDROOT
BRANCH 1 2
ATOM      2  N   PHE D   5      -4.949   3.312  10.681  1.00 35.71 LIG-0.35  N 
ATOM      3  C   GLU D   4      -4.538   2.829  11.845  1.00 38.23 LIG 0.24  C 
ATOM      4 O    GLU D   4      -4.211   1.660  11.996  1.00 38.91 LIG-0.27  OA
ATOM      5 H    PHE D   5      -5.205   4.124  10.562  1.00 35.71 LIG 0.16  HD
BRANCH 3 6
ATOM      6  CA  GLU D   4      -4.528   3.802  13.016  1.00 41.03 LIG 0.18  C 
BRANCH 6 7
ATOM      7  CB  GLU D   4      -5.659   3.476  14.001  1.00 45.60 LIG 0.04  C 
BRANCH 7 8
ATOM      8  CG  GLU D   4      -5.997   4.587  14.984  1.00 48.48 LIG 0.12  C 
BRANCH 8 9
ATOM      9  CD  GLU D   4      -6.945   5.623  14.394  1.00 50.69 LIG 0.17  C 
ATOM     10 OE1  GLU D   4      -7.318   5.481  13.210  1.00 53.00 LIG-0.65  OA
ATOM     11 OE2  GLU D   4      -7.320   6.577  15.109  1.00 50.91 LIG-0.65  OA
ENDBRANCH 8 9
ENDBRANCH 7 8
ENDBRANCH 6 7
BRANCH 6 12
ATOM     12  N   GLU D   4      -4.641   5.185  12.572  1.00 42.32 LIG-0.35  N 
ATOM     13  C   THR D   3      -3.598   6.005  12.611  1.00 42.71 LIG 0.25  C 
ATOM     14 O    THR D   3      -2.488   5.653  13.016  1.00 42.89 LIG-0.27  OA
ATOM     15 H    GLU D   4      -5.423   5.409  12.292  1.00 42.32 LIG 0.16  HD
BRANCH 13 16
ATOM     16  CA  THR D   3      -3.849   7.438  12.136  1.00 43.40 LIG 0.30  C 
BRANCH 16 17
ATOM     17  N   THR D   3      -5.233   7.874  12.486  1.00 40.96 LIG-0.06  N 
ATOM     18 H3   THR D   3      -5.820   7.291  12.158  1.00 40.96 LIG 0.28  HD
ATOM     19 H2   THR D   3      -5.389   8.678  12.138  1.00 40.96 LIG 0.28  HD
ATOM     20 H1   THR D   3      -5.318   7.913  13.371  1.00 40.96 LIG 0.28  HD
ENDBRANCH 16 17
BRANCH 16 21
ATOM     21  CB  THR D   3      -2.809   8.392  12.764  1.00 43.84 LIG 0.15  C 
ATOM     22  CG2 THR D   3      -1.445   8.170  12.139  1.00 45.56 LIG 0.04  C 
BRANCH 21 23
ATOM     23 OG1  THR D   3      -3.216   9.753  12.577  1.00 47.34 LIG-0.39  OA
ATOM     24 HG1  THR D   3      -3.195   9.941  11.759  1.00 47.34 LIG 0.21  HD
ENDBRANCH 21 23
ENDBRANCH 16 21
ENDBRANCH 13 16
ENDBRANCH 6 12
ENDBRANCH 3 6
ENDBRANCH 1 2
BRANCH 1 25
ATOM     25  CB  PHE D   5      -3.593   2.012   9.120  1.00 27.60 LIG 0.07  C 
BRANCH 25 26
ATOM     26  CG  PHE D   5      -3.527   1.292   7.806  1.00 27.05 LIG-0.06  A 
ATOM     27  CD1 PHE D   5      -3.287  -0.078   7.760  1.00 25.07 LIG 0.01  A 
ATOM     28  CE1 PHE D   5      -3.207  -0.746   6.542  1.00 26.61 LIG 0.00  A 
ATOM     29  CZ  PHE D   5      -3.369  -0.044   5.355  1.00 27.22 LIG 0.00  A 
ATOM     30  CE2 PHE D   5      -3.611   1.326   5.387  1.00 29.34 LIG 0.00  A 
ATOM     31  CD2 PHE D   5      -3.688   1.986   6.613  1.00 26.26 LIG 0.01  A 
ENDBRANCH 25 26
ENDBRANCH 1 25
BRANCH 1 32
ATOM     32  C   PHE D   5      -5.929   1.278   9.605  1.00 23.70 LIG 0.24  C 
ATOM     33  N   CYS D   6      -7.230   1.537   9.559  1.00 21.13 LIG-0.34  N 
ATOM     34 H    CYS D   6      -7.564   2.327   9.495  1.00 21.13 LIG 0.16  HD
ATOM     35 O    PHE D   5      -5.481   0.140   9.744  1.00 21.21 LIG-0.27  OA
BRANCH 33 36
ATOM     36  CA  CYS D   6      -8.214   0.464   9.613  1.00 20.21 LIG 0.19  C 
BRANCH 36 37
ATOM     37  CB  CYS D   6      -8.010  -0.553   8.489  1.00 23.91 LIG 0.12  C 
ATOM     38 SG   CYS D   6      -7.635   0.042   6.804  1.00 28.50 LIG-0.10  SA
ENDBRANCH 36 37
BRANCH 36 39
ATOM     39  C   CYS D   6      -7.994  -0.236  10.948  1.00 23.47 LIG 0.24  C 
ATOM     40  N   ALA D   7      -7.701   0.540  11.984  1.00 20.97 LIG-0.34  N 
ATOM     41 H    ALA D   7      -7.628   1.395  11.939  1.00 20.97 LIG 0.16  HD
ATOM     42 O    CYS D   6      -8.091  -1.462  11.033  1.00 21.16 LIG-0.27  OA
BRANCH 40 43
ATOM     43  CA  ALA D   7      -7.476  -0.019  13.314  1.00 22.00 LIG 0.18  C 
ATOM     44  CB  ALA D   7      -8.742  -0.685  13.823  1.00 24.79 LIG 0.04  C 
BRANCH 43 45
ATOM     45  C   ALA D   7      -6.334  -1.026  13.276  1.00 23.22 LIG 0.20  C 
ATOM     46 O    ALA D   7      -6.573  -2.199  13.635  1.00 20.96 LIG-0.65  OA
ATOM     47 OXT  ALA D   7      -5.218  -0.628  12.882  1.00 20.40 LIG-0.65  OA
ENDBRANCH 43 45
ENDBRANCH 40 43
ENDBRANCH 36 39
ENDBRANCH 33 36
ENDBRANCH 1 32
TORSDOF 18
ENDMDL
MODEL 18
USER: ADFR SOLUTION from run 73
USER: SCORE 15.519745 LL:  -3.601 LR: -13.272 RR:   0.000 FEB:  -7.903
USER: RMSD 12.415759
USER: SEED 72
USER: STATUS no improvement in best 8 clusters for 5 generations
USER: GENES 20
USER: genes 0 Translation |==|  0.63806 0.68520 0.68431
USER: genes 1 Rotation |==|  0.23140 0.62941 0.81716 0.74600
USER: genes 2 Torsion [C]-CA--N-[C] |==|  0.56741
USER: genes 3 Torsion [N]-C--CA-[N] |==|  0.30352
USER: genes 4 Torsion [C]-CA--CB-[CG] |==|  0.10279
USER: genes 5 Torsion [CA]-CB--CG-[CD] |==|  0.41970
USER: genes 6 Torsion [CB]-CG--CD-[OE1] |==|  0.20381
USER: genes 7 Torsion [C]-CA--N-[C] |==|  0.19502
USER: genes 8 Torsion [N]-C--CA-[N] |==|  0.07366
USER: genes 9 Torsion [C]-CA--N-[H3] |==|  0.19904
USER: genes 10 Torsion [C]-CA--CB-[CG2] |==|  0.43230
USER: genes 11 Torsion [CA]-CB--OG1-[HG1] |==|  0.66710
USER: genes 12 Torsion [N]-CA--CB-[CG] |==|  0.52427
USER: genes 13 Torsion [CA]-CB--CG-[CD2] |==|  0.13295
USER: genes 14 Torsion [N]-CA--C-[N] |==|  0.43592
USER: genes 15 Torsion [C]-N--CA-[C] |==|  0.76129
USER: genes 16 Torsion [N]-CA--CB-[SG] |==|  0.09076
USER: genes 17 Torsion [N]-CA--C-[N] |==|  0.46078
USER: genes 18 Torsion [C]-N--CA-[CB] |==|  0.35251
USER: genes 19 Torsion [N]-CA--C-[O] |==|  0.94652
ROOT
ATOM      1  CA  PHE D   5      -5.428   1.196   9.039  1.00 26.58 LIG 0.18  C 
ENDROOT
BRANCH 1 2
ATOM      2  N   PHE D   5      -5.412   1.153  10.496  1.00 35.71 LIG-0.35  N 
ATOM      3  C   GLU D   4      -4.876   2.130  11.213  1.00 38.23 LIG 0.24  C 
ATOM      4 O    GLU D   4      -4.337   3.103  10.705  1.00 38.91 LIG-0.27  OA
ATOM      5 H    PHE D   5      -5.774   0.451  10.835  1.00 35.71 LIG 0.16  HD
BRANCH 3 6
ATOM      6  CA  GLU D   4      -4.928   1.965  12.726  1.00 41.03 LIG 0.18  C 
BRANCH 6 7
ATOM      7  CB  GLU D   4      -5.534   3.211  13.386  1.00 45.60 LIG 0.04  C 
BRANCH 7 8
ATOM      8  CG  GLU D   4      -6.670   3.863  12.610  1.00 48.48 LIG 0.12  C 
BRANCH 8 9
ATOM      9  CD  GLU D   4      -7.663   4.578  13.516  1.00 50.69 LIG 0.17  C 
ATOM     10 OE1  GLU D   4      -7.318   5.659  14.041  1.00 53.00 LIG-0.65  OA
ATOM     11 OE2  GLU D   4      -8.788   4.067  13.706  1.00 50.91 LIG-0.65  OA
ENDBRANCH 8 9
ENDBRANCH 7 8
ENDBRANCH 6 7
BRANCH 6 12
ATOM     12  N   GLU D   4      -3.610   1.699  13.287  1.00 42.32 LIG-0.35  N 
ATOM     13  C   THR D   3      -2.675   2.641  13.318  1.00 42.71 LIG 0.25  C 
ATOM     14 O    THR D   3      -2.862   3.780  12.885  1.00 42.89 LIG-0.27  OA
ATOM     15 H    GLU D   4      -3.502   0.900  13.586  1.00 42.32 LIG 0.16  HD
BRANCH 13 16
ATOM     16  CA  THR D   3      -1.326   2.233  13.914  1.00 43.40 LIG 0.30  C 
BRANCH 16 17
ATOM     17  N   THR D   3      -1.106   0.764  13.760  1.00 40.96 LIG-0.06  N 
ATOM     18 H3   THR D   3      -0.946   0.575  12.905  1.00 40.96 LIG 0.28  HD
ATOM     19 H2   THR D   3      -1.831   0.325  14.030  1.00 40.96 LIG 0.28  HD
ATOM     20 H1   THR D   3      -0.408   0.515  14.254  1.00 40.96 LIG 0.28  HD
ENDBRANCH 16 17
BRANCH 16 21
ATOM     21  CB  THR D   3      -0.187   3.023  13.234  1.00 43.84 LIG 0.15  C 
ATOM     22  CG2 THR D   3       1.019   3.105  14.151  1.00 45.56 LIG 0.04  C 
BRANCH 21 23
ATOM     23 OG1  THR D   3       0.180   2.391  12.001  1.00 47.34 LIG-0.39  OA
ATOM     24 HG1  THR D   3       0.989   2.164  12.033  1.00 47.34 LIG 0.21  HD
ENDBRANCH 21 23
ENDBRANCH 16 21
ENDBRANCH 13 16
ENDBRANCH 6 12
ENDBRANCH 3 6
ENDBRANCH 1 2
BRANCH 1 25
ATOM     25  CB  PHE D   5      -4.073   0.752   8.493  1.00 27.60 LIG 0.07  C 
BRANCH 25 26
ATOM     26  CG  PHE D   5      -3.928   0.962   7.014  1.00 27.05 LIG-0.06  A 
ATOM     27  CD1 PHE D   5      -3.426  -0.050   6.201  1.00 25.07 LIG 0.01  A 
ATOM     28  CE1 PHE D   5      -3.273   0.147   4.833  1.00 26.61 LIG 0.00  A 
ATOM     29  CZ  PHE D   5      -3.625   1.365   4.265  1.00 27.22 LIG 0.00  A 
ATOM     30  CE2 PHE D   5      -4.130   2.384   5.066  1.00 29.34 LIG 0.00  A 
ATOM     31  CD2 PHE D   5      -4.278   2.176   6.437  1.00 26.26 LIG 0.01  A 
ENDBRANCH 25 26
ENDBRANCH 1 25
BRANCH 1 32
ATOM     32  C   PHE D   5      -6.536   0.359   8.407  1.00 23.70 LIG 0.24  C 
ATOM     33  N   CYS D   6      -6.906   0.709   7.183  1.00 21.13 LIG-0.34  N 
ATOM     34 H    CYS D   6      -6.584   1.380   6.753  1.00 21.13 LIG 0.16  HD
ATOM     35 O    PHE D   5      -7.050  -0.580   9.016  1.00 21.21 LIG-0.27  OA
BRANCH 33 36
ATOM     36  CA  CYS D   6      -7.919  -0.046   6.457  1.00 20.21 LIG 0.19  C 
BRANCH 36 37
ATOM     37  CB  CYS D   6      -8.607   0.804   5.388  1.00 23.91 LIG 0.12  C 
ATOM     38 SG   CYS D   6      -7.652   2.106   4.533  1.00 28.50 LIG-0.10  SA
ENDBRANCH 36 37
BRANCH 36 39
ATOM     39  C   CYS D   6      -7.178  -1.185   5.770  1.00 23.47 LIG 0.24  C 
ATOM     40  N   ALA D   7      -7.921  -2.172   5.286  1.00 20.97 LIG-0.34  N 
ATOM     41 H    ALA D   7      -8.779  -2.201   5.343  1.00 20.97 LIG 0.16  HD
ATOM     42 O    CYS D   6      -5.948  -1.165   5.680  1.00 21.16 LIG-0.27  OA
BRANCH 40 43
ATOM     43  CA  ALA D   7      -7.321  -3.314   4.602  1.00 22.00 LIG 0.18  C 
ATOM     44  CB  ALA D   7      -7.799  -4.610   5.230  1.00 24.79 LIG 0.04  C 
BRANCH 43 45
ATOM     45  C   ALA D   7      -7.678  -3.287   3.121  1.00 23.22 LIG 0.20  C 
ATOM     46 O    ALA D   7      -8.660  -2.600   2.766  1.00 20.96 LIG-0.65  OA
ATOM     47 OXT  ALA D   7      -6.967  -3.951   2.338  1.00 20.40 LIG-0.65  OA
ENDBRANCH 43 45
ENDBRANCH 40 43
ENDBRANCH 36 39
ENDBRANCH 33 36
ENDBRANCH 1 32
TORSDOF 18
ENDMDL
MODEL 19
USER: ADFR SOLUTION from run 119
USER: SCORE 17.044442 LL:  -4.643 LR: -13.193 RR:   0.000 FEB:  -7.823
USER: RMSD 6.802373
USER: SEED 118
USER: STATUS no improvement in best 2 clusters for 5 generations
USER: GENES 20
USER: genes 0 Translation |==|  0.59714 0.61122 0.55021
USER: genes 1 Rotation |==|  0.65670 0.27838 0.61777 0.90306
USER: genes 2 Torsion [C]-CA--N-[C] |==|  0.73810
USER: genes 3 Torsion [N]-C--CA-[N] |==|  0.36009
USER: genes 4 Torsion [C]-CA--CB-[CG] |==|  0.58940
USER: genes 5 Torsion [CA]-CB--CG-[CD] |==|  0.79131
USER: genes 6 Torsion [CB]-CG--CD-[OE1] |==|  0.16399
USER: genes 7 Torsion [C]-CA--N-[C] |==|  0.76555
USER: genes 8 Torsion [N]-C--CA-[N] |==|  0.33527
USER: genes 9 Torsion [C]-CA--N-[H3] |==|  0.53571
USER: genes 10 Torsion [C]-CA--CB-[CG2] |==|  0.15315
USER: genes 11 Torsion [CA]-CB--OG1-[HG1] |==|  0.70338
USER: genes 12 Torsion [N]-CA--CB-[CG] |==|  0.48506
USER: genes 13 Torsion [CA]-CB--CG-[CD2] |==|  0.23312
USER: genes 14 Torsion [N]-CA--C-[N] |==|  0.36842
USER: genes 15 Torsion [C]-N--CA-[C] |==|  0.57222
USER: genes 16 Torsion [N]-CA--CB-[SG] |==|  0.95712
USER: genes 17 Torsion [N]-CA--C-[N] |==|  0.20225
USER: genes 18 Torsion [C]-N--CA-[CB] |==|  0.25737
USER: genes 19 Torsion [N]-CA--C-[O] |==|  0.94972
ROOT
ATOM      1  CA  PHE D   5      -6.656  -1.023   5.016  1.00 26.58 LIG 0.18  C 
ENDROOT
BRANCH 1 2
ATOM      2  N   PHE D   5      -7.362  -1.634   3.898  1.00 35.71 LIG-0.35  N 
ATOM      3  C   GLU D   4      -8.315  -2.535   4.087  1.00 38.23 LIG 0.24  C 
ATOM      4 O    GLU D   4      -8.637  -2.933   5.197  1.00 38.91 LIG-0.27  OA
ATOM      5 H    PHE D   5      -7.107  -1.360   3.124  1.00 35.71 LIG 0.16  HD
BRANCH 3 6
ATOM      6  CA  GLU D   4      -8.978  -3.092   2.834  1.00 41.03 LIG 0.18  C 
BRANCH 6 7
ATOM      7  CB  GLU D   4     -10.401  -2.541   2.683  1.00 45.60 LIG 0.04  C 
BRANCH 7 8
ATOM      8  CG  GLU D   4     -11.394  -3.489   2.027  1.00 48.48 LIG 0.12  C 
BRANCH 8 9
ATOM      9  CD  GLU D   4     -11.193  -3.598   0.521  1.00 50.69 LIG 0.17  C 
ATOM     10 OE1  GLU D   4     -10.086  -3.993   0.097  1.00 53.00 LIG-0.65  OA
ATOM     11 OE2  GLU D   4     -12.136  -3.293  -0.240  1.00 50.91 LIG-0.65  OA
ENDBRANCH 8 9
ENDBRANCH 7 8
ENDBRANCH 6 7
BRANCH 6 12
ATOM     12  N   GLU D   4      -9.009  -4.549   2.840  1.00 42.32 LIG-0.35  N 
ATOM     13  C   THR D   3      -7.968  -5.259   2.421  1.00 42.71 LIG 0.25  C 
ATOM     14 O    THR D   3      -6.929  -4.738   2.010  1.00 42.89 LIG-0.27  OA
ATOM     15 H    GLU D   4      -9.742  -4.890   3.132  1.00 42.32 LIG 0.16  HD
BRANCH 13 16
ATOM     16  CA  THR D   3      -8.130  -6.780   2.458  1.00 43.40 LIG 0.30  C 
BRANCH 16 17
ATOM     17  N   THR D   3      -7.964  -7.361   1.093  1.00 40.96 LIG-0.06  N 
ATOM     18 H3   THR D   3      -8.242  -8.207   1.094  1.00 40.96 LIG 0.28  HD
ATOM     19 H2   THR D   3      -7.106  -7.331   0.860  1.00 40.96 LIG 0.28  HD
ATOM     20 H1   THR D   3      -8.445  -6.892   0.510  1.00 40.96 LIG 0.28  HD
ENDBRANCH 16 17
BRANCH 16 21
ATOM     21  CB  THR D   3      -7.105  -7.396   3.434  1.00 43.84 LIG 0.15  C 
ATOM     22  CG2 THR D   3      -7.236  -6.761   4.806  1.00 45.56 LIG 0.04  C 
BRANCH 21 23
ATOM     23 OG1  THR D   3      -7.309  -8.812   3.531  1.00 47.34 LIG-0.39  OA
ATOM     24 HG1  THR D   3      -7.657  -8.994   4.273  1.00 47.34 LIG 0.21  HD
ENDBRANCH 21 23
ENDBRANCH 16 21
ENDBRANCH 13 16
ENDBRANCH 6 12
ENDBRANCH 3 6
ENDBRANCH 1 2
BRANCH 1 25
ATOM     25  CB  PHE D   5      -5.183  -0.835   4.658  1.00 27.60 LIG 0.07  C 
BRANCH 25 26
ATOM     26  CG  PHE D   5      -4.405  -0.094   5.705  1.00 27.05 LIG-0.06  A 
ATOM     27  CD1 PHE D   5      -4.180   1.274   5.586  1.00 25.07 LIG 0.01  A 
ATOM     28  CE1 PHE D   5      -3.443   1.960   6.546  1.00 26.61 LIG 0.00  A 
ATOM     29  CZ  PHE D   5      -2.924   1.278   7.639  1.00 27.22 LIG 0.00  A 
ATOM     30  CE2 PHE D   5      -3.142  -0.089   7.771  1.00 29.34 LIG 0.00  A 
ATOM     31  CD2 PHE D   5      -3.882  -0.768   6.803  1.00 26.26 LIG 0.01  A 
ENDBRANCH 25 26
ENDBRANCH 1 25
BRANCH 1 32
ATOM     32  C   PHE D   5      -7.249   0.307   5.471  1.00 23.70 LIG 0.24  C 
ATOM     33  N   CYS D   6      -7.430   0.449   6.778  1.00 21.13 LIG-0.34  N 
ATOM     34 H    CYS D   6      -7.263  -0.163   7.359  1.00 21.13 LIG 0.16  HD
ATOM     35 O    PHE D   5      -7.542   1.184   4.659  1.00 21.21 LIG-0.27  OA
BRANCH 33 36
ATOM     36  CA  CYS D   6      -7.942   1.693   7.336  1.00 20.21 LIG 0.19  C 
BRANCH 36 37
ATOM     37  CB  CYS D   6      -9.471   1.715   7.374  1.00 23.91 LIG 0.12  C 
ATOM     38 SG   CYS D   6     -10.405   0.493   6.388  1.00 28.50 LIG-0.10  SA
ENDBRANCH 36 37
BRANCH 36 39
ATOM     39  C   CYS D   6      -7.420   1.755   8.765  1.00 23.47 LIG 0.24  C 
ATOM     40  N   ALA D   7      -6.127   2.015   8.915  1.00 20.97 LIG-0.34  N 
ATOM     41 H    ALA D   7      -5.584   2.144   8.261  1.00 20.97 LIG 0.16  HD
ATOM     42 O    CYS D   6      -8.182   1.570   9.717  1.00 21.16 LIG-0.27  OA
BRANCH 40 43
ATOM     43  CA  ALA D   7      -5.516   2.104  10.238  1.00 22.00 LIG 0.18  C 
ATOM     44  CB  ALA D   7      -4.953   0.755  10.646  1.00 24.79 LIG 0.04  C 
BRANCH 43 45
ATOM     45  C   ALA D   7      -4.410   3.153  10.237  1.00 23.22 LIG 0.20  C 
ATOM     46 O    ALA D   7      -3.945   3.515   9.135  1.00 20.96 LIG-0.65  OA
ATOM     47 OXT  ALA D   7      -4.031   3.601  11.339  1.00 20.40 LIG-0.65  OA
ENDBRANCH 43 45
ENDBRANCH 40 43
ENDBRANCH 36 39
ENDBRANCH 33 36
ENDBRANCH 1 32
TORSDOF 18
ENDMDL
MODEL 20
USER: ADFR SOLUTION from run 68
USER: SCORE 16.967692 LL:  -4.360 LR: -13.179 RR:   0.000 FEB:  -7.809
USER: RMSD 6.917530
USER: SEED 67
USER: STATUS no improvement in best 3 clusters for 5 generations
USER: GENES 20
USER: genes 0 Translation |==|  0.55405 0.58063 0.51694
USER: genes 1 Rotation |==|  0.87553 0.81691 0.55326 0.57554
USER: genes 2 Torsion [C]-CA--N-[C] |==|  0.78444
USER: genes 3 Torsion [N]-C--CA-[N] |==|  0.82222
USER: genes 4 Torsion [C]-CA--CB-[CG] |==|  0.06058
USER: genes 5 Torsion [CA]-CB--CG-[CD] |==|  0.34186
USER: genes 6 Torsion [CB]-CG--CD-[OE1] |==|  0.31767
USER: genes 7 Torsion [C]-CA--N-[C] |==|  0.77515
USER: genes 8 Torsion [N]-C--CA-[N] |==|  0.80642
USER: genes 9 Torsion [C]-CA--N-[H3] |==|  0.15955
USER: genes 10 Torsion [C]-CA--CB-[CG2] |==|  0.23838
USER: genes 11 Torsion [CA]-CB--OG1-[HG1] |==|  0.85781
USER: genes 12 Torsion [N]-CA--CB-[CG] |==|  0.55708
USER: genes 13 Torsion [CA]-CB--CG-[CD2] |==|  0.04519
USER: genes 14 Torsion [N]-CA--C-[N] |==|  0.38871
USER: genes 15 Torsion [C]-N--CA-[C] |==|  0.84444
USER: genes 16 Torsion [N]-CA--CB-[SG] |==|  0.13556
USER: genes 17 Torsion [N]-CA--C-[N] |==|  0.91646
USER: genes 18 Torsion [C]-N--CA-[CB] |==|  0.40158
USER: genes 19 Torsion [N]-CA--C-[O] |==|  0.85306
ROOT
ATOM      1  CA  PHE D   5      -7.949  -1.941   4.018  1.00 26.58 LIG 0.18  C 
ENDROOT
BRANCH 1 2
ATOM      2  N   PHE D   5      -8.322  -3.287   3.605  1.00 35.71 LIG-0.35  N 
ATOM      3  C   GLU D   4      -7.660  -3.932   2.656  1.00 38.23 LIG 0.24  C 
ATOM      4 O    GLU D   4      -6.724  -3.431   2.048  1.00 38.91 LIG-0.27  OA
ATOM      5 H    PHE D   5      -8.997  -3.614   4.027  1.00 35.71 LIG 0.16  HD
BRANCH 3 6
ATOM      6  CA  GLU D   4      -8.149  -5.335   2.321  1.00 41.03 LIG 0.18  C 
BRANCH 6 7
ATOM      7  CB  GLU D   4      -9.614  -5.304   1.870  1.00 45.60 LIG 0.04  C 
BRANCH 7 8
ATOM      8  CG  GLU D   4     -10.102  -3.958   1.353  1.00 48.48 LIG 0.12  C 
BRANCH 8 9
ATOM      9  CD  GLU D   4     -10.654  -4.040  -0.064  1.00 50.69 LIG 0.17  C 
ATOM     10 OE1  GLU D   4     -11.870  -3.817  -0.242  1.00 53.00 LIG-0.65  OA
ATOM     11 OE2  GLU D   4      -9.877  -4.325  -1.002  1.00 50.91 LIG-0.65  OA
ENDBRANCH 8 9
ENDBRANCH 7 8
ENDBRANCH 6 7
BRANCH 6 12
ATOM     12  N   GLU D   4      -7.997  -6.244   3.449  1.00 42.32 LIG-0.35  N 
ATOM     13  C   THR D   3      -6.827  -6.812   3.720  1.00 42.71 LIG 0.25  C 
ATOM     14 O    THR D   3      -5.816  -6.607   3.046  1.00 42.89 LIG-0.27  OA
ATOM     15 H    GLU D   4      -8.714  -6.371   3.907  1.00 42.32 LIG 0.16  HD
BRANCH 13 16
ATOM     16  CA  THR D   3      -6.801  -7.763   4.919  1.00 43.40 LIG 0.30  C 
BRANCH 16 17
ATOM     17  N   THR D   3      -6.958  -7.005   6.195  1.00 40.96 LIG-0.06  N 
ATOM     18 H3   THR D   3      -7.718  -6.541   6.174  1.00 40.96 LIG 0.28  HD
ATOM     19 H2   THR D   3      -6.273  -6.445   6.295  1.00 40.96 LIG 0.28  HD
ATOM     20 H1   THR D   3      -6.978  -7.574   6.879  1.00 40.96 LIG 0.28  HD
ENDBRANCH 16 17
BRANCH 16 21
ATOM     21  CB  THR D   3      -7.917  -8.820   4.779  1.00 43.84 LIG 0.15  C 
ATOM     22  CG2 THR D   3      -7.433  -9.991   3.945  1.00 45.56 LIG 0.04  C 
BRANCH 21 23
ATOM     23 OG1  THR D   3      -8.324  -9.279   6.074  1.00 47.34 LIG-0.39  OA
ATOM     24 HG1  THR D   3      -7.648  -9.511   6.514  1.00 47.34 LIG 0.21  HD
ENDBRANCH 21 23
ENDBRANCH 16 21
ENDBRANCH 13 16
ENDBRANCH 6 12
ENDBRANCH 3 6
ENDBRANCH 1 2
BRANCH 1 25
ATOM     25  CB  PHE D   5      -9.133  -1.262   4.703  1.00 27.60 LIG 0.07  C 
BRANCH 25 26
ATOM     26  CG  PHE D   5      -9.032   0.235   4.724  1.00 27.05 LIG-0.06  A 
ATOM     27  CD1 PHE D   5      -9.840   0.988   5.570  1.00 25.07 LIG 0.01  A 
ATOM     28  CE1 PHE D   5      -9.762   2.377   5.579  1.00 26.61 LIG 0.00  A 
ATOM     29  CZ  PHE D   5      -8.868   3.025   4.737  1.00 27.22 LIG 0.00  A 
ATOM     30  CE2 PHE D   5      -8.053   2.284   3.886  1.00 29.34 LIG 0.00  A 
ATOM     31  CD2 PHE D   5      -8.140   0.893   3.885  1.00 26.26 LIG 0.01  A 
ENDBRANCH 25 26
ENDBRANCH 1 25
BRANCH 1 32
ATOM     32  C   PHE D   5      -6.728  -1.890   4.932  1.00 23.70 LIG 0.24  C 
ATOM     33  N   CYS D   6      -5.872  -0.901   4.709  1.00 21.13 LIG-0.34  N 
ATOM     34 H    CYS D   6      -5.954  -0.323   4.077  1.00 21.13 LIG 0.16  HD
ATOM     35 O    PHE D   5      -6.559  -2.730   5.816  1.00 21.21 LIG-0.27  OA
BRANCH 33 36
ATOM     36  CA  CYS D   6      -4.696  -0.718   5.549  1.00 20.21 LIG 0.19  C 
BRANCH 36 37
ATOM     37  CB  CYS D   6      -3.937   0.561   5.196  1.00 23.91 LIG 0.12  C 
ATOM     38 SG   CYS D   6      -4.859   2.130   5.034  1.00 28.50 LIG-0.10  SA
ENDBRANCH 36 37
BRANCH 36 39
ATOM     39  C   CYS D   6      -5.216  -0.598   6.975  1.00 23.47 LIG 0.24  C 
ATOM     40  N   ALA D   7      -6.425  -0.072   7.124  1.00 20.97 LIG-0.34  N 
ATOM     41 H    ALA D   7      -6.915   0.200   6.471  1.00 20.97 LIG 0.16  HD
ATOM     42 O    CYS D   6      -4.528  -0.979   7.924  1.00 21.16 LIG-0.27  OA
BRANCH 40 43
ATOM     43  CA  ALA D   7      -7.030   0.088   8.443  1.00 22.00 LIG 0.18  C 
ATOM     44  CB  ALA D   7      -7.858   1.359   8.489  1.00 24.79 LIG 0.04  C 
BRANCH 43 45
ATOM     45  C   ALA D   7      -7.903  -1.117   8.771  1.00 23.22 LIG 0.20  C 
ATOM     46 O    ALA D   7      -8.779  -1.451   7.944  1.00 20.96 LIG-0.65  OA
ATOM     47 OXT  ALA D   7      -7.695  -1.712   9.849  1.00 20.40 LIG-0.65  OA
ENDBRANCH 43 45
ENDBRANCH 40 43
ENDBRANCH 36 39
ENDBRANCH 33 36
ENDBRANCH 1 32
TORSDOF 18
ENDMDL
MODEL 21
USER: ADFR SOLUTION from run 121
USER: SCORE 16.933996 LL:  -4.290 LR: -13.152 RR:   0.000 FEB:  -7.782
USER: RMSD 5.418300
USER: SEED 120
USER: STATUS no improvement in best 3 clusters for 5 generations
USER: GENES 20
USER: genes 0 Translation |==|  0.56647 0.48696 0.48727
USER: genes 1 Rotation |==|  0.60351 0.76079 0.44204 0.90977
USER: genes 2 Torsion [C]-CA--N-[C] |==|  0.64457
USER: genes 3 Torsion [N]-C--CA-[N] |==|  0.37450
USER: genes 4 Torsion [C]-CA--CB-[CG] |==|  0.38568
USER: genes 5 Torsion [CA]-CB--CG-[CD] |==|  0.78089
USER: genes 6 Torsion [CB]-CG--CD-[OE1] |==|  0.58260
USER: genes 7 Torsion [C]-CA--N-[C] |==|  0.84612
USER: genes 8 Torsion [N]-C--CA-[N] |==|  0.45259
USER: genes 9 Torsion [C]-CA--N-[H3] |==|  0.28060
USER: genes 10 Torsion [C]-CA--CB-[CG2] |==|  0.96271
USER: genes 11 Torsion [CA]-CB--OG1-[HG1] |==|  0.81578
USER: genes 12 Torsion [N]-CA--CB-[CG] |==|  0.82351
USER: genes 13 Torsion [CA]-CB--CG-[CD2] |==|  0.87632
USER: genes 14 Torsion [N]-CA--C-[N] |==|  0.89449
USER: genes 15 Torsion [C]-N--CA-[C] |==|  0.77699
USER: genes 16 Torsion [N]-CA--CB-[SG] |==|  0.52685
USER: genes 17 Torsion [N]-CA--C-[N] |==|  0.41723
USER: genes 18 Torsion [C]-N--CA-[CB] |==|  0.20519
USER: genes 19 Torsion [N]-CA--C-[O] |==|  0.42708
ROOT
ATOM      1  CA  PHE D   5      -7.576  -4.751   3.128  1.00 26.58 LIG 0.18  C 
ENDROOT
BRANCH 1 2
ATOM      2  N   PHE D   5      -7.980  -5.218   4.448  1.00 35.71 LIG-0.35  N 
ATOM      3  C   GLU D   4      -7.410  -6.270   5.017  1.00 38.23 LIG 0.24  C 
ATOM      4 O    GLU D   4      -6.541  -6.930   4.465  1.00 38.91 LIG-0.27  OA
ATOM      5 H    PHE D   5      -8.608  -4.757   4.811  1.00 35.71 LIG 0.16  HD
BRANCH 3 6
ATOM      6  CA  GLU D   4      -7.921  -6.651   6.400  1.00 41.03 LIG 0.18  C 
BRANCH 6 7
ATOM      7  CB  GLU D   4      -6.945  -6.183   7.487  1.00 45.60 LIG 0.04  C 
BRANCH 7 8
ATOM      8  CG  GLU D   4      -7.597  -5.592   8.728  1.00 48.48 LIG 0.12  C 
BRANCH 8 9
ATOM      9  CD  GLU D   4      -8.054  -4.154   8.523  1.00 50.69 LIG 0.17  C 
ATOM     10 OE1  GLU D   4      -8.070  -3.388   9.510  1.00 53.00 LIG-0.65  OA
ATOM     11 OE2  GLU D   4      -8.396  -3.785   7.378  1.00 50.91 LIG-0.65  OA
ENDBRANCH 8 9
ENDBRANCH 7 8
ENDBRANCH 6 7
BRANCH 6 12
ATOM     12  N   GLU D   4      -8.143  -8.086   6.519  1.00 42.32 LIG-0.35  N 
ATOM     13  C   THR D   3      -8.935  -8.730   5.669  1.00 42.71 LIG 0.25  C 
ATOM     14 O    THR D   3      -9.518  -8.164   4.742  1.00 42.89 LIG-0.27  OA
ATOM     15 H    GLU D   4      -7.725  -8.461   7.170  1.00 42.32 LIG 0.16  HD
BRANCH 13 16
ATOM     16  CA  THR D   3      -9.103 -10.232   5.910  1.00 43.40 LIG 0.30  C 
BRANCH 16 17
ATOM     17  N   THR D   3     -10.297 -10.753   5.181  1.00 40.96 LIG-0.06  N 
ATOM     18 H3   THR D   3     -10.035 -11.161   4.435  1.00 40.96 LIG 0.28  HD
ATOM     19 H2   THR D   3     -10.836 -10.076   4.974  1.00 40.96 LIG 0.28  HD
ATOM     20 H1   THR D   3     -10.732 -11.331   5.698  1.00 40.96 LIG 0.28  HD
ENDBRANCH 16 17
BRANCH 16 21
ATOM     21  CB  THR D   3      -7.830 -10.984   5.465  1.00 43.84 LIG 0.15  C 
ATOM     22  CG2 THR D   3      -6.945 -10.075   4.632  1.00 45.56 LIG 0.04  C 
BRANCH 21 23
ATOM     23 OG1  THR D   3      -7.107 -11.449   6.611  1.00 47.34 LIG-0.39  OA
ATOM     24 HG1  THR D   3      -6.814 -10.791   7.043  1.00 47.34 LIG 0.21  HD
ENDBRANCH 21 23
ENDBRANCH 16 21
ENDBRANCH 13 16
ENDBRANCH 6 12
ENDBRANCH 3 6
ENDBRANCH 1 2
BRANCH 1 25
ATOM     25  CB  PHE D   5      -8.671  -5.063   2.110  1.00 27.60 LIG 0.07  C 
BRANCH 25 26
ATOM     26  CG  PHE D   5      -8.916  -6.533   1.930  1.00 27.05 LIG-0.06  A 
ATOM     27  CD1 PHE D   5     -10.213  -7.036   1.898  1.00 25.07 LIG 0.01  A 
ATOM     28  CE1 PHE D   5     -10.444  -8.399   1.750  1.00 26.61 LIG 0.00  A 
ATOM     29  CZ  PHE D   5      -9.372  -9.274   1.629  1.00 27.22 LIG 0.00  A 
ATOM     30  CE2 PHE D   5      -8.070  -8.784   1.658  1.00 29.34 LIG 0.00  A 
ATOM     31  CD2 PHE D   5      -7.850  -7.415   1.808  1.00 26.26 LIG 0.01  A 
ENDBRANCH 25 26
ENDBRANCH 1 25
BRANCH 1 32
ATOM     32  C   PHE D   5      -7.233  -3.266   3.075  1.00 23.70 LIG 0.24  C 
ATOM     33  N   CYS D   6      -7.992  -2.464   3.811  1.00 21.13 LIG-0.34  N 
ATOM     34 H    CYS D   6      -8.663  -2.729   4.279  1.00 21.13 LIG 0.16  HD
ATOM     35 O    PHE D   5      -6.307  -2.851   2.378  1.00 21.21 LIG-0.27  OA
BRANCH 33 36
ATOM     36  CA  CYS D   6      -7.730  -1.033   3.880  1.00 20.21 LIG 0.19  C 
BRANCH 36 37
ATOM     37  CB  CYS D   6      -8.943  -0.255   4.390  1.00 23.91 LIG 0.12  C 
ATOM     38 SG   CYS D   6      -8.934   1.570   4.306  1.00 28.50 LIG-0.10  SA
ENDBRANCH 36 37
BRANCH 36 39
ATOM     39  C   CYS D   6      -6.591  -0.865   4.878  1.00 23.47 LIG 0.24  C 
ATOM     40  N   ALA D   7      -5.782   0.169   4.688  1.00 20.97 LIG-0.34  N 
ATOM     41 H    ALA D   7      -5.865   0.733   4.044  1.00 20.97 LIG 0.16  HD
ATOM     42 O    CYS D   6      -6.453  -1.664   5.807  1.00 21.16 LIG-0.27  OA
BRANCH 40 43
ATOM     43  CA  ALA D   7      -4.660   0.434   5.584  1.00 22.00 LIG 0.18  C 
ATOM     44  CB  ALA D   7      -3.545  -0.566   5.336  1.00 24.79 LIG 0.04  C 
BRANCH 43 45
ATOM     45  C   ALA D   7      -4.145   1.853   5.378  1.00 23.22 LIG 0.20  C 
ATOM     46 O    ALA D   7      -3.569   2.414   6.335  1.00 20.96 LIG-0.65  OA
ATOM     47 OXT  ALA D   7      -4.321   2.381   4.260  1.00 20.40 LIG-0.65  OA
ENDBRANCH 43 45
ENDBRANCH 40 43
ENDBRANCH 36 39
ENDBRANCH 33 36
ENDBRANCH 1 32
TORSDOF 18
ENDMDL
MODEL 22
USER: ADFR SOLUTION from run 72
USER: SCORE 17.094917 LL:  -4.663 LR: -13.098 RR:   0.000 FEB:  -7.728
USER: RMSD 13.064315
USER: SEED 71
USER: STATUS no improvement in best 7 clusters for 5 generations
USER: GENES 20
USER: genes 0 Translation |==|  0.65947 0.73534 0.69868
USER: genes 1 Rotation |==|  0.17796 0.73530 0.75245 0.66490
USER: genes 2 Torsion [C]-CA--N-[C] |==|  0.15904
USER: genes 3 Torsion [N]-C--CA-[N] |==|  0.01239
USER: genes 4 Torsion [C]-CA--CB-[CG] |==|  0.53422
USER: genes 5 Torsion [CA]-CB--CG-[CD] |==|  0.25861
USER: genes 6 Torsion [CB]-CG--CD-[OE1] |==|  0.87607
USER: genes 7 Torsion [C]-CA--N-[C] |==|  0.71111
USER: genes 8 Torsion [N]-C--CA-[N] |==|  0.08210
USER: genes 9 Torsion [C]-CA--N-[H3] |==|  0.53676
USER: genes 10 Torsion [C]-CA--CB-[CG2] |==|  0.19603
USER: genes 11 Torsion [CA]-CB--OG1-[HG1] |==|  0.84301
USER: genes 12 Torsion [N]-CA--CB-[CG] |==|  0.51583
USER: genes 13 Torsion [CA]-CB--CG-[CD2] |==|  0.16224
USER: genes 14 Torsion [N]-CA--C-[N] |==|  0.19265
USER: genes 15 Torsion [C]-N--CA-[C] |==|  0.79300
USER: genes 16 Torsion [N]-CA--CB-[SG] |==|  0.03387
USER: genes 17 Torsion [N]-CA--C-[N] |==|  0.92437
USER: genes 18 Torsion [C]-N--CA-[CB] |==|  0.14375
USER: genes 19 Torsion [N]-CA--C-[O] |==|  0.28678
ROOT
ATOM      1  CA  PHE D   5      -4.786   2.700   9.470  1.00 26.58 LIG 0.18  C 
ENDROOT
BRANCH 1 2
ATOM      2  N   PHE D   5      -4.707   3.514  10.676  1.00 35.71 LIG-0.35  N 
ATOM      3  C   GLU D   4      -4.665   2.967  11.882  1.00 38.23 LIG 0.24  C 
ATOM      4 O    GLU D   4      -4.723   1.758  12.061  1.00 38.91 LIG-0.27  OA
ATOM      5 H    PHE D   5      -4.691   4.362  10.533  1.00 35.71 LIG 0.16  HD
BRANCH 3 6
ATOM      6  CA  GLU D   4      -4.578   3.929  13.060  1.00 41.03 LIG 0.18  C 
BRANCH 6 7
ATOM      7  CB  GLU D   4      -5.680   3.631  14.084  1.00 45.60 LIG 0.04  C 
BRANCH 7 8
ATOM      8  CG  GLU D   4      -5.876   4.701  15.149  1.00 48.48 LIG 0.12  C 
BRANCH 8 9
ATOM      9  CD  GLU D   4      -6.945   5.717  14.769  1.00 50.69 LIG 0.17  C 
ATOM     10 OE1  GLU D   4      -6.944   6.174  13.606  1.00 53.00 LIG-0.65  OA
ATOM     11 OE2  GLU D   4      -7.786   6.061  15.627  1.00 50.91 LIG-0.65  OA
ENDBRANCH 8 9
ENDBRANCH 7 8
ENDBRANCH 6 7
BRANCH 6 12
ATOM     12  N   GLU D   4      -4.662   5.318  12.631  1.00 42.32 LIG-0.35  N 
ATOM     13  C   THR D   3      -3.581   6.088  12.582  1.00 42.71 LIG 0.25  C 
ATOM     14 O    THR D   3      -2.459   5.680  12.889  1.00 42.89 LIG-0.27  OA
ATOM     15 H    GLU D   4      -5.453   5.581  12.419  1.00 42.32 LIG 0.16  HD
BRANCH 13 16
ATOM     16  CA  THR D   3      -3.802   7.534  12.134  1.00 43.40 LIG 0.30  C 
BRANCH 16 17
ATOM     17  N   THR D   3      -5.170   7.998  12.510  1.00 40.96 LIG-0.06  N 
ATOM     18 H3   THR D   3      -5.355   8.757  12.083  1.00 40.96 LIG 0.28  HD
ATOM     19 H2   THR D   3      -5.207   8.136  13.388  1.00 40.96 LIG 0.28  HD
ATOM     20 H1   THR D   3      -5.767   7.378  12.283  1.00 40.96 LIG 0.28  HD
ENDBRANCH 16 17
BRANCH 16 21
ATOM     21  CB  THR D   3      -2.731   8.451  12.763  1.00 43.84 LIG 0.15  C 
ATOM     22  CG2 THR D   3      -1.375   8.185  12.137  1.00 45.56 LIG 0.04  C 
BRANCH 21 23
ATOM     23 OG1  THR D   3      -3.092   9.826  12.579  1.00 47.34 LIG-0.39  OA
ATOM     24 HG1  THR D   3      -3.196   9.980  11.760  1.00 47.34 LIG 0.21  HD
ENDBRANCH 21 23
ENDBRANCH 16 21
ENDBRANCH 13 16
ENDBRANCH 6 12
ENDBRANCH 3 6
ENDBRANCH 1 2
BRANCH 1 25
ATOM     25  CB  PHE D   5      -3.499   1.895   9.304  1.00 27.60 LIG 0.07  C 
BRANCH 25 26
ATOM     26  CG  PHE D   5      -3.437   1.129   8.015  1.00 27.05 LIG-0.06  A 
ATOM     27  CD1 PHE D   5      -3.267  -0.252   8.019  1.00 25.07 LIG 0.01  A 
ATOM     28  CE1 PHE D   5      -3.191  -0.962   6.825  1.00 26.61 LIG 0.00  A 
ATOM     29  CZ  PHE D   5      -3.286  -0.292   5.613  1.00 27.22 LIG 0.00  A 
ATOM     30  CE2 PHE D   5      -3.457   1.088   5.595  1.00 29.34 LIG 0.00  A 
ATOM     31  CD2 PHE D   5      -3.531   1.792   6.797  1.00 26.26 LIG 0.01  A 
ENDBRANCH 25 26
ENDBRANCH 1 25
BRANCH 1 32
ATOM     32  C   PHE D   5      -5.988   1.761   9.435  1.00 23.70 LIG 0.24  C 
ATOM     33  N   CYS D   6      -7.175   2.337   9.301  1.00 21.13 LIG-0.34  N 
ATOM     34 H    CYS D   6      -7.300   3.187   9.264  1.00 21.13 LIG 0.16  HD
ATOM     35 O    PHE D   5      -5.846   0.542   9.533  1.00 21.21 LIG-0.27  OA
BRANCH 33 36
ATOM     36  CA  CYS D   6      -8.392   1.541   9.204  1.00 20.21 LIG 0.19  C 
BRANCH 36 37
ATOM     37  CB  CYS D   6      -9.648   2.398   9.369  1.00 23.91 LIG 0.12  C 
ATOM     38 SG   CYS D   6      -9.500   4.218   9.312  1.00 28.50 LIG-0.10  SA
ENDBRANCH 36 37
BRANCH 36 39
ATOM     39  C   CYS D   6      -8.390   0.946   7.803  1.00 23.47 LIG 0.24  C 
ATOM     40  N   ALA D   7      -7.742   1.629   6.868  1.00 20.97 LIG-0.34  N 
ATOM     41 H    ALA D   7      -7.336   2.374   7.010  1.00 20.97 LIG 0.16  HD
ATOM     42 O    CYS D   6      -8.968  -0.119   7.576  1.00 21.16 LIG-0.27  OA
BRANCH 40 43
ATOM     43  CA  ALA D   7      -7.667   1.153   5.490  1.00 22.00 LIG 0.18  C 
ATOM     44  CB  ALA D   7      -9.057   0.832   4.971  1.00 24.79 LIG 0.04  C 
BRANCH 43 45
ATOM     45  C   ALA D   7      -7.009   2.204   4.604  1.00 23.22 LIG 0.20  C 
ATOM     46 O    ALA D   7      -5.820   2.025   4.264  1.00 20.96 LIG-0.65  OA
ATOM     47 OXT  ALA D   7      -7.695   3.189   4.260  1.00 20.40 LIG-0.65  OA
ENDBRANCH 43 45
ENDBRANCH 40 43
ENDBRANCH 36 39
ENDBRANCH 33 36
ENDBRANCH 1 32
TORSDOF 18
ENDMDL
