MODEL 1
USER: ADFR SOLUTION from run 56
USER: SCORE 19.127758 LL:  -4.301 LR: -16.576 RR:   0.000 FEB: -10.908
USER: RMSD 10.832605
USER: SEED 55
USER: STATUS no improvement in best 4 clusters for 5 generations
USER: GENES 21
USER: genes 0 Translation |==|  0.66906 0.61031 0.55861
USER: genes 1 Rotation |==|  0.53865 0.22582 0.69615 0.86723
USER: genes 2 Torsion [N]-C--CA-[N] |==|  0.85295
USER: genes 3 Torsion [C]-CA--N-[C] |==|  0.56111
USER: genes 4 Torsion [N]-C--CA-[N] |==|  0.85274
USER: genes 5 Torsion [C]-CA--N-[C] |==|  0.85038
USER: genes 6 Torsion [N]-C--CA-[N] |==|  0.88509
USER: genes 7 Torsion [C]-CA--N-[H2] |==|  0.82195
USER: genes 8 Torsion [C]-CA--CB-[CG] |==|  0.08215
USER: genes 9 Torsion [CA]-CB--CG-[CD2] |==|  0.73755
USER: genes 10 Torsion [C]-CA--CB-[CG2] |==|  0.38231
USER: genes 11 Torsion [CA]-CB--CG1-[CD1] |==|  0.29419
USER: genes 12 Torsion [C]-N--CA-[CB] |==|  0.24663
USER: genes 13 Torsion [N]-CA--C-[N] |==|  0.97413
USER: genes 14 Torsion [C]-N--CA-[CB] |==|  0.73405
USER: genes 15 Torsion [N]-CA--CB-[OG] |==|  0.74674
USER: genes 16 Torsion [CA]-CB--OG-[HG] |==|  0.51299
USER: genes 17 Torsion [N]-CA--C-[OXT] |==|  0.50933
USER: genes 18 Torsion [N]-CA--CB-[CG] |==|  0.13298
USER: genes 19 Torsion [CA]-CB--CG-[CD2] |==|  0.70277
USER: genes 20 Torsion [CE2]-CZ--OH-[HH] |==|  0.14818
ROOT
ATOM      1  C   ILE P   3      17.572  24.259  42.938  1.00 41.75 LIG 0.24  C 
ATOM      2 O    ILE P   3      17.482  25.304  42.298  1.00 43.02 LIG-0.27  OA
ATOM      3  N   TYR P   4      16.625  23.853  43.768  1.00 40.49 LIG-0.35  N 
ATOM      4 H    TYR P   4      16.622  23.094  44.173  1.00 40.49 LIG 0.16  HD
ENDROOT
BRANCH 1 5
ATOM      5  CA  ILE P   3      18.802  23.356  42.773  1.00 41.79 LIG 0.18  C 
BRANCH 5 6
ATOM      6  N   ILE P   3      19.394  23.034  44.083  1.00 42.70 LIG-0.35  N 
ATOM      7 H    ILE P   3      18.851  23.118  44.743  1.00 42.70 LIG 0.16  HD
ATOM      8  C   ALA P   2      20.664  22.649  44.215  1.00 42.25 LIG 0.24  C 
ATOM      9 O    ALA P   2      21.423  22.545  43.266  1.00 43.48 LIG-0.27  OA
BRANCH 8 10
ATOM     10  CA  ALA P   2      21.175  22.332  45.618  1.00 41.32 LIG 0.17  C 
ATOM     11  CB  ALA P   2      20.472  21.113  46.169  1.00 39.54 LIG 0.04  C 
BRANCH 10 12
ATOM     12  N   ALA P   2      20.874  23.485  46.458  1.00 41.39 LIG-0.35  N 
ATOM     13 H    ALA P   2      20.432  23.297  47.171  1.00 41.39 LIG 0.16  HD
ATOM     14  C   LEU P   1      21.261  24.712  46.130  1.00 41.33 LIG 0.25  C 
ATOM     15 O    LEU P   1      21.914  24.962  45.113  1.00 41.61 LIG-0.27  OA
BRANCH 14 16
ATOM     16  CA  LEU P   1      20.858  25.824  47.099  1.00 40.25 LIG 0.28  C 
BRANCH 16 17
ATOM     17  N   LEU P   1      19.464  25.600  47.560  1.00 40.65 LIG-0.07  N 
ATOM     18 H2   LEU P   1      18.909  25.664  46.867  1.00 40.65 LIG 0.28  HD
ATOM     19 H1   LEU P   1      19.250  26.212  48.169  1.00 40.65 LIG 0.28  HD
ATOM     20 H3   LEU P   1      19.396  24.789  47.919  1.00 40.65 LIG 0.28  HD
ENDBRANCH 16 17
BRANCH 16 21
ATOM     21  CB  LEU P   1      21.805  25.825  48.303  1.00 38.59 LIG 0.05  C 
BRANCH 21 22
ATOM     22  CG  LEU P   1      23.263  25.360  48.186  1.00 36.61 LIG-0.02  C 
ATOM     23  CD2 LEU P   1      23.336  23.894  48.576  1.00 36.34 LIG 0.01  C 
ATOM     24  CD1 LEU P   1      24.182  26.189  49.069  1.00 35.12 LIG 0.01  C 
ENDBRANCH 21 22
ENDBRANCH 16 21
ENDBRANCH 14 16
ENDBRANCH 10 12
ENDBRANCH 8 10
ENDBRANCH 5 6
BRANCH 5 25
ATOM     25  CB  ILE P   3      18.285  22.096  42.069  1.00 41.77 LIG 0.01  C 
ATOM     26  CG2 ILE P   3      19.288  21.688  40.992  1.00 41.93 LIG 0.01  C 
BRANCH 25 27
ATOM     27  CG1 ILE P   3      18.111  20.959  43.082  1.00 42.12 LIG 0.00  C 
ATOM     28  CD1 ILE P   3      16.687  20.637  43.456  1.00 41.36 LIG 0.01  C 
ENDBRANCH 25 27
ENDBRANCH 5 25
ENDBRANCH 1 5
BRANCH 3 29
ATOM     29  CA  TYR P   4      15.493  24.702  44.050  1.00 39.63 LIG 0.18  C 
BRANCH 29 30
ATOM     30  C   TYR P   4      15.150  24.425  45.516  1.00 40.27 LIG 0.24  C 
ATOM     31  N   SER P   5      15.798  23.408  46.037  1.00 40.75 LIG-0.34  N 
ATOM     32 H    SER P   5      16.385  22.956  45.600  1.00 40.75 LIG 0.16  HD
ATOM     33 O    TYR P   4      14.311  25.095  46.107  1.00 40.83 LIG-0.27  OA
BRANCH 31 34
ATOM     34  CA  SER P   5      15.600  22.934  47.406  1.00 41.35 LIG 0.21  C 
BRANCH 34 35
ATOM     35  CB  SER P   5      16.761  23.699  48.054  1.00 41.35 LIG 0.20  C 
BRANCH 35 36
ATOM     36 OG   SER P   5      17.669  22.632  47.856  1.00 42.37 LIG-0.40  OA
ATOM     37 HG   SER P   5      18.405  22.821  48.213  1.00 42.37 LIG 0.21  HD
ENDBRANCH 35 36
ENDBRANCH 34 35
BRANCH 34 38
ATOM     38  C   SER P   5      14.142  22.824  47.815  1.00 41.28 LIG 0.20  C 
ATOM     39 OXT  SER P   5      14.008  22.444  49.138  1.00 41.68 LIG-0.65  OA
ATOM     40 O    SER P   5      13.265  22.634  46.977  1.00 42.12 LIG-0.65  OA
ENDBRANCH 34 38
ENDBRANCH 31 34
ENDBRANCH 29 30
BRANCH 29 41
ATOM     41  CB  TYR P   4      14.335  24.484  43.049  1.00 37.99 LIG 0.07  C 
BRANCH 41 42
ATOM     42  CG  TYR P   4      13.897  23.044  42.743  1.00 35.75 LIG-0.06  A 
ATOM     43  CD2 TYR P   4      14.221  22.482  41.507  1.00 34.88 LIG 0.01  A 
ATOM     44  CE2 TYR P   4      13.869  21.181  41.194  1.00 35.19 LIG 0.04  A 
ATOM     45  CZ  TYR P   4      13.188  20.419  42.115  1.00 34.95 LIG 0.07  A 
ATOM     46  CE1 TYR P   4      12.839  20.944  43.349  1.00 35.39 LIG 0.04  A 
ATOM     47  CD1 TYR P   4      13.194  22.259  43.657  1.00 35.59 LIG 0.01  A 
BRANCH 45 48
ATOM     48 OH   TYR P   4      12.842  19.120  41.805  1.00 35.19 LIG-0.36  OA
ATOM     49 HH   TYR P   4      13.526  18.700  41.556  1.00 35.19 LIG 0.22  HD
ENDBRANCH 45 48
ENDBRANCH 41 42
ENDBRANCH 29 41
ENDBRANCH 3 29
TORSDOF 19
ENDMDL
MODEL 2
USER: ADFR SOLUTION from run 56
USER: SCORE 18.210995 LL:  -3.881 LR: -16.442 RR:   0.000 FEB: -10.774
USER: RMSD 10.007995
USER: SEED 55
USER: STATUS no improvement in best 4 clusters for 5 generations
USER: GENES 21
USER: genes 0 Translation |==|  0.62835 0.56782 0.59227
USER: genes 1 Rotation |==|  0.50126 0.07446 0.55816 0.75599
USER: genes 2 Torsion [N]-C--CA-[N] |==|  0.62719
USER: genes 3 Torsion [C]-CA--N-[C] |==|  0.71775
USER: genes 4 Torsion [N]-C--CA-[N] |==|  0.75400
USER: genes 5 Torsion [C]-CA--N-[C] |==|  0.76466
USER: genes 6 Torsion [N]-C--CA-[N] |==|  0.93013
USER: genes 7 Torsion [C]-CA--N-[H2] |==|  0.83333
USER: genes 8 Torsion [C]-CA--CB-[CG] |==|  0.10104
USER: genes 9 Torsion [CA]-CB--CG-[CD2] |==|  0.60632
USER: genes 10 Torsion [C]-CA--CB-[CG2] |==|  0.22834
USER: genes 11 Torsion [CA]-CB--CG1-[CD1] |==|  0.70897
USER: genes 12 Torsion [C]-N--CA-[CB] |==|  0.78644
USER: genes 13 Torsion [N]-CA--C-[N] |==|  0.13343
USER: genes 14 Torsion [C]-N--CA-[CB] |==|  0.16378
USER: genes 15 Torsion [N]-CA--CB-[OG] |==|  0.65908
USER: genes 16 Torsion [CA]-CB--OG-[HG] |==|  0.14228
USER: genes 17 Torsion [N]-CA--C-[OXT] |==|  0.20974
USER: genes 18 Torsion [N]-CA--CB-[CG] |==|  0.04724
USER: genes 19 Torsion [CA]-CB--CG-[CD2] |==|  0.24212
USER: genes 20 Torsion [CE2]-CZ--OH-[HH] |==|  0.12786
ROOT
ATOM      1  C   ILE P   3      16.351  22.985  43.948  1.00 41.75 LIG 0.24  C 
ATOM      2 O    ILE P   3      16.906  24.076  44.051  1.00 43.02 LIG-0.27  OA
ATOM      3  N   TYR P   4      15.048  22.868  43.749  1.00 40.49 LIG-0.35  N 
ATOM      4 H    TYR P   4      14.640  22.126  43.599  1.00 40.49 LIG 0.16  HD
ENDROOT
BRANCH 1 5
ATOM      5  CA  ILE P   3      17.173  21.690  44.021  1.00 41.79 LIG 0.18  C 
BRANCH 5 6
ATOM      6  N   ILE P   3      18.106  21.727  45.161  1.00 42.70 LIG-0.35  N 
ATOM      7 H    ILE P   3      17.738  21.565  45.920  1.00 42.70 LIG 0.16  HD
ATOM      8  C   ALA P   2      19.404  21.992  45.011  1.00 42.25 LIG 0.24  C 
ATOM      9 O    ALA P   2      19.906  22.230  43.925  1.00 43.48 LIG-0.27  OA
BRANCH 8 10
ATOM     10  CA  ALA P   2      20.284  21.998  46.257  1.00 41.32 LIG 0.17  C 
ATOM     11  CB  ALA P   2      19.746  21.027  47.283  1.00 39.54 LIG 0.04  C 
BRANCH 10 12
ATOM     12  N   ALA P   2      20.249  23.348  46.805  1.00 41.39 LIG-0.35  N 
ATOM     13 H    ALA P   2      19.667  23.462  47.427  1.00 41.39 LIG 0.16  HD
ATOM     14  C   LEU P   1      21.057  24.306  46.364  1.00 41.33 LIG 0.25  C 
ATOM     15 O    LEU P   1      21.901  24.120  45.483  1.00 41.61 LIG-0.27  OA
BRANCH 14 16
ATOM     16  CA  LEU P   1      20.893  25.677  47.021  1.00 40.25 LIG 0.28  C 
BRANCH 16 17
ATOM     17  N   LEU P   1      19.514  25.809  47.556  1.00 40.65 LIG-0.07  N 
ATOM     18 H2   LEU P   1      18.928  25.728  46.891  1.00 40.65 LIG 0.28  HD
ATOM     19 H1   LEU P   1      19.419  26.607  47.939  1.00 40.65 LIG 0.28  HD
ATOM     20 H3   LEU P   1      19.368  25.172  48.159  1.00 40.65 LIG 0.28  HD
ENDBRANCH 16 17
BRANCH 16 21
ATOM     21  CB  LEU P   1      21.906  25.825  48.160  1.00 38.59 LIG 0.05  C 
BRANCH 21 22
ATOM     22  CG  LEU P   1      23.321  25.239  48.066  1.00 36.61 LIG-0.02  C 
ATOM     23  CD2 LEU P   1      23.708  24.689  49.427  1.00 36.34 LIG 0.01  C 
ATOM     24  CD1 LEU P   1      24.326  26.286  47.613  1.00 35.12 LIG 0.01  C 
ENDBRANCH 21 22
ENDBRANCH 16 21
ENDBRANCH 14 16
ENDBRANCH 10 12
ENDBRANCH 8 10
ENDBRANCH 5 6
BRANCH 5 25
ATOM     25  CB  ILE P   3      16.142  20.566  44.179  1.00 41.77 LIG 0.01  C 
ATOM     26  CG2 ILE P   3      15.590  20.208  42.802  1.00 41.93 LIG 0.01  C 
BRANCH 25 27
ATOM     27  CG1 ILE P   3      16.797  19.336  44.818  1.00 42.12 LIG 0.00  C 
ATOM     28  CD1 ILE P   3      17.084  18.193  43.878  1.00 41.36 LIG 0.01  C 
ENDBRANCH 25 27
ENDBRANCH 5 25
ENDBRANCH 1 5
BRANCH 3 29
ATOM     29  CA  TYR P   4      14.203  24.037  43.775  1.00 39.63 LIG 0.18  C 
BRANCH 29 30
ATOM     30  C   TYR P   4      14.905  25.049  42.865  1.00 40.27 LIG 0.24  C 
ATOM     31  N   SER P   5      15.280  24.560  41.706  1.00 40.75 LIG-0.34  N 
ATOM     32 H    SER P   5      15.120  23.749  41.468  1.00 40.75 LIG 0.16  HD
ATOM     33 O    TYR P   4      15.111  26.198  43.238  1.00 40.83 LIG-0.27  OA
BRANCH 31 34
ATOM     34  CA  SER P   5      16.005  25.330  40.695  1.00 41.35 LIG 0.21  C 
BRANCH 34 35
ATOM     35  CB  SER P   5      17.226  25.686  41.553  1.00 41.35 LIG 0.20  C 
BRANCH 35 36
ATOM     36 OG   SER P   5      17.041  27.076  41.369  1.00 42.37 LIG-0.40  OA
ATOM     37 HG   SER P   5      16.247  27.280  41.554  1.00 42.37 LIG 0.21  HD
ENDBRANCH 35 36
ENDBRANCH 34 35
BRANCH 34 38
ATOM     38  C   SER P   5      15.918  24.745  39.298  1.00 41.28 LIG 0.20  C 
ATOM     39 OXT  SER P   5      14.684  24.982  38.718  1.00 41.68 LIG-0.65  OA
ATOM     40 O    SER P   5      16.643  23.814  38.957  1.00 42.12 LIG-0.65  OA
ENDBRANCH 34 38
ENDBRANCH 31 34
ENDBRANCH 29 30
BRANCH 29 41
ATOM     41  CB  TYR P   4      13.926  24.527  45.216  1.00 37.99 LIG 0.07  C 
BRANCH 41 42
ATOM     42  CG  TYR P   4      14.839  24.025  46.344  1.00 35.75 LIG-0.06  A 
ATOM     43  CD2 TYR P   4      16.018  24.718  46.625  1.00 34.88 LIG 0.01  A 
ATOM     44  CE2 TYR P   4      16.861  24.319  47.647  1.00 35.19 LIG 0.04  A 
ATOM     45  CZ  TYR P   4      16.537  23.219  48.408  1.00 34.95 LIG 0.07  A 
ATOM     46  CE1 TYR P   4      15.381  22.499  48.153  1.00 35.39 LIG 0.04  A 
ATOM     47  CD1 TYR P   4      14.536  22.905  47.118  1.00 35.59 LIG 0.01  A 
BRANCH 45 48
ATOM     48 OH   TYR P   4      17.375  22.825  49.430  1.00 35.19 LIG-0.36  OA
ATOM     49 HH   TYR P   4      17.599  23.496  49.883  1.00 35.19 LIG 0.22  HD
ENDBRANCH 45 48
ENDBRANCH 41 42
ENDBRANCH 29 41
ENDBRANCH 3 29
TORSDOF 19
ENDMDL
MODEL 3
USER: ADFR SOLUTION from run 148
USER: SCORE 17.981146 LL:  -4.228 LR: -16.140 RR:   0.000 FEB: -10.472
USER: RMSD 9.604196
USER: SEED 147
USER: STATUS no improvement in best 5 clusters for 5 generations
USER: GENES 21
USER: genes 0 Translation |==|  0.76394 0.58432 0.57889
USER: genes 1 Rotation |==|  0.53504 0.59373 0.52580 0.98920
USER: genes 2 Torsion [N]-C--CA-[N] |==|  0.23889
USER: genes 3 Torsion [C]-CA--N-[C] |==|  0.74713
USER: genes 4 Torsion [N]-C--CA-[N] |==|  0.82222
USER: genes 5 Torsion [C]-CA--N-[C] |==|  0.79855
USER: genes 6 Torsion [N]-C--CA-[N] |==|  0.58366
USER: genes 7 Torsion [C]-CA--N-[H2] |==|  0.95400
USER: genes 8 Torsion [C]-CA--CB-[CG] |==|  0.26791
USER: genes 9 Torsion [CA]-CB--CG-[CD2] |==|  0.00743
USER: genes 10 Torsion [C]-CA--CB-[CG2] |==|  0.38318
USER: genes 11 Torsion [CA]-CB--CG1-[CD1] |==|  0.27276
USER: genes 12 Torsion [C]-N--CA-[CB] |==|  0.36061
USER: genes 13 Torsion [N]-CA--C-[N] |==|  0.40734
USER: genes 14 Torsion [C]-N--CA-[CB] |==|  0.80075
USER: genes 15 Torsion [N]-CA--CB-[OG] |==|  0.81376
USER: genes 16 Torsion [CA]-CB--OG-[HG] |==|  0.19003
USER: genes 17 Torsion [N]-CA--C-[OXT] |==|  0.24340
USER: genes 18 Torsion [N]-CA--CB-[CG] |==|  0.14523
USER: genes 19 Torsion [CA]-CB--CG-[CD2] |==|  0.83445
USER: genes 20 Torsion [CE2]-CZ--OH-[HH] |==|  0.78461
ROOT
ATOM      1  C   ILE P   3      20.418  23.479  43.547  1.00 41.75 LIG 0.24  C 
ATOM      2 O    ILE P   3      20.020  24.520  43.028  1.00 43.02 LIG-0.27  OA
ATOM      3  N   TYR P   4      21.278  23.472  44.552  1.00 40.49 LIG-0.35  N 
ATOM      4 H    TYR P   4      21.520  22.770  44.984  1.00 40.49 LIG 0.16  HD
ENDROOT
BRANCH 1 5
ATOM      5  CA  ILE P   3      19.898  22.122  43.053  1.00 41.79 LIG 0.18  C 
BRANCH 5 6
ATOM      6  N   ILE P   3      18.732  21.690  43.844  1.00 42.70 LIG-0.35  N 
ATOM      7 H    ILE P   3      17.978  21.966  43.536  1.00 42.70 LIG 0.16  HD
ATOM      8  C   ALA P   2      18.852  20.939  44.938  1.00 42.25 LIG 0.24  C 
ATOM      9 O    ALA P   2      19.932  20.565  45.365  1.00 43.48 LIG-0.27  OA
BRANCH 8 10
ATOM     10  CA  ALA P   2      17.579  20.541  45.679  1.00 41.32 LIG 0.17  C 
ATOM     11  CB  ALA P   2      16.619  19.851  44.738  1.00 39.54 LIG 0.04  C 
BRANCH 10 12
ATOM     12  N   ALA P   2      16.969  21.766  46.179  1.00 41.39 LIG-0.35  N 
ATOM     13 H    ALA P   2      16.257  22.002  45.761  1.00 41.39 LIG 0.16  HD
ATOM     14  C   LEU P   1      17.487  22.443  47.197  1.00 41.33 LIG 0.25  C 
ATOM     15 O    LEU P   1      18.500  22.078  47.802  1.00 41.61 LIG-0.27  OA
BRANCH 14 16
ATOM     16  CA  LEU P   1      16.748  23.719  47.600  1.00 40.25 LIG 0.28  C 
BRANCH 16 17
ATOM     17  N   LEU P   1      17.715  24.698  48.161  1.00 40.65 LIG-0.07  N 
ATOM     18 H2   LEU P   1      18.471  24.279  48.374  1.00 40.65 LIG 0.28  HD
ATOM     19 H1   LEU P   1      17.369  25.074  48.889  1.00 40.65 LIG 0.28  HD
ATOM     20 H3   LEU P   1      17.886  25.326  47.555  1.00 40.65 LIG 0.28  HD
ENDBRANCH 16 17
BRANCH 16 21
ATOM     21  CB  LEU P   1      16.056  24.322  46.374  1.00 38.59 LIG 0.05  C 
BRANCH 21 22
ATOM     22  CG  LEU P   1      14.577  24.053  46.066  1.00 36.61 LIG-0.02  C 
ATOM     23  CD2 LEU P   1      13.998  23.200  47.180  1.00 36.34 LIG 0.01  C 
ATOM     24  CD1 LEU P   1      14.408  23.357  44.724  1.00 35.12 LIG 0.01  C 
ENDBRANCH 21 22
ENDBRANCH 16 21
ENDBRANCH 14 16
ENDBRANCH 10 12
ENDBRANCH 8 10
ENDBRANCH 5 6
BRANCH 5 25
ATOM     25  CB  ILE P   3      19.525  22.344  41.583  1.00 41.77 LIG 0.01  C 
ATOM     26  CG2 ILE P   3      19.997  21.141  40.769  1.00 41.93 LIG 0.01  C 
BRANCH 25 27
ATOM     27  CG1 ILE P   3      18.007  22.509  41.443  1.00 42.12 LIG 0.00  C 
ATOM     28  CD1 ILE P   3      17.516  23.932  41.359  1.00 41.36 LIG 0.01  C 
ENDBRANCH 25 27
ENDBRANCH 5 25
ENDBRANCH 1 5
BRANCH 3 29
ATOM     29  CA  TYR P   4      21.886  24.704  44.995  1.00 39.63 LIG 0.18  C 
BRANCH 29 30
ATOM     30  C   TYR P   4      23.316  24.655  44.449  1.00 40.27 LIG 0.24  C 
ATOM     31  N   SER P   5      23.805  25.827  44.118  1.00 40.75 LIG-0.34  N 
ATOM     32 H    SER P   5      23.370  26.562  44.224  1.00 40.75 LIG 0.16  HD
ATOM     33 O    TYR P   4      23.905  23.589  44.317  1.00 40.83 LIG-0.27  OA
BRANCH 31 34
ATOM     34  CA  SER P   5      25.134  26.018  43.536  1.00 41.35 LIG 0.21  C 
BRANCH 34 35
ATOM     35  CB  SER P   5      25.951  25.715  44.799  1.00 41.35 LIG 0.20  C 
BRANCH 35 36
ATOM     36 OG   SER P   5      25.485  26.872  45.466  1.00 42.37 LIG-0.40  OA
ATOM     37 HG   SER P   5      24.668  26.786  45.638  1.00 42.37 LIG 0.21  HD
ENDBRANCH 35 36
ENDBRANCH 34 35
BRANCH 34 38
ATOM     38  C   SER P   5      25.269  25.484  42.122  1.00 41.28 LIG 0.20  C 
ATOM     39 OXT  SER P   5      24.896  26.426  41.180  1.00 41.68 LIG-0.65  OA
ATOM     40 O    SER P   5      25.245  24.276  41.899  1.00 42.12 LIG-0.65  OA
ENDBRANCH 34 38
ENDBRANCH 31 34
ENDBRANCH 29 30
BRANCH 29 41
ATOM     41  CB  TYR P   4      21.771  24.895  46.525  1.00 37.99 LIG 0.07  C 
BRANCH 41 42
ATOM     42  CG  TYR P   4      22.247  23.757  47.440  1.00 35.75 LIG-0.06  A 
ATOM     43  CD2 TYR P   4      21.649  22.500  47.330  1.00 34.88 LIG 0.01  A 
ATOM     44  CE2 TYR P   4      22.059  21.436  48.115  1.00 35.19 LIG 0.04  A 
ATOM     45  CZ  TYR P   4      23.077  21.614  49.024  1.00 34.95 LIG 0.07  A 
ATOM     46  CE1 TYR P   4      23.688  22.849  49.170  1.00 35.39 LIG 0.04  A 
ATOM     47  CD1 TYR P   4      23.267  23.918  48.377  1.00 35.59 LIG 0.01  A 
BRANCH 45 48
ATOM     48 OH   TYR P   4      23.490  20.552  49.802  1.00 35.19 LIG-0.36  OA
ATOM     49 HH   TYR P   4      22.940  20.432  50.426  1.00 35.19 LIG 0.22  HD
ENDBRANCH 45 48
ENDBRANCH 41 42
ENDBRANCH 29 41
ENDBRANCH 3 29
TORSDOF 19
ENDMDL
MODEL 4
USER: ADFR SOLUTION from run 131
USER: SCORE 18.788997 LL:  -3.818 LR: -16.080 RR:   0.000 FEB: -10.412
USER: RMSD 11.175839
USER: SEED 130
USER: STATUS no improvement in best 6 clusters for 5 generations
USER: GENES 21
USER: genes 0 Translation |==|  0.64758 0.55343 0.63838
USER: genes 1 Rotation |==|  0.47013 0.05426 0.72442 0.50794
USER: genes 2 Torsion [N]-C--CA-[N] |==|  0.33621
USER: genes 3 Torsion [C]-CA--N-[C] |==|  0.80334
USER: genes 4 Torsion [N]-C--CA-[N] |==|  0.92922
USER: genes 5 Torsion [C]-CA--N-[C] |==|  0.81220
USER: genes 6 Torsion [N]-C--CA-[N] |==|  0.81268
USER: genes 7 Torsion [C]-CA--N-[H2] |==|  0.69836
USER: genes 8 Torsion [C]-CA--CB-[CG] |==|  0.78686
USER: genes 9 Torsion [CA]-CB--CG-[CD2] |==|  0.66038
USER: genes 10 Torsion [C]-CA--CB-[CG2] |==|  0.79642
USER: genes 11 Torsion [CA]-CB--CG1-[CD1] |==|  0.34881
USER: genes 12 Torsion [C]-N--CA-[CB] |==|  0.18057
USER: genes 13 Torsion [N]-CA--C-[N] |==|  0.44444
USER: genes 14 Torsion [C]-N--CA-[CB] |==|  0.22279
USER: genes 15 Torsion [N]-CA--CB-[OG] |==|  0.69152
USER: genes 16 Torsion [CA]-CB--OG-[HG] |==|  0.89052
USER: genes 17 Torsion [N]-CA--C-[OXT] |==|  0.06140
USER: genes 18 Torsion [N]-CA--CB-[CG] |==|  0.64844
USER: genes 19 Torsion [CA]-CB--CG-[CD2] |==|  0.78385
USER: genes 20 Torsion [CE2]-CZ--OH-[HH] |==|  0.36856
ROOT
ATOM      1  C   ILE P   3      16.927  22.553  45.331  1.00 41.75 LIG 0.24  C 
ATOM      2 O    ILE P   3      17.127  23.719  44.999  1.00 43.02 LIG-0.27  OA
ATOM      3  N   TYR P   4      16.404  21.660  44.507  1.00 40.49 LIG-0.35  N 
ATOM      4 H    TYR P   4      16.319  20.823  44.682  1.00 40.49 LIG 0.16  HD
ENDROOT
BRANCH 1 5
ATOM      5  CA  ILE P   3      17.313  22.075  46.738  1.00 41.79 LIG 0.18  C 
BRANCH 5 6
ATOM      6  N   ILE P   3      18.749  22.292  46.989  1.00 42.70 LIG-0.35  N 
ATOM      7 H    ILE P   3      18.915  22.917  47.554  1.00 42.70 LIG 0.16  HD
ATOM      8  C   ALA P   2      19.695  21.573  46.383  1.00 42.25 LIG 0.24  C 
ATOM      9 O    ALA P   2      19.439  20.696  45.575  1.00 43.48 LIG-0.27  OA
BRANCH 8 10
ATOM     10  CA  ALA P   2      21.152  21.875  46.720  1.00 41.32 LIG 0.17  C 
ATOM     11  CB  ALA P   2      21.631  20.968  47.830  1.00 39.54 LIG 0.04  C 
BRANCH 10 12
ATOM     12  N   ALA P   2      21.214  23.260  47.167  1.00 41.39 LIG-0.35  N 
ATOM     13 H    ALA P   2      21.410  23.355  47.998  1.00 41.39 LIG 0.16  HD
ATOM     14  C   LEU P   1      20.984  24.275  46.341  1.00 41.33 LIG 0.25  C 
ATOM     15 O    LEU P   1      20.725  24.122  45.144  1.00 41.61 LIG-0.27  OA
BRANCH 14 16
ATOM     16  CA  LEU P   1      21.068  25.673  46.956  1.00 40.25 LIG 0.28  C 
BRANCH 16 17
ATOM     17  N   LEU P   1      19.954  25.858  47.921  1.00 40.65 LIG-0.07  N 
ATOM     18 H2   LEU P   1      19.359  26.427  47.582  1.00 40.65 LIG 0.28  HD
ATOM     19 H1   LEU P   1      20.274  26.183  48.685  1.00 40.65 LIG 0.28  HD
ATOM     20 H3   LEU P   1      19.560  25.075  48.074  1.00 40.65 LIG 0.28  HD
ENDBRANCH 16 17
BRANCH 16 21
ATOM     21  CB  LEU P   1      22.409  25.838  47.678  1.00 38.59 LIG 0.05  C 
BRANCH 21 22
ATOM     22  CG  LEU P   1      22.671  25.206  49.052  1.00 36.61 LIG-0.02  C 
ATOM     23  CD2 LEU P   1      23.048  26.308  50.026  1.00 36.34 LIG 0.01  C 
ATOM     24  CD1 LEU P   1      23.774  24.162  48.980  1.00 35.12 LIG 0.01  C 
ENDBRANCH 21 22
ENDBRANCH 16 21
ENDBRANCH 14 16
ENDBRANCH 10 12
ENDBRANCH 8 10
ENDBRANCH 5 6
BRANCH 5 25
ATOM     25  CB  ILE P   3      16.448  22.900  47.697  1.00 41.77 LIG 0.01  C 
ATOM     26  CG2 ILE P   3      16.986  24.328  47.739  1.00 41.93 LIG 0.01  C 
BRANCH 25 27
ATOM     27  CG1 ILE P   3      14.990  22.902  47.223  1.00 42.12 LIG 0.00  C 
ATOM     28  CD1 ILE P   3      13.977  22.450  48.244  1.00 41.36 LIG 0.01  C 
ENDBRANCH 25 27
ENDBRANCH 5 25
ENDBRANCH 1 5
BRANCH 3 29
ATOM     29  CA  TYR P   4      15.923  22.066  43.209  1.00 39.63 LIG 0.18  C 
BRANCH 29 30
ATOM     30  C   TYR P   4      15.157  20.852  42.676  1.00 40.27 LIG 0.24  C 
ATOM     31  N   SER P   5      14.306  21.132  41.717  1.00 40.75 LIG-0.34  N 
ATOM     32 H    SER P   5      14.207  21.924  41.397  1.00 40.75 LIG 0.16  HD
ATOM     33 O    TYR P   4      15.328  19.738  43.155  1.00 40.83 LIG-0.27  OA
BRANCH 31 34
ATOM     34  CA  SER P   5      13.436  20.139  41.087  1.00 41.35 LIG 0.21  C 
BRANCH 34 35
ATOM     35  CB  SER P   5      12.356  20.099  42.176  1.00 41.35 LIG 0.20  C 
BRANCH 35 36
ATOM     36 OG   SER P   5      12.703  18.788  42.575  1.00 42.37 LIG-0.40  OA
ATOM     37 HG   SER P   5      12.883  18.327  41.896  1.00 42.37 LIG 0.21  HD
ENDBRANCH 35 36
ENDBRANCH 34 35
BRANCH 34 38
ATOM     38  C   SER P   5      13.313  20.294  39.582  1.00 41.28 LIG 0.20  C 
ATOM     39 OXT  SER P   5      14.383  20.992  39.050  1.00 41.68 LIG-0.65  OA
ATOM     40 O    SER P   5      12.218  20.235  39.029  1.00 42.12 LIG-0.65  OA
ENDBRANCH 34 38
ENDBRANCH 31 34
ENDBRANCH 29 30
BRANCH 29 41
ATOM     41  CB  TYR P   4      17.062  22.578  42.297  1.00 37.99 LIG 0.07  C 
BRANCH 41 42
ATOM     42  CG  TYR P   4      16.912  23.964  41.651  1.00 35.75 LIG-0.06  A 
ATOM     43  CD2 TYR P   4      16.086  24.109  40.535  1.00 34.88 LIG 0.01  A 
ATOM     44  CE2 TYR P   4      15.900  25.340  39.933  1.00 35.19 LIG 0.04  A 
ATOM     45  CZ  TYR P   4      16.538  26.450  40.438  1.00 34.95 LIG 0.07  A 
ATOM     46  CE1 TYR P   4      17.375  26.345  41.538  1.00 35.39 LIG 0.04  A 
ATOM     47  CD1 TYR P   4      17.560  25.098  42.140  1.00 35.59 LIG 0.01  A 
BRANCH 45 48
ATOM     48 OH   TYR P   4      16.348  27.678  39.841  1.00 35.19 LIG-0.36  OA
ATOM     49 HH   TYR P   4      16.184  28.254  40.430  1.00 35.19 LIG 0.22  HD
ENDBRANCH 45 48
ENDBRANCH 41 42
ENDBRANCH 29 41
ENDBRANCH 3 29
TORSDOF 19
ENDMDL
MODEL 5
USER: ADFR SOLUTION from run 63
USER: SCORE 18.919981 LL:  -4.273 LR: -16.069 RR:   0.000 FEB: -10.401
USER: RMSD 10.523466
USER: SEED 62
USER: STATUS no improvement in best 1 clusters for 5 generations
USER: GENES 21
USER: genes 0 Translation |==|  0.63198 0.63869 0.54299
USER: genes 1 Rotation |==|  0.67024 0.37176 0.77257 0.86094
USER: genes 2 Torsion [N]-C--CA-[N] |==|  0.91818
USER: genes 3 Torsion [C]-CA--N-[C] |==|  0.20760
USER: genes 4 Torsion [N]-C--CA-[N] |==|  0.19167
USER: genes 5 Torsion [C]-CA--N-[C] |==|  0.57222
USER: genes 6 Torsion [N]-C--CA-[N] |==|  0.05560
USER: genes 7 Torsion [C]-CA--N-[H2] |==|  0.46516
USER: genes 8 Torsion [C]-CA--CB-[CG] |==|  0.33530
USER: genes 9 Torsion [CA]-CB--CG-[CD2] |==|  0.67460
USER: genes 10 Torsion [C]-CA--CB-[CG2] |==|  0.99357
USER: genes 11 Torsion [CA]-CB--CG1-[CD1] |==|  0.57901
USER: genes 12 Torsion [C]-N--CA-[CB] |==|  0.15370
USER: genes 13 Torsion [N]-CA--C-[N] |==|  0.12265
USER: genes 14 Torsion [C]-N--CA-[CB] |==|  0.83484
USER: genes 15 Torsion [N]-CA--CB-[OG] |==|  0.80725
USER: genes 16 Torsion [CA]-CB--OG-[HG] |==|  0.73446
USER: genes 17 Torsion [N]-CA--C-[OXT] |==|  0.44586
USER: genes 18 Torsion [N]-CA--CB-[CG] |==|  0.15396
USER: genes 19 Torsion [CA]-CB--CG-[CD2] |==|  0.57332
USER: genes 20 Torsion [CE2]-CZ--OH-[HH] |==|  0.34590
ROOT
ATOM      1  C   ILE P   3      16.460  25.111  42.470  1.00 41.75 LIG 0.24  C 
ATOM      2 O    ILE P   3      15.510  25.828  42.163  1.00 43.02 LIG-0.27  OA
ATOM      3  N   TYR P   4      16.497  24.429  43.603  1.00 40.49 LIG-0.35  N 
ATOM      4 H    TYR P   4      17.109  23.864  43.814  1.00 40.49 LIG 0.16  HD
ENDROOT
BRANCH 1 5
ATOM      5  CA  ILE P   3      17.651  24.957  41.514  1.00 41.79 LIG 0.18  C 
BRANCH 5 6
ATOM      6  N   ILE P   3      18.887  24.668  42.262  1.00 42.70 LIG-0.35  N 
ATOM      7 H    ILE P   3      19.427  25.334  42.319  1.00 42.70 LIG 0.16  HD
ATOM      8  C   ALA P   2      19.132  23.472  42.799  1.00 42.25 LIG 0.24  C 
ATOM      9 O    ALA P   2      18.357  22.535  42.700  1.00 43.48 LIG-0.27  OA
BRANCH 8 10
ATOM     10  CA  ALA P   2      20.440  23.281  43.560  1.00 41.32 LIG 0.17  C 
ATOM     11  CB  ALA P   2      20.629  21.826  43.921  1.00 39.54 LIG 0.04  C 
BRANCH 10 12
ATOM     12  N   ALA P   2      20.350  24.074  44.780  1.00 41.39 LIG-0.35  N 
ATOM     13 H    ALA P   2      19.547  24.208  45.056  1.00 41.39 LIG 0.16  HD
ATOM     14  C   LEU P   1      21.430  24.539  45.397  1.00 41.33 LIG 0.25  C 
ATOM     15 O    LEU P   1      22.578  24.319  44.999  1.00 41.61 LIG-0.27  OA
BRANCH 14 16
ATOM     16  CA  LEU P   1      21.179  25.369  46.655  1.00 40.25 LIG 0.28  C 
BRANCH 16 17
ATOM     17  N   LEU P   1      19.820  25.077  47.180  1.00 40.65 LIG-0.07  N 
ATOM     18 H2   LEU P   1      19.739  25.413  48.000  1.00 40.65 LIG 0.28  HD
ATOM     19 H1   LEU P   1      19.695  24.196  47.207  1.00 40.65 LIG 0.28  HD
ATOM     20 H3   LEU P   1      19.210  25.446  46.647  1.00 40.65 LIG 0.28  HD
ENDBRANCH 16 17
BRANCH 16 21
ATOM     21  CB  LEU P   1      22.227  25.024  47.717  1.00 38.59 LIG 0.05  C 
BRANCH 21 22
ATOM     22  CG  LEU P   1      23.171  26.086  48.297  1.00 36.61 LIG-0.02  C 
ATOM     23  CD2 LEU P   1      24.598  25.712  47.939  1.00 36.34 LIG 0.01  C 
ATOM     24  CD1 LEU P   1      23.016  26.201  49.805  1.00 35.12 LIG 0.01  C 
ENDBRANCH 21 22
ENDBRANCH 16 21
ENDBRANCH 14 16
ENDBRANCH 10 12
ENDBRANCH 8 10
ENDBRANCH 5 6
BRANCH 5 25
ATOM     25  CB  ILE P   3      17.276  23.798  40.584  1.00 41.77 LIG 0.01  C 
ATOM     26  CG2 ILE P   3      15.922  23.240  41.015  1.00 41.93 LIG 0.01  C 
BRANCH 25 27
ATOM     27  CG1 ILE P   3      17.204  24.287  39.133  1.00 42.12 LIG 0.00  C 
ATOM     28  CD1 ILE P   3      16.255  23.530  38.240  1.00 41.36 LIG 0.01  C 
ENDBRANCH 25 27
ENDBRANCH 5 25
ENDBRANCH 1 5
BRANCH 3 29
ATOM     29  CA  TYR P   4      15.461  24.609  44.592  1.00 39.63 LIG 0.18  C 
BRANCH 29 30
ATOM     30  C   TYR P   4      15.860  23.689  45.749  1.00 40.27 LIG 0.24  C 
ATOM     31  N   SER P   5      17.133  23.742  46.063  1.00 40.75 LIG-0.34  N 
ATOM     32 H    SER P   5      17.690  24.268  45.670  1.00 40.75 LIG 0.16  HD
ATOM     33 O    TYR P   4      15.038  22.958  46.287  1.00 40.83 LIG-0.27  OA
BRANCH 31 34
ATOM     34  CA  SER P   5      17.748  22.922  47.106  1.00 41.35 LIG 0.21  C 
BRANCH 34 35
ATOM     35  CB  SER P   5      16.891  23.415  48.279  1.00 41.35 LIG 0.20  C 
BRANCH 35 36
ATOM     36 OG   SER P   5      17.481  24.700  48.264  1.00 42.37 LIG-0.40  OA
ATOM     37 HG   SER P   5      18.105  24.729  48.827  1.00 42.37 LIG 0.21  HD
ENDBRANCH 35 36
ENDBRANCH 34 35
BRANCH 34 38
ATOM     38  C   SER P   5      18.090  21.512  46.659  1.00 41.28 LIG 0.20  C 
ATOM     39 OXT  SER P   5      19.030  20.925  47.488  1.00 41.68 LIG-0.65  OA
ATOM     40 O    SER P   5      17.920  21.161  45.495  1.00 42.12 LIG-0.65  OA
ENDBRANCH 34 38
ENDBRANCH 31 34
ENDBRANCH 29 30
BRANCH 29 41
ATOM     41  CB  TYR P   4      14.049  24.362  44.010  1.00 37.99 LIG 0.07  C 
BRANCH 41 42
ATOM     42  CG  TYR P   4      13.768  23.016  43.325  1.00 35.75 LIG-0.06  A 
ATOM     43  CD2 TYR P   4      12.777  22.946  42.344  1.00 34.88 LIG 0.01  A 
ATOM     44  CE2 TYR P   4      12.503  21.763  41.681  1.00 35.19 LIG 0.04  A 
ATOM     45  CZ  TYR P   4      13.218  20.628  41.989  1.00 34.95 LIG 0.07  A 
ATOM     46  CE1 TYR P   4      14.201  20.655  42.965  1.00 35.39 LIG 0.04  A 
ATOM     47  CD1 TYR P   4      14.471  21.852  43.632  1.00 35.59 LIG 0.01  A 
BRANCH 45 48
ATOM     48 OH   TYR P   4      12.948  19.449  41.325  1.00 35.19 LIG-0.36  OA
ATOM     49 HH   TYR P   4      13.654  19.158  40.974  1.00 35.19 LIG 0.22  HD
ENDBRANCH 45 48
ENDBRANCH 41 42
ENDBRANCH 29 41
ENDBRANCH 3 29
TORSDOF 19
ENDMDL
MODEL 6
USER: ADFR SOLUTION from run 136
USER: SCORE 18.926587 LL:  -3.880 LR: -16.025 RR:   0.000 FEB: -10.357
USER: RMSD 11.273479
USER: SEED 135
USER: STATUS no improvement in best 4 clusters for 5 generations
USER: GENES 21
USER: genes 0 Translation |==|  0.64615 0.55451 0.64163
USER: genes 1 Rotation |==|  0.12858 0.68021 0.56194 0.77520
USER: genes 2 Torsion [N]-C--CA-[N] |==|  0.87272
USER: genes 3 Torsion [C]-CA--N-[C] |==|  0.83438
USER: genes 4 Torsion [N]-C--CA-[N] |==|  0.97130
USER: genes 5 Torsion [C]-CA--N-[C] |==|  0.76079
USER: genes 6 Torsion [N]-C--CA-[N] |==|  0.76231
USER: genes 7 Torsion [C]-CA--N-[H2] |==|  0.20934
USER: genes 8 Torsion [C]-CA--CB-[CG] |==|  0.42020
USER: genes 9 Torsion [CA]-CB--CG-[CD2] |==|  0.78575
USER: genes 10 Torsion [C]-CA--CB-[CG2] |==|  0.02248
USER: genes 11 Torsion [CA]-CB--CG1-[CD1] |==|  0.76823
USER: genes 12 Torsion [C]-N--CA-[CB] |==|  0.87239
USER: genes 13 Torsion [N]-CA--C-[N] |==|  0.80057
USER: genes 14 Torsion [C]-N--CA-[CB] |==|  0.18681
USER: genes 15 Torsion [N]-CA--CB-[OG] |==|  0.49781
USER: genes 16 Torsion [CA]-CB--OG-[HG] |==|  0.90697
USER: genes 17 Torsion [N]-CA--C-[OXT] |==|  0.56851
USER: genes 18 Torsion [N]-CA--CB-[CG] |==|  0.32537
USER: genes 19 Torsion [CA]-CB--CG-[CD2] |==|  0.71159
USER: genes 20 Torsion [CE2]-CZ--OH-[HH] |==|  0.87217
ROOT
ATOM      1  C   ILE P   3      16.884  22.585  45.429  1.00 41.75 LIG 0.24  C 
ATOM      2 O    ILE P   3      16.037  21.795  45.021  1.00 43.02 LIG-0.27  OA
ATOM      3  N   TYR P   4      17.399  23.532  44.661  1.00 40.49 LIG-0.35  N 
ATOM      4 H    TYR P   4      17.936  24.145  44.934  1.00 40.49 LIG 0.16  HD
ENDROOT
BRANCH 1 5
ATOM      5  CA  ILE P   3      17.366  22.517  46.885  1.00 41.79 LIG 0.18  C 
BRANCH 5 6
ATOM      6  N   ILE P   3      18.834  22.631  46.955  1.00 42.70 LIG-0.35  N 
ATOM      7 H    ILE P   3      19.111  23.301  47.417  1.00 42.70 LIG 0.16  HD
ATOM      8  C   ALA P   2      19.646  21.765  46.350  1.00 42.25 LIG 0.24  C 
ATOM      9 O    ALA P   2      19.234  20.826  45.690  1.00 43.48 LIG-0.27  OA
BRANCH 8 10
ATOM     10  CA  ALA P   2      21.152  21.972  46.494  1.00 41.32 LIG 0.17  C 
ATOM     11  CB  ALA P   2      21.743  20.907  47.387  1.00 39.54 LIG 0.04  C 
BRANCH 10 12
ATOM     12  N   ALA P   2      21.352  23.280  47.103  1.00 41.39 LIG-0.35  N 
ATOM     13 H    ALA P   2      21.430  23.263  47.959  1.00 41.39 LIG 0.16  HD
ATOM     14  C   LEU P   1      21.406  24.392  46.378  1.00 41.33 LIG 0.25  C 
ATOM     15 O    LEU P   1      21.312  24.396  45.147  1.00 41.61 LIG-0.27  OA
BRANCH 14 16
ATOM     16  CA  LEU P   1      21.603  25.692  47.157  1.00 40.25 LIG 0.28  C 
BRANCH 16 17
ATOM     17  N   LEU P   1      20.285  26.200  47.616  1.00 40.65 LIG-0.07  N 
ATOM     18 H2   LEU P   1      20.002  25.712  48.305  1.00 40.65 LIG 0.28  HD
ATOM     19 H1   LEU P   1      19.696  26.144  46.952  1.00 40.65 LIG 0.28  HD
ATOM     20 H3   LEU P   1      20.366  27.049  47.869  1.00 40.65 LIG 0.28  HD
ENDBRANCH 16 17
BRANCH 16 21
ATOM     21  CB  LEU P   1      22.508  25.436  48.365  1.00 38.59 LIG 0.05  C 
BRANCH 21 22
ATOM     22  CG  LEU P   1      23.405  26.534  48.952  1.00 36.61 LIG-0.02  C 
ATOM     23  CD2 LEU P   1      24.619  26.696  48.055  1.00 36.34 LIG 0.01  C 
ATOM     24  CD1 LEU P   1      23.835  26.198  50.371  1.00 35.12 LIG 0.01  C 
ENDBRANCH 21 22
ENDBRANCH 16 21
ENDBRANCH 14 16
ENDBRANCH 10 12
ENDBRANCH 8 10
ENDBRANCH 5 6
BRANCH 5 25
ATOM     25  CB  ILE P   3      16.680  23.690  47.593  1.00 41.77 LIG 0.01  C 
ATOM     26  CG2 ILE P   3      15.661  24.311  46.641  1.00 41.93 LIG 0.01  C 
BRANCH 25 27
ATOM     27  CG1 ILE P   3      15.979  23.200  48.866  1.00 42.12 LIG 0.00  C 
ATOM     28  CD1 ILE P   3      14.603  22.617  48.664  1.00 41.36 LIG 0.01  C 
ENDBRANCH 25 27
ENDBRANCH 5 25
ENDBRANCH 1 5
BRANCH 3 29
ATOM     29  CA  TYR P   4      17.069  23.587  43.258  1.00 39.63 LIG 0.18  C 
BRANCH 29 30
ATOM     30  C   TYR P   4      15.691  24.253  43.205  1.00 40.27 LIG 0.24  C 
ATOM     31  N   SER P   5      14.711  23.494  43.636  1.00 40.75 LIG-0.34  N 
ATOM     32 H    SER P   5      14.836  22.701  43.947  1.00 40.75 LIG 0.16  HD
ATOM     33 O    TYR P   4      15.553  25.386  42.759  1.00 40.83 LIG-0.27  OA
BRANCH 31 34
ATOM     34  CA  SER P   5      13.306  23.903  43.638  1.00 41.35 LIG 0.21  C 
BRANCH 34 35
ATOM     35  CB  SER P   5      13.108  23.949  42.117  1.00 41.35 LIG 0.20  C 
BRANCH 35 36
ATOM     36 OG   SER P   5      11.750  24.325  42.233  1.00 42.37 LIG-0.40  OA
ATOM     37 HG   SER P   5      11.417  23.969  42.916  1.00 42.37 LIG 0.21  HD
ENDBRANCH 35 36
ENDBRANCH 34 35
BRANCH 34 38
ATOM     38  C   SER P   5      12.474  23.241  44.721  1.00 41.28 LIG 0.20  C 
ATOM     39 OXT  SER P   5      11.132  23.200  44.384  1.00 41.68 LIG-0.65  OA
ATOM     40 O    SER P   5      12.867  23.202  45.884  1.00 42.12 LIG-0.65  OA
ENDBRANCH 34 38
ENDBRANCH 31 34
ENDBRANCH 29 30
BRANCH 29 41
ATOM     41  CB  TYR P   4      17.157  22.199  42.581  1.00 37.99 LIG 0.07  C 
BRANCH 41 42
ATOM     42  CG  TYR P   4      15.875  21.595  41.989  1.00 35.75 LIG-0.06  A 
ATOM     43  CD2 TYR P   4      15.223  20.571  42.680  1.00 34.88 LIG 0.01  A 
ATOM     44  CE2 TYR P   4      14.052  20.011  42.199  1.00 35.19 LIG 0.04  A 
ATOM     45  CZ  TYR P   4      13.513  20.467  41.018  1.00 34.95 LIG 0.07  A 
ATOM     46  CE1 TYR P   4      14.137  21.474  40.298  1.00 35.39 LIG 0.04  A 
ATOM     47  CD1 TYR P   4      15.319  22.033  40.787  1.00 35.59 LIG 0.01  A 
BRANCH 45 48
ATOM     48 OH   TYR P   4      12.344  19.912  40.541  1.00 35.19 LIG-0.36  OA
ATOM     49 HH   TYR P   4      12.390  19.075  40.592  1.00 35.19 LIG 0.22  HD
ENDBRANCH 45 48
ENDBRANCH 41 42
ENDBRANCH 29 41
ENDBRANCH 3 29
TORSDOF 19
ENDMDL
MODEL 7
USER: ADFR SOLUTION from run 43
USER: SCORE 17.874506 LL:  -3.193 LR: -15.942 RR:   0.000 FEB: -10.274
USER: RMSD 10.869332
USER: SEED 42
USER: STATUS 1 or 2 clusters left
USER: GENES 21
USER: genes 0 Translation |==|  0.60038 0.53904 0.61102
USER: genes 1 Rotation |==|  0.23006 0.87430 0.36569 0.63782
USER: genes 2 Torsion [N]-C--CA-[N] |==|  0.09774
USER: genes 3 Torsion [C]-CA--N-[C] |==|  0.66126
USER: genes 4 Torsion [N]-C--CA-[N] |==|  0.18449
USER: genes 5 Torsion [C]-CA--N-[C] |==|  0.64291
USER: genes 6 Torsion [N]-C--CA-[N] |==|  0.88702
USER: genes 7 Torsion [C]-CA--N-[H2] |==|  0.07491
USER: genes 8 Torsion [C]-CA--CB-[CG] |==|  0.12694
USER: genes 9 Torsion [CA]-CB--CG-[CD2] |==|  0.72780
USER: genes 10 Torsion [C]-CA--CB-[CG2] |==|  0.24326
USER: genes 11 Torsion [CA]-CB--CG1-[CD1] |==|  0.82473
USER: genes 12 Torsion [C]-N--CA-[CB] |==|  0.89024
USER: genes 13 Torsion [N]-CA--C-[N] |==|  0.88326
USER: genes 14 Torsion [C]-N--CA-[CB] |==|  0.51086
USER: genes 15 Torsion [N]-CA--CB-[OG] |==|  0.88757
USER: genes 16 Torsion [CA]-CB--OG-[HG] |==|  0.60219
USER: genes 17 Torsion [N]-CA--C-[OXT] |==|  0.26919
USER: genes 18 Torsion [N]-CA--CB-[CG] |==|  0.49971
USER: genes 19 Torsion [CA]-CB--CG-[CD2] |==|  0.01960
USER: genes 20 Torsion [CE2]-CZ--OH-[HH] |==|  0.12621
ROOT
ATOM      1  C   ILE P   3      15.511  22.121  44.511  1.00 41.75 LIG 0.24  C 
ATOM      2 O    ILE P   3      14.356  22.512  44.363  1.00 43.02 LIG-0.27  OA
ATOM      3  N   TYR P   4      16.216  21.600  43.520  1.00 40.49 LIG-0.35  N 
ATOM      4 H    TYR P   4      17.047  21.386  43.570  1.00 40.49 LIG 0.16  HD
ENDROOT
BRANCH 1 5
ATOM      5  CA  ILE P   3      16.202  22.252  45.875  1.00 41.79 LIG 0.18  C 
BRANCH 5 6
ATOM      6  N   ILE P   3      17.630  22.572  45.710  1.00 42.70 LIG-0.35  N 
ATOM      7 H    ILE P   3      17.779  23.294  45.268  1.00 42.70 LIG 0.16  HD
ATOM      8  C   ALA P   2      18.596  21.799  46.207  1.00 42.25 LIG 0.24  C 
ATOM      9 O    ALA P   2      18.366  20.772  46.823  1.00 43.48 LIG-0.27  OA
BRANCH 8 10
ATOM     10  CA  ALA P   2      20.044  22.227  45.984  1.00 41.32 LIG 0.17  C 
ATOM     11  CB  ALA P   2      20.989  21.166  46.499  1.00 39.54 LIG 0.04  C 
BRANCH 10 12
ATOM     12  N   ALA P   2      20.250  23.461  46.731  1.00 41.39 LIG-0.35  N 
ATOM     13 H    ALA P   2      20.007  23.420  47.555  1.00 41.39 LIG 0.16  HD
ATOM     14  C   LEU P   1      20.769  24.545  46.167  1.00 41.33 LIG 0.25  C 
ATOM     15 O    LEU P   1      21.132  24.581  44.988  1.00 41.61 LIG-0.27  OA
BRANCH 14 16
ATOM     16  CA  LEU P   1      20.909  25.770  47.071  1.00 40.25 LIG 0.28  C 
BRANCH 16 17
ATOM     17  N   LEU P   1      19.704  25.893  47.930  1.00 40.65 LIG-0.07  N 
ATOM     18 H2   LEU P   1      19.343  25.089  48.052  1.00 40.65 LIG 0.28  HD
ATOM     19 H1   LEU P   1      19.111  26.428  47.536  1.00 40.65 LIG 0.28  HD
ATOM     20 H3   LEU P   1      19.935  26.237  48.718  1.00 40.65 LIG 0.28  HD
ENDBRANCH 16 17
BRANCH 16 21
ATOM     21  CB  LEU P   1      22.156  25.623  47.948  1.00 38.59 LIG 0.05  C 
BRANCH 21 22
ATOM     22  CG  LEU P   1      23.502  25.164  47.371  1.00 36.61 LIG-0.02  C 
ATOM     23  CD2 LEU P   1      23.661  23.678  47.637  1.00 36.34 LIG 0.01  C 
ATOM     24  CD1 LEU P   1      24.659  25.938  47.981  1.00 35.12 LIG 0.01  C 
ENDBRANCH 21 22
ENDBRANCH 16 21
ENDBRANCH 14 16
ENDBRANCH 10 12
ENDBRANCH 8 10
ENDBRANCH 5 6
BRANCH 5 25
ATOM     25  CB  ILE P   3      15.457  23.381  46.598  1.00 41.77 LIG 0.01  C 
ATOM     26  CG2 ILE P   3      14.262  22.786  47.339  1.00 41.93 LIG 0.01  C 
BRANCH 25 27
ATOM     27  CG1 ILE P   3      16.393  24.082  47.589  1.00 42.12 LIG 0.00  C 
ATOM     28  CD1 ILE P   3      16.909  23.220  48.712  1.00 41.36 LIG 0.01  C 
ENDBRANCH 25 27
ENDBRANCH 5 25
ENDBRANCH 1 5
BRANCH 3 29
ATOM     29  CA  TYR P   4      15.596  21.352  42.241  1.00 39.63 LIG 0.18  C 
BRANCH 29 30
ATOM     30  C   TYR P   4      15.719  22.675  41.481  1.00 40.27 LIG 0.24  C 
ATOM     31  N   SER P   5      15.471  23.738  42.210  1.00 40.75 LIG-0.34  N 
ATOM     32 H    SER P   5      15.282  23.696  43.048  1.00 40.75 LIG 0.16  HD
ATOM     33 O    TYR P   4      15.994  22.696  40.288  1.00 40.83 LIG-0.27  OA
BRANCH 31 34
ATOM     34  CA  SER P   5      15.487  25.104  41.687  1.00 41.35 LIG 0.21  C 
BRANCH 34 35
ATOM     35  CB  SER P   5      15.233  25.830  43.015  1.00 41.35 LIG 0.20  C 
BRANCH 35 36
ATOM     36 OG   SER P   5      14.283  24.873  43.440  1.00 42.37 LIG-0.40  OA
ATOM     37 HG   SER P   5      13.666  25.258  43.860  1.00 42.37 LIG 0.21  HD
ENDBRANCH 35 36
ENDBRANCH 34 35
BRANCH 34 38
ATOM     38  C   SER P   5      16.538  25.342  40.619  1.00 41.28 LIG 0.20  C 
ATOM     39 OXT  SER P   5      16.008  25.234  39.345  1.00 41.68 LIG-0.65  OA
ATOM     40 O    SER P   5      17.731  25.172  40.858  1.00 42.12 LIG-0.65  OA
ENDBRANCH 34 38
ENDBRANCH 31 34
ENDBRANCH 29 30
BRANCH 29 41
ATOM     41  CB  TYR P   4      14.156  20.807  42.385  1.00 37.99 LIG 0.07  C 
BRANCH 41 42
ATOM     42  CG  TYR P   4      13.362  20.495  41.108  1.00 35.75 LIG-0.06  A 
ATOM     43  CD2 TYR P   4      14.006  20.569  39.871  1.00 34.88 LIG 0.01  A 
ATOM     44  CE2 TYR P   4      13.341  20.275  38.694  1.00 35.19 LIG 0.04  A 
ATOM     45  CZ  TYR P   4      12.017  19.900  38.735  1.00 34.95 LIG 0.07  A 
ATOM     46  CE1 TYR P   4      11.340  19.825  39.942  1.00 35.39 LIG 0.04  A 
ATOM     47  CD1 TYR P   4      12.017  20.126  41.126  1.00 35.59 LIG 0.01  A 
BRANCH 45 48
ATOM     48 OH   TYR P   4      11.356  19.601  37.562  1.00 35.19 LIG-0.36  OA
ATOM     49 HH   TYR P   4      11.840  19.106  37.086  1.00 35.19 LIG 0.22  HD
ENDBRANCH 45 48
ENDBRANCH 41 42
ENDBRANCH 29 41
ENDBRANCH 3 29
TORSDOF 19
ENDMDL
MODEL 8
USER: ADFR SOLUTION from run 137
USER: SCORE 18.594404 LL:  -3.687 LR: -15.804 RR:   0.000 FEB: -10.136
USER: RMSD 11.395078
USER: SEED 136
USER: STATUS no improvement in best 1 clusters for 5 generations
USER: GENES 21
USER: genes 0 Translation |==|  0.64437 0.54684 0.64903
USER: genes 1 Rotation |==|  0.15151 0.62140 0.64193 0.80605
USER: genes 2 Torsion [N]-C--CA-[N] |==|  0.84444
USER: genes 3 Torsion [C]-CA--N-[C] |==|  0.82796
USER: genes 4 Torsion [N]-C--CA-[N] |==|  0.95532
USER: genes 5 Torsion [C]-CA--N-[C] |==|  0.72986
USER: genes 6 Torsion [N]-C--CA-[N] |==|  0.76744
USER: genes 7 Torsion [C]-CA--N-[H2] |==|  0.25399
USER: genes 8 Torsion [C]-CA--CB-[CG] |==|  0.20561
USER: genes 9 Torsion [CA]-CB--CG-[CD2] |==|  0.38187
USER: genes 10 Torsion [C]-CA--CB-[CG2] |==|  0.76963
USER: genes 11 Torsion [CA]-CB--CG1-[CD1] |==|  0.32959
USER: genes 12 Torsion [C]-N--CA-[CB] |==|  0.78734
USER: genes 13 Torsion [N]-CA--C-[N] |==|  0.17283
USER: genes 14 Torsion [C]-N--CA-[CB] |==|  0.47416
USER: genes 15 Torsion [N]-CA--CB-[OG] |==|  0.03505
USER: genes 16 Torsion [CA]-CB--OG-[HG] |==|  0.27190
USER: genes 17 Torsion [N]-CA--C-[OXT] |==|  0.30406
USER: genes 18 Torsion [N]-CA--CB-[CG] |==|  0.48806
USER: genes 19 Torsion [CA]-CB--CG-[CD2] |==|  0.50206
USER: genes 20 Torsion [CE2]-CZ--OH-[HH] |==|  0.01725
ROOT
ATOM      1  C   ILE P   3      16.831  22.355  45.651  1.00 41.75 LIG 0.24  C 
ATOM      2 O    ILE P   3      16.202  21.483  45.056  1.00 43.02 LIG-0.27  OA
ATOM      3  N   TYR P   4      16.961  23.584  45.178  1.00 40.49 LIG-0.35  N 
ATOM      4 H    TYR P   4      17.330  24.234  45.601  1.00 40.49 LIG 0.16  HD
ENDROOT
BRANCH 1 5
ATOM      5  CA  ILE P   3      17.479  22.049  47.008  1.00 41.79 LIG 0.18  C 
BRANCH 5 6
ATOM      6  N   ILE P   3      18.918  22.364  46.983  1.00 42.70 LIG-0.35  N 
ATOM      7 H    ILE P   3      19.153  22.975  47.540  1.00 42.70 LIG 0.16  HD
ATOM      8  C   ALA P   2      19.769  21.747  46.163  1.00 42.25 LIG 0.24  C 
ATOM      9 O    ALA P   2      19.415  20.888  45.372  1.00 43.48 LIG-0.27  OA
BRANCH 8 10
ATOM     10  CA  ALA P   2      21.241  22.144  46.224  1.00 41.32 LIG 0.17  C 
ATOM     11  CB  ALA P   2      22.035  21.101  46.976  1.00 39.54 LIG 0.04  C 
BRANCH 10 12
ATOM     12  N   ALA P   2      21.317  23.414  46.934  1.00 41.39 LIG-0.35  N 
ATOM     13 H    ALA P   2      21.312  23.341  47.790  1.00 41.39 LIG 0.16  HD
ATOM     14  C   LEU P   1      21.387  24.575  46.292  1.00 41.33 LIG 0.25  C 
ATOM     15 O    LEU P   1      21.414  24.661  45.061  1.00 41.61 LIG-0.27  OA
BRANCH 14 16
ATOM     16  CA  LEU P   1      21.443  25.825  47.170  1.00 40.25 LIG 0.28  C 
BRANCH 16 17
ATOM     17  N   LEU P   1      20.066  26.218  47.564  1.00 40.65 LIG-0.07  N 
ATOM     18 H2   LEU P   1      19.856  25.830  48.337  1.00 40.65 LIG 0.28  HD
ATOM     19 H1   LEU P   1      19.491  25.957  46.936  1.00 40.65 LIG 0.28  HD
ATOM     20 H3   LEU P   1      20.024  27.102  47.655  1.00 40.65 LIG 0.28  HD
ENDBRANCH 16 17
BRANCH 16 21
ATOM     21  CB  LEU P   1      22.276  25.537  48.423  1.00 38.59 LIG 0.05  C 
BRANCH 21 22
ATOM     22  CG  LEU P   1      23.806  25.424  48.369  1.00 36.61 LIG-0.02  C 
ATOM     23  CD2 LEU P   1      24.387  26.157  49.565  1.00 36.34 LIG 0.01  C 
ATOM     24  CD1 LEU P   1      24.358  26.000  47.075  1.00 35.12 LIG 0.01  C 
ENDBRANCH 21 22
ENDBRANCH 16 21
ENDBRANCH 14 16
ENDBRANCH 10 12
ENDBRANCH 8 10
ENDBRANCH 5 6
BRANCH 5 25
ATOM     25  CB  ILE P   3      16.733  22.926  48.020  1.00 41.77 LIG 0.01  C 
ATOM     26  CG2 ILE P   3      17.340  24.326  47.998  1.00 41.93 LIG 0.01  C 
BRANCH 25 27
ATOM     27  CG1 ILE P   3      15.244  22.994  47.662  1.00 42.12 LIG 0.00  C 
ATOM     28  CD1 ILE P   3      14.302  22.450  48.705  1.00 41.36 LIG 0.01  C 
ENDBRANCH 25 27
ENDBRANCH 5 25
ENDBRANCH 1 5
BRANCH 3 29
ATOM     29  CA  TYR P   4      16.468  23.910  43.862  1.00 39.63 LIG 0.18  C 
BRANCH 29 30
ATOM     30  C   TYR P   4      15.038  23.363  43.832  1.00 40.27 LIG 0.24  C 
ATOM     31  N   SER P   5      14.234  23.913  44.711  1.00 40.75 LIG-0.34  N 
ATOM     32 H    SER P   5      14.481  24.546  45.239  1.00 40.75 LIG 0.16  HD
ATOM     33 O    TYR P   4      14.721  22.464  43.062  1.00 40.83 LIG-0.27  OA
BRANCH 31 34
ATOM     34  CA  SER P   5      12.837  23.519  44.893  1.00 41.35 LIG 0.21  C 
BRANCH 34 35
ATOM     35  CB  SER P   5      12.566  24.326  46.170  1.00 41.35 LIG 0.20  C 
BRANCH 35 36
ATOM     36 OG   SER P   5      13.758  25.074  46.037  1.00 42.37 LIG-0.40  OA
ATOM     37 HG   SER P   5      13.587  25.815  45.680  1.00 42.37 LIG 0.21  HD
ENDBRANCH 35 36
ENDBRANCH 34 35
BRANCH 34 38
ATOM     38  C   SER P   5      12.049  23.429  43.599  1.00 41.28 LIG 0.20  C 
ATOM     39 OXT  SER P   5      11.749  22.118  43.272  1.00 41.68 LIG-0.65  OA
ATOM     40 O    SER P   5      12.107  24.325  42.761  1.00 42.12 LIG-0.65  OA
ENDBRANCH 34 38
ENDBRANCH 31 34
ENDBRANCH 29 30
BRANCH 29 41
ATOM     41  CB  TYR P   4      17.397  23.387  42.742  1.00 37.99 LIG 0.07  C 
BRANCH 41 42
ATOM     42  CG  TYR P   4      16.954  23.569  41.282  1.00 35.75 LIG-0.06  A 
ATOM     43  CD2 TYR P   4      17.773  23.089  40.258  1.00 34.88 LIG 0.01  A 
ATOM     44  CE2 TYR P   4      17.407  23.207  38.929  1.00 35.19 LIG 0.04  A 
ATOM     45  CZ  TYR P   4      16.212  23.808  38.602  1.00 34.95 LIG 0.07  A 
ATOM     46  CE1 TYR P   4      15.378  24.307  39.590  1.00 35.39 LIG 0.04  A 
ATOM     47  CD1 TYR P   4      15.755  24.186  40.929  1.00 35.59 LIG 0.01  A 
BRANCH 45 48
ATOM     48 OH   TYR P   4      15.845  23.921  37.278  1.00 35.19 LIG-0.36  OA
ATOM     49 HH   TYR P   4      16.398  23.510  36.798  1.00 35.19 LIG 0.22  HD
ENDBRANCH 45 48
ENDBRANCH 41 42
ENDBRANCH 29 41
ENDBRANCH 3 29
TORSDOF 19
ENDMDL
MODEL 9
USER: ADFR SOLUTION from run 138
USER: SCORE 17.605429 LL:  -4.740 LR: -15.620 RR:   0.000 FEB:  -9.952
USER: RMSD 10.843632
USER: SEED 137
USER: STATUS no improvement in best 1 clusters for 5 generations
USER: GENES 21
USER: genes 0 Translation |==|  0.71335 0.48675 0.61951
USER: genes 1 Rotation |==|  0.08497 0.25800 0.50633 0.63837
USER: genes 2 Torsion [N]-C--CA-[N] |==|  0.87838
USER: genes 3 Torsion [C]-CA--N-[C] |==|  0.74587
USER: genes 4 Torsion [N]-C--CA-[N] |==|  0.64296
USER: genes 5 Torsion [C]-CA--N-[C] |==|  0.12222
USER: genes 6 Torsion [N]-C--CA-[N] |==|  0.99328
USER: genes 7 Torsion [C]-CA--N-[H2] |==|  0.82716
USER: genes 8 Torsion [C]-CA--CB-[CG] |==|  0.51757
USER: genes 9 Torsion [CA]-CB--CG-[CD2] |==|  0.54236
USER: genes 10 Torsion [C]-CA--CB-[CG2] |==|  0.77921
USER: genes 11 Torsion [CA]-CB--CG1-[CD1] |==|  0.43970
USER: genes 12 Torsion [C]-N--CA-[CB] |==|  0.43549
USER: genes 13 Torsion [N]-CA--C-[N] |==|  0.20332
USER: genes 14 Torsion [C]-N--CA-[CB] |==|  0.41221
USER: genes 15 Torsion [N]-CA--CB-[OG] |==|  0.83564
USER: genes 16 Torsion [CA]-CB--OG-[HG] |==|  0.68892
USER: genes 17 Torsion [N]-CA--C-[OXT] |==|  0.29369
USER: genes 18 Torsion [N]-CA--CB-[CG] |==|  0.11414
USER: genes 19 Torsion [CA]-CB--CG-[CD2] |==|  0.56594
USER: genes 20 Torsion [CE2]-CZ--OH-[HH] |==|  0.66163
ROOT
ATOM      1  C   ILE P   3      18.900  20.552  44.765  1.00 41.75 LIG 0.24  C 
ATOM      2 O    ILE P   3      19.866  19.810  44.928  1.00 43.02 LIG-0.27  OA
ATOM      3  N   TYR P   4      18.839  21.429  43.776  1.00 40.49 LIG-0.35  N 
ATOM      4 H    TYR P   4      18.151  21.909  43.590  1.00 40.49 LIG 0.16  HD
ENDROOT
BRANCH 1 5
ATOM      5  CA  ILE P   3      17.694  20.468  45.710  1.00 41.79 LIG 0.18  C 
BRANCH 5 6
ATOM      6  N   ILE P   3      17.219  21.815  46.073  1.00 42.70 LIG-0.35  N 
ATOM      7 H    ILE P   3      16.637  22.140  45.530  1.00 42.70 LIG 0.16  HD
ATOM      8  C   ALA P   2      17.663  22.460  47.152  1.00 42.25 LIG 0.24  C 
ATOM      9 O    ALA P   2      18.496  21.987  47.906  1.00 43.48 LIG-0.27  OA
BRANCH 8 10
ATOM     10  CA  ALA P   2      17.099  23.849  47.440  1.00 41.32 LIG 0.17  C 
ATOM     11  CB  ALA P   2      16.274  24.333  46.270  1.00 39.54 LIG 0.04  C 
BRANCH 10 12
ATOM     12  N   ALA P   2      18.232  24.743  47.636  1.00 41.39 LIG-0.35  N 
ATOM     13 H    ALA P   2      18.150  25.278  48.304  1.00 41.39 LIG 0.16  HD
ATOM     14  C   LEU P   1      19.293  24.718  46.837  1.00 41.33 LIG 0.25  C 
ATOM     15 O    LEU P   1      19.406  23.929  45.895  1.00 41.61 LIG-0.27  OA
BRANCH 14 16
ATOM     16  CA  LEU P   1      20.397  25.727  47.155  1.00 40.25 LIG 0.28  C 
BRANCH 16 17
ATOM     17  N   LEU P   1      19.979  26.575  48.301  1.00 40.65 LIG-0.07  N 
ATOM     18 H2   LEU P   1      19.250  27.034  48.080  1.00 40.65 LIG 0.28  HD
ATOM     19 H1   LEU P   1      20.635  27.141  48.507  1.00 40.65 LIG 0.28  HD
ATOM     20 H3   LEU P   1      19.802  26.059  49.003  1.00 40.65 LIG 0.28  HD
ENDBRANCH 16 17
BRANCH 16 21
ATOM     21  CB  LEU P   1      21.689  24.983  47.508  1.00 38.59 LIG 0.05  C 
BRANCH 21 22
ATOM     22  CG  LEU P   1      22.936  25.721  48.012  1.00 36.61 LIG-0.02  C 
ATOM     23  CD2 LEU P   1      24.127  24.786  47.907  1.00 36.34 LIG 0.01  C 
ATOM     24  CD1 LEU P   1      22.758  26.194  49.446  1.00 35.12 LIG 0.01  C 
ENDBRANCH 21 22
ENDBRANCH 16 21
ENDBRANCH 14 16
ENDBRANCH 10 12
ENDBRANCH 8 10
ENDBRANCH 5 6
BRANCH 5 25
ATOM     25  CB  ILE P   3      16.626  19.690  44.933  1.00 41.77 LIG 0.01  C 
ATOM     26  CG2 ILE P   3      15.947  20.638  43.948  1.00 41.93 LIG 0.01  C 
BRANCH 25 27
ATOM     27  CG1 ILE P   3      17.269  18.521  44.179  1.00 42.12 LIG 0.00  C 
ATOM     28  CD1 ILE P   3      16.334  17.399  43.805  1.00 41.36 LIG 0.01  C 
ENDBRANCH 25 27
ENDBRANCH 5 25
ENDBRANCH 1 5
BRANCH 3 29
ATOM     29  CA  TYR P   4      19.979  21.633  42.916  1.00 39.63 LIG 0.18  C 
BRANCH 29 30
ATOM     30  C   TYR P   4      20.937  22.503  43.734  1.00 40.27 LIG 0.24  C 
ATOM     31  N   SER P   5      21.539  21.866  44.712  1.00 40.75 LIG-0.34  N 
ATOM     32 H    SER P   5      21.426  21.026  44.862  1.00 40.75 LIG 0.16  HD
ATOM     33 O    TYR P   4      21.076  23.694  43.488  1.00 40.83 LIG-0.27  OA
BRANCH 31 34
ATOM     34  CA  SER P   5      22.464  22.503  45.649  1.00 41.35 LIG 0.21  C 
BRANCH 34 35
ATOM     35  CB  SER P   5      22.148  21.626  46.869  1.00 41.35 LIG 0.20  C 
BRANCH 35 36
ATOM     36 OG   SER P   5      20.781  21.988  46.865  1.00 42.37 LIG-0.40  OA
ATOM     37 HG   SER P   5      20.612  22.451  47.545  1.00 42.37 LIG 0.21  HD
ENDBRANCH 35 36
ENDBRANCH 34 35
BRANCH 34 38
ATOM     38  C   SER P   5      23.795  22.892  45.033  1.00 41.28 LIG 0.20  C 
ATOM     39 OXT  SER P   5      23.888  24.258  44.833  1.00 41.68 LIG-0.65  OA
ATOM     40 O    SER P   5      24.452  22.080  44.386  1.00 42.12 LIG-0.65  OA
ENDBRANCH 34 38
ENDBRANCH 31 34
ENDBRANCH 29 30
BRANCH 29 41
ATOM     41  CB  TYR P   4      19.577  22.211  41.539  1.00 37.99 LIG 0.07  C 
BRANCH 41 42
ATOM     42  CG  TYR P   4      18.502  23.308  41.495  1.00 35.75 LIG-0.06  A 
ATOM     43  CD2 TYR P   4      17.769  23.495  40.321  1.00 34.88 LIG 0.01  A 
ATOM     44  CE2 TYR P   4      16.774  24.453  40.239  1.00 35.19 LIG 0.04  A 
ATOM     45  CZ  TYR P   4      16.496  25.241  41.333  1.00 34.95 LIG 0.07  A 
ATOM     46  CE1 TYR P   4      17.209  25.093  42.512  1.00 35.39 LIG 0.04  A 
ATOM     47  CD1 TYR P   4      18.213  24.125  42.586  1.00 35.59 LIG 0.01  A 
BRANCH 45 48
ATOM     48 OH   TYR P   4      15.500  26.193  41.253  1.00 35.19 LIG-0.36  OA
ATOM     49 HH   TYR P   4      15.823  26.950  41.421  1.00 35.19 LIG 0.22  HD
ENDBRANCH 45 48
ENDBRANCH 41 42
ENDBRANCH 29 41
ENDBRANCH 3 29
TORSDOF 19
ENDMDL
MODEL 10
USER: ADFR SOLUTION from run 127
USER: SCORE 16.927606 LL:  -3.609 LR: -15.587 RR:   0.000 FEB:  -9.920
USER: RMSD 11.022611
USER: SEED 126
USER: STATUS no improvement in best 2 clusters for 5 generations
USER: GENES 21
USER: genes 0 Translation |==|  0.63279 0.60825 0.55416
USER: genes 1 Rotation |==|  0.71449 0.22752 0.74046 0.76820
USER: genes 2 Torsion [N]-C--CA-[N] |==|  0.90925
USER: genes 3 Torsion [C]-CA--N-[C] |==|  0.87777
USER: genes 4 Torsion [N]-C--CA-[N] |==|  0.34036
USER: genes 5 Torsion [C]-CA--N-[C] |==|  0.80284
USER: genes 6 Torsion [N]-C--CA-[N] |==|  0.84925
USER: genes 7 Torsion [C]-CA--N-[H2] |==|  0.42449
USER: genes 8 Torsion [C]-CA--CB-[CG] |==|  0.49598
USER: genes 9 Torsion [CA]-CB--CG-[CD2] |==|  0.82807
USER: genes 10 Torsion [C]-CA--CB-[CG2] |==|  0.77389
USER: genes 11 Torsion [CA]-CB--CG1-[CD1] |==|  0.57315
USER: genes 12 Torsion [C]-N--CA-[CB] |==|  0.41210
USER: genes 13 Torsion [N]-CA--C-[N] |==|  0.76772
USER: genes 14 Torsion [C]-N--CA-[CB] |==|  0.81298
USER: genes 15 Torsion [N]-CA--CB-[OG] |==|  0.66701
USER: genes 16 Torsion [CA]-CB--OG-[HG] |==|  0.48613
USER: genes 17 Torsion [N]-CA--C-[OXT] |==|  0.96277
USER: genes 18 Torsion [N]-CA--CB-[CG] |==|  0.76822
USER: genes 19 Torsion [CA]-CB--CG-[CD2] |==|  0.13500
USER: genes 20 Torsion [CE2]-CZ--OH-[HH] |==|  0.14953
ROOT
ATOM      1  C   ILE P   3      16.484  24.198  42.805  1.00 41.75 LIG 0.24  C 
ATOM      2 O    ILE P   3      15.658  25.097  42.665  1.00 43.02 LIG-0.27  OA
ATOM      3  N   TYR P   4      16.160  23.006  43.278  1.00 40.49 LIG-0.35  N 
ATOM      4 H    TYR P   4      16.695  22.334  43.319  1.00 40.49 LIG 0.16  HD
ENDROOT
BRANCH 1 5
ATOM      5  CA  ILE P   3      17.947  24.423  42.399  1.00 41.79 LIG 0.18  C 
BRANCH 5 6
ATOM      6  N   ILE P   3      18.854  23.643  43.260  1.00 42.70 LIG-0.35  N 
ATOM      7 H    ILE P   3      19.482  23.240  42.833  1.00 42.70 LIG 0.16  HD
ATOM      8  C   ALA P   2      18.700  23.578  44.583  1.00 42.25 LIG 0.24  C 
ATOM      9 O    ALA P   2      17.797  24.149  45.170  1.00 43.48 LIG-0.27  OA
BRANCH 8 10
ATOM     10  CA  ALA P   2      19.701  22.747  45.381  1.00 41.32 LIG 0.17  C 
ATOM     11  CB  ALA P   2      18.994  21.616  46.092  1.00 39.54 LIG 0.04  C 
BRANCH 10 12
ATOM     12  N   ALA P   2      20.309  23.632  46.366  1.00 41.39 LIG-0.35  N 
ATOM     13 H    ALA P   2      20.067  23.478  47.176  1.00 41.39 LIG 0.16  HD
ATOM     14  C   LEU P   1      21.163  24.588  46.018  1.00 41.33 LIG 0.25  C 
ATOM     15 O    LEU P   1      21.517  24.781  44.852  1.00 41.61 LIG-0.27  OA
BRANCH 14 16
ATOM     16  CA  LEU P   1      21.706  25.449  47.158  1.00 40.25 LIG 0.28  C 
BRANCH 16 17
ATOM     17  N   LEU P   1      20.574  26.023  47.930  1.00 40.65 LIG-0.07  N 
ATOM     18 H2   LEU P   1      20.833  26.175  48.768  1.00 40.65 LIG 0.28  HD
ATOM     19 H1   LEU P   1      19.893  25.450  47.929  1.00 40.65 LIG 0.28  HD
ATOM     20 H3   LEU P   1      20.317  26.788  47.556  1.00 40.65 LIG 0.28  HD
ENDBRANCH 16 17
BRANCH 16 21
ATOM     21  CB  LEU P   1      22.578  24.592  48.081  1.00 38.59 LIG 0.05  C 
BRANCH 21 22
ATOM     22  CG  LEU P   1      23.292  25.186  49.302  1.00 36.61 LIG-0.02  C 
ATOM     23  CD2 LEU P   1      24.273  26.241  48.823  1.00 36.34 LIG 0.01  C 
ATOM     24  CD1 LEU P   1      24.016  24.112  50.098  1.00 35.12 LIG 0.01  C 
ENDBRANCH 21 22
ENDBRANCH 16 21
ENDBRANCH 14 16
ENDBRANCH 10 12
ENDBRANCH 8 10
ENDBRANCH 5 6
BRANCH 5 25
ATOM     25  CB  ILE P   3      18.036  23.969  40.938  1.00 41.77 LIG 0.01  C 
ATOM     26  CG2 ILE P   3      18.177  22.450  40.902  1.00 41.93 LIG 0.01  C 
BRANCH 25 27
ATOM     27  CG1 ILE P   3      16.777  24.398  40.175  1.00 42.12 LIG 0.00  C 
ATOM     28  CD1 ILE P   3      16.422  23.547  38.982  1.00 41.36 LIG 0.01  C 
ENDBRANCH 25 27
ENDBRANCH 5 25
ENDBRANCH 1 5
BRANCH 3 29
ATOM     29  CA  TYR P   4      14.828  22.760  43.775  1.00 39.63 LIG 0.18  C 
BRANCH 29 30
ATOM     30  C   TYR P   4      14.864  23.214  45.237  1.00 40.27 LIG 0.24  C 
ATOM     31  N   SER P   5      15.331  22.312  46.069  1.00 40.75 LIG-0.34  N 
ATOM     32 H    SER P   5      15.617  21.543  45.811  1.00 40.75 LIG 0.16  HD
ATOM     33 O    TYR P   4      14.452  24.320  45.566  1.00 40.83 LIG-0.27  OA
BRANCH 31 34
ATOM     34  CA  SER P   5      15.418  22.508  47.516  1.00 41.35 LIG 0.21  C 
BRANCH 34 35
ATOM     35  CB  SER P   5      16.494  23.602  47.505  1.00 41.35 LIG 0.20  C 
BRANCH 35 36
ATOM     36 OG   SER P   5      17.394  22.825  48.270  1.00 42.37 LIG-0.40  OA
ATOM     37 HG   SER P   5      18.127  23.230  48.337  1.00 42.37 LIG 0.21  HD
ENDBRANCH 35 36
ENDBRANCH 34 35
BRANCH 34 38
ATOM     38  C   SER P   5      14.079  22.450  48.226  1.00 41.28 LIG 0.20  C 
ATOM     39 OXT  SER P   5      13.022  22.520  47.335  1.00 41.68 LIG-0.65  OA
ATOM     40 O    SER P   5      13.975  22.777  49.405  1.00 42.12 LIG-0.65  OA
ENDBRANCH 34 38
ENDBRANCH 31 34
ENDBRANCH 29 30
BRANCH 29 41
ATOM     41  CB  TYR P   4      14.381  21.297  43.551  1.00 37.99 LIG 0.07  C 
BRANCH 41 42
ATOM     42  CG  TYR P   4      13.797  20.914  42.182  1.00 35.75 LIG-0.06  A 
ATOM     43  CD2 TYR P   4      14.476  21.293  41.023  1.00 34.88 LIG 0.01  A 
ATOM     44  CE2 TYR P   4      14.004  20.952  39.768  1.00 35.19 LIG 0.04  A 
ATOM     45  CZ  TYR P   4      12.842  20.223  39.652  1.00 34.95 LIG 0.07  A 
ATOM     46  CE1 TYR P   4      12.133  19.838  40.779  1.00 35.39 LIG 0.04  A 
ATOM     47  CD1 TYR P   4      12.615  20.188  42.042  1.00 35.59 LIG 0.01  A 
BRANCH 45 48
ATOM     48 OH   TYR P   4      12.374  19.879  38.401  1.00 35.19 LIG-0.36  OA
ATOM     49 HH   TYR P   4      12.980  19.485  37.974  1.00 35.19 LIG 0.22  HD
ENDBRANCH 45 48
ENDBRANCH 41 42
ENDBRANCH 29 41
ENDBRANCH 3 29
TORSDOF 19
ENDMDL
MODEL 11
USER: ADFR SOLUTION from run 104
USER: SCORE 18.028716 LL:  -4.479 LR: -15.538 RR:   0.000 FEB:  -9.870
USER: RMSD 4.384886
USER: SEED 103
USER: STATUS no improvement in best 3 clusters for 5 generations
USER: GENES 21
USER: genes 0 Translation |==|  0.57142 0.62252 0.59626
USER: genes 1 Rotation |==|  0.67964 0.77644 0.39687 0.86149
USER: genes 2 Torsion [N]-C--CA-[N] |==|  0.95073
USER: genes 3 Torsion [C]-CA--N-[C] |==|  0.74141
USER: genes 4 Torsion [N]-C--CA-[N] |==|  0.45627
USER: genes 5 Torsion [C]-CA--N-[C] |==|  0.56200
USER: genes 6 Torsion [N]-C--CA-[N] |==|  0.30172
USER: genes 7 Torsion [C]-CA--N-[H2] |==|  0.76362
USER: genes 8 Torsion [C]-CA--CB-[CG] |==|  0.22973
USER: genes 9 Torsion [CA]-CB--CG-[CD2] |==|  0.56513
USER: genes 10 Torsion [C]-CA--CB-[CG2] |==|  0.56989
USER: genes 11 Torsion [CA]-CB--CG1-[CD1] |==|  0.57521
USER: genes 12 Torsion [C]-N--CA-[CB] |==|  0.38636
USER: genes 13 Torsion [N]-CA--C-[N] |==|  0.08497
USER: genes 14 Torsion [C]-N--CA-[CB] |==|  0.80928
USER: genes 15 Torsion [N]-CA--CB-[OG] |==|  0.86878
USER: genes 16 Torsion [CA]-CB--OG-[HG] |==|  0.55851
USER: genes 17 Torsion [N]-CA--C-[OXT] |==|  0.47596
USER: genes 18 Torsion [N]-CA--CB-[CG] |==|  0.10769
USER: genes 19 Torsion [CA]-CB--CG-[CD2] |==|  0.78501
USER: genes 20 Torsion [CE2]-CZ--OH-[HH] |==|  0.90462
ROOT
ATOM      1  C   ILE P   3      14.643  24.626  44.068  1.00 41.75 LIG 0.24  C 
ATOM      2 O    ILE P   3      14.817  25.820  44.300  1.00 43.02 LIG-0.27  OA
ATOM      3  N   TYR P   4      15.646  23.793  43.845  1.00 40.49 LIG-0.35  N 
ATOM      4 H    TYR P   4      15.565  22.942  43.754  1.00 40.49 LIG 0.16  HD
ENDROOT
BRANCH 1 5
ATOM      5  CA  ILE P   3      13.223  24.041  44.054  1.00 41.79 LIG 0.18  C 
BRANCH 5 6
ATOM      6  N   ILE P   3      13.205  22.729  43.384  1.00 42.70 LIG-0.35  N 
ATOM      7 H    ILE P   3      13.381  22.068  43.903  1.00 42.70 LIG 0.16  HD
ATOM      8  C   ALA P   2      12.937  22.597  42.084  1.00 42.25 LIG 0.24  C 
ATOM      9 O    ALA P   2      12.699  23.550  41.361  1.00 43.48 LIG-0.27  OA
BRANCH 8 10
ATOM     10  CA  ALA P   2      12.936  21.191  41.491  1.00 41.32 LIG 0.17  C 
ATOM     11  CB  ALA P   2      14.353  20.707  41.290  1.00 39.54 LIG 0.04  C 
BRANCH 10 12
ATOM     12  N   ALA P   2      12.264  21.267  40.201  1.00 41.39 LIG-0.35  N 
ATOM     13 H    ALA P   2      12.257  22.052  39.851  1.00 41.39 LIG 0.16  HD
ATOM     14  C   LEU P   1      11.713  20.200  39.632  1.00 41.33 LIG 0.25  C 
ATOM     15 O    LEU P   1      11.750  19.075  40.138  1.00 41.61 LIG-0.27  OA
BRANCH 14 16
ATOM     16  CA  LEU P   1      11.028  20.436  38.286  1.00 40.25 LIG 0.28  C 
BRANCH 16 17
ATOM     17  N   LEU P   1      11.838  19.825  37.202  1.00 40.65 LIG-0.07  N 
ATOM     18 H2   LEU P   1      12.470  20.397  36.944  1.00 40.65 LIG 0.28  HD
ATOM     19 H1   LEU P   1      11.313  19.632  36.510  1.00 40.65 LIG 0.28  HD
ATOM     20 H3   LEU P   1      12.219  19.079  37.501  1.00 40.65 LIG 0.28  HD
ENDBRANCH 16 17
BRANCH 16 21
ATOM     21  CB  LEU P   1       9.631  19.808  38.303  1.00 38.59 LIG 0.05  C 
BRANCH 21 22
ATOM     22  CG  LEU P   1       8.424  20.534  38.914  1.00 36.61 LIG-0.02  C 
ATOM     23  CD2 LEU P   1       7.385  19.499  39.305  1.00 36.34 LIG 0.01  C 
ATOM     24  CD1 LEU P   1       7.831  21.538  37.938  1.00 35.12 LIG 0.01  C 
ENDBRANCH 21 22
ENDBRANCH 16 21
ENDBRANCH 14 16
ENDBRANCH 10 12
ENDBRANCH 8 10
ENDBRANCH 5 6
BRANCH 5 25
ATOM     25  CB  ILE P   3      12.822  23.920  45.529  1.00 41.77 LIG 0.01  C 
ATOM     26  CG2 ILE P   3      11.767  22.825  45.663  1.00 41.93 LIG 0.01  C 
BRANCH 25 27
ATOM     27  CG1 ILE P   3      14.048  23.576  46.383  1.00 42.12 LIG 0.00  C 
ATOM     28  CD1 ILE P   3      13.760  22.825  47.657  1.00 41.36 LIG 0.01  C 
ENDBRANCH 25 27
ENDBRANCH 5 25
ENDBRANCH 1 5
BRANCH 3 29
ATOM     29  CA  TYR P   4      16.995  24.294  43.740  1.00 39.63 LIG 0.18  C 
BRANCH 29 30
ATOM     30  C   TYR P   4      17.228  24.481  42.238  1.00 40.27 LIG 0.24  C 
ATOM     31  N   SER P   5      16.145  24.780  41.560  1.00 40.75 LIG-0.34  N 
ATOM     32 H    SER P   5      15.377  24.889  41.931  1.00 40.75 LIG 0.16  HD
ATOM     33 O    TYR P   4      18.339  24.322  41.747  1.00 40.83 LIG-0.27  OA
BRANCH 31 34
ATOM     34  CA  SER P   5      16.120  24.963  40.108  1.00 41.35 LIG 0.21  C 
BRANCH 34 35
ATOM     35  CB  SER P   5      16.935  26.261  40.055  1.00 41.35 LIG 0.20  C 
BRANCH 35 36
ATOM     36 OG   SER P   5      16.183  26.860  41.092  1.00 42.37 LIG-0.40  OA
ATOM     37 HG   SER P   5      16.266  27.695  41.052  1.00 42.37 LIG 0.21  HD
ENDBRANCH 35 36
ENDBRANCH 34 35
BRANCH 34 38
ATOM     38  C   SER P   5      16.269  23.672  39.324  1.00 41.28 LIG 0.20  C 
ATOM     39 OXT  SER P   5      16.048  23.865  37.971  1.00 41.68 LIG-0.65  OA
ATOM     40 O    SER P   5      16.127  22.581  39.870  1.00 42.12 LIG-0.65  OA
ENDBRANCH 34 38
ENDBRANCH 31 34
ENDBRANCH 29 30
BRANCH 29 41
ATOM     41  CB  TYR P   4      18.016  23.380  44.457  1.00 37.99 LIG 0.07  C 
BRANCH 41 42
ATOM     42  CG  TYR P   4      17.825  21.859  44.362  1.00 35.75 LIG-0.06  A 
ATOM     43  CD2 TYR P   4      16.853  21.245  45.155  1.00 34.88 LIG 0.01  A 
ATOM     44  CE2 TYR P   4      16.627  19.881  45.088  1.00 35.19 LIG 0.04  A 
ATOM     45  CZ  TYR P   4      17.370  19.109  44.225  1.00 34.95 LIG 0.07  A 
ATOM     46  CE1 TYR P   4      18.351  19.680  43.430  1.00 35.39 LIG 0.04  A 
ATOM     47  CD1 TYR P   4      18.576  21.056  43.504  1.00 35.59 LIG 0.01  A 
BRANCH 45 48
ATOM     48 OH   TYR P   4      17.141  17.750  44.155  1.00 35.19 LIG-0.36  OA
ATOM     49 HH   TYR P   4      16.929  17.463  44.915  1.00 35.19 LIG 0.22  HD
ENDBRANCH 45 48
ENDBRANCH 41 42
ENDBRANCH 29 41
ENDBRANCH 3 29
TORSDOF 19
ENDMDL
MODEL 12
USER: ADFR SOLUTION from run 150
USER: SCORE 19.009141 LL:  -4.820 LR: -15.541 RR:   0.000 FEB:  -9.873
USER: RMSD 10.630626
USER: SEED 149
USER: STATUS no improvement in best 1 clusters for 5 generations
USER: GENES 21
USER: genes 0 Translation |==|  0.60119 0.60258 0.60591
USER: genes 1 Rotation |==|  0.47299 0.03531 0.68251 0.50506
USER: genes 2 Torsion [N]-C--CA-[N] |==|  0.31013
USER: genes 3 Torsion [C]-CA--N-[C] |==|  0.69483
USER: genes 4 Torsion [N]-C--CA-[N] |==|  0.04179
USER: genes 5 Torsion [C]-CA--N-[C] |==|  0.64919
USER: genes 6 Torsion [N]-C--CA-[N] |==|  0.97159
USER: genes 7 Torsion [C]-CA--N-[H2] |==|  0.36970
USER: genes 8 Torsion [C]-CA--CB-[CG] |==|  0.87135
USER: genes 9 Torsion [CA]-CB--CG-[CD2] |==|  0.61089
USER: genes 10 Torsion [C]-CA--CB-[CG2] |==|  0.17328
USER: genes 11 Torsion [CA]-CB--CG1-[CD1] |==|  0.22408
USER: genes 12 Torsion [C]-N--CA-[CB] |==|  0.23200
USER: genes 13 Torsion [N]-CA--C-[N] |==|  0.87436
USER: genes 14 Torsion [C]-N--CA-[CB] |==|  0.23050
USER: genes 15 Torsion [N]-CA--CB-[OG] |==|  0.49795
USER: genes 16 Torsion [CA]-CB--OG-[HG] |==|  0.82003
USER: genes 17 Torsion [N]-CA--C-[OXT] |==|  0.25652
USER: genes 18 Torsion [N]-CA--CB-[CG] |==|  0.00375
USER: genes 19 Torsion [CA]-CB--CG-[CD2] |==|  0.75574
USER: genes 20 Torsion [CE2]-CZ--OH-[HH] |==|  0.06618
ROOT
ATOM      1  C   ILE P   3      15.536  24.027  44.357  1.00 41.75 LIG 0.24  C 
ATOM      2 O    ILE P   3      15.718  25.237  44.246  1.00 43.02 LIG-0.27  OA
ATOM      3  N   TYR P   4      15.041  23.292  43.375  1.00 40.49 LIG-0.35  N 
ATOM      4 H    TYR P   4      14.969  22.435  43.393  1.00 40.49 LIG 0.16  HD
ENDROOT
BRANCH 1 5
ATOM      5  CA  ILE P   3      15.909  23.307  45.660  1.00 41.79 LIG 0.18  C 
BRANCH 5 6
ATOM      6  N   ILE P   3      17.370  23.306  45.856  1.00 42.70 LIG-0.35  N 
ATOM      7 H    ILE P   3      17.699  24.078  46.042  1.00 42.70 LIG 0.16  HD
ATOM      8  C   ALA P   2      18.102  22.197  45.752  1.00 42.25 LIG 0.24  C 
ATOM      9 O    ALA P   2      17.618  21.111  45.479  1.00 43.48 LIG-0.27  OA
BRANCH 8 10
ATOM     10  CA  ALA P   2      19.607  22.306  45.983  1.00 41.32 LIG 0.17  C 
ATOM     11  CB  ALA P   2      20.080  21.191  46.887  1.00 39.54 LIG 0.04  C 
BRANCH 10 12
ATOM     12  N   ALA P   2      19.853  23.589  46.627  1.00 41.39 LIG-0.35  N 
ATOM     13 H    ALA P   2      19.391  23.721  47.340  1.00 41.39 LIG 0.16  HD
ATOM     14  C   LEU P   1      20.722  24.466  46.137  1.00 41.33 LIG 0.25  C 
ATOM     15 O    LEU P   1      21.393  24.251  45.123  1.00 41.61 LIG-0.27  OA
BRANCH 14 16
ATOM     16  CA  LEU P   1      20.862  25.777  46.911  1.00 40.25 LIG 0.28  C 
BRANCH 16 17
ATOM     17  N   LEU P   1      19.786  25.869  47.930  1.00 40.65 LIG-0.07  N 
ATOM     18 H2   LEU P   1      20.136  26.116  48.710  1.00 40.65 LIG 0.28  HD
ATOM     19 H1   LEU P   1      19.393  25.075  48.020  1.00 40.65 LIG 0.28  HD
ATOM     20 H3   LEU P   1      19.183  26.469  47.672  1.00 40.65 LIG 0.28  HD
ENDBRANCH 16 17
BRANCH 16 21
ATOM     21  CB  LEU P   1      22.230  25.825  47.598  1.00 38.59 LIG 0.05  C 
BRANCH 21 22
ATOM     22  CG  LEU P   1      22.783  24.629  48.385  1.00 36.61 LIG-0.02  C 
ATOM     23  CD2 LEU P   1      23.472  25.149  49.633  1.00 36.34 LIG 0.01  C 
ATOM     24  CD1 LEU P   1      23.752  23.813  47.545  1.00 35.12 LIG 0.01  C 
ENDBRANCH 21 22
ENDBRANCH 16 21
ENDBRANCH 14 16
ENDBRANCH 10 12
ENDBRANCH 8 10
ENDBRANCH 5 6
BRANCH 5 25
ATOM     25  CB  ILE P   3      15.197  24.086  46.771  1.00 41.77 LIG 0.01  C 
ATOM     26  CG2 ILE P   3      13.690  23.997  46.546  1.00 41.93 LIG 0.01  C 
BRANCH 25 27
ATOM     27  CG1 ILE P   3      15.558  23.501  48.141  1.00 42.12 LIG 0.00  C 
ATOM     28  CD1 ILE P   3      16.885  23.942  48.704  1.00 41.36 LIG 0.01  C 
ENDBRANCH 25 27
ENDBRANCH 5 25
ENDBRANCH 1 5
BRANCH 3 29
ATOM     29  CA  TYR P   4      14.571  23.920  42.164  1.00 39.63 LIG 0.18  C 
BRANCH 29 30
ATOM     30  C   TYR P   4      13.467  22.995  41.644  1.00 40.27 LIG 0.24  C 
ATOM     31  N   SER P   5      13.779  21.720  41.669  1.00 40.75 LIG-0.34  N 
ATOM     32 H    SER P   5      14.528  21.428  41.977  1.00 40.75 LIG 0.16  HD
ATOM     33 O    TYR P   4      12.412  23.448  41.218  1.00 40.83 LIG-0.27  OA
BRANCH 31 34
ATOM     34  CA  SER P   5      12.898  20.659  41.183  1.00 41.35 LIG 0.21  C 
BRANCH 34 35
ATOM     35  CB  SER P   5      13.261  20.762  39.696  1.00 41.35 LIG 0.20  C 
BRANCH 35 36
ATOM     36 OG   SER P   5      12.390  19.709  39.335  1.00 42.37 LIG-0.40  OA
ATOM     37 HG   SER P   5      12.656  18.992  39.683  1.00 42.37 LIG 0.21  HD
ENDBRANCH 35 36
ENDBRANCH 34 35
BRANCH 34 38
ATOM     38  C   SER P   5      12.827  19.450  42.098  1.00 41.28 LIG 0.20  C 
ATOM     39 OXT  SER P   5      11.783  19.551  43.001  1.00 41.68 LIG-0.65  OA
ATOM     40 O    SER P   5      13.819  18.757  42.306  1.00 42.12 LIG-0.65  OA
ENDBRANCH 34 38
ENDBRANCH 31 34
ENDBRANCH 29 30
BRANCH 29 41
ATOM     41  CB  TYR P   4      15.721  24.200  41.167  1.00 37.99 LIG 0.07  C 
BRANCH 41 42
ATOM     42  CG  TYR P   4      17.143  23.767  41.555  1.00 35.75 LIG-0.06  A 
ATOM     43  CD2 TYR P   4      17.946  24.644  42.286  1.00 34.88 LIG 0.01  A 
ATOM     44  CE2 TYR P   4      19.225  24.291  42.679  1.00 35.19 LIG 0.04  A 
ATOM     45  CZ  TYR P   4      19.722  23.051  42.347  1.00 34.95 LIG 0.07  A 
ATOM     46  CE1 TYR P   4      18.959  22.157  41.613  1.00 35.39 LIG 0.04  A 
ATOM     47  CD1 TYR P   4      17.670  22.521  41.217  1.00 35.59 LIG 0.01  A 
BRANCH 45 48
ATOM     48 OH   TYR P   4      20.995  22.697  42.743  1.00 35.19 LIG-0.36  OA
ATOM     49 HH   TYR P   4      21.215  23.151  43.415  1.00 35.19 LIG 0.22  HD
ENDBRANCH 45 48
ENDBRANCH 41 42
ENDBRANCH 29 41
ENDBRANCH 3 29
TORSDOF 19
ENDMDL
MODEL 13
USER: ADFR SOLUTION from run 41
USER: SCORE 18.117732 LL:  -3.456 LR: -15.516 RR:   0.000 FEB:  -9.848
USER: RMSD 13.810849
USER: SEED 40
USER: STATUS searching
USER: GENES 21
USER: genes 0 Translation |==|  0.26461 0.39190 0.36369
USER: genes 1 Rotation |==|  0.12274 0.75388 0.61511 0.67313
USER: genes 2 Torsion [N]-C--CA-[N] |==|  0.84614
USER: genes 3 Torsion [C]-CA--N-[C] |==|  0.70603
USER: genes 4 Torsion [N]-C--CA-[N] |==|  0.90793
USER: genes 5 Torsion [C]-CA--N-[C] |==|  0.70439
USER: genes 6 Torsion [N]-C--CA-[N] |==|  0.17930
USER: genes 7 Torsion [C]-CA--N-[H2] |==|  0.19086
USER: genes 8 Torsion [C]-CA--CB-[CG] |==|  0.20712
USER: genes 9 Torsion [CA]-CB--CG-[CD2] |==|  0.38225
USER: genes 10 Torsion [C]-CA--CB-[CG2] |==|  0.33939
USER: genes 11 Torsion [CA]-CB--CG1-[CD1] |==|  0.77541
USER: genes 12 Torsion [C]-N--CA-[CB] |==|  0.85556
USER: genes 13 Torsion [N]-CA--C-[N] |==|  0.35060
USER: genes 14 Torsion [C]-N--CA-[CB] |==|  0.35692
USER: genes 15 Torsion [N]-CA--CB-[OG] |==|  0.20619
USER: genes 16 Torsion [CA]-CB--OG-[HG] |==|  0.78994
USER: genes 17 Torsion [N]-CA--C-[OXT] |==|  0.48542
USER: genes 18 Torsion [N]-CA--CB-[CG] |==|  0.50436
USER: genes 19 Torsion [CA]-CB--CG-[CD2] |==|  0.45868
USER: genes 20 Torsion [CE2]-CZ--OH-[HH] |==|  0.59425
ROOT
ATOM      1  C   ILE P   3       5.438  17.707  37.091  1.00 41.75 LIG 0.24  C 
ATOM      2 O    ILE P   3       4.516  16.932  37.334  1.00 43.02 LIG-0.27  OA
ATOM      3  N   TYR P   4       5.528  18.366  35.947  1.00 40.49 LIG-0.35  N 
ATOM      4 H    TYR P   4       6.116  18.969  35.775  1.00 40.49 LIG 0.16  HD
ENDROOT
BRANCH 1 5
ATOM      5  CA  ILE P   3       6.529  17.962  38.140  1.00 41.79 LIG 0.18  C 
BRANCH 5 6
ATOM      6  N   ILE P   3       7.867  17.713  37.575  1.00 42.70 LIG-0.35  N 
ATOM      7 H    ILE P   3       8.138  18.323  37.034  1.00 42.70 LIG 0.16  HD
ATOM      8  C   ALA P   2       8.581  16.631  37.886  1.00 42.25 LIG 0.24  C 
ATOM      9 O    ALA P   2       8.175  15.770  38.649  1.00 43.48 LIG-0.27  OA
BRANCH 8 10
ATOM     10  CA  ALA P   2       9.959  16.473  37.250  1.00 41.32 LIG 0.17  C 
ATOM     11  CB  ALA P   2      11.000  17.203  38.068  1.00 39.54 LIG 0.04  C 
BRANCH 10 12
ATOM     12  N   ALA P   2       9.890  17.062  35.919  1.00 41.39 LIG-0.35  N 
ATOM     13 H    ALA P   2       9.868  17.922  35.913  1.00 41.39 LIG 0.16  HD
ATOM     14  C   LEU P   1       9.866  16.315  34.821  1.00 41.33 LIG 0.25  C 
ATOM     15 O    LEU P   1       9.920  15.083  34.845  1.00 41.61 LIG-0.27  OA
BRANCH 14 16
ATOM     16  CA  LEU P   1       9.775  17.073  33.496  1.00 40.25 LIG 0.28  C 
BRANCH 16 17
ATOM     17  N   LEU P   1      11.002  17.887  33.305  1.00 40.65 LIG-0.07  N 
ATOM     18 H2   LEU P   1      11.697  17.349  33.166  1.00 40.65 LIG 0.28  HD
ATOM     19 H1   LEU P   1      11.149  18.380  34.032  1.00 40.65 LIG 0.28  HD
ATOM     20 H3   LEU P   1      10.897  18.422  32.602  1.00 40.65 LIG 0.28  HD
ENDBRANCH 16 17
BRANCH 16 21
ATOM     21  CB  LEU P   1       9.632  16.076  32.342  1.00 38.59 LIG 0.05  C 
BRANCH 21 22
ATOM     22  CG  LEU P   1       8.316  15.334  32.072  1.00 36.61 LIG-0.02  C 
ATOM     23  CD2 LEU P   1       8.065  15.324  30.574  1.00 36.34 LIG 0.01  C 
ATOM     24  CD1 LEU P   1       7.152  15.989  32.799  1.00 35.12 LIG 0.01  C 
ENDBRANCH 21 22
ENDBRANCH 16 21
ENDBRANCH 14 16
ENDBRANCH 10 12
ENDBRANCH 8 10
ENDBRANCH 5 6
BRANCH 5 25
ATOM     25  CB  ILE P   3       6.360  19.430  38.549  1.00 41.77 LIG 0.01  C 
ATOM     26  CG2 ILE P   3       6.122  19.497  40.056  1.00 41.93 LIG 0.01  C 
BRANCH 25 27
ATOM     27  CG1 ILE P   3       7.616  20.228  38.180  1.00 42.12 LIG 0.00  C 
ATOM     28  CD1 ILE P   3       8.765  20.112  39.148  1.00 41.36 LIG 0.01  C 
ENDBRANCH 25 27
ENDBRANCH 5 25
ENDBRANCH 1 5
BRANCH 3 29
ATOM     29  CA  TYR P   4       4.596  18.095  34.879  1.00 39.63 LIG 0.18  C 
BRANCH 29 30
ATOM     30  C   TYR P   4       3.282  18.737  35.332  1.00 40.27 LIG 0.24  C 
ATOM     31  N   SER P   5       2.764  19.572  34.461  1.00 40.75 LIG-0.34  N 
ATOM     32 H    SER P   5       3.118  19.724  33.692  1.00 40.75 LIG 0.16  HD
ATOM     33 O    TYR P   4       2.806  18.492  36.433  1.00 40.83 LIG-0.27  OA
BRANCH 31 34
ATOM     34  CA  SER P   5       1.537  20.333  34.696  1.00 41.35 LIG 0.21  C 
BRANCH 34 35
ATOM     35  CB  SER P   5       2.090  21.720  34.342  1.00 41.35 LIG 0.20  C 
BRANCH 35 36
ATOM     36 OG   SER P   5       2.096  21.443  32.955  1.00 42.37 LIG-0.40  OA
ATOM     37 HG   SER P   5       2.741  20.938  32.773  1.00 42.37 LIG 0.21  HD
ENDBRANCH 35 36
ENDBRANCH 34 35
BRANCH 34 38
ATOM     38  C   SER P   5       0.277  19.626  34.231  1.00 41.28 LIG 0.20  C 
ATOM     39 OXT  SER P   5      -0.864  20.330  34.578  1.00 41.68 LIG-0.65  OA
ATOM     40 O    SER P   5       0.272  18.416  34.022  1.00 42.12 LIG-0.65  OA
ENDBRANCH 34 38
ENDBRANCH 31 34
ENDBRANCH 29 30
BRANCH 29 41
ATOM     41  CB  TYR P   4       4.513  16.588  34.545  1.00 37.99 LIG 0.07  C 
BRANCH 41 42
ATOM     42  CG  TYR P   4       3.588  16.145  33.401  1.00 35.75 LIG-0.06  A 
ATOM     43  CD2 TYR P   4       3.725  14.858  32.875  1.00 34.88 LIG 0.01  A 
ATOM     44  CE2 TYR P   4       2.900  14.405  31.860  1.00 35.19 LIG 0.04  A 
ATOM     45  CZ  TYR P   4       1.922  15.232  31.356  1.00 34.95 LIG 0.07  A 
ATOM     46  CE1 TYR P   4       1.763  16.519  31.844  1.00 35.39 LIG 0.04  A 
ATOM     47  CD1 TYR P   4       2.600  16.971  32.866  1.00 35.59 LIG 0.01  A 
BRANCH 45 48
ATOM     48 OH   TYR P   4       1.097  14.777  30.348  1.00 35.19 LIG-0.36  OA
ATOM     49 HH   TYR P   4       0.901  15.415  29.838  1.00 35.19 LIG 0.22  HD
ENDBRANCH 45 48
ENDBRANCH 41 42
ENDBRANCH 29 41
ENDBRANCH 3 29
TORSDOF 19
ENDMDL
MODEL 14
USER: ADFR SOLUTION from run 69
USER: SCORE 18.583232 LL:  -4.149 LR: -15.497 RR:   0.000 FEB:  -9.830
USER: RMSD 11.062853
USER: SEED 68
USER: STATUS no improvement in best 3 clusters for 5 generations
USER: GENES 21
USER: genes 0 Translation |==|  0.64232 0.53636 0.65421
USER: genes 1 Rotation |==|  0.11442 0.69765 0.58833 0.73337
USER: genes 2 Torsion [N]-C--CA-[N] |==|  0.88477
USER: genes 3 Torsion [C]-CA--N-[C] |==|  0.83354
USER: genes 4 Torsion [N]-C--CA-[N] |==|  0.00581
USER: genes 5 Torsion [C]-CA--N-[C] |==|  0.72292
USER: genes 6 Torsion [N]-C--CA-[N] |==|  0.76006
USER: genes 7 Torsion [C]-CA--N-[H2] |==|  0.20728
USER: genes 8 Torsion [C]-CA--CB-[CG] |==|  0.44843
USER: genes 9 Torsion [CA]-CB--CG-[CD2] |==|  0.70093
USER: genes 10 Torsion [C]-CA--CB-[CG2] |==|  0.79955
USER: genes 11 Torsion [CA]-CB--CG1-[CD1] |==|  0.71418
USER: genes 12 Torsion [C]-N--CA-[CB] |==|  0.17038
USER: genes 13 Torsion [N]-CA--C-[N] |==|  0.54085
USER: genes 14 Torsion [C]-N--CA-[CB] |==|  0.38299
USER: genes 15 Torsion [N]-CA--CB-[OG] |==|  0.04349
USER: genes 16 Torsion [CA]-CB--OG-[HG] |==|  0.40902
USER: genes 17 Torsion [N]-CA--C-[OXT] |==|  0.98995
USER: genes 18 Torsion [N]-CA--CB-[CG] |==|  0.61422
USER: genes 19 Torsion [CA]-CB--CG-[CD2] |==|  0.64516
USER: genes 20 Torsion [CE2]-CZ--OH-[HH] |==|  0.55101
ROOT
ATOM      1  C   ILE P   3      16.770  22.041  45.806  1.00 41.75 LIG 0.24  C 
ATOM      2 O    ILE P   3      15.913  21.174  45.649  1.00 43.02 LIG-0.27  OA
ATOM      3  N   TYR P   4      17.094  22.899  44.853  1.00 40.49 LIG-0.35  N 
ATOM      4 H    TYR P   4      17.633  23.561  44.953  1.00 40.49 LIG 0.16  HD
ENDROOT
BRANCH 1 5
ATOM      5  CA  ILE P   3      17.490  22.179  47.155  1.00 41.79 LIG 0.18  C 
BRANCH 5 6
ATOM      6  N   ILE P   3      18.923  22.458  46.956  1.00 42.70 LIG-0.35  N 
ATOM      7 H    ILE P   3      19.186  23.200  47.299  1.00 42.70 LIG 0.16  HD
ATOM      8  C   ALA P   2      19.727  21.622  46.298  1.00 42.25 LIG 0.24  C 
ATOM      9 O    ALA P   2      19.333  20.577  45.809  1.00 43.48 LIG-0.27  OA
BRANCH 8 10
ATOM     10  CA  ALA P   2      21.198  22.005  46.156  1.00 41.32 LIG 0.17  C 
ATOM     11  CB  ALA P   2      22.077  20.942  46.772  1.00 39.54 LIG 0.04  C 
BRANCH 10 12
ATOM     12  N   ALA P   2      21.388  23.262  46.867  1.00 41.39 LIG-0.35  N 
ATOM     13 H    ALA P   2      21.470  23.178  47.718  1.00 41.39 LIG 0.16  HD
ATOM     14  C   LEU P   1      21.429  24.429  46.233  1.00 41.33 LIG 0.25  C 
ATOM     15 O    LEU P   1      21.331  24.530  45.007  1.00 41.61 LIG-0.27  OA
BRANCH 14 16
ATOM     16  CA  LEU P   1      21.617  25.664  47.113  1.00 40.25 LIG 0.28  C 
BRANCH 16 17
ATOM     17  N   LEU P   1      20.294  26.133  47.600  1.00 40.65 LIG-0.07  N 
ATOM     18 H2   LEU P   1      20.002  25.586  48.238  1.00 40.65 LIG 0.28  HD
ATOM     19 H1   LEU P   1      19.714  26.138  46.925  1.00 40.65 LIG 0.28  HD
ATOM     20 H3   LEU P   1      20.374  26.956  47.928  1.00 40.65 LIG 0.28  HD
ENDBRANCH 16 17
BRANCH 16 21
ATOM     21  CB  LEU P   1      22.513  25.315  48.306  1.00 38.59 LIG 0.05  C 
BRANCH 21 22
ATOM     22  CG  LEU P   1      23.225  26.399  49.127  1.00 36.61 LIG-0.02  C 
ATOM     23  CD2 LEU P   1      24.707  26.353  48.804  1.00 36.34 LIG 0.01  C 
ATOM     24  CD1 LEU P   1      23.000  26.200  50.617  1.00 35.12 LIG 0.01  C 
ENDBRANCH 21 22
ENDBRANCH 16 21
ENDBRANCH 14 16
ENDBRANCH 10 12
ENDBRANCH 8 10
ENDBRANCH 5 6
BRANCH 5 25
ATOM     25  CB  ILE P   3      16.789  23.339  47.871  1.00 41.77 LIG 0.01  C 
ATOM     26  CG2 ILE P   3      17.182  24.647  47.189  1.00 41.93 LIG 0.01  C 
BRANCH 25 27
ATOM     27  CG1 ILE P   3      15.268  23.153  47.813  1.00 42.12 LIG 0.00  C 
ATOM     28  CD1 ILE P   3      14.548  24.011  46.805  1.00 41.36 LIG 0.01  C 
ENDBRANCH 25 27
ENDBRANCH 5 25
ENDBRANCH 1 5
BRANCH 3 29
ATOM     29  CA  TYR P   4      16.533  22.760  43.530  1.00 39.63 LIG 0.18  C 
BRANCH 29 30
ATOM     30  C   TYR P   4      17.269  23.798  42.680  1.00 40.27 LIG 0.24  C 
ATOM     31  N   SER P   5      16.701  24.046  41.523  1.00 40.75 LIG-0.34  N 
ATOM     32 H    SER P   5      15.964  23.676  41.276  1.00 40.75 LIG 0.16  HD
ATOM     33 O    TYR P   4      18.314  24.306  43.068  1.00 40.83 LIG-0.27  OA
BRANCH 31 34
ATOM     34  CA  SER P   5      17.249  24.969  40.529  1.00 41.35 LIG 0.21  C 
BRANCH 34 35
ATOM     35  CB  SER P   5      16.981  24.109  39.287  1.00 41.35 LIG 0.20  C 
BRANCH 35 36
ATOM     36 OG   SER P   5      16.080  23.265  39.977  1.00 42.37 LIG-0.40  OA
ATOM     37 HG   SER P   5      15.482  23.002  39.450  1.00 42.37 LIG 0.21  HD
ENDBRANCH 35 36
ENDBRANCH 34 35
BRANCH 34 38
ATOM     38  C   SER P   5      16.934  26.428  40.805  1.00 41.28 LIG 0.20  C 
ATOM     39 OXT  SER P   5      16.116  26.575  41.912  1.00 41.68 LIG-0.65  OA
ATOM     40 O    SER P   5      17.000  27.268  39.912  1.00 42.12 LIG-0.65  OA
ENDBRANCH 34 38
ENDBRANCH 31 34
ENDBRANCH 29 30
BRANCH 29 41
ATOM     41  CB  TYR P   4      14.991  22.884  43.534  1.00 37.99 LIG 0.07  C 
BRANCH 41 42
ATOM     42  CG  TYR P   4      14.181  21.925  42.649  1.00 35.75 LIG-0.06  A 
ATOM     43  CD2 TYR P   4      13.238  22.450  41.762  1.00 34.88 LIG 0.01  A 
ATOM     44  CE2 TYR P   4      12.500  21.629  40.927  1.00 35.19 LIG 0.04  A 
ATOM     45  CZ  TYR P   4      12.695  20.268  40.965  1.00 34.95 LIG 0.07  A 
ATOM     46  CE1 TYR P   4      13.613  19.708  41.838  1.00 35.39 LIG 0.04  A 
ATOM     47  CD1 TYR P   4      14.352  20.542  42.680  1.00 35.59 LIG 0.01  A 
BRANCH 45 48
ATOM     48 OH   TYR P   4      11.963  19.450  40.129  1.00 35.19 LIG-0.36  OA
ATOM     49 HH   TYR P   4      11.987  18.661  40.417  1.00 35.19 LIG 0.22  HD
ENDBRANCH 45 48
ENDBRANCH 41 42
ENDBRANCH 29 41
ENDBRANCH 3 29
TORSDOF 19
ENDMDL
MODEL 15
USER: ADFR SOLUTION from run 69
USER: SCORE 19.359538 LL:  -4.719 LR: -15.504 RR:   0.000 FEB:  -9.837
USER: RMSD 10.701570
USER: SEED 68
USER: STATUS no improvement in best 3 clusters for 5 generations
USER: GENES 21
USER: genes 0 Translation |==|  0.65890 0.51973 0.64061
USER: genes 1 Rotation |==|  0.09495 0.65086 0.58293 0.73727
USER: genes 2 Torsion [N]-C--CA-[N] |==|  0.88212
USER: genes 3 Torsion [C]-CA--N-[C] |==|  0.84315
USER: genes 4 Torsion [N]-C--CA-[N] |==|  0.99732
USER: genes 5 Torsion [C]-CA--N-[C] |==|  0.75900
USER: genes 6 Torsion [N]-C--CA-[N] |==|  0.77578
USER: genes 7 Torsion [C]-CA--N-[H2] |==|  0.39193
USER: genes 8 Torsion [C]-CA--CB-[CG] |==|  0.13399
USER: genes 9 Torsion [CA]-CB--CG-[CD2] |==|  0.62616
USER: genes 10 Torsion [C]-CA--CB-[CG2] |==|  0.79949
USER: genes 11 Torsion [CA]-CB--CG1-[CD1] |==|  0.37368
USER: genes 12 Torsion [C]-N--CA-[CB] |==|  0.15713
USER: genes 13 Torsion [N]-CA--C-[N] |==|  0.59444
USER: genes 14 Torsion [C]-N--CA-[CB] |==|  0.37270
USER: genes 15 Torsion [N]-CA--CB-[OG] |==|  0.02713
USER: genes 16 Torsion [CA]-CB--OG-[HG] |==|  0.66626
USER: genes 17 Torsion [N]-CA--C-[OXT] |==|  0.96435
USER: genes 18 Torsion [N]-CA--CB-[CG] |==|  0.09674
USER: genes 19 Torsion [CA]-CB--CG-[CD2] |==|  0.59465
USER: genes 20 Torsion [CE2]-CZ--OH-[HH] |==|  0.56477
ROOT
ATOM      1  C   ILE P   3      17.267  21.542  45.398  1.00 41.75 LIG 0.24  C 
ATOM      2 O    ILE P   3      16.588  20.550  45.145  1.00 43.02 LIG-0.27  OA
ATOM      3  N   TYR P   4      17.564  22.450  44.484  1.00 40.49 LIG-0.35  N 
ATOM      4 H    TYR P   4      17.972  23.190  44.643  1.00 40.49 LIG 0.16  HD
ENDROOT
BRANCH 1 5
ATOM      5  CA  ILE P   3      17.784  21.780  46.824  1.00 41.79 LIG 0.18  C 
BRANCH 5 6
ATOM      6  N   ILE P   3      19.174  22.268  46.801  1.00 42.70 LIG-0.35  N 
ATOM      7 H    ILE P   3      19.289  23.018  47.204  1.00 42.70 LIG 0.16  HD
ATOM      8  C   ALA P   2      20.156  21.593  46.203  1.00 42.25 LIG 0.24  C 
ATOM      9 O    ALA P   2      19.972  20.533  45.628  1.00 43.48 LIG-0.27  OA
BRANCH 8 10
ATOM     10  CA  ALA P   2      21.563  22.184  46.246  1.00 41.32 LIG 0.17  C 
ATOM     11  CB  ALA P   2      22.501  21.252  46.977  1.00 39.54 LIG 0.04  C 
BRANCH 10 12
ATOM     12  N   ALA P   2      21.479  23.448  46.965  1.00 41.39 LIG-0.35  N 
ATOM     13 H    ALA P   2      21.639  23.387  47.807  1.00 41.39 LIG 0.16  HD
ATOM     14  C   LEU P   1      21.178  24.587  46.351  1.00 41.33 LIG 0.25  C 
ATOM     15 O    LEU P   1      20.972  24.661  45.136  1.00 41.61 LIG-0.27  OA
BRANCH 14 16
ATOM     16  CA  LEU P   1      21.109  25.830  47.238  1.00 40.25 LIG 0.28  C 
BRANCH 16 17
ATOM     17  N   LEU P   1      19.796  25.874  47.930  1.00 40.65 LIG-0.07  N 
ATOM     18 H2   LEU P   1      19.908  26.163  48.764  1.00 40.65 LIG 0.28  HD
ATOM     19 H1   LEU P   1      19.440  25.058  47.945  1.00 40.65 LIG 0.28  HD
ATOM     20 H3   LEU P   1      19.250  26.426  47.496  1.00 40.65 LIG 0.28  HD
ENDBRANCH 16 17
BRANCH 16 21
ATOM     21  CB  LEU P   1      22.237  25.786  48.274  1.00 38.59 LIG 0.05  C 
BRANCH 21 22
ATOM     22  CG  LEU P   1      23.687  25.476  47.879  1.00 36.61 LIG-0.02  C 
ATOM     23  CD2 LEU P   1      24.253  24.471  48.866  1.00 36.34 LIG 0.01  C 
ATOM     24  CD1 LEU P   1      24.537  26.737  47.860  1.00 35.12 LIG 0.01  C 
ENDBRANCH 21 22
ENDBRANCH 16 21
ENDBRANCH 14 16
ENDBRANCH 10 12
ENDBRANCH 8 10
ENDBRANCH 5 6
BRANCH 5 25
ATOM     25  CB  ILE P   3      16.836  22.823  47.428  1.00 41.77 LIG 0.01  C 
ATOM     26  CG2 ILE P   3      17.117  24.176  46.781  1.00 41.93 LIG 0.01  C 
BRANCH 25 27
ATOM     27  CG1 ILE P   3      15.379  22.416  47.184  1.00 42.12 LIG 0.00  C 
ATOM     28  CD1 ILE P   3      14.463  22.539  48.375  1.00 41.36 LIG 0.01  C 
ENDBRANCH 25 27
ENDBRANCH 5 25
ENDBRANCH 1 5
BRANCH 3 29
ATOM     29  CA  TYR P   4      17.200  22.236  43.104  1.00 39.63 LIG 0.18  C 
BRANCH 29 30
ATOM     30  C   TYR P   4      17.754  23.453  42.358  1.00 40.27 LIG 0.24  C 
ATOM     31  N   SER P   5      17.017  23.844  41.344  1.00 40.75 LIG-0.34  N 
ATOM     32 H    SER P   5      16.274  23.465  41.134  1.00 40.75 LIG 0.16  HD
ATOM     33 O    TYR P   4      18.815  23.968  42.690  1.00 40.83 LIG-0.27  OA
BRANCH 31 34
ATOM     34  CA  SER P   5      17.372  24.956  40.463  1.00 41.35 LIG 0.21  C 
BRANCH 34 35
ATOM     35  CB  SER P   5      17.069  24.260  39.130  1.00 41.35 LIG 0.20  C 
BRANCH 35 36
ATOM     36 OG   SER P   5      16.453  23.156  39.763  1.00 42.37 LIG-0.40  OA
ATOM     37 HG   SER P   5      16.865  22.452  39.564  1.00 42.37 LIG 0.21  HD
ENDBRANCH 35 36
ENDBRANCH 34 35
BRANCH 34 38
ATOM     38  C   SER P   5      16.943  26.315  40.985  1.00 41.28 LIG 0.20  C 
ATOM     39 OXT  SER P   5      16.058  26.202  42.044  1.00 41.68 LIG-0.65  OA
ATOM     40 O    SER P   5      16.998  27.312  40.270  1.00 42.12 LIG-0.65  OA
ENDBRANCH 34 38
ENDBRANCH 31 34
ENDBRANCH 29 30
BRANCH 29 41
ATOM     41  CB  TYR P   4      15.682  21.993  42.931  1.00 37.99 LIG 0.07  C 
BRANCH 41 42
ATOM     42  CG  TYR P   4      14.713  22.743  43.857  1.00 35.75 LIG-0.06  A 
ATOM     43  CD2 TYR P   4      13.533  22.115  44.259  1.00 34.88 LIG 0.01  A 
ATOM     44  CE2 TYR P   4      12.640  22.740  45.111  1.00 35.19 LIG 0.04  A 
ATOM     45  CZ  TYR P   4      12.914  24.006  45.576  1.00 34.95 LIG 0.07  A 
ATOM     46  CE1 TYR P   4      14.069  24.667  45.191  1.00 35.39 LIG 0.04  A 
ATOM     47  CD1 TYR P   4      14.965  24.031  44.329  1.00 35.59 LIG 0.01  A 
BRANCH 45 48
ATOM     48 OH   TYR P   4      12.026  24.627  46.430  1.00 35.19 LIG-0.36  OA
ATOM     49 HH   TYR P   4      12.129  25.460  46.384  1.00 35.19 LIG 0.22  HD
ENDBRANCH 45 48
ENDBRANCH 41 42
ENDBRANCH 29 41
ENDBRANCH 3 29
TORSDOF 19
ENDMDL
MODEL 16
USER: ADFR SOLUTION from run 130
USER: SCORE 17.885484 LL:  -4.079 LR: -15.487 RR:   0.000 FEB:  -9.819
USER: RMSD 10.928897
USER: SEED 129
USER: STATUS no improvement in best 3 clusters for 5 generations
USER: GENES 21
USER: genes 0 Translation |==|  0.65351 0.58785 0.57779
USER: genes 1 Rotation |==|  0.38693 0.68321 0.89906 0.71071
USER: genes 2 Torsion [N]-C--CA-[N] |==|  0.21850
USER: genes 3 Torsion [C]-CA--N-[C] |==|  0.14693
USER: genes 4 Torsion [N]-C--CA-[N] |==|  0.16005
USER: genes 5 Torsion [C]-CA--N-[C] |==|  0.77658
USER: genes 6 Torsion [N]-C--CA-[N] |==|  0.91820
USER: genes 7 Torsion [C]-CA--N-[H2] |==|  0.04991
USER: genes 8 Torsion [C]-CA--CB-[CG] |==|  0.05272
USER: genes 9 Torsion [CA]-CB--CG-[CD2] |==|  0.72349
USER: genes 10 Torsion [C]-CA--CB-[CG2] |==|  0.25840
USER: genes 11 Torsion [CA]-CB--CG1-[CD1] |==|  0.59477
USER: genes 12 Torsion [C]-N--CA-[CB] |==|  0.81111
USER: genes 13 Torsion [N]-CA--C-[N] |==|  0.19448
USER: genes 14 Torsion [C]-N--CA-[CB] |==|  0.44064
USER: genes 15 Torsion [N]-CA--CB-[OG] |==|  0.01597
USER: genes 16 Torsion [CA]-CB--OG-[HG] |==|  0.30045
USER: genes 17 Torsion [N]-CA--C-[OXT] |==|  0.57569
USER: genes 18 Torsion [N]-CA--CB-[CG] |==|  0.00988
USER: genes 19 Torsion [CA]-CB--CG-[CD2] |==|  0.32122
USER: genes 20 Torsion [CE2]-CZ--OH-[HH] |==|  0.05490
ROOT
ATOM      1  C   ILE P   3      17.105  23.585  43.514  1.00 41.75 LIG 0.24  C 
ATOM      2 O    ILE P   3      16.355  22.614  43.459  1.00 43.02 LIG-0.27  OA
ATOM      3  N   TYR P   4      16.733  24.740  44.042  1.00 40.49 LIG-0.35  N 
ATOM      4 H    TYR P   4      17.254  25.413  44.163  1.00 40.49 LIG 0.16  HD
ENDROOT
BRANCH 1 5
ATOM      5  CA  ILE P   3      18.542  23.482  42.983  1.00 41.79 LIG 0.18  C 
BRANCH 5 6
ATOM      6  N   ILE P   3      19.495  23.283  44.089  1.00 42.70 LIG-0.35  N 
ATOM      7 H    ILE P   3      20.144  23.846  44.097  1.00 42.70 LIG 0.16  HD
ATOM      8  C   ALA P   2      19.349  22.311  44.989  1.00 42.25 LIG 0.24  C 
ATOM      9 O    ALA P   2      18.425  21.515  44.954  1.00 43.48 LIG-0.27  OA
BRANCH 8 10
ATOM     10  CA  ALA P   2      20.390  22.198  46.099  1.00 41.32 LIG 0.17  C 
ATOM     11  CB  ALA P   2      20.012  21.096  47.062  1.00 39.54 LIG 0.04  C 
BRANCH 10 12
ATOM     12  N   ALA P   2      20.408  23.472  46.806  1.00 41.39 LIG-0.35  N 
ATOM     13 H    ALA P   2      19.961  23.476  47.540  1.00 41.39 LIG 0.16  HD
ATOM     14  C   LEU P   1      21.065  24.526  46.336  1.00 41.33 LIG 0.25  C 
ATOM     15 O    LEU P   1      21.720  24.498  45.290  1.00 41.61 LIG-0.27  OA
BRANCH 14 16
ATOM     16  CA  LEU P   1      20.979  25.800  47.177  1.00 40.25 LIG 0.28  C 
BRANCH 16 17
ATOM     17  N   LEU P   1      19.686  25.826  47.907  1.00 40.65 LIG-0.07  N 
ATOM     18 H2   LEU P   1      19.339  25.007  47.925  1.00 40.65 LIG 0.28  HD
ATOM     19 H1   LEU P   1      19.123  26.378  47.495  1.00 40.65 LIG 0.28  HD
ATOM     20 H3   LEU P   1      19.821  26.109  48.740  1.00 40.65 LIG 0.28  HD
ENDBRANCH 16 17
BRANCH 16 21
ATOM     21  CB  LEU P   1      22.138  25.835  48.178  1.00 38.59 LIG 0.05  C 
BRANCH 21 22
ATOM     22  CG  LEU P   1      23.396  24.976  47.990  1.00 36.61 LIG-0.02  C 
ATOM     23  CD2 LEU P   1      23.278  23.745  48.870  1.00 36.34 LIG 0.01  C 
ATOM     24  CD1 LEU P   1      24.655  25.756  48.336  1.00 35.12 LIG 0.01  C 
ENDBRANCH 21 22
ENDBRANCH 16 21
ENDBRANCH 14 16
ENDBRANCH 10 12
ENDBRANCH 8 10
ENDBRANCH 5 6
BRANCH 5 25
ATOM     25  CB  ILE P   3      18.535  22.282  42.029  1.00 41.77 LIG 0.01  C 
ATOM     26  CG2 ILE P   3      18.264  22.782  40.612  1.00 41.93 LIG 0.01  C 
BRANCH 25 27
ATOM     27  CG1 ILE P   3      19.885  21.558  42.081  1.00 42.12 LIG 0.00  C 
ATOM     28  CD1 ILE P   3      20.347  20.954  40.780  1.00 41.36 LIG 0.01  C 
ENDBRANCH 25 27
ENDBRANCH 5 25
ENDBRANCH 1 5
BRANCH 3 29
ATOM     29  CA  TYR P   4      15.367  24.937  44.464  1.00 39.63 LIG 0.18  C 
BRANCH 29 30
ATOM     30  C   TYR P   4      15.108  23.829  45.488  1.00 40.27 LIG 0.24  C 
ATOM     31  N   SER P   5      15.753  23.983  46.621  1.00 40.75 LIG-0.34  N 
ATOM     32 H    SER P   5      16.256  24.662  46.783  1.00 40.75 LIG 0.16  HD
ATOM     33 O    TYR P   4      14.382  22.879  45.221  1.00 40.83 LIG-0.27  OA
BRANCH 31 34
ATOM     34  CA  SER P   5      15.692  23.028  47.727  1.00 41.35 LIG 0.21  C 
BRANCH 34 35
ATOM     35  CB  SER P   5      16.995  23.443  48.423  1.00 41.35 LIG 0.20  C 
BRANCH 35 36
ATOM     36 OG   SER P   5      17.201  24.533  47.545  1.00 42.37 LIG-0.40  OA
ATOM     37 HG   SER P   5      17.060  25.253  47.954  1.00 42.37 LIG 0.21  HD
ENDBRANCH 35 36
ENDBRANCH 34 35
BRANCH 34 38
ATOM     38  C   SER P   5      14.296  22.825  48.288  1.00 41.28 LIG 0.20  C 
ATOM     39 OXT  SER P   5      14.329  22.445  49.619  1.00 41.68 LIG-0.65  OA
ATOM     40 O    SER P   5      13.350  22.571  47.548  1.00 42.12 LIG-0.65  OA
ENDBRANCH 34 38
ENDBRANCH 31 34
ENDBRANCH 29 30
BRANCH 29 41
ATOM     41  CB  TYR P   4      14.386  24.974  43.269  1.00 37.99 LIG 0.07  C 
BRANCH 41 42
ATOM     42  CG  TYR P   4      14.943  24.721  41.860  1.00 35.75 LIG-0.06  A 
ATOM     43  CD2 TYR P   4      14.521  23.593  41.154  1.00 34.88 LIG 0.01  A 
ATOM     44  CE2 TYR P   4      14.976  23.334  39.872  1.00 35.19 LIG 0.04  A 
ATOM     45  CZ  TYR P   4      15.861  24.202  39.276  1.00 34.95 LIG 0.07  A 
ATOM     46  CE1 TYR P   4      16.312  25.327  39.948  1.00 35.39 LIG 0.04  A 
ATOM     47  CD1 TYR P   4      15.851  25.580  41.242  1.00 35.59 LIG 0.01  A 
BRANCH 45 48
ATOM     48 OH   TYR P   4      16.310  23.947  37.996  1.00 35.19 LIG-0.36  OA
ATOM     49 HH   TYR P   4      15.782  23.416  37.615  1.00 35.19 LIG 0.22  HD
ENDBRANCH 45 48
ENDBRANCH 41 42
ENDBRANCH 29 41
ENDBRANCH 3 29
TORSDOF 19
ENDMDL
MODEL 17
USER: ADFR SOLUTION from run 119
USER: SCORE 17.727420 LL:  -3.468 LR: -15.477 RR:   0.000 FEB:  -9.809
USER: RMSD 11.472482
USER: SEED 118
USER: STATUS no improvement in best 6 clusters for 5 generations
USER: GENES 21
USER: genes 0 Translation |==|  0.66554 0.58293 0.58480
USER: genes 1 Rotation |==|  0.24517 0.52422 0.75988 0.84196
USER: genes 2 Torsion [N]-C--CA-[N] |==|  0.82345
USER: genes 3 Torsion [C]-CA--N-[C] |==|  0.67927
USER: genes 4 Torsion [N]-C--CA-[N] |==|  0.07139
USER: genes 5 Torsion [C]-CA--N-[C] |==|  0.15629
USER: genes 6 Torsion [N]-C--CA-[N] |==|  0.30511
USER: genes 7 Torsion [C]-CA--N-[H2] |==|  0.80258
USER: genes 8 Torsion [C]-CA--CB-[CG] |==|  0.18156
USER: genes 9 Torsion [CA]-CB--CG-[CD2] |==|  0.42626
USER: genes 10 Torsion [C]-CA--CB-[CG2] |==|  0.14379
USER: genes 11 Torsion [CA]-CB--CG1-[CD1] |==|  0.91008
USER: genes 12 Torsion [C]-N--CA-[CB] |==|  0.80260
USER: genes 13 Torsion [N]-CA--C-[N] |==|  0.21624
USER: genes 14 Torsion [C]-N--CA-[CB] |==|  0.48472
USER: genes 15 Torsion [N]-CA--CB-[OG] |==|  0.99633
USER: genes 16 Torsion [CA]-CB--OG-[HG] |==|  0.32682
USER: genes 17 Torsion [N]-CA--C-[OXT] |==|  0.31693
USER: genes 18 Torsion [N]-CA--CB-[CG] |==|  0.29143
USER: genes 19 Torsion [CA]-CB--CG-[CD2] |==|  0.72809
USER: genes 20 Torsion [CE2]-CZ--OH-[HH] |==|  0.87583
ROOT
ATOM      1  C   ILE P   3      17.466  23.438  43.724  1.00 41.75 LIG 0.24  C 
ATOM      2 O    ILE P   3      17.051  22.787  42.768  1.00 43.02 LIG-0.27  OA
ATOM      3  N   TYR P   4      17.020  24.651  44.004  1.00 40.49 LIG-0.35  N 
ATOM      4 H    TYR P   4      17.233  25.102  44.704  1.00 40.49 LIG 0.16  HD
ENDROOT
BRANCH 1 5
ATOM      5  CA  ILE P   3      18.522  22.840  44.664  1.00 41.79 LIG 0.18  C 
BRANCH 5 6
ATOM      6  N   ILE P   3      19.762  23.635  44.632  1.00 42.70 LIG-0.35  N 
ATOM      7 H    ILE P   3      19.672  24.436  44.930  1.00 42.70 LIG 0.16  HD
ATOM      8  C   ALA P   2      20.914  23.141  44.177  1.00 42.25 LIG 0.24  C 
ATOM      9 O    ALA P   2      21.019  22.004  43.748  1.00 43.48 LIG-0.27  OA
BRANCH 8 10
ATOM     10  CA  ALA P   2      22.140  24.049  44.194  1.00 41.32 LIG 0.17  C 
ATOM     11  CB  ALA P   2      23.383  23.244  44.498  1.00 39.54 LIG 0.04  C 
BRANCH 10 12
ATOM     12  N   ALA P   2      21.934  25.035  45.247  1.00 41.39 LIG-0.35  N 
ATOM     13 H    ALA P   2      21.981  25.851  44.981  1.00 41.39 LIG 0.16  HD
ATOM     14  C   LEU P   1      21.693  24.680  46.504  1.00 41.33 LIG 0.25  C 
ATOM     15 O    LEU P   1      21.607  23.503  46.865  1.00 41.61 LIG-0.27  OA
BRANCH 14 16
ATOM     16  CA  LEU P   1      21.514  25.825  47.502  1.00 40.25 LIG 0.28  C 
BRANCH 16 17
ATOM     17  N   LEU P   1      20.094  25.892  47.930  1.00 40.65 LIG-0.07  N 
ATOM     18 H2   LEU P   1      19.594  26.191  47.257  1.00 40.65 LIG 0.28  HD
ATOM     19 H1   LEU P   1      20.018  26.445  48.623  1.00 40.65 LIG 0.28  HD
ATOM     20 H3   LEU P   1      19.816  25.081  48.167  1.00 40.65 LIG 0.28  HD
ENDBRANCH 16 17
BRANCH 16 21
ATOM     21  CB  LEU P   1      22.411  25.590  48.721  1.00 38.59 LIG 0.05  C 
BRANCH 21 22
ATOM     22  CG  LEU P   1      23.941  25.601  48.614  1.00 36.61 LIG-0.02  C 
ATOM     23  CD2 LEU P   1      24.517  25.998  49.961  1.00 36.34 LIG 0.01  C 
ATOM     24  CD1 LEU P   1      24.414  26.560  47.533  1.00 35.12 LIG 0.01  C 
ENDBRANCH 21 22
ENDBRANCH 16 21
ENDBRANCH 14 16
ENDBRANCH 10 12
ENDBRANCH 8 10
ENDBRANCH 5 6
BRANCH 5 25
ATOM     25  CB  ILE P   3      17.881  22.861  46.057  1.00 41.77 LIG 0.01  C 
ATOM     26  CG2 ILE P   3      16.509  22.197  45.977  1.00 41.93 LIG 0.01  C 
BRANCH 25 27
ATOM     27  CG1 ILE P   3      18.769  22.114  47.058  1.00 42.12 LIG 0.00  C 
ATOM     28  CD1 ILE P   3      19.550  20.955  46.493  1.00 41.36 LIG 0.01  C 
ENDBRANCH 25 27
ENDBRANCH 5 25
ENDBRANCH 1 5
BRANCH 3 29
ATOM     29  CA  TYR P   4      16.107  25.313  43.104  1.00 39.63 LIG 0.18  C 
BRANCH 29 30
ATOM     30  C   TYR P   4      14.942  24.333  42.935  1.00 40.27 LIG 0.24  C 
ATOM     31  N   SER P   5      14.103  24.317  43.944  1.00 40.75 LIG-0.34  N 
ATOM     32 H    SER P   5      14.186  24.831  44.628  1.00 40.75 LIG 0.16  HD
ATOM     33 O    TYR P   4      14.857  23.619  41.943  1.00 40.83 LIG-0.27  OA
BRANCH 31 34
ATOM     34  CA  SER P   5      12.943  23.430  44.021  1.00 41.35 LIG 0.21  C 
BRANCH 34 35
ATOM     35  CB  SER P   5      12.504  23.797  45.445  1.00 41.35 LIG 0.20  C 
BRANCH 35 36
ATOM     36 OG   SER P   5      13.579  24.699  45.621  1.00 42.37 LIG-0.40  OA
ATOM     37 HG   SER P   5      13.279  25.474  45.739  1.00 42.37 LIG 0.21  HD
ENDBRANCH 35 36
ENDBRANCH 34 35
BRANCH 34 38
ATOM     38  C   SER P   5      12.143  23.349  42.734  1.00 41.28 LIG 0.20  C 
ATOM     39 OXT  SER P   5      12.204  22.086  42.171  1.00 41.68 LIG-0.65  OA
ATOM     40 O    SER P   5      11.902  24.357  42.076  1.00 42.12 LIG-0.65  OA
ENDBRANCH 34 38
ENDBRANCH 31 34
ENDBRANCH 29 30
BRANCH 29 41
ATOM     41  CB  TYR P   4      16.795  25.752  41.790  1.00 37.99 LIG 0.07  C 
BRANCH 41 42
ATOM     42  CG  TYR P   4      16.518  24.940  40.516  1.00 35.75 LIG-0.06  A 
ATOM     43  CD2 TYR P   4      17.435  23.965  40.117  1.00 34.88 LIG 0.01  A 
ATOM     44  CE2 TYR P   4      17.218  23.192  38.990  1.00 35.19 LIG 0.04  A 
ATOM     45  CZ  TYR P   4      16.078  23.381  38.243  1.00 34.95 LIG 0.07  A 
ATOM     46  CE1 TYR P   4      15.150  24.346  38.600  1.00 35.39 LIG 0.04  A 
ATOM     47  CD1 TYR P   4      15.376  25.125  39.737  1.00 35.59 LIG 0.01  A 
BRANCH 45 48
ATOM     48 OH   TYR P   4      15.860  22.606  37.122  1.00 35.19 LIG-0.36  OA
ATOM     49 HH   TYR P   4      16.569  22.557  36.674  1.00 35.19 LIG 0.22  HD
ENDBRANCH 45 48
ENDBRANCH 41 42
ENDBRANCH 29 41
ENDBRANCH 3 29
TORSDOF 19
ENDMDL
MODEL 18
USER: ADFR SOLUTION from run 131
USER: SCORE 19.376603 LL:  -4.429 LR: -15.352 RR:   0.000 FEB:  -9.684
USER: RMSD 11.126459
USER: SEED 130
USER: STATUS no improvement in best 6 clusters for 5 generations
USER: GENES 21
USER: genes 0 Translation |==|  0.64405 0.59301 0.65614
USER: genes 1 Rotation |==|  0.43438 0.02571 0.61445 0.58744
USER: genes 2 Torsion [N]-C--CA-[N] |==|  0.38197
USER: genes 3 Torsion [C]-CA--N-[C] |==|  0.71873
USER: genes 4 Torsion [N]-C--CA-[N] |==|  0.91544
USER: genes 5 Torsion [C]-CA--N-[C] |==|  0.80044
USER: genes 6 Torsion [N]-C--CA-[N] |==|  0.81351
USER: genes 7 Torsion [C]-CA--N-[H2] |==|  0.46552
USER: genes 8 Torsion [C]-CA--CB-[CG] |==|  0.78579
USER: genes 9 Torsion [CA]-CB--CG-[CD2] |==|  0.68698
USER: genes 10 Torsion [C]-CA--CB-[CG2] |==|  0.79987
USER: genes 11 Torsion [CA]-CB--CG1-[CD1] |==|  0.38320
USER: genes 12 Torsion [C]-N--CA-[CB] |==|  0.19444
USER: genes 13 Torsion [N]-CA--C-[N] |==|  0.06974
USER: genes 14 Torsion [C]-N--CA-[CB] |==|  0.79088
USER: genes 15 Torsion [N]-CA--CB-[OG] |==|  0.87669
USER: genes 16 Torsion [CA]-CB--OG-[HG] |==|  0.32184
USER: genes 17 Torsion [N]-CA--C-[OXT] |==|  0.74131
USER: genes 18 Torsion [N]-CA--CB-[CG] |==|  0.10118
USER: genes 19 Torsion [CA]-CB--CG-[CD2] |==|  0.75041
USER: genes 20 Torsion [CE2]-CZ--OH-[HH] |==|  0.50247
ROOT
ATOM      1  C   ILE P   3      16.822  23.740  45.864  1.00 41.75 LIG 0.24  C 
ATOM      2 O    ILE P   3      17.324  24.853  46.008  1.00 43.02 LIG-0.27  OA
ATOM      3  N   TYR P   4      15.956  23.473  44.900  1.00 40.49 LIG-0.35  N 
ATOM      4 H    TYR P   4      15.644  22.691  44.726  1.00 40.49 LIG 0.16  HD
ENDROOT
BRANCH 1 5
ATOM      5  CA  ILE P   3      17.211  22.590  46.803  1.00 41.79 LIG 0.18  C 
BRANCH 5 6
ATOM      6  N   ILE P   3      18.661  22.599  47.066  1.00 42.70 LIG-0.35  N 
ATOM      7 H    ILE P   3      18.908  23.182  47.647  1.00 42.70 LIG 0.16  HD
ATOM      8  C   ALA P   2      19.503  21.769  46.449  1.00 42.25 LIG 0.24  C 
ATOM      9 O    ALA P   2      19.134  20.954  45.620  1.00 43.48 LIG-0.27  OA
BRANCH 8 10
ATOM     10  CA  ALA P   2      20.985  21.857  46.802  1.00 41.32 LIG 0.17  C 
ATOM     11  CB  ALA P   2      21.298  20.957  47.974  1.00 39.54 LIG 0.04  C 
BRANCH 10 12
ATOM     12  N   ALA P   2      21.261  23.240  47.166  1.00 41.39 LIG-0.35  N 
ATOM     13 H    ALA P   2      21.403  23.363  48.005  1.00 41.39 LIG 0.16  HD
ATOM     14  C   LEU P   1      21.288  24.213  46.262  1.00 41.33 LIG 0.25  C 
ATOM     15 O    LEU P   1      21.104  24.016  45.058  1.00 41.61 LIG-0.27  OA
BRANCH 14 16
ATOM     16  CA  LEU P   1      21.574  25.617  46.795  1.00 40.25 LIG 0.28  C 
BRANCH 16 17
ATOM     17  N   LEU P   1      20.440  26.066  47.644  1.00 40.65 LIG-0.07  N 
ATOM     18 H2   LEU P   1      20.678  26.795  48.095  1.00 40.65 LIG 0.28  HD
ATOM     19 H1   LEU P   1      20.223  25.420  48.216  1.00 40.65 LIG 0.28  HD
ATOM     20 H3   LEU P   1      19.739  26.253  47.128  1.00 40.65 LIG 0.28  HD
ENDBRANCH 16 17
BRANCH 16 21
ATOM     21  CB  LEU P   1      22.863  25.601  47.623  1.00 38.59 LIG 0.05  C 
BRANCH 21 22
ATOM     22  CG  LEU P   1      22.899  25.048  49.054  1.00 36.61 LIG-0.02  C 
ATOM     23  CD2 LEU P   1      23.163  26.197  50.010  1.00 36.34 LIG 0.01  C 
ATOM     24  CD1 LEU P   1      23.966  23.975  49.206  1.00 35.12 LIG 0.01  C 
ENDBRANCH 21 22
ENDBRANCH 16 21
ENDBRANCH 14 16
ENDBRANCH 10 12
ENDBRANCH 8 10
ENDBRANCH 5 6
BRANCH 5 25
ATOM     25  CB  ILE P   3      16.409  22.827  48.087  1.00 41.77 LIG 0.01  C 
ATOM     26  CG2 ILE P   3      17.000  24.028  48.822  1.00 41.93 LIG 0.01  C 
BRANCH 25 27
ATOM     27  CG1 ILE P   3      14.937  23.091  47.749  1.00 42.12 LIG 0.00  C 
ATOM     28  CD1 ILE P   3      13.935  22.412  48.646  1.00 41.36 LIG 0.01  C 
ENDBRANCH 25 27
ENDBRANCH 5 25
ENDBRANCH 1 5
BRANCH 3 29
ATOM     29  CA  TYR P   4      15.467  24.531  44.050  1.00 39.63 LIG 0.18  C 
BRANCH 29 30
ATOM     30  C   TYR P   4      14.232  23.943  43.361  1.00 40.27 LIG 0.24  C 
ATOM     31  N   SER P   5      13.655  22.973  44.032  1.00 40.75 LIG-0.34  N 
ATOM     32 H    SER P   5      13.930  22.710  44.803  1.00 40.75 LIG 0.16  HD
ATOM     33 O    TYR P   4      13.868  24.347  42.264  1.00 40.83 LIG-0.27  OA
BRANCH 31 34
ATOM     34  CA  SER P   5      12.487  22.235  43.549  1.00 41.35 LIG 0.21  C 
BRANCH 34 35
ATOM     35  CB  SER P   5      11.439  23.324  43.812  1.00 41.35 LIG 0.20  C 
BRANCH 35 36
ATOM     36 OG   SER P   5      11.965  23.623  45.090  1.00 42.37 LIG-0.40  OA
ATOM     37 HG   SER P   5      12.258  24.410  45.096  1.00 42.37 LIG 0.21  HD
ENDBRANCH 35 36
ENDBRANCH 34 35
BRANCH 34 38
ATOM     38  C   SER P   5      12.755  21.403  42.309  1.00 41.28 LIG 0.20  C 
ATOM     39 OXT  SER P   5      12.453  22.098  41.150  1.00 41.68 LIG-0.65  OA
ATOM     40 O    SER P   5      12.768  20.176  42.362  1.00 42.12 LIG-0.65  OA
ENDBRANCH 34 38
ENDBRANCH 31 34
ENDBRANCH 29 30
BRANCH 29 41
ATOM     41  CB  TYR P   4      16.561  25.067  43.096  1.00 37.99 LIG 0.07  C 
BRANCH 41 42
ATOM     42  CG  TYR P   4      17.573  24.069  42.514  1.00 35.75 LIG-0.06  A 
ATOM     43  CD2 TYR P   4      18.757  23.816  43.210  1.00 34.88 LIG 0.01  A 
ATOM     44  CE2 TYR P   4      19.689  22.908  42.739  1.00 35.19 LIG 0.04  A 
ATOM     45  CZ  TYR P   4      19.451  22.236  41.562  1.00 34.95 LIG 0.07  A 
ATOM     46  CE1 TYR P   4      18.293  22.467  40.837  1.00 35.39 LIG 0.04  A 
ATOM     47  CD1 TYR P   4      17.358  23.387  41.317  1.00 35.59 LIG 0.01  A 
BRANCH 45 48
ATOM     48 OH   TYR P   4      20.378  21.327  41.096  1.00 35.19 LIG-0.36  OA
ATOM     49 HH   TYR P   4      20.110  21.004  40.368  1.00 35.19 LIG 0.22  HD
ENDBRANCH 45 48
ENDBRANCH 41 42
ENDBRANCH 29 41
ENDBRANCH 3 29
TORSDOF 19
ENDMDL
MODEL 19
USER: ADFR SOLUTION from run 118
USER: SCORE 18.769600 LL:  -4.326 LR: -15.286 RR:   0.000 FEB:  -9.618
USER: RMSD 11.268899
USER: SEED 117
USER: STATUS no improvement in best 5 clusters for 5 generations
USER: GENES 21
USER: genes 0 Translation |==|  0.63928 0.59326 0.65572
USER: genes 1 Rotation |==|  0.46635 0.01650 0.60612 0.56190
USER: genes 2 Torsion [N]-C--CA-[N] |==|  0.35382
USER: genes 3 Torsion [C]-CA--N-[C] |==|  0.73164
USER: genes 4 Torsion [N]-C--CA-[N] |==|  0.93528
USER: genes 5 Torsion [C]-CA--N-[C] |==|  0.80223
USER: genes 6 Torsion [N]-C--CA-[N] |==|  0.75967
USER: genes 7 Torsion [C]-CA--N-[H2] |==|  0.24154
USER: genes 8 Torsion [C]-CA--CB-[CG] |==|  0.31072
USER: genes 9 Torsion [CA]-CB--CG-[CD2] |==|  0.81292
USER: genes 10 Torsion [C]-CA--CB-[CG2] |==|  0.80077
USER: genes 11 Torsion [CA]-CB--CG1-[CD1] |==|  0.40286
USER: genes 12 Torsion [C]-N--CA-[CB] |==|  0.21045
USER: genes 13 Torsion [N]-CA--C-[N] |==|  0.87199
USER: genes 14 Torsion [C]-N--CA-[CB] |==|  0.39180
USER: genes 15 Torsion [N]-CA--CB-[OG] |==|  0.06936
USER: genes 16 Torsion [CA]-CB--OG-[HG] |==|  0.34186
USER: genes 17 Torsion [N]-CA--C-[OXT] |==|  0.03690
USER: genes 18 Torsion [N]-CA--CB-[CG] |==|  0.28397
USER: genes 19 Torsion [CA]-CB--CG-[CD2] |==|  0.71363
USER: genes 20 Torsion [CE2]-CZ--OH-[HH] |==|  0.13471
ROOT
ATOM      1  C   ILE P   3      16.678  23.748  45.851  1.00 41.75 LIG 0.24  C 
ATOM      2 O    ILE P   3      17.002  24.910  46.084  1.00 43.02 LIG-0.27  OA
ATOM      3  N   TYR P   4      15.935  23.413  44.810  1.00 40.49 LIG-0.35  N 
ATOM      4 H    TYR P   4      15.753  22.606  44.577  1.00 40.49 LIG 0.16  HD
ENDROOT
BRANCH 1 5
ATOM      5  CA  ILE P   3      17.160  22.615  46.768  1.00 41.79 LIG 0.18  C 
BRANCH 5 6
ATOM      6  N   ILE P   3      18.620  22.678  46.954  1.00 42.70 LIG-0.35  N 
ATOM      7 H    ILE P   3      18.872  23.226  47.566  1.00 42.70 LIG 0.16  HD
ATOM      8  C   ALA P   2      19.463  21.943  46.229  1.00 42.25 LIG 0.24  C 
ATOM      9 O    ALA P   2      19.087  21.176  45.358  1.00 43.48 LIG-0.27  OA
BRANCH 8 10
ATOM     10  CA  ALA P   2      20.958  22.079  46.508  1.00 41.32 LIG 0.17  C 
ATOM     11  CB  ALA P   2      21.414  20.994  47.456  1.00 39.54 LIG 0.04  C 
BRANCH 10 12
ATOM     12  N   ALA P   2      21.164  23.381  47.128  1.00 41.39 LIG-0.35  N 
ATOM     13 H    ALA P   2      21.365  23.348  47.963  1.00 41.39 LIG 0.16  HD
ATOM     14  C   LEU P   1      21.048  24.512  46.441  1.00 41.33 LIG 0.25  C 
ATOM     15 O    LEU P   1      20.780  24.542  45.237  1.00 41.61 LIG-0.27  OA
BRANCH 14 16
ATOM     16  CA  LEU P   1      21.276  25.802  47.229  1.00 40.25 LIG 0.28  C 
BRANCH 16 17
ATOM     17  N   LEU P   1      20.004  26.226  47.868  1.00 40.65 LIG-0.07  N 
ATOM     18 H2   LEU P   1      19.921  25.825  48.659  1.00 40.65 LIG 0.28  HD
ATOM     19 H1   LEU P   1      19.319  25.998  47.347  1.00 40.65 LIG 0.28  HD
ATOM     20 H3   LEU P   1      20.008  27.108  47.982  1.00 40.65 LIG 0.28  HD
ENDBRANCH 16 17
BRANCH 16 21
ATOM     21  CB  LEU P   1      22.341  25.567  48.305  1.00 38.59 LIG 0.05  C 
BRANCH 21 22
ATOM     22  CG  LEU P   1      23.723  26.229  48.234  1.00 36.61 LIG-0.02  C 
ATOM     23  CD2 LEU P   1      24.478  25.648  47.052  1.00 36.34 LIG 0.01  C 
ATOM     24  CD1 LEU P   1      24.507  26.016  49.519  1.00 35.12 LIG 0.01  C 
ENDBRANCH 21 22
ENDBRANCH 16 21
ENDBRANCH 14 16
ENDBRANCH 10 12
ENDBRANCH 8 10
ENDBRANCH 5 6
BRANCH 5 25
ATOM     25  CB  ILE P   3      16.418  22.825  48.094  1.00 41.77 LIG 0.01  C 
ATOM     26  CG2 ILE P   3      16.998  24.053  48.792  1.00 41.93 LIG 0.01  C 
BRANCH 25 27
ATOM     27  CG1 ILE P   3      14.921  23.026  47.834  1.00 42.12 LIG 0.00  C 
ATOM     28  CD1 ILE P   3      14.000  22.450  48.880  1.00 41.36 LIG 0.01  C 
ENDBRANCH 25 27
ENDBRANCH 5 25
ENDBRANCH 1 5
BRANCH 3 29
ATOM     29  CA  TYR P   4      15.363  24.437  43.968  1.00 39.63 LIG 0.18  C 
BRANCH 29 30
ATOM     30  C   TYR P   4      14.186  23.754  43.265  1.00 40.27 LIG 0.24  C 
ATOM     31  N   SER P   5      14.468  22.570  42.774  1.00 40.75 LIG-0.34  N 
ATOM     32 H    SER P   5      15.238  22.198  42.864  1.00 40.75 LIG 0.16  HD
ATOM     33 O    TYR P   4      13.102  24.314  43.161  1.00 40.83 LIG-0.27  OA
BRANCH 31 34
ATOM     34  CA  SER P   5      13.513  21.753  42.026  1.00 41.35 LIG 0.21  C 
BRANCH 34 35
ATOM     35  CB  SER P   5      14.494  21.205  40.981  1.00 41.35 LIG 0.20  C 
BRANCH 35 36
ATOM     36 OG   SER P   5      15.609  21.377  41.832  1.00 42.37 LIG-0.40  OA
ATOM     37 HG   SER P   5      16.002  20.641  41.932  1.00 42.37 LIG 0.21  HD
ENDBRANCH 35 36
ENDBRANCH 34 35
BRANCH 34 38
ATOM     38  C   SER P   5      12.501  21.034  42.899  1.00 41.28 LIG 0.20  C 
ATOM     39 OXT  SER P   5      12.500  21.525  44.193  1.00 41.68 LIG-0.65  OA
ATOM     40 O    SER P   5      12.115  19.902  42.619  1.00 42.12 LIG-0.65  OA
ENDBRANCH 34 38
ENDBRANCH 31 34
ENDBRANCH 29 30
BRANCH 29 41
ATOM     41  CB  TYR P   4      16.412  25.075  43.028  1.00 37.99 LIG 0.07  C 
BRANCH 41 42
ATOM     42  CG  TYR P   4      16.433  24.639  41.556  1.00 35.75 LIG-0.06  A 
ATOM     43  CD2 TYR P   4      17.420  23.751  41.123  1.00 34.88 LIG 0.01  A 
ATOM     44  CE2 TYR P   4      17.466  23.309  39.812  1.00 35.19 LIG 0.04  A 
ATOM     45  CZ  TYR P   4      16.523  23.749  38.911  1.00 34.95 LIG 0.07  A 
ATOM     46  CE1 TYR P   4      15.534  24.639  39.300  1.00 35.39 LIG 0.04  A 
ATOM     47  CD1 TYR P   4      15.495  25.082  40.624  1.00 35.59 LIG 0.01  A 
BRANCH 45 48
ATOM     48 OH   TYR P   4      16.566  23.305  37.606  1.00 35.19 LIG-0.36  OA
ATOM     49 HH   TYR P   4      16.648  22.469  37.597  1.00 35.19 LIG 0.22  HD
ENDBRANCH 45 48
ENDBRANCH 41 42
ENDBRANCH 29 41
ENDBRANCH 3 29
TORSDOF 19
ENDMDL
MODEL 20
USER: ADFR SOLUTION from run 22
USER: SCORE 18.074749 LL:  -4.074 LR: -15.286 RR:   0.000 FEB:  -9.619
USER: RMSD 10.877332
USER: SEED 21
USER: STATUS no improvement in best 3 clusters for 5 generations
USER: GENES 21
USER: genes 0 Translation |==|  0.63431 0.56044 0.65364
USER: genes 1 Rotation |==|  0.18454 0.73795 0.55974 0.80049
USER: genes 2 Torsion [N]-C--CA-[N] |==|  0.92896
USER: genes 3 Torsion [C]-CA--N-[C] |==|  0.76199
USER: genes 4 Torsion [N]-C--CA-[N] |==|  0.96949
USER: genes 5 Torsion [C]-CA--N-[C] |==|  0.79437
USER: genes 6 Torsion [N]-C--CA-[N] |==|  0.82340
USER: genes 7 Torsion [C]-CA--N-[H2] |==|  0.70678
USER: genes 8 Torsion [C]-CA--CB-[CG] |==|  0.80006
USER: genes 9 Torsion [CA]-CB--CG-[CD2] |==|  0.66330
USER: genes 10 Torsion [C]-CA--CB-[CG2] |==|  0.80905
USER: genes 11 Torsion [CA]-CB--CG1-[CD1] |==|  0.31246
USER: genes 12 Torsion [C]-N--CA-[CB] |==|  0.78329
USER: genes 13 Torsion [N]-CA--C-[N] |==|  0.66301
USER: genes 14 Torsion [C]-N--CA-[CB] |==|  0.38429
USER: genes 15 Torsion [N]-CA--CB-[OG] |==|  0.89509
USER: genes 16 Torsion [CA]-CB--OG-[HG] |==|  0.47008
USER: genes 17 Torsion [N]-CA--C-[OXT] |==|  0.27269
USER: genes 18 Torsion [N]-CA--CB-[CG] |==|  0.09683
USER: genes 19 Torsion [CA]-CB--CG-[CD2] |==|  0.22482
USER: genes 20 Torsion [CE2]-CZ--OH-[HH] |==|  0.84943
ROOT
ATOM      1  C   ILE P   3      16.529  22.763  45.789  1.00 41.75 LIG 0.24  C 
ATOM      2 O    ILE P   3      15.464  22.303  45.384  1.00 43.02 LIG-0.27  OA
ATOM      3  N   TYR P   4      17.215  23.668  45.110  1.00 40.49 LIG-0.35  N 
ATOM      4 H    TYR P   4      17.922  24.063  45.398  1.00 40.49 LIG 0.16  HD
ENDROOT
BRANCH 1 5
ATOM      5  CA  ILE P   3      17.100  22.313  47.142  1.00 41.79 LIG 0.18  C 
BRANCH 5 6
ATOM      6  N   ILE P   3      18.561  22.495  47.179  1.00 42.70 LIG-0.35  N 
ATOM      7 H    ILE P   3      18.813  23.240  47.524  1.00 42.70 LIG 0.16  HD
ATOM      8  C   ALA P   2      19.406  21.574  46.713  1.00 42.25 LIG 0.24  C 
ATOM      9 O    ALA P   2      19.029  20.526  46.217  1.00 43.48 LIG-0.27  OA
BRANCH 8 10
ATOM     10  CA  ALA P   2      20.902  21.860  46.807  1.00 41.32 LIG 0.17  C 
ATOM     11  CB  ALA P   2      21.536  20.988  47.866  1.00 39.54 LIG 0.04  C 
BRANCH 10 12
ATOM     12  N   ALA P   2      21.052  23.260  47.180  1.00 41.39 LIG-0.35  N 
ATOM     13 H    ALA P   2      21.294  23.385  47.996  1.00 41.39 LIG 0.16  HD
ATOM     14  C   LEU P   1      20.829  24.245  46.317  1.00 41.33 LIG 0.25  C 
ATOM     15 O    LEU P   1      20.502  24.048  45.143  1.00 41.61 LIG-0.27  OA
BRANCH 14 16
ATOM     16  CA  LEU P   1      21.010  25.664  46.857  1.00 40.25 LIG 0.28  C 
BRANCH 16 17
ATOM     17  N   LEU P   1      20.014  25.917  47.930  1.00 40.65 LIG-0.07  N 
ATOM     18 H2   LEU P   1      19.374  26.452  47.621  1.00 40.65 LIG 0.28  HD
ATOM     19 H1   LEU P   1      20.416  26.306  48.623  1.00 40.65 LIG 0.28  HD
ATOM     20 H3   LEU P   1      19.656  25.146  48.191  1.00 40.65 LIG 0.28  HD
ENDBRANCH 16 17
BRANCH 16 21
ATOM     21  CB  LEU P   1      22.426  25.825  47.418  1.00 38.59 LIG 0.05  C 
BRANCH 21 22
ATOM     22  CG  LEU P   1      22.858  25.155  48.729  1.00 36.61 LIG-0.02  C 
ATOM     23  CD2 LEU P   1      23.314  26.233  49.695  1.00 36.34 LIG 0.01  C 
ATOM     24  CD1 LEU P   1      23.972  24.147  48.495  1.00 35.12 LIG 0.01  C 
ENDBRANCH 21 22
ENDBRANCH 16 21
ENDBRANCH 14 16
ENDBRANCH 10 12
ENDBRANCH 8 10
ENDBRANCH 5 6
BRANCH 5 25
ATOM     25  CB  ILE P   3      16.401  23.191  48.187  1.00 41.77 LIG 0.01  C 
ATOM     26  CG2 ILE P   3      16.893  24.627  48.031  1.00 41.93 LIG 0.01  C 
BRANCH 25 27
ATOM     27  CG1 ILE P   3      14.881  23.132  47.994  1.00 42.12 LIG 0.00  C 
ATOM     28  CD1 ILE P   3      14.115  22.450  49.098  1.00 41.36 LIG 0.01  C 
ENDBRANCH 25 27
ENDBRANCH 5 25
ENDBRANCH 1 5
BRANCH 3 29
ATOM     29  CA  TYR P   4      16.791  24.057  43.787  1.00 39.63 LIG 0.18  C 
BRANCH 29 30
ATOM     30  C   TYR P   4      15.289  24.325  43.919  1.00 40.27 LIG 0.24  C 
ATOM     31  N   SER P   5      14.540  23.584  43.135  1.00 40.75 LIG-0.34  N 
ATOM     32 H    SER P   5      14.864  22.982  42.613  1.00 40.75 LIG 0.16  HD
ATOM     33 O    TYR P   4      14.866  25.188  44.678  1.00 40.83 LIG-0.27  OA
BRANCH 31 34
ATOM     34  CA  SER P   5      13.084  23.696  43.060  1.00 41.35 LIG 0.21  C 
BRANCH 34 35
ATOM     35  CB  SER P   5      12.951  23.570  41.537  1.00 41.35 LIG 0.20  C 
BRANCH 35 36
ATOM     36 OG   SER P   5      14.124  24.324  41.300  1.00 42.37 LIG-0.40  OA
ATOM     37 HG   SER P   5      14.337  24.265  40.490  1.00 42.37 LIG 0.21  HD
ENDBRANCH 35 36
ENDBRANCH 34 35
BRANCH 34 38
ATOM     38  C   SER P   5      12.353  22.973  44.177  1.00 41.28 LIG 0.20  C 
ATOM     39 OXT  SER P   5      11.990  23.837  45.196  1.00 41.68 LIG-0.65  OA
ATOM     40 O    SER P   5      12.501  21.767  44.351  1.00 42.12 LIG-0.65  OA
ENDBRANCH 34 38
ENDBRANCH 31 34
ENDBRANCH 29 30
BRANCH 29 41
ATOM     41  CB  TYR P   4      17.182  23.011  42.717  1.00 37.99 LIG 0.07  C 
BRANCH 41 42
ATOM     42  CG  TYR P   4      17.160  21.525  43.107  1.00 35.75 LIG-0.06  A 
ATOM     43  CD2 TYR P   4      15.943  20.840  43.109  1.00 34.88 LIG 0.01  A 
ATOM     44  CE2 TYR P   4      15.875  19.496  43.430  1.00 35.19 LIG 0.04  A 
ATOM     45  CZ  TYR P   4      17.026  18.813  43.753  1.00 34.95 LIG 0.07  A 
ATOM     46  CE1 TYR P   4      18.250  19.461  43.772  1.00 35.39 LIG 0.04  A 
ATOM     47  CD1 TYR P   4      18.312  20.818  43.450  1.00 35.59 LIG 0.01  A 
BRANCH 45 48
ATOM     48 OH   TYR P   4      16.958  17.472  44.068  1.00 35.19 LIG-0.36  OA
ATOM     49 HH   TYR P   4      16.401  17.357  44.686  1.00 35.19 LIG 0.22  HD
ENDBRANCH 45 48
ENDBRANCH 41 42
ENDBRANCH 29 41
ENDBRANCH 3 29
TORSDOF 19
ENDMDL
MODEL 21
USER: ADFR SOLUTION from run 15
USER: SCORE 17.829051 LL:  -3.929 LR: -15.261 RR:   0.000 FEB:  -9.593
USER: RMSD 11.206232
USER: SEED 571561
USER: STATUS no improvement in best 7 clusters for 5 generations
USER: GENES 21
USER: genes 0 Translation |==|  0.66234 0.52842 0.64417
USER: genes 1 Rotation |==|  0.42464 0.13151 0.82930 0.50977
USER: genes 2 Torsion [N]-C--CA-[N] |==|  0.36100
USER: genes 3 Torsion [C]-CA--N-[C] |==|  0.86792
USER: genes 4 Torsion [N]-C--CA-[N] |==|  0.94972
USER: genes 5 Torsion [C]-CA--N-[C] |==|  0.80657
USER: genes 6 Torsion [N]-C--CA-[N] |==|  0.76492
USER: genes 7 Torsion [C]-CA--N-[H2] |==|  0.07960
USER: genes 8 Torsion [C]-CA--CB-[CG] |==|  0.14741
USER: genes 9 Torsion [CA]-CB--CG-[CD2] |==|  0.66859
USER: genes 10 Torsion [C]-CA--CB-[CG2] |==|  0.80687
USER: genes 11 Torsion [CA]-CB--CG1-[CD1] |==|  0.28193
USER: genes 12 Torsion [C]-N--CA-[CB] |==|  0.79444
USER: genes 13 Torsion [N]-CA--C-[N] |==|  0.68978
USER: genes 14 Torsion [C]-N--CA-[CB] |==|  0.50514
USER: genes 15 Torsion [N]-CA--CB-[OG] |==|  0.05487
USER: genes 16 Torsion [CA]-CB--OG-[HG] |==|  0.21067
USER: genes 17 Torsion [N]-CA--C-[OXT] |==|  0.80943
USER: genes 18 Torsion [N]-CA--CB-[CG] |==|  0.58282
USER: genes 19 Torsion [CA]-CB--CG-[CD2] |==|  0.76709
USER: genes 20 Torsion [CE2]-CZ--OH-[HH] |==|  0.28040
ROOT
ATOM      1  C   ILE P   3      17.370  21.803  45.505  1.00 41.75 LIG 0.24  C 
ATOM      2 O    ILE P   3      17.778  22.598  44.662  1.00 43.02 LIG-0.27  OA
ATOM      3  N   TYR P   4      16.691  20.714  45.183  1.00 40.49 LIG-0.35  N 
ATOM      4 H    TYR P   4      16.456  20.102  45.739  1.00 40.49 LIG 0.16  HD
ENDROOT
BRANCH 1 5
ATOM      5  CA  ILE P   3      17.665  22.037  46.993  1.00 41.79 LIG 0.18  C 
BRANCH 5 6
ATOM      6  N   ILE P   3      19.094  22.330  47.203  1.00 42.70 LIG-0.35  N 
ATOM      7 H    ILE P   3      19.242  23.011  47.705  1.00 42.70 LIG 0.16  HD
ATOM      8  C   ALA P   2      20.061  21.593  46.654  1.00 42.25 LIG 0.24  C 
ATOM      9 O    ALA P   2      19.831  20.635  45.935  1.00 43.48 LIG-0.27  OA
BRANCH 8 10
ATOM     10  CA  ALA P   2      21.509  21.980  46.942  1.00 41.32 LIG 0.17  C 
ATOM     11  CB  ALA P   2      22.090  21.076  48.005  1.00 39.54 LIG 0.04  C 
BRANCH 10 12
ATOM     12  N   ALA P   2      21.501  23.354  47.427  1.00 41.39 LIG-0.35  N 
ATOM     13 H    ALA P   2      21.698  23.436  48.260  1.00 41.39 LIG 0.16  HD
ATOM     14  C   LEU P   1      21.211  24.377  46.632  1.00 41.33 LIG 0.25  C 
ATOM     15 O    LEU P   1      20.950  24.244  45.433  1.00 41.61 LIG-0.27  OA
BRANCH 14 16
ATOM     16  CA  LEU P   1      21.226  25.760  47.286  1.00 40.25 LIG 0.28  C 
BRANCH 16 17
ATOM     17  N   LEU P   1      19.913  26.018  47.930  1.00 40.65 LIG-0.07  N 
ATOM     18 H2   LEU P   1      19.548  25.246  48.180  1.00 40.65 LIG 0.28  HD
ATOM     19 H1   LEU P   1      19.373  26.427  47.353  1.00 40.65 LIG 0.28  HD
ATOM     20 H3   LEU P   1      20.029  26.535  48.644  1.00 40.65 LIG 0.28  HD
ENDBRANCH 16 17
BRANCH 16 21
ATOM     21  CB  LEU P   1      22.338  25.820  48.337  1.00 38.59 LIG 0.05  C 
BRANCH 21 22
ATOM     22  CG  LEU P   1      23.788  25.447  48.002  1.00 36.61 LIG-0.02  C 
ATOM     23  CD2 LEU P   1      24.201  24.276  48.877  1.00 36.34 LIG 0.01  C 
ATOM     24  CD1 LEU P   1      24.726  26.624  48.216  1.00 35.12 LIG 0.01  C 
ENDBRANCH 21 22
ENDBRANCH 16 21
ENDBRANCH 14 16
ENDBRANCH 10 12
ENDBRANCH 8 10
ENDBRANCH 5 6
BRANCH 5 25
ATOM     25  CB  ILE P   3      16.786  23.226  47.397  1.00 41.77 LIG 0.01  C 
ATOM     26  CG2 ILE P   3      17.323  24.486  46.723  1.00 41.93 LIG 0.01  C 
BRANCH 25 27
ATOM     27  CG1 ILE P   3      15.335  22.979  46.969  1.00 42.12 LIG 0.00  C 
ATOM     28  CD1 ILE P   3      14.403  22.533  48.066  1.00 41.36 LIG 0.01  C 
ENDBRANCH 25 27
ENDBRANCH 5 25
ENDBRANCH 1 5
BRANCH 3 29
ATOM     29  CA  TYR P   4      16.289  20.488  43.816  1.00 39.63 LIG 0.18  C 
BRANCH 29 30
ATOM     30  C   TYR P   4      17.573  20.651  42.998  1.00 40.27 LIG 0.24  C 
ATOM     31  N   SER P   5      17.585  21.710  42.222  1.00 40.75 LIG-0.34  N 
ATOM     32 H    SER P   5      16.939  22.277  42.197  1.00 40.75 LIG 0.16  HD
ATOM     33 O    TYR P   4      18.474  19.823  43.064  1.00 40.83 LIG-0.27  OA
BRANCH 31 34
ATOM     34  CA  SER P   5      18.687  22.045  41.321  1.00 41.35 LIG 0.21  C 
BRANCH 34 35
ATOM     35  CB  SER P   5      18.111  23.359  40.779  1.00 41.35 LIG 0.20  C 
BRANCH 35 36
ATOM     36 OG   SER P   5      17.223  23.504  41.870  1.00 42.37 LIG-0.40  OA
ATOM     37 HG   SER P   5      17.650  23.760  42.546  1.00 42.37 LIG 0.21  HD
ENDBRANCH 35 36
ENDBRANCH 34 35
BRANCH 34 38
ATOM     38  C   SER P   5      20.061  21.729  41.885  1.00 41.28 LIG 0.20  C 
ATOM     39 OXT  SER P   5      20.383  22.558  42.945  1.00 41.68 LIG-0.65  OA
ATOM     40 O    SER P   5      20.911  21.168  41.199  1.00 42.12 LIG-0.65  OA
ENDBRANCH 34 38
ENDBRANCH 31 34
ENDBRANCH 29 30
BRANCH 29 41
ATOM     41  CB  TYR P   4      15.117  21.403  43.392  1.00 37.99 LIG 0.07  C 
BRANCH 41 42
ATOM     42  CG  TYR P   4      14.136  20.886  42.328  1.00 35.75 LIG-0.06  A 
ATOM     43  CD2 TYR P   4      14.461  21.026  40.977  1.00 34.88 LIG 0.01  A 
ATOM     44  CE2 TYR P   4      13.621  20.555  39.983  1.00 35.19 LIG 0.04  A 
ATOM     45  CZ  TYR P   4      12.442  19.933  40.325  1.00 34.95 LIG 0.07  A 
ATOM     46  CE1 TYR P   4      12.080  19.784  41.654  1.00 35.39 LIG 0.04  A 
ATOM     47  CD1 TYR P   4      12.930  20.264  42.652  1.00 35.59 LIG 0.01  A 
BRANCH 45 48
ATOM     48 OH   TYR P   4      11.608  19.459  39.333  1.00 35.19 LIG-0.36  OA
ATOM     49 HH   TYR P   4      11.710  18.629  39.256  1.00 35.19 LIG 0.22  HD
ENDBRANCH 45 48
ENDBRANCH 41 42
ENDBRANCH 29 41
ENDBRANCH 3 29
TORSDOF 19
ENDMDL
MODEL 22
USER: ADFR SOLUTION from run 8
USER: SCORE 18.380594 LL:  -3.674 LR: -15.246 RR:   0.000 FEB:  -9.579
USER: RMSD 11.190116
USER: SEED 348892
USER: STATUS no improvement in best 9 clusters for 5 generations
USER: GENES 21
USER: genes 0 Translation |==|  0.66965 0.54825 0.62088
USER: genes 1 Rotation |==|  0.57010 0.91833 0.23667 0.52729
USER: genes 2 Torsion [N]-C--CA-[N] |==|  0.33428
USER: genes 3 Torsion [C]-CA--N-[C] |==|  0.80066
USER: genes 4 Torsion [N]-C--CA-[N] |==|  0.93931
USER: genes 5 Torsion [C]-CA--N-[C] |==|  0.78487
USER: genes 6 Torsion [N]-C--CA-[N] |==|  0.83573
USER: genes 7 Torsion [C]-CA--N-[H2] |==|  0.78155
USER: genes 8 Torsion [C]-CA--CB-[CG] |==|  0.81291
USER: genes 9 Torsion [CA]-CB--CG-[CD2] |==|  0.65624
USER: genes 10 Torsion [C]-CA--CB-[CG2] |==|  0.76480
USER: genes 11 Torsion [CA]-CB--CG1-[CD1] |==|  0.39156
USER: genes 12 Torsion [C]-N--CA-[CB] |==|  0.79444
USER: genes 13 Torsion [N]-CA--C-[N] |==|  0.21948
USER: genes 14 Torsion [C]-N--CA-[CB] |==|  0.23884
USER: genes 15 Torsion [N]-CA--CB-[OG] |==|  0.08358
USER: genes 16 Torsion [CA]-CB--OG-[HG] |==|  0.67334
USER: genes 17 Torsion [N]-CA--C-[OXT] |==|  0.56432
USER: genes 18 Torsion [N]-CA--CB-[CG] |==|  0.30786
USER: genes 19 Torsion [CA]-CB--CG-[CD2] |==|  0.24534
USER: genes 20 Torsion [CE2]-CZ--OH-[HH] |==|  0.41802
ROOT
ATOM      1  C   ILE P   3      17.590  22.397  44.806  1.00 41.75 LIG 0.24  C 
ATOM      2 O    ILE P   3      17.963  23.455  44.305  1.00 43.02 LIG-0.27  OA
ATOM      3  N   TYR P   4      17.131  21.391  44.081  1.00 40.49 LIG-0.35  N 
ATOM      4 H    TYR P   4      16.932  20.615  44.391  1.00 40.49 LIG 0.16  HD
ENDROOT
BRANCH 1 5
ATOM      5  CA  ILE P   3      17.670  22.193  46.326  1.00 41.79 LIG 0.18  C 
BRANCH 5 6
ATOM      6  N   ILE P   3      19.056  22.347  46.801  1.00 42.70 LIG-0.35  N 
ATOM      7 H    ILE P   3      19.196  23.068  47.248  1.00 42.70 LIG 0.16  HD
ATOM      8  C   ALA P   2      20.000  21.439  46.551  1.00 42.25 LIG 0.24  C 
ATOM      9 O    ALA P   2      19.785  20.426  45.906  1.00 43.48 LIG-0.27  OA
BRANCH 8 10
ATOM     10  CA  ALA P   2      21.402  21.693  47.097  1.00 41.32 LIG 0.17  C 
ATOM     11  CB  ALA P   2      21.601  20.950  48.398  1.00 39.54 LIG 0.04  C 
BRANCH 10 12
ATOM     12  N   ALA P   2      21.521  23.126  47.336  1.00 41.39 LIG-0.35  N 
ATOM     13 H    ALA P   2      21.449  23.354  48.161  1.00 41.39 LIG 0.16  HD
ATOM     14  C   LEU P   1      21.722  23.988  46.346  1.00 41.33 LIG 0.25  C 
ATOM     15 O    LEU P   1      21.843  23.642  45.167  1.00 41.61 LIG-0.27  OA
BRANCH 14 16
ATOM     16  CA  LEU P   1      21.807  25.461  46.746  1.00 40.25 LIG 0.28  C 
BRANCH 16 17
ATOM     17  N   LEU P   1      20.546  25.867  47.418  1.00 40.65 LIG-0.07  N 
ATOM     18 H2   LEU P   1      19.917  26.012  46.805  1.00 40.65 LIG 0.28  HD
ATOM     19 H1   LEU P   1      20.683  26.613  47.883  1.00 40.65 LIG 0.28  HD
ATOM     20 H3   LEU P   1      20.281  25.220  47.967  1.00 40.65 LIG 0.28  HD
ENDBRANCH 16 17
BRANCH 16 21
ATOM     21  CB  LEU P   1      22.989  25.668  47.699  1.00 38.59 LIG 0.05  C 
BRANCH 21 22
ATOM     22  CG  LEU P   1      23.000  25.073  49.114  1.00 36.61 LIG-0.02  C 
ATOM     23  CD2 LEU P   1      23.212  26.200  50.110  1.00 36.34 LIG 0.01  C 
ATOM     24  CD1 LEU P   1      24.088  24.022  49.264  1.00 35.12 LIG 0.01  C 
ENDBRANCH 21 22
ENDBRANCH 16 21
ENDBRANCH 14 16
ENDBRANCH 10 12
ENDBRANCH 8 10
ENDBRANCH 5 6
BRANCH 5 25
ATOM     25  CB  ILE P   3      16.751  23.264  46.926  1.00 41.77 LIG 0.01  C 
ATOM     26  CG2 ILE P   3      17.536  24.566  47.060  1.00 41.93 LIG 0.01  C 
BRANCH 25 27
ATOM     27  CG1 ILE P   3      15.530  23.477  46.025  1.00 42.12 LIG 0.00  C 
ATOM     28  CD1 ILE P   3      14.223  23.693  46.746  1.00 41.36 LIG 0.01  C 
ENDBRANCH 25 27
ENDBRANCH 5 25
ENDBRANCH 1 5
BRANCH 3 29
ATOM     29  CA  TYR P   4      16.931  21.553  42.661  1.00 39.63 LIG 0.18  C 
BRANCH 29 30
ATOM     30  C   TYR P   4      18.260  22.106  42.138  1.00 40.27 LIG 0.24  C 
ATOM     31  N   SER P   5      19.197  21.199  41.987  1.00 40.75 LIG-0.34  N 
ATOM     32 H    SER P   5      19.067  20.363  42.142  1.00 40.75 LIG 0.16  HD
ATOM     33 O    TYR P   4      18.405  23.303  41.924  1.00 40.83 LIG-0.27  OA
BRANCH 31 34
ATOM     34  CA  SER P   5      20.557  21.503  41.541  1.00 41.35 LIG 0.21  C 
BRANCH 34 35
ATOM     35  CB  SER P   5      21.145  21.850  42.915  1.00 41.35 LIG 0.20  C 
BRANCH 35 36
ATOM     36 OG   SER P   5      20.270  20.969  43.592  1.00 42.37 LIG-0.40  OA
ATOM     37 HG   SER P   5      19.781  21.407  44.116  1.00 42.37 LIG 0.21  HD
ENDBRANCH 35 36
ENDBRANCH 34 35
BRANCH 34 38
ATOM     38  C   SER P   5      21.069  20.575  40.455  1.00 41.28 LIG 0.20  C 
ATOM     39 OXT  SER P   5      22.453  20.539  40.422  1.00 41.68 LIG-0.65  OA
ATOM     40 O    SER P   5      20.375  20.300  39.480  1.00 42.12 LIG-0.65  OA
ENDBRANCH 34 38
ENDBRANCH 31 34
ENDBRANCH 29 30
BRANCH 29 41
ATOM     41  CB  TYR P   4      15.687  22.413  42.340  1.00 37.99 LIG 0.07  C 
BRANCH 41 42
ATOM     42  CG  TYR P   4      15.902  23.809  41.736  1.00 35.75 LIG-0.06  A 
ATOM     43  CD2 TYR P   4      15.991  23.945  40.349  1.00 34.88 LIG 0.01  A 
ATOM     44  CE2 TYR P   4      16.160  25.184  39.757  1.00 35.19 LIG 0.04  A 
ATOM     45  CZ  TYR P   4      16.242  26.310  40.544  1.00 34.95 LIG 0.07  A 
ATOM     46  CE1 TYR P   4      16.169  26.215  41.924  1.00 35.39 LIG 0.04  A 
ATOM     47  CD1 TYR P   4      16.001  24.962  42.515  1.00 35.59 LIG 0.01  A 
BRANCH 45 48
ATOM     48 OH   TYR P   4      16.406  27.546  39.952  1.00 35.19 LIG-0.36  OA
ATOM     49 HH   TYR P   4      16.052  28.136  40.435  1.00 35.19 LIG 0.22  HD
ENDBRANCH 45 48
ENDBRANCH 41 42
ENDBRANCH 29 41
ENDBRANCH 3 29
TORSDOF 19
ENDMDL
MODEL 23
USER: ADFR SOLUTION from run 4
USER: SCORE 17.406076 LL:  -3.830 LR: -15.238 RR:   0.000 FEB:  -9.571
USER: RMSD 10.935299
USER: SEED 948917
USER: STATUS no improvement in best 3 clusters for 5 generations
USER: GENES 21
USER: genes 0 Translation |==|  0.66310 0.57125 0.58793
USER: genes 1 Rotation |==|  0.53450 0.00426 0.47107 0.54705
USER: genes 2 Torsion [N]-C--CA-[N] |==|  0.44436
USER: genes 3 Torsion [C]-CA--N-[C] |==|  0.71786
USER: genes 4 Torsion [N]-C--CA-[N] |==|  0.83437
USER: genes 5 Torsion [C]-CA--N-[C] |==|  0.81927
USER: genes 6 Torsion [N]-C--CA-[N] |==|  0.84508
USER: genes 7 Torsion [C]-CA--N-[H2] |==|  0.82727
USER: genes 8 Torsion [C]-CA--CB-[CG] |==|  0.08004
USER: genes 9 Torsion [CA]-CB--CG-[CD2] |==|  0.71414
USER: genes 10 Torsion [C]-CA--CB-[CG2] |==|  0.17134
USER: genes 11 Torsion [CA]-CB--CG1-[CD1] |==|  0.68107
USER: genes 12 Torsion [C]-N--CA-[CB] |==|  0.50779
USER: genes 13 Torsion [N]-CA--C-[N] |==|  0.88259
USER: genes 14 Torsion [C]-N--CA-[CB] |==|  0.84223
USER: genes 15 Torsion [N]-CA--CB-[OG] |==|  0.30442
USER: genes 16 Torsion [CA]-CB--OG-[HG] |==|  0.89311
USER: genes 17 Torsion [N]-CA--C-[OXT] |==|  0.47179
USER: genes 18 Torsion [N]-CA--CB-[CG] |==|  0.13452
USER: genes 19 Torsion [CA]-CB--CG-[CD2] |==|  0.73464
USER: genes 20 Torsion [CE2]-CZ--OH-[HH] |==|  0.23526
ROOT
ATOM      1  C   ILE P   3      17.393  23.088  43.818  1.00 41.75 LIG 0.24  C 
ATOM      2 O    ILE P   3      17.464  23.976  44.664  1.00 43.02 LIG-0.27  OA
ATOM      3  N   TYR P   4      16.718  23.235  42.690  1.00 40.49 LIG-0.35  N 
ATOM      4 H    TYR P   4      16.709  22.665  42.047  1.00 40.49 LIG 0.16  HD
ENDROOT
BRANCH 1 5
ATOM      5  CA  ILE P   3      18.124  21.755  44.034  1.00 41.79 LIG 0.18  C 
BRANCH 5 6
ATOM      6  N   ILE P   3      19.182  21.899  45.050  1.00 42.70 LIG-0.35  N 
ATOM      7 H    ILE P   3      18.894  21.899  45.859  1.00 42.70 LIG 0.16  HD
ATOM      8  C   ALA P   2      20.470  22.019  44.725  1.00 42.25 LIG 0.24  C 
ATOM      9 O    ALA P   2      20.860  22.027  43.570  1.00 43.48 LIG-0.27  OA
BRANCH 8 10
ATOM     10  CA  ALA P   2      21.486  22.154  45.856  1.00 41.32 LIG 0.17  C 
ATOM     11  CB  ALA P   2      21.422  20.948  46.765  1.00 39.54 LIG 0.04  C 
BRANCH 10 12
ATOM     12  N   ALA P   2      21.133  23.348  46.613  1.00 41.39 LIG-0.35  N 
ATOM     13 H    ALA P   2      20.885  23.194  47.422  1.00 41.39 LIG 0.16  HD
ATOM     14  C   LEU P   1      21.197  24.563  46.079  1.00 41.33 LIG 0.25  C 
ATOM     15 O    LEU P   1      21.576  24.769  44.922  1.00 41.61 LIG-0.27  OA
BRANCH 14 16
ATOM     16  CA  LEU P   1      20.779  25.719  46.988  1.00 40.25 LIG 0.28  C 
BRANCH 16 17
ATOM     17  N   LEU P   1      19.404  25.479  47.496  1.00 40.65 LIG-0.07  N 
ATOM     18 H2   LEU P   1      18.835  25.454  46.812  1.00 40.65 LIG 0.28  HD
ATOM     19 H1   LEU P   1      19.173  26.135  48.051  1.00 40.65 LIG 0.28  HD
ATOM     20 H3   LEU P   1      19.379  24.703  47.930  1.00 40.65 LIG 0.28  HD
ENDBRANCH 16 17
BRANCH 16 21
ATOM     21  CB  LEU P   1      21.753  25.825  48.166  1.00 38.59 LIG 0.05  C 
BRANCH 21 22
ATOM     22  CG  LEU P   1      23.218  25.385  48.046  1.00 36.61 LIG-0.02  C 
ATOM     23  CD2 LEU P   1      23.375  24.036  48.725  1.00 36.34 LIG 0.01  C 
ATOM     24  CD1 LEU P   1      24.156  26.405  48.671  1.00 35.12 LIG 0.01  C 
ENDBRANCH 21 22
ENDBRANCH 16 21
ENDBRANCH 14 16
ENDBRANCH 10 12
ENDBRANCH 8 10
ENDBRANCH 5 6
BRANCH 5 25
ATOM     25  CB  ILE P   3      17.042  20.770  44.490  1.00 41.77 LIG 0.01  C 
ATOM     26  CG2 ILE P   3      16.003  20.632  43.381  1.00 41.93 LIG 0.01  C 
BRANCH 25 27
ATOM     27  CG1 ILE P   3      17.668  19.404  44.797  1.00 42.12 LIG 0.00  C 
ATOM     28  CD1 ILE P   3      17.237  18.277  43.894  1.00 41.36 LIG 0.01  C 
ENDBRANCH 25 27
ENDBRANCH 5 25
ENDBRANCH 1 5
BRANCH 3 29
ATOM     29  CA  TYR P   4      15.923  24.419  42.469  1.00 39.63 LIG 0.18  C 
BRANCH 29 30
ATOM     30  C   TYR P   4      15.042  24.538  43.716  1.00 40.27 LIG 0.24  C 
ATOM     31  N   SER P   5      14.536  23.398  44.126  1.00 40.75 LIG-0.34  N 
ATOM     32 H    SER P   5      14.707  22.647  43.744  1.00 40.75 LIG 0.16  HD
ATOM     33 O    TYR P   4      14.825  25.626  44.235  1.00 40.83 LIG-0.27  OA
BRANCH 31 34
ATOM     34  CA  SER P   5      13.632  23.275  45.270  1.00 41.35 LIG 0.21  C 
BRANCH 34 35
ATOM     35  CB  SER P   5      14.550  23.916  46.320  1.00 41.35 LIG 0.20  C 
BRANCH 35 36
ATOM     36 OG   SER P   5      13.745  25.074  46.421  1.00 42.37 LIG-0.40  OA
ATOM     37 HG   SER P   5      13.458  25.284  45.660  1.00 42.37 LIG 0.21  HD
ENDBRANCH 35 36
ENDBRANCH 34 35
BRANCH 34 38
ATOM     38  C   SER P   5      12.177  23.546  44.936  1.00 41.28 LIG 0.20  C 
ATOM     39 OXT  SER P   5      11.338  23.201  45.981  1.00 41.68 LIG-0.65  OA
ATOM     40 O    SER P   5      11.797  23.599  43.769  1.00 42.12 LIG-0.65  OA
ENDBRANCH 34 38
ENDBRANCH 31 34
ENDBRANCH 29 30
BRANCH 29 41
ATOM     41  CB  TYR P   4      15.160  24.370  41.125  1.00 37.99 LIG 0.07  C 
BRANCH 41 42
ATOM     42  CG  TYR P   4      14.369  23.098  40.783  1.00 35.75 LIG-0.06  A 
ATOM     43  CD2 TYR P   4      14.967  22.118  39.989  1.00 34.88 LIG 0.01  A 
ATOM     44  CE2 TYR P   4      14.304  20.945  39.673  1.00 35.19 LIG 0.04  A 
ATOM     45  CZ  TYR P   4      13.030  20.733  40.148  1.00 34.95 LIG 0.07  A 
ATOM     46  CE1 TYR P   4      12.399  21.687  40.929  1.00 35.39 LIG 0.04  A 
ATOM     47  CD1 TYR P   4      13.073  22.870  41.242  1.00 35.59 LIG 0.01  A 
BRANCH 45 48
ATOM     48 OH   TYR P   4      12.371  19.562  39.837  1.00 35.19 LIG-0.36  OA
ATOM     49 HH   TYR P   4      12.593  18.962  40.382  1.00 35.19 LIG 0.22  HD
ENDBRANCH 45 48
ENDBRANCH 41 42
ENDBRANCH 29 41
ENDBRANCH 3 29
TORSDOF 19
ENDMDL
MODEL 24
USER: ADFR SOLUTION from run 78
USER: SCORE 16.919694 LL:  -3.272 LR: -15.234 RR:   0.000 FEB:  -9.567
USER: RMSD 10.532735
USER: SEED 77
USER: STATUS 1 or 2 clusters left
USER: GENES 21
USER: genes 0 Translation |==|  0.61511 0.56103 0.53818
USER: genes 1 Rotation |==|  0.30376 0.39479 0.94678 0.52839
USER: genes 2 Torsion [N]-C--CA-[N] |==|  0.21111
USER: genes 3 Torsion [C]-CA--N-[C] |==|  0.73068
USER: genes 4 Torsion [N]-C--CA-[N] |==|  0.18366
USER: genes 5 Torsion [C]-CA--N-[C] |==|  0.73410
USER: genes 6 Torsion [N]-C--CA-[N] |==|  0.08423
USER: genes 7 Torsion [C]-CA--N-[H2] |==|  0.82882
USER: genes 8 Torsion [C]-CA--CB-[CG] |==|  0.16788
USER: genes 9 Torsion [CA]-CB--CG-[CD2] |==|  0.67650
USER: genes 10 Torsion [C]-CA--CB-[CG2] |==|  0.35006
USER: genes 11 Torsion [CA]-CB--CG1-[CD1] |==|  0.23410
USER: genes 12 Torsion [C]-N--CA-[CB] |==|  0.87703
USER: genes 13 Torsion [N]-CA--C-[N] |==|  0.96535
USER: genes 14 Torsion [C]-N--CA-[CB] |==|  0.12742
USER: genes 15 Torsion [N]-CA--CB-[OG] |==|  0.48110
USER: genes 16 Torsion [CA]-CB--OG-[HG] |==|  0.08906
USER: genes 17 Torsion [N]-CA--C-[OXT] |==|  0.14751
USER: genes 18 Torsion [N]-CA--CB-[CG] |==|  0.58301
USER: genes 19 Torsion [CA]-CB--CG-[CD2] |==|  0.09422
USER: genes 20 Torsion [CE2]-CZ--OH-[HH] |==|  0.41331
ROOT
ATOM      1  C   ILE P   3      15.953  22.781  42.325  1.00 41.75 LIG 0.24  C 
ATOM      2 O    ILE P   3      16.592  22.135  41.497  1.00 43.02 LIG-0.27  OA
ATOM      3  N   TYR P   4      14.757  22.405  42.748  1.00 40.49 LIG-0.35  N 
ATOM      4 H    TYR P   4      14.317  22.791  43.378  1.00 40.49 LIG 0.16  HD
ENDROOT
BRANCH 1 5
ATOM      5  CA  ILE P   3      16.547  24.060  42.931  1.00 41.79 LIG 0.18  C 
BRANCH 5 6
ATOM      6  N   ILE P   3      17.046  23.810  44.295  1.00 42.70 LIG-0.35  N 
ATOM      7 H    ILE P   3      17.836  23.473  44.322  1.00 42.70 LIG 0.16  HD
ATOM      8  C   ALA P   2      16.323  24.087  45.380  1.00 42.25 LIG 0.24  C 
ATOM      9 O    ALA P   2      15.199  24.557  45.321  1.00 43.48 LIG-0.27  OA
BRANCH 8 10
ATOM     10  CA  ALA P   2      16.939  23.796  46.746  1.00 41.32 LIG 0.17  C 
ATOM     11  CB  ALA P   2      15.931  24.055  47.841  1.00 39.54 LIG 0.04  C 
BRANCH 10 12
ATOM     12  N   ALA P   2      18.073  24.696  46.910  1.00 41.39 LIG-0.35  N 
ATOM     13 H    ALA P   2      17.865  25.477  47.204  1.00 41.39 LIG 0.16  HD
ATOM     14  C   LEU P   1      19.315  24.322  46.623  1.00 41.33 LIG 0.25  C 
ATOM     15 O    LEU P   1      19.599  23.190  46.221  1.00 41.61 LIG-0.27  OA
BRANCH 14 16
ATOM     16  CA  LEU P   1      20.399  25.380  46.828  1.00 40.25 LIG 0.28  C 
BRANCH 16 17
ATOM     17  N   LEU P   1      20.001  26.292  47.930  1.00 40.65 LIG-0.07  N 
ATOM     18 H2   LEU P   1      19.245  26.709  47.712  1.00 40.65 LIG 0.28  HD
ATOM     19 H1   LEU P   1      20.643  26.893  48.066  1.00 40.65 LIG 0.28  HD
ATOM     20 H3   LEU P   1      19.875  25.821  48.674  1.00 40.65 LIG 0.28  HD
ENDBRANCH 16 17
BRANCH 16 21
ATOM     21  CB  LEU P   1      21.725  24.696  47.177  1.00 38.59 LIG 0.05  C 
BRANCH 21 22
ATOM     22  CG  LEU P   1      22.401  23.706  46.219  1.00 36.61 LIG-0.02  C 
ATOM     23  CD2 LEU P   1      22.447  22.343  46.887  1.00 36.34 LIG 0.01  C 
ATOM     24  CD1 LEU P   1      23.803  24.163  45.850  1.00 35.12 LIG 0.01  C 
ENDBRANCH 21 22
ENDBRANCH 16 21
ENDBRANCH 14 16
ENDBRANCH 10 12
ENDBRANCH 8 10
ENDBRANCH 5 6
BRANCH 5 25
ATOM     25  CB  ILE P   3      17.683  24.466  41.986  1.00 41.77 LIG 0.01  C 
ATOM     26  CG2 ILE P   3      17.467  25.912  41.548  1.00 41.93 LIG 0.01  C 
BRANCH 25 27
ATOM     27  CG1 ILE P   3      19.035  24.328  42.696  1.00 42.12 LIG 0.00  C 
ATOM     28  CD1 ILE P   3      19.639  22.947  42.676  1.00 41.36 LIG 0.01  C 
ENDBRANCH 25 27
ENDBRANCH 5 25
ENDBRANCH 1 5
BRANCH 3 29
ATOM     29  CA  TYR P   4      14.098  21.272  42.145  1.00 39.63 LIG 0.18  C 
BRANCH 29 30
ATOM     30  C   TYR P   4      14.715  20.049  42.828  1.00 40.27 LIG 0.24  C 
ATOM     31  N   SER P   5      15.793  20.312  43.530  1.00 40.75 LIG-0.34  N 
ATOM     32 H    SER P   5      16.109  21.108  43.620  1.00 40.75 LIG 0.16  HD
ATOM     33 O    TYR P   4      14.233  18.932  42.680  1.00 40.83 LIG-0.27  OA
BRANCH 31 34
ATOM     34  CA  SER P   5      16.573  19.295  44.233  1.00 41.35 LIG 0.21  C 
BRANCH 34 35
ATOM     35  CB  SER P   5      16.627  18.264  43.098  1.00 41.35 LIG 0.20  C 
BRANCH 35 36
ATOM     36 OG   SER P   5      17.519  17.425  43.805  1.00 42.37 LIG-0.40  OA
ATOM     37 HG   SER P   5      17.368  17.486  44.629  1.00 42.37 LIG 0.21  HD
ENDBRANCH 35 36
ENDBRANCH 34 35
BRANCH 34 38
ATOM     38  C   SER P   5      17.680  19.861  45.104  1.00 41.28 LIG 0.20  C 
ATOM     39 OXT  SER P   5      17.203  20.818  45.982  1.00 41.68 LIG-0.65  OA
ATOM     40 O    SER P   5      18.853  19.820  44.740  1.00 42.12 LIG-0.65  OA
ENDBRANCH 34 38
ENDBRANCH 31 34
ENDBRANCH 29 30
BRANCH 29 41
ATOM     41  CB  TYR P   4      14.203  21.288  40.602  1.00 37.99 LIG 0.07  C 
BRANCH 41 42
ATOM     42  CG  TYR P   4      13.068  20.649  39.787  1.00 35.75 LIG-0.06  A 
ATOM     43  CD2 TYR P   4      11.759  20.725  40.268  1.00 34.88 LIG 0.01  A 
ATOM     44  CE2 TYR P   4      10.700  20.186  39.559  1.00 35.19 LIG 0.04  A 
ATOM     45  CZ  TYR P   4      10.933  19.563  38.355  1.00 34.95 LIG 0.07  A 
ATOM     46  CE1 TYR P   4      12.219  19.458  37.850  1.00 35.39 LIG 0.04  A 
ATOM     47  CD1 TYR P   4      13.283  20.001  38.572  1.00 35.59 LIG 0.01  A 
BRANCH 45 48
ATOM     48 OH   TYR P   4       9.876  19.030  37.646  1.00 35.19 LIG-0.36  OA
ATOM     49 HH   TYR P   4      10.040  19.075  36.823  1.00 35.19 LIG 0.22  HD
ENDBRANCH 45 48
ENDBRANCH 41 42
ENDBRANCH 29 41
ENDBRANCH 3 29
TORSDOF 19
ENDMDL
MODEL 25
USER: ADFR SOLUTION from run 50
USER: SCORE 17.191360 LL:  -3.382 LR: -15.177 RR:   0.000 FEB:  -9.510
USER: RMSD 12.540495
USER: SEED 49
USER: STATUS no improvement in best 2 clusters for 5 generations
USER: GENES 21
USER: genes 0 Translation |==|  0.39226 0.36292 0.29505
USER: genes 1 Rotation |==|  0.14887 0.70287 0.45619 0.78919
USER: genes 2 Torsion [N]-C--CA-[N] |==|  0.09387
USER: genes 3 Torsion [C]-CA--N-[C] |==|  0.60251
USER: genes 4 Torsion [N]-C--CA-[N] |==|  0.44989
USER: genes 5 Torsion [C]-CA--N-[C] |==|  0.53422
USER: genes 6 Torsion [N]-C--CA-[N] |==|  0.11743
USER: genes 7 Torsion [C]-CA--N-[H2] |==|  0.07906
USER: genes 8 Torsion [C]-CA--CB-[CG] |==|  0.20752
USER: genes 9 Torsion [CA]-CB--CG-[CD2] |==|  0.69159
USER: genes 10 Torsion [C]-CA--CB-[CG2] |==|  0.28719
USER: genes 11 Torsion [CA]-CB--CG1-[CD1] |==|  0.42142
USER: genes 12 Torsion [C]-N--CA-[CB] |==|  0.50000
USER: genes 13 Torsion [N]-CA--C-[N] |==|  0.38355
USER: genes 14 Torsion [C]-N--CA-[CB] |==|  0.47251
USER: genes 15 Torsion [N]-CA--CB-[OG] |==|  0.03485
USER: genes 16 Torsion [CA]-CB--OG-[HG] |==|  0.63762
USER: genes 17 Torsion [N]-CA--C-[OXT] |==|  0.24285
USER: genes 18 Torsion [N]-CA--CB-[CG] |==|  0.35547
USER: genes 19 Torsion [CA]-CB--CG-[CD2] |==|  0.66821
USER: genes 20 Torsion [CE2]-CZ--OH-[HH] |==|  0.67542
ROOT
ATOM      1  C   ILE P   3       9.268  16.838  35.031  1.00 41.75 LIG 0.24  C 
ATOM      2 O    ILE P   3       8.336  16.314  34.425  1.00 43.02 LIG-0.27  OA
ATOM      3  N   TYR P   4      10.250  17.471  34.412  1.00 40.49 LIG-0.35  N 
ATOM      4 H    TYR P   4      10.875  17.910  34.807  1.00 40.49 LIG 0.16  HD
ENDROOT
BRANCH 1 5
ATOM      5  CA  ILE P   3       9.310  16.797  36.565  1.00 41.79 LIG 0.18  C 
BRANCH 5 6
ATOM      6  N   ILE P   3       9.896  18.036  37.105  1.00 42.70 LIG-0.35  N 
ATOM      7 H    ILE P   3       9.683  18.745  36.667  1.00 42.70 LIG 0.16  HD
ATOM      8  C   ALA P   2      10.686  18.043  38.179  1.00 42.25 LIG 0.24  C 
ATOM      9 O    ALA P   2      10.985  17.026  38.783  1.00 43.48 LIG-0.27  OA
BRANCH 8 10
ATOM     10  CA  ALA P   2      11.234  19.384  38.659  1.00 41.32 LIG 0.17  C 
ATOM     11  CB  ALA P   2      12.407  19.806  37.805  1.00 39.54 LIG 0.04  C 
BRANCH 10 12
ATOM     12  N   ALA P   2      11.679  19.201  40.035  1.00 41.39 LIG-0.35  N 
ATOM     13 H    ALA P   2      11.724  18.380  40.286  1.00 41.39 LIG 0.16  HD
ATOM     14  C   LEU P   1      11.984  20.230  40.817  1.00 41.33 LIG 0.25  C 
ATOM     15 O    LEU P   1      11.935  21.403  40.434  1.00 41.61 LIG-0.27  OA
BRANCH 14 16
ATOM     16  CA  LEU P   1      12.419  19.885  42.241  1.00 40.25 LIG 0.28  C 
BRANCH 16 17
ATOM     17  N   LEU P   1      13.335  18.717  42.211  1.00 40.65 LIG-0.07  N 
ATOM     18 H2   LEU P   1      13.770  18.700  41.435  1.00 40.65 LIG 0.28  HD
ATOM     19 H1   LEU P   1      12.864  17.967  42.303  1.00 40.65 LIG 0.28  HD
ATOM     20 H3   LEU P   1      13.921  18.781  42.877  1.00 40.65 LIG 0.28  HD
ENDBRANCH 16 17
BRANCH 16 21
ATOM     21  CB  LEU P   1      13.135  21.087  42.866  1.00 38.59 LIG 0.05  C 
BRANCH 21 22
ATOM     22  CG  LEU P   1      12.368  22.327  43.345  1.00 36.61 LIG-0.02  C 
ATOM     23  CD2 LEU P   1      12.705  23.488  42.426  1.00 36.34 LIG 0.01  C 
ATOM     24  CD1 LEU P   1      12.715  22.671  44.784  1.00 35.12 LIG 0.01  C 
ENDBRANCH 21 22
ENDBRANCH 16 21
ENDBRANCH 14 16
ENDBRANCH 10 12
ENDBRANCH 8 10
ENDBRANCH 5 6
BRANCH 5 25
ATOM     25  CB  ILE P   3       7.851  16.631  37.006  1.00 41.77 LIG 0.01  C 
ATOM     26  CG2 ILE P   3       7.626  15.181  37.426  1.00 41.93 LIG 0.01  C 
BRANCH 25 27
ATOM     27  CG1 ILE P   3       7.543  17.571  38.177  1.00 42.12 LIG 0.00  C 
ATOM     28  CD1 ILE P   3       6.109  18.021  38.286  1.00 41.36 LIG 0.01  C 
ENDBRANCH 25 27
ENDBRANCH 5 25
ENDBRANCH 1 5
BRANCH 3 29
ATOM     29  CA  TYR P   4      10.327  17.457  32.971  1.00 39.63 LIG 0.18  C 
BRANCH 29 30
ATOM     30  C   TYR P   4      10.303  15.974  32.591  1.00 40.27 LIG 0.24  C 
ATOM     31  N   SER P   5       9.548  15.698  31.553  1.00 40.75 LIG-0.34  N 
ATOM     32 H    SER P   5       9.126  16.301  31.108  1.00 40.75 LIG 0.16  HD
ATOM     33 O    TYR P   4      10.920  15.144  33.246  1.00 40.83 LIG-0.27  OA
BRANCH 31 34
ATOM     34  CA  SER P   5       9.340  14.345  31.037  1.00 41.35 LIG 0.21  C 
BRANCH 34 35
ATOM     35  CB  SER P   5       8.212  14.678  30.052  1.00 41.35 LIG 0.20  C 
BRANCH 35 36
ATOM     36 OG   SER P   5       8.431  16.071  30.160  1.00 42.37 LIG-0.40  OA
ATOM     37 HG   SER P   5       7.701  16.459  30.306  1.00 42.37 LIG 0.21  HD
ENDBRANCH 35 36
ENDBRANCH 34 35
BRANCH 34 38
ATOM     38  C   SER P   5      10.622  13.558  30.837  1.00 41.28 LIG 0.20  C 
ATOM     39 OXT  SER P   5      11.000  12.892  31.990  1.00 41.68 LIG-0.65  OA
ATOM     40 O    SER P   5      11.421  13.866  29.957  1.00 42.12 LIG-0.65  OA
ENDBRANCH 34 38
ENDBRANCH 31 34
ENDBRANCH 29 30
BRANCH 29 41
ATOM     41  CB  TYR P   4      11.543  18.253  32.443  1.00 37.99 LIG 0.07  C 
BRANCH 41 42
ATOM     42  CG  TYR P   4      12.493  17.561  31.453  1.00 35.75 LIG-0.06  A 
ATOM     43  CD2 TYR P   4      13.835  17.393  31.801  1.00 34.88 LIG 0.01  A 
ATOM     44  CE2 TYR P   4      14.724  16.755  30.954  1.00 35.19 LIG 0.04  A 
ATOM     45  CZ  TYR P   4      14.283  16.272  29.743  1.00 34.95 LIG 0.07  A 
ATOM     46  CE1 TYR P   4      12.962  16.429  29.357  1.00 35.39 LIG 0.04  A 
ATOM     47  CD1 TYR P   4      12.071  17.076  30.216  1.00 35.59 LIG 0.01  A 
BRANCH 45 48
ATOM     48 OH   TYR P   4      15.168  15.632  28.900  1.00 35.19 LIG-0.36  OA
ATOM     49 HH   TYR P   4      15.244  16.070  28.188  1.00 35.19 LIG 0.22  HD
ENDBRANCH 45 48
ENDBRANCH 41 42
ENDBRANCH 29 41
ENDBRANCH 3 29
TORSDOF 19
ENDMDL
MODEL 26
USER: ADFR SOLUTION from run 120
USER: SCORE 17.143232 LL:  -3.121 LR: -15.149 RR:   0.000 FEB:  -9.481
USER: RMSD 12.071461
USER: SEED 119
USER: STATUS no improvement in best 4 clusters for 5 generations
USER: GENES 21
USER: genes 0 Translation |==|  0.69107 0.56418 0.64818
USER: genes 1 Rotation |==|  0.04905 0.61954 0.58888 0.65637
USER: genes 2 Torsion [N]-C--CA-[N] |==|  0.89821
USER: genes 3 Torsion [C]-CA--N-[C] |==|  0.81655
USER: genes 4 Torsion [N]-C--CA-[N] |==|  0.15553
USER: genes 5 Torsion [C]-CA--N-[C] |==|  0.19419
USER: genes 6 Torsion [N]-C--CA-[N] |==|  0.15952
USER: genes 7 Torsion [C]-CA--N-[H2] |==|  0.92967
USER: genes 8 Torsion [C]-CA--CB-[CG] |==|  0.51408
USER: genes 9 Torsion [CA]-CB--CG-[CD2] |==|  0.61770
USER: genes 10 Torsion [C]-CA--CB-[CG2] |==|  0.97490
USER: genes 11 Torsion [CA]-CB--CG1-[CD1] |==|  0.72564
USER: genes 12 Torsion [C]-N--CA-[CB] |==|  0.12393
USER: genes 13 Torsion [N]-CA--C-[N] |==|  0.62454
USER: genes 14 Torsion [C]-N--CA-[CB] |==|  0.39585
USER: genes 15 Torsion [N]-CA--CB-[OG] |==|  0.07837
USER: genes 16 Torsion [CA]-CB--OG-[HG] |==|  0.23286
USER: genes 17 Torsion [N]-CA--C-[OXT] |==|  0.36247
USER: genes 18 Torsion [N]-CA--CB-[CG] |==|  0.70172
USER: genes 19 Torsion [CA]-CB--CG-[CD2] |==|  0.03513
USER: genes 20 Torsion [CE2]-CZ--OH-[HH] |==|  0.33620
ROOT
ATOM      1  C   ILE P   3      18.232  22.875  45.625  1.00 41.75 LIG 0.24  C 
ATOM      2 O    ILE P   3      17.792  21.734  45.737  1.00 43.02 LIG-0.27  OA
ATOM      3  N   TYR P   4      18.328  23.487  44.456  1.00 40.49 LIG-0.35  N 
ATOM      4 H    TYR P   4      18.561  24.308  44.351  1.00 40.49 LIG 0.16  HD
ENDROOT
BRANCH 1 5
ATOM      5  CA  ILE P   3      18.670  23.659  46.870  1.00 41.79 LIG 0.18  C 
BRANCH 5 6
ATOM      6  N   ILE P   3      19.838  24.506  46.571  1.00 42.70 LIG-0.35  N 
ATOM      7 H    ILE P   3      19.680  25.350  46.616  1.00 42.70 LIG 0.16  HD
ATOM      8  C   ALA P   2      21.029  23.993  46.259  1.00 42.25 LIG 0.24  C 
ATOM      9 O    ALA P   2      21.231  22.792  46.190  1.00 43.48 LIG-0.27  OA
BRANCH 8 10
ATOM     10  CA  ALA P   2      22.174  24.961  45.974  1.00 41.32 LIG 0.17  C 
ATOM     11  CB  ALA P   2      23.462  24.199  45.761  1.00 39.54 LIG 0.04  C 
BRANCH 10 12
ATOM     12  N   ALA P   2      22.310  25.825  47.139  1.00 41.39 LIG-0.35  N 
ATOM     13 H    ALA P   2      22.071  26.640  47.004  1.00 41.39 LIG 0.16  HD
ATOM     14  C   LEU P   1      22.767  25.371  48.300  1.00 41.33 LIG 0.25  C 
ATOM     15 O    LEU P   1      23.086  24.193  48.483  1.00 41.61 LIG-0.27  OA
BRANCH 14 16
ATOM     16  CA  LEU P   1      22.871  26.398  49.428  1.00 40.25 LIG 0.28  C 
BRANCH 16 17
ATOM     17  N   LEU P   1      21.539  27.010  49.666  1.00 40.65 LIG-0.07  N 
ATOM     18 H2   LEU P   1      21.051  26.959  48.923  1.00 40.65 LIG 0.28  HD
ATOM     19 H1   LEU P   1      21.640  27.864  49.896  1.00 40.65 LIG 0.28  HD
ATOM     20 H3   LEU P   1      21.125  26.575  50.322  1.00 40.65 LIG 0.28  HD
ENDBRANCH 16 17
BRANCH 16 21
ATOM     21  CB  LEU P   1      23.359  25.711  50.707  1.00 38.59 LIG 0.05  C 
BRANCH 21 22
ATOM     22  CG  LEU P   1      23.454  26.460  52.043  1.00 36.61 LIG-0.02  C 
ATOM     23  CD2 LEU P   1      24.753  26.071  52.724  1.00 36.34 LIG 0.01  C 
ATOM     24  CD1 LEU P   1      22.269  26.144  52.940  1.00 35.12 LIG 0.01  C 
ENDBRANCH 21 22
ENDBRANCH 16 21
ENDBRANCH 14 16
ENDBRANCH 10 12
ENDBRANCH 8 10
ENDBRANCH 5 6
BRANCH 5 25
ATOM     25  CB  ILE P   3      17.453  24.505  47.264  1.00 41.77 LIG 0.01  C 
ATOM     26  CG2 ILE P   3      16.406  24.404  46.158  1.00 41.93 LIG 0.01  C 
BRANCH 25 27
ATOM     27  CG1 ILE P   3      16.868  24.003  48.589  1.00 42.12 LIG 0.00  C 
ATOM     28  CD1 ILE P   3      15.671  23.095  48.465  1.00 41.36 LIG 0.01  C 
ENDBRANCH 25 27
ENDBRANCH 5 25
ENDBRANCH 1 5
BRANCH 3 29
ATOM     29  CA  TYR P   4      18.033  22.773  43.238  1.00 39.63 LIG 0.18  C 
BRANCH 29 30
ATOM     30  C   TYR P   4      18.012  23.848  42.148  1.00 40.27 LIG 0.24  C 
ATOM     31  N   SER P   5      17.002  23.749  41.315  1.00 40.75 LIG-0.34  N 
ATOM     32 H    SER P   5      16.391  23.149  41.392  1.00 40.75 LIG 0.16  HD
ATOM     33 O    TYR P   4      18.899  24.690  42.073  1.00 40.83 LIG-0.27  OA
BRANCH 31 34
ATOM     34  CA  SER P   5      16.801  24.639  40.172  1.00 41.35 LIG 0.21  C 
BRANCH 34 35
ATOM     35  CB  SER P   5      16.263  23.588  39.192  1.00 41.35 LIG 0.20  C 
BRANCH 35 36
ATOM     36 OG   SER P   5      15.731  22.789  40.229  1.00 42.37 LIG-0.40  OA
ATOM     37 HG   SER P   5      14.972  23.078  40.446  1.00 42.37 LIG 0.21  HD
ENDBRANCH 35 36
ENDBRANCH 34 35
BRANCH 34 38
ATOM     38  C   SER P   5      16.260  26.007  40.545  1.00 41.28 LIG 0.20  C 
ATOM     39 OXT  SER P   5      16.998  27.026  39.966  1.00 41.68 LIG-0.65  OA
ATOM     40 O    SER P   5      15.596  26.167  41.565  1.00 42.12 LIG-0.65  OA
ENDBRANCH 34 38
ENDBRANCH 31 34
ENDBRANCH 29 30
BRANCH 29 41
ATOM     41  CB  TYR P   4      16.744  21.926  43.353  1.00 37.99 LIG 0.07  C 
BRANCH 41 42
ATOM     42  CG  TYR P   4      16.880  20.399  43.447  1.00 35.75 LIG-0.06  A 
ATOM     43  CD2 TYR P   4      18.137  19.842  43.692  1.00 34.88 LIG 0.01  A 
ATOM     44  CE2 TYR P   4      18.306  18.473  43.808  1.00 35.19 LIG 0.04  A 
ATOM     45  CZ  TYR P   4      17.219  17.639  43.682  1.00 34.95 LIG 0.07  A 
ATOM     46  CE1 TYR P   4      15.958  18.153  43.428  1.00 35.39 LIG 0.04  A 
ATOM     47  CD1 TYR P   4      15.794  19.535  43.309  1.00 35.59 LIG 0.01  A 
BRANCH 45 48
ATOM     48 OH   TYR P   4      17.388  16.275  43.803  1.00 35.19 LIG-0.36  OA
ATOM     49 HH   TYR P   4      16.910  15.989  44.432  1.00 35.19 LIG 0.22  HD
ENDBRANCH 45 48
ENDBRANCH 41 42
ENDBRANCH 29 41
ENDBRANCH 3 29
TORSDOF 19
ENDMDL
MODEL 27
USER: ADFR SOLUTION from run 117
USER: SCORE 18.944862 LL:  -5.759 LR: -15.137 RR:   0.000 FEB:  -9.469
USER: RMSD 9.846302
USER: SEED 116
USER: STATUS no improvement in best 2 clusters for 5 generations
USER: GENES 21
USER: genes 0 Translation |==|  0.60944 0.63352 0.56123
USER: genes 1 Rotation |==|  0.76723 0.31381 0.65887 0.84450
USER: genes 2 Torsion [N]-C--CA-[N] |==|  0.83983
USER: genes 3 Torsion [C]-CA--N-[C] |==|  0.19983
USER: genes 4 Torsion [N]-C--CA-[N] |==|  0.21297
USER: genes 5 Torsion [C]-CA--N-[C] |==|  0.56341
USER: genes 6 Torsion [N]-C--CA-[N] |==|  0.99522
USER: genes 7 Torsion [C]-CA--N-[H2] |==|  0.23929
USER: genes 8 Torsion [C]-CA--CB-[CG] |==|  0.89223
USER: genes 9 Torsion [CA]-CB--CG-[CD2] |==|  0.63140
USER: genes 10 Torsion [C]-CA--CB-[CG2] |==|  0.13861
USER: genes 11 Torsion [CA]-CB--CG1-[CD1] |==|  0.48202
USER: genes 12 Torsion [C]-N--CA-[CB] |==|  0.24444
USER: genes 13 Torsion [N]-CA--C-[N] |==|  0.94684
USER: genes 14 Torsion [C]-N--CA-[CB] |==|  0.38281
USER: genes 15 Torsion [N]-CA--CB-[OG] |==|  0.66664
USER: genes 16 Torsion [CA]-CB--OG-[HG] |==|  0.73738
USER: genes 17 Torsion [N]-CA--C-[OXT] |==|  0.63230
USER: genes 18 Torsion [N]-CA--CB-[CG] |==|  0.09959
USER: genes 19 Torsion [CA]-CB--CG-[CD2] |==|  0.17682
USER: genes 20 Torsion [CE2]-CZ--OH-[HH] |==|  0.10367
ROOT
ATOM      1  C   ILE P   3      15.783  24.956  43.017  1.00 41.75 LIG 0.24  C 
ATOM      2 O    ILE P   3      15.074  25.903  43.348  1.00 43.02 LIG-0.27  OA
ATOM      3  N   TYR P   4      15.720  23.779  43.618  1.00 40.49 LIG-0.35  N 
ATOM      4 H    TYR P   4      16.147  23.077  43.365  1.00 40.49 LIG 0.16  HD
ENDROOT
BRANCH 1 5
ATOM      5  CA  ILE P   3      16.769  25.101  41.850  1.00 41.79 LIG 0.18  C 
BRANCH 5 6
ATOM      6  N   ILE P   3      18.142  24.783  42.282  1.00 42.70 LIG-0.35  N 
ATOM      7 H    ILE P   3      18.658  25.468  42.341  1.00 42.70 LIG 0.16  HD
ATOM      8  C   ALA P   2      18.533  23.538  42.555  1.00 42.25 LIG 0.24  C 
ATOM      9 O    ALA P   2      17.788  22.578  42.457  1.00 43.48 LIG-0.27  OA
BRANCH 8 10
ATOM     10  CA  ALA P   2      19.975  23.321  43.004  1.00 41.32 LIG 0.17  C 
ATOM     11  CB  ALA P   2      20.343  21.860  42.895  1.00 39.54 LIG 0.04  C 
BRANCH 10 12
ATOM     12  N   ALA P   2      20.063  23.740  44.397  1.00 41.39 LIG-0.35  N 
ATOM     13 H    ALA P   2      19.312  23.731  44.816  1.00 41.39 LIG 0.16  HD
ATOM     14  C   LEU P   1      21.215  24.100  44.951  1.00 41.33 LIG 0.25  C 
ATOM     15 O    LEU P   1      22.287  24.086  44.340  1.00 41.61 LIG-0.27  OA
BRANCH 14 16
ATOM     16  CA  LEU P   1      21.148  24.531  46.416  1.00 40.25 LIG 0.28  C 
BRANCH 16 17
ATOM     17  N   LEU P   1      19.740  24.482  46.885  1.00 40.65 LIG-0.07  N 
ATOM     18 H2   LEU P   1      19.549  23.659  47.167  1.00 40.65 LIG 0.28  HD
ATOM     19 H1   LEU P   1      19.196  24.699  46.215  1.00 40.65 LIG 0.28  HD
ATOM     20 H3   LEU P   1      19.629  25.057  47.555  1.00 40.65 LIG 0.28  HD
ENDBRANCH 16 17
BRANCH 16 21
ATOM     21  CB  LEU P   1      22.009  23.593  47.268  1.00 38.59 LIG 0.05  C 
BRANCH 21 22
ATOM     22  CG  LEU P   1      22.069  22.084  47.000  1.00 36.61 LIG-0.02  C 
ATOM     23  CD2 LEU P   1      21.896  21.351  48.319  1.00 36.34 LIG 0.01  C 
ATOM     24  CD1 LEU P   1      23.383  21.690  46.344  1.00 35.12 LIG 0.01  C 
ENDBRANCH 21 22
ENDBRANCH 16 21
ENDBRANCH 14 16
ENDBRANCH 10 12
ENDBRANCH 8 10
ENDBRANCH 5 6
BRANCH 5 25
ATOM     25  CB  ILE P   3      16.279  24.117  40.782  1.00 41.77 LIG 0.01  C 
ATOM     26  CG2 ILE P   3      14.785  24.338  40.558  1.00 41.93 LIG 0.01  C 
BRANCH 25 27
ATOM     27  CG1 ILE P   3      17.045  24.335  39.471  1.00 42.12 LIG 0.00  C 
ATOM     28  CD1 ILE P   3      16.765  23.330  38.383  1.00 41.36 LIG 0.01  C 
ENDBRANCH 25 27
ENDBRANCH 5 25
ENDBRANCH 1 5
BRANCH 3 29
ATOM     29  CA  TYR P   4      14.892  23.605  44.787  1.00 39.63 LIG 0.18  C 
BRANCH 29 30
ATOM     30  C   TYR P   4      15.644  22.589  45.652  1.00 40.27 LIG 0.24  C 
ATOM     31  N   SER P   5      16.536  21.882  44.998  1.00 40.75 LIG-0.34  N 
ATOM     32 H    SER P   5      16.702  21.998  44.162  1.00 40.75 LIG 0.16  HD
ATOM     33 O    TYR P   4      15.382  22.455  46.841  1.00 40.83 LIG-0.27  OA
BRANCH 31 34
ATOM     34  CA  SER P   5      17.342  20.825  45.609  1.00 41.35 LIG 0.21  C 
BRANCH 34 35
ATOM     35  CB  SER P   5      17.239  19.808  44.464  1.00 41.35 LIG 0.20  C 
BRANCH 35 36
ATOM     36 OG   SER P   5      16.627  18.835  45.287  1.00 42.37 LIG-0.40  OA
ATOM     37 HG   SER P   5      17.213  18.316  45.592  1.00 42.37 LIG 0.21  HD
ENDBRANCH 35 36
ENDBRANCH 34 35
BRANCH 34 38
ATOM     38  C   SER P   5      18.552  21.336  46.368  1.00 41.28 LIG 0.20  C 
ATOM     39 OXT  SER P   5      19.699  20.634  46.037  1.00 41.68 LIG-0.65  OA
ATOM     40 O    SER P   5      18.424  21.931  47.435  1.00 42.12 LIG-0.65  OA
ENDBRANCH 34 38
ENDBRANCH 31 34
ENDBRANCH 29 30
BRANCH 29 41
ATOM     41  CB  TYR P   4      13.441  23.214  44.423  1.00 37.99 LIG 0.07  C 
BRANCH 41 42
ATOM     42  CG  TYR P   4      13.215  22.294  43.214  1.00 35.75 LIG-0.06  A 
ATOM     43  CD2 TYR P   4      13.721  20.993  43.245  1.00 34.88 LIG 0.01  A 
ATOM     44  CE2 TYR P   4      13.522  20.119  42.191  1.00 35.19 LIG 0.04  A 
ATOM     45  CZ  TYR P   4      12.813  20.533  41.087  1.00 34.95 LIG 0.07  A 
ATOM     46  CE1 TYR P   4      12.305  21.820  41.014  1.00 35.39 LIG 0.04  A 
ATOM     47  CD1 TYR P   4      12.511  22.697  42.080  1.00 35.59 LIG 0.01  A 
BRANCH 45 48
ATOM     48 OH   TYR P   4      12.611  19.659  40.038  1.00 35.19 LIG-0.36  OA
ATOM     49 HH   TYR P   4      12.485  18.885  40.339  1.00 35.19 LIG 0.22  HD
ENDBRANCH 45 48
ENDBRANCH 41 42
ENDBRANCH 29 41
ENDBRANCH 3 29
TORSDOF 19
ENDMDL
MODEL 28
USER: ADFR SOLUTION from run 79
USER: SCORE 17.409933 LL:  -4.778 LR: -15.103 RR:   0.000 FEB:  -9.435
USER: RMSD 8.906744
USER: SEED 78
USER: STATUS no improvement in best 3 clusters for 5 generations
USER: GENES 21
USER: genes 0 Translation |==|  0.60372 0.51327 0.56274
USER: genes 1 Rotation |==|  0.33518 0.65033 0.80909 0.82358
USER: genes 2 Torsion [N]-C--CA-[N] |==|  0.94702
USER: genes 3 Torsion [C]-CA--N-[C] |==|  0.62005
USER: genes 4 Torsion [N]-C--CA-[N] |==|  0.11667
USER: genes 5 Torsion [C]-CA--N-[C] |==|  0.52866
USER: genes 6 Torsion [N]-C--CA-[N] |==|  0.84444
USER: genes 7 Torsion [C]-CA--N-[H2] |==|  0.23025
USER: genes 8 Torsion [C]-CA--CB-[CG] |==|  0.82831
USER: genes 9 Torsion [CA]-CB--CG-[CD2] |==|  0.65471
USER: genes 10 Torsion [C]-CA--CB-[CG2] |==|  0.33465
USER: genes 11 Torsion [CA]-CB--CG1-[CD1] |==|  0.21240
USER: genes 12 Torsion [C]-N--CA-[CB] |==|  0.39951
USER: genes 13 Torsion [N]-CA--C-[N] |==|  0.92138
USER: genes 14 Torsion [C]-N--CA-[CB] |==|  0.35629
USER: genes 15 Torsion [N]-CA--CB-[OG] |==|  0.86397
USER: genes 16 Torsion [CA]-CB--OG-[HG] |==|  0.73274
USER: genes 17 Torsion [N]-CA--C-[OXT] |==|  0.07583
USER: genes 18 Torsion [N]-CA--CB-[CG] |==|  0.94447
USER: genes 19 Torsion [CA]-CB--CG-[CD2] |==|  0.76995
USER: genes 20 Torsion [CE2]-CZ--OH-[HH] |==|  0.60634
ROOT
ATOM      1  C   ILE P   3      15.612  21.348  43.062  1.00 41.75 LIG 0.24  C 
ATOM      2 O    ILE P   3      14.651  20.739  42.597  1.00 43.02 LIG-0.27  OA
ATOM      3  N   TYR P   4      15.527  22.606  43.463  1.00 40.49 LIG-0.35  N 
ATOM      4 H    TYR P   4      16.156  23.037  43.860  1.00 40.49 LIG 0.16  HD
ENDROOT
BRANCH 1 5
ATOM      5  CA  ILE P   3      16.967  20.646  43.223  1.00 41.79 LIG 0.18  C 
BRANCH 5 6
ATOM      6  N   ILE P   3      18.051  21.632  43.381  1.00 42.70 LIG-0.35  N 
ATOM      7 H    ILE P   3      17.859  22.281  43.911  1.00 42.70 LIG 0.16  HD
ATOM      8  C   ALA P   2      19.220  21.513  42.751  1.00 42.25 LIG 0.24  C 
ATOM      9 O    ALA P   2      19.469  20.590  41.995  1.00 43.48 LIG-0.27  OA
BRANCH 8 10
ATOM     10  CA  ALA P   2      20.277  22.587  42.992  1.00 41.32 LIG 0.17  C 
ATOM     11  CB  ALA P   2      21.643  22.075  42.598  1.00 39.54 LIG 0.04  C 
BRANCH 10 12
ATOM     12  N   ALA P   2      20.267  22.891  44.417  1.00 41.39 LIG-0.35  N 
ATOM     13 H    ALA P   2      19.800  22.347  44.892  1.00 41.39 LIG 0.16  HD
ATOM     14  C   LEU P   1      20.930  23.927  44.919  1.00 41.33 LIG 0.25  C 
ATOM     15 O    LEU P   1      21.614  24.686  44.227  1.00 41.61 LIG-0.27  OA
BRANCH 14 16
ATOM     16  CA  LEU P   1      20.813  24.131  46.430  1.00 40.25 LIG 0.28  C 
BRANCH 16 17
ATOM     17  N   LEU P   1      19.380  24.244  46.805  1.00 40.65 LIG-0.07  N 
ATOM     18 H2   LEU P   1      19.030  23.430  46.889  1.00 40.65 LIG 0.28  HD
ATOM     19 H1   LEU P   1      18.941  24.692  46.173  1.00 40.65 LIG 0.28  HD
ATOM     20 H3   LEU P   1      19.309  24.678  47.578  1.00 40.65 LIG 0.28  HD
ENDBRANCH 16 17
BRANCH 16 21
ATOM     21  CB  LEU P   1      21.445  22.942  47.161  1.00 38.59 LIG 0.05  C 
BRANCH 21 22
ATOM     22  CG  LEU P   1      20.908  21.514  46.999  1.00 36.61 LIG-0.02  C 
ATOM     23  CD2 LEU P   1      20.574  20.965  48.375  1.00 36.34 LIG 0.01  C 
ATOM     24  CD1 LEU P   1      21.918  20.618  46.302  1.00 35.12 LIG 0.01  C 
ENDBRANCH 21 22
ENDBRANCH 16 21
ENDBRANCH 14 16
ENDBRANCH 10 12
ENDBRANCH 8 10
ENDBRANCH 5 6
BRANCH 5 25
ATOM     25  CB  ILE P   3      16.822  19.769  44.472  1.00 41.77 LIG 0.01  C 
ATOM     26  CG2 ILE P   3      17.062  18.313  44.081  1.00 41.93 LIG 0.01  C 
BRANCH 25 27
ATOM     27  CG1 ILE P   3      17.835  20.199  45.539  1.00 42.12 LIG 0.00  C 
ATOM     28  CD1 ILE P   3      17.488  21.459  46.290  1.00 41.36 LIG 0.01  C 
ENDBRANCH 25 27
ENDBRANCH 5 25
ENDBRANCH 1 5
BRANCH 3 29
ATOM     29  CA  TYR P   4      14.313  23.356  43.245  1.00 39.63 LIG 0.18  C 
BRANCH 29 30
ATOM     30  C   TYR P   4      14.504  24.022  41.879  1.00 40.27 LIG 0.24  C 
ATOM     31  N   SER P   5      15.757  24.261  41.568  1.00 40.75 LIG-0.34  N 
ATOM     32 H    SER P   5      16.415  24.038  42.076  1.00 40.75 LIG 0.16  HD
ATOM     33 O    TYR P   4      13.542  24.320  41.182  1.00 40.83 LIG-0.27  OA
BRANCH 31 34
ATOM     34  CA  SER P   5      16.175  24.927  40.335  1.00 41.35 LIG 0.21  C 
BRANCH 34 35
ATOM     35  CB  SER P   5      17.068  25.996  40.977  1.00 41.35 LIG 0.20  C 
BRANCH 35 36
ATOM     36 OG   SER P   5      16.077  26.362  41.917  1.00 42.37 LIG-0.40  OA
ATOM     37 HG   SER P   5      15.653  27.029  41.633  1.00 42.37 LIG 0.21  HD
ENDBRANCH 35 36
ENDBRANCH 34 35
BRANCH 34 38
ATOM     38  C   SER P   5      16.449  23.975  39.184  1.00 41.28 LIG 0.20  C 
ATOM     39 OXT  SER P   5      15.712  22.809  39.297  1.00 41.68 LIG-0.65  OA
ATOM     40 O    SER P   5      17.498  24.038  38.549  1.00 42.12 LIG-0.65  OA
ENDBRANCH 34 38
ENDBRANCH 31 34
ENDBRANCH 29 30
BRANCH 29 41
ATOM     41  CB  TYR P   4      14.006  24.323  44.412  1.00 37.99 LIG 0.07  C 
BRANCH 41 42
ATOM     42  CG  TYR P   4      14.669  24.058  45.772  1.00 35.75 LIG-0.06  A 
ATOM     43  CD2 TYR P   4      14.092  23.129  46.641  1.00 34.88 LIG 0.01  A 
ATOM     44  CE2 TYR P   4      14.665  22.839  47.866  1.00 35.19 LIG 0.04  A 
ATOM     45  CZ  TYR P   4      15.826  23.473  48.243  1.00 34.95 LIG 0.07  A 
ATOM     46  CE1 TYR P   4      16.423  24.409  47.414  1.00 35.39 LIG 0.04  A 
ATOM     47  CD1 TYR P   4      15.838  24.700  46.179  1.00 35.59 LIG 0.01  A 
BRANCH 45 48
ATOM     48 OH   TYR P   4      16.400  23.179  49.463  1.00 35.19 LIG-0.36  OA
ATOM     49 HH   TYR P   4      16.710  23.882  49.803  1.00 35.19 LIG 0.22  HD
ENDBRANCH 45 48
ENDBRANCH 41 42
ENDBRANCH 29 41
ENDBRANCH 3 29
TORSDOF 19
ENDMDL
MODEL 29
USER: ADFR SOLUTION from run 113
USER: SCORE 17.594412 LL:  -4.022 LR: -15.092 RR:   0.000 FEB:  -9.425
USER: RMSD 10.979601
USER: SEED 112
USER: STATUS no improvement in best 3 clusters for 5 generations
USER: GENES 21
USER: genes 0 Translation |==|  0.63395 0.52225 0.57744
USER: genes 1 Rotation |==|  0.28143 0.21779 0.83451 0.60339
USER: genes 2 Torsion [N]-C--CA-[N] |==|  0.48045
USER: genes 3 Torsion [C]-CA--N-[C] |==|  0.64315
USER: genes 4 Torsion [N]-C--CA-[N] |==|  0.21137
USER: genes 5 Torsion [C]-CA--N-[C] |==|  0.70711
USER: genes 6 Torsion [N]-C--CA-[N] |==|  0.82347
USER: genes 7 Torsion [C]-CA--N-[H2] |==|  0.50311
USER: genes 8 Torsion [C]-CA--CB-[CG] |==|  0.16998
USER: genes 9 Torsion [CA]-CB--CG-[CD2] |==|  0.03090
USER: genes 10 Torsion [C]-CA--CB-[CG2] |==|  0.50859
USER: genes 11 Torsion [CA]-CB--CG1-[CD1] |==|  0.40164
USER: genes 12 Torsion [C]-N--CA-[CB] |==|  0.48333
USER: genes 13 Torsion [N]-CA--C-[N] |==|  0.36900
USER: genes 14 Torsion [C]-N--CA-[CB] |==|  0.18558
USER: genes 15 Torsion [N]-CA--CB-[OG] |==|  0.17740
USER: genes 16 Torsion [CA]-CB--OG-[HG] |==|  0.74844
USER: genes 17 Torsion [N]-CA--C-[OXT] |==|  0.02434
USER: genes 18 Torsion [N]-CA--CB-[CG] |==|  0.48539
USER: genes 19 Torsion [CA]-CB--CG-[CD2] |==|  0.56844
USER: genes 20 Torsion [CE2]-CZ--OH-[HH] |==|  0.59064
ROOT
ATOM      1  C   ILE P   3      16.519  21.617  43.503  1.00 41.75 LIG 0.24  C 
ATOM      2 O    ILE P   3      17.368  21.740  42.624  1.00 43.02 LIG-0.27  OA
ATOM      3  N   TYR P   4      15.286  21.211  43.246  1.00 40.49 LIG-0.35  N 
ATOM      4 H    TYR P   4      14.691  21.044  43.844  1.00 40.49 LIG 0.16  HD
ENDROOT
BRANCH 1 5
ATOM      5  CA  ILE P   3      16.874  21.913  44.967  1.00 41.79 LIG 0.18  C 
BRANCH 5 6
ATOM      6  N   ILE P   3      18.314  22.190  45.109  1.00 42.70 LIG-0.35  N 
ATOM      7 H    ILE P   3      18.611  22.788  44.568  1.00 42.70 LIG 0.16  HD
ATOM      8  C   ALA P   2      19.076  21.561  46.004  1.00 42.25 LIG 0.24  C 
ATOM      9 O    ALA P   2      18.638  20.707  46.757  1.00 43.48 LIG-0.27  OA
BRANCH 8 10
ATOM     10  CA  ALA P   2      20.555  21.929  46.073  1.00 41.32 LIG 0.17  C 
ATOM     11  CB  ALA P   2      21.319  20.886  46.854  1.00 39.54 LIG 0.04  C 
BRANCH 10 12
ATOM     12  N   ALA P   2      20.650  23.212  46.758  1.00 41.39 LIG-0.35  N 
ATOM     13 H    ALA P   2      20.523  23.168  47.608  1.00 41.39 LIG 0.16  HD
ATOM     14  C   LEU P   1      20.909  24.339  46.107  1.00 41.33 LIG 0.25  C 
ATOM     15 O    LEU P   1      21.109  24.381  44.889  1.00 41.61 LIG-0.27  OA
BRANCH 14 16
ATOM     16  CA  LEU P   1      20.960  25.609  46.957  1.00 40.25 LIG 0.28  C 
BRANCH 16 17
ATOM     17  N   LEU P   1      19.624  25.860  47.555  1.00 40.65 LIG-0.07  N 
ATOM     18 H2   LEU P   1      19.650  26.608  48.036  1.00 40.65 LIG 0.28  HD
ATOM     19 H1   LEU P   1      19.401  25.177  48.080  1.00 40.65 LIG 0.28  HD
ATOM     20 H3   LEU P   1      19.020  25.945  46.907  1.00 40.65 LIG 0.28  HD
ENDBRANCH 16 17
BRANCH 16 21
ATOM     21  CB  LEU P   1      22.001  25.443  48.068  1.00 38.59 LIG 0.05  C 
BRANCH 21 22
ATOM     22  CG  LEU P   1      23.485  25.206  47.758  1.00 36.61 LIG-0.02  C 
ATOM     23  CD2 LEU P   1      23.715  25.450  46.277  1.00 36.34 LIG 0.01  C 
ATOM     24  CD1 LEU P   1      23.911  23.796  48.135  1.00 35.12 LIG 0.01  C 
ENDBRANCH 21 22
ENDBRANCH 16 21
ENDBRANCH 14 16
ENDBRANCH 10 12
ENDBRANCH 8 10
ENDBRANCH 5 6
BRANCH 5 25
ATOM     25  CB  ILE P   3      16.030  23.134  45.349  1.00 41.77 LIG 0.01  C 
ATOM     26  CG2 ILE P   3      16.380  23.547  46.776  1.00 41.93 LIG 0.01  C 
BRANCH 25 27
ATOM     27  CG1 ILE P   3      16.309  24.292  44.383  1.00 42.12 LIG 0.00  C 
ATOM     28  CD1 ILE P   3      15.123  25.162  44.055  1.00 41.36 LIG 0.01  C 
ENDBRANCH 25 27
ENDBRANCH 5 25
ENDBRANCH 1 5
BRANCH 3 29
ATOM     29  CA  TYR P   4      14.856  21.017  41.882  1.00 39.63 LIG 0.18  C 
BRANCH 29 30
ATOM     30  C   TYR P   4      15.010  22.390  41.223  1.00 40.27 LIG 0.24  C 
ATOM     31  N   SER P   5      15.614  22.361  40.058  1.00 40.75 LIG-0.34  N 
ATOM     32 H    SER P   5      15.876  21.632  39.685  1.00 40.75 LIG 0.16  HD
ATOM     33 O    TYR P   4      14.621  23.407  41.783  1.00 40.83 LIG-0.27  OA
BRANCH 31 34
ATOM     34  CA  SER P   5      15.909  23.556  39.266  1.00 41.35 LIG 0.21  C 
BRANCH 34 35
ATOM     35  CB  SER P   5      16.937  24.179  40.219  1.00 41.35 LIG 0.20  C 
BRANCH 35 36
ATOM     36 OG   SER P   5      17.844  23.105  40.060  1.00 42.37 LIG-0.40  OA
ATOM     37 HG   SER P   5      17.691  22.520  40.643  1.00 42.37 LIG 0.21  HD
ENDBRANCH 35 36
ENDBRANCH 34 35
BRANCH 34 38
ATOM     38  C   SER P   5      15.978  23.301  37.771  1.00 41.28 LIG 0.20  C 
ATOM     39 OXT  SER P   5      15.555  22.023  37.449  1.00 41.68 LIG-0.65  OA
ATOM     40 O    SER P   5      16.736  23.950  37.055  1.00 42.12 LIG-0.65  OA
ENDBRANCH 34 38
ENDBRANCH 31 34
ENDBRANCH 29 30
BRANCH 29 41
ATOM     41  CB  TYR P   4      13.440  20.401  41.798  1.00 37.99 LIG 0.07  C 
BRANCH 41 42
ATOM     42  CG  TYR P   4      12.793  20.247  40.414  1.00 35.75 LIG-0.06  A 
ATOM     43  CD2 TYR P   4      11.401  20.201  40.314  1.00 34.88 LIG 0.01  A 
ATOM     44  CE2 TYR P   4      10.770  20.088  39.088  1.00 35.19 LIG 0.04  A 
ATOM     45  CZ  TYR P   4      11.523  20.021  37.938  1.00 34.95 LIG 0.07  A 
ATOM     46  CE1 TYR P   4      12.908  20.053  37.996  1.00 35.39 LIG 0.04  A 
ATOM     47  CD1 TYR P   4      13.537  20.164  39.238  1.00 35.59 LIG 0.01  A 
BRANCH 45 48
ATOM     48 OH   TYR P   4      10.895  19.913  36.715  1.00 35.19 LIG-0.36  OA
ATOM     49 HH   TYR P   4      11.371  19.458  36.194  1.00 35.19 LIG 0.22  HD
ENDBRANCH 45 48
ENDBRANCH 41 42
ENDBRANCH 29 41
ENDBRANCH 3 29
TORSDOF 19
ENDMDL
MODEL 30
USER: ADFR SOLUTION from run 96
USER: SCORE 18.188751 LL:  -4.264 LR: -15.076 RR:   0.000 FEB:  -9.409
USER: RMSD 9.284441
USER: SEED 95
USER: STATUS no improvement in best 2 clusters for 5 generations
USER: GENES 21
USER: genes 0 Translation |==|  0.58625 0.59539 0.54762
USER: genes 1 Rotation |==|  0.43101 0.70082 0.95151 0.53239
USER: genes 2 Torsion [N]-C--CA-[N] |==|  0.35386
USER: genes 3 Torsion [C]-CA--N-[C] |==|  0.83918
USER: genes 4 Torsion [N]-C--CA-[N] |==|  0.56935
USER: genes 5 Torsion [C]-CA--N-[C] |==|  0.66818
USER: genes 6 Torsion [N]-C--CA-[N] |==|  0.77627
USER: genes 7 Torsion [C]-CA--N-[H2] |==|  0.94814
USER: genes 8 Torsion [C]-CA--CB-[CG] |==|  0.76242
USER: genes 9 Torsion [CA]-CB--CG-[CD2] |==|  0.66692
USER: genes 10 Torsion [C]-CA--CB-[CG2] |==|  0.35745
USER: genes 11 Torsion [CA]-CB--CG1-[CD1] |==|  0.62101
USER: genes 12 Torsion [C]-N--CA-[CB] |==|  0.79799
USER: genes 13 Torsion [N]-CA--C-[N] |==|  0.20830
USER: genes 14 Torsion [C]-N--CA-[CB] |==|  0.32160
USER: genes 15 Torsion [N]-CA--CB-[OG] |==|  0.14650
USER: genes 16 Torsion [CA]-CB--OG-[HG] |==|  0.57101
USER: genes 17 Torsion [N]-CA--C-[OXT] |==|  0.55083
USER: genes 18 Torsion [N]-CA--CB-[CG] |==|  0.15385
USER: genes 19 Torsion [CA]-CB--CG-[CD2] |==|  0.73547
USER: genes 20 Torsion [CE2]-CZ--OH-[HH] |==|  0.56561
ROOT
ATOM      1  C   ILE P   3      15.087  23.812  42.609  1.00 41.75 LIG 0.24  C 
ATOM      2 O    ILE P   3      15.060  22.604  42.833  1.00 43.02 LIG-0.27  OA
ATOM      3  N   TYR P   4      14.409  24.684  43.336  1.00 40.49 LIG-0.35  N 
ATOM      4 H    TYR P   4      14.464  25.538  43.254  1.00 40.49 LIG 0.16  HD
ENDROOT
BRANCH 1 5
ATOM      5  CA  ILE P   3      15.951  24.365  41.466  1.00 41.79 LIG 0.18  C 
BRANCH 5 6
ATOM      6  N   ILE P   3      17.333  23.865  41.567  1.00 42.70 LIG-0.35  N 
ATOM      7 H    ILE P   3      17.603  23.437  40.872  1.00 42.70 LIG 0.16  HD
ATOM      8  C   ALA P   2      18.087  24.067  42.648  1.00 42.25 LIG 0.24  C 
ATOM      9 O    ALA P   2      17.684  24.669  43.629  1.00 43.48 LIG-0.27  OA
BRANCH 8 10
ATOM     10  CA  ALA P   2      19.509  23.513  42.645  1.00 41.32 LIG 0.17  C 
ATOM     11  CB  ALA P   2      19.554  22.189  41.916  1.00 39.54 LIG 0.04  C 
BRANCH 10 12
ATOM     12  N   ALA P   2      19.898  23.313  44.035  1.00 41.39 LIG-0.35  N 
ATOM     13 H    ALA P   2      19.401  22.759  44.465  1.00 41.39 LIG 0.16  HD
ATOM     14  C   LEU P   1      20.937  23.943  44.571  1.00 41.33 LIG 0.25  C 
ATOM     15 O    LEU P   1      21.654  24.720  43.933  1.00 41.61 LIG-0.27  OA
BRANCH 14 16
ATOM     16  CA  LEU P   1      21.214  23.647  46.045  1.00 40.25 LIG 0.28  C 
BRANCH 16 17
ATOM     17  N   LEU P   1      20.300  24.454  46.894  1.00 40.65 LIG-0.07  N 
ATOM     18 H2   LEU P   1      19.972  25.131  46.417  1.00 40.65 LIG 0.28  HD
ATOM     19 H1   LEU P   1      20.748  24.774  47.593  1.00 40.65 LIG 0.28  HD
ATOM     20 H3   LEU P   1      19.631  23.942  47.180  1.00 40.65 LIG 0.28  HD
ENDBRANCH 16 17
BRANCH 16 21
ATOM     21  CB  LEU P   1      20.993  22.157  46.321  1.00 38.59 LIG 0.05  C 
BRANCH 21 22
ATOM     22  CG  LEU P   1      19.604  21.592  46.651  1.00 36.61 LIG-0.02  C 
ATOM     23  CD2 LEU P   1      19.658  20.950  48.025  1.00 36.34 LIG 0.01  C 
ATOM     24  CD1 LEU P   1      19.157  20.579  45.609  1.00 35.12 LIG 0.01  C 
ENDBRANCH 21 22
ENDBRANCH 16 21
ENDBRANCH 14 16
ENDBRANCH 10 12
ENDBRANCH 8 10
ENDBRANCH 5 6
BRANCH 5 25
ATOM     25  CB  ILE P   3      15.275  23.883  40.178  1.00 41.77 LIG 0.01  C 
ATOM     26  CG2 ILE P   3      15.065  25.080  39.255  1.00 41.93 LIG 0.01  C 
BRANCH 25 27
ATOM     27  CG1 ILE P   3      16.149  22.831  39.485  1.00 42.12 LIG 0.00  C 
ATOM     28  CD1 ILE P   3      16.282  22.982  37.991  1.00 41.36 LIG 0.01  C 
ENDBRANCH 25 27
ENDBRANCH 5 25
ENDBRANCH 1 5
BRANCH 3 29
ATOM     29  CA  TYR P   4      13.498  24.224  44.356  1.00 39.63 LIG 0.18  C 
BRANCH 29 30
ATOM     30  C   TYR P   4      14.328  23.276  45.226  1.00 40.27 LIG 0.24  C 
ATOM     31  N   SER P   5      15.174  23.883  46.026  1.00 40.75 LIG-0.34  N 
ATOM     32 H    SER P   5      15.236  24.740  46.076  1.00 40.75 LIG 0.16  HD
ATOM     33 O    TYR P   4      14.208  22.061  45.129  1.00 40.83 LIG-0.27  OA
BRANCH 31 34
ATOM     34  CA  SER P   5      16.099  23.181  46.915  1.00 41.35 LIG 0.21  C 
BRANCH 34 35
ATOM     35  CB  SER P   5      17.404  23.654  46.262  1.00 41.35 LIG 0.20  C 
BRANCH 35 36
ATOM     36 OG   SER P   5      17.035  25.017  46.343  1.00 42.37 LIG-0.40  OA
ATOM     37 HG   SER P   5      17.433  25.451  45.744  1.00 42.37 LIG 0.21  HD
ENDBRANCH 35 36
ENDBRANCH 34 35
BRANCH 34 38
ATOM     38  C   SER P   5      15.669  23.179  48.371  1.00 41.28 LIG 0.20  C 
ATOM     39 OXT  SER P   5      16.725  22.881  49.216  1.00 41.68 LIG-0.65  OA
ATOM     40 O    SER P   5      14.496  22.993  48.683  1.00 42.12 LIG-0.65  OA
ENDBRANCH 34 38
ENDBRANCH 31 34
ENDBRANCH 29 30
BRANCH 29 41
ATOM     41  CB  TYR P   4      12.211  23.611  43.757  1.00 37.99 LIG 0.07  C 
BRANCH 41 42
ATOM     42  CG  TYR P   4      12.352  22.461  42.749  1.00 35.75 LIG-0.06  A 
ATOM     43  CD2 TYR P   4      12.345  22.748  41.382  1.00 34.88 LIG 0.01  A 
ATOM     44  CE2 TYR P   4      12.494  21.750  40.436  1.00 35.19 LIG 0.04  A 
ATOM     45  CZ  TYR P   4      12.652  20.445  40.842  1.00 34.95 LIG 0.07  A 
ATOM     46  CE1 TYR P   4      12.653  20.117  42.188  1.00 35.39 LIG 0.04  A 
ATOM     47  CD1 TYR P   4      12.501  21.130  43.138  1.00 35.59 LIG 0.01  A 
BRANCH 45 48
ATOM     48 OH   TYR P   4      12.805  19.450  39.898  1.00 35.19 LIG-0.36  OA
ATOM     49 HH   TYR P   4      12.572  18.713  40.228  1.00 35.19 LIG 0.22  HD
ENDBRANCH 45 48
ENDBRANCH 41 42
ENDBRANCH 29 41
ENDBRANCH 3 29
TORSDOF 19
ENDMDL
MODEL 31
USER: ADFR SOLUTION from run 119
USER: SCORE 18.777511 LL:  -4.699 LR: -15.076 RR:   0.000 FEB:  -9.408
USER: RMSD 11.558561
USER: SEED 118
USER: STATUS no improvement in best 6 clusters for 5 generations
USER: GENES 21
USER: genes 0 Translation |==|  0.77083 0.49716 0.65938
USER: genes 1 Rotation |==|  0.35276 0.56553 0.91565 0.72640
USER: genes 2 Torsion [N]-C--CA-[N] |==|  0.85881
USER: genes 3 Torsion [C]-CA--N-[C] |==|  0.78889
USER: genes 4 Torsion [N]-C--CA-[N] |==|  0.90511
USER: genes 5 Torsion [C]-CA--N-[C] |==|  0.86909
USER: genes 6 Torsion [N]-C--CA-[N] |==|  0.48879
USER: genes 7 Torsion [C]-CA--N-[H2] |==|  0.20564
USER: genes 8 Torsion [C]-CA--CB-[CG] |==|  0.27232
USER: genes 9 Torsion [CA]-CB--CG-[CD2] |==|  0.74235
USER: genes 10 Torsion [C]-CA--CB-[CG2] |==|  0.43556
USER: genes 11 Torsion [CA]-CB--CG1-[CD1] |==|  0.57472
USER: genes 12 Torsion [C]-N--CA-[CB] |==|  0.52238
USER: genes 13 Torsion [N]-CA--C-[N] |==|  0.35786
USER: genes 14 Torsion [C]-N--CA-[CB] |==|  0.40391
USER: genes 15 Torsion [N]-CA--CB-[OG] |==|  0.03752
USER: genes 16 Torsion [CA]-CB--OG-[HG] |==|  0.50429
USER: genes 17 Torsion [N]-CA--C-[OXT] |==|  0.95309
USER: genes 18 Torsion [N]-CA--CB-[CG] |==|  0.42861
USER: genes 19 Torsion [CA]-CB--CG-[CD2] |==|  0.23210
USER: genes 20 Torsion [CE2]-CZ--OH-[HH] |==|  0.38607
ROOT
ATOM      1  C   ILE P   3      20.625  20.865  45.961  1.00 41.75 LIG 0.24  C 
ATOM      2 O    ILE P   3      20.116  19.928  45.350  1.00 43.02 LIG-0.27  OA
ATOM      3  N   TYR P   4      19.911  21.714  46.682  1.00 40.49 LIG-0.35  N 
ATOM      4 H    TYR P   4      20.241  22.332  47.179  1.00 40.49 LIG 0.16  HD
ENDROOT
BRANCH 1 5
ATOM      5  CA  ILE P   3      22.146  21.070  45.931  1.00 41.79 LIG 0.18  C 
BRANCH 5 6
ATOM      6  N   ILE P   3      22.478  22.465  45.593  1.00 42.70 LIG-0.35  N 
ATOM      7 H    ILE P   3      22.732  22.938  46.264  1.00 42.70 LIG 0.16  HD
ATOM      8  C   ALA P   2      22.387  22.939  44.350  1.00 42.25 LIG 0.24  C 
ATOM      9 O    ALA P   2      22.014  22.256  43.411  1.00 43.48 LIG-0.27  OA
BRANCH 8 10
ATOM     10  CA  ALA P   2      22.763  24.398  44.108  1.00 41.32 LIG 0.17  C 
ATOM     11  CB  ALA P   2      24.254  24.528  43.904  1.00 39.54 LIG 0.04  C 
BRANCH 10 12
ATOM     12  N   ALA P   2      22.370  25.148  45.295  1.00 41.39 LIG-0.35  N 
ATOM     13 H    ALA P   2      22.974  25.683  45.590  1.00 41.39 LIG 0.16  HD
ATOM     14  C   LEU P   1      21.175  25.000  45.855  1.00 41.33 LIG 0.25  C 
ATOM     15 O    LEU P   1      20.311  24.242  45.405  1.00 41.61 LIG-0.27  OA
BRANCH 14 16
ATOM     16  CA  LEU P   1      20.912  25.840  47.105  1.00 40.25 LIG 0.28  C 
BRANCH 16 17
ATOM     17  N   LEU P   1      19.510  25.638  47.552  1.00 40.65 LIG-0.07  N 
ATOM     18 H2   LEU P   1      19.431  24.836  47.930  1.00 40.65 LIG 0.28  HD
ATOM     19 H1   LEU P   1      18.963  25.691  46.852  1.00 40.65 LIG 0.28  HD
ATOM     20 H3   LEU P   1      19.293  26.266  48.144  1.00 40.65 LIG 0.28  HD
ENDBRANCH 16 17
BRANCH 16 21
ATOM     21  CB  LEU P   1      21.875  25.420  48.219  1.00 38.59 LIG 0.05  C 
BRANCH 21 22
ATOM     22  CG  LEU P   1      23.165  26.200  48.510  1.00 36.61 LIG-0.02  C 
ATOM     23  CD2 LEU P   1      24.299  25.568  47.723  1.00 36.34 LIG 0.01  C 
ATOM     24  CD1 LEU P   1      23.488  26.202  49.996  1.00 35.12 LIG 0.01  C 
ENDBRANCH 21 22
ENDBRANCH 16 21
ENDBRANCH 14 16
ENDBRANCH 10 12
ENDBRANCH 8 10
ENDBRANCH 5 6
BRANCH 5 25
ATOM     25  CB  ILE P   3      22.631  20.705  47.338  1.00 41.77 LIG 0.01  C 
ATOM     26  CG2 ILE P   3      24.106  20.318  47.265  1.00 41.93 LIG 0.01  C 
BRANCH 25 27
ATOM     27  CG1 ILE P   3      22.447  21.897  48.285  1.00 42.12 LIG 0.00  C 
ATOM     28  CD1 ILE P   3      23.397  21.947  49.455  1.00 41.36 LIG 0.01  C 
ENDBRANCH 25 27
ENDBRANCH 5 25
ENDBRANCH 1 5
BRANCH 3 29
ATOM     29  CA  TYR P   4      18.469  21.642  46.669  1.00 39.63 LIG 0.18  C 
BRANCH 29 30
ATOM     30  C   TYR P   4      18.096  21.509  45.190  1.00 40.27 LIG 0.24  C 
ATOM     31  N   SER P   5      17.283  20.511  44.929  1.00 40.75 LIG-0.34  N 
ATOM     32 H    SER P   5      16.967  19.995  45.540  1.00 40.75 LIG 0.16  HD
ATOM     33 O    TYR P   4      18.563  22.267  44.350  1.00 40.83 LIG-0.27  OA
BRANCH 31 34
ATOM     34  CA  SER P   5      16.826  20.167  43.583  1.00 41.35 LIG 0.21  C 
BRANCH 34 35
ATOM     35  CB  SER P   5      16.770  18.645  43.774  1.00 41.35 LIG 0.20  C 
BRANCH 35 36
ATOM     36 OG   SER P   5      16.880  18.745  45.180  1.00 42.37 LIG-0.40  OA
ATOM     37 HG   SER P   5      16.892  17.975  45.516  1.00 42.37 LIG 0.21  HD
ENDBRANCH 35 36
ENDBRANCH 34 35
BRANCH 34 38
ATOM     38  C   SER P   5      15.795  21.128  43.019  1.00 41.28 LIG 0.20  C 
ATOM     39 OXT  SER P   5      15.224  21.907  44.010  1.00 41.68 LIG-0.65  OA
ATOM     40 O    SER P   5      15.235  20.897  41.950  1.00 42.12 LIG-0.65  OA
ENDBRANCH 34 38
ENDBRANCH 31 34
ENDBRANCH 29 30
BRANCH 29 41
ATOM     41  CB  TYR P   4      17.818  22.833  47.409  1.00 37.99 LIG 0.07  C 
BRANCH 41 42
ATOM     42  CG  TYR P   4      16.395  23.251  47.008  1.00 35.75 LIG-0.06  A 
ATOM     43  CD2 TYR P   4      15.306  22.575  47.562  1.00 34.88 LIG 0.01  A 
ATOM     44  CE2 TYR P   4      14.005  22.930  47.250  1.00 35.19 LIG 0.04  A 
ATOM     45  CZ  TYR P   4      13.772  23.969  46.379  1.00 34.95 LIG 0.07  A 
ATOM     46  CE1 TYR P   4      14.827  24.657  45.801  1.00 35.39 LIG 0.04  A 
ATOM     47  CD1 TYR P   4      16.137  24.293  46.117  1.00 35.59 LIG 0.01  A 
BRANCH 45 48
ATOM     48 OH   TYR P   4      12.476  24.326  46.073  1.00 35.19 LIG-0.36  OA
ATOM     49 HH   TYR P   4      12.414  25.163  46.049  1.00 35.19 LIG 0.22  HD
ENDBRANCH 45 48
ENDBRANCH 41 42
ENDBRANCH 29 41
ENDBRANCH 3 29
TORSDOF 19
ENDMDL
MODEL 32
USER: ADFR SOLUTION from run 113
USER: SCORE 16.721034 LL:  -3.854 LR: -15.070 RR:   0.000 FEB:  -9.402
USER: RMSD 11.261304
USER: SEED 112
USER: STATUS no improvement in best 3 clusters for 5 generations
USER: GENES 21
USER: genes 0 Translation |==|  0.66454 0.50491 0.61400
USER: genes 1 Rotation |==|  0.20051 0.29022 0.79999 0.66220
USER: genes 2 Torsion [N]-C--CA-[N] |==|  0.56634
USER: genes 3 Torsion [C]-CA--N-[C] |==|  0.58523
USER: genes 4 Torsion [N]-C--CA-[N] |==|  0.19574
USER: genes 5 Torsion [C]-CA--N-[C] |==|  0.75706
USER: genes 6 Torsion [N]-C--CA-[N] |==|  0.82426
USER: genes 7 Torsion [C]-CA--N-[H2] |==|  0.44148
USER: genes 8 Torsion [C]-CA--CB-[CG] |==|  0.81955
USER: genes 9 Torsion [CA]-CB--CG-[CD2] |==|  0.67503
USER: genes 10 Torsion [C]-CA--CB-[CG2] |==|  0.50113
USER: genes 11 Torsion [CA]-CB--CG1-[CD1] |==|  0.41870
USER: genes 12 Torsion [C]-N--CA-[CB] |==|  0.48333
USER: genes 13 Torsion [N]-CA--C-[N] |==|  0.89341
USER: genes 14 Torsion [C]-N--CA-[CB] |==|  0.83178
USER: genes 15 Torsion [N]-CA--CB-[OG] |==|  0.77064
USER: genes 16 Torsion [CA]-CB--OG-[HG] |==|  0.79141
USER: genes 17 Torsion [N]-CA--C-[OXT] |==|  0.45378
USER: genes 18 Torsion [N]-CA--CB-[CG] |==|  0.55033
USER: genes 19 Torsion [CA]-CB--CG-[CD2] |==|  0.40626
USER: genes 20 Torsion [CE2]-CZ--OH-[HH] |==|  0.61080
ROOT
ATOM      1  C   ILE P   3      17.436  21.097  44.600  1.00 41.75 LIG 0.24  C 
ATOM      2 O    ILE P   3      18.292  20.714  43.806  1.00 43.02 LIG-0.27  OA
ATOM      3  N   TYR P   4      16.179  21.303  44.243  1.00 40.49 LIG-0.35  N 
ATOM      4 H    TYR P   4      15.542  21.498  44.786  1.00 40.49 LIG 0.16  HD
ENDROOT
BRANCH 1 5
ATOM      5  CA  ILE P   3      17.799  21.330  46.073  1.00 41.79 LIG 0.18  C 
BRANCH 5 6
ATOM      6  N   ILE P   3      19.236  21.623  46.217  1.00 42.70 LIG-0.35  N 
ATOM      7 H    ILE P   3      19.582  22.025  45.541  1.00 42.70 LIG 0.16  HD
ATOM      8  C   ALA P   2      19.926  21.288  47.308  1.00 42.25 LIG 0.24  C 
ATOM      9 O    ALA P   2      19.420  20.709  48.255  1.00 43.48 LIG-0.27  OA
BRANCH 8 10
ATOM     10  CA  ALA P   2      21.409  21.645  47.357  1.00 41.32 LIG 0.17  C 
ATOM     11  CB  ALA P   2      22.066  20.989  48.549  1.00 39.54 LIG 0.04  C 
BRANCH 10 12
ATOM     12  N   ALA P   2      21.500  23.093  47.491  1.00 41.39 LIG-0.35  N 
ATOM     13 H    ALA P   2      21.548  23.371  48.303  1.00 41.39 LIG 0.16  HD
ATOM     14  C   LEU P   1      21.507  23.898  46.434  1.00 41.33 LIG 0.25  C 
ATOM     15 O    LEU P   1      21.458  23.481  45.273  1.00 41.61 LIG-0.27  OA
BRANCH 14 16
ATOM     16  CA  LEU P   1      21.589  25.395  46.731  1.00 40.25 LIG 0.28  C 
BRANCH 16 17
ATOM     17  N   LEU P   1      20.381  25.820  47.483  1.00 40.65 LIG-0.07  N 
ATOM     18 H2   LEU P   1      20.551  26.579  47.914  1.00 40.65 LIG 0.28  HD
ATOM     19 H1   LEU P   1      20.160  25.189  48.071  1.00 40.65 LIG 0.28  HD
ATOM     20 H3   LEU P   1      19.707  25.945  46.916  1.00 40.65 LIG 0.28  HD
ENDBRANCH 16 17
BRANCH 16 21
ATOM     21  CB  LEU P   1      22.844  25.687  47.560  1.00 38.59 LIG 0.05  C 
BRANCH 21 22
ATOM     22  CG  LEU P   1      23.016  25.142  48.985  1.00 36.61 LIG-0.02  C 
ATOM     23  CD2 LEU P   1      23.097  26.316  49.944  1.00 36.34 LIG 0.01  C 
ATOM     24  CD1 LEU P   1      24.261  24.277  49.099  1.00 35.12 LIG 0.01  C 
ENDBRANCH 21 22
ENDBRANCH 16 21
ENDBRANCH 14 16
ENDBRANCH 10 12
ENDBRANCH 8 10
ENDBRANCH 5 6
BRANCH 5 25
ATOM     25  CB  ILE P   3      16.939  22.519  46.518  1.00 41.77 LIG 0.01  C 
ATOM     26  CG2 ILE P   3      17.247  22.829  47.981  1.00 41.93 LIG 0.01  C 
BRANCH 25 27
ATOM     27  CG1 ILE P   3      17.242  23.744  45.647  1.00 42.12 LIG 0.00  C 
ATOM     28  CD1 ILE P   3      16.098  24.710  45.467  1.00 41.36 LIG 0.01  C 
ENDBRANCH 25 27
ENDBRANCH 5 25
ENDBRANCH 1 5
BRANCH 3 29
ATOM     29  CA  TYR P   4      15.793  21.204  42.856  1.00 39.63 LIG 0.18  C 
BRANCH 29 30
ATOM     30  C   TYR P   4      16.631  22.266  42.139  1.00 40.27 LIG 0.24  C 
ATOM     31  N   SER P   5      16.783  23.379  42.819  1.00 40.75 LIG-0.34  N 
ATOM     32 H    SER P   5      16.463  23.491  43.609  1.00 40.75 LIG 0.16  HD
ATOM     33 O    TYR P   4      17.075  22.068  41.015  1.00 40.83 LIG-0.27  OA
BRANCH 31 34
ATOM     34  CA  SER P   5      17.508  24.546  42.316  1.00 41.35 LIG 0.21  C 
BRANCH 34 35
ATOM     35  CB  SER P   5      18.873  23.870  42.131  1.00 41.35 LIG 0.20  C 
BRANCH 35 36
ATOM     36 OG   SER P   5      19.217  24.028  43.494  1.00 42.37 LIG-0.40  OA
ATOM     37 HG   SER P   5      19.421  24.830  43.640  1.00 42.37 LIG 0.21  HD
ENDBRANCH 35 36
ENDBRANCH 34 35
BRANCH 34 38
ATOM     38  C   SER P   5      16.700  25.409  41.365  1.00 41.28 LIG 0.20  C 
ATOM     39 OXT  SER P   5      17.263  26.664  41.207  1.00 41.68 LIG-0.65  OA
ATOM     40 O    SER P   5      15.508  25.187  41.169  1.00 42.12 LIG-0.65  OA
ENDBRANCH 34 38
ENDBRANCH 31 34
ENDBRANCH 29 30
BRANCH 29 41
ATOM     41  CB  TYR P   4      14.264  21.330  42.664  1.00 37.99 LIG 0.07  C 
BRANCH 41 42
ATOM     42  CG  TYR P   4      13.652  20.835  41.345  1.00 35.75 LIG-0.06  A 
ATOM     43  CD2 TYR P   4      12.374  20.271  41.357  1.00 34.88 LIG 0.01  A 
ATOM     44  CE2 TYR P   4      11.770  19.833  40.192  1.00 35.19 LIG 0.04  A 
ATOM     45  CZ  TYR P   4      12.435  19.953  38.993  1.00 34.95 LIG 0.07  A 
ATOM     46  CE1 TYR P   4      13.708  20.497  38.941  1.00 35.39 LIG 0.04  A 
ATOM     47  CD1 TYR P   4      14.313  20.935  40.121  1.00 35.59 LIG 0.01  A 
BRANCH 45 48
ATOM     48 OH   TYR P   4      11.831  19.520  37.831  1.00 35.19 LIG-0.36  OA
ATOM     49 HH   TYR P   4      12.400  19.141  37.343  1.00 35.19 LIG 0.22  HD
ENDBRANCH 45 48
ENDBRANCH 41 42
ENDBRANCH 29 41
ENDBRANCH 3 29
TORSDOF 19
ENDMDL
MODEL 33
USER: ADFR SOLUTION from run 21
USER: SCORE 16.551045 LL:  -3.640 LR: -15.069 RR:   0.000 FEB:  -9.402
USER: RMSD 11.500540
USER: SEED 20
USER: STATUS no improvement in best 3 clusters for 5 generations
USER: GENES 21
USER: genes 0 Translation |==|  0.67775 0.57595 0.56306
USER: genes 1 Rotation |==|  0.48754 0.24251 0.68250 0.88761
USER: genes 2 Torsion [N]-C--CA-[N] |==|  0.65727
USER: genes 3 Torsion [C]-CA--N-[C] |==|  0.12844
USER: genes 4 Torsion [N]-C--CA-[N] |==|  0.49444
USER: genes 5 Torsion [C]-CA--N-[C] |==|  0.18329
USER: genes 6 Torsion [N]-C--CA-[N] |==|  0.29421
USER: genes 7 Torsion [C]-CA--N-[H2] |==|  0.04513
USER: genes 8 Torsion [C]-CA--CB-[CG] |==|  0.43409
USER: genes 9 Torsion [CA]-CB--CG-[CD2] |==|  0.68683
USER: genes 10 Torsion [C]-CA--CB-[CG2] |==|  0.27721
USER: genes 11 Torsion [CA]-CB--CG1-[CD1] |==|  0.33873
USER: genes 12 Torsion [C]-N--CA-[CB] |==|  0.23709
USER: genes 13 Torsion [N]-CA--C-[N] |==|  0.97530
USER: genes 14 Torsion [C]-N--CA-[CB] |==|  0.75580
USER: genes 15 Torsion [N]-CA--CB-[OG] |==|  0.77892
USER: genes 16 Torsion [CA]-CB--OG-[HG] |==|  0.45265
USER: genes 17 Torsion [N]-CA--C-[OXT] |==|  0.48410
USER: genes 18 Torsion [N]-CA--CB-[CG] |==|  0.86284
USER: genes 19 Torsion [CA]-CB--CG-[CD2] |==|  0.78681
USER: genes 20 Torsion [CE2]-CZ--OH-[HH] |==|  0.80569
ROOT
ATOM      1  C   ILE P   3      17.832  23.228  43.072  1.00 41.75 LIG 0.24  C 
ATOM      2 O    ILE P   3      17.908  24.165  42.279  1.00 43.02 LIG-0.27  OA
ATOM      3  N   TYR P   4      16.856  23.127  43.958  1.00 40.49 LIG-0.35  N 
ATOM      4 H    TYR P   4      16.732  22.451  44.475  1.00 40.49 LIG 0.16  HD
ENDROOT
BRANCH 1 5
ATOM      5  CA  ILE P   3      18.878  22.105  43.041  1.00 41.79 LIG 0.18  C 
BRANCH 5 6
ATOM      6  N   ILE P   3      20.234  22.648  43.235  1.00 42.70 LIG-0.35  N 
ATOM      7 H    ILE P   3      20.816  22.341  42.682  1.00 42.70 LIG 0.16  HD
ATOM      8  C   ALA P   2      20.517  23.535  44.188  1.00 42.25 LIG 0.24  C 
ATOM      9 O    ALA P   2      19.678  23.952  44.970  1.00 43.48 LIG-0.27  OA
BRANCH 8 10
ATOM     10  CA  ALA P   2      21.954  24.039  44.297  1.00 41.32 LIG 0.17  C 
ATOM     11  CB  ALA P   2      22.885  22.897  44.633  1.00 39.54 LIG 0.04  C 
BRANCH 10 12
ATOM     12  N   ALA P   2      21.987  25.023  45.371  1.00 41.39 LIG-0.35  N 
ATOM     13 H    ALA P   2      22.160  25.824  45.112  1.00 41.39 LIG 0.16  HD
ATOM     14  C   LEU P   1      21.765  24.688  46.637  1.00 41.33 LIG 0.25  C 
ATOM     15 O    LEU P   1      21.496  23.536  46.990  1.00 41.61 LIG-0.27  OA
BRANCH 14 16
ATOM     16  CA  LEU P   1      21.850  25.824  47.657  1.00 40.25 LIG 0.28  C 
BRANCH 16 17
ATOM     17  N   LEU P   1      20.482  26.192  48.104  1.00 40.65 LIG-0.07  N 
ATOM     18 H2   LEU P   1      19.913  25.545  47.884  1.00 40.65 LIG 0.28  HD
ATOM     19 H1   LEU P   1      20.235  26.951  47.711  1.00 40.65 LIG 0.28  HD
ATOM     20 H3   LEU P   1      20.479  26.302  48.987  1.00 40.65 LIG 0.28  HD
ENDBRANCH 16 17
BRANCH 16 21
ATOM     21  CB  LEU P   1      22.684  25.374  48.860  1.00 38.59 LIG 0.05  C 
BRANCH 21 22
ATOM     22  CG  LEU P   1      23.397  26.381  49.772  1.00 36.61 LIG-0.02  C 
ATOM     23  CD2 LEU P   1      24.896  26.214  49.597  1.00 36.34 LIG 0.01  C 
ATOM     24  CD1 LEU P   1      23.008  26.182  51.228  1.00 35.12 LIG 0.01  C 
ENDBRANCH 21 22
ENDBRANCH 16 21
ENDBRANCH 14 16
ENDBRANCH 10 12
ENDBRANCH 8 10
ENDBRANCH 5 6
BRANCH 5 25
ATOM     25  CB  ILE P   3      18.487  21.158  44.182  1.00 41.77 LIG 0.01  C 
ATOM     26  CG2 ILE P   3      17.730  19.969  43.597  1.00 41.93 LIG 0.01  C 
BRANCH 25 27
ATOM     27  CG1 ILE P   3      19.741  20.673  44.918  1.00 42.12 LIG 0.00  C 
ATOM     28  CD1 ILE P   3      19.785  20.977  46.394  1.00 41.36 LIG 0.01  C 
ENDBRANCH 25 27
ENDBRANCH 5 25
ENDBRANCH 1 5
BRANCH 3 29
ATOM     29  CA  TYR P   4      15.901  24.198  44.111  1.00 39.63 LIG 0.18  C 
BRANCH 29 30
ATOM     30  C   TYR P   4      15.493  24.153  45.586  1.00 40.27 LIG 0.24  C 
ATOM     31  N   SER P   5      15.940  23.103  46.235  1.00 40.75 LIG-0.34  N 
ATOM     32 H    SER P   5      16.440  22.506  45.869  1.00 40.75 LIG 0.16  HD
ATOM     33 O    TYR P   4      14.783  25.025  46.072  1.00 40.83 LIG-0.27  OA
BRANCH 31 34
ATOM     34  CA  SER P   5      15.641  22.828  47.640  1.00 41.35 LIG 0.21  C 
BRANCH 34 35
ATOM     35  CB  SER P   5      16.806  23.618  48.251  1.00 41.35 LIG 0.20  C 
BRANCH 35 36
ATOM     36 OG   SER P   5      17.736  22.585  47.993  1.00 42.37 LIG-0.40  OA
ATOM     37 HG   SER P   5      18.517  22.891  48.043  1.00 42.37 LIG 0.21  HD
ENDBRANCH 35 36
ENDBRANCH 34 35
BRANCH 34 38
ATOM     38  C   SER P   5      14.159  22.845  47.969  1.00 41.28 LIG 0.20  C 
ATOM     39 OXT  SER P   5      13.919  22.456  49.276  1.00 41.68 LIG-0.65  OA
ATOM     40 O    SER P   5      13.315  22.748  47.082  1.00 42.12 LIG-0.65  OA
ENDBRANCH 34 38
ENDBRANCH 31 34
ENDBRANCH 29 30
BRANCH 29 41
ATOM     41  CB  TYR P   4      14.734  24.090  43.102  1.00 37.99 LIG 0.07  C 
BRANCH 41 42
ATOM     42  CG  TYR P   4      15.071  23.875  41.618  1.00 35.75 LIG-0.06  A 
ATOM     43  CD2 TYR P   4      15.525  24.956  40.860  1.00 34.88 LIG 0.01  A 
ATOM     44  CE2 TYR P   4      15.864  24.808  39.526  1.00 35.19 LIG 0.04  A 
ATOM     45  CZ  TYR P   4      15.755  23.573  38.929  1.00 34.95 LIG 0.07  A 
ATOM     46  CE1 TYR P   4      15.298  22.478  39.646  1.00 35.39 LIG 0.04  A 
ATOM     47  CD1 TYR P   4      14.956  22.636  40.990  1.00 35.59 LIG 0.01  A 
BRANCH 45 48
ATOM     48 OH   TYR P   4      16.098  23.424  37.601  1.00 35.19 LIG-0.36  OA
ATOM     49 HH   TYR P   4      15.531  23.815  37.120  1.00 35.19 LIG 0.22  HD
ENDBRANCH 45 48
ENDBRANCH 41 42
ENDBRANCH 29 41
ENDBRANCH 3 29
TORSDOF 19
ENDMDL
MODEL 34
USER: ADFR SOLUTION from run 55
USER: SCORE 15.161930 LL:  -3.424 LR: -15.010 RR:   0.000 FEB:  -9.343
USER: RMSD 11.234111
USER: SEED 54
USER: STATUS no improvement in best 1 clusters for 5 generations
USER: GENES 21
USER: genes 0 Translation |==|  0.61261 0.56138 0.52154
USER: genes 1 Rotation |==|  0.18349 0.64625 0.85558 0.54467
USER: genes 2 Torsion [N]-C--CA-[N] |==|  0.44360
USER: genes 3 Torsion [C]-CA--N-[C] |==|  0.52778
USER: genes 4 Torsion [N]-C--CA-[N] |==|  0.62052
USER: genes 5 Torsion [C]-CA--N-[C] |==|  0.49692
USER: genes 6 Torsion [N]-C--CA-[N] |==|  0.12439
USER: genes 7 Torsion [C]-CA--N-[H2] |==|  0.57648
USER: genes 8 Torsion [C]-CA--CB-[CG] |==|  0.41091
USER: genes 9 Torsion [CA]-CB--CG-[CD2] |==|  0.28009
USER: genes 10 Torsion [C]-CA--CB-[CG2] |==|  0.97075
USER: genes 11 Torsion [CA]-CB--CG1-[CD1] |==|  0.97125
USER: genes 12 Torsion [C]-N--CA-[CB] |==|  0.85477
USER: genes 13 Torsion [N]-CA--C-[N] |==|  0.06319
USER: genes 14 Torsion [C]-N--CA-[CB] |==|  0.35280
USER: genes 15 Torsion [N]-CA--CB-[OG] |==|  0.10577
USER: genes 16 Torsion [CA]-CB--OG-[HG] |==|  0.32056
USER: genes 17 Torsion [N]-CA--C-[OXT] |==|  0.11019
USER: genes 18 Torsion [N]-CA--CB-[CG] |==|  0.56575
USER: genes 19 Torsion [CA]-CB--CG-[CD2] |==|  0.49189
USER: genes 20 Torsion [CE2]-CZ--OH-[HH] |==|  0.77924
ROOT
ATOM      1  C   ILE P   3      15.878  22.791  41.826  1.00 41.75 LIG 0.24  C 
ATOM      2 O    ILE P   3      16.038  21.616  42.147  1.00 43.02 LIG-0.27  OA
ATOM      3  N   TYR P   4      14.699  23.276  41.474  1.00 40.49 LIG-0.35  N 
ATOM      4 H    TYR P   4      14.538  24.105  41.316  1.00 40.49 LIG 0.16  HD
ENDROOT
BRANCH 1 5
ATOM      5  CA  ILE P   3      17.064  23.766  41.850  1.00 41.79 LIG 0.18  C 
BRANCH 5 6
ATOM      6  N   ILE P   3      18.154  23.243  42.692  1.00 42.70 LIG-0.35  N 
ATOM      7 H    ILE P   3      18.045  22.427  42.939  1.00 42.70 LIG 0.16  HD
ATOM      8  C   ALA P   2      19.209  23.983  43.033  1.00 42.25 LIG 0.24  C 
ATOM      9 O    ALA P   2      19.341  25.144  42.680  1.00 43.48 LIG-0.27  OA
BRANCH 8 10
ATOM     10  CA  ALA P   2      20.286  23.341  43.903  1.00 41.32 LIG 0.17  C 
ATOM     11  CB  ALA P   2      19.745  22.099  44.573  1.00 39.54 LIG 0.04  C 
BRANCH 10 12
ATOM     12  N   ALA P   2      20.658  24.315  44.920  1.00 41.39 LIG-0.35  N 
ATOM     13 H    ALA P   2      20.242  25.066  44.860  1.00 41.39 LIG 0.16  HD
ATOM     14  C   LEU P   1      21.565  24.047  45.852  1.00 41.33 LIG 0.25  C 
ATOM     15 O    LEU P   1      22.137  22.956  45.938  1.00 41.61 LIG-0.27  OA
BRANCH 14 16
ATOM     16  CA  LEU P   1      21.865  25.173  46.842  1.00 40.25 LIG 0.28  C 
BRANCH 16 17
ATOM     17  N   LEU P   1      20.591  25.786  47.296  1.00 40.65 LIG-0.07  N 
ATOM     18 H2   LEU P   1      20.734  26.635  47.524  1.00 40.65 LIG 0.28  HD
ATOM     19 H1   LEU P   1      20.280  25.339  48.000  1.00 40.65 LIG 0.28  HD
ATOM     20 H3   LEU P   1      19.994  25.754  46.638  1.00 40.65 LIG 0.28  HD
ENDBRANCH 16 17
BRANCH 16 21
ATOM     21  CB  LEU P   1      22.626  24.611  48.046  1.00 38.59 LIG 0.05  C 
BRANCH 21 22
ATOM     22  CG  LEU P   1      23.663  25.446  48.809  1.00 36.61 LIG-0.02  C 
ATOM     23  CD2 LEU P   1      23.019  25.973  50.079  1.00 36.34 LIG 0.01  C 
ATOM     24  CD1 LEU P   1      24.181  26.596  47.960  1.00 35.12 LIG 0.01  C 
ENDBRANCH 21 22
ENDBRANCH 16 21
ENDBRANCH 14 16
ENDBRANCH 10 12
ENDBRANCH 8 10
ENDBRANCH 5 6
BRANCH 5 25
ATOM     25  CB  ILE P   3      17.504  23.902  40.388  1.00 41.77 LIG 0.01  C 
ATOM     26  CG2 ILE P   3      16.785  22.842  39.557  1.00 41.93 LIG 0.01  C 
BRANCH 25 27
ATOM     27  CG1 ILE P   3      17.163  25.301  39.862  1.00 42.12 LIG 0.00  C 
ATOM     28  CD1 ILE P   3      16.282  26.133  40.758  1.00 41.36 LIG 0.01  C 
ENDBRANCH 25 27
ENDBRANCH 5 25
ENDBRANCH 1 5
BRANCH 3 29
ATOM     29  CA  TYR P   4      13.566  22.394  41.330  1.00 39.63 LIG 0.18  C 
BRANCH 29 30
ATOM     30  C   TYR P   4      13.172  22.023  42.762  1.00 40.27 LIG 0.24  C 
ATOM     31  N   SER P   5      13.571  22.885  43.669  1.00 40.75 LIG-0.34  N 
ATOM     32 H    SER P   5      13.992  23.608  43.472  1.00 40.75 LIG 0.16  HD
ATOM     33 O    TYR P   4      12.568  20.985  43.003  1.00 40.83 LIG-0.27  OA
BRANCH 31 34
ATOM     34  CA  SER P   5      13.346  22.716  45.105  1.00 41.35 LIG 0.21  C 
BRANCH 34 35
ATOM     35  CB  SER P   5      14.801  22.896  45.558  1.00 41.35 LIG 0.20  C 
BRANCH 35 36
ATOM     36 OG   SER P   5      15.049  23.909  44.602  1.00 42.37 LIG-0.40  OA
ATOM     37 HG   SER P   5      15.209  24.633  44.995  1.00 42.37 LIG 0.21  HD
ENDBRANCH 35 36
ENDBRANCH 34 35
BRANCH 34 38
ATOM     38  C   SER P   5      12.069  23.364  45.608  1.00 41.28 LIG 0.20  C 
ATOM     39 OXT  SER P   5      11.024  23.200  44.715  1.00 41.68 LIG-0.65  OA
ATOM     40 O    SER P   5      12.106  24.280  46.425  1.00 42.12 LIG-0.65  OA
ENDBRANCH 34 38
ENDBRANCH 31 34
ENDBRANCH 29 30
BRANCH 29 41
ATOM     41  CB  TYR P   4      13.872  21.197  40.399  1.00 37.99 LIG 0.07  C 
BRANCH 41 42
ATOM     42  CG  TYR P   4      12.696  20.495  39.704  1.00 35.75 LIG-0.06  A 
ATOM     43  CD2 TYR P   4      12.956  19.452  38.813  1.00 34.88 LIG 0.01  A 
ATOM     44  CE2 TYR P   4      11.930  18.773  38.180  1.00 35.19 LIG 0.04  A 
ATOM     45  CZ  TYR P   4      10.623  19.126  38.430  1.00 34.95 LIG 0.07  A 
ATOM     46  CE1 TYR P   4      10.325  20.162  39.300  1.00 35.39 LIG 0.04  A 
ATOM     47  CD1 TYR P   4      11.365  20.845  39.933  1.00 35.59 LIG 0.01  A 
BRANCH 45 48
ATOM     48 OH   TYR P   4       9.600  18.445  37.803  1.00 35.19 LIG-0.36  OA
ATOM     49 HH   TYR P   4       9.514  18.731  37.018  1.00 35.19 LIG 0.22  HD
ENDBRANCH 45 48
ENDBRANCH 41 42
ENDBRANCH 29 41
ENDBRANCH 3 29
TORSDOF 19
ENDMDL
MODEL 35
USER: ADFR SOLUTION from run 152
USER: SCORE 17.719467 LL:  -3.879 LR: -14.976 RR:   0.000 FEB:  -9.308
USER: RMSD 10.857586
USER: SEED 151
USER: STATUS no improvement in best 1 clusters for 5 generations
USER: GENES 21
USER: genes 0 Translation |==|  0.65281 0.53046 0.61681
USER: genes 1 Rotation |==|  0.06374 0.65004 0.62484 0.64690
USER: genes 2 Torsion [N]-C--CA-[N] |==|  0.91543
USER: genes 3 Torsion [C]-CA--N-[C] |==|  0.81111
USER: genes 4 Torsion [N]-C--CA-[N] |==|  0.14194
USER: genes 5 Torsion [C]-CA--N-[C] |==|  0.16411
USER: genes 6 Torsion [N]-C--CA-[N] |==|  0.18947
USER: genes 7 Torsion [C]-CA--N-[H2] |==|  0.45912
USER: genes 8 Torsion [C]-CA--CB-[CG] |==|  0.39683
USER: genes 9 Torsion [CA]-CB--CG-[CD2] |==|  0.25015
USER: genes 10 Torsion [C]-CA--CB-[CG2] |==|  0.16912
USER: genes 11 Torsion [CA]-CB--CG1-[CD1] |==|  0.70099
USER: genes 12 Torsion [C]-N--CA-[CB] |==|  0.20540
USER: genes 13 Torsion [N]-CA--C-[N] |==|  0.69570
USER: genes 14 Torsion [C]-N--CA-[CB] |==|  0.82488
USER: genes 15 Torsion [N]-CA--CB-[OG] |==|  0.83853
USER: genes 16 Torsion [CA]-CB--OG-[HG] |==|  0.85813
USER: genes 17 Torsion [N]-CA--C-[OXT] |==|  0.50105
USER: genes 18 Torsion [N]-CA--CB-[CG] |==|  0.03612
USER: genes 19 Torsion [CA]-CB--CG-[CD2] |==|  0.59239
USER: genes 20 Torsion [CE2]-CZ--OH-[HH] |==|  0.56180
ROOT
ATOM      1  C   ILE P   3      17.084  21.864  44.684  1.00 41.75 LIG 0.24  C 
ATOM      2 O    ILE P   3      16.592  20.756  44.888  1.00 43.02 LIG-0.27  OA
ATOM      3  N   TYR P   4      17.004  22.471  43.512  1.00 40.49 LIG-0.35  N 
ATOM      4 H    TYR P   4      17.271  23.273  43.357  1.00 40.49 LIG 0.16  HD
ENDROOT
BRANCH 1 5
ATOM      5  CA  ILE P   3      17.802  22.609  45.818  1.00 41.79 LIG 0.18  C 
BRANCH 5 6
ATOM      6  N   ILE P   3      18.858  23.485  45.281  1.00 42.70 LIG-0.35  N 
ATOM      7 H    ILE P   3      18.697  24.325  45.372  1.00 42.70 LIG 0.16  HD
ATOM      8  C   ALA P   2      19.961  23.003  44.708  1.00 42.25 LIG 0.24  C 
ATOM      9 O    ALA P   2      20.168  21.808  44.580  1.00 43.48 LIG-0.27  OA
BRANCH 8 10
ATOM     10  CA  ALA P   2      20.996  23.999  44.192  1.00 41.32 LIG 0.17  C 
ATOM     11  CB  ALA P   2      22.266  23.279  43.802  1.00 39.54 LIG 0.04  C 
BRANCH 10 12
ATOM     12  N   ALA P   2      21.280  24.928  45.277  1.00 41.39 LIG-0.35  N 
ATOM     13 H    ALA P   2      21.116  25.751  45.090  1.00 41.39 LIG 0.16  HD
ATOM     14  C   LEU P   1      21.751  24.517  46.449  1.00 41.33 LIG 0.25  C 
ATOM     15 O    LEU P   1      21.961  23.329  46.709  1.00 41.61 LIG-0.27  OA
BRANCH 14 16
ATOM     16  CA  LEU P   1      22.018  25.609  47.486  1.00 40.25 LIG 0.28  C 
BRANCH 16 17
ATOM     17  N   LEU P   1      20.728  26.198  47.929  1.00 40.65 LIG-0.07  N 
ATOM     18 H2   LEU P   1      20.857  26.671  48.671  1.00 40.65 LIG 0.28  HD
ATOM     19 H1   LEU P   1      20.144  25.546  48.091  1.00 40.65 LIG 0.28  HD
ATOM     20 H3   LEU P   1      20.410  26.729  47.291  1.00 40.65 LIG 0.28  HD
ENDBRANCH 16 17
BRANCH 16 21
ATOM     21  CB  LEU P   1      22.752  25.008  48.689  1.00 38.59 LIG 0.05  C 
BRANCH 21 22
ATOM     22  CG  LEU P   1      23.845  25.781  49.438  1.00 36.61 LIG-0.02  C 
ATOM     23  CD2 LEU P   1      23.195  26.575  50.557  1.00 36.34 LIG 0.01  C 
ATOM     24  CD1 LEU P   1      24.607  26.708  48.504  1.00 35.12 LIG 0.01  C 
ENDBRANCH 21 22
ENDBRANCH 16 21
ENDBRANCH 14 16
ENDBRANCH 10 12
ENDBRANCH 8 10
ENDBRANCH 5 6
BRANCH 5 25
ATOM     25  CB  ILE P   3      16.709  23.420  46.524  1.00 41.77 LIG 0.01  C 
ATOM     26  CG2 ILE P   3      15.662  22.457  47.077  1.00 41.93 LIG 0.01  C 
BRANCH 25 27
ATOM     27  CG1 ILE P   3      17.317  24.246  47.663  1.00 42.12 LIG 0.00  C 
ATOM     28  CD1 ILE P   3      17.000  23.761  49.055  1.00 41.36 LIG 0.01  C 
ENDBRANCH 25 27
ENDBRANCH 5 25
ENDBRANCH 1 5
BRANCH 3 29
ATOM     29  CA  TYR P   4      16.436  21.784  42.377  1.00 39.63 LIG 0.18  C 
BRANCH 29 30
ATOM     30  C   TYR P   4      16.955  22.549  41.156  1.00 40.27 LIG 0.24  C 
ATOM     31  N   SER P   5      16.036  23.245  40.527  1.00 40.75 LIG-0.34  N 
ATOM     32 H    SER P   5      15.220  23.288  40.794  1.00 40.75 LIG 0.16  HD
ATOM     33 O    TYR P   4      18.127  22.465  40.809  1.00 40.83 LIG-0.27  OA
BRANCH 31 34
ATOM     34  CA  SER P   5      16.292  24.018  39.312  1.00 41.35 LIG 0.21  C 
BRANCH 34 35
ATOM     35  CB  SER P   5      17.292  25.013  39.915  1.00 41.35 LIG 0.20  C 
BRANCH 35 36
ATOM     36 OG   SER P   5      16.369  25.464  40.886  1.00 42.37 LIG-0.40  OA
ATOM     37 HG   SER P   5      15.647  25.673  40.512  1.00 42.37 LIG 0.21  HD
ENDBRANCH 35 36
ENDBRANCH 34 35
BRANCH 34 38
ATOM     38  C   SER P   5      16.377  23.175  38.053  1.00 41.28 LIG 0.20  C 
ATOM     39 OXT  SER P   5      16.627  23.950  36.933  1.00 41.68 LIG-0.65  OA
ATOM     40 O    SER P   5      15.832  22.076  37.991  1.00 42.12 LIG-0.65  OA
ENDBRANCH 34 38
ENDBRANCH 31 34
ENDBRANCH 29 30
BRANCH 29 41
ATOM     41  CB  TYR P   4      14.898  21.665  42.475  1.00 37.99 LIG 0.07  C 
BRANCH 41 42
ATOM     42  CG  TYR P   4      14.167  22.511  43.529  1.00 35.75 LIG-0.06  A 
ATOM     43  CD2 TYR P   4      13.019  21.998  44.136  1.00 34.88 LIG 0.01  A 
ATOM     44  CE2 TYR P   4      12.339  22.711  45.108  1.00 35.19 LIG 0.04  A 
ATOM     45  CZ  TYR P   4      12.799  23.950  45.491  1.00 34.95 LIG 0.07  A 
ATOM     46  CE1 TYR P   4      13.929  24.498  44.904  1.00 35.39 LIG 0.04  A 
ATOM     47  CD1 TYR P   4      14.608  23.774  43.922  1.00 35.59 LIG 0.01  A 
BRANCH 45 48
ATOM     48 OH   TYR P   4      12.125  24.658  46.463  1.00 35.19 LIG-0.36  OA
ATOM     49 HH   TYR P   4      12.304  25.476  46.390  1.00 35.19 LIG 0.22  HD
ENDBRANCH 45 48
ENDBRANCH 41 42
ENDBRANCH 29 41
ENDBRANCH 3 29
TORSDOF 19
ENDMDL
MODEL 36
USER: ADFR SOLUTION from run 57
USER: SCORE 15.550768 LL:  -2.712 LR: -14.951 RR:   0.000 FEB:  -9.283
USER: RMSD 10.521751
USER: SEED 56
USER: STATUS no improvement in best 12 clusters for 5 generations
USER: GENES 21
USER: genes 0 Translation |==|  0.56667 0.54801 0.62013
USER: genes 1 Rotation |==|  0.30087 0.21858 0.80938 0.68822
USER: genes 2 Torsion [N]-C--CA-[N] |==|  0.45014
USER: genes 3 Torsion [C]-CA--N-[C] |==|  0.20000
USER: genes 4 Torsion [N]-C--CA-[N] |==|  0.65638
USER: genes 5 Torsion [C]-CA--N-[C] |==|  0.66293
USER: genes 6 Torsion [N]-C--CA-[N] |==|  0.86179
USER: genes 7 Torsion [C]-CA--N-[H2] |==|  0.89009
USER: genes 8 Torsion [C]-CA--CB-[CG] |==|  0.44559
USER: genes 9 Torsion [CA]-CB--CG-[CD2] |==|  0.47309
USER: genes 10 Torsion [C]-CA--CB-[CG2] |==|  0.14705
USER: genes 11 Torsion [CA]-CB--CG1-[CD1] |==|  0.25181
USER: genes 12 Torsion [C]-N--CA-[CB] |==|  0.82170
USER: genes 13 Torsion [N]-CA--C-[N] |==|  0.51073
USER: genes 14 Torsion [C]-N--CA-[CB] |==|  0.38738
USER: genes 15 Torsion [N]-CA--CB-[OG] |==|  0.59521
USER: genes 16 Torsion [CA]-CB--OG-[HG] |==|  0.13904
USER: genes 17 Torsion [N]-CA--C-[OXT] |==|  0.08889
USER: genes 18 Torsion [N]-CA--CB-[CG] |==|  0.22230
USER: genes 19 Torsion [CA]-CB--CG-[CD2] |==|  0.21591
USER: genes 20 Torsion [CE2]-CZ--OH-[HH] |==|  0.64280
ROOT
ATOM      1  C   ILE P   3      14.500  22.390  44.784  1.00 41.75 LIG 0.24  C 
ATOM      2 O    ILE P   3      15.189  22.562  43.781  1.00 43.02 LIG-0.27  OA
ATOM      3  N   TYR P   4      13.183  22.284  44.730  1.00 40.49 LIG-0.35  N 
ATOM      4 H    TYR P   4      12.679  22.091  45.399  1.00 40.49 LIG 0.16  HD
ENDROOT
BRANCH 1 5
ATOM      5  CA  ILE P   3      15.163  22.263  46.163  1.00 41.79 LIG 0.18  C 
BRANCH 5 6
ATOM      6  N   ILE P   3      16.601  21.975  46.027  1.00 42.70 LIG-0.35  N 
ATOM      7 H    ILE P   3      16.819  21.171  46.239  1.00 42.70 LIG 0.16  HD
ATOM      8  C   ALA P   2      17.475  22.892  45.610  1.00 42.25 LIG 0.24  C 
ATOM      9 O    ALA P   2      17.148  24.031  45.323  1.00 43.48 LIG-0.27  OA
BRANCH 8 10
ATOM     10  CA  ALA P   2      18.942  22.486  45.498  1.00 41.32 LIG 0.17  C 
ATOM     11  CB  ALA P   2      19.137  21.078  46.013  1.00 39.54 LIG 0.04  C 
BRANCH 10 12
ATOM     12  N   ALA P   2      19.711  23.412  46.318  1.00 41.39 LIG-0.35  N 
ATOM     13 H    ALA P   2      19.482  23.424  47.147  1.00 41.39 LIG 0.16  HD
ATOM     14  C   LEU P   1      20.680  24.164  45.809  1.00 41.33 LIG 0.25  C 
ATOM     15 O    LEU P   1      21.010  24.119  44.620  1.00 41.61 LIG-0.27  OA
BRANCH 14 16
ATOM     16  CA  LEU P   1      21.387  25.101  46.788  1.00 40.25 LIG 0.28  C 
BRANCH 16 17
ATOM     17  N   LEU P   1      20.376  25.873  47.555  1.00 40.65 LIG-0.07  N 
ATOM     18 H2   LEU P   1      19.710  26.108  47.015  1.00 40.65 LIG 0.28  HD
ATOM     19 H1   LEU P   1      20.755  26.603  47.895  1.00 40.65 LIG 0.28  HD
ATOM     20 H3   LEU P   1      20.058  25.370  48.216  1.00 40.65 LIG 0.28  HD
ENDBRANCH 16 17
BRANCH 16 21
ATOM     21  CB  LEU P   1      22.252  24.282  47.751  1.00 38.59 LIG 0.05  C 
BRANCH 21 22
ATOM     22  CG  LEU P   1      23.403  24.916  48.544  1.00 36.61 LIG-0.02  C 
ATOM     23  CD2 LEU P   1      23.895  23.910  49.569  1.00 36.34 LIG 0.01  C 
ATOM     24  CD1 LEU P   1      22.962  26.199  49.229  1.00 35.12 LIG 0.01  C 
ENDBRANCH 21 22
ENDBRANCH 16 21
ENDBRANCH 14 16
ENDBRANCH 10 12
ENDBRANCH 8 10
ENDBRANCH 5 6
BRANCH 5 25
ATOM     25  CB  ILE P   3      14.926  23.613  46.851  1.00 41.77 LIG 0.01  C 
ATOM     26  CG2 ILE P   3      13.434  23.932  46.806  1.00 41.93 LIG 0.01  C 
BRANCH 25 27
ATOM     27  CG1 ILE P   3      15.407  23.555  48.305  1.00 42.12 LIG 0.00  C 
ATOM     28  CD1 ILE P   3      16.841  23.963  48.529  1.00 41.36 LIG 0.01  C 
ENDBRANCH 25 27
ENDBRANCH 5 25
ENDBRANCH 1 5
BRANCH 3 29
ATOM     29  CA  TYR P   4      12.489  22.498  43.483  1.00 39.63 LIG 0.18  C 
BRANCH 29 30
ATOM     30  C   TYR P   4      13.028  21.416  42.543  1.00 40.27 LIG 0.24  C 
ATOM     31  N   SER P   5      12.569  21.494  41.315  1.00 40.75 LIG-0.34  N 
ATOM     32 H    SER P   5      12.034  22.115  41.055  1.00 40.75 LIG 0.16  HD
ATOM     33 O    TYR P   4      13.793  20.551  42.949  1.00 40.83 LIG-0.27  OA
BRANCH 31 34
ATOM     34  CA  SER P   5      12.913  20.543  40.258  1.00 41.35 LIG 0.21  C 
BRANCH 34 35
ATOM     35  CB  SER P   5      11.519  20.436  39.624  1.00 41.35 LIG 0.20  C 
BRANCH 35 36
ATOM     36 OG   SER P   5      11.695  19.073  39.294  1.00 42.37 LIG-0.40  OA
ATOM     37 HG   SER P   5      11.963  18.653  39.970  1.00 42.37 LIG 0.21  HD
ENDBRANCH 35 36
ENDBRANCH 34 35
BRANCH 34 38
ATOM     38  C   SER P   5      14.268  20.793  39.622  1.00 41.28 LIG 0.20  C 
ATOM     39 OXT  SER P   5      15.169  21.325  40.528  1.00 41.68 LIG-0.65  OA
ATOM     40 O    SER P   5      14.377  20.949  38.408  1.00 42.12 LIG-0.65  OA
ENDBRANCH 34 38
ENDBRANCH 31 34
ENDBRANCH 29 30
BRANCH 29 41
ATOM     41  CB  TYR P   4      12.639  23.950  42.971  1.00 37.99 LIG 0.07  C 
BRANCH 41 42
ATOM     42  CG  TYR P   4      13.937  24.337  42.247  1.00 35.75 LIG-0.06  A 
ATOM     43  CD2 TYR P   4      14.116  23.952  40.917  1.00 34.88 LIG 0.01  A 
ATOM     44  CE2 TYR P   4      15.257  24.297  40.215  1.00 35.19 LIG 0.04  A 
ATOM     45  CZ  TYR P   4      16.240  25.036  40.832  1.00 34.95 LIG 0.07  A 
ATOM     46  CE1 TYR P   4      16.104  25.428  42.154  1.00 35.39 LIG 0.04  A 
ATOM     47  CD1 TYR P   4      14.951  25.074  42.858  1.00 35.59 LIG 0.01  A 
BRANCH 45 48
ATOM     48 OH   TYR P   4      17.375  25.384  40.130  1.00 35.19 LIG-0.36  OA
ATOM     49 HH   TYR P   4      18.055  25.167  40.573  1.00 35.19 LIG 0.22  HD
ENDBRANCH 45 48
ENDBRANCH 41 42
ENDBRANCH 29 41
ENDBRANCH 3 29
TORSDOF 19
ENDMDL
MODEL 37
USER: ADFR SOLUTION from run 42
USER: SCORE 18.130168 LL:  -4.053 LR: -14.939 RR:   0.000 FEB:  -9.271
USER: RMSD 10.465845
USER: SEED 41
USER: STATUS 1 or 2 clusters left
USER: GENES 21
USER: genes 0 Translation |==|  0.62453 0.59153 0.56006
USER: genes 1 Rotation |==|  0.76600 0.23653 0.75579 0.71072
USER: genes 2 Torsion [N]-C--CA-[N] |==|  0.92033
USER: genes 3 Torsion [C]-CA--N-[C] |==|  0.82876
USER: genes 4 Torsion [N]-C--CA-[N] |==|  0.35997
USER: genes 5 Torsion [C]-CA--N-[C] |==|  0.76223
USER: genes 6 Torsion [N]-C--CA-[N] |==|  0.84878
USER: genes 7 Torsion [C]-CA--N-[H2] |==|  0.45311
USER: genes 8 Torsion [C]-CA--CB-[CG] |==|  0.43296
USER: genes 9 Torsion [CA]-CB--CG-[CD2] |==|  0.50654
USER: genes 10 Torsion [C]-CA--CB-[CG2] |==|  0.85295
USER: genes 11 Torsion [CA]-CB--CG1-[CD1] |==|  0.66992
USER: genes 12 Torsion [C]-N--CA-[CB] |==|  0.85556
USER: genes 13 Torsion [N]-CA--C-[N] |==|  0.29022
USER: genes 14 Torsion [C]-N--CA-[CB] |==|  0.77257
USER: genes 15 Torsion [N]-CA--CB-[OG] |==|  0.87160
USER: genes 16 Torsion [CA]-CB--OG-[HG] |==|  0.79427
USER: genes 17 Torsion [N]-CA--C-[OXT] |==|  0.45185
USER: genes 18 Torsion [N]-CA--CB-[CG] |==|  0.88929
USER: genes 19 Torsion [CA]-CB--CG-[CD2] |==|  0.32711
USER: genes 20 Torsion [CE2]-CZ--OH-[HH] |==|  0.69163
ROOT
ATOM      1  C   ILE P   3      16.236  23.696  42.982  1.00 41.75 LIG 0.24  C 
ATOM      2 O    ILE P   3      15.200  24.355  42.936  1.00 43.02 LIG-0.27  OA
ATOM      3  N   TYR P   4      16.241  22.401  43.251  1.00 40.49 LIG-0.35  N 
ATOM      4 H    TYR P   4      16.937  21.897  43.218  1.00 40.49 LIG 0.16  HD
ENDROOT
BRANCH 1 5
ATOM      5  CA  ILE P   3      17.588  24.363  42.695  1.00 41.79 LIG 0.18  C 
BRANCH 5 6
ATOM      6  N   ILE P   3      18.676  23.664  43.401  1.00 42.70 LIG-0.35  N 
ATOM      7 H    ILE P   3      19.270  23.324  42.881  1.00 42.70 LIG 0.16  HD
ATOM      8  C   ALA P   2      18.721  23.574  44.731  1.00 42.25 LIG 0.24  C 
ATOM      9 O    ALA P   2      17.863  24.055  45.453  1.00 43.48 LIG-0.27  OA
BRANCH 8 10
ATOM     10  CA  ALA P   2      19.897  22.834  45.361  1.00 41.32 LIG 0.17  C 
ATOM     11  CB  ALA P   2      19.426  21.545  45.994  1.00 39.54 LIG 0.04  C 
BRANCH 10 12
ATOM     12  N   ALA P   2      20.454  23.703  46.390  1.00 41.39 LIG-0.35  N 
ATOM     13 H    ALA P   2      20.149  23.556  47.180  1.00 41.39 LIG 0.16  HD
ATOM     14  C   LEU P   1      21.356  24.636  46.108  1.00 41.33 LIG 0.25  C 
ATOM     15 O    LEU P   1      21.799  24.820  44.971  1.00 41.61 LIG-0.27  OA
BRANCH 14 16
ATOM     16  CA  LEU P   1      21.836  25.483  47.287  1.00 40.25 LIG 0.28  C 
BRANCH 16 17
ATOM     17  N   LEU P   1      20.665  26.090  47.971  1.00 40.65 LIG-0.07  N 
ATOM     18 H2   LEU P   1      20.908  26.372  48.779  1.00 40.65 LIG 0.28  HD
ATOM     19 H1   LEU P   1      20.020  25.483  48.050  1.00 40.65 LIG 0.28  HD
ATOM     20 H3   LEU P   1      20.367  26.779  47.494  1.00 40.65 LIG 0.28  HD
ENDBRANCH 16 17
BRANCH 16 21
ATOM     21  CB  LEU P   1      22.611  24.602  48.271  1.00 38.59 LIG 0.05  C 
BRANCH 21 22
ATOM     22  CG  LEU P   1      23.654  25.188  49.232  1.00 36.61 LIG-0.02  C 
ATOM     23  CD2 LEU P   1      24.274  24.051  50.024  1.00 36.34 LIG 0.01  C 
ATOM     24  CD1 LEU P   1      23.032  26.209  50.171  1.00 35.12 LIG 0.01  C 
ENDBRANCH 21 22
ENDBRANCH 16 21
ENDBRANCH 14 16
ENDBRANCH 10 12
ENDBRANCH 8 10
ENDBRANCH 5 6
BRANCH 5 25
ATOM     25  CB  ILE P   3      17.765  24.281  41.175  1.00 41.77 LIG 0.01  C 
ATOM     26  CG2 ILE P   3      17.582  22.830  40.736  1.00 41.93 LIG 0.01  C 
BRANCH 25 27
ATOM     27  CG1 ILE P   3      16.736  25.176  40.474  1.00 42.12 LIG 0.00  C 
ATOM     28  CD1 ILE P   3      15.778  24.463  39.555  1.00 41.36 LIG 0.01  C 
ENDBRANCH 25 27
ENDBRANCH 5 25
ENDBRANCH 1 5
BRANCH 3 29
ATOM     29  CA  TYR P   4      15.020  21.734  43.632  1.00 39.63 LIG 0.18  C 
BRANCH 29 30
ATOM     30  C   TYR P   4      14.211  21.625  42.335  1.00 40.27 LIG 0.24  C 
ATOM     31  N   SER P   5      14.199  20.422  41.809  1.00 40.75 LIG-0.34  N 
ATOM     32 H    SER P   5      14.589  19.748  42.175  1.00 40.75 LIG 0.16  HD
ATOM     33 O    TYR P   4      13.667  22.607  41.846  1.00 40.83 LIG-0.27  OA
BRANCH 31 34
ATOM     34  CA  SER P   5      13.529  20.092  40.552  1.00 41.35 LIG 0.21  C 
BRANCH 34 35
ATOM     35  CB  SER P   5      12.111  19.933  41.117  1.00 41.35 LIG 0.20  C 
BRANCH 35 36
ATOM     36 OG   SER P   5      12.555  19.144  42.203  1.00 42.37 LIG-0.40  OA
ATOM     37 HG   SER P   5      12.752  18.375  41.929  1.00 42.37 LIG 0.21  HD
ENDBRANCH 35 36
ENDBRANCH 34 35
BRANCH 34 38
ATOM     38  C   SER P   5      14.031  20.886  39.360  1.00 41.28 LIG 0.20  C 
ATOM     39 OXT  SER P   5      13.668  20.297  38.161  1.00 41.68 LIG-0.65  OA
ATOM     40 O    SER P   5      14.997  21.638  39.464  1.00 42.12 LIG-0.65  OA
ENDBRANCH 34 38
ENDBRANCH 31 34
ENDBRANCH 29 30
BRANCH 29 41
ATOM     41  CB  TYR P   4      14.301  22.451  44.798  1.00 37.99 LIG 0.07  C 
BRANCH 41 42
ATOM     42  CG  TYR P   4      15.156  23.021  45.940  1.00 35.75 LIG-0.06  A 
ATOM     43  CD2 TYR P   4      15.144  24.397  46.178  1.00 34.88 LIG 0.01  A 
ATOM     44  CE2 TYR P   4      15.878  24.955  47.210  1.00 35.19 LIG 0.04  A 
ATOM     45  CZ  TYR P   4      16.636  24.144  48.023  1.00 34.95 LIG 0.07  A 
ATOM     46  CE1 TYR P   4      16.682  22.775  47.813  1.00 35.39 LIG 0.04  A 
ATOM     47  CD1 TYR P   4      15.941  22.219  46.768  1.00 35.59 LIG 0.01  A 
BRANCH 45 48
ATOM     48 OH   TYR P   4      17.363  24.700  49.055  1.00 35.19 LIG-0.36  OA
ATOM     49 HH   TYR P   4      18.183  24.640  48.883  1.00 35.19 LIG 0.22  HD
ENDBRANCH 45 48
ENDBRANCH 41 42
ENDBRANCH 29 41
ENDBRANCH 3 29
TORSDOF 19
ENDMDL
MODEL 38
USER: ADFR SOLUTION from run 41
USER: SCORE 18.184437 LL:  -4.199 LR: -14.896 RR:   0.000 FEB:  -9.228
USER: RMSD 13.000086
USER: SEED 40
USER: STATUS searching
USER: GENES 21
USER: genes 0 Translation |==|  0.26465 0.39192 0.36370
USER: genes 1 Rotation |==|  0.12170 0.75089 0.61715 0.67383
USER: genes 2 Torsion [N]-C--CA-[N] |==|  0.84679
USER: genes 3 Torsion [C]-CA--N-[C] |==|  0.71111
USER: genes 4 Torsion [N]-C--CA-[N] |==|  0.91237
USER: genes 5 Torsion [C]-CA--N-[C] |==|  0.66692
USER: genes 6 Torsion [N]-C--CA-[N] |==|  0.13260
USER: genes 7 Torsion [C]-CA--N-[H2] |==|  0.21579
USER: genes 8 Torsion [C]-CA--CB-[CG] |==|  0.60190
USER: genes 9 Torsion [CA]-CB--CG-[CD2] |==|  0.59423
USER: genes 10 Torsion [C]-CA--CB-[CG2] |==|  0.34267
USER: genes 11 Torsion [CA]-CB--CG1-[CD1] |==|  0.77550
USER: genes 12 Torsion [C]-N--CA-[CB] |==|  0.85928
USER: genes 13 Torsion [N]-CA--C-[N] |==|  0.35556
USER: genes 14 Torsion [C]-N--CA-[CB] |==|  0.33634
USER: genes 15 Torsion [N]-CA--CB-[OG] |==|  0.21656
USER: genes 16 Torsion [CA]-CB--OG-[HG] |==|  0.79025
USER: genes 17 Torsion [N]-CA--C-[OXT] |==|  0.45849
USER: genes 18 Torsion [N]-CA--CB-[CG] |==|  0.83094
USER: genes 19 Torsion [CA]-CB--CG-[CD2] |==|  0.30238
USER: genes 20 Torsion [CE2]-CZ--OH-[HH] |==|  0.81357
ROOT
ATOM      1  C   ILE P   3       5.439  17.708  37.091  1.00 41.75 LIG 0.24  C 
ATOM      2 O    ILE P   3       4.527  16.919  37.328  1.00 43.02 LIG-0.27  OA
ATOM      3  N   TYR P   4       5.520  18.377  35.953  1.00 40.49 LIG-0.35  N 
ATOM      4 H    TYR P   4       6.101  18.988  35.785  1.00 40.49 LIG 0.16  HD
ENDROOT
BRANCH 1 5
ATOM      5  CA  ILE P   3       6.526  17.969  38.143  1.00 41.79 LIG 0.18  C 
BRANCH 5 6
ATOM      6  N   ILE P   3       7.867  17.747  37.575  1.00 42.70 LIG-0.35  N 
ATOM      7 H    ILE P   3       8.139  18.379  37.060  1.00 42.70 LIG 0.16  HD
ATOM      8  C   ALA P   2       8.585  16.657  37.846  1.00 42.25 LIG 0.24  C 
ATOM      9 O    ALA P   2       8.178  15.765  38.573  1.00 43.48 LIG-0.27  OA
BRANCH 8 10
ATOM     10  CA  ALA P   2       9.966  16.530  37.211  1.00 41.32 LIG 0.17  C 
ATOM     11  CB  ALA P   2      11.006  17.196  38.082  1.00 39.54 LIG 0.04  C 
BRANCH 10 12
ATOM     12  N   ALA P   2       9.912  17.204  35.920  1.00 41.39 LIG-0.35  N 
ATOM     13 H    ALA P   2       9.714  18.039  35.966  1.00 41.39 LIG 0.16  HD
ATOM     14  C   LEU P   1      10.153  16.563  34.782  1.00 41.33 LIG 0.25  C 
ATOM     15 O    LEU P   1      10.458  15.368  34.736  1.00 41.61 LIG-0.27  OA
BRANCH 14 16
ATOM     16  CA  LEU P   1      10.042  17.397  33.506  1.00 40.25 LIG 0.28  C 
BRANCH 16 17
ATOM     17  N   LEU P   1      10.786  18.670  33.679  1.00 40.65 LIG-0.07  N 
ATOM     18 H2   LEU P   1      11.659  18.519  33.588  1.00 40.65 LIG 0.28  HD
ATOM     19 H1   LEU P   1      10.626  19.001  34.490  1.00 40.65 LIG 0.28  HD
ATOM     20 H3   LEU P   1      10.521  19.255  33.063  1.00 40.65 LIG 0.28  HD
ENDBRANCH 16 17
BRANCH 16 21
ATOM     21  CB  LEU P   1      10.627  16.613  32.327  1.00 38.59 LIG 0.05  C 
BRANCH 21 22
ATOM     22  CG  LEU P   1      11.413  17.305  31.206  1.00 36.61 LIG-0.02  C 
ATOM     23  CD2 LEU P   1      11.137  16.580  29.902  1.00 36.34 LIG 0.01  C 
ATOM     24  CD1 LEU P   1      12.905  17.315  31.500  1.00 35.12 LIG 0.01  C 
ENDBRANCH 21 22
ENDBRANCH 16 21
ENDBRANCH 14 16
ENDBRANCH 10 12
ENDBRANCH 8 10
ENDBRANCH 5 6
BRANCH 5 25
ATOM     25  CB  ILE P   3       6.334  19.430  38.567  1.00 41.77 LIG 0.01  C 
ATOM     26  CG2 ILE P   3       6.125  19.480  40.078  1.00 41.93 LIG 0.01  C 
BRANCH 25 27
ATOM     27  CG1 ILE P   3       7.564  20.258  38.180  1.00 42.12 LIG 0.00  C 
ATOM     28  CD1 ILE P   3       8.736  20.158  39.123  1.00 41.36 LIG 0.01  C 
ENDBRANCH 25 27
ENDBRANCH 5 25
ENDBRANCH 1 5
BRANCH 3 29
ATOM     29  CA  TYR P   4       4.593  18.101  34.882  1.00 39.63 LIG 0.18  C 
BRANCH 29 30
ATOM     30  C   TYR P   4       3.279  18.752  35.324  1.00 40.27 LIG 0.24  C 
ATOM     31  N   SER P   5       2.750  19.554  34.429  1.00 40.75 LIG-0.34  N 
ATOM     32 H    SER P   5       3.097  19.682  33.653  1.00 40.75 LIG 0.16  HD
ATOM     33 O    TYR P   4       2.813  18.542  36.437  1.00 40.83 LIG-0.27  OA
BRANCH 31 34
ATOM     34  CA  SER P   5       1.520  20.316  34.648  1.00 41.35 LIG 0.21  C 
BRANCH 34 35
ATOM     35  CB  SER P   5       2.111  21.716  34.432  1.00 41.35 LIG 0.20  C 
BRANCH 35 36
ATOM     36 OG   SER P   5       2.111  21.577  33.024  1.00 42.37 LIG-0.40  OA
ATOM     37 HG   SER P   5       2.742  21.074  32.792  1.00 42.37 LIG 0.21  HD
ENDBRANCH 35 36
ENDBRANCH 34 35
BRANCH 34 38
ATOM     38  C   SER P   5       0.281  19.668  34.058  1.00 41.28 LIG 0.20  C 
ATOM     39 OXT  SER P   5      -0.880  20.229  34.561  1.00 41.68 LIG-0.65  OA
ATOM     40 O    SER P   5       0.323  18.530  33.598  1.00 42.12 LIG-0.65  OA
ENDBRANCH 34 38
ENDBRANCH 31 34
ENDBRANCH 29 30
BRANCH 29 41
ATOM     41  CB  TYR P   4       4.505  16.592  34.558  1.00 37.99 LIG 0.07  C 
BRANCH 41 42
ATOM     42  CG  TYR P   4       5.778  15.871  34.091  1.00 35.75 LIG-0.06  A 
ATOM     43  CD2 TYR P   4       6.402  14.964  34.951  1.00 34.88 LIG 0.01  A 
ATOM     44  CE2 TYR P   4       7.537  14.272  34.567  1.00 35.19 LIG 0.04  A 
ATOM     45  CZ  TYR P   4       8.067  14.475  33.313  1.00 34.95 LIG 0.07  A 
ATOM     46  CE1 TYR P   4       7.484  15.375  32.436  1.00 35.39 LIG 0.04  A 
ATOM     47  CD1 TYR P   4       6.340  16.072  32.830  1.00 35.59 LIG 0.01  A 
BRANCH 45 48
ATOM     48 OH   TYR P   4       9.196  13.782  32.929  1.00 35.19 LIG-0.36  OA
ATOM     49 HH   TYR P   4       9.851  14.036  33.389  1.00 35.19 LIG 0.22  HD
ENDBRANCH 45 48
ENDBRANCH 41 42
ENDBRANCH 29 41
ENDBRANCH 3 29
TORSDOF 19
ENDMDL
MODEL 39
USER: ADFR SOLUTION from run 31
USER: SCORE 17.244783 LL:  -4.153 LR: -14.905 RR:   0.000 FEB:  -9.237
USER: RMSD 11.255439
USER: SEED 30
USER: STATUS no improvement in best 6 clusters for 5 generations
USER: GENES 21
USER: genes 0 Translation |==|  0.65705 0.60011 0.60893
USER: genes 1 Rotation |==|  0.61751 0.02171 0.47723 0.58313
USER: genes 2 Torsion [N]-C--CA-[N] |==|  0.34612
USER: genes 3 Torsion [C]-CA--N-[C] |==|  0.60693
USER: genes 4 Torsion [N]-C--CA-[N] |==|  0.02750
USER: genes 5 Torsion [C]-CA--N-[C] |==|  0.17810
USER: genes 6 Torsion [N]-C--CA-[N] |==|  0.31069
USER: genes 7 Torsion [C]-CA--N-[H2] |==|  0.09067
USER: genes 8 Torsion [C]-CA--CB-[CG] |==|  0.31242
USER: genes 9 Torsion [CA]-CB--CG-[CD2] |==|  0.79644
USER: genes 10 Torsion [C]-CA--CB-[CG2] |==|  0.21956
USER: genes 11 Torsion [CA]-CB--CG1-[CD1] |==|  0.40666
USER: genes 12 Torsion [C]-N--CA-[CB] |==|  0.53339
USER: genes 13 Torsion [N]-CA--C-[N] |==|  0.85353
USER: genes 14 Torsion [C]-N--CA-[CB] |==|  0.28724
USER: genes 15 Torsion [N]-CA--CB-[OG] |==|  0.74930
USER: genes 16 Torsion [CA]-CB--OG-[HG] |==|  0.15167
USER: genes 17 Torsion [N]-CA--C-[OXT] |==|  0.55343
USER: genes 18 Torsion [N]-CA--CB-[CG] |==|  0.14527
USER: genes 19 Torsion [CA]-CB--CG-[CD2] |==|  0.79952
USER: genes 20 Torsion [CE2]-CZ--OH-[HH] |==|  0.83259
ROOT
ATOM      1  C   ILE P   3      17.211  23.953  44.448  1.00 41.75 LIG 0.24  C 
ATOM      2 O    ILE P   3      17.084  24.831  45.299  1.00 43.02 LIG-0.27  OA
ATOM      3  N   TYR P   4      16.390  23.839  43.418  1.00 40.49 LIG-0.35  N 
ATOM      4 H    TYR P   4      16.493  23.286  42.768  1.00 40.49 LIG 0.16  HD
ENDROOT
BRANCH 1 5
ATOM      5  CA  ILE P   3      18.372  22.953  44.539  1.00 41.79 LIG 0.18  C 
BRANCH 5 6
ATOM      6  N   ILE P   3      19.663  23.657  44.632  1.00 42.70 LIG-0.35  N 
ATOM      7 H    ILE P   3      19.641  24.366  45.117  1.00 42.70 LIG 0.16  HD
ATOM      8  C   ALA P   2      20.760  23.219  44.013  1.00 42.25 LIG 0.24  C 
ATOM      9 O    ALA P   2      20.769  22.215  43.321  1.00 43.48 LIG-0.27  OA
BRANCH 8 10
ATOM     10  CA  ALA P   2      22.047  24.021  44.182  1.00 41.32 LIG 0.17  C 
ATOM     11  CB  ALA P   2      23.178  23.111  44.604  1.00 39.54 LIG 0.04  C 
BRANCH 10 12
ATOM     12  N   ALA P   2      21.807  25.010  45.224  1.00 41.39 LIG-0.35  N 
ATOM     13 H    ALA P   2      21.847  25.825  44.954  1.00 41.39 LIG 0.16  HD
ATOM     14  C   LEU P   1      21.550  24.659  46.479  1.00 41.33 LIG 0.25  C 
ATOM     15 O    LEU P   1      21.476  23.483  46.847  1.00 41.61 LIG-0.27  OA
BRANCH 14 16
ATOM     16  CA  LEU P   1      21.337  25.807  47.466  1.00 40.25 LIG 0.28  C 
BRANCH 16 17
ATOM     17  N   LEU P   1      19.918  25.825  47.907  1.00 40.65 LIG-0.07  N 
ATOM     18 H2   LEU P   1      19.604  24.993  47.929  1.00 40.65 LIG 0.28  HD
ATOM     19 H1   LEU P   1      19.436  26.309  47.337  1.00 40.65 LIG 0.28  HD
ATOM     20 H3   LEU P   1      19.864  26.183  48.720  1.00 40.65 LIG 0.28  HD
ENDBRANCH 16 17
BRANCH 16 21
ATOM     21  CB  LEU P   1      22.252  25.620  48.680  1.00 38.59 LIG 0.05  C 
BRANCH 21 22
ATOM     22  CG  LEU P   1      23.418  26.575  48.969  1.00 36.61 LIG-0.02  C 
ATOM     23  CD2 LEU P   1      24.526  26.303  47.969  1.00 36.34 LIG 0.01  C 
ATOM     24  CD1 LEU P   1      23.933  26.406  50.390  1.00 35.12 LIG 0.01  C 
ENDBRANCH 21 22
ENDBRANCH 16 21
ENDBRANCH 14 16
ENDBRANCH 10 12
ENDBRANCH 8 10
ENDBRANCH 5 6
BRANCH 5 25
ATOM     25  CB  ILE P   3      18.094  22.126  45.800  1.00 41.77 LIG 0.01  C 
ATOM     26  CG2 ILE P   3      17.035  21.076  45.477  1.00 41.93 LIG 0.01  C 
BRANCH 25 27
ATOM     27  CG1 ILE P   3      19.382  21.444  46.278  1.00 42.12 LIG 0.00  C 
ATOM     28  CD1 ILE P   3      19.516  21.290  47.772  1.00 41.36 LIG 0.01  C 
ENDBRANCH 25 27
ENDBRANCH 5 25
ENDBRANCH 1 5
BRANCH 3 29
ATOM     29  CA  TYR P   4      15.219  24.679  43.327  1.00 39.63 LIG 0.18  C 
BRANCH 29 30
ATOM     30  C   TYR P   4      14.645  24.706  44.746  1.00 40.27 LIG 0.24  C 
ATOM     31  N   SER P   5      14.447  23.518  45.268  1.00 40.75 LIG-0.34  N 
ATOM     32 H    SER P   5      14.648  22.788  44.858  1.00 40.75 LIG 0.16  HD
ATOM     33 O    TYR P   4      14.375  25.765  45.299  1.00 40.83 LIG-0.27  OA
BRANCH 31 34
ATOM     34  CA  SER P   5      13.867  23.299  46.593  1.00 41.35 LIG 0.21  C 
BRANCH 34 35
ATOM     35  CB  SER P   5      12.464  22.883  46.132  1.00 41.35 LIG 0.20  C 
BRANCH 35 36
ATOM     36 OG   SER P   5      11.983  24.213  46.158  1.00 42.37 LIG-0.40  OA
ATOM     37 HG   SER P   5      12.479  24.700  45.687  1.00 42.37 LIG 0.21  HD
ENDBRANCH 35 36
ENDBRANCH 34 35
BRANCH 34 38
ATOM     38  C   SER P   5      14.816  22.641  47.578  1.00 41.28 LIG 0.20  C 
ATOM     39 OXT  SER P   5      14.137  22.071  48.642  1.00 41.68 LIG-0.65  OA
ATOM     40 O    SER P   5      15.991  22.989  47.651  1.00 42.12 LIG-0.65  OA
ENDBRANCH 34 38
ENDBRANCH 31 34
ENDBRANCH 29 30
BRANCH 29 41
ATOM     41  CB  TYR P   4      14.241  24.202  42.229  1.00 37.99 LIG 0.07  C 
BRANCH 41 42
ATOM     42  CG  TYR P   4      13.790  22.734  42.242  1.00 35.75 LIG-0.06  A 
ATOM     43  CD2 TYR P   4      14.698  21.739  41.872  1.00 34.88 LIG 0.01  A 
ATOM     44  CE2 TYR P   4      14.347  20.401  41.891  1.00 35.19 LIG 0.04  A 
ATOM     45  CZ  TYR P   4      13.080  20.035  42.282  1.00 34.95 LIG 0.07  A 
ATOM     46  CE1 TYR P   4      12.147  20.992  42.645  1.00 35.39 LIG 0.04  A 
ATOM     47  CD1 TYR P   4      12.507  22.341  42.622  1.00 35.59 LIG 0.01  A 
BRANCH 45 48
ATOM     48 OH   TYR P   4      12.731  18.700  42.305  1.00 35.19 LIG-0.36  OA
ATOM     49 HH   TYR P   4      12.807  18.377  41.533  1.00 35.19 LIG 0.22  HD
ENDBRANCH 45 48
ENDBRANCH 41 42
ENDBRANCH 29 41
ENDBRANCH 3 29
TORSDOF 19
ENDMDL
MODEL 40
USER: ADFR SOLUTION from run 64
USER: SCORE 16.252055 LL:  -3.361 LR: -14.901 RR:   0.000 FEB:  -9.234
USER: RMSD 10.640764
USER: SEED 63
USER: STATUS 1 or 2 clusters left
USER: GENES 21
USER: genes 0 Translation |==|  0.65194 0.53996 0.58815
USER: genes 1 Rotation |==|  0.36792 0.72955 0.80484 0.79484
USER: genes 2 Torsion [N]-C--CA-[N] |==|  0.02500
USER: genes 3 Torsion [C]-CA--N-[C] |==|  0.65804
USER: genes 4 Torsion [N]-C--CA-[N] |==|  0.01557
USER: genes 5 Torsion [C]-CA--N-[C] |==|  0.54807
USER: genes 6 Torsion [N]-C--CA-[N] |==|  0.84966
USER: genes 7 Torsion [C]-CA--N-[H2] |==|  0.22445
USER: genes 8 Torsion [C]-CA--CB-[CG] |==|  0.90314
USER: genes 9 Torsion [CA]-CB--CG-[CD2] |==|  0.65955
USER: genes 10 Torsion [C]-CA--CB-[CG2] |==|  0.84873
USER: genes 11 Torsion [CA]-CB--CG1-[CD1] |==|  0.31930
USER: genes 12 Torsion [C]-N--CA-[CB] |==|  0.88889
USER: genes 13 Torsion [N]-CA--C-[N] |==|  0.94662
USER: genes 14 Torsion [C]-N--CA-[CB] |==|  0.76042
USER: genes 15 Torsion [N]-CA--CB-[OG] |==|  0.77853
USER: genes 16 Torsion [CA]-CB--OG-[HG] |==|  0.51933
USER: genes 17 Torsion [N]-CA--C-[OXT] |==|  0.45489
USER: genes 18 Torsion [N]-CA--CB-[CG] |==|  0.84932
USER: genes 19 Torsion [CA]-CB--CG-[CD2] |==|  0.40814
USER: genes 20 Torsion [CE2]-CZ--OH-[HH] |==|  0.68922
ROOT
ATOM      1  C   ILE P   3      17.058  22.149  43.825  1.00 41.75 LIG 0.24  C 
ATOM      2 O    ILE P   3      15.966  21.587  43.780  1.00 43.02 LIG-0.27  OA
ATOM      3  N   TYR P   4      17.177  23.452  44.019  1.00 40.49 LIG-0.35  N 
ATOM      4 H    TYR P   4      17.924  23.864  44.130  1.00 40.49 LIG 0.16  HD
ENDROOT
BRANCH 1 5
ATOM      5  CA  ILE P   3      18.352  21.335  43.680  1.00 41.79 LIG 0.18  C 
BRANCH 5 6
ATOM      6  N   ILE P   3      19.528  22.162  44.002  1.00 42.70 LIG-0.35  N 
ATOM      7 H    ILE P   3      19.507  22.510  44.788  1.00 42.70 LIG 0.16  HD
ATOM      8  C   ALA P   2      20.529  22.344  43.141  1.00 42.25 LIG 0.24  C 
ATOM      9 O    ALA P   2      20.537  21.849  42.026  1.00 43.48 LIG-0.27  OA
BRANCH 8 10
ATOM     10  CA  ALA P   2      21.704  23.213  43.579  1.00 41.32 LIG 0.17  C 
ATOM     11  CB  ALA P   2      23.001  22.449  43.443  1.00 39.54 LIG 0.04  C 
BRANCH 10 12
ATOM     12  N   ALA P   2      21.490  23.555  44.979  1.00 41.39 LIG-0.35  N 
ATOM     13 H    ALA P   2      20.917  23.056  45.382  1.00 41.39 LIG 0.16  HD
ATOM     14  C   LEU P   1      22.135  24.558  45.564  1.00 41.33 LIG 0.25  C 
ATOM     15 O    LEU P   1      22.970  25.253  44.978  1.00 41.61 LIG-0.27  OA
BRANCH 14 16
ATOM     16  CA  LEU P   1      21.794  24.810  47.033  1.00 40.25 LIG 0.28  C 
BRANCH 16 17
ATOM     17  N   LEU P   1      20.326  24.981  47.180  1.00 40.65 LIG-0.07  N 
ATOM     18 H2   LEU P   1      19.934  24.182  47.197  1.00 40.65 LIG 0.28  HD
ATOM     19 H1   LEU P   1      20.011  25.451  46.492  1.00 40.65 LIG 0.28  HD
ATOM     20 H3   LEU P   1      20.152  25.413  47.938  1.00 40.65 LIG 0.28  HD
ENDBRANCH 16 17
BRANCH 16 21
ATOM     21  CB  LEU P   1      22.263  23.623  47.881  1.00 38.59 LIG 0.05  C 
BRANCH 21 22
ATOM     22  CG  LEU P   1      22.219  22.183  47.351  1.00 36.61 LIG-0.02  C 
ATOM     23  CD2 LEU P   1      21.375  21.346  48.296  1.00 36.34 LIG 0.01  C 
ATOM     24  CD1 LEU P   1      23.616  21.596  47.227  1.00 35.12 LIG 0.01  C 
ENDBRANCH 21 22
ENDBRANCH 16 21
ENDBRANCH 14 16
ENDBRANCH 10 12
ENDBRANCH 8 10
ENDBRANCH 5 6
BRANCH 5 25
ATOM     25  CB  ILE P   3      18.205  20.165  44.660  1.00 41.77 LIG 0.01  C 
ATOM     26  CG2 ILE P   3      17.903  20.723  46.048  1.00 41.93 LIG 0.01  C 
BRANCH 25 27
ATOM     27  CG1 ILE P   3      17.071  19.238  44.208  1.00 42.12 LIG 0.00  C 
ATOM     28  CD1 ILE P   3      17.494  17.848  43.805  1.00 41.36 LIG 0.01  C 
ENDBRANCH 25 27
ENDBRANCH 5 25
ENDBRANCH 1 5
BRANCH 3 29
ATOM     29  CA  TYR P   4      16.003  24.290  44.059  1.00 39.63 LIG 0.18  C 
BRANCH 29 30
ATOM     30  C   TYR P   4      15.521  24.222  45.511  1.00 40.27 LIG 0.24  C 
ATOM     31  N   SER P   5      15.984  23.193  46.182  1.00 40.75 LIG-0.34  N 
ATOM     32 H    SER P   5      16.533  22.623  45.844  1.00 40.75 LIG 0.16  HD
ATOM     33 O    TYR P   4      14.743  25.055  45.958  1.00 40.83 LIG-0.27  OA
BRANCH 31 34
ATOM     34  CA  SER P   5      15.626  22.901  47.570  1.00 41.35 LIG 0.21  C 
BRANCH 34 35
ATOM     35  CB  SER P   5      16.687  23.782  48.241  1.00 41.35 LIG 0.20  C 
BRANCH 35 36
ATOM     36 OG   SER P   5      17.708  22.823  48.050  1.00 42.37 LIG-0.40  OA
ATOM     37 HG   SER P   5      18.406  23.072  48.447  1.00 42.37 LIG 0.21  HD
ENDBRANCH 35 36
ENDBRANCH 34 35
BRANCH 34 38
ATOM     38  C   SER P   5      14.130  22.803  47.812  1.00 41.28 LIG 0.20  C 
ATOM     39 OXT  SER P   5      13.845  22.183  49.016  1.00 41.68 LIG-0.65  OA
ATOM     40 O    SER P   5      13.337  22.830  46.875  1.00 42.12 LIG-0.65  OA
ENDBRANCH 34 38
ENDBRANCH 31 34
ENDBRANCH 29 30
BRANCH 29 41
ATOM     41  CB  TYR P   4      14.957  23.880  42.997  1.00 37.99 LIG 0.07  C 
BRANCH 41 42
ATOM     42  CG  TYR P   4      15.403  23.790  41.530  1.00 35.75 LIG-0.06  A 
ATOM     43  CD2 TYR P   4      14.816  22.836  40.697  1.00 34.88 LIG 0.01  A 
ATOM     44  CE2 TYR P   4      15.168  22.732  39.362  1.00 35.19 LIG 0.04  A 
ATOM     45  CZ  TYR P   4      16.113  23.583  38.838  1.00 34.95 LIG 0.07  A 
ATOM     46  CE1 TYR P   4      16.726  24.537  39.635  1.00 35.39 LIG 0.04  A 
ATOM     47  CD1 TYR P   4      16.369  24.635  40.982  1.00 35.59 LIG 0.01  A 
BRANCH 45 48
ATOM     48 OH   TYR P   4      16.460  23.483  37.507  1.00 35.19 LIG-0.36  OA
ATOM     49 HH   TYR P   4      17.250  23.205  37.443  1.00 35.19 LIG 0.22  HD
ENDBRANCH 45 48
ENDBRANCH 41 42
ENDBRANCH 29 41
ENDBRANCH 3 29
TORSDOF 19
ENDMDL
MODEL 41
USER: ADFR SOLUTION from run 9
USER: SCORE 16.641664 LL:  -3.499 LR: -14.866 RR:   0.000 FEB:  -9.198
USER: RMSD 10.890696
USER: SEED 448778
USER: STATUS no improvement in best 2 clusters for 5 generations
USER: GENES 21
USER: genes 0 Translation |==|  0.63601 0.56987 0.55126
USER: genes 1 Rotation |==|  0.13496 0.73019 0.73262 0.59821
USER: genes 2 Torsion [N]-C--CA-[N] |==|  0.33706
USER: genes 3 Torsion [C]-CA--N-[C] |==|  0.18247
USER: genes 4 Torsion [N]-C--CA-[N] |==|  0.90368
USER: genes 5 Torsion [C]-CA--N-[C] |==|  0.83660
USER: genes 6 Torsion [N]-C--CA-[N] |==|  0.10196
USER: genes 7 Torsion [C]-CA--N-[H2] |==|  0.38397
USER: genes 8 Torsion [C]-CA--CB-[CG] |==|  0.78677
USER: genes 9 Torsion [CA]-CB--CG-[CD2] |==|  0.64064
USER: genes 10 Torsion [C]-CA--CB-[CG2] |==|  0.14969
USER: genes 11 Torsion [CA]-CB--CG1-[CD1] |==|  0.37041
USER: genes 12 Torsion [C]-N--CA-[CB] |==|  0.89338
USER: genes 13 Torsion [N]-CA--C-[N] |==|  0.85556
USER: genes 14 Torsion [C]-N--CA-[CB] |==|  0.20344
USER: genes 15 Torsion [N]-CA--CB-[OG] |==|  0.72440
USER: genes 16 Torsion [CA]-CB--OG-[HG] |==|  0.70007
USER: genes 17 Torsion [N]-CA--C-[OXT] |==|  0.56625
USER: genes 18 Torsion [N]-CA--CB-[CG] |==|  0.53923
USER: genes 19 Torsion [CA]-CB--CG-[CD2] |==|  0.27582
USER: genes 20 Torsion [CE2]-CZ--OH-[HH] |==|  0.98689
ROOT
ATOM      1  C   ILE P   3      16.580  23.046  42.718  1.00 41.75 LIG 0.24  C 
ATOM      2 O    ILE P   3      16.115  22.049  43.265  1.00 43.02 LIG-0.27  OA
ATOM      3  N   TYR P   4      15.947  23.683  41.747  1.00 40.49 LIG-0.35  N 
ATOM      4 H    TYR P   4      16.208  24.423  41.395  1.00 40.49 LIG 0.16  HD
ENDROOT
BRANCH 1 5
ATOM      5  CA  ILE P   3      17.931  23.615  43.172  1.00 41.79 LIG 0.18  C 
BRANCH 5 6
ATOM      6  N   ILE P   3      17.901  23.952  44.606  1.00 42.70 LIG-0.35  N 
ATOM      7 H    ILE P   3      17.976  24.792  44.771  1.00 42.70 LIG 0.16  HD
ATOM      8  C   ALA P   2      17.768  23.023  45.554  1.00 42.25 LIG 0.24  C 
ATOM      9 O    ALA P   2      17.673  21.833  45.301  1.00 43.48 LIG-0.27  OA
BRANCH 8 10
ATOM     10  CA  ALA P   2      17.741  23.481  47.009  1.00 41.32 LIG 0.17  C 
ATOM     11  CB  ALA P   2      16.343  23.901  47.400  1.00 39.54 LIG 0.04  C 
BRANCH 10 12
ATOM     12  N   ALA P   2      18.639  24.623  47.120  1.00 41.39 LIG-0.35  N 
ATOM     13 H    ALA P   2      18.262  25.342  47.403  1.00 41.39 LIG 0.16  HD
ATOM     14  C   LEU P   1      19.926  24.537  46.805  1.00 41.33 LIG 0.25  C 
ATOM     15 O    LEU P   1      20.456  23.491  46.420  1.00 41.61 LIG-0.27  OA
BRANCH 14 16
ATOM     16  CA  LEU P   1      20.741  25.823  46.955  1.00 40.25 LIG 0.28  C 
BRANCH 16 17
ATOM     17  N   LEU P   1      20.266  26.575  48.144  1.00 40.65 LIG-0.07  N 
ATOM     18 H2   LEU P   1      20.965  26.900  48.589  1.00 40.65 LIG 0.28  HD
ATOM     19 H1   LEU P   1      19.803  26.031  48.675  1.00 40.65 LIG 0.28  HD
ATOM     20 H3   LEU P   1      19.744  27.246  47.882  1.00 40.65 LIG 0.28  HD
ENDBRANCH 16 17
BRANCH 16 21
ATOM     21  CB  LEU P   1      22.223  25.476  47.121  1.00 38.59 LIG 0.05  C 
BRANCH 21 22
ATOM     22  CG  LEU P   1      22.788  24.952  48.449  1.00 36.61 LIG-0.02  C 
ATOM     23  CD2 LEU P   1      24.005  25.781  48.817  1.00 36.34 LIG 0.01  C 
ATOM     24  CD1 LEU P   1      23.159  23.481  48.351  1.00 35.12 LIG 0.01  C 
ENDBRANCH 21 22
ENDBRANCH 16 21
ENDBRANCH 14 16
ENDBRANCH 10 12
ENDBRANCH 8 10
ENDBRANCH 5 6
BRANCH 5 25
ATOM     25  CB  ILE P   3      18.954  22.512  42.879  1.00 41.77 LIG 0.01  C 
ATOM     26  CG2 ILE P   3      18.832  22.106  41.412  1.00 41.93 LIG 0.01  C 
BRANCH 25 27
ATOM     27  CG1 ILE P   3      20.373  23.016  43.168  1.00 42.12 LIG 0.00  C 
ATOM     28  CD1 ILE P   3      21.242  22.080  43.969  1.00 41.36 LIG 0.01  C 
ENDBRANCH 25 27
ENDBRANCH 5 25
ENDBRANCH 1 5
BRANCH 3 29
ATOM     29  CA  TYR P   4      14.725  23.143  41.201  1.00 39.63 LIG 0.18  C 
BRANCH 29 30
ATOM     30  C   TYR P   4      13.616  23.697  42.099  1.00 40.27 LIG 0.24  C 
ATOM     31  N   SER P   5      13.811  23.495  43.381  1.00 40.75 LIG-0.34  N 
ATOM     32 H    SER P   5      14.515  23.110  43.691  1.00 40.75 LIG 0.16  HD
ATOM     33 O    TYR P   4      12.630  24.244  41.620  1.00 40.83 LIG-0.27  OA
BRANCH 31 34
ATOM     34  CA  SER P   5      12.865  23.900  44.421  1.00 41.35 LIG 0.21  C 
BRANCH 34 35
ATOM     35  CB  SER P   5      11.804  22.824  44.154  1.00 41.35 LIG 0.20  C 
BRANCH 35 36
ATOM     36 OG   SER P   5      10.994  23.708  43.403  1.00 42.37 LIG-0.40  OA
ATOM     37 HG   SER P   5      10.309  23.906  43.847  1.00 42.37 LIG 0.21  HD
ENDBRANCH 35 36
ENDBRANCH 34 35
BRANCH 34 38
ATOM     38  C   SER P   5      13.524  24.334  45.717  1.00 41.28 LIG 0.20  C 
ATOM     39 OXT  SER P   5      12.670  24.197  46.798  1.00 41.68 LIG-0.65  OA
ATOM     40 O    SER P   5      14.469  25.119  45.713  1.00 42.12 LIG-0.65  OA
ENDBRANCH 34 38
ENDBRANCH 31 34
ENDBRANCH 29 30
BRANCH 29 41
ATOM     41  CB  TYR P   4      14.769  21.601  41.083  1.00 37.99 LIG 0.07  C 
BRANCH 41 42
ATOM     42  CG  TYR P   4      13.700  20.905  40.228  1.00 35.75 LIG-0.06  A 
ATOM     43  CD2 TYR P   4      14.017  20.516  38.925  1.00 34.88 LIG 0.01  A 
ATOM     44  CE2 TYR P   4      13.096  19.864  38.124  1.00 35.19 LIG 0.04  A 
ATOM     45  CZ  TYR P   4      11.840  19.590  38.615  1.00 34.95 LIG 0.07  A 
ATOM     46  CE1 TYR P   4      11.484  19.969  39.899  1.00 35.39 LIG 0.04  A 
ATOM     47  CD1 TYR P   4      12.417  20.629  40.701  1.00 35.59 LIG 0.01  A 
BRANCH 45 48
ATOM     48 OH   TYR P   4      10.923  18.935  37.818  1.00 35.19 LIG-0.36  OA
ATOM     49 HH   TYR P   4      11.246  18.828  37.050  1.00 35.19 LIG 0.22  HD
ENDBRANCH 45 48
ENDBRANCH 41 42
ENDBRANCH 29 41
ENDBRANCH 3 29
TORSDOF 19
ENDMDL
MODEL 42
USER: ADFR SOLUTION from run 79
USER: SCORE 18.890166 LL:  -4.344 LR: -14.869 RR:   0.000 FEB:  -9.201
USER: RMSD 9.771930
USER: SEED 78
USER: STATUS no improvement in best 3 clusters for 5 generations
USER: GENES 21
USER: genes 0 Translation |==|  0.59934 0.60058 0.53501
USER: genes 1 Rotation |==|  0.87767 0.26312 0.67688 0.64132
USER: genes 2 Torsion [N]-C--CA-[N] |==|  0.90169
USER: genes 3 Torsion [C]-CA--N-[C] |==|  0.82884
USER: genes 4 Torsion [N]-C--CA-[N] |==|  0.40069
USER: genes 5 Torsion [C]-CA--N-[C] |==|  0.58455
USER: genes 6 Torsion [N]-C--CA-[N] |==|  0.90749
USER: genes 7 Torsion [C]-CA--N-[H2] |==|  0.32441
USER: genes 8 Torsion [C]-CA--CB-[CG] |==|  0.91502
USER: genes 9 Torsion [CA]-CB--CG-[CD2] |==|  0.58564
USER: genes 10 Torsion [C]-CA--CB-[CG2] |==|  0.43558
USER: genes 11 Torsion [CA]-CB--CG1-[CD1] |==|  0.29497
USER: genes 12 Torsion [C]-N--CA-[CB] |==|  0.86111
USER: genes 13 Torsion [N]-CA--C-[N] |==|  0.35389
USER: genes 14 Torsion [C]-N--CA-[CB] |==|  0.35678
USER: genes 15 Torsion [N]-CA--CB-[OG] |==|  0.54135
USER: genes 16 Torsion [CA]-CB--OG-[HG] |==|  0.67803
USER: genes 17 Torsion [N]-CA--C-[OXT] |==|  0.45602
USER: genes 18 Torsion [N]-CA--CB-[CG] |==|  0.85879
USER: genes 19 Torsion [CA]-CB--CG-[CD2] |==|  0.37398
USER: genes 20 Torsion [CE2]-CZ--OH-[HH] |==|  0.86001
ROOT
ATOM      1  C   ILE P   3      15.480  23.968  42.230  1.00 41.75 LIG 0.24  C 
ATOM      2 O    ILE P   3      14.375  24.183  42.722  1.00 43.02 LIG-0.27  OA
ATOM      3  N   TYR P   4      15.864  22.760  41.850  1.00 40.49 LIG-0.35  N 
ATOM      4 H    TYR P   4      16.598  22.588  41.436  1.00 40.49 LIG 0.16  HD
ENDROOT
BRANCH 1 5
ATOM      5  CA  ILE P   3      16.466  25.124  42.011  1.00 41.79 LIG 0.18  C 
BRANCH 5 6
ATOM      6  N   ILE P   3      17.854  24.673  42.212  1.00 42.70 LIG-0.35  N 
ATOM      7 H    ILE P   3      18.350  24.745  41.514  1.00 42.70 LIG 0.16  HD
ATOM      8  C   ALA P   2      18.286  24.197  43.380  1.00 42.25 LIG 0.24  C 
ATOM      9 O    ALA P   2      17.563  24.093  44.357  1.00 43.48 LIG-0.27  OA
BRANCH 8 10
ATOM     10  CA  ALA P   2      19.746  23.764  43.482  1.00 41.32 LIG 0.17  C 
ATOM     11  CB  ALA P   2      19.865  22.271  43.278  1.00 39.54 LIG 0.04  C 
BRANCH 10 12
ATOM     12  N   ALA P   2      20.205  24.107  44.822  1.00 41.39 LIG-0.35  N 
ATOM     13 H    ALA P   2      19.591  24.083  45.423  1.00 41.39 LIG 0.16  HD
ATOM     14  C   LEU P   1      21.471  24.426  45.070  1.00 41.33 LIG 0.25  C 
ATOM     15 O    LEU P   1      22.345  24.434  44.199  1.00 41.61 LIG-0.27  OA
BRANCH 14 16
ATOM     16  CA  LEU P   1      21.801  24.780  46.521  1.00 40.25 LIG 0.28  C 
BRANCH 16 17
ATOM     17  N   LEU P   1      20.634  25.452  47.146  1.00 40.65 LIG-0.07  N 
ATOM     18 H2   LEU P   1      20.328  24.954  47.817  1.00 40.65 LIG 0.28  HD
ATOM     19 H1   LEU P   1      19.991  25.558  46.539  1.00 40.65 LIG 0.28  HD
ATOM     20 H3   LEU P   1      20.881  26.248  47.456  1.00 40.65 LIG 0.28  HD
ENDBRANCH 16 17
BRANCH 16 21
ATOM     21  CB  LEU P   1      22.139  23.503  47.297  1.00 38.59 LIG 0.05  C 
BRANCH 21 22
ATOM     22  CG  LEU P   1      21.508  22.150  46.943  1.00 36.61 LIG-0.02  C 
ATOM     23  CD2 LEU P   1      21.390  21.325  48.212  1.00 36.34 LIG 0.01  C 
ATOM     24  CD1 LEU P   1      22.335  21.409  45.904  1.00 35.12 LIG 0.01  C 
ENDBRANCH 21 22
ENDBRANCH 16 21
ENDBRANCH 14 16
ENDBRANCH 10 12
ENDBRANCH 8 10
ENDBRANCH 5 6
BRANCH 5 25
ATOM     25  CB  ILE P   3      16.232  25.585  40.567  1.00 41.77 LIG 0.01  C 
ATOM     26  CG2 ILE P   3      16.703  27.031  40.431  1.00 41.93 LIG 0.01  C 
BRANCH 25 27
ATOM     27  CG1 ILE P   3      17.004  24.687  39.595  1.00 42.12 LIG 0.00  C 
ATOM     28  CD1 ILE P   3      16.164  23.715  38.805  1.00 41.36 LIG 0.01  C 
ENDBRANCH 25 27
ENDBRANCH 5 25
ENDBRANCH 1 5
BRANCH 3 29
ATOM     29  CA  TYR P   4      15.030  21.614  42.123  1.00 39.63 LIG 0.18  C 
BRANCH 29 30
ATOM     30  C   TYR P   4      13.894  21.704  41.100  1.00 40.27 LIG 0.24  C 
ATOM     31  N   SER P   5      13.714  20.608  40.400  1.00 40.75 LIG-0.34  N 
ATOM     32 H    SER P   5      14.177  19.894  40.523  1.00 40.75 LIG 0.16  HD
ATOM     33 O    TYR P   4      13.254  22.738  40.956  1.00 40.83 LIG-0.27  OA
BRANCH 31 34
ATOM     34  CA  SER P   5      12.716  20.477  39.338  1.00 41.35 LIG 0.21  C 
BRANCH 34 35
ATOM     35  CB  SER P   5      13.654  19.946  38.246  1.00 41.35 LIG 0.20  C 
BRANCH 35 36
ATOM     36 OG   SER P   5      12.718  20.200  37.217  1.00 42.37 LIG-0.40  OA
ATOM     37 HG   SER P   5      12.485  19.474  36.864  1.00 42.37 LIG 0.21  HD
ENDBRANCH 35 36
ENDBRANCH 34 35
BRANCH 34 38
ATOM     38  C   SER P   5      11.372  19.962  39.818  1.00 41.28 LIG 0.20  C 
ATOM     39 OXT  SER P   5      10.375  20.182  38.883  1.00 41.68 LIG-0.65  OA
ATOM     40 O    SER P   5      11.139  19.825  41.016  1.00 42.12 LIG-0.65  OA
ENDBRANCH 34 38
ENDBRANCH 31 34
ENDBRANCH 29 30
BRANCH 29 41
ATOM     41  CB  TYR P   4      14.583  21.556  43.602  1.00 37.99 LIG 0.07  C 
BRANCH 41 42
ATOM     42  CG  TYR P   4      15.656  21.683  44.694  1.00 35.75 LIG-0.06  A 
ATOM     43  CD2 TYR P   4      15.422  22.526  45.782  1.00 34.88 LIG 0.01  A 
ATOM     44  CE2 TYR P   4      16.348  22.656  46.803  1.00 35.19 LIG 0.04  A 
ATOM     45  CZ  TYR P   4      17.524  21.943  46.751  1.00 34.95 LIG 0.07  A 
ATOM     46  CE1 TYR P   4      17.797  21.105  45.682  1.00 35.39 LIG 0.04  A 
ATOM     47  CD1 TYR P   4      16.860  20.980  44.655  1.00 35.59 LIG 0.01  A 
BRANCH 45 48
ATOM     48 OH   TYR P   4      18.444  22.069  47.771  1.00 35.19 LIG-0.36  OA
ATOM     49 HH   TYR P   4      18.592  22.884  47.915  1.00 35.19 LIG 0.22  HD
ENDBRANCH 45 48
ENDBRANCH 41 42
ENDBRANCH 29 41
ENDBRANCH 3 29
TORSDOF 19
ENDMDL
MODEL 43
USER: ADFR SOLUTION from run 104
USER: SCORE 16.689936 LL:  -3.842 LR: -14.840 RR:   0.000 FEB:  -9.173
USER: RMSD 4.693287
USER: SEED 103
USER: STATUS no improvement in best 3 clusters for 5 generations
USER: GENES 21
USER: genes 0 Translation |==|  0.57605 0.61232 0.59212
USER: genes 1 Rotation |==|  0.70132 0.77433 0.36912 0.84217
USER: genes 2 Torsion [N]-C--CA-[N] |==|  0.96049
USER: genes 3 Torsion [C]-CA--N-[C] |==|  0.76060
USER: genes 4 Torsion [N]-C--CA-[N] |==|  0.44877
USER: genes 5 Torsion [C]-CA--N-[C] |==|  0.51684
USER: genes 6 Torsion [N]-C--CA-[N] |==|  0.33083
USER: genes 7 Torsion [C]-CA--N-[H2] |==|  0.05396
USER: genes 8 Torsion [C]-CA--CB-[CG] |==|  0.22309
USER: genes 9 Torsion [CA]-CB--CG-[CD2] |==|  0.59756
USER: genes 10 Torsion [C]-CA--CB-[CG2] |==|  0.59690
USER: genes 11 Torsion [CA]-CB--CG1-[CD1] |==|  0.59996
USER: genes 12 Torsion [C]-N--CA-[CB] |==|  0.39986
USER: genes 13 Torsion [N]-CA--C-[N] |==|  0.07849
USER: genes 14 Torsion [C]-N--CA-[CB] |==|  0.78546
USER: genes 15 Torsion [N]-CA--CB-[OG] |==|  0.87729
USER: genes 16 Torsion [CA]-CB--OG-[HG] |==|  0.55566
USER: genes 17 Torsion [N]-CA--C-[OXT] |==|  0.47984
USER: genes 18 Torsion [N]-CA--CB-[CG] |==|  0.50203
USER: genes 19 Torsion [CA]-CB--CG-[CD2] |==|  0.17948
USER: genes 20 Torsion [CE2]-CZ--OH-[HH] |==|  0.05218
ROOT
ATOM      1  C   ILE P   3      14.781  24.320  43.944  1.00 41.75 LIG 0.24  C 
ATOM      2 O    ILE P   3      15.143  25.468  44.192  1.00 43.02 LIG-0.27  OA
ATOM      3  N   TYR P   4      15.637  23.357  43.642  1.00 40.49 LIG-0.35  N 
ATOM      4 H    TYR P   4      15.426  22.530  43.536  1.00 40.49 LIG 0.16  HD
ENDROOT
BRANCH 1 5
ATOM      5  CA  ILE P   3      13.293  23.949  44.003  1.00 41.79 LIG 0.18  C 
BRANCH 5 6
ATOM      6  N   ILE P   3      13.056  22.636  43.377  1.00 42.70 LIG-0.35  N 
ATOM      7 H    ILE P   3      13.064  21.978  43.930  1.00 42.70 LIG 0.16  HD
ATOM      8  C   ALA P   2      12.851  22.497  42.067  1.00 42.25 LIG 0.24  C 
ATOM      9 O    ALA P   2      12.854  23.442  41.296  1.00 43.48 LIG-0.27  OA
BRANCH 8 10
ATOM     10  CA  ALA P   2      12.608  21.092  41.524  1.00 41.32 LIG 0.17  C 
ATOM     11  CB  ALA P   2      13.917  20.352  41.380  1.00 39.54 LIG 0.04  C 
BRANCH 10 12
ATOM     12  N   ALA P   2      11.987  21.236  40.214  1.00 41.39 LIG-0.35  N 
ATOM     13 H    ALA P   2      11.939  22.047  39.933  1.00 41.39 LIG 0.16  HD
ATOM     14  C   LEU P   1      11.542  20.190  39.528  1.00 41.33 LIG 0.25  C 
ATOM     15 O    LEU P   1      11.639  19.029  39.936  1.00 41.61 LIG-0.27  OA
BRANCH 14 16
ATOM     16  CA  LEU P   1      10.899  20.498  38.175  1.00 40.25 LIG 0.28  C 
BRANCH 16 17
ATOM     17  N   LEU P   1      11.667  19.825  37.096  1.00 40.65 LIG-0.07  N 
ATOM     18 H2   LEU P   1      12.157  19.169  37.445  1.00 40.65 LIG 0.28  HD
ATOM     19 H1   LEU P   1      12.202  20.415  36.700  1.00 40.65 LIG 0.28  HD
ATOM     20 H3   LEU P   1      11.103  19.487  36.497  1.00 40.65 LIG 0.28  HD
ENDBRANCH 16 17
BRANCH 16 21
ATOM     21  CB  LEU P   1       9.451  19.997  38.168  1.00 38.59 LIG 0.05  C 
BRANCH 21 22
ATOM     22  CG  LEU P   1       8.315  20.799  38.817  1.00 36.61 LIG-0.02  C 
ATOM     23  CD2 LEU P   1       7.321  19.825  39.422  1.00 36.34 LIG 0.01  C 
ATOM     24  CD1 LEU P   1       7.625  21.700  37.805  1.00 35.12 LIG 0.01  C 
ENDBRANCH 21 22
ENDBRANCH 16 21
ENDBRANCH 14 16
ENDBRANCH 10 12
ENDBRANCH 8 10
ENDBRANCH 5 6
BRANCH 5 25
ATOM     25  CB  ILE P   3      12.940  23.929  45.494  1.00 41.77 LIG 0.01  C 
ATOM     26  CG2 ILE P   3      11.911  22.829  45.742  1.00 41.93 LIG 0.01  C 
BRANCH 25 27
ATOM     27  CG1 ILE P   3      14.199  23.669  46.331  1.00 42.12 LIG 0.00  C 
ATOM     28  CD1 ILE P   3      13.994  22.825  47.563  1.00 41.36 LIG 0.01  C 
ENDBRANCH 25 27
ENDBRANCH 5 25
ENDBRANCH 1 5
BRANCH 3 29
ATOM     29  CA  TYR P   4      17.037  23.659  43.467  1.00 39.63 LIG 0.18  C 
BRANCH 29 30
ATOM     30  C   TYR P   4      17.186  23.979  41.977  1.00 40.27 LIG 0.24  C 
ATOM     31  N   SER P   5      16.102  24.468  41.421  1.00 40.75 LIG-0.34  N 
ATOM     32 H    SER P   5      15.379  24.621  41.863  1.00 40.75 LIG 0.16  HD
ATOM     33 O    TYR P   4      18.233  23.751  41.383  1.00 40.83 LIG-0.27  OA
BRANCH 31 34
ATOM     34  CA  SER P   5      15.998  24.806  40.002  1.00 41.35 LIG 0.21  C 
BRANCH 34 35
ATOM     35  CB  SER P   5      16.771  26.130  40.054  1.00 41.35 LIG 0.20  C 
BRANCH 35 36
ATOM     36 OG   SER P   5      16.108  26.554  41.230  1.00 42.37 LIG-0.40  OA
ATOM     37 HG   SER P   5      16.178  27.388  41.306  1.00 42.37 LIG 0.21  HD
ENDBRANCH 35 36
ENDBRANCH 34 35
BRANCH 34 38
ATOM     38  C   SER P   5      16.144  23.615  39.073  1.00 41.28 LIG 0.20  C 
ATOM     39 OXT  SER P   5      15.879  23.955  37.758  1.00 41.68 LIG-0.65  OA
ATOM     40 O    SER P   5      16.037  22.468  39.496  1.00 42.12 LIG-0.65  OA
ENDBRANCH 34 38
ENDBRANCH 31 34
ENDBRANCH 29 30
BRANCH 29 41
ATOM     41  CB  TYR P   4      17.950  22.527  43.992  1.00 37.99 LIG 0.07  C 
BRANCH 41 42
ATOM     42  CG  TYR P   4      19.472  22.710  43.891  1.00 35.75 LIG-0.06  A 
ATOM     43  CD2 TYR P   4      20.084  23.731  44.621  1.00 34.88 LIG 0.01  A 
ATOM     44  CE2 TYR P   4      21.454  23.921  44.582  1.00 35.19 LIG 0.04  A 
ATOM     45  CZ  TYR P   4      22.235  23.092  43.810  1.00 34.95 LIG 0.07  A 
ATOM     46  CE1 TYR P   4      21.663  22.075  43.062  1.00 35.39 LIG 0.04  A 
ATOM     47  CD1 TYR P   4      20.280  21.890  43.104  1.00 35.59 LIG 0.01  A 
BRANCH 45 48
ATOM     48 OH   TYR P   4      23.602  23.279  43.774  1.00 35.19 LIG-0.36  OA
ATOM     49 HH   TYR P   4      23.839  23.736  44.438  1.00 35.19 LIG 0.22  HD
ENDBRANCH 45 48
ENDBRANCH 41 42
ENDBRANCH 29 41
ENDBRANCH 3 29
TORSDOF 19
ENDMDL
MODEL 44
USER: ADFR SOLUTION from run 81
USER: SCORE 16.849280 LL:  -3.868 LR: -14.745 RR:   0.000 FEB:  -9.077
USER: RMSD 10.809362
USER: SEED 80
USER: STATUS no improvement in best 2 clusters for 5 generations
USER: GENES 21
USER: genes 0 Translation |==|  0.65797 0.61184 0.56828
USER: genes 1 Rotation |==|  0.68775 0.08096 0.34769 0.62632
USER: genes 2 Torsion [N]-C--CA-[N] |==|  0.52843
USER: genes 3 Torsion [C]-CA--N-[C] |==|  0.14738
USER: genes 4 Torsion [N]-C--CA-[N] |==|  0.23667
USER: genes 5 Torsion [C]-CA--N-[C] |==|  0.77767
USER: genes 6 Torsion [N]-C--CA-[N] |==|  0.87159
USER: genes 7 Torsion [C]-CA--N-[H2] |==|  0.74152
USER: genes 8 Torsion [C]-CA--CB-[CG] |==|  0.30806
USER: genes 9 Torsion [CA]-CB--CG-[CD2] |==|  0.78403
USER: genes 10 Torsion [C]-CA--CB-[CG2] |==|  0.92439
USER: genes 11 Torsion [CA]-CB--CG1-[CD1] |==|  0.96885
USER: genes 12 Torsion [C]-N--CA-[CB] |==|  0.53889
USER: genes 13 Torsion [N]-CA--C-[N] |==|  0.34200
USER: genes 14 Torsion [C]-N--CA-[CB] |==|  0.81454
USER: genes 15 Torsion [N]-CA--CB-[OG] |==|  0.83868
USER: genes 16 Torsion [CA]-CB--OG-[HG] |==|  0.26488
USER: genes 17 Torsion [N]-CA--C-[OXT] |==|  0.13299
USER: genes 18 Torsion [N]-CA--CB-[CG] |==|  0.19963
USER: genes 19 Torsion [CA]-CB--CG-[CD2] |==|  0.72145
USER: genes 20 Torsion [CE2]-CZ--OH-[HH] |==|  0.12096
ROOT
ATOM      1  C   ILE P   3      17.239  24.305  43.228  1.00 41.75 LIG 0.24  C 
ATOM      2 O    ILE P   3      17.294  24.621  44.415  1.00 43.02 LIG-0.27  OA
ATOM      3  N   TYR P   4      16.129  24.412  42.516  1.00 40.49 LIG-0.35  N 
ATOM      4 H    TYR P   4      16.075  24.271  41.670  1.00 40.49 LIG 0.16  HD
ENDROOT
BRANCH 1 5
ATOM      5  CA  ILE P   3      18.493  23.789  42.508  1.00 41.79 LIG 0.18  C 
BRANCH 5 6
ATOM      6  N   ILE P   3      19.567  23.497  43.474  1.00 42.70 LIG-0.35  N 
ATOM      7 H    ILE P   3      20.314  23.881  43.294  1.00 42.70 LIG 0.16  HD
ATOM      8  C   ALA P   2      19.380  22.703  44.529  1.00 42.25 LIG 0.24  C 
ATOM      9 O    ALA P   2      18.314  22.158  44.762  1.00 43.48 LIG-0.27  OA
BRANCH 8 10
ATOM     10  CA  ALA P   2      20.558  22.473  45.472  1.00 41.32 LIG 0.17  C 
ATOM     11  CB  ALA P   2      20.389  21.166  46.212  1.00 39.54 LIG 0.04  C 
BRANCH 10 12
ATOM     12  N   ALA P   2      20.568  23.573  46.428  1.00 41.39 LIG-0.35  N 
ATOM     13 H    ALA P   2      20.223  23.380  47.191  1.00 41.39 LIG 0.16  HD
ATOM     14  C   LEU P   1      21.072  24.763  46.124  1.00 41.33 LIG 0.25  C 
ATOM     15 O    LEU P   1      21.583  25.016  45.029  1.00 41.61 LIG-0.27  OA
BRANCH 14 16
ATOM     16  CA  LEU P   1      20.997  25.824  47.222  1.00 40.25 LIG 0.28  C 
BRANCH 16 17
ATOM     17  N   LEU P   1      19.637  25.825  47.819  1.00 40.65 LIG-0.07  N 
ATOM     18 H2   LEU P   1      19.129  26.425  47.401  1.00 40.65 LIG 0.28  HD
ATOM     19 H1   LEU P   1      19.691  26.032  48.682  1.00 40.65 LIG 0.28  HD
ATOM     20 H3   LEU P   1      19.273  25.018  47.731  1.00 40.65 LIG 0.28  HD
ENDBRANCH 16 17
BRANCH 16 21
ATOM     21  CB  LEU P   1      22.036  25.518  48.305  1.00 38.59 LIG 0.05  C 
BRANCH 21 22
ATOM     22  CG  LEU P   1      23.268  26.408  48.518  1.00 36.61 LIG-0.02  C 
ATOM     23  CD2 LEU P   1      24.289  26.086  47.442  1.00 36.34 LIG 0.01  C 
ATOM     24  CD1 LEU P   1      23.870  26.198  49.899  1.00 35.12 LIG 0.01  C 
ENDBRANCH 21 22
ENDBRANCH 16 21
ENDBRANCH 14 16
ENDBRANCH 10 12
ENDBRANCH 8 10
ENDBRANCH 5 6
BRANCH 5 25
ATOM     25  CB  ILE P   3      18.043  22.522  41.772  1.00 41.77 LIG 0.01  C 
ATOM     26  CG2 ILE P   3      16.863  21.910  42.523  1.00 41.93 LIG 0.01  C 
BRANCH 25 27
ATOM     27  CG1 ILE P   3      17.632  22.864  40.336  1.00 42.12 LIG 0.00  C 
ATOM     28  CD1 ILE P   3      17.496  24.334  40.034  1.00 41.36 LIG 0.01  C 
ENDBRANCH 25 27
ENDBRANCH 5 25
ENDBRANCH 1 5
BRANCH 3 29
ATOM     29  CA  TYR P   4      14.891  24.790  43.155  1.00 39.63 LIG 0.18  C 
BRANCH 29 30
ATOM     30  C   TYR P   4      14.893  24.038  44.489  1.00 40.27 LIG 0.24  C 
ATOM     31  N   SER P   5      14.775  24.813  45.542  1.00 40.75 LIG-0.34  N 
ATOM     32 H    SER P   5      14.677  25.666  45.486  1.00 40.75 LIG 0.16  HD
ATOM     33 O    TYR P   4      15.029  22.822  44.529  1.00 40.83 LIG-0.27  OA
BRANCH 31 34
ATOM     34  CA  SER P   5      14.794  24.321  46.920  1.00 41.35 LIG 0.21  C 
BRANCH 34 35
ATOM     35  CB  SER P   5      13.479  23.532  46.869  1.00 41.35 LIG 0.20  C 
BRANCH 35 36
ATOM     36 OG   SER P   5      12.725  24.674  46.511  1.00 42.37 LIG-0.40  OA
ATOM     37 HG   SER P   5      12.637  24.702  45.676  1.00 42.37 LIG 0.21  HD
ENDBRANCH 35 36
ENDBRANCH 34 35
BRANCH 34 38
ATOM     38  C   SER P   5      16.172  23.910  47.407  1.00 41.28 LIG 0.20  C 
ATOM     39 OXT  SER P   5      17.125  24.872  47.121  1.00 41.68 LIG-0.65  OA
ATOM     40 O    SER P   5      16.454  22.727  47.579  1.00 42.12 LIG-0.65  OA
ENDBRANCH 34 38
ENDBRANCH 31 34
ENDBRANCH 29 30
BRANCH 29 41
ATOM     41  CB  TYR P   4      13.664  24.527  42.252  1.00 37.99 LIG 0.07  C 
BRANCH 41 42
ATOM     42  CG  TYR P   4      13.230  23.073  42.015  1.00 35.75 LIG-0.06  A 
ATOM     43  CD2 TYR P   4      13.593  22.440  40.825  1.00 34.88 LIG 0.01  A 
ATOM     44  CE2 TYR P   4      13.247  21.123  40.576  1.00 35.19 LIG 0.04  A 
ATOM     45  CZ  TYR P   4      12.532  20.417  41.516  1.00 34.95 LIG 0.07  A 
ATOM     46  CE1 TYR P   4      12.144  21.014  42.705  1.00 35.39 LIG 0.04  A 
ATOM     47  CD1 TYR P   4      12.495  22.343  42.949  1.00 35.59 LIG 0.01  A 
BRANCH 45 48
ATOM     48 OH   TYR P   4      12.192  19.103  41.269  1.00 35.19 LIG-0.36  OA
ATOM     49 HH   TYR P   4      12.852  18.700  40.941  1.00 35.19 LIG 0.22  HD
ENDBRANCH 45 48
ENDBRANCH 41 42
ENDBRANCH 29 41
ENDBRANCH 3 29
TORSDOF 19
ENDMDL
MODEL 45
USER: ADFR SOLUTION from run 40
USER: SCORE 18.187853 LL:  -4.601 LR: -14.753 RR:   0.000 FEB:  -9.085
USER: RMSD 10.277340
USER: SEED 39
USER: STATUS no improvement in best 2 clusters for 5 generations
USER: GENES 21
USER: genes 0 Translation |==|  0.64860 0.55884 0.52345
USER: genes 1 Rotation |==|  0.71210 0.48647 0.04835 0.52902
USER: genes 2 Torsion [N]-C--CA-[N] |==|  0.38577
USER: genes 3 Torsion [C]-CA--N-[C] |==|  0.81868
USER: genes 4 Torsion [N]-C--CA-[N] |==|  0.41713
USER: genes 5 Torsion [C]-CA--N-[C] |==|  0.57367
USER: genes 6 Torsion [N]-C--CA-[N] |==|  0.87903
USER: genes 7 Torsion [C]-CA--N-[H2] |==|  0.97820
USER: genes 8 Torsion [C]-CA--CB-[CG] |==|  0.08015
USER: genes 9 Torsion [CA]-CB--CG-[CD2] |==|  0.71560
USER: genes 10 Torsion [C]-CA--CB-[CG2] |==|  0.93219
USER: genes 11 Torsion [CA]-CB--CG1-[CD1] |==|  0.72901
USER: genes 12 Torsion [C]-N--CA-[CB] |==|  0.15000
USER: genes 13 Torsion [N]-CA--C-[N] |==|  0.91108
USER: genes 14 Torsion [C]-N--CA-[CB] |==|  0.44919
USER: genes 15 Torsion [N]-CA--CB-[OG] |==|  0.13241
USER: genes 16 Torsion [CA]-CB--OG-[HG] |==|  0.26238
USER: genes 17 Torsion [N]-CA--C-[OXT] |==|  0.87408
USER: genes 18 Torsion [N]-CA--CB-[CG] |==|  0.10615
USER: genes 19 Torsion [CA]-CB--CG-[CD2] |==|  0.61835
USER: genes 20 Torsion [CE2]-CZ--OH-[HH] |==|  0.30659
ROOT
ATOM      1  C   ILE P   3      16.958  22.715  41.883  1.00 41.75 LIG 0.24  C 
ATOM      2 O    ILE P   3      17.645  21.757  41.538  1.00 43.02 LIG-0.27  OA
ATOM      3  N   TYR P   4      15.731  22.574  42.358  1.00 40.49 LIG-0.35  N 
ATOM      4 H    TYR P   4      15.253  23.214  42.676  1.00 40.49 LIG 0.16  HD
ENDROOT
BRANCH 1 5
ATOM      5  CA  ILE P   3      17.523  24.140  41.799  1.00 41.79 LIG 0.18  C 
BRANCH 5 6
ATOM      6  N   ILE P   3      18.935  24.168  42.219  1.00 42.70 LIG-0.35  N 
ATOM      7 H    ILE P   3      19.484  24.378  41.592  1.00 42.70 LIG 0.16  HD
ATOM      8  C   ALA P   2      19.313  23.889  43.467  1.00 42.25 LIG 0.24  C 
ATOM      9 O    ALA P   2      18.521  23.583  44.343  1.00 43.48 LIG-0.27  OA
BRANCH 8 10
ATOM     10  CA  ALA P   2      20.802  23.954  43.798  1.00 41.32 LIG 0.17  C 
ATOM     11  CB  ALA P   2      21.446  22.604  43.583  1.00 39.54 LIG 0.04  C 
BRANCH 10 12
ATOM     12  N   ALA P   2      20.917  24.327  45.202  1.00 41.39 LIG-0.35  N 
ATOM     13 H    ALA P   2      20.240  24.103  45.683  1.00 41.39 LIG 0.16  HD
ATOM     14  C   LEU P   1      21.985  24.958  45.676  1.00 41.33 LIG 0.25  C 
ATOM     15 O    LEU P   1      22.957  25.253  44.975  1.00 41.61 LIG-0.27  OA
BRANCH 14 16
ATOM     16  CA  LEU P   1      21.956  25.300  47.166  1.00 40.25 LIG 0.28  C 
BRANCH 16 17
ATOM     17  N   LEU P   1      20.618  25.833  47.527  1.00 40.65 LIG-0.07  N 
ATOM     18 H2   LEU P   1      20.137  25.955  46.788  1.00 40.65 LIG 0.28  HD
ATOM     19 H1   LEU P   1      20.712  26.610  47.951  1.00 40.65 LIG 0.28  HD
ATOM     20 H3   LEU P   1      20.201  25.254  48.059  1.00 40.65 LIG 0.28  HD
ENDBRANCH 16 17
BRANCH 16 21
ATOM     21  CB  LEU P   1      22.249  24.041  47.988  1.00 38.59 LIG 0.05  C 
BRANCH 21 22
ATOM     22  CG  LEU P   1      23.120  22.902  47.441  1.00 36.61 LIG-0.02  C 
ATOM     23  CD2 LEU P   1      22.212  21.770  46.996  1.00 36.34 LIG 0.01  C 
ATOM     24  CD1 LEU P   1      24.107  22.409  48.487  1.00 35.12 LIG 0.01  C 
ENDBRANCH 21 22
ENDBRANCH 16 21
ENDBRANCH 14 16
ENDBRANCH 10 12
ENDBRANCH 8 10
ENDBRANCH 5 6
BRANCH 5 25
ATOM     25  CB  ILE P   3      17.369  24.550  40.330  1.00 41.77 LIG 0.01  C 
ATOM     26  CG2 ILE P   3      17.323  23.289  39.470  1.00 41.93 LIG 0.01  C 
BRANCH 25 27
ATOM     27  CG1 ILE P   3      16.083  25.362  40.141  1.00 42.12 LIG 0.00  C 
ATOM     28  CD1 ILE P   3      14.893  24.584  39.641  1.00 41.36 LIG 0.01  C 
ENDBRANCH 25 27
ENDBRANCH 5 25
ENDBRANCH 1 5
BRANCH 3 29
ATOM     29  CA  TYR P   4      15.101  21.276  42.365  1.00 39.63 LIG 0.18  C 
BRANCH 29 30
ATOM     30  C   TYR P   4      13.720  21.513  42.982  1.00 40.27 LIG 0.24  C 
ATOM     31  N   SER P   5      13.690  22.471  43.879  1.00 40.75 LIG-0.34  N 
ATOM     32 H    SER P   5      14.381  22.943  44.082  1.00 40.75 LIG 0.16  HD
ATOM     33 O    TYR P   4      12.759  20.824  42.664  1.00 40.83 LIG-0.27  OA
BRANCH 31 34
ATOM     34  CA  SER P   5      12.491  22.845  44.629  1.00 41.35 LIG 0.21  C 
BRANCH 34 35
ATOM     35  CB  SER P   5      13.193  23.603  45.764  1.00 41.35 LIG 0.20  C 
BRANCH 35 36
ATOM     36 OG   SER P   5      14.001  24.340  44.869  1.00 42.37 LIG-0.40  OA
ATOM     37 HG   SER P   5      13.636  25.079  44.704  1.00 42.37 LIG 0.21  HD
ENDBRANCH 35 36
ENDBRANCH 34 35
BRANCH 34 38
ATOM     38  C   SER P   5      11.318  23.246  43.754  1.00 41.28 LIG 0.20  C 
ATOM     39 OXT  SER P   5      11.705  24.105  42.739  1.00 41.68 LIG-0.65  OA
ATOM     40 O    SER P   5      10.167  23.199  44.180  1.00 42.12 LIG-0.65  OA
ENDBRANCH 34 38
ENDBRANCH 31 34
ENDBRANCH 29 30
BRANCH 29 41
ATOM     41  CB  TYR P   4      15.967  20.210  43.078  1.00 37.99 LIG 0.07  C 
BRANCH 41 42
ATOM     42  CG  TYR P   4      16.748  20.626  44.334  1.00 35.75 LIG-0.06  A 
ATOM     43  CD2 TYR P   4      18.063  20.186  44.494  1.00 34.88 LIG 0.01  A 
ATOM     44  CE2 TYR P   4      18.815  20.553  45.596  1.00 35.19 LIG 0.04  A 
ATOM     45  CZ  TYR P   4      18.263  21.369  46.557  1.00 34.95 LIG 0.07  A 
ATOM     46  CE1 TYR P   4      16.957  21.816  46.439  1.00 35.39 LIG 0.04  A 
ATOM     47  CD1 TYR P   4      16.203  21.440  45.326  1.00 35.59 LIG 0.01  A 
BRANCH 45 48
ATOM     48 OH   TYR P   4      19.015  21.738  47.653  1.00 35.19 LIG-0.36  OA
ATOM     49 HH   TYR P   4      19.196  22.557  47.604  1.00 35.19 LIG 0.22  HD
ENDBRANCH 45 48
ENDBRANCH 41 42
ENDBRANCH 29 41
ENDBRANCH 3 29
TORSDOF 19
ENDMDL
MODEL 46
USER: ADFR SOLUTION from run 60
USER: SCORE 17.645750 LL:  -3.863 LR: -14.724 RR:   0.000 FEB:  -9.057
USER: RMSD 11.162758
USER: SEED 59
USER: STATUS no improvement in best 4 clusters for 5 generations
USER: GENES 21
USER: genes 0 Translation |==|  0.64875 0.55550 0.64778
USER: genes 1 Rotation |==|  0.08517 0.70883 0.59624 0.65825
USER: genes 2 Torsion [N]-C--CA-[N] |==|  0.94709
USER: genes 3 Torsion [C]-CA--N-[C] |==|  0.79340
USER: genes 4 Torsion [N]-C--CA-[N] |==|  0.22574
USER: genes 5 Torsion [C]-CA--N-[C] |==|  0.79615
USER: genes 6 Torsion [N]-C--CA-[N] |==|  0.52404
USER: genes 7 Torsion [C]-CA--N-[H2] |==|  0.00964
USER: genes 8 Torsion [C]-CA--CB-[CG] |==|  0.24280
USER: genes 9 Torsion [CA]-CB--CG-[CD2] |==|  0.02718
USER: genes 10 Torsion [C]-CA--CB-[CG2] |==|  0.90887
USER: genes 11 Torsion [CA]-CB--CG1-[CD1] |==|  0.72768
USER: genes 12 Torsion [C]-N--CA-[CB] |==|  0.17053
USER: genes 13 Torsion [N]-CA--C-[N] |==|  0.65556
USER: genes 14 Torsion [C]-N--CA-[CB] |==|  0.82907
USER: genes 15 Torsion [N]-CA--CB-[OG] |==|  0.79557
USER: genes 16 Torsion [CA]-CB--OG-[HG] |==|  0.68973
USER: genes 17 Torsion [N]-CA--C-[OXT] |==|  0.10108
USER: genes 18 Torsion [N]-CA--CB-[CG] |==|  0.54015
USER: genes 19 Torsion [CA]-CB--CG-[CD2] |==|  0.18671
USER: genes 20 Torsion [CE2]-CZ--OH-[HH] |==|  0.98474
ROOT
ATOM      1  C   ILE P   3      16.962  22.615  45.613  1.00 41.75 LIG 0.24  C 
ATOM      2 O    ILE P   3      16.183  21.691  45.831  1.00 43.02 LIG-0.27  OA
ATOM      3  N   TYR P   4      17.074  23.184  44.424  1.00 40.49 LIG-0.35  N 
ATOM      4 H    TYR P   4      17.553  23.878  44.257  1.00 40.49 LIG 0.16  HD
ENDROOT
BRANCH 1 5
ATOM      5  CA  ILE P   3      17.835  23.171  46.747  1.00 41.79 LIG 0.18  C 
BRANCH 5 6
ATOM      6  N   ILE P   3      18.965  23.946  46.205  1.00 42.70 LIG-0.35  N 
ATOM      7 H    ILE P   3      18.879  24.797  46.289  1.00 42.70 LIG 0.16  HD
ATOM      8  C   ALA P   2      20.021  23.364  45.636  1.00 42.25 LIG 0.24  C 
ATOM      9 O    ALA P   2      20.121  22.154  45.516  1.00 43.48 LIG-0.27  OA
BRANCH 8 10
ATOM     10  CA  ALA P   2      21.140  24.260  45.113  1.00 41.32 LIG 0.17  C 
ATOM     11  CB  ALA P   2      21.975  23.517  44.096  1.00 39.54 LIG 0.04  C 
BRANCH 10 12
ATOM     12  N   ALA P   2      21.974  24.619  46.253  1.00 41.39 LIG-0.35  N 
ATOM     13 H    ALA P   2      22.736  24.222  46.273  1.00 41.39 LIG 0.16  HD
ATOM     14  C   LEU P   1      21.570  25.489  47.172  1.00 41.33 LIG 0.25  C 
ATOM     15 O    LEU P   1      20.481  26.067  47.117  1.00 41.61 LIG-0.27  OA
BRANCH 14 16
ATOM     16  CA  LEU P   1      22.545  25.754  48.320  1.00 40.25 LIG 0.28  C 
BRANCH 16 17
ATOM     17  N   LEU P   1      21.875  26.575  49.360  1.00 40.65 LIG-0.07  N 
ATOM     18 H2   LEU P   1      21.025  26.707  49.133  1.00 40.65 LIG 0.28  HD
ATOM     19 H1   LEU P   1      22.288  27.360  49.432  1.00 40.65 LIG 0.28  HD
ATOM     20 H3   LEU P   1      21.910  26.150  50.141  1.00 40.65 LIG 0.28  HD
ENDBRANCH 16 17
BRANCH 16 21
ATOM     21  CB  LEU P   1      23.000  24.423  48.926  1.00 38.59 LIG 0.05  C 
BRANCH 21 22
ATOM     22  CG  LEU P   1      24.204  23.650  48.370  1.00 36.61 LIG-0.02  C 
ATOM     23  CD2 LEU P   1      24.925  24.534  47.368  1.00 36.34 LIG 0.01  C 
ATOM     24  CD1 LEU P   1      23.771  22.349  47.712  1.00 35.12 LIG 0.01  C 
ENDBRANCH 21 22
ENDBRANCH 16 21
ENDBRANCH 14 16
ENDBRANCH 10 12
ENDBRANCH 8 10
ENDBRANCH 5 6
BRANCH 5 25
ATOM     25  CB  ILE P   3      16.900  24.056  47.580  1.00 41.77 LIG 0.01  C 
ATOM     26  CG2 ILE P   3      15.868  24.691  46.652  1.00 41.93 LIG 0.01  C 
BRANCH 25 27
ATOM     27  CG1 ILE P   3      16.196  23.216  48.652  1.00 42.12 LIG 0.00  C 
ATOM     28  CD1 ILE P   3      14.801  22.762  48.307  1.00 41.36 LIG 0.01  C 
ENDBRANCH 25 27
ENDBRANCH 5 25
ENDBRANCH 1 5
BRANCH 3 29
ATOM     29  CA  TYR P   4      16.361  22.644  43.292  1.00 39.63 LIG 0.18  C 
BRANCH 29 30
ATOM     30  C   TYR P   4      16.876  23.439  42.089  1.00 40.27 LIG 0.24  C 
ATOM     31  N   SER P   5      15.933  24.035  41.396  1.00 40.75 LIG-0.34  N 
ATOM     32 H    SER P   5      15.102  24.004  41.616  1.00 40.75 LIG 0.16  HD
ATOM     33 O    TYR P   4      18.068  23.463  41.810  1.00 40.83 LIG-0.27  OA
BRANCH 31 34
ATOM     34  CA  SER P   5      16.185  24.814  40.184  1.00 41.35 LIG 0.21  C 
BRANCH 34 35
ATOM     35  CB  SER P   5      17.082  25.885  40.817  1.00 41.35 LIG 0.20  C 
BRANCH 35 36
ATOM     36 OG   SER P   5      15.995  26.518  41.463  1.00 42.37 LIG-0.40  OA
ATOM     37 HG   SER P   5      15.863  27.272  41.117  1.00 42.37 LIG 0.21  HD
ENDBRANCH 35 36
ENDBRANCH 34 35
BRANCH 34 38
ATOM     38  C   SER P   5      16.386  23.968  38.940  1.00 41.28 LIG 0.20  C 
ATOM     39 OXT  SER P   5      15.571  22.849  38.943  1.00 41.68 LIG-0.65  OA
ATOM     40 O    SER P   5      17.434  24.024  38.301  1.00 42.12 LIG-0.65  OA
ENDBRANCH 34 38
ENDBRANCH 31 34
ENDBRANCH 29 30
BRANCH 29 41
ATOM     41  CB  TYR P   4      14.829  22.675  43.496  1.00 37.99 LIG 0.07  C 
BRANCH 41 42
ATOM     42  CG  TYR P   4      13.950  21.841  42.551  1.00 35.75 LIG-0.06  A 
ATOM     43  CD2 TYR P   4      14.023  20.448  42.606  1.00 34.88 LIG 0.01  A 
ATOM     44  CE2 TYR P   4      13.234  19.654  41.792  1.00 35.19 LIG 0.04  A 
ATOM     45  CZ  TYR P   4      12.358  20.242  40.909  1.00 34.95 LIG 0.07  A 
ATOM     46  CE1 TYR P   4      12.265  21.621  40.817  1.00 35.39 LIG 0.04  A 
ATOM     47  CD1 TYR P   4      13.065  22.417  41.640  1.00 35.59 LIG 0.01  A 
BRANCH 45 48
ATOM     48 OH   TYR P   4      11.568  19.450  40.101  1.00 35.19 LIG-0.36  OA
ATOM     49 HH   TYR P   4      11.783  18.644  40.204  1.00 35.19 LIG 0.22  HD
ENDBRANCH 45 48
ENDBRANCH 41 42
ENDBRANCH 29 41
ENDBRANCH 3 29
TORSDOF 19
ENDMDL
MODEL 47
USER: ADFR SOLUTION from run 20
USER: SCORE 17.007700 LL:  -3.314 LR: -14.712 RR:   0.000 FEB:  -9.045
USER: RMSD 9.548802
USER: SEED 19
USER: STATUS 1 or 2 clusters left
USER: GENES 21
USER: genes 0 Translation |==|  0.77367 0.58618 0.64931
USER: genes 1 Rotation |==|  0.21687 0.25699 0.24241 0.71079
USER: genes 2 Torsion [N]-C--CA-[N] |==|  0.87277
USER: genes 3 Torsion [C]-CA--N-[C] |==|  0.74005
USER: genes 4 Torsion [N]-C--CA-[N] |==|  0.15474
USER: genes 5 Torsion [C]-CA--N-[C] |==|  0.17843
USER: genes 6 Torsion [N]-C--CA-[N] |==|  0.13070
USER: genes 7 Torsion [C]-CA--N-[H2] |==|  0.73409
USER: genes 8 Torsion [C]-CA--CB-[CG] |==|  0.72441
USER: genes 9 Torsion [CA]-CB--CG-[CD2] |==|  0.69077
USER: genes 10 Torsion [C]-CA--CB-[CG2] |==|  0.21082
USER: genes 11 Torsion [CA]-CB--CG1-[CD1] |==|  0.44171
USER: genes 12 Torsion [C]-N--CA-[CB] |==|  0.79444
USER: genes 13 Torsion [N]-CA--C-[N] |==|  0.19858
USER: genes 14 Torsion [C]-N--CA-[CB] |==|  0.72293
USER: genes 15 Torsion [N]-CA--CB-[OG] |==|  0.85446
USER: genes 16 Torsion [CA]-CB--OG-[HG] |==|  0.23740
USER: genes 17 Torsion [N]-CA--C-[OXT] |==|  0.62250
USER: genes 18 Torsion [N]-CA--CB-[CG] |==|  0.58389
USER: genes 19 Torsion [CA]-CB--CG-[CD2] |==|  0.38705
USER: genes 20 Torsion [CE2]-CZ--OH-[HH] |==|  0.72836
ROOT
ATOM      1  C   ILE P   3      20.710  23.535  45.659  1.00 41.75 LIG 0.24  C 
ATOM      2 O    ILE P   3      21.538  22.630  45.719  1.00 43.02 LIG-0.27  OA
ATOM      3  N   TYR P   4      21.010  24.791  45.950  1.00 40.49 LIG-0.35  N 
ATOM      4 H    TYR P   4      20.477  25.457  45.848  1.00 40.49 LIG 0.16  HD
ENDROOT
BRANCH 1 5
ATOM      5  CA  ILE P   3      19.273  23.238  45.210  1.00 41.79 LIG 0.18  C 
BRANCH 5 6
ATOM      6  N   ILE P   3      18.301  23.913  46.089  1.00 42.70 LIG-0.35  N 
ATOM      7 H    ILE P   3      18.122  24.721  45.858  1.00 42.70 LIG 0.16  HD
ATOM      8  C   ALA P   2      17.755  23.308  47.145  1.00 42.25 LIG 0.24  C 
ATOM      9 O    ALA P   2      18.029  22.163  47.462  1.00 43.48 LIG-0.27  OA
BRANCH 8 10
ATOM     10  CA  ALA P   2      16.753  24.096  47.984  1.00 41.32 LIG 0.17  C 
ATOM     11  CB  ALA P   2      16.152  23.209  49.050  1.00 39.54 LIG 0.04  C 
BRANCH 10 12
ATOM     12  N   ALA P   2      15.701  24.553  47.085  1.00 41.39 LIG-0.35  N 
ATOM     13 H    ALA P   2      15.651  25.407  47.006  1.00 41.39 LIG 0.16  HD
ATOM     14  C   LEU P   1      14.900  23.703  46.453  1.00 41.33 LIG 0.25  C 
ATOM     15 O    LEU P   1      14.999  22.478  46.562  1.00 41.61 LIG-0.27  OA
BRANCH 14 16
ATOM     16  CA  LEU P   1      13.831  24.329  45.556  1.00 40.25 LIG 0.28  C 
BRANCH 16 17
ATOM     17  N   LEU P   1      14.450  25.378  44.706  1.00 40.65 LIG-0.07  N 
ATOM     18 H2   LEU P   1      14.340  26.174  45.088  1.00 40.65 LIG 0.28  HD
ATOM     19 H1   LEU P   1      14.062  25.378  43.905  1.00 40.65 LIG 0.28  HD
ATOM     20 H3   LEU P   1      15.319  25.211  44.614  1.00 40.65 LIG 0.28  HD
ENDBRANCH 16 17
BRANCH 16 21
ATOM     21  CB  LEU P   1      13.205  23.248  44.670  1.00 38.59 LIG 0.05  C 
BRANCH 21 22
ATOM     22  CG  LEU P   1      13.640  23.046  43.212  1.00 36.61 LIG-0.02  C 
ATOM     23  CD2 LEU P   1      12.496  23.461  42.304  1.00 36.34 LIG 0.01  C 
ATOM     24  CD1 LEU P   1      14.029  21.600  42.946  1.00 35.12 LIG 0.01  C 
ENDBRANCH 21 22
ENDBRANCH 16 21
ENDBRANCH 14 16
ENDBRANCH 10 12
ENDBRANCH 8 10
ENDBRANCH 5 6
BRANCH 5 25
ATOM     25  CB  ILE P   3      19.183  23.762  43.772  1.00 41.77 LIG 0.01  C 
ATOM     26  CG2 ILE P   3      19.899  22.782  42.846  1.00 41.93 LIG 0.01  C 
BRANCH 25 27
ATOM     27  CG1 ILE P   3      17.715  23.903  43.353  1.00 42.12 LIG 0.00  C 
ATOM     28  CD1 ILE P   3      17.458  24.840  42.200  1.00 41.36 LIG 0.01  C 
ENDBRANCH 25 27
ENDBRANCH 5 25
ENDBRANCH 1 5
BRANCH 3 29
ATOM     29  CA  TYR P   4      22.311  25.122  46.478  1.00 39.63 LIG 0.18  C 
BRANCH 29 30
ATOM     30  C   TYR P   4      23.305  24.483  45.503  1.00 40.27 LIG 0.24  C 
ATOM     31  N   SER P   5      23.371  25.081  44.336  1.00 40.75 LIG-0.34  N 
ATOM     32 H    SER P   5      22.917  25.786  44.146  1.00 40.75 LIG 0.16  HD
ATOM     33 O    TYR P   4      23.938  23.482  45.812  1.00 40.83 LIG-0.27  OA
BRANCH 31 34
ATOM     34  CA  SER P   5      24.219  24.622  43.235  1.00 41.35 LIG 0.21  C 
BRANCH 34 35
ATOM     35  CB  SER P   5      25.371  25.613  43.443  1.00 41.35 LIG 0.20  C 
BRANCH 35 36
ATOM     36 OG   SER P   5      24.506  26.732  43.433  1.00 42.37 LIG-0.40  OA
ATOM     37 HG   SER P   5      24.198  26.854  44.205  1.00 42.37 LIG 0.21  HD
ENDBRANCH 35 36
ENDBRANCH 34 35
BRANCH 34 38
ATOM     38  C   SER P   5      24.234  23.114  43.059  1.00 41.28 LIG 0.20  C 
ATOM     39 OXT  SER P   5      25.516  22.636  42.847  1.00 41.68 LIG-0.65  OA
ATOM     40 O    SER P   5      23.231  22.512  42.687  1.00 42.12 LIG-0.65  OA
ENDBRANCH 34 38
ENDBRANCH 31 34
ENDBRANCH 29 30
BRANCH 29 41
ATOM     41  CB  TYR P   4      22.469  24.693  47.955  1.00 37.99 LIG 0.07  C 
BRANCH 41 42
ATOM     42  CG  TYR P   4      23.398  25.518  48.859  1.00 35.75 LIG-0.06  A 
ATOM     43  CD2 TYR P   4      23.004  25.791  50.171  1.00 34.88 LIG 0.01  A 
ATOM     44  CE2 TYR P   4      23.816  26.510  51.031  1.00 35.19 LIG 0.04  A 
ATOM     45  CZ  TYR P   4      25.037  26.967  50.592  1.00 34.95 LIG 0.07  A 
ATOM     46  CE1 TYR P   4      25.459  26.726  49.294  1.00 35.39 LIG 0.04  A 
ATOM     47  CD1 TYR P   4      24.633  26.002  48.431  1.00 35.59 LIG 0.01  A 
BRANCH 45 48
ATOM     48 OH   TYR P   4      25.849  27.679  51.451  1.00 35.19 LIG-0.36  OA
ATOM     49 HH   TYR P   4      25.752  28.501  51.310  1.00 35.19 LIG 0.22  HD
ENDBRANCH 45 48
ENDBRANCH 41 42
ENDBRANCH 29 41
ENDBRANCH 3 29
TORSDOF 19
ENDMDL
MODEL 48
USER: ADFR SOLUTION from run 58
USER: SCORE 17.385725 LL:  -5.138 LR: -14.621 RR:   0.000 FEB:  -8.953
USER: RMSD 10.440484
USER: SEED 57
USER: STATUS no improvement in best 4 clusters for 5 generations
USER: GENES 21
USER: genes 0 Translation |==|  0.61605 0.62534 0.49677
USER: genes 1 Rotation |==|  0.70619 0.24474 0.72689 0.80141
USER: genes 2 Torsion [N]-C--CA-[N] |==|  0.90556
USER: genes 3 Torsion [C]-CA--N-[C] |==|  0.87885
USER: genes 4 Torsion [N]-C--CA-[N] |==|  0.42216
USER: genes 5 Torsion [C]-CA--N-[C] |==|  0.63077
USER: genes 6 Torsion [N]-C--CA-[N] |==|  0.04988
USER: genes 7 Torsion [C]-CA--N-[H2] |==|  0.80415
USER: genes 8 Torsion [C]-CA--CB-[CG] |==|  0.44378
USER: genes 9 Torsion [CA]-CB--CG-[CD2] |==|  0.82812
USER: genes 10 Torsion [C]-CA--CB-[CG2] |==|  0.69634
USER: genes 11 Torsion [CA]-CB--CG1-[CD1] |==|  0.49829
USER: genes 12 Torsion [C]-N--CA-[CB] |==|  0.43701
USER: genes 13 Torsion [N]-CA--C-[N] |==|  0.72960
USER: genes 14 Torsion [C]-N--CA-[CB] |==|  0.29992
USER: genes 15 Torsion [N]-CA--CB-[OG] |==|  0.79230
USER: genes 16 Torsion [CA]-CB--OG-[HG] |==|  0.90661
USER: genes 17 Torsion [N]-CA--C-[OXT] |==|  0.27870
USER: genes 18 Torsion [N]-CA--CB-[CG] |==|  0.81502
USER: genes 19 Torsion [CA]-CB--CG-[CD2] |==|  0.62657
USER: genes 20 Torsion [CE2]-CZ--OH-[HH] |==|  0.39518
ROOT
ATOM      1  C   ILE P   3      15.981  24.710  41.083  1.00 41.75 LIG 0.24  C 
ATOM      2 O    ILE P   3      15.217  25.665  40.964  1.00 43.02 LIG-0.27  OA
ATOM      3  N   TYR P   4      15.626  23.588  41.687  1.00 40.49 LIG-0.35  N 
ATOM      4 H    TYR P   4      16.109  22.878  41.723  1.00 40.49 LIG 0.16  HD
ENDROOT
BRANCH 1 5
ATOM      5  CA  ILE P   3      17.399  24.779  40.498  1.00 41.79 LIG 0.18  C 
BRANCH 5 6
ATOM      6  N   ILE P   3      18.345  24.015  41.329  1.00 42.70 LIG-0.35  N 
ATOM      7 H    ILE P   3      18.893  23.528  40.880  1.00 42.70 LIG 0.16  HD
ATOM      8  C   ALA P   2      18.340  24.083  42.661  1.00 42.25 LIG 0.24  C 
ATOM      9 O    ALA P   2      17.547  24.772  43.282  1.00 43.48 LIG-0.27  OA
BRANCH 8 10
ATOM     10  CA  ALA P   2      19.369  23.256  43.426  1.00 41.32 LIG 0.17  C 
ATOM     11  CB  ALA P   2      18.821  21.878  43.719  1.00 39.54 LIG 0.04  C 
BRANCH 10 12
ATOM     12  N   ALA P   2      19.633  23.948  44.681  1.00 41.39 LIG-0.35  N 
ATOM     13 H    ALA P   2      18.926  24.203  45.099  1.00 41.39 LIG 0.16  HD
ATOM     14  C   LEU P   1      20.868  24.156  45.122  1.00 41.33 LIG 0.25  C 
ATOM     15 O    LEU P   1      21.871  23.765  44.519  1.00 41.61 LIG-0.27  OA
BRANCH 14 16
ATOM     16  CA  LEU P   1      20.990  24.912  46.446  1.00 40.25 LIG 0.28  C 
BRANCH 16 17
ATOM     17  N   LEU P   1      19.689  24.871  47.161  1.00 40.65 LIG-0.07  N 
ATOM     18 H2   LEU P   1      19.099  25.382  46.734  1.00 40.65 LIG 0.28  HD
ATOM     19 H1   LEU P   1      19.796  25.174  47.991  1.00 40.65 LIG 0.28  HD
ATOM     20 H3   LEU P   1      19.390  24.034  47.188  1.00 40.65 LIG 0.28  HD
ENDBRANCH 16 17
BRANCH 16 21
ATOM     21  CB  LEU P   1      22.075  24.263  47.310  1.00 38.59 LIG 0.05  C 
BRANCH 21 22
ATOM     22  CG  LEU P   1      22.751  25.019  48.462  1.00 36.61 LIG-0.02  C 
ATOM     23  CD2 LEU P   1      23.474  26.225  47.889  1.00 36.34 LIG 0.01  C 
ATOM     24  CD1 LEU P   1      23.724  24.126  49.215  1.00 35.12 LIG 0.01  C 
ENDBRANCH 21 22
ENDBRANCH 16 21
ENDBRANCH 14 16
ENDBRANCH 10 12
ENDBRANCH 8 10
ENDBRANCH 5 6
BRANCH 5 25
ATOM     25  CB  ILE P   3      17.284  24.182  39.090  1.00 41.77 LIG 0.01  C 
ATOM     26  CG2 ILE P   3      17.982  22.825  39.073  1.00 41.93 LIG 0.01  C 
BRANCH 25 27
ATOM     27  CG1 ILE P   3      15.809  24.018  38.705  1.00 42.12 LIG 0.00  C 
ATOM     28  CD1 ILE P   3      15.558  23.451  37.331  1.00 41.36 LIG 0.01  C 
ENDBRANCH 25 27
ENDBRANCH 5 25
ENDBRANCH 1 5
BRANCH 3 29
ATOM     29  CA  TYR P   4      14.348  23.495  42.350  1.00 39.63 LIG 0.18  C 
BRANCH 29 30
ATOM     30  C   TYR P   4      14.532  24.255  43.667  1.00 40.27 LIG 0.24  C 
ATOM     31  N   SER P   5      14.800  23.487  44.697  1.00 40.75 LIG-0.34  N 
ATOM     32 H    SER P   5      14.892  22.634  44.633  1.00 40.75 LIG 0.16  HD
ATOM     33 O    TYR P   4      14.399  25.471  43.718  1.00 40.83 LIG-0.27  OA
BRANCH 31 34
ATOM     34  CA  SER P   5      14.974  23.988  46.061  1.00 41.35 LIG 0.21  C 
BRANCH 34 35
ATOM     35  CB  SER P   5      13.659  23.450  46.641  1.00 41.35 LIG 0.20  C 
BRANCH 35 36
ATOM     36 OG   SER P   5      12.884  24.439  45.992  1.00 42.37 LIG-0.40  OA
ATOM     37 HG   SER P   5      13.323  25.153  45.945  1.00 42.37 LIG 0.21  HD
ENDBRANCH 35 36
ENDBRANCH 34 35
BRANCH 34 38
ATOM     38  C   SER P   5      16.397  23.882  46.579  1.00 41.28 LIG 0.20  C 
ATOM     39 OXT  SER P   5      17.063  25.092  46.499  1.00 41.68 LIG-0.65  OA
ATOM     40 O    SER P   5      16.981  22.802  46.601  1.00 42.12 LIG-0.65  OA
ENDBRANCH 34 38
ENDBRANCH 31 34
ENDBRANCH 29 30
BRANCH 29 41
ATOM     41  CB  TYR P   4      13.870  22.031  42.496  1.00 37.99 LIG 0.07  C 
BRANCH 41 42
ATOM     42  CG  TYR P   4      13.517  21.250  41.221  1.00 35.75 LIG-0.06  A 
ATOM     43  CD2 TYR P   4      12.342  20.495  41.190  1.00 34.88 LIG 0.01  A 
ATOM     44  CE2 TYR P   4      11.968  19.793  40.057  1.00 35.19 LIG 0.04  A 
ATOM     45  CZ  TYR P   4      12.764  19.837  38.935  1.00 34.95 LIG 0.07  A 
ATOM     46  CE1 TYR P   4      13.942  20.566  38.931  1.00 35.39 LIG 0.04  A 
ATOM     47  CD1 TYR P   4      14.315  21.269  40.078  1.00 35.59 LIG 0.01  A 
BRANCH 45 48
ATOM     48 OH   TYR P   4      12.388  19.141  37.805  1.00 35.19 LIG-0.36  OA
ATOM     49 HH   TYR P   4      12.582  19.591  37.122  1.00 35.19 LIG 0.22  HD
ENDBRANCH 45 48
ENDBRANCH 41 42
ENDBRANCH 29 41
ENDBRANCH 3 29
TORSDOF 19
ENDMDL
MODEL 49
USER: ADFR SOLUTION from run 48
USER: SCORE 17.003767 LL:  -3.556 LR: -14.621 RR:   0.000 FEB:  -8.953
USER: RMSD 11.949465
USER: SEED 47
USER: STATUS no improvement in best 3 clusters for 5 generations
USER: GENES 21
USER: genes 0 Translation |==|  0.34551 0.34172 0.37688
USER: genes 1 Rotation |==|  0.61838 0.70789 0.10239 0.68620
USER: genes 2 Torsion [N]-C--CA-[N] |==|  0.44293
USER: genes 3 Torsion [C]-CA--N-[C] |==|  0.54869
USER: genes 4 Torsion [N]-C--CA-[N] |==|  0.92686
USER: genes 5 Torsion [C]-CA--N-[C] |==|  0.78448
USER: genes 6 Torsion [N]-C--CA-[N] |==|  0.02697
USER: genes 7 Torsion [C]-CA--N-[H2] |==|  0.13030
USER: genes 8 Torsion [C]-CA--CB-[CG] |==|  0.01640
USER: genes 9 Torsion [CA]-CB--CG-[CD2] |==|  0.58899
USER: genes 10 Torsion [C]-CA--CB-[CG2] |==|  0.85025
USER: genes 11 Torsion [CA]-CB--CG1-[CD1] |==|  0.60162
USER: genes 12 Torsion [C]-N--CA-[CB] |==|  0.50000
USER: genes 13 Torsion [N]-CA--C-[N] |==|  0.32002
USER: genes 14 Torsion [C]-N--CA-[CB] |==|  0.22002
USER: genes 15 Torsion [N]-CA--CB-[OG] |==|  0.71334
USER: genes 16 Torsion [CA]-CB--OG-[HG] |==|  0.22774
USER: genes 17 Torsion [N]-CA--C-[OXT] |==|  0.92086
USER: genes 18 Torsion [N]-CA--CB-[CG] |==|  0.62962
USER: genes 19 Torsion [CA]-CB--CG-[CD2] |==|  0.74700
USER: genes 20 Torsion [CE2]-CZ--OH-[HH] |==|  0.29628
ROOT
ATOM      1  C   ILE P   3       7.865  16.202  37.486  1.00 41.75 LIG 0.24  C 
ATOM      2 O    ILE P   3       8.713  16.482  36.642  1.00 43.02 LIG-0.27  OA
ATOM      3  N   TYR P   4       7.585  14.953  37.823  1.00 40.49 LIG-0.35  N 
ATOM      4 H    TYR P   4       7.054  14.726  38.459  1.00 40.49 LIG 0.16  HD
ENDROOT
BRANCH 1 5
ATOM      5  CA  ILE P   3       7.104  17.318  38.215  1.00 41.79 LIG 0.18  C 
BRANCH 5 6
ATOM      6  N   ILE P   3       7.828  18.597  38.114  1.00 42.70 LIG-0.35  N 
ATOM      7 H    ILE P   3       8.421  18.616  37.491  1.00 42.70 LIG 0.16  HD
ATOM      8  C   ALA P   2       7.575  19.625  38.924  1.00 42.25 LIG 0.24  C 
ATOM      9 O    ALA P   2       6.737  19.575  39.809  1.00 43.48 LIG-0.27  OA
BRANCH 8 10
ATOM     10  CA  ALA P   2       8.379  20.907  38.729  1.00 41.32 LIG 0.17  C 
ATOM     11  CB  ALA P   2       7.643  21.850  37.805  1.00 39.54 LIG 0.04  C 
BRANCH 10 12
ATOM     12  N   ALA P   2       9.651  20.533  38.124  1.00 41.39 LIG-0.35  N 
ATOM     13 H    ALA P   2       9.701  20.689  37.280  1.00 41.39 LIG 0.16  HD
ATOM     14  C   LEU P   1      10.636  19.997  38.836  1.00 41.33 LIG 0.25  C 
ATOM     15 O    LEU P   1      10.555  19.799  40.052  1.00 41.61 LIG-0.27  OA
BRANCH 14 16
ATOM     16  CA  LEU P   1      11.905  19.639  38.062  1.00 40.25 LIG 0.28  C 
BRANCH 16 17
ATOM     17  N   LEU P   1      11.824  20.200  36.690  1.00 40.65 LIG-0.07  N 
ATOM     18 H2   LEU P   1      11.557  21.048  36.731  1.00 40.65 LIG 0.28  HD
ATOM     19 H1   LEU P   1      11.242  19.729  36.209  1.00 40.65 LIG 0.28  HD
ATOM     20 H3   LEU P   1      12.625  20.160  36.305  1.00 40.65 LIG 0.28  HD
ENDBRANCH 16 17
BRANCH 16 21
ATOM     21  CB  LEU P   1      13.127  20.214  38.784  1.00 38.59 LIG 0.05  C 
BRANCH 21 22
ATOM     22  CG  LEU P   1      13.010  20.901  40.152  1.00 36.61 LIG-0.02  C 
ATOM     23  CD2 LEU P   1      14.065  21.989  40.238  1.00 36.34 LIG 0.01  C 
ATOM     24  CD1 LEU P   1      13.181  19.905  41.288  1.00 35.12 LIG 0.01  C 
ENDBRANCH 21 22
ENDBRANCH 16 21
ENDBRANCH 14 16
ENDBRANCH 10 12
ENDBRANCH 8 10
ENDBRANCH 5 6
BRANCH 5 25
ATOM     25  CB  ILE P   3       5.738  17.393  37.522  1.00 41.77 LIG 0.01  C 
ATOM     26  CG2 ILE P   3       5.957  17.570  36.022  1.00 41.93 LIG 0.01  C 
BRANCH 25 27
ATOM     27  CG1 ILE P   3       4.939  16.112  37.789  1.00 42.12 LIG 0.00  C 
ATOM     28  CD1 ILE P   3       4.093  15.625  36.641  1.00 41.36 LIG 0.01  C 
ENDBRANCH 25 27
ENDBRANCH 5 25
ENDBRANCH 1 5
BRANCH 3 29
ATOM     29  CA  TYR P   4       8.188  13.856  37.106  1.00 39.63 LIG 0.18  C 
BRANCH 29 30
ATOM     30  C   TYR P   4       7.852  14.117  35.635  1.00 40.27 LIG 0.24  C 
ATOM     31  N   SER P   5       8.898  14.356  34.879  1.00 40.75 LIG-0.34  N 
ATOM     32 H    SER P   5       9.704  14.340  35.179  1.00 40.75 LIG 0.16  HD
ATOM     33 O    TYR P   4       6.691  14.128  35.244  1.00 40.83 LIG-0.27  OA
BRANCH 31 34
ATOM     34  CA  SER P   5       8.816  14.674  33.454  1.00 41.35 LIG 0.21  C 
BRANCH 34 35
ATOM     35  CB  SER P   5       8.427  16.151  33.600  1.00 41.35 LIG 0.20  C 
BRANCH 35 36
ATOM     36 OG   SER P   5       7.071  15.900  33.285  1.00 42.37 LIG-0.40  OA
ATOM     37 HG   SER P   5       6.670  15.627  33.970  1.00 42.37 LIG 0.21  HD
ENDBRANCH 35 36
ENDBRANCH 34 35
BRANCH 34 38
ATOM     38  C   SER P   5       9.896  14.018  32.613  1.00 41.28 LIG 0.20  C 
ATOM     39 OXT  SER P   5      11.051  13.798  33.344  1.00 41.68 LIG-0.65  OA
ATOM     40 O    SER P   5       9.895  14.123  31.390  1.00 42.12 LIG-0.65  OA
ENDBRANCH 34 38
ENDBRANCH 31 34
ENDBRANCH 29 30
BRANCH 29 41
ATOM     41  CB  TYR P   4       7.734  12.482  37.651  1.00 37.99 LIG 0.07  C 
BRANCH 41 42
ATOM     42  CG  TYR P   4       8.804  11.409  37.907  1.00 35.75 LIG-0.06  A 
ATOM     43  CD2 TYR P   4       9.126  10.512  36.886  1.00 34.88 LIG 0.01  A 
ATOM     44  CE2 TYR P   4      10.099   9.544  37.060  1.00 35.19 LIG 0.04  A 
ATOM     45  CZ  TYR P   4      10.769   9.459  38.259  1.00 34.95 LIG 0.07  A 
ATOM     46  CE1 TYR P   4      10.470  10.324  39.300  1.00 35.39 LIG 0.04  A 
ATOM     47  CD1 TYR P   4       9.485  11.297  39.118  1.00 35.59 LIG 0.01  A 
BRANCH 45 48
ATOM     48 OH   TYR P   4      11.743   8.497  38.431  1.00 35.19 LIG-0.36  OA
ATOM     49 HH   TYR P   4      12.500   8.860  38.419  1.00 35.19 LIG 0.22  HD
ENDBRANCH 45 48
ENDBRANCH 41 42
ENDBRANCH 29 41
ENDBRANCH 3 29
TORSDOF 19
ENDMDL
MODEL 50
USER: ADFR SOLUTION from run 89
USER: SCORE 16.386523 LL:  -4.156 LR: -14.599 RR:   0.000 FEB:  -8.931
USER: RMSD 9.460548
USER: SEED 88
USER: STATUS 1 or 2 clusters left
USER: GENES 21
USER: genes 0 Translation |==|  0.51612 0.51901 0.54824
USER: genes 1 Rotation |==|  0.03165 0.49535 0.65906 0.57298
USER: genes 2 Torsion [N]-C--CA-[N] |==|  0.55038
USER: genes 3 Torsion [C]-CA--N-[C] |==|  0.56546
USER: genes 4 Torsion [N]-C--CA-[N] |==|  0.23952
USER: genes 5 Torsion [C]-CA--N-[C] |==|  0.77640
USER: genes 6 Torsion [N]-C--CA-[N] |==|  0.09986
USER: genes 7 Torsion [C]-CA--N-[H2] |==|  0.43748
USER: genes 8 Torsion [C]-CA--CB-[CG] |==|  0.91079
USER: genes 9 Torsion [CA]-CB--CG-[CD2] |==|  0.81956
USER: genes 10 Torsion [C]-CA--CB-[CG2] |==|  0.25116
USER: genes 11 Torsion [CA]-CB--CG1-[CD1] |==|  0.34309
USER: genes 12 Torsion [C]-N--CA-[CB] |==|  0.39504
USER: genes 13 Torsion [N]-CA--C-[N] |==|  0.99444
USER: genes 14 Torsion [C]-N--CA-[CB] |==|  0.23505
USER: genes 15 Torsion [N]-CA--CB-[OG] |==|  0.50949
USER: genes 16 Torsion [CA]-CB--OG-[HG] |==|  0.95282
USER: genes 17 Torsion [N]-CA--C-[OXT] |==|  0.99561
USER: genes 18 Torsion [N]-CA--CB-[CG] |==|  0.61771
USER: genes 19 Torsion [CA]-CB--CG-[CD2] |==|  0.87701
USER: genes 20 Torsion [CE2]-CZ--OH-[HH] |==|  0.13403
ROOT
ATOM      1  C   ILE P   3      12.983  21.520  42.627  1.00 41.75 LIG 0.24  C 
ATOM      2 O    ILE P   3      13.319  20.383  42.950  1.00 43.02 LIG-0.27  OA
ATOM      3  N   TYR P   4      12.576  21.819  41.405  1.00 40.49 LIG-0.35  N 
ATOM      4 H    TYR P   4      12.265  22.584  41.166  1.00 40.49 LIG 0.16  HD
ENDROOT
BRANCH 1 5
ATOM      5  CA  ILE P   3      13.000  22.653  43.663  1.00 41.79 LIG 0.18  C 
BRANCH 5 6
ATOM      6  N   ILE P   3      13.856  22.301  44.809  1.00 42.70 LIG-0.35  N 
ATOM      7 H    ILE P   3      14.457  21.712  44.630  1.00 42.70 LIG 0.16  HD
ATOM      8  C   ALA P   2      13.700  22.854  46.012  1.00 42.25 LIG 0.24  C 
ATOM      9 O    ALA P   2      12.836  23.681  46.249  1.00 43.48 LIG-0.27  OA
BRANCH 8 10
ATOM     10  CA  ALA P   2      14.647  22.423  47.129  1.00 41.32 LIG 0.17  C 
ATOM     11  CB  ALA P   2      13.995  22.629  48.476  1.00 39.54 LIG 0.04  C 
BRANCH 10 12
ATOM     12  N   ALA P   2      15.837  23.258  47.034  1.00 41.39 LIG-0.35  N 
ATOM     13 H    ALA P   2      15.852  23.916  47.587  1.00 41.39 LIG 0.16  HD
ATOM     14  C   LEU P   1      16.804  23.007  46.159  1.00 41.33 LIG 0.25  C 
ATOM     15 O    LEU P   1      16.776  22.046  45.385  1.00 41.61 LIG-0.27  OA
BRANCH 14 16
ATOM     16  CA  LEU P   1      17.983  23.981  46.163  1.00 40.25 LIG 0.28  C 
BRANCH 16 17
ATOM     17  N   LEU P   1      18.257  24.421  47.555  1.00 40.65 LIG-0.07  N 
ATOM     18 H2   LEU P   1      19.098  24.706  47.616  1.00 40.65 LIG 0.28  HD
ATOM     19 H1   LEU P   1      18.133  23.739  48.113  1.00 40.65 LIG 0.28  HD
ATOM     20 H3   LEU P   1      17.704  25.084  47.771  1.00 40.65 LIG 0.28  HD
ENDBRANCH 16 17
BRANCH 16 21
ATOM     21  CB  LEU P   1      19.222  23.290  45.587  1.00 38.59 LIG 0.05  C 
BRANCH 21 22
ATOM     22  CG  LEU P   1      19.467  21.786  45.765  1.00 36.61 LIG-0.02  C 
ATOM     23  CD2 LEU P   1      19.671  21.501  47.243  1.00 36.34 LIG 0.01  C 
ATOM     24  CD1 LEU P   1      20.674  21.322  44.965  1.00 35.12 LIG 0.01  C 
ENDBRANCH 21 22
ENDBRANCH 16 21
ENDBRANCH 14 16
ENDBRANCH 10 12
ENDBRANCH 8 10
ENDBRANCH 5 6
BRANCH 5 25
ATOM     25  CB  ILE P   3      13.544  23.876  42.915  1.00 41.77 LIG 0.01  C 
ATOM     26  CG2 ILE P   3      12.372  24.641  42.305  1.00 41.93 LIG 0.01  C 
BRANCH 25 27
ATOM     27  CG1 ILE P   3      14.318  24.783  43.879  1.00 42.12 LIG 0.00  C 
ATOM     28  CD1 ILE P   3      15.745  25.074  43.489  1.00 41.36 LIG 0.01  C 
ENDBRANCH 25 27
ENDBRANCH 5 25
ENDBRANCH 1 5
BRANCH 3 29
ATOM     29  CA  TYR P   4      12.635  20.828  40.358  1.00 39.63 LIG 0.18  C 
BRANCH 29 30
ATOM     30  C   TYR P   4      13.998  21.040  39.693  1.00 40.27 LIG 0.24  C 
ATOM     31  N   SER P   5      14.690  22.037  40.194  1.00 40.75 LIG-0.34  N 
ATOM     32 H    SER P   5      14.414  22.511  40.856  1.00 40.75 LIG 0.16  HD
ATOM     33 O    TYR P   4      14.359  20.341  38.754  1.00 40.83 LIG-0.27  OA
BRANCH 31 34
ATOM     34  CA  SER P   5      15.999  22.451  39.689  1.00 41.35 LIG 0.21  C 
BRANCH 34 35
ATOM     35  CB  SER P   5      15.500  23.358  38.557  1.00 41.35 LIG 0.20  C 
BRANCH 35 36
ATOM     36 OG   SER P   5      16.810  23.628  38.098  1.00 42.37 LIG-0.40  OA
ATOM     37 HG   SER P   5      17.364  23.423  38.695  1.00 42.37 LIG 0.21  HD
ENDBRANCH 35 36
ENDBRANCH 34 35
BRANCH 34 38
ATOM     38  C   SER P   5      17.025  22.708  40.778  1.00 41.28 LIG 0.20  C 
ATOM     39 OXT  SER P   5      16.488  22.527  42.041  1.00 41.68 LIG-0.65  OA
ATOM     40 O    SER P   5      18.003  23.420  40.569  1.00 42.12 LIG-0.65  OA
ENDBRANCH 34 38
ENDBRANCH 31 34
ENDBRANCH 29 30
BRANCH 29 41
ATOM     41  CB  TYR P   4      11.418  20.909  39.407  1.00 37.99 LIG 0.07  C 
BRANCH 41 42
ATOM     42  CG  TYR P   4      10.756  19.598  38.956  1.00 35.75 LIG-0.06  A 
ATOM     43  CD2 TYR P   4      11.563  18.530  38.557  1.00 34.88 LIG 0.01  A 
ATOM     44  CE2 TYR P   4      11.015  17.321  38.166  1.00 35.19 LIG 0.04  A 
ATOM     45  CZ  TYR P   4       9.649  17.160  38.169  1.00 34.95 LIG 0.07  A 
ATOM     46  CE1 TYR P   4       8.814  18.199  38.548  1.00 35.39 LIG 0.04  A 
ATOM     47  CD1 TYR P   4       9.374  19.417  38.939  1.00 35.59 LIG 0.01  A 
BRANCH 45 48
ATOM     48 OH   TYR P   4       9.103  15.953  37.784  1.00 35.19 LIG-0.36  OA
ATOM     49 HH   TYR P   4       9.500  15.327  38.180  1.00 35.19 LIG 0.22  HD
ENDBRANCH 45 48
ENDBRANCH 41 42
ENDBRANCH 29 41
ENDBRANCH 3 29
TORSDOF 19
ENDMDL
MODEL 51
USER: ADFR SOLUTION from run 8
USER: SCORE 18.223507 LL:  -4.372 LR: -14.575 RR:   0.000 FEB:  -8.908
USER: RMSD 11.142647
USER: SEED 348892
USER: STATUS no improvement in best 9 clusters for 5 generations
USER: GENES 21
USER: genes 0 Translation |==|  0.68467 0.55519 0.62923
USER: genes 1 Rotation |==|  0.38737 0.06316 0.71445 0.52216
USER: genes 2 Torsion [N]-C--CA-[N] |==|  0.39231
USER: genes 3 Torsion [C]-CA--N-[C] |==|  0.79079
USER: genes 4 Torsion [N]-C--CA-[N] |==|  0.91246
USER: genes 5 Torsion [C]-CA--N-[C] |==|  0.83196
USER: genes 6 Torsion [N]-C--CA-[N] |==|  0.80415
USER: genes 7 Torsion [C]-CA--N-[H2] |==|  0.64049
USER: genes 8 Torsion [C]-CA--CB-[CG] |==|  0.78725
USER: genes 9 Torsion [CA]-CB--CG-[CD2] |==|  0.66954
USER: genes 10 Torsion [C]-CA--CB-[CG2] |==|  0.87827
USER: genes 11 Torsion [CA]-CB--CG1-[CD1] |==|  0.42869
USER: genes 12 Torsion [C]-N--CA-[CB] |==|  0.80551
USER: genes 13 Torsion [N]-CA--C-[N] |==|  0.14284
USER: genes 14 Torsion [C]-N--CA-[CB] |==|  0.30161
USER: genes 15 Torsion [N]-CA--CB-[OG] |==|  0.59564
USER: genes 16 Torsion [CA]-CB--OG-[HG] |==|  0.89552
USER: genes 17 Torsion [N]-CA--C-[OXT] |==|  0.98531
USER: genes 18 Torsion [N]-CA--CB-[CG] |==|  0.89709
USER: genes 19 Torsion [CA]-CB--CG-[CD2] |==|  0.32352
USER: genes 20 Torsion [CE2]-CZ--OH-[HH] |==|  0.94349
ROOT
ATOM      1  C   ILE P   3      18.040  22.606  45.057  1.00 41.75 LIG 0.24  C 
ATOM      2 O    ILE P   3      18.633  23.647  44.784  1.00 43.02 LIG-0.27  OA
ATOM      3  N   TYR P   4      17.346  21.929  44.157  1.00 40.49 LIG-0.35  N 
ATOM      4 H    TYR P   4      16.983  21.162  44.295  1.00 40.49 LIG 0.16  HD
ENDROOT
BRANCH 1 5
ATOM      5  CA  ILE P   3      18.109  22.027  46.477  1.00 41.79 LIG 0.18  C 
BRANCH 5 6
ATOM      6  N   ILE P   3      19.452  22.217  47.054  1.00 42.70 LIG-0.35  N 
ATOM      7 H    ILE P   3      19.496  22.843  47.642  1.00 42.70 LIG 0.16  HD
ATOM      8  C   ALA P   2      20.497  21.476  46.686  1.00 42.25 LIG 0.24  C 
ATOM      9 O    ALA P   2      20.418  20.599  45.842  1.00 43.48 LIG-0.27  OA
BRANCH 8 10
ATOM     10  CA  ALA P   2      21.842  21.751  47.352  1.00 41.32 LIG 0.17  C 
ATOM     11  CB  ALA P   2      21.969  20.950  48.627  1.00 39.54 LIG 0.04  C 
BRANCH 10 12
ATOM     12  N   ALA P   2      21.886  23.173  47.668  1.00 41.39 LIG-0.35  N 
ATOM     13 H    ALA P   2      21.972  23.347  48.505  1.00 41.39 LIG 0.16  HD
ATOM     14  C   LEU P   1      21.797  24.105  46.726  1.00 41.33 LIG 0.25  C 
ATOM     15 O    LEU P   1      21.694  23.838  45.525  1.00 41.61 LIG-0.27  OA
BRANCH 14 16
ATOM     16  CA  LEU P   1      21.840  25.555  47.209  1.00 40.25 LIG 0.28  C 
BRANCH 16 17
ATOM     17  N   LEU P   1      20.581  25.875  47.929  1.00 40.65 LIG-0.07  N 
ATOM     18 H2   LEU P   1      20.236  26.628  47.604  1.00 40.65 LIG 0.28  HD
ATOM     19 H1   LEU P   1      20.752  25.978  48.797  1.00 40.65 LIG 0.28  HD
ATOM     20 H3   LEU P   1      19.999  25.211  47.819  1.00 40.65 LIG 0.28  HD
ENDBRANCH 16 17
BRANCH 16 21
ATOM     21  CB  LEU P   1      23.035  25.749  48.148  1.00 38.59 LIG 0.05  C 
BRANCH 21 22
ATOM     22  CG  LEU P   1      23.013  25.251  49.599  1.00 36.61 LIG-0.02  C 
ATOM     23  CD2 LEU P   1      23.180  26.445  50.522  1.00 36.34 LIG 0.01  C 
ATOM     24  CD1 LEU P   1      24.111  24.230  49.851  1.00 35.12 LIG 0.01  C 
ENDBRANCH 21 22
ENDBRANCH 16 21
ENDBRANCH 14 16
ENDBRANCH 10 12
ENDBRANCH 8 10
ENDBRANCH 5 6
BRANCH 5 25
ATOM     25  CB  ILE P   3      17.045  22.789  47.276  1.00 41.77 LIG 0.01  C 
ATOM     26  CG2 ILE P   3      17.138  24.273  46.928  1.00 41.93 LIG 0.01  C 
BRANCH 25 27
ATOM     27  CG1 ILE P   3      15.649  22.256  46.936  1.00 42.12 LIG 0.00  C 
ATOM     28  CD1 ILE P   3      14.606  22.442  48.009  1.00 41.36 LIG 0.01  C 
ENDBRANCH 25 27
ENDBRANCH 5 25
ENDBRANCH 1 5
BRANCH 3 29
ATOM     29  CA  TYR P   4      17.153  22.469  42.833  1.00 39.63 LIG 0.18  C 
BRANCH 29 30
ATOM     30  C   TYR P   4      18.567  22.737  42.309  1.00 40.27 LIG 0.24  C 
ATOM     31  N   SER P   5      19.380  21.712  42.409  1.00 40.75 LIG-0.34  N 
ATOM     32 H    SER P   5      19.133  20.947  42.717  1.00 40.75 LIG 0.16  HD
ATOM     33 O    TYR P   4      18.881  23.838  41.873  1.00 40.83 LIG-0.27  OA
BRANCH 31 34
ATOM     34  CA  SER P   5      20.788  21.749  42.012  1.00 41.35 LIG 0.21  C 
BRANCH 34 35
ATOM     35  CB  SER P   5      21.394  21.709  43.421  1.00 41.35 LIG 0.20  C 
BRANCH 35 36
ATOM     36 OG   SER P   5      22.479  22.540  43.056  1.00 42.37 LIG-0.40  OA
ATOM     37 HG   SER P   5      22.728  22.349  42.276  1.00 42.37 LIG 0.21  HD
ENDBRANCH 35 36
ENDBRANCH 34 35
BRANCH 34 38
ATOM     38  C   SER P   5      21.102  20.921  40.780  1.00 41.28 LIG 0.20  C 
ATOM     39 OXT  SER P   5      20.000  20.201  40.352  1.00 41.68 LIG-0.65  OA
ATOM     40 O    SER P   5      22.255  20.586  40.522  1.00 42.12 LIG-0.65  OA
ENDBRANCH 34 38
ENDBRANCH 31 34
ENDBRANCH 29 30
BRANCH 29 41
ATOM     41  CB  TYR P   4      16.207  23.692  42.833  1.00 37.99 LIG 0.07  C 
BRANCH 41 42
ATOM     42  CG  TYR P   4      15.008  23.687  43.793  1.00 35.75 LIG-0.06  A 
ATOM     43  CD2 TYR P   4      14.942  24.649  44.803  1.00 34.88 LIG 0.01  A 
ATOM     44  CE2 TYR P   4      13.871  24.700  45.678  1.00 35.19 LIG 0.04  A 
ATOM     45  CZ  TYR P   4      12.847  23.789  45.556  1.00 34.95 LIG 0.07  A 
ATOM     46  CE1 TYR P   4      12.882  22.813  44.573  1.00 35.39 LIG 0.04  A 
ATOM     47  CD1 TYR P   4      13.967  22.765  43.695  1.00 35.59 LIG 0.01  A 
BRANCH 45 48
ATOM     48 OH   TYR P   4      11.777  23.844  46.425  1.00 35.19 LIG-0.36  OA
ATOM     49 HH   TYR P   4      11.999  24.267  47.116  1.00 35.19 LIG 0.22  HD
ENDBRANCH 45 48
ENDBRANCH 41 42
ENDBRANCH 29 41
ENDBRANCH 3 29
TORSDOF 19
ENDMDL
MODEL 52
USER: ADFR SOLUTION from run 5
USER: SCORE 17.683010 LL:  -4.582 LR: -14.581 RR:   0.000 FEB:  -8.913
USER: RMSD 6.727590
USER: SEED 987204
USER: STATUS no improvement in best 3 clusters for 5 generations
USER: GENES 21
USER: genes 0 Translation |==|  0.71025 0.58209 0.57321
USER: genes 1 Rotation |==|  0.55968 0.31384 0.36834 0.94096
USER: genes 2 Torsion [N]-C--CA-[N] |==|  0.98327
USER: genes 3 Torsion [C]-CA--N-[C] |==|  0.80812
USER: genes 4 Torsion [N]-C--CA-[N] |==|  0.06041
USER: genes 5 Torsion [C]-CA--N-[C] |==|  0.76067
USER: genes 6 Torsion [N]-C--CA-[N] |==|  0.15866
USER: genes 7 Torsion [C]-CA--N-[H2] |==|  0.87271
USER: genes 8 Torsion [C]-CA--CB-[CG] |==|  0.13899
USER: genes 9 Torsion [CA]-CB--CG-[CD2] |==|  0.58802
USER: genes 10 Torsion [C]-CA--CB-[CG2] |==|  0.60326
USER: genes 11 Torsion [CA]-CB--CG1-[CD1] |==|  0.64413
USER: genes 12 Torsion [C]-N--CA-[CB] |==|  0.48333
USER: genes 13 Torsion [N]-CA--C-[N] |==|  0.29413
USER: genes 14 Torsion [C]-N--CA-[CB] |==|  0.74023
USER: genes 15 Torsion [N]-CA--CB-[OG] |==|  0.89309
USER: genes 16 Torsion [CA]-CB--OG-[HG] |==|  0.58027
USER: genes 17 Torsion [N]-CA--C-[OXT] |==|  0.61830
USER: genes 18 Torsion [N]-CA--CB-[CG] |==|  0.87049
USER: genes 19 Torsion [CA]-CB--CG-[CD2] |==|  0.42391
USER: genes 20 Torsion [CE2]-CZ--OH-[HH] |==|  0.45479
ROOT
ATOM      1  C   ILE P   3      18.807  23.413  43.376  1.00 41.75 LIG 0.24  C 
ATOM      2 O    ILE P   3      19.683  24.261  43.223  1.00 43.02 LIG-0.27  OA
ATOM      3  N   TYR P   4      18.195  23.227  44.534  1.00 40.49 LIG-0.35  N 
ATOM      4 H    TYR P   4      17.530  22.696  44.657  1.00 40.49 LIG 0.16  HD
ENDROOT
BRANCH 1 5
ATOM      5  CA  ILE P   3      18.365  22.538  42.195  1.00 41.79 LIG 0.18  C 
BRANCH 5 6
ATOM      6  N   ILE P   3      17.394  21.520  42.634  1.00 42.70 LIG-0.35  N 
ATOM      7 H    ILE P   3      16.597  21.645  42.338  1.00 42.70 LIG 0.16  HD
ATOM      8  C   ALA P   2      17.738  20.500  43.421  1.00 42.25 LIG 0.24  C 
ATOM      9 O    ALA P   2      18.873  20.344  43.839  1.00 43.48 LIG-0.27  OA
BRANCH 8 10
ATOM     10  CA  ALA P   2      16.655  19.497  43.809  1.00 41.32 LIG 0.17  C 
ATOM     11  CB  ALA P   2      17.216  18.093  43.805  1.00 39.54 LIG 0.04  C 
BRANCH 10 12
ATOM     12  N   ALA P   2      15.596  19.597  42.815  1.00 41.39 LIG-0.35  N 
ATOM     13 H    ALA P   2      15.664  19.036  42.167  1.00 41.39 LIG 0.16  HD
ATOM     14  C   LEU P   1      14.616  20.488  42.920  1.00 41.33 LIG 0.25  C 
ATOM     15 O    LEU P   1      14.520  21.273  43.868  1.00 41.61 LIG-0.27  OA
BRANCH 14 16
ATOM     16  CA  LEU P   1      13.585  20.488  41.791  1.00 40.25 LIG 0.28  C 
BRANCH 16 17
ATOM     17  N   LEU P   1      12.976  19.138  41.676  1.00 40.65 LIG-0.07  N 
ATOM     18 H2   LEU P   1      13.616  18.520  41.703  1.00 40.65 LIG 0.28  HD
ATOM     19 H1   LEU P   1      12.536  19.075  40.905  1.00 40.65 LIG 0.28  HD
ATOM     20 H3   LEU P   1      12.410  19.009  42.350  1.00 40.65 LIG 0.28  HD
ENDBRANCH 16 17
BRANCH 16 21
ATOM     21  CB  LEU P   1      12.495  21.522  42.089  1.00 38.59 LIG 0.05  C 
BRANCH 21 22
ATOM     22  CG  LEU P   1      12.836  22.967  42.478  1.00 36.61 LIG-0.02  C 
ATOM     23  CD2 LEU P   1      11.761  23.481  43.418  1.00 36.34 LIG 0.01  C 
ATOM     24  CD1 LEU P   1      12.940  23.860  41.252  1.00 35.12 LIG 0.01  C 
ENDBRANCH 21 22
ENDBRANCH 16 21
ENDBRANCH 14 16
ENDBRANCH 10 12
ENDBRANCH 8 10
ENDBRANCH 5 6
BRANCH 5 25
ATOM     25  CB  ILE P   3      17.739  23.508  41.186  1.00 41.77 LIG 0.01  C 
ATOM     26  CG2 ILE P   3      16.543  22.827  40.527  1.00 41.93 LIG 0.01  C 
BRANCH 25 27
ATOM     27  CG1 ILE P   3      17.289  24.790  41.896  1.00 42.12 LIG 0.00  C 
ATOM     28  CD1 ILE P   3      15.862  25.204  41.642  1.00 41.36 LIG 0.01  C 
ENDBRANCH 25 27
ENDBRANCH 5 25
ENDBRANCH 1 5
BRANCH 3 29
ATOM     29  CA  TYR P   4      18.634  23.940  45.709  1.00 39.63 LIG 0.18  C 
BRANCH 29 30
ATOM     30  C   TYR P   4      20.090  23.510  45.909  1.00 40.27 LIG 0.24  C 
ATOM     31  N   SER P   5      20.970  24.427  45.582  1.00 40.75 LIG-0.34  N 
ATOM     32 H    SER P   5      20.748  25.211  45.305  1.00 40.75 LIG 0.16  HD
ATOM     33 O    TYR P   4      20.367  22.386  46.310  1.00 40.83 LIG-0.27  OA
BRANCH 31 34
ATOM     34  CA  SER P   5      22.418  24.224  45.650  1.00 41.35 LIG 0.21  C 
BRANCH 34 35
ATOM     35  CB  SER P   5      22.634  24.790  47.059  1.00 41.35 LIG 0.20  C 
BRANCH 35 36
ATOM     36 OG   SER P   5      21.689  25.825  46.866  1.00 42.37 LIG-0.40  OA
ATOM     37 HG   SER P   5      21.900  26.488  47.337  1.00 42.37 LIG 0.21  HD
ENDBRANCH 35 36
ENDBRANCH 34 35
BRANCH 34 38
ATOM     38  C   SER P   5      22.886  22.921  45.028  1.00 41.28 LIG 0.20  C 
ATOM     39 OXT  SER P   5      23.847  22.299  45.806  1.00 41.68 LIG-0.65  OA
ATOM     40 O    SER P   5      22.778  22.723  43.821  1.00 42.12 LIG-0.65  OA
ENDBRANCH 34 38
ENDBRANCH 31 34
ENDBRANCH 29 30
BRANCH 29 41
ATOM     41  CB  TYR P   4      17.703  23.700  46.921  1.00 37.99 LIG 0.07  C 
BRANCH 41 42
ATOM     42  CG  TYR P   4      16.186  23.804  46.706  1.00 35.75 LIG-0.06  A 
ATOM     43  CD2 TYR P   4      15.330  23.073  47.532  1.00 34.88 LIG 0.01  A 
ATOM     44  CE2 TYR P   4      13.955  23.152  47.394  1.00 35.19 LIG 0.04  A 
ATOM     45  CZ  TYR P   4      13.413  23.967  46.426  1.00 34.95 LIG 0.07  A 
ATOM     46  CE1 TYR P   4      14.230  24.700  45.580  1.00 35.39 LIG 0.04  A 
ATOM     47  CD1 TYR P   4      15.616  24.613  45.724  1.00 35.59 LIG 0.01  A 
BRANCH 45 48
ATOM     48 OH   TYR P   4      12.043  24.050  46.292  1.00 35.19 LIG-0.36  OA
ATOM     49 HH   TYR P   4      11.847  24.727  45.836  1.00 35.19 LIG 0.22  HD
ENDBRANCH 45 48
ENDBRANCH 41 42
ENDBRANCH 29 41
ENDBRANCH 3 29
TORSDOF 19
ENDMDL
