MODEL 1
USER: ADFR SOLUTION from run 51
USER: SCORE 24.560431 LL:  -3.680 LR: -21.108 RR:   0.000 FEB: -13.949
USER: RMSD 13.697554
USER: SEED 50
USER: STATUS no improvement in best 4 clusters for 5 generations
USER: GENES 26
USER: genes 0 Translation |==|  0.63809 0.55167 0.62971
USER: genes 1 Rotation |==|  0.51171 0.89746 0.45962 0.80043
USER: genes 2 Torsion [N]-C--CA-[N] |==|  0.87301
USER: genes 3 Torsion [C]-CA--N-[C] |==|  0.81140
USER: genes 4 Torsion [N]-C--CA-[N] |==|  0.98939
USER: genes 5 Torsion [C]-CA--N-[C] |==|  0.73549
USER: genes 6 Torsion [N]-C--CA-[N] |==|  0.82908
USER: genes 7 Torsion [C]-CA--CB-[CG] |==|  0.42360
USER: genes 8 Torsion [CA]-CB--CG-[CD2] |==|  0.38976
USER: genes 9 Torsion [C]-CA--N-[H1] |==|  0.08695
USER: genes 10 Torsion [C]-CA--CB-[CG] |==|  0.54230
USER: genes 11 Torsion [CA]-CB--CG-[CD2] |==|  0.58131
USER: genes 12 Torsion [C]-CA--CB-[OG] |==|  0.55381
USER: genes 13 Torsion [CA]-CB--OG-[HG] |==|  0.08944
USER: genes 14 Torsion [C]-N--CA-[C] |==|  0.64818
USER: genes 15 Torsion [N]-CA--C-[N] |==|  0.43821
USER: genes 16 Torsion [C]-N--CA-[C] |==|  0.16542
USER: genes 17 Torsion [N]-CA--C-[OXT] |==|  0.09629
USER: genes 18 Torsion [N]-CA--CB-[CG] |==|  0.84959
USER: genes 19 Torsion [CA]-CB--CG-[CD] |==|  0.48611
USER: genes 20 Torsion [CB]-CG--CD-[CE] |==|  0.53336
USER: genes 21 Torsion [CG]-CD--CE-[NZ] |==|  0.17799
USER: genes 22 Torsion [CD]-CE--NZ-[HZ1] |==|  0.71654
USER: genes 23 Torsion [N]-CA--CB-[CG] |==|  0.77678
USER: genes 24 Torsion [CA]-CB--CG-[CD2] |==|  0.26297
USER: genes 25 Torsion [CE2]-CZ--OH-[HH] |==|  0.29166
ROOT
ATOM      1  C   SER P   3      17.173  21.830  44.821  1.00 32.74 LIG 0.24  C 
ATOM      2 O    SER P   3      16.567  20.935  44.243  1.00 33.45 LIG-0.27  OA
ATOM      3  N   TYR P   4      17.568  22.948  44.219  1.00 32.75 LIG-0.35  N 
ATOM      4 H    TYR P   4      18.003  23.576  44.616  1.00 32.75 LIG 0.16  HD
ENDROOT
BRANCH 1 5
ATOM      5  CA  SER P   3      17.524  21.702  46.298  1.00 31.85 LIG 0.20  C 
BRANCH 5 6
ATOM      6  N   SER P   3      18.901  22.066  46.628  1.00 31.96 LIG-0.34  N 
ATOM      7 H    SER P   3      18.994  22.779  47.101  1.00 31.96 LIG 0.16  HD
ATOM      8  C   LEU P   2      19.897  21.302  46.195  1.00 31.93 LIG 0.24  C 
ATOM      9 O    LEU P   2      19.692  20.304  45.507  1.00 32.53 LIG-0.27  OA
BRANCH 8 10
ATOM     10  CA  LEU P   2      21.335  21.691  46.538  1.00 41.07 LIG 0.18  C 
BRANCH 10 11
ATOM     11  N   LEU P   2      21.651  22.921  47.259  1.00 42.45 LIG-0.35  N 
ATOM     12  C   PHE P   1      21.982  23.941  46.021  1.00 42.69 LIG 0.25  C 
ATOM     13 O    PHE P   1      21.987  24.045  44.795  1.00 43.50 LIG-0.27  OA
ATOM     14 H    LEU P   2      21.639  22.996  48.115  1.00 42.45 LIG 0.16  HD
BRANCH 12 15
ATOM     15  CA  PHE P   1      22.324  25.152  46.879  1.00 41.57 LIG 0.28  C 
BRANCH 15 16
ATOM     16  CB  PHE P   1      23.487  24.776  47.803  1.00 35.06 LIG 0.08  C 
BRANCH 16 17
ATOM     17  CG  PHE P   1      24.345  25.941  48.211  1.00 31.19 LIG-0.06  A 
ATOM     18  CD1 PHE P   1      24.655  26.949  47.305  1.00 39.51 LIG 0.01  A 
ATOM     19  CE1 PHE P   1      25.437  28.038  47.688  1.00 39.01 LIG 0.00  A 
ATOM     20  CZ  PHE P   1      25.917  28.125  48.992  1.00 38.87 LIG 0.00  A 
ATOM     21  CE2 PHE P   1      25.614  27.122  49.905  1.00 39.01 LIG 0.00  A 
ATOM     22  CD2 PHE P   1      24.833  26.037  49.512  1.00 39.51 LIG 0.01  A 
ENDBRANCH 16 17
ENDBRANCH 15 16
BRANCH 15 23
ATOM     23  N   PHE P   1      21.123  25.530  47.680  1.00 43.28 LIG-0.07  N 
ATOM     24 H1   PHE P   1      20.648  24.801  47.865  1.00 43.28 LIG 0.28  HD
ATOM     25 H2   PHE P   1      21.382  25.915  48.439  1.00 43.28 LIG 0.28  HD
ATOM     26 H3   PHE P   1      20.623  26.100  47.214  1.00 43.28 LIG 0.28  HD
ENDBRANCH 15 23
ENDBRANCH 12 15
ENDBRANCH 10 11
BRANCH 10 27
ATOM     27  CB  LEU P   2      21.965  20.507  47.277  1.00 36.43 LIG 0.04  C 
BRANCH 27 28
ATOM     28  CG  LEU P   2      23.273  20.630  48.080  1.00 34.11 LIG-0.02  C 
ATOM     29  CD1 LEU P   2      22.993  21.081  49.505  1.00 33.27 LIG 0.01  C 
ATOM     30  CD2 LEU P   2      24.002  19.318  48.079  1.00 26.81 LIG 0.01  C 
ENDBRANCH 27 28
ENDBRANCH 10 27
ENDBRANCH 8 10
ENDBRANCH 5 6
BRANCH 5 31
ATOM     31  CB  SER P   3      16.542  22.530  47.123  1.00 31.53 LIG 0.20  C 
BRANCH 31 32
ATOM     32 OG   SER P   3      17.088  22.792  48.404  1.00 31.05 LIG-0.40  OA
ATOM     33 HG   SER P   3      17.923  22.857  48.345  1.00 31.05 LIG 0.21  HD
ENDBRANCH 31 32
ENDBRANCH 5 31
ENDBRANCH 1 5
BRANCH 3 34
ATOM     34  CA  TYR P   4      17.294  23.210  42.809  1.00 31.95 LIG 0.18  C 
BRANCH 34 35
ATOM     35  C   TYR P   4      18.608  23.547  42.112  1.00 31.84 LIG 0.24  C 
ATOM     36 O    TYR P   4      19.573  23.953  42.761  1.00 32.23 LIG-0.27  OA
ATOM     37  N   LYS P   5      18.646  23.368  40.795  1.00 32.16 LIG-0.34  N 
ATOM     38 H    LYS P   5      18.000  23.049  40.325  1.00 32.16 LIG 0.16  HD
BRANCH 37 39
ATOM     39  CA  LYS P   5      19.830  23.716  40.054  1.00 31.76 LIG 0.18  C 
BRANCH 39 40
ATOM     40  C   LYS P   5      21.056  22.940  40.530  1.00 32.94 LIG 0.20  C 
ATOM     41 OXT  LYS P   5      20.956  21.758  40.930  1.00 33.46 LIG-0.65  OA
ATOM     42 O    LYS P   5      22.182  23.281  40.184  1.00 33.40 LIG-0.65  OA
ENDBRANCH 39 40
BRANCH 39 43
ATOM     43  CB  LYS P   5      20.102  25.213  40.177  1.00 39.97 LIG 0.04  C 
BRANCH 43 44
ATOM     44  CG  LYS P   5      18.909  26.026  39.775  1.00 38.10 LIG 0.00  C 
BRANCH 44 45
ATOM     45  CD  LYS P   5      19.155  27.422  40.012  1.00 35.88 LIG 0.03  C 
BRANCH 45 46
ATOM     46  CE  LYS P   5      18.252  28.226  39.961  1.00 33.52 LIG 0.23  C 
BRANCH 46 47
ATOM     47  NZ  LYS P   5      17.141  28.137  40.943  1.00 33.07 LIG-0.08  N 
ATOM     48 HZ1  LYS P   5      16.431  27.764  40.555  1.00 33.07 LIG 0.27  HD
ATOM     49 HZ2  LYS P   5      17.396  27.640  41.636  1.00 33.07 LIG 0.27  HD
ATOM     50 HZ3  LYS P   5      16.928  28.953  41.226  1.00 33.07 LIG 0.27  HD
ENDBRANCH 46 47
ENDBRANCH 45 46
ENDBRANCH 44 45
ENDBRANCH 43 44
ENDBRANCH 39 43
ENDBRANCH 37 39
ENDBRANCH 34 35
BRANCH 34 51
ATOM     51  CB  TYR P   4      16.316  24.384  42.688  1.00 30.77 LIG 0.07  C 
BRANCH 51 52
ATOM     52  CG  TYR P   4      14.852  24.047  42.907  1.00 30.74 LIG-0.06  A 
ATOM     53  CD2 TYR P   4      14.267  24.206  44.164  1.00 30.34 LIG 0.01  A 
ATOM     54  CE2 TYR P   4      12.916  23.942  44.370  1.00 30.16 LIG 0.04  A 
ATOM     55  CZ  TYR P   4      12.130  23.514  43.313  1.00 30.33 LIG 0.07  A 
ATOM     56  CE1 TYR P   4      12.685  23.341  42.054  1.00 30.37 LIG 0.04  A 
ATOM     57  CD1 TYR P   4      14.044  23.607  41.857  1.00 30.89 LIG 0.01  A 
BRANCH 55 58
ATOM     58 OH   TYR P   4      10.789  23.280  43.514  1.00 30.16 LIG-0.36  OA
ATOM     59 HH   TYR P   4      10.342  23.906  43.178  1.00 30.16 LIG 0.22  HD
ENDBRANCH 55 58
ENDBRANCH 51 52
ENDBRANCH 34 51
ENDBRANCH 3 34
TORSDOF 24
ENDMDL
MODEL 2
USER: ADFR SOLUTION from run 100
USER: SCORE 23.426280 LL:  -4.114 LR: -20.472 RR:   0.000 FEB: -13.313
USER: RMSD 13.980088
USER: SEED 99
USER: STATUS no improvement in best 3 clusters for 5 generations
USER: GENES 26
USER: genes 0 Translation |==|  0.65495 0.59583 0.63867
USER: genes 1 Rotation |==|  0.34860 0.19302 0.84386 0.62085
USER: genes 2 Torsion [N]-C--CA-[N] |==|  0.37524
USER: genes 3 Torsion [C]-CA--N-[C] |==|  0.78326
USER: genes 4 Torsion [N]-C--CA-[N] |==|  0.90961
USER: genes 5 Torsion [C]-CA--N-[C] |==|  0.53681
USER: genes 6 Torsion [N]-C--CA-[N] |==|  0.88292
USER: genes 7 Torsion [C]-CA--CB-[CG] |==|  0.48432
USER: genes 8 Torsion [CA]-CB--CG-[CD2] |==|  0.48487
USER: genes 9 Torsion [C]-CA--N-[H1] |==|  0.69553
USER: genes 10 Torsion [C]-CA--CB-[CG] |==|  0.74068
USER: genes 11 Torsion [CA]-CB--CG-[CD2] |==|  0.46948
USER: genes 12 Torsion [C]-CA--CB-[OG] |==|  0.66415
USER: genes 13 Torsion [CA]-CB--OG-[HG] |==|  0.07687
USER: genes 14 Torsion [C]-N--CA-[C] |==|  0.84103
USER: genes 15 Torsion [N]-CA--C-[N] |==|  0.88377
USER: genes 16 Torsion [C]-N--CA-[C] |==|  0.17444
USER: genes 17 Torsion [N]-CA--C-[OXT] |==|  0.54927
USER: genes 18 Torsion [N]-CA--CB-[CG] |==|  0.79026
USER: genes 19 Torsion [CA]-CB--CG-[CD] |==|  0.40233
USER: genes 20 Torsion [CB]-CG--CD-[CE] |==|  0.59506
USER: genes 21 Torsion [CG]-CD--CE-[NZ] |==|  0.36982
USER: genes 22 Torsion [CD]-CE--NZ-[HZ1] |==|  0.25444
USER: genes 23 Torsion [N]-CA--CB-[CG] |==|  0.21486
USER: genes 24 Torsion [CA]-CB--CG-[CD2] |==|  0.81854
USER: genes 25 Torsion [CE2]-CZ--OH-[HH] |==|  0.81503
ROOT
ATOM      1  C   SER P   3      17.678  23.155  45.090  1.00 32.74 LIG 0.24  C 
ATOM      2 O    SER P   3      17.302  24.016  45.877  1.00 33.45 LIG-0.27  OA
ATOM      3  N   TYR P   4      17.188  23.028  43.860  1.00 32.75 LIG-0.35  N 
ATOM      4 H    TYR P   4      17.440  22.420  43.306  1.00 32.75 LIG 0.16  HD
ENDROOT
BRANCH 1 5
ATOM      5  CA  SER P   3      18.750  22.150  45.493  1.00 31.85 LIG 0.20  C 
BRANCH 5 6
ATOM      6  N   SER P   3      19.903  22.733  46.177  1.00 31.96 LIG-0.34  N 
ATOM      7 H    SER P   3      19.917  22.634  47.032  1.00 31.96 LIG 0.16  HD
ATOM      8  C   LEU P   2      20.832  23.360  45.465  1.00 31.93 LIG 0.24  C 
ATOM      9 O    LEU P   2      20.740  23.478  44.245  1.00 32.53 LIG-0.27  OA
BRANCH 8 10
ATOM     10  CA  LEU P   2      22.033  23.973  46.186  1.00 41.07 LIG 0.18  C 
BRANCH 10 11
ATOM     11  N   LEU P   2      21.924  24.524  47.535  1.00 42.45 LIG-0.35  N 
ATOM     12  C   PHE P   1      23.335  25.346  47.660  1.00 42.69 LIG 0.25  C 
ATOM     13 O    PHE P   1      24.339  25.694  47.039  1.00 43.50 LIG-0.27  OA
ATOM     14 H    LEU P   2      21.252  24.396  48.056  1.00 42.45 LIG 0.16  HD
BRANCH 12 15
ATOM     15  CA  PHE P   1      23.126  25.835  49.087  1.00 41.57 LIG 0.28  C 
BRANCH 15 16
ATOM     16  CB  PHE P   1      23.432  24.677  50.043  1.00 35.06 LIG 0.08  C 
BRANCH 16 17
ATOM     17  CG  PHE P   1      23.396  25.058  51.496  1.00 31.19 LIG-0.06  A 
ATOM     18  CD1 PHE P   1      23.202  26.380  51.882  1.00 39.51 LIG 0.01  A 
ATOM     19  CE1 PHE P   1      23.151  26.731  53.230  1.00 39.01 LIG 0.00  A 
ATOM     20  CZ  PHE P   1      23.296  25.752  54.210  1.00 38.87 LIG 0.00  A 
ATOM     21  CE2 PHE P   1      23.491  24.429  53.835  1.00 39.01 LIG 0.00  A 
ATOM     22  CD2 PHE P   1      23.542  24.088  52.485  1.00 39.51 LIG 0.01  A 
ENDBRANCH 16 17
ENDBRANCH 15 16
BRANCH 15 23
ATOM     23  N   PHE P   1      21.711  26.280  49.243  1.00 43.28 LIG-0.07  N 
ATOM     24 H1   PHE P   1      21.685  27.166  49.322  1.00 43.28 LIG 0.28  HD
ATOM     25 H2   PHE P   1      21.242  26.033  48.528  1.00 43.28 LIG 0.28  HD
ATOM     26 H3   PHE P   1      21.361  25.906  49.971  1.00 43.28 LIG 0.28  HD
ENDBRANCH 15 23
ENDBRANCH 12 15
ENDBRANCH 10 11
BRANCH 10 27
ATOM     27  CB  LEU P   2      23.159  22.936  46.164  1.00 36.43 LIG 0.04  C 
BRANCH 27 28
ATOM     28  CG  LEU P   2      23.390  21.935  47.310  1.00 34.11 LIG-0.02  C 
ATOM     29  CD1 LEU P   2      22.082  21.289  47.737  1.00 33.27 LIG 0.01  C 
ATOM     30  CD2 LEU P   2      24.379  20.888  46.888  1.00 26.81 LIG 0.01  C 
ENDBRANCH 27 28
ENDBRANCH 10 27
ENDBRANCH 8 10
ENDBRANCH 5 6
BRANCH 5 31
ATOM     31  CB  SER P   3      18.118  21.057  46.351  1.00 31.53 LIG 0.20  C 
BRANCH 31 32
ATOM     32 OG   SER P   3      18.747  21.015  47.620  1.00 31.05 LIG-0.40  OA
ATOM     33 HG   SER P   3      19.049  21.775  47.810  1.00 31.05 LIG 0.21  HD
ENDBRANCH 31 32
ENDBRANCH 5 31
ENDBRANCH 1 5
BRANCH 3 34
ATOM     34  CA  TYR P   4      16.162  23.926  43.337  1.00 31.95 LIG 0.18  C 
BRANCH 34 35
ATOM     35  C   TYR P   4      14.951  23.873  44.262  1.00 31.84 LIG 0.24  C 
ATOM     36 O    TYR P   4      14.344  24.904  44.556  1.00 32.23 LIG-0.27  OA
ATOM     37  N   LYS P   5      14.597  22.672  44.709  1.00 32.16 LIG-0.34  N 
ATOM     38 H    LYS P   5      14.979  21.934  44.488  1.00 32.16 LIG 0.16  HD
BRANCH 37 39
ATOM     39  CA  LYS P   5      13.499  22.541  45.632  1.00 31.76 LIG 0.18  C 
BRANCH 39 40
ATOM     40  C   LYS P   5      12.178  23.006  45.024  1.00 32.94 LIG 0.20  C 
ATOM     41 OXT  LYS P   5      11.194  23.278  45.748  1.00 33.46 LIG-0.65  OA
ATOM     42 O    LYS P   5      12.146  23.490  43.897  1.00 33.40 LIG-0.65  OA
ENDBRANCH 39 40
BRANCH 39 43
ATOM     43  CB  LYS P   5      13.782  23.346  46.897  1.00 39.97 LIG 0.04  C 
BRANCH 43 44
ATOM     44  CG  LYS P   5      14.784  22.661  47.776  1.00 38.10 LIG 0.00  C 
BRANCH 44 45
ATOM     45  CD  LYS P   5      15.619  23.631  48.429  1.00 35.88 LIG 0.03  C 
BRANCH 45 46
ATOM     46  CE  LYS P   5      16.783  23.390  48.655  1.00 33.52 LIG 0.23  C 
BRANCH 46 47
ATOM     47  NZ  LYS P   5      17.816  24.405  48.321  1.00 33.07 LIG-0.08  N 
ATOM     48 HZ1  LYS P   5      17.959  24.927  49.028  1.00 33.07 LIG 0.27  HD
ATOM     49 HZ2  LYS P   5      18.574  23.995  48.097  1.00 33.07 LIG 0.27  HD
ATOM     50 HZ3  LYS P   5      17.535  24.902  47.639  1.00 33.07 LIG 0.27  HD
ENDBRANCH 46 47
ENDBRANCH 45 46
ENDBRANCH 44 45
ENDBRANCH 43 44
ENDBRANCH 39 43
ENDBRANCH 37 39
ENDBRANCH 34 35
BRANCH 34 51
ATOM     51  CB  TYR P   4      15.768  23.481  41.924  1.00 30.77 LIG 0.07  C 
BRANCH 51 52
ATOM     52  CG  TYR P   4      14.845  22.278  41.846  1.00 30.74 LIG-0.06  A 
ATOM     53  CD2 TYR P   4      15.275  21.023  42.276  1.00 30.34 LIG 0.01  A 
ATOM     54  CE2 TYR P   4      14.427  19.920  42.251  1.00 30.16 LIG 0.04  A 
ATOM     55  CZ  TYR P   4      13.129  20.062  41.792  1.00 30.33 LIG 0.07  A 
ATOM     56  CE1 TYR P   4      12.674  21.296  41.352  1.00 30.37 LIG 0.04  A 
ATOM     57  CD1 TYR P   4      13.534  22.398  41.379  1.00 30.89 LIG 0.01  A 
BRANCH 55 58
ATOM     58 OH   TYR P   4      12.284  18.976  41.794  1.00 30.16 LIG-0.36  OA
ATOM     59 HH   TYR P   4      12.560  18.405  41.243  1.00 30.16 LIG 0.22  HD
ENDBRANCH 55 58
ENDBRANCH 51 52
ENDBRANCH 34 51
ENDBRANCH 3 34
TORSDOF 24
ENDMDL
MODEL 3
USER: ADFR SOLUTION from run 65
USER: SCORE 22.841358 LL:  -3.794 LR: -20.263 RR:   0.000 FEB: -13.103
USER: RMSD 12.761016
USER: SEED 64
USER: STATUS no improvement in best 2 clusters for 5 generations
USER: GENES 26
USER: genes 0 Translation |==|  0.66131 0.64533 0.49164
USER: genes 1 Rotation |==|  0.73491 0.75423 0.46108 0.85870
USER: genes 2 Torsion [N]-C--CA-[N] |==|  0.94990
USER: genes 3 Torsion [C]-CA--N-[C] |==|  0.81036
USER: genes 4 Torsion [N]-C--CA-[N] |==|  0.94457
USER: genes 5 Torsion [C]-CA--N-[C] |==|  0.69733
USER: genes 6 Torsion [N]-C--CA-[N] |==|  0.02362
USER: genes 7 Torsion [C]-CA--CB-[CG] |==|  0.26578
USER: genes 8 Torsion [CA]-CB--CG-[CD2] |==|  0.81443
USER: genes 9 Torsion [C]-CA--N-[H1] |==|  0.14884
USER: genes 10 Torsion [C]-CA--CB-[CG] |==|  0.97872
USER: genes 11 Torsion [CA]-CB--CG-[CD2] |==|  0.70635
USER: genes 12 Torsion [C]-CA--CB-[OG] |==|  0.02875
USER: genes 13 Torsion [CA]-CB--OG-[HG] |==|  0.64448
USER: genes 14 Torsion [C]-N--CA-[C] |==|  0.21747
USER: genes 15 Torsion [N]-CA--C-[N] |==|  0.38889
USER: genes 16 Torsion [C]-N--CA-[C] |==|  0.56565
USER: genes 17 Torsion [N]-CA--C-[OXT] |==|  0.47383
USER: genes 18 Torsion [N]-CA--CB-[CG] |==|  0.21380
USER: genes 19 Torsion [CA]-CB--CG-[CD] |==|  0.30329
USER: genes 20 Torsion [CB]-CG--CD-[CE] |==|  0.67719
USER: genes 21 Torsion [CG]-CD--CE-[NZ] |==|  0.45570
USER: genes 22 Torsion [CD]-CE--NZ-[HZ1] |==|  0.75034
USER: genes 23 Torsion [N]-CA--CB-[CG] |==|  0.79750
USER: genes 24 Torsion [CA]-CB--CG-[CD2] |==|  0.76193
USER: genes 25 Torsion [CE2]-CZ--OH-[HH] |==|  0.56072
ROOT
ATOM      1  C   SER P   3      17.869  24.640  40.679  1.00 32.74 LIG 0.24  C 
ATOM      2 O    SER P   3      17.515  24.642  39.506  1.00 33.45 LIG-0.27  OA
ATOM      3  N   TYR P   4      19.012  25.179  41.096  1.00 32.75 LIG-0.35  N 
ATOM      4 H    TYR P   4      19.272  25.172  41.915  1.00 32.75 LIG 0.16  HD
ENDROOT
BRANCH 1 5
ATOM      5  CA  SER P   3      17.002  23.992  41.752  1.00 31.85 LIG 0.20  C 
BRANCH 5 6
ATOM      6  N   SER P   3      17.705  23.682  42.996  1.00 31.96 LIG-0.34  N 
ATOM      7 H    SER P   3      17.473  24.149  43.680  1.00 31.96 LIG 0.16  HD
ATOM      8  C   LEU P   2      18.631  22.731  42.999  1.00 31.93 LIG 0.24  C 
ATOM      9 O    LEU P   2      18.925  22.113  41.978  1.00 32.53 LIG-0.27  OA
BRANCH 8 10
ATOM     10  CA  LEU P   2      19.368  22.415  44.301  1.00 41.07 LIG 0.18  C 
BRANCH 10 11
ATOM     11  N   LEU P   2      19.417  23.365  45.410  1.00 42.45 LIG-0.35  N 
ATOM     12  C   PHE P   1      20.983  23.838  45.357  1.00 42.69 LIG 0.25  C 
ATOM     13 O    PHE P   1      22.030  23.737  44.717  1.00 43.50 LIG-0.27  OA
ATOM     14 H    LEU P   2      18.744  23.563  45.907  1.00 42.45 LIG 0.16  HD
BRANCH 12 15
ATOM     15  CA  PHE P   1      20.923  24.779  46.553  1.00 41.57 LIG 0.28  C 
BRANCH 15 16
ATOM     16  CB  PHE P   1      22.065  24.418  47.509  1.00 35.06 LIG 0.08  C 
BRANCH 16 17
ATOM     17  CG  PHE P   1      23.302  25.251  47.326  1.00 31.19 LIG-0.06  A 
ATOM     18  CD1 PHE P   1      23.728  26.123  48.322  1.00 39.51 LIG 0.01  A 
ATOM     19  CE1 PHE P   1      24.885  26.883  48.160  1.00 39.01 LIG 0.00  A 
ATOM     20  CZ  PHE P   1      25.630  26.774  46.989  1.00 38.87 LIG 0.00  A 
ATOM     21  CE2 PHE P   1      25.214  25.905  45.987  1.00 39.01 LIG 0.00  A 
ATOM     22  CD2 PHE P   1      24.055  25.151  46.158  1.00 39.51 LIG 0.01  A 
ENDBRANCH 16 17
ENDBRANCH 15 16
BRANCH 15 23
ATOM     23  N   PHE P   1      19.604  24.613  47.231  1.00 43.28 LIG-0.07  N 
ATOM     24 H1   PHE P   1      19.475  23.753  47.422  1.00 43.28 LIG 0.28  HD
ATOM     25 H2   PHE P   1      19.595  25.088  47.983  1.00 43.28 LIG 0.28  HD
ATOM     26 H3   PHE P   1      18.955  24.898  46.692  1.00 43.28 LIG 0.28  HD
ENDBRANCH 15 23
ENDBRANCH 12 15
ENDBRANCH 10 11
BRANCH 10 27
ATOM     27  CB  LEU P   2      18.831  21.077  44.818  1.00 36.43 LIG 0.04  C 
BRANCH 27 28
ATOM     28  CG  LEU P   2      17.629  20.361  44.177  1.00 34.11 LIG-0.02  C 
ATOM     29  CD1 LEU P   2      17.941  18.894  43.930  1.00 33.27 LIG 0.01  C 
ATOM     30  CD2 LEU P   2      16.420  20.500  45.055  1.00 26.81 LIG 0.01  C 
ENDBRANCH 27 28
ENDBRANCH 10 27
ENDBRANCH 8 10
ENDBRANCH 5 6
BRANCH 5 31
ATOM     31  CB  SER P   3      15.796  24.884  42.030  1.00 31.53 LIG 0.20  C 
BRANCH 31 32
ATOM     32 OG   SER P   3      15.716  25.910  41.057  1.00 31.05 LIG-0.40  OA
ATOM     33 HG   SER P   3      15.655  26.655  41.439  1.00 31.05 LIG 0.21  HD
ENDBRANCH 31 32
ENDBRANCH 5 31
ENDBRANCH 1 5
BRANCH 3 34
ATOM     34  CA  TYR P   4      19.938  25.840  40.180  1.00 31.95 LIG 0.18  C 
BRANCH 34 35
ATOM     35  C   TYR P   4      19.404  27.235  39.871  1.00 31.84 LIG 0.24  C 
ATOM     36 O    TYR P   4      18.198  27.419  39.704  1.00 32.23 LIG-0.27  OA
ATOM     37  N   LYS P   5      20.301  28.214  39.805  1.00 32.16 LIG-0.34  N 
ATOM     38 H    LYS P   5      21.143  28.118  39.955  1.00 32.16 LIG 0.16  HD
BRANCH 37 39
ATOM     39  CA  LYS P   5      19.887  29.549  39.462  1.00 31.76 LIG 0.18  C 
BRANCH 39 40
ATOM     40  C   LYS P   5      21.032  30.375  38.880  1.00 32.94 LIG 0.20  C 
ATOM     41 OXT  LYS P   5      20.822  31.496  38.365  1.00 33.46 LIG-0.65  OA
ATOM     42 O    LYS P   5      22.189  30.171  39.232  1.00 33.40 LIG-0.65  OA
ENDBRANCH 39 40
BRANCH 39 43
ATOM     43  CB  LYS P   5      19.330  30.257  40.694  1.00 39.97 LIG 0.04  C 
BRANCH 43 44
ATOM     44  CG  LYS P   5      20.425  30.717  41.608  1.00 38.10 LIG 0.00  C 
BRANCH 44 45
ATOM     45  CD  LYS P   5      20.534  32.149  41.572  1.00 35.88 LIG 0.03  C 
BRANCH 45 46
ATOM     46  CE  LYS P   5      21.539  32.682  41.159  1.00 33.52 LIG 0.23  C 
BRANCH 46 47
ATOM     47  NZ  LYS P   5      21.505  34.123  40.798  1.00 33.07 LIG-0.08  N 
ATOM     48 HZ1  LYS P   5      21.280  34.209  39.941  1.00 33.07 LIG 0.27  HD
ATOM     49 HZ2  LYS P   5      20.905  34.542  41.305  1.00 33.07 LIG 0.27  HD
ATOM     50 HZ3  LYS P   5      22.308  34.482  40.930  1.00 33.07 LIG 0.27  HD
ENDBRANCH 46 47
ENDBRANCH 45 46
ENDBRANCH 44 45
ENDBRANCH 43 44
ENDBRANCH 39 43
ENDBRANCH 37 39
ENDBRANCH 34 35
BRANCH 34 51
ATOM     51  CB  TYR P   4      20.051  25.020  38.889  1.00 30.77 LIG 0.07  C 
BRANCH 51 52
ATOM     52  CG  TYR P   4      20.833  23.723  39.000  1.00 30.74 LIG-0.06  A 
ATOM     53  CD2 TYR P   4      22.220  23.715  38.857  1.00 30.34 LIG 0.01  A 
ATOM     54  CE2 TYR P   4      22.955  22.542  38.998  1.00 30.16 LIG 0.04  A 
ATOM     55  CZ  TYR P   4      22.304  21.355  39.287  1.00 30.33 LIG 0.07  A 
ATOM     56  CE1 TYR P   4      20.925  21.329  39.429  1.00 30.37 LIG 0.04  A 
ATOM     57  CD1 TYR P   4      20.195  22.513  39.283  1.00 30.89 LIG 0.01  A 
BRANCH 55 58
ATOM     58 OH   TYR P   4      23.036  20.201  39.452  1.00 30.16 LIG-0.36  OA
ATOM     59 HH   TYR P   4      22.541  19.534  39.324  1.00 30.16 LIG 0.22  HD
ENDBRANCH 55 58
ENDBRANCH 51 52
ENDBRANCH 34 51
ENDBRANCH 3 34
TORSDOF 24
ENDMDL
MODEL 4
USER: ADFR SOLUTION from run 149
USER: SCORE 23.103722 LL:  -4.854 LR: -20.252 RR:   0.000 FEB: -13.093
USER: RMSD 10.935480
USER: SEED 148
USER: STATUS no improvement in best 4 clusters for 5 generations
USER: GENES 26
USER: genes 0 Translation |==|  0.70996 0.69292 0.45159
USER: genes 1 Rotation |==|  0.51177 0.79331 0.76053 0.80977
USER: genes 2 Torsion [N]-C--CA-[N] |==|  0.16566
USER: genes 3 Torsion [C]-CA--N-[C] |==|  0.54091
USER: genes 4 Torsion [N]-C--CA-[N] |==|  0.69294
USER: genes 5 Torsion [C]-CA--N-[C] |==|  0.64838
USER: genes 6 Torsion [N]-C--CA-[N] |==|  0.72874
USER: genes 7 Torsion [C]-CA--CB-[CG] |==|  0.21854
USER: genes 8 Torsion [CA]-CB--CG-[CD2] |==|  0.66967
USER: genes 9 Torsion [C]-CA--N-[H1] |==|  0.43001
USER: genes 10 Torsion [C]-CA--CB-[CG] |==|  0.36084
USER: genes 11 Torsion [CA]-CB--CG-[CD2] |==|  0.44347
USER: genes 12 Torsion [C]-CA--CB-[OG] |==|  0.42700
USER: genes 13 Torsion [CA]-CB--OG-[HG] |==|  0.77765
USER: genes 14 Torsion [C]-N--CA-[C] |==|  0.79443
USER: genes 15 Torsion [N]-CA--C-[N] |==|  0.82937
USER: genes 16 Torsion [C]-N--CA-[C] |==|  0.55037
USER: genes 17 Torsion [N]-CA--C-[OXT] |==|  0.47949
USER: genes 18 Torsion [N]-CA--CB-[CG] |==|  0.07336
USER: genes 19 Torsion [CA]-CB--CG-[CD] |==|  0.30844
USER: genes 20 Torsion [CB]-CG--CD-[CE] |==|  0.88356
USER: genes 21 Torsion [CG]-CD--CE-[NZ] |==|  0.24842
USER: genes 22 Torsion [CD]-CE--NZ-[HZ1] |==|  0.29839
USER: genes 23 Torsion [N]-CA--CB-[CG] |==|  0.54635
USER: genes 24 Torsion [CA]-CB--CG-[CD2] |==|  0.64421
USER: genes 25 Torsion [CE2]-CZ--OH-[HH] |==|  0.26278
ROOT
ATOM      1  C   SER P   3      19.329  26.068  39.478  1.00 32.74 LIG 0.24  C 
ATOM      2 O    SER P   3      19.497  26.012  38.264  1.00 33.45 LIG-0.27  OA
ATOM      3  N   TYR P   4      18.756  27.102  40.087  1.00 32.75 LIG-0.35  N 
ATOM      4 H    TYR P   4      18.644  27.153  40.938  1.00 32.75 LIG 0.16  HD
ENDROOT
BRANCH 1 5
ATOM      5  CA  SER P   3      19.789  24.929  40.379  1.00 31.85 LIG 0.20  C 
BRANCH 5 6
ATOM      6  N   SER P   3      18.724  24.308  41.165  1.00 31.96 LIG-0.34  N 
ATOM      7 H    SER P   3      17.922  24.492  40.915  1.00 31.96 LIG 0.16  HD
ATOM      8  C   LEU P   2      19.045  23.520  42.185  1.00 31.93 LIG 0.24  C 
ATOM      9 O    LEU P   2      20.215  23.313  42.497  1.00 32.53 LIG-0.27  OA
BRANCH 8 10
ATOM     10  CA  LEU P   2      17.927  22.879  43.008  1.00 41.07 LIG 0.18  C 
BRANCH 10 11
ATOM     11  N   LEU P   2      17.655  23.280  44.386  1.00 42.45 LIG-0.35  N 
ATOM     12  C   PHE P   1      17.709  21.836  45.156  1.00 42.69 LIG 0.25  C 
ATOM     13 O    PHE P   1      17.950  20.639  45.005  1.00 43.50 LIG-0.27  OA
ATOM     14 H    LEU P   2      17.516  24.091  44.634  1.00 42.45 LIG 0.16  HD
BRANCH 12 15
ATOM     15  CA  PHE P   1      17.383  22.367  46.546  1.00 41.57 LIG 0.28  C 
BRANCH 15 16
ATOM     16  CB  PHE P   1      16.660  23.710  46.393  1.00 35.06 LIG 0.08  C 
BRANCH 16 17
ATOM     17  CG  PHE P   1      15.207  23.584  46.031  1.00 31.19 LIG-0.06  A 
ATOM     18  CD1 PHE P   1      14.314  22.944  46.883  1.00 39.51 LIG 0.01  A 
ATOM     19  CE1 PHE P   1      12.962  22.843  46.555  1.00 39.01 LIG 0.00  A 
ATOM     20  CZ  PHE P   1      12.493  23.387  45.362  1.00 38.87 LIG 0.00  A 
ATOM     21  CE2 PHE P   1      13.377  24.028  44.504  1.00 39.01 LIG 0.00  A 
ATOM     22  CD2 PHE P   1      14.727  24.123  44.839  1.00 39.51 LIG 0.01  A 
ENDBRANCH 16 17
ENDBRANCH 15 16
BRANCH 15 23
ATOM     23  N   PHE P   1      18.655  22.544  47.305  1.00 43.28 LIG-0.07  N 
ATOM     24 H1   PHE P   1      18.542  23.163  47.934  1.00 43.28 LIG 0.28  HD
ATOM     25 H2   PHE P   1      18.884  21.774  47.686  1.00 43.28 LIG 0.28  HD
ATOM     26 H3   PHE P   1      19.300  22.802  46.748  1.00 43.28 LIG 0.28  HD
ENDBRANCH 15 23
ENDBRANCH 12 15
ENDBRANCH 10 11
BRANCH 10 27
ATOM     27  CB  LEU P   2      16.635  22.994  42.194  1.00 36.43 LIG 0.04  C 
BRANCH 27 28
ATOM     28  CG  LEU P   2      15.707  21.794  41.933  1.00 34.11 LIG-0.02  C 
ATOM     29  CD1 LEU P   2      15.643  20.884  43.150  1.00 33.27 LIG 0.01  C 
ATOM     30  CD2 LEU P   2      14.335  22.275  41.564  1.00 26.81 LIG 0.01  C 
ENDBRANCH 27 28
ENDBRANCH 10 27
ENDBRANCH 8 10
ENDBRANCH 5 6
BRANCH 5 31
ATOM     31  CB  SER P   3      20.510  23.880  39.536  1.00 31.53 LIG 0.20  C 
BRANCH 31 32
ATOM     32 OG   SER P   3      21.435  23.167  40.338  1.00 31.05 LIG-0.40  OA
ATOM     33 HG   SER P   3      22.135  23.622  40.429  1.00 31.05 LIG 0.21  HD
ENDBRANCH 31 32
ENDBRANCH 5 31
ENDBRANCH 1 5
BRANCH 3 34
ATOM     34  CA  TYR P   4      18.259  28.260  39.349  1.00 31.95 LIG 0.18  C 
BRANCH 34 35
ATOM     35  C   TYR P   4      19.452  29.092  38.888  1.00 31.84 LIG 0.24  C 
ATOM     36 O    TYR P   4      19.655  29.281  37.688  1.00 32.23 LIG-0.27  OA
ATOM     37  N   LYS P   5      20.232  29.593  39.841  1.00 32.16 LIG-0.34  N 
ATOM     38 H    LYS P   5      20.090  29.507  40.685  1.00 32.16 LIG 0.16  HD
BRANCH 37 39
ATOM     39  CA  LYS P   5      21.410  30.341  39.489  1.00 31.76 LIG 0.18  C 
BRANCH 39 40
ATOM     40  C   LYS P   5      22.392  30.450  40.654  1.00 32.94 LIG 0.20  C 
ATOM     41 OXT  LYS P   5      23.530  30.946  40.494  1.00 33.46 LIG-0.65  OA
ATOM     42 O    LYS P   5      21.989  30.429  41.812  1.00 33.40 LIG-0.65  OA
ENDBRANCH 39 40
BRANCH 39 43
ATOM     43  CB  LYS P   5      21.021  31.742  39.025  1.00 39.97 LIG 0.04  C 
BRANCH 43 44
ATOM     44  CG  LYS P   5      19.721  32.181  39.627  1.00 38.10 LIG 0.00  C 
BRANCH 44 45
ATOM     45  CD  LYS P   5      19.942  33.244  40.568  1.00 35.88 LIG 0.03  C 
BRANCH 45 46
ATOM     46  CE  LYS P   5      20.875  33.204  41.338  1.00 33.52 LIG 0.23  C 
BRANCH 46 47
ATOM     47  NZ  LYS P   5      22.182  33.781  40.930  1.00 33.07 LIG-0.08  N 
ATOM     48 HZ1  LYS P   5      22.323  34.540  41.373  1.00 33.07 LIG 0.27  HD
ATOM     49 HZ2  LYS P   5      22.833  33.203  41.118  1.00 33.07 LIG 0.27  HD
ATOM     50 HZ3  LYS P   5      22.175  33.945  40.056  1.00 33.07 LIG 0.27  HD
ENDBRANCH 46 47
ENDBRANCH 45 46
ENDBRANCH 44 45
ENDBRANCH 43 44
ENDBRANCH 39 43
ENDBRANCH 37 39
ENDBRANCH 34 35
BRANCH 34 51
ATOM     51  CB  TYR P   4      17.354  29.097  40.261  1.00 30.77 LIG 0.07  C 
BRANCH 51 52
ATOM     52  CG  TYR P   4      16.454  30.097  39.558  1.00 30.74 LIG-0.06  A 
ATOM     53  CD2 TYR P   4      16.435  31.435  39.952  1.00 30.34 LIG 0.01  A 
ATOM     54  CE2 TYR P   4      15.648  32.373  39.289  1.00 30.16 LIG 0.04  A 
ATOM     55  CZ  TYR P   4      14.867  31.978  38.217  1.00 30.33 LIG 0.07  A 
ATOM     56  CE1 TYR P   4      14.860  30.653  37.806  1.00 30.37 LIG 0.04  A 
ATOM     57  CD1 TYR P   4      15.653  29.719  38.479  1.00 30.89 LIG 0.01  A 
BRANCH 55 58
ATOM     58 OH   TYR P   4      14.111  32.912  37.546  1.00 30.16 LIG-0.36  OA
ATOM     59 HH   TYR P   4      14.539  33.194  36.881  1.00 30.16 LIG 0.22  HD
ENDBRANCH 55 58
ENDBRANCH 51 52
ENDBRANCH 34 51
ENDBRANCH 3 34
TORSDOF 24
ENDMDL
MODEL 5
USER: ADFR SOLUTION from run 136
USER: SCORE 21.390838 LL:  -3.526 LR: -20.046 RR:   0.000 FEB: -12.887
USER: RMSD 12.487147
USER: SEED 135
USER: STATUS no improvement in best 4 clusters for 5 generations
USER: GENES 26
USER: genes 0 Translation |==|  0.65690 0.70279 0.49520
USER: genes 1 Rotation |==|  0.82839 0.17021 0.60671 0.64838
USER: genes 2 Torsion [N]-C--CA-[N] |==|  0.12176
USER: genes 3 Torsion [C]-CA--N-[C] |==|  0.54671
USER: genes 4 Torsion [N]-C--CA-[N] |==|  0.18982
USER: genes 5 Torsion [C]-CA--N-[C] |==|  0.08926
USER: genes 6 Torsion [N]-C--CA-[N] |==|  0.79433
USER: genes 7 Torsion [C]-CA--CB-[CG] |==|  0.27190
USER: genes 8 Torsion [CA]-CB--CG-[CD2] |==|  0.52348
USER: genes 9 Torsion [C]-CA--N-[H1] |==|  0.82498
USER: genes 10 Torsion [C]-CA--CB-[CG] |==|  0.18850
USER: genes 11 Torsion [CA]-CB--CG-[CD2] |==|  0.55646
USER: genes 12 Torsion [C]-CA--CB-[OG] |==|  0.42260
USER: genes 13 Torsion [CA]-CB--OG-[HG] |==|  0.19975
USER: genes 14 Torsion [C]-N--CA-[C] |==|  0.88646
USER: genes 15 Torsion [N]-CA--C-[N] |==|  0.31270
USER: genes 16 Torsion [C]-N--CA-[C] |==|  0.12144
USER: genes 17 Torsion [N]-CA--C-[OXT] |==|  0.25590
USER: genes 18 Torsion [N]-CA--CB-[CG] |==|  0.84844
USER: genes 19 Torsion [CA]-CB--CG-[CD] |==|  0.85363
USER: genes 20 Torsion [CB]-CG--CD-[CE] |==|  0.33762
USER: genes 21 Torsion [CG]-CD--CE-[NZ] |==|  0.57197
USER: genes 22 Torsion [CD]-CE--NZ-[HZ1] |==|  0.95735
USER: genes 23 Torsion [N]-CA--CB-[CG] |==|  0.61274
USER: genes 24 Torsion [CA]-CB--CG-[CD2] |==|  0.00358
USER: genes 25 Torsion [CE2]-CZ--OH-[HH] |==|  0.68302
ROOT
ATOM      1  C   SER P   3      17.737  26.364  40.786  1.00 32.74 LIG 0.24  C 
ATOM      2 O    SER P   3      18.698  25.938  41.417  1.00 33.45 LIG-0.27  OA
ATOM      3  N   TYR P   4      16.505  25.881  40.923  1.00 32.75 LIG-0.35  N 
ATOM      4 H    TYR P   4      15.828  26.167  40.476  1.00 32.75 LIG 0.16  HD
ENDROOT
BRANCH 1 5
ATOM      5  CA  SER P   3      17.908  27.492  39.777  1.00 31.85 LIG 0.20  C 
BRANCH 5 6
ATOM      6  N   SER P   3      16.870  28.521  39.835  1.00 31.96 LIG-0.34  N 
ATOM      7 H    SER P   3      16.397  28.531  40.553  1.00 31.96 LIG 0.16  HD
ATOM      8  C   LEU P   2      16.723  29.353  38.810  1.00 31.93 LIG 0.24  C 
ATOM      9 O    LEU P   2      17.426  29.271  37.806  1.00 32.53 LIG-0.27  OA
BRANCH 8 10
ATOM     10  CA  LEU P   2      15.632  30.423  38.873  1.00 41.07 LIG 0.18  C 
BRANCH 10 11
ATOM     11  N   LEU P   2      15.704  31.544  39.807  1.00 42.45 LIG-0.35  N 
ATOM     12  C   PHE P   1      17.322  31.779  39.900  1.00 42.69 LIG 0.25  C 
ATOM     13 O    PHE P   1      18.405  31.419  39.441  1.00 43.50 LIG-0.27  OA
ATOM     14 H    LEU P   2      15.019  31.920  40.164  1.00 42.45 LIG 0.16  HD
BRANCH 12 15
ATOM     15  CA  PHE P   1      17.275  32.922  40.906  1.00 41.57 LIG 0.28  C 
BRANCH 15 16
ATOM     16  CB  PHE P   1      16.308  32.536  42.030  1.00 35.06 LIG 0.08  C 
BRANCH 16 17
ATOM     17  CG  PHE P   1      16.983  31.982  43.254  1.00 31.19 LIG-0.06  A 
ATOM     18  CD1 PHE P   1      18.366  32.027  43.387  1.00 39.51 LIG 0.01  A 
ATOM     19  CE1 PHE P   1      18.991  31.529  44.529  1.00 39.01 LIG 0.00  A 
ATOM     20  CZ  PHE P   1      18.227  30.978  45.555  1.00 38.87 LIG 0.00  A 
ATOM     21  CE2 PHE P   1      16.844  30.928  45.432  1.00 39.01 LIG 0.00  A 
ATOM     22  CD2 PHE P   1      16.229  31.426  44.285  1.00 39.51 LIG 0.01  A 
ENDBRANCH 16 17
ENDBRANCH 15 16
BRANCH 15 23
ATOM     23  N   PHE P   1      16.802  34.155  40.213  1.00 43.28 LIG-0.07  N 
ATOM     24 H1   PHE P   1      17.385  34.383  39.580  1.00 43.28 LIG 0.28  HD
ATOM     25 H2   PHE P   1      16.008  34.001  39.841  1.00 43.28 LIG 0.28  HD
ATOM     26 H3   PHE P   1      16.729  34.818  40.803  1.00 43.28 LIG 0.28  HD
ENDBRANCH 15 23
ENDBRANCH 12 15
ENDBRANCH 10 11
BRANCH 10 27
ATOM     27  CB  LEU P   2      15.444  30.969  37.455  1.00 36.43 LIG 0.04  C 
BRANCH 27 28
ATOM     28  CG  LEU P   2      14.856  30.125  36.311  1.00 34.11 LIG-0.02  C 
ATOM     29  CD1 LEU P   2      13.343  30.029  36.431  1.00 33.27 LIG 0.01  C 
ATOM     30  CD2 LEU P   2      15.240  30.715  34.986  1.00 26.81 LIG 0.01  C 
ENDBRANCH 27 28
ENDBRANCH 10 27
ENDBRANCH 8 10
ENDBRANCH 5 6
BRANCH 5 31
ATOM     31  CB  SER P   3      19.289  28.119  39.951  1.00 31.53 LIG 0.20  C 
BRANCH 31 32
ATOM     32 OG   SER P   3      19.729  28.669  38.722  1.00 31.05 LIG-0.40  OA
ATOM     33 HG   SER P   3      19.287  29.362  38.550  1.00 31.05 LIG 0.21  HD
ENDBRANCH 31 32
ENDBRANCH 5 31
ENDBRANCH 1 5
BRANCH 3 34
ATOM     34  CA  TYR P   4      16.192  24.804  41.858  1.00 31.95 LIG 0.18  C 
BRANCH 34 35
ATOM     35  C   TYR P   4      17.312  23.770  41.801  1.00 31.84 LIG 0.24  C 
ATOM     36 O    TYR P   4      17.490  23.099  40.784  1.00 32.23 LIG-0.27  OA
ATOM     37  N   LYS P   5      18.067  23.651  42.889  1.00 32.16 LIG-0.34  N 
ATOM     38 H    LYS P   5      17.988  24.134  43.596  1.00 32.16 LIG 0.16  HD
BRANCH 37 39
ATOM     39  CA  LYS P   5      19.109  22.658  42.937  1.00 31.76 LIG 0.18  C 
BRANCH 39 40
ATOM     40  C   LYS P   5      19.915  22.605  41.641  1.00 32.94 LIG 0.20  C 
ATOM     41 OXT  LYS P   5      20.956  23.285  41.501  1.00 33.46 LIG-0.65  OA
ATOM     42 O    LYS P   5      19.808  21.650  40.880  1.00 33.40 LIG-0.65  OA
ENDBRANCH 39 40
BRANCH 39 43
ATOM     43  CB  LYS P   5      18.507  21.283  43.213  1.00 39.97 LIG 0.04  C 
BRANCH 43 44
ATOM     44  CG  LYS P   5      17.665  21.287  44.453  1.00 38.10 LIG 0.00  C 
BRANCH 44 45
ATOM     45  CD  LYS P   5      18.410  21.822  45.559  1.00 35.88 LIG 0.03  C 
BRANCH 45 46
ATOM     46  CE  LYS P   5      18.010  22.793  46.161  1.00 33.52 LIG 0.23  C 
BRANCH 46 47
ATOM     47  NZ  LYS P   5      18.984  23.664  46.868  1.00 33.07 LIG-0.08  N 
ATOM     48 HZ1  LYS P   5      19.761  23.237  46.948  1.00 33.07 LIG 0.27  HD
ATOM     49 HZ2  LYS P   5      19.104  24.414  46.402  1.00 33.07 LIG 0.27  HD
ATOM     50 HZ3  LYS P   5      18.671  23.864  47.676  1.00 33.07 LIG 0.27  HD
ENDBRANCH 46 47
ENDBRANCH 45 46
ENDBRANCH 44 45
ENDBRANCH 43 44
ENDBRANCH 39 43
ENDBRANCH 37 39
ENDBRANCH 34 35
BRANCH 34 51
ATOM     51  CB  TYR P   4      14.857  24.160  41.467  1.00 30.77 LIG 0.07  C 
BRANCH 51 52
ATOM     52  CG  TYR P   4      13.935  23.803  42.619  1.00 30.74 LIG-0.06  A 
ATOM     53  CD2 TYR P   4      14.301  24.084  43.935  1.00 30.34 LIG 0.01  A 
ATOM     54  CE2 TYR P   4      13.449  23.802  44.999  1.00 30.16 LIG 0.04  A 
ATOM     55  CZ  TYR P   4      12.211  23.232  44.754  1.00 30.33 LIG 0.07  A 
ATOM     56  CE1 TYR P   4      11.822  22.935  43.456  1.00 30.37 LIG 0.04  A 
ATOM     57  CD1 TYR P   4      12.686  23.220  42.395  1.00 30.89 LIG 0.01  A 
BRANCH 55 58
ATOM     58 OH   TYR P   4      11.359  22.979  45.805  1.00 30.16 LIG-0.36  OA
ATOM     59 HH   TYR P   4      11.255  22.150  45.888  1.00 30.16 LIG 0.22  HD
ENDBRANCH 55 58
ENDBRANCH 51 52
ENDBRANCH 34 51
ENDBRANCH 3 34
TORSDOF 24
ENDMDL
MODEL 6
USER: ADFR SOLUTION from run 51
USER: SCORE 23.950250 LL:  -4.351 LR: -19.842 RR:   0.000 FEB: -12.683
USER: RMSD 12.926053
USER: SEED 50
USER: STATUS no improvement in best 4 clusters for 5 generations
USER: GENES 26
USER: genes 0 Translation |==|  0.63352 0.55473 0.63845
USER: genes 1 Rotation |==|  0.49653 0.89386 0.40663 0.79350
USER: genes 2 Torsion [N]-C--CA-[N] |==|  0.86667
USER: genes 3 Torsion [C]-CA--N-[C] |==|  0.83709
USER: genes 4 Torsion [N]-C--CA-[N] |==|  0.99090
USER: genes 5 Torsion [C]-CA--N-[C] |==|  0.75501
USER: genes 6 Torsion [N]-C--CA-[N] |==|  0.84590
USER: genes 7 Torsion [C]-CA--CB-[CG] |==|  0.10665
USER: genes 8 Torsion [CA]-CB--CG-[CD2] |==|  0.17597
USER: genes 9 Torsion [C]-CA--N-[H1] |==|  0.75961
USER: genes 10 Torsion [C]-CA--CB-[CG] |==|  0.38696
USER: genes 11 Torsion [CA]-CB--CG-[CD2] |==|  0.72687
USER: genes 12 Torsion [C]-CA--CB-[OG] |==|  0.81500
USER: genes 13 Torsion [CA]-CB--OG-[HG] |==|  0.98715
USER: genes 14 Torsion [C]-N--CA-[C] |==|  0.61942
USER: genes 15 Torsion [N]-CA--C-[N] |==|  0.47074
USER: genes 16 Torsion [C]-N--CA-[C] |==|  0.18306
USER: genes 17 Torsion [N]-CA--C-[OXT] |==|  0.26404
USER: genes 18 Torsion [N]-CA--CB-[CG] |==|  0.76218
USER: genes 19 Torsion [CA]-CB--CG-[CD] |==|  0.39852
USER: genes 20 Torsion [CB]-CG--CD-[CE] |==|  0.60211
USER: genes 21 Torsion [CG]-CD--CE-[NZ] |==|  0.29838
USER: genes 22 Torsion [CD]-CE--NZ-[HZ1] |==|  0.64629
USER: genes 23 Torsion [N]-CA--CB-[CG] |==|  0.85011
USER: genes 24 Torsion [CA]-CB--CG-[CD2] |==|  0.74734
USER: genes 25 Torsion [CE2]-CZ--OH-[HH] |==|  0.29166
ROOT
ATOM      1  C   SER P   3      17.036  21.922  45.083  1.00 32.74 LIG 0.24  C 
ATOM      2 O    SER P   3      16.343  20.982  44.710  1.00 33.45 LIG-0.27  OA
ATOM      3  N   TYR P   4      17.499  22.858  44.259  1.00 32.75 LIG-0.35  N 
ATOM      4 H    TYR P   4      17.994  23.514  44.512  1.00 32.75 LIG 0.16  HD
ENDROOT
BRANCH 1 5
ATOM      5  CA  SER P   3      17.422  22.068  46.550  1.00 31.85 LIG 0.20  C 
BRANCH 5 6
ATOM      6  N   SER P   3      18.843  22.323  46.781  1.00 31.96 LIG-0.34  N 
ATOM      7 H    SER P   3      19.027  23.051  47.202  1.00 31.96 LIG 0.16  HD
ATOM      8  C   LEU P   2      19.740  21.447  46.342  1.00 31.93 LIG 0.24  C 
ATOM      9 O    LEU P   2      19.407  20.434  45.731  1.00 32.53 LIG-0.27  OA
BRANCH 8 10
ATOM     10  CA  LEU P   2      21.225  21.722  46.581  1.00 41.07 LIG 0.18  C 
BRANCH 10 11
ATOM     11  N   LEU P   2      21.690  22.953  47.215  1.00 42.45 LIG-0.35  N 
ATOM     12  C   PHE P   1      21.845  23.941  45.919  1.00 42.69 LIG 0.25  C 
ATOM     13 O    PHE P   1      21.653  24.026  44.706  1.00 43.50 LIG-0.27  OA
ATOM     14 H    LEU P   2      21.819  23.043  48.060  1.00 42.45 LIG 0.16  HD
BRANCH 12 15
ATOM     15  CA  PHE P   1      22.357  25.155  46.684  1.00 41.57 LIG 0.28  C 
BRANCH 15 16
ATOM     16  CB  PHE P   1      23.720  24.803  47.290  1.00 35.06 LIG 0.08  C 
BRANCH 16 17
ATOM     17  CG  PHE P   1      24.587  23.960  46.398  1.00 31.19 LIG-0.06  A 
ATOM     18  CD1 PHE P   1      24.951  22.670  46.770  1.00 39.51 LIG 0.01  A 
ATOM     19  CE1 PHE P   1      25.741  21.882  45.935  1.00 39.01 LIG 0.00  A 
ATOM     20  CZ  PHE P   1      26.175  22.384  44.711  1.00 38.87 LIG 0.00  A 
ATOM     21  CE2 PHE P   1      25.818  23.671  44.330  1.00 39.01 LIG 0.00  A 
ATOM     22  CD2 PHE P   1      25.029  24.453  45.172  1.00 39.51 LIG 0.01  A 
ENDBRANCH 16 17
ENDBRANCH 15 16
BRANCH 15 23
ATOM     23  N   PHE P   1      21.381  25.494  47.759  1.00 43.28 LIG-0.07  N 
ATOM     24 H1   PHE P   1      20.750  26.029  47.430  1.00 43.28 LIG 0.28  HD
ATOM     25 H2   PHE P   1      21.005  24.748  48.066  1.00 43.28 LIG 0.28  HD
ATOM     26 H3   PHE P   1      21.803  25.909  48.425  1.00 43.28 LIG 0.28  HD
ENDBRANCH 15 23
ENDBRANCH 12 15
ENDBRANCH 10 11
BRANCH 10 27
ATOM     27  CB  LEU P   2      21.795  20.525  47.346  1.00 36.43 LIG 0.04  C 
BRANCH 27 28
ATOM     28  CG  LEU P   2      23.177  19.922  47.037  1.00 34.11 LIG-0.02  C 
ATOM     29  CD1 LEU P   2      23.910  19.559  48.319  1.00 33.27 LIG 0.01  C 
ATOM     30  CD2 LEU P   2      23.027  18.714  46.159  1.00 26.81 LIG 0.01  C 
ENDBRANCH 27 28
ENDBRANCH 10 27
ENDBRANCH 8 10
ENDBRANCH 5 6
BRANCH 5 31
ATOM     31  CB  SER P   3      16.574  23.165  47.188  1.00 31.53 LIG 0.20  C 
BRANCH 31 32
ATOM     32 OG   SER P   3      16.904  24.422  46.623  1.00 31.05 LIG-0.40  OA
ATOM     33 HG   SER P   3      17.547  24.330  46.091  1.00 31.05 LIG 0.21  HD
ENDBRANCH 31 32
ENDBRANCH 5 31
ENDBRANCH 1 5
BRANCH 3 34
ATOM     34  CA  TYR P   4      17.202  22.848  42.829  1.00 31.95 LIG 0.18  C 
BRANCH 34 35
ATOM     35  C   TYR P   4      18.479  23.184  42.065  1.00 31.84 LIG 0.24  C 
ATOM     36 O    TYR P   4      19.477  23.585  42.663  1.00 32.23 LIG-0.27  OA
ATOM     37  N   LYS P   5      18.446  23.009  40.747  1.00 32.16 LIG-0.34  N 
ATOM     38 H    LYS P   5      17.775  22.694  40.311  1.00 32.16 LIG 0.16  HD
BRANCH 37 39
ATOM     39  CA  LYS P   5      19.590  23.356  39.945  1.00 31.76 LIG 0.18  C 
BRANCH 39 40
ATOM     40  C   LYS P   5      20.795  22.468  40.247  1.00 32.94 LIG 0.20  C 
ATOM     41 OXT  LYS P   5      21.037  21.452  39.558  1.00 33.46 LIG-0.65  OA
ATOM     42 O    LYS P   5      21.748  22.905  40.884  1.00 33.40 LIG-0.65  OA
ENDBRANCH 39 40
BRANCH 39 43
ATOM     43  CB  LYS P   5      19.969  24.816  40.180  1.00 39.97 LIG 0.04  C 
BRANCH 43 44
ATOM     44  CG  LYS P   5      19.183  25.739  39.299  1.00 38.10 LIG 0.00  C 
BRANCH 44 45
ATOM     45  CD  LYS P   5      18.869  26.952  40.002  1.00 35.88 LIG 0.03  C 
BRANCH 45 46
ATOM     46  CE  LYS P   5      17.806  27.505  39.835  1.00 33.52 LIG 0.23  C 
BRANCH 46 47
ATOM     47  NZ  LYS P   5      16.780  27.452  40.909  1.00 33.07 LIG-0.08  N 
ATOM     48 HZ1  LYS P   5      16.011  27.159  40.570  1.00 33.07 LIG 0.27  HD
ATOM     49 HZ2  LYS P   5      17.051  26.898  41.552  1.00 33.07 LIG 0.27  HD
ATOM     50 HZ3  LYS P   5      16.663  28.266  41.249  1.00 33.07 LIG 0.27  HD
ENDBRANCH 46 47
ENDBRANCH 45 46
ENDBRANCH 44 45
ENDBRANCH 43 44
ENDBRANCH 39 43
ENDBRANCH 37 39
ENDBRANCH 34 35
BRANCH 34 51
ATOM     51  CB  TYR P   4      16.117  23.889  42.527  1.00 30.77 LIG 0.07  C 
BRANCH 51 52
ATOM     52  CG  TYR P   4      14.843  23.768  43.344  1.00 30.74 LIG-0.06  A 
ATOM     53  CD2 TYR P   4      13.773  22.999  42.883  1.00 30.34 LIG 0.01  A 
ATOM     54  CE2 TYR P   4      12.616  22.844  43.640  1.00 30.16 LIG 0.04  A 
ATOM     55  CZ  TYR P   4      12.516  23.460  44.876  1.00 30.33 LIG 0.07  A 
ATOM     56  CE1 TYR P   4      13.560  24.235  45.358  1.00 30.37 LIG 0.04  A 
ATOM     57  CD1 TYR P   4      14.718  24.387  44.589  1.00 30.89 LIG 0.01  A 
BRANCH 55 58
ATOM     58 OH   TYR P   4      11.381  23.282  45.635  1.00 30.16 LIG-0.36  OA
ATOM     59 HH   TYR P   4      11.546  22.753  46.266  1.00 30.16 LIG 0.22  HD
ENDBRANCH 55 58
ENDBRANCH 51 52
ENDBRANCH 34 51
ENDBRANCH 3 34
TORSDOF 24
ENDMDL
MODEL 7
USER: ADFR SOLUTION from run 65
USER: SCORE 22.070801 LL:  -3.674 LR: -19.816 RR:   0.000 FEB: -12.657
USER: RMSD 12.181070
USER: SEED 64
USER: STATUS no improvement in best 2 clusters for 5 generations
USER: GENES 26
USER: genes 0 Translation |==|  0.62490 0.63742 0.52518
USER: genes 1 Rotation |==|  0.76870 0.75008 0.41839 0.82955
USER: genes 2 Torsion [N]-C--CA-[N] |==|  0.04818
USER: genes 3 Torsion [C]-CA--N-[C] |==|  0.60000
USER: genes 4 Torsion [N]-C--CA-[N] |==|  0.95072
USER: genes 5 Torsion [C]-CA--N-[C] |==|  0.76968
USER: genes 6 Torsion [N]-C--CA-[N] |==|  0.07291
USER: genes 7 Torsion [C]-CA--CB-[CG] |==|  0.40560
USER: genes 8 Torsion [CA]-CB--CG-[CD2] |==|  0.76125
USER: genes 9 Torsion [C]-CA--N-[H1] |==|  0.47870
USER: genes 10 Torsion [C]-CA--CB-[CG] |==|  0.11726
USER: genes 11 Torsion [CA]-CB--CG-[CD2] |==|  0.72466
USER: genes 12 Torsion [C]-CA--CB-[OG] |==|  0.43218
USER: genes 13 Torsion [CA]-CB--OG-[HG] |==|  0.09089
USER: genes 14 Torsion [C]-N--CA-[C] |==|  0.20188
USER: genes 15 Torsion [N]-CA--C-[N] |==|  0.44530
USER: genes 16 Torsion [C]-N--CA-[C] |==|  0.52291
USER: genes 17 Torsion [N]-CA--C-[OXT] |==|  0.39391
USER: genes 18 Torsion [N]-CA--CB-[CG] |==|  0.49944
USER: genes 19 Torsion [CA]-CB--CG-[CD] |==|  0.70944
USER: genes 20 Torsion [CB]-CG--CD-[CE] |==|  0.47716
USER: genes 21 Torsion [CG]-CD--CE-[NZ] |==|  0.51956
USER: genes 22 Torsion [CD]-CE--NZ-[HZ1] |==|  0.28582
USER: genes 23 Torsion [N]-CA--CB-[CG] |==|  0.66731
USER: genes 24 Torsion [CA]-CB--CG-[CD2] |==|  0.73572
USER: genes 25 Torsion [CE2]-CZ--OH-[HH] |==|  0.56198
ROOT
ATOM      1  C   SER P   3      16.777  24.402  41.685  1.00 32.74 LIG 0.24  C 
ATOM      2 O    SER P   3      16.305  24.565  40.566  1.00 33.45 LIG-0.27  OA
ATOM      3  N   TYR P   4      18.046  24.666  41.985  1.00 32.75 LIG-0.35  N 
ATOM      4 H    TYR P   4      18.387  24.545  42.765  1.00 32.75 LIG 0.16  HD
ENDROOT
BRANCH 1 5
ATOM      5  CA  SER P   3      15.916  23.865  42.822  1.00 31.85 LIG 0.20  C 
BRANCH 5 6
ATOM      6  N   SER P   3      16.469  24.082  44.158  1.00 31.96 LIG-0.34  N 
ATOM      7 H    SER P   3      16.891  24.824  44.269  1.00 31.96 LIG 0.16  HD
ATOM      8  C   LEU P   2      16.295  23.155  45.092  1.00 31.93 LIG 0.24  C 
ATOM      9 O    LEU P   2      15.694  22.109  44.857  1.00 32.53 LIG-0.27  OA
BRANCH 8 10
ATOM     10  CA  LEU P   2      16.881  23.384  46.485  1.00 41.07 LIG 0.18  C 
BRANCH 10 11
ATOM     11  N   LEU P   2      17.927  24.374  46.729  1.00 42.45 LIG-0.35  N 
ATOM     12  C   PHE P   1      19.267  23.535  46.304  1.00 42.69 LIG 0.25  C 
ATOM     13 O    PHE P   1      19.663  22.474  45.821  1.00 43.50 LIG-0.27  OA
ATOM     14 H    LEU P   2      17.781  25.170  47.021  1.00 42.45 LIG 0.16  HD
BRANCH 12 15
ATOM     15  CA  PHE P   1      20.271  24.634  46.627  1.00 41.57 LIG 0.28  C 
BRANCH 15 16
ATOM     16  CB  PHE P   1      21.559  23.977  47.136  1.00 35.06 LIG 0.08  C 
BRANCH 16 17
ATOM     17  CG  PHE P   1      22.813  24.708  46.749  1.00 31.19 LIG-0.06  A 
ATOM     18  CD1 PHE P   1      23.396  25.629  47.613  1.00 39.51 LIG 0.01  A 
ATOM     19  CE1 PHE P   1      24.569  26.295  47.262  1.00 39.01 LIG 0.00  A 
ATOM     20  CZ  PHE P   1      25.172  26.041  46.033  1.00 38.87 LIG 0.00  A 
ATOM     21  CE2 PHE P   1      24.598  25.124  45.162  1.00 39.01 LIG 0.00  A 
ATOM     22  CD2 PHE P   1      23.424  24.464  45.521  1.00 39.51 LIG 0.01  A 
ENDBRANCH 16 17
ENDBRANCH 15 16
BRANCH 15 23
ATOM     23  N   PHE P   1      19.692  25.524  47.674  1.00 43.28 LIG-0.07  N 
ATOM     24 H1   PHE P   1      20.311  26.101  47.949  1.00 43.28 LIG 0.28  HD
ATOM     25 H2   PHE P   1      19.001  25.971  47.336  1.00 43.28 LIG 0.28  HD
ATOM     26 H3   PHE P   1      19.417  25.032  48.364  1.00 43.28 LIG 0.28  HD
ENDBRANCH 15 23
ENDBRANCH 12 15
ENDBRANCH 10 11
BRANCH 10 27
ATOM     27  CB  LEU P   2      15.711  23.654  47.435  1.00 36.43 LIG 0.04  C 
BRANCH 27 28
ATOM     28  CG  LEU P   2      14.399  22.851  47.387  1.00 34.11 LIG-0.02  C 
ATOM     29  CD1 LEU P   2      13.910  22.526  48.790  1.00 33.27 LIG 0.01  C 
ATOM     30  CD2 LEU P   2      13.353  23.618  46.632  1.00 26.81 LIG 0.01  C 
ENDBRANCH 27 28
ENDBRANCH 10 27
ENDBRANCH 8 10
ENDBRANCH 5 6
BRANCH 5 31
ATOM     31  CB  SER P   3      14.517  24.466  42.721  1.00 31.53 LIG 0.20  C 
BRANCH 31 32
ATOM     32 OG   SER P   3      13.578  23.617  43.357  1.00 31.05 LIG-0.40  OA
ATOM     33 HG   SER P   3      13.944  23.232  44.007  1.00 31.05 LIG 0.21  HD
ENDBRANCH 31 32
ENDBRANCH 5 31
ENDBRANCH 1 5
BRANCH 3 34
ATOM     34  CA  TYR P   4      18.984  25.192  40.998  1.00 31.95 LIG 0.18  C 
BRANCH 34 35
ATOM     35  C   TYR P   4      18.635  26.652  40.724  1.00 31.84 LIG 0.24  C 
ATOM     36 O    TYR P   4      17.520  27.091  41.010  1.00 32.23 LIG-0.27  OA
ATOM     37  N   LYS P   5      19.590  27.400  40.181  1.00 32.16 LIG-0.34  N 
ATOM     38 H    LYS P   5      20.387  27.127  40.007  1.00 32.16 LIG 0.16  HD
BRANCH 37 39
ATOM     39  CA  LYS P   5      19.323  28.773  39.838  1.00 31.76 LIG 0.18  C 
BRANCH 39 40
ATOM     40  C   LYS P   5      20.468  29.402  39.048  1.00 32.94 LIG 0.20  C 
ATOM     41 OXT  LYS P   5      20.243  30.198  38.109  1.00 33.46 LIG-0.65  OA
ATOM     42 O    LYS P   5      21.595  29.465  39.528  1.00 33.40 LIG-0.65  OA
ENDBRANCH 39 40
BRANCH 39 43
ATOM     43  CB  LYS P   5      19.077  29.588  41.104  1.00 39.97 LIG 0.04  C 
BRANCH 43 44
ATOM     44  CG  LYS P   5      18.799  31.027  40.789  1.00 38.10 LIG 0.00  C 
BRANCH 44 45
ATOM     45  CD  LYS P   5      19.948  31.834  41.095  1.00 35.88 LIG 0.03  C 
BRANCH 45 46
ATOM     46  CE  LYS P   5      19.986  33.001  40.777  1.00 33.52 LIG 0.23  C 
BRANCH 46 47
ATOM     47  NZ  LYS P   5      21.245  33.768  40.964  1.00 33.07 LIG-0.08  N 
ATOM     48 HZ1  LYS P   5      21.655  33.861  40.180  1.00 33.07 LIG 0.27  HD
ATOM     49 HZ2  LYS P   5      21.055  34.572  41.297  1.00 33.07 LIG 0.27  HD
ATOM     50 HZ3  LYS P   5      21.777  33.332  41.528  1.00 33.07 LIG 0.27  HD
ENDBRANCH 46 47
ENDBRANCH 45 46
ENDBRANCH 44 45
ENDBRANCH 43 44
ENDBRANCH 39 43
ENDBRANCH 37 39
ENDBRANCH 34 35
BRANCH 34 51
ATOM     51  CB  TYR P   4      18.878  24.373  39.706  1.00 30.77 LIG 0.07  C 
BRANCH 51 52
ATOM     52  CG  TYR P   4      20.149  23.668  39.267  1.00 30.74 LIG-0.06  A 
ATOM     53  CD2 TYR P   4      21.006  24.261  38.339  1.00 30.34 LIG 0.01  A 
ATOM     54  CE2 TYR P   4      22.196  23.647  37.959  1.00 30.16 LIG 0.04  A 
ATOM     55  CZ  TYR P   4      22.544  22.425  38.508  1.00 30.33 LIG 0.07  A 
ATOM     56  CE1 TYR P   4      21.709  21.808  39.428  1.00 30.37 LIG 0.04  A 
ATOM     57  CD1 TYR P   4      20.515  22.432  39.802  1.00 30.89 LIG 0.01  A 
BRANCH 55 58
ATOM     58 OH   TYR P   4      23.734  21.833  38.151  1.00 30.16 LIG-0.36  OA
ATOM     59 HH   TYR P   4      23.690  21.007  38.294  1.00 30.16 LIG 0.22  HD
ENDBRANCH 55 58
ENDBRANCH 51 52
ENDBRANCH 34 51
ENDBRANCH 3 34
TORSDOF 24
ENDMDL
MODEL 8
USER: ADFR SOLUTION from run 51
USER: SCORE 24.331492 LL:  -4.800 LR: -19.713 RR:   0.000 FEB: -12.553
USER: RMSD 13.409089
USER: SEED 50
USER: STATUS no improvement in best 4 clusters for 5 generations
USER: GENES 26
USER: genes 0 Translation |==|  0.63463 0.55331 0.63892
USER: genes 1 Rotation |==|  0.51926 0.89952 0.42235 0.78979
USER: genes 2 Torsion [N]-C--CA-[N] |==|  0.88230
USER: genes 3 Torsion [C]-CA--N-[C] |==|  0.83026
USER: genes 4 Torsion [N]-C--CA-[N] |==|  0.97782
USER: genes 5 Torsion [C]-CA--N-[C] |==|  0.75002
USER: genes 6 Torsion [N]-C--CA-[N] |==|  0.84737
USER: genes 7 Torsion [C]-CA--CB-[CG] |==|  0.68683
USER: genes 8 Torsion [CA]-CB--CG-[CD2] |==|  0.27958
USER: genes 9 Torsion [C]-CA--N-[H1] |==|  0.76389
USER: genes 10 Torsion [C]-CA--CB-[CG] |==|  0.41656
USER: genes 11 Torsion [CA]-CB--CG-[CD2] |==|  0.71257
USER: genes 12 Torsion [C]-CA--CB-[OG] |==|  0.51770
USER: genes 13 Torsion [CA]-CB--OG-[HG] |==|  0.08967
USER: genes 14 Torsion [C]-N--CA-[C] |==|  0.63400
USER: genes 15 Torsion [N]-CA--C-[N] |==|  0.44691
USER: genes 16 Torsion [C]-N--CA-[C] |==|  0.17099
USER: genes 17 Torsion [N]-CA--C-[OXT] |==|  0.17002
USER: genes 18 Torsion [N]-CA--CB-[CG] |==|  0.70856
USER: genes 19 Torsion [CA]-CB--CG-[CD] |==|  0.87206
USER: genes 20 Torsion [CB]-CG--CD-[CE] |==|  0.85180
USER: genes 21 Torsion [CG]-CD--CE-[NZ] |==|  0.31276
USER: genes 22 Torsion [CD]-CE--NZ-[HZ1] |==|  0.66447
USER: genes 23 Torsion [N]-CA--CB-[CG] |==|  0.76550
USER: genes 24 Torsion [CA]-CB--CG-[CD2] |==|  0.24849
USER: genes 25 Torsion [CE2]-CZ--OH-[HH] |==|  0.29209
ROOT
ATOM      1  C   SER P   3      17.069  21.879  45.098  1.00 32.74 LIG 0.24  C 
ATOM      2 O    SER P   3      16.339  21.011  44.633  1.00 33.45 LIG-0.27  OA
ATOM      3  N   TYR P   4      17.562  22.880  44.373  1.00 32.75 LIG-0.35  N 
ATOM      4 H    TYR P   4      18.083  23.487  44.689  1.00 32.75 LIG 0.16  HD
ENDROOT
BRANCH 1 5
ATOM      5  CA  SER P   3      17.470  21.853  46.567  1.00 31.85 LIG 0.20  C 
BRANCH 5 6
ATOM      6  N   SER P   3      18.878  22.157  46.818  1.00 31.96 LIG-0.34  N 
ATOM      7 H    SER P   3      19.028  22.852  47.303  1.00 31.96 LIG 0.16  HD
ATOM      8  C   LEU P   2      19.815  21.371  46.300  1.00 31.93 LIG 0.24  C 
ATOM      9 O    LEU P   2      19.529  20.402  45.600  1.00 32.53 LIG-0.27  OA
BRANCH 8 10
ATOM     10  CA  LEU P   2      21.286  21.697  46.560  1.00 41.07 LIG 0.18  C 
BRANCH 10 11
ATOM     11  N   LEU P   2      21.697  22.937  47.213  1.00 42.45 LIG-0.35  N 
ATOM     12  C   PHE P   1      21.880  23.932  45.926  1.00 42.69 LIG 0.25  C 
ATOM     13 O    PHE P   1      21.733  24.015  44.706  1.00 43.50 LIG-0.27  OA
ATOM     14 H    LEU P   2      21.792  23.028  48.063  1.00 42.45 LIG 0.16  HD
BRANCH 12 15
ATOM     15  CA  PHE P   1      22.334  25.155  46.712  1.00 41.57 LIG 0.28  C 
BRANCH 15 16
ATOM     16  CB  PHE P   1      23.686  24.838  47.359  1.00 35.06 LIG 0.08  C 
BRANCH 16 17
ATOM     17  CG  PHE P   1      23.643  24.756  48.859  1.00 31.19 LIG-0.06  A 
ATOM     18  CD1 PHE P   1      23.627  25.910  49.635  1.00 39.51 LIG 0.01  A 
ATOM     19  CE1 PHE P   1      23.570  25.835  51.026  1.00 39.01 LIG 0.00  A 
ATOM     20  CZ  PHE P   1      23.528  24.593  51.654  1.00 38.87 LIG 0.00  A 
ATOM     21  CE2 PHE P   1      23.544  23.434  50.888  1.00 39.01 LIG 0.00  A 
ATOM     22  CD2 PHE P   1      23.603  23.520  49.498  1.00 39.51 LIG 0.01  A 
ENDBRANCH 16 17
ENDBRANCH 15 16
BRANCH 15 23
ATOM     23  N   PHE P   1      21.315  25.461  47.758  1.00 43.28 LIG-0.07  N 
ATOM     24 H1   PHE P   1      20.669  25.961  47.406  1.00 43.28 LIG 0.28  HD
ATOM     25 H2   PHE P   1      20.967  24.703  48.066  1.00 43.28 LIG 0.28  HD
ATOM     26 H3   PHE P   1      21.701  25.904  48.428  1.00 43.28 LIG 0.28  HD
ENDBRANCH 15 23
ENDBRANCH 12 15
ENDBRANCH 10 11
BRANCH 10 27
ATOM     27  CB  LEU P   2      21.890  20.513  47.319  1.00 36.43 LIG 0.04  C 
BRANCH 27 28
ATOM     28  CG  LEU P   2      23.372  20.114  47.194  1.00 34.11 LIG-0.02  C 
ATOM     29  CD1 LEU P   2      23.979  19.849  48.562  1.00 33.27 LIG 0.01  C 
ATOM     30  CD2 LEU P   2      23.506  18.904  46.316  1.00 26.81 LIG 0.01  C 
ENDBRANCH 27 28
ENDBRANCH 10 27
ENDBRANCH 8 10
ENDBRANCH 5 6
BRANCH 5 31
ATOM     31  CB  SER P   3      16.572  22.806  47.352  1.00 31.53 LIG 0.20  C 
BRANCH 31 32
ATOM     32 OG   SER P   3      17.025  22.905  48.690  1.00 31.05 LIG-0.40  OA
ATOM     33 HG   SER P   3      17.860  22.821  48.711  1.00 31.05 LIG 0.21  HD
ENDBRANCH 31 32
ENDBRANCH 5 31
ENDBRANCH 1 5
BRANCH 3 34
ATOM     34  CA  TYR P   4      17.256  23.035  42.953  1.00 31.95 LIG 0.18  C 
BRANCH 34 35
ATOM     35  C   TYR P   4      18.559  23.273  42.198  1.00 31.84 LIG 0.24  C 
ATOM     36 O    TYR P   4      19.569  23.645  42.796  1.00 32.23 LIG-0.27  OA
ATOM     37  N   LYS P   5      18.536  23.049  40.887  1.00 32.16 LIG-0.34  N 
ATOM     38 H    LYS P   5      17.856  22.752  40.453  1.00 32.16 LIG 0.16  HD
BRANCH 37 39
ATOM     39  CA  LYS P   5      19.709  23.304  40.092  1.00 31.76 LIG 0.18  C 
BRANCH 39 40
ATOM     40  C   LYS P   5      20.893  22.440  40.518  1.00 32.94 LIG 0.20  C 
ATOM     41 OXT  LYS P   5      20.835  21.191  40.458  1.00 33.46 LIG-0.65  OA
ATOM     42 O    LYS P   5      22.026  22.909  40.555  1.00 33.40 LIG-0.65  OA
ENDBRANCH 39 40
BRANCH 39 43
ATOM     43  CB  LYS P   5      20.097  24.776  40.192  1.00 39.97 LIG 0.04  C 
BRANCH 43 44
ATOM     44  CG  LYS P   5      19.735  25.529  38.948  1.00 38.10 LIG 0.00  C 
BRANCH 44 45
ATOM     45  CD  LYS P   5      20.140  24.791  37.783  1.00 35.88 LIG 0.03  C 
BRANCH 45 46
ATOM     46  CE  LYS P   5      21.280  24.405  37.662  1.00 33.52 LIG 0.23  C 
BRANCH 46 47
ATOM     47  NZ  LYS P   5      21.565  22.947  37.698  1.00 33.07 LIG-0.08  N 
ATOM     48 HZ1  LYS P   5      22.128  22.771  38.365  1.00 33.07 LIG 0.27  HD
ATOM     49 HZ2  LYS P   5      20.806  22.499  37.825  1.00 33.07 LIG 0.27  HD
ATOM     50 HZ3  LYS P   5      21.931  22.697  36.927  1.00 33.07 LIG 0.27  HD
ENDBRANCH 46 47
ENDBRANCH 45 46
ENDBRANCH 44 45
ENDBRANCH 43 44
ENDBRANCH 39 43
ENDBRANCH 37 39
ENDBRANCH 34 35
BRANCH 34 51
ATOM     51  CB  TYR P   4      16.310  24.226  42.763  1.00 30.77 LIG 0.07  C 
BRANCH 51 52
ATOM     52  CG  TYR P   4      14.833  23.931  42.953  1.00 30.74 LIG-0.06  A 
ATOM     53  CD2 TYR P   4      14.242  24.046  44.212  1.00 30.34 LIG 0.01  A 
ATOM     54  CE2 TYR P   4      12.880  23.821  44.394  1.00 30.16 LIG 0.04  A 
ATOM     55  CZ  TYR P   4      12.090  23.476  43.310  1.00 30.33 LIG 0.07  A 
ATOM     56  CE1 TYR P   4      12.651  23.348  42.048  1.00 30.37 LIG 0.04  A 
ATOM     57  CD1 TYR P   4      14.020  23.574  41.876  1.00 30.89 LIG 0.01  A 
BRANCH 55 58
ATOM     58 OH   TYR P   4      10.740  23.280  43.489  1.00 30.16 LIG-0.36  OA
ATOM     59 HH   TYR P   4      10.318  23.937  43.180  1.00 30.16 LIG 0.22  HD
ENDBRANCH 55 58
ENDBRANCH 51 52
ENDBRANCH 34 51
ENDBRANCH 3 34
TORSDOF 24
ENDMDL
MODEL 9
USER: ADFR SOLUTION from run 83
USER: SCORE 20.958566 LL:  -3.448 LR: -19.590 RR:   0.000 FEB: -12.431
USER: RMSD 11.451204
USER: SEED 82
USER: STATUS no improvement in best 6 clusters for 5 generations
USER: GENES 26
USER: genes 0 Translation |==|  0.65150 0.75021 0.48096
USER: genes 1 Rotation |==|  0.24260 0.18609 0.67307 0.73505
USER: genes 2 Torsion [N]-C--CA-[N] |==|  0.37607
USER: genes 3 Torsion [C]-CA--N-[C] |==|  0.51708
USER: genes 4 Torsion [N]-C--CA-[N] |==|  0.28333
USER: genes 5 Torsion [C]-CA--N-[C] |==|  0.61971
USER: genes 6 Torsion [N]-C--CA-[N] |==|  0.55200
USER: genes 7 Torsion [C]-CA--CB-[CG] |==|  0.28830
USER: genes 8 Torsion [CA]-CB--CG-[CD2] |==|  0.07207
USER: genes 9 Torsion [C]-CA--N-[H1] |==|  0.25936
USER: genes 10 Torsion [C]-CA--CB-[CG] |==|  0.08299
USER: genes 11 Torsion [CA]-CB--CG-[CD2] |==|  0.67136
USER: genes 12 Torsion [C]-CA--CB-[OG] |==|  0.73949
USER: genes 13 Torsion [CA]-CB--OG-[HG] |==|  0.80448
USER: genes 14 Torsion [C]-N--CA-[C] |==|  0.17832
USER: genes 15 Torsion [N]-CA--C-[N] |==|  0.32564
USER: genes 16 Torsion [C]-N--CA-[C] |==|  0.19968
USER: genes 17 Torsion [N]-CA--C-[OXT] |==|  0.95554
USER: genes 18 Torsion [N]-CA--CB-[CG] |==|  0.34112
USER: genes 19 Torsion [CA]-CB--CG-[CD] |==|  0.29185
USER: genes 20 Torsion [CB]-CG--CD-[CE] |==|  0.85036
USER: genes 21 Torsion [CG]-CD--CE-[NZ] |==|  0.28241
USER: genes 22 Torsion [CD]-CE--NZ-[HZ1] |==|  0.12763
USER: genes 23 Torsion [N]-CA--CB-[CG] |==|  0.60941
USER: genes 24 Torsion [CA]-CB--CG-[CD2] |==|  0.74001
USER: genes 25 Torsion [CE2]-CZ--OH-[HH] |==|  0.42856
ROOT
ATOM      1  C   SER P   3      17.575  27.786  40.359  1.00 32.74 LIG 0.24  C 
ATOM      2 O    SER P   3      17.530  28.318  41.463  1.00 33.45 LIG-0.27  OA
ATOM      3  N   TYR P   4      17.612  28.474  39.221  1.00 32.75 LIG-0.35  N 
ATOM      4 H    TYR P   4      17.633  28.108  38.443  1.00 32.75 LIG 0.16  HD
ENDROOT
BRANCH 1 5
ATOM      5  CA  SER P   3      17.579  26.268  40.227  1.00 31.85 LIG 0.20  C 
BRANCH 5 6
ATOM      6  N   SER P   3      18.484  25.581  41.148  1.00 31.96 LIG-0.34  N 
ATOM      7 H    SER P   3      18.868  26.081  41.733  1.00 31.96 LIG 0.16  HD
ATOM      8  C   LEU P   2      18.655  24.270  41.032  1.00 31.93 LIG 0.24  C 
ATOM      9 O    LEU P   2      18.085  23.619  40.160  1.00 32.53 LIG-0.27  OA
BRANCH 8 10
ATOM     10  CA  LEU P   2      19.607  23.557  41.994  1.00 41.07 LIG 0.18  C 
BRANCH 10 11
ATOM     11  N   LEU P   2      19.118  22.786  43.134  1.00 42.45 LIG-0.35  N 
ATOM     12  C   PHE P   1      20.154  23.258  44.309  1.00 42.69 LIG 0.25  C 
ATOM     13 O    PHE P   1      21.080  24.028  44.566  1.00 43.50 LIG-0.27  OA
ATOM     14 H    LEU P   2      18.449  22.246  43.101  1.00 42.45 LIG 0.16  HD
BRANCH 12 15
ATOM     15  CA  PHE P   1      19.579  22.381  45.413  1.00 41.57 LIG 0.28  C 
BRANCH 15 16
ATOM     16  CB  PHE P   1      18.051  22.414  45.309  1.00 35.06 LIG 0.08  C 
BRANCH 16 17
ATOM     17  CG  PHE P   1      17.451  21.176  44.706  1.00 31.19 LIG-0.06  A 
ATOM     18  CD1 PHE P   1      16.229  21.226  44.043  1.00 39.51 LIG 0.01  A 
ATOM     19  CE1 PHE P   1      15.681  20.080  43.469  1.00 39.01 LIG 0.00  A 
ATOM     20  CZ  PHE P   1      16.358  18.866  43.554  1.00 38.87 LIG 0.00  A 
ATOM     21  CE2 PHE P   1      17.579  18.805  44.214  1.00 39.01 LIG 0.00  A 
ATOM     22  CD2 PHE P   1      18.118  19.956  44.787  1.00 39.51 LIG 0.01  A 
ENDBRANCH 16 17
ENDBRANCH 15 16
BRANCH 15 23
ATOM     23  N   PHE P   1      20.023  22.913  46.734  1.00 43.28 LIG-0.07  N 
ATOM     24 H1   PHE P   1      19.406  23.470  47.052  1.00 43.28 LIG 0.28  HD
ATOM     25 H2   PHE P   1      20.135  22.239  47.304  1.00 43.28 LIG 0.28  HD
ATOM     26 H3   PHE P   1      20.794  23.348  46.635  1.00 43.28 LIG 0.28  HD
ENDBRANCH 15 23
ENDBRANCH 12 15
ENDBRANCH 10 11
BRANCH 10 27
ATOM     27  CB  LEU P   2      20.528  22.670  41.153  1.00 36.43 LIG 0.04  C 
BRANCH 27 28
ATOM     28  CG  LEU P   2      20.927  23.019  39.707  1.00 34.11 LIG-0.02  C 
ATOM     29  CD1 LEU P   2      22.433  23.187  39.586  1.00 33.27 LIG 0.01  C 
ATOM     30  CD2 LEU P   2      20.440  21.956  38.768  1.00 26.81 LIG 0.01  C 
ENDBRANCH 27 28
ENDBRANCH 10 27
ENDBRANCH 8 10
ENDBRANCH 5 6
BRANCH 5 31
ATOM     31  CB  SER P   3      16.155  25.744  40.390  1.00 31.53 LIG 0.20  C 
BRANCH 31 32
ATOM     32 OG   SER P   3      15.924  25.383  41.740  1.00 31.05 LIG-0.40  OA
ATOM     33 HG   SER P   3      16.364  24.692  41.924  1.00 31.05 LIG 0.21  HD
ENDBRANCH 31 32
ENDBRANCH 5 31
ENDBRANCH 1 5
BRANCH 3 34
ATOM     34  CA  TYR P   4      17.621  29.934  39.196  1.00 31.95 LIG 0.18  C 
BRANCH 34 35
ATOM     35  C   TYR P   4      18.906  30.425  39.855  1.00 31.84 LIG 0.24  C 
ATOM     36 O    TYR P   4      19.135  30.175  41.039  1.00 32.23 LIG-0.27  OA
ATOM     37  N   LYS P   5      19.744  31.112  39.085  1.00 32.16 LIG-0.34  N 
ATOM     38 H    LYS P   5      19.625  31.266  38.247  1.00 32.16 LIG 0.16  HD
BRANCH 37 39
ATOM     39  CA  LYS P   5      20.952  31.659  39.645  1.00 31.76 LIG 0.18  C 
BRANCH 39 40
ATOM     40  C   LYS P   5      21.982  30.577  39.959  1.00 32.94 LIG 0.20  C 
ATOM     41 OXT  LYS P   5      21.653  29.371  40.018  1.00 33.46 LIG-0.65  OA
ATOM     42 O    LYS P   5      23.178  30.784  39.782  1.00 33.40 LIG-0.65  OA
ENDBRANCH 39 40
BRANCH 39 43
ATOM     43  CB  LYS P   5      20.633  32.437  40.918  1.00 39.97 LIG 0.04  C 
BRANCH 43 44
ATOM     44  CG  LYS P   5      21.397  31.909  42.094  1.00 38.10 LIG 0.00  C 
BRANCH 44 45
ATOM     45  CD  LYS P   5      22.473  32.801  42.430  1.00 35.88 LIG 0.03  C 
BRANCH 45 46
ATOM     46  CE  LYS P   5      23.281  33.136  41.594  1.00 33.52 LIG 0.23  C 
BRANCH 46 47
ATOM     47  NZ  LYS P   5      23.164  34.476  40.962  1.00 33.07 LIG-0.08  N 
ATOM     48 HZ1  LYS P   5      23.018  35.089  41.591  1.00 33.07 LIG 0.27  HD
ATOM     49 HZ2  LYS P   5      23.919  34.668  40.531  1.00 33.07 LIG 0.27  HD
ATOM     50 HZ3  LYS P   5      22.486  34.475  40.386  1.00 33.07 LIG 0.27  HD
ENDBRANCH 46 47
ENDBRANCH 45 46
ENDBRANCH 44 45
ENDBRANCH 43 44
ENDBRANCH 39 43
ENDBRANCH 37 39
ENDBRANCH 34 35
BRANCH 34 51
ATOM     51  CB  TYR P   4      16.401  30.464  39.958  1.00 30.77 LIG 0.07  C 
BRANCH 51 52
ATOM     52  CG  TYR P   4      15.717  31.674  39.346  1.00 30.74 LIG-0.06  A 
ATOM     53  CD2 TYR P   4      16.059  32.964  39.752  1.00 30.34 LIG 0.01  A 
ATOM     54  CE2 TYR P   4      15.472  34.084  39.171  1.00 30.16 LIG 0.04  A 
ATOM     55  CZ  TYR P   4      14.530  33.924  38.169  1.00 30.33 LIG 0.07  A 
ATOM     56  CE1 TYR P   4      14.165  32.653  37.748  1.00 30.37 LIG 0.04  A 
ATOM     57  CD1 TYR P   4      14.759  31.534  38.340  1.00 30.89 LIG 0.01  A 
BRANCH 55 58
ATOM     58 OH   TYR P   4      13.971  35.034  37.577  1.00 30.16 LIG-0.36  OA
ATOM     59 HH   TYR P   4      13.714  34.838  36.802  1.00 30.16 LIG 0.22  HD
ENDBRANCH 55 58
ENDBRANCH 51 52
ENDBRANCH 34 51
ENDBRANCH 3 34
TORSDOF 24
ENDMDL
MODEL 10
USER: ADFR SOLUTION from run 100
USER: SCORE 22.176380 LL:  -3.805 LR: -19.486 RR:   0.000 FEB: -12.327
USER: RMSD 13.730089
USER: SEED 99
USER: STATUS no improvement in best 3 clusters for 5 generations
USER: GENES 26
USER: genes 0 Translation |==|  0.65449 0.59929 0.63839
USER: genes 1 Rotation |==|  0.33700 0.17213 0.82250 0.60918
USER: genes 2 Torsion [N]-C--CA-[N] |==|  0.35129
USER: genes 3 Torsion [C]-CA--N-[C] |==|  0.77014
USER: genes 4 Torsion [N]-C--CA-[N] |==|  0.92314
USER: genes 5 Torsion [C]-CA--N-[C] |==|  0.54681
USER: genes 6 Torsion [N]-C--CA-[N] |==|  0.87754
USER: genes 7 Torsion [C]-CA--CB-[CG] |==|  0.48966
USER: genes 8 Torsion [CA]-CB--CG-[CD2] |==|  0.48029
USER: genes 9 Torsion [C]-CA--N-[H1] |==|  0.69496
USER: genes 10 Torsion [C]-CA--CB-[CG] |==|  0.74640
USER: genes 11 Torsion [CA]-CB--CG-[CD2] |==|  0.43701
USER: genes 12 Torsion [C]-CA--CB-[OG] |==|  0.65571
USER: genes 13 Torsion [CA]-CB--OG-[HG] |==|  0.10076
USER: genes 14 Torsion [C]-N--CA-[C] |==|  0.83513
USER: genes 15 Torsion [N]-CA--C-[N] |==|  0.89124
USER: genes 16 Torsion [C]-N--CA-[C] |==|  0.17383
USER: genes 17 Torsion [N]-CA--C-[OXT] |==|  0.57128
USER: genes 18 Torsion [N]-CA--CB-[CG] |==|  0.81047
USER: genes 19 Torsion [CA]-CB--CG-[CD] |==|  0.38295
USER: genes 20 Torsion [CB]-CG--CD-[CE] |==|  0.53377
USER: genes 21 Torsion [CG]-CD--CE-[NZ] |==|  0.37677
USER: genes 22 Torsion [CD]-CE--NZ-[HZ1] |==|  0.28883
USER: genes 23 Torsion [N]-CA--CB-[CG] |==|  0.82038
USER: genes 24 Torsion [CA]-CB--CG-[CD2] |==|  0.82370
USER: genes 25 Torsion [CE2]-CZ--OH-[HH] |==|  0.81503
ROOT
ATOM      1  C   SER P   3      17.665  23.259  45.082  1.00 32.74 LIG 0.24  C 
ATOM      2 O    SER P   3      17.195  24.049  45.894  1.00 33.45 LIG-0.27  OA
ATOM      3  N   TYR P   4      17.309  23.235  43.800  1.00 32.75 LIG-0.35  N 
ATOM      4 H    TYR P   4      17.626  22.677  43.227  1.00 32.75 LIG 0.16  HD
ENDROOT
BRANCH 1 5
ATOM      5  CA  SER P   3      18.700  22.227  45.511  1.00 31.85 LIG 0.20  C 
BRANCH 5 6
ATOM      6  N   SER P   3      19.868  22.785  46.191  1.00 31.96 LIG-0.34  N 
ATOM      7 H    SER P   3      19.845  22.760  47.051  1.00 31.96 LIG 0.16  HD
ATOM      8  C   LEU P   2      20.865  23.282  45.468  1.00 31.93 LIG 0.24  C 
ATOM      9 O    LEU P   2      20.824  23.301  44.240  1.00 32.53 LIG-0.27  OA
BRANCH 8 10
ATOM     10  CA  LEU P   2      22.081  23.870  46.184  1.00 41.07 LIG 0.18  C 
BRANCH 10 11
ATOM     11  N   LEU P   2      21.983  24.448  47.522  1.00 42.45 LIG-0.35  N 
ATOM     12  C   PHE P   1      23.373  25.309  47.601  1.00 42.69 LIG 0.25  C 
ATOM     13 O    PHE P   1      24.356  25.670  46.954  1.00 43.50 LIG-0.27  OA
ATOM     14 H    LEU P   2      21.325  24.315  48.060  1.00 42.45 LIG 0.16  HD
BRANCH 12 15
ATOM     15  CA  PHE P   1      23.179  25.825  49.021  1.00 41.57 LIG 0.28  C 
BRANCH 15 16
ATOM     16  CB  PHE P   1      23.487  24.683  49.996  1.00 35.06 LIG 0.08  C 
BRANCH 16 17
ATOM     17  CG  PHE P   1      23.420  25.079  51.444  1.00 31.19 LIG-0.06  A 
ATOM     18  CD1 PHE P   1      23.233  26.407  51.811  1.00 39.51 LIG 0.01  A 
ATOM     19  CE1 PHE P   1      23.154  26.772  53.154  1.00 39.01 LIG 0.00  A 
ATOM     20  CZ  PHE P   1      23.263  25.802  54.147  1.00 38.87 LIG 0.00  A 
ATOM     21  CE2 PHE P   1      23.451  24.472  53.790  1.00 39.01 LIG 0.00  A 
ATOM     22  CD2 PHE P   1      23.530  24.117  52.445  1.00 39.51 LIG 0.01  A 
ENDBRANCH 16 17
ENDBRANCH 15 16
BRANCH 15 23
ATOM     23  N   PHE P   1      21.768  26.280  49.181  1.00 43.28 LIG-0.07  N 
ATOM     24 H1   PHE P   1      21.748  27.167  49.248  1.00 43.28 LIG 0.28  HD
ATOM     25 H2   PHE P   1      21.292  26.026  48.474  1.00 43.28 LIG 0.28  HD
ATOM     26 H3   PHE P   1      21.421  25.919  49.917  1.00 43.28 LIG 0.28  HD
ENDBRANCH 15 23
ENDBRANCH 12 15
ENDBRANCH 10 11
BRANCH 10 27
ATOM     27  CB  LEU P   2      23.174  22.798  46.186  1.00 36.43 LIG 0.04  C 
BRANCH 27 28
ATOM     28  CG  LEU P   2      23.339  21.781  47.330  1.00 34.11 LIG-0.02  C 
ATOM     29  CD1 LEU P   2      21.987  21.389  47.905  1.00 33.27 LIG 0.01  C 
ATOM     30  CD2 LEU P   2      24.072  20.568  46.838  1.00 26.81 LIG 0.01  C 
ENDBRANCH 27 28
ENDBRANCH 10 27
ENDBRANCH 8 10
ENDBRANCH 5 6
BRANCH 5 31
ATOM     31  CB  SER P   3      18.028  21.172  46.386  1.00 31.53 LIG 0.20  C 
BRANCH 31 32
ATOM     32 OG   SER P   3      18.692  21.085  47.635  1.00 31.05 LIG-0.40  OA
ATOM     33 HG   SER P   3      18.945  21.850  47.872  1.00 31.05 LIG 0.21  HD
ENDBRANCH 31 32
ENDBRANCH 5 31
ENDBRANCH 1 5
BRANCH 3 34
ATOM     34  CA  TYR P   4      16.333  24.170  43.248  1.00 31.95 LIG 0.18  C 
BRANCH 34 35
ATOM     35  C   TYR P   4      15.015  23.997  43.995  1.00 31.84 LIG 0.24  C 
ATOM     36 O    TYR P   4      14.322  24.976  44.274  1.00 32.23 LIG-0.27  OA
ATOM     37  N   LYS P   5      14.669  22.752  44.309  1.00 32.16 LIG-0.34  N 
ATOM     38 H    LYS P   5      15.115  22.049  44.092  1.00 32.16 LIG 0.16  HD
BRANCH 37 39
ATOM     39  CA  LYS P   5      13.468  22.507  45.064  1.00 31.76 LIG 0.18  C 
BRANCH 39 40
ATOM     40  C   LYS P   5      12.216  22.963  44.319  1.00 32.94 LIG 0.20  C 
ATOM     41 OXT  LYS P   5      11.176  23.280  44.939  1.00 33.46 LIG-0.65  OA
ATOM     42 O    LYS P   5      12.295  23.397  43.175  1.00 33.40 LIG-0.65  OA
ENDBRANCH 39 40
BRANCH 39 43
ATOM     43  CB  LYS P   5      13.542  23.223  46.410  1.00 39.97 LIG 0.04  C 
BRANCH 43 44
ATOM     44  CG  LYS P   5      14.583  22.617  47.302  1.00 38.10 LIG 0.00  C 
BRANCH 44 45
ATOM     45  CD  LYS P   5      15.324  23.648  47.974  1.00 35.88 LIG 0.03  C 
BRANCH 45 46
ATOM     46  CE  LYS P   5      16.346  23.387  48.567  1.00 33.52 LIG 0.23  C 
BRANCH 46 47
ATOM     47  NZ  LYS P   5      17.530  24.270  48.404  1.00 33.07 LIG-0.08  N 
ATOM     48 HZ1  LYS P   5      17.622  24.780  49.128  1.00 33.07 LIG 0.27  HD
ATOM     49 HZ2  LYS P   5      18.260  23.771  48.298  1.00 33.07 LIG 0.27  HD
ATOM     50 HZ3  LYS P   5      17.419  24.787  47.689  1.00 33.07 LIG 0.27  HD
ENDBRANCH 46 47
ENDBRANCH 45 46
ENDBRANCH 44 45
ENDBRANCH 43 44
ENDBRANCH 39 43
ENDBRANCH 37 39
ENDBRANCH 34 35
BRANCH 34 51
ATOM     51  CB  TYR P   4      16.136  23.879  41.755  1.00 30.77 LIG 0.07  C 
BRANCH 51 52
ATOM     52  CG  TYR P   4      17.351  24.106  40.874  1.00 30.74 LIG-0.06  A 
ATOM     53  CD2 TYR P   4      17.898  25.381  40.732  1.00 30.34 LIG 0.01  A 
ATOM     54  CE2 TYR P   4      19.037  25.598  39.962  1.00 30.16 LIG 0.04  A 
ATOM     55  CZ  TYR P   4      19.646  24.533  39.321  1.00 30.33 LIG 0.07  A 
ATOM     56  CE1 TYR P   4      19.122  23.254  39.438  1.00 30.37 LIG 0.04  A 
ATOM     57  CD1 TYR P   4      17.976  23.047  40.212  1.00 30.89 LIG 0.01  A 
BRANCH 55 58
ATOM     58 OH   TYR P   4      20.787  24.745  38.583  1.00 30.16 LIG-0.36  OA
ATOM     59 HH   TYR P   4      20.604  25.219  37.914  1.00 30.16 LIG 0.22  HD
ENDBRANCH 55 58
ENDBRANCH 51 52
ENDBRANCH 34 51
ENDBRANCH 3 34
TORSDOF 24
ENDMDL
MODEL 11
USER: ADFR SOLUTION from run 134
USER: SCORE 22.701035 LL:  -4.198 LR: -19.464 RR:   0.000 FEB: -12.305
USER: RMSD 13.206804
USER: SEED 133
USER: STATUS searching
USER: GENES 26
USER: genes 0 Translation |==|  0.67624 0.68102 0.49387
USER: genes 1 Rotation |==|  0.77192 0.17228 0.68074 0.68971
USER: genes 2 Torsion [N]-C--CA-[N] |==|  0.34445
USER: genes 3 Torsion [C]-CA--N-[C] |==|  0.83483
USER: genes 4 Torsion [N]-C--CA-[N] |==|  0.59682
USER: genes 5 Torsion [C]-CA--N-[C] |==|  0.57389
USER: genes 6 Torsion [N]-C--CA-[N] |==|  0.47804
USER: genes 7 Torsion [C]-CA--CB-[CG] |==|  0.31354
USER: genes 8 Torsion [CA]-CB--CG-[CD2] |==|  0.02173
USER: genes 9 Torsion [C]-CA--N-[H1] |==|  0.20270
USER: genes 10 Torsion [C]-CA--CB-[CG] |==|  0.34495
USER: genes 11 Torsion [CA]-CB--CG-[CD2] |==|  0.28620
USER: genes 12 Torsion [C]-CA--CB-[OG] |==|  0.45388
USER: genes 13 Torsion [CA]-CB--OG-[HG] |==|  0.03444
USER: genes 14 Torsion [C]-N--CA-[C] |==|  0.81568
USER: genes 15 Torsion [N]-CA--C-[N] |==|  0.35737
USER: genes 16 Torsion [C]-N--CA-[C] |==|  0.82033
USER: genes 17 Torsion [N]-CA--C-[OXT] |==|  0.48502
USER: genes 18 Torsion [N]-CA--CB-[CG] |==|  0.24686
USER: genes 19 Torsion [CA]-CB--CG-[CD] |==|  0.63965
USER: genes 20 Torsion [CB]-CG--CD-[CE] |==|  0.25189
USER: genes 21 Torsion [CG]-CD--CE-[NZ] |==|  0.56734
USER: genes 22 Torsion [CD]-CE--NZ-[HZ1] |==|  0.99896
USER: genes 23 Torsion [N]-CA--CB-[CG] |==|  0.51311
USER: genes 24 Torsion [CA]-CB--CG-[CD2] |==|  0.59954
USER: genes 25 Torsion [CE2]-CZ--OH-[HH] |==|  0.40913
ROOT
ATOM      1  C   SER P   3      18.317  25.711  40.746  1.00 32.74 LIG 0.24  C 
ATOM      2 O    SER P   3      19.148  25.488  41.620  1.00 33.45 LIG-0.27  OA
ATOM      3  N   TYR P   4      17.031  25.394  40.866  1.00 32.75 LIG-0.35  N 
ATOM      4 H    TYR P   4      16.445  25.537  40.253  1.00 32.75 LIG 0.16  HD
ENDROOT
BRANCH 1 5
ATOM      5  CA  SER P   3      18.727  26.371  39.435  1.00 31.85 LIG 0.20  C 
BRANCH 5 6
ATOM      6  N   SER P   3      19.390  27.665  39.589  1.00 31.96 LIG-0.34  N 
ATOM      7 H    SER P   3      20.186  27.716  39.266  1.00 31.96 LIG 0.16  HD
ATOM      8  C   LEU P   2      18.747  28.656  40.196  1.00 31.93 LIG 0.24  C 
ATOM      9 O    LEU P   2      17.614  28.509  40.648  1.00 32.53 LIG-0.27  OA
BRANCH 8 10
ATOM     10  CA  LEU P   2      19.447  30.006  40.358  1.00 41.07 LIG 0.18  C 
BRANCH 10 11
ATOM     11  N   LEU P   2      19.240  30.845  41.536  1.00 42.45 LIG-0.35  N 
ATOM     12  C   PHE P   1      19.544  32.333  40.926  1.00 42.69 LIG 0.25  C 
ATOM     13 O    PHE P   1      19.794  32.950  39.890  1.00 43.50 LIG-0.27  OA
ATOM     14 H    LEU P   2      19.016  30.545  42.310  1.00 42.45 LIG 0.16  HD
BRANCH 12 15
ATOM     15  CA  PHE P   1      19.336  33.101  42.225  1.00 41.57 LIG 0.28  C 
BRANCH 15 16
ATOM     16  CB  PHE P   1      17.854  33.018  42.602  1.00 35.06 LIG 0.08  C 
BRANCH 16 17
ATOM     17  CG  PHE P   1      17.583  32.223  43.848  1.00 31.19 LIG-0.06  A 
ATOM     18  CD1 PHE P   1      16.281  31.907  44.223  1.00 39.51 LIG 0.01  A 
ATOM     19  CE1 PHE P   1      16.030  31.155  45.370  1.00 39.01 LIG 0.00  A 
ATOM     20  CZ  PHE P   1      17.091  30.710  46.155  1.00 38.87 LIG 0.00  A 
ATOM     21  CE2 PHE P   1      18.395  31.021  45.790  1.00 39.01 LIG 0.00  A 
ATOM     22  CD2 PHE P   1      18.635  31.775  44.643  1.00 39.51 LIG 0.01  A 
ENDBRANCH 16 17
ENDBRANCH 15 16
BRANCH 15 23
ATOM     23  N   PHE P   1      19.743  34.521  42.017  1.00 43.28 LIG-0.07  N 
ATOM     24 H1   PHE P   1      19.134  34.934  41.516  1.00 43.28 LIG 0.28  HD
ATOM     25 H2   PHE P   1      19.804  34.931  42.804  1.00 43.28 LIG 0.28  HD
ATOM     26 H3   PHE P   1      20.532  34.547  41.606  1.00 43.28 LIG 0.28  HD
ENDBRANCH 15 23
ENDBRANCH 12 15
ENDBRANCH 10 11
BRANCH 10 27
ATOM     27  CB  LEU P   2      20.948  29.768  40.177  1.00 36.43 LIG 0.04  C 
BRANCH 27 28
ATOM     28  CG  LEU P   2      21.790  30.526  39.134  1.00 34.11 LIG-0.02  C 
ATOM     29  CD1 LEU P   2      20.903  31.126  38.054  1.00 33.27 LIG 0.01  C 
ATOM     30  CD2 LEU P   2      22.597  31.598  39.805  1.00 26.81 LIG 0.01  C 
ENDBRANCH 27 28
ENDBRANCH 10 27
ENDBRANCH 8 10
ENDBRANCH 5 6
BRANCH 5 31
ATOM     31  CB  SER P   3      19.610  25.412  38.642  1.00 31.53 LIG 0.20  C 
BRANCH 31 32
ATOM     32 OG   SER P   3      19.687  25.829  37.291  1.00 31.05 LIG-0.40  OA
ATOM     33 HG   SER P   3      19.377  26.606  37.220  1.00 31.05 LIG 0.21  HD
ENDBRANCH 31 32
ENDBRANCH 5 31
ENDBRANCH 1 5
BRANCH 3 34
ATOM     34  CA  TYR P   4      16.496  24.763  42.070  1.00 31.95 LIG 0.18  C 
BRANCH 34 35
ATOM     35  C   TYR P   4      17.092  23.365  42.193  1.00 31.84 LIG 0.24  C 
ATOM     36 O    TYR P   4      17.057  22.585  41.240  1.00 32.23 LIG-0.27  OA
ATOM     37  N   LYS P   5      17.646  23.056  43.361  1.00 32.16 LIG-0.34  N 
ATOM     38 H    LYS P   5      17.717  23.595  44.028  1.00 32.16 LIG 0.16  HD
BRANCH 37 39
ATOM     39  CA  LYS P   5      18.180  21.737  43.579  1.00 31.76 LIG 0.18  C 
BRANCH 39 40
ATOM     40  C   LYS P   5      17.095  20.663  43.541  1.00 32.94 LIG 0.20  C 
ATOM     41 OXT  LYS P   5      17.388  19.448  43.611  1.00 33.46 LIG-0.65  OA
ATOM     42 O    LYS P   5      15.935  20.938  43.829  1.00 33.40 LIG-0.65  OA
ENDBRANCH 39 40
BRANCH 39 43
ATOM     43  CB  LYS P   5      18.899  21.679  44.924  1.00 39.97 LIG 0.04  C 
BRANCH 43 44
ATOM     44  CG  LYS P   5      17.964  21.306  46.034  1.00 38.10 LIG 0.00  C 
BRANCH 44 45
ATOM     45  CD  LYS P   5      18.089  22.234  47.124  1.00 35.88 LIG 0.03  C 
BRANCH 45 46
ATOM     46  CE  LYS P   5      17.393  23.223  47.176  1.00 33.52 LIG 0.23  C 
BRANCH 46 47
ATOM     47  NZ  LYS P   5      17.861  24.405  47.944  1.00 33.07 LIG-0.08  N 
ATOM     48 HZ1  LYS P   5      18.655  24.228  48.306  1.00 33.07 LIG 0.27  HD
ATOM     49 HZ2  LYS P   5      17.933  25.105  47.398  1.00 33.07 LIG 0.27  HD
ATOM     50 HZ3  LYS P   5      17.277  24.591  48.589  1.00 33.07 LIG 0.27  HD
ENDBRANCH 46 47
ENDBRANCH 45 46
ENDBRANCH 44 45
ENDBRANCH 43 44
ENDBRANCH 39 43
ENDBRANCH 37 39
ENDBRANCH 34 35
BRANCH 34 51
ATOM     51  CB  TYR P   4      14.968  24.679  41.965  1.00 30.77 LIG 0.07  C 
BRANCH 51 52
ATOM     52  CG  TYR P   4      14.252  24.146  43.194  1.00 30.74 LIG-0.06  A 
ATOM     53  CD2 TYR P   4      13.116  23.348  43.063  1.00 30.34 LIG 0.01  A 
ATOM     54  CE2 TYR P   4      12.474  22.816  44.178  1.00 30.16 LIG 0.04  A 
ATOM     55  CZ  TYR P   4      12.967  23.080  45.444  1.00 30.33 LIG 0.07  A 
ATOM     56  CE1 TYR P   4      14.092  23.876  45.606  1.00 30.37 LIG 0.04  A 
ATOM     57  CD1 TYR P   4      14.728  24.406  44.480  1.00 30.89 LIG 0.01  A 
BRANCH 55 58
ATOM     58 OH   TYR P   4      12.346  22.531  46.543  1.00 30.16 LIG-0.36  OA
ATOM     59 HH   TYR P   4      12.918  22.374  47.138  1.00 30.16 LIG 0.22  HD
ENDBRANCH 55 58
ENDBRANCH 51 52
ENDBRANCH 34 51
ENDBRANCH 3 34
TORSDOF 24
ENDMDL
MODEL 12
USER: ADFR SOLUTION from run 83
USER: SCORE 20.772686 LL:  -3.496 LR: -19.459 RR:   0.000 FEB: -12.300
USER: RMSD 11.570273
USER: SEED 82
USER: STATUS no improvement in best 6 clusters for 5 generations
USER: GENES 26
USER: genes 0 Translation |==|  0.65295 0.74689 0.48778
USER: genes 1 Rotation |==|  0.22944 0.19694 0.65787 0.74501
USER: genes 2 Torsion [N]-C--CA-[N] |==|  0.39146
USER: genes 3 Torsion [C]-CA--N-[C] |==|  0.49444
USER: genes 4 Torsion [N]-C--CA-[N] |==|  0.25292
USER: genes 5 Torsion [C]-CA--N-[C] |==|  0.59962
USER: genes 6 Torsion [N]-C--CA-[N] |==|  0.44083
USER: genes 7 Torsion [C]-CA--CB-[CG] |==|  0.33141
USER: genes 8 Torsion [CA]-CB--CG-[CD2] |==|  0.75505
USER: genes 9 Torsion [C]-CA--N-[H1] |==|  0.50723
USER: genes 10 Torsion [C]-CA--CB-[CG] |==|  0.10790
USER: genes 11 Torsion [CA]-CB--CG-[CD2] |==|  0.48045
USER: genes 12 Torsion [C]-CA--CB-[OG] |==|  0.78586
USER: genes 13 Torsion [CA]-CB--OG-[HG] |==|  0.21315
USER: genes 14 Torsion [C]-N--CA-[C] |==|  0.18351
USER: genes 15 Torsion [N]-CA--C-[N] |==|  0.44826
USER: genes 16 Torsion [C]-N--CA-[C] |==|  0.16438
USER: genes 17 Torsion [N]-CA--C-[OXT] |==|  0.65501
USER: genes 18 Torsion [N]-CA--CB-[CG] |==|  0.81396
USER: genes 19 Torsion [CA]-CB--CG-[CD] |==|  0.31535
USER: genes 20 Torsion [CB]-CG--CD-[CE] |==|  0.30981
USER: genes 21 Torsion [CG]-CD--CE-[NZ] |==|  0.29081
USER: genes 22 Torsion [CD]-CE--NZ-[HZ1] |==|  0.09121
USER: genes 23 Torsion [N]-CA--CB-[CG] |==|  0.63609
USER: genes 24 Torsion [CA]-CB--CG-[CD2] |==|  0.71981
USER: genes 25 Torsion [CE2]-CZ--OH-[HH] |==|  0.43174
ROOT
ATOM      1  C   SER P   3      17.619  27.687  40.563  1.00 32.74 LIG 0.24  C 
ATOM      2 O    SER P   3      17.621  28.199  41.677  1.00 33.45 LIG-0.27  OA
ATOM      3  N   TYR P   4      17.729  28.388  39.439  1.00 32.75 LIG-0.35  N 
ATOM      4 H    TYR P   4      17.717  28.037  38.654  1.00 32.75 LIG 0.16  HD
ENDROOT
BRANCH 1 5
ATOM      5  CA  SER P   3      17.475  26.178  40.402  1.00 31.85 LIG 0.20  C 
BRANCH 5 6
ATOM      6  N   SER P   3      18.205  25.390  41.395  1.00 31.96 LIG-0.34  N 
ATOM      7 H    SER P   3      18.669  25.842  41.961  1.00 31.96 LIG 0.16  HD
ATOM      8  C   LEU P   2      18.113  24.065  41.367  1.00 31.93 LIG 0.24  C 
ATOM      9 O    LEU P   2      17.444  23.483  40.517  1.00 32.53 LIG-0.27  OA
BRANCH 8 10
ATOM     10  CA  LEU P   2      18.883  23.246  42.403  1.00 41.07 LIG 0.18  C 
BRANCH 10 11
ATOM     11  N   LEU P   2      18.288  22.864  43.682  1.00 42.45 LIG-0.35  N 
ATOM     12  C   PHE P   1      19.583  22.964  44.679  1.00 42.69 LIG 0.25  C 
ATOM     13 O    PHE P   1      20.767  23.292  44.739  1.00 43.50 LIG-0.27  OA
ATOM     14 H    LEU P   2      17.460  22.657  43.787  1.00 42.45 LIG 0.16  HD
BRANCH 12 15
ATOM     15  CA  PHE P   1      18.862  22.520  45.946  1.00 41.57 LIG 0.28  C 
BRANCH 15 16
ATOM     16  CB  PHE P   1      18.114  23.726  46.523  1.00 35.06 LIG 0.08  C 
BRANCH 16 17
ATOM     17  CG  PHE P   1      16.625  23.538  46.609  1.00 31.19 LIG-0.06  A 
ATOM     18  CD1 PHE P   1      16.035  23.047  47.769  1.00 39.51 LIG 0.01  A 
ATOM     19  CE1 PHE P   1      14.652  22.889  47.854  1.00 39.01 LIG 0.00  A 
ATOM     20  CZ  PHE P   1      13.845  23.224  46.771  1.00 38.87 LIG 0.00  A 
ATOM     21  CE2 PHE P   1      14.425  23.715  45.607  1.00 39.01 LIG 0.00  A 
ATOM     22  CD2 PHE P   1      15.808  23.868  45.530  1.00 39.51 LIG 0.01  A 
ENDBRANCH 16 17
ENDBRANCH 15 16
BRANCH 15 23
ATOM     23  N   PHE P   1      19.870  22.017  46.923  1.00 43.28 LIG-0.07  N 
ATOM     24 H1   PHE P   1      19.455  21.720  47.652  1.00 43.28 LIG 0.28  HD
ATOM     25 H2   PHE P   1      20.334  21.352  46.556  1.00 43.28 LIG 0.28  HD
ATOM     26 H3   PHE P   1      20.425  22.677  47.145  1.00 43.28 LIG 0.28  HD
ENDBRANCH 15 23
ENDBRANCH 12 15
ENDBRANCH 10 11
BRANCH 10 27
ATOM     27  CB  LEU P   2      19.398  21.987  41.700  1.00 36.43 LIG 0.04  C 
BRANCH 27 28
ATOM     28  CG  LEU P   2      19.935  22.001  40.258  1.00 34.11 LIG-0.02  C 
ATOM     29  CD1 LEU P   2      20.974  23.097  40.078  1.00 33.27 LIG 0.01  C 
ATOM     30  CD2 LEU P   2      20.519  20.662  39.913  1.00 26.81 LIG 0.01  C 
ENDBRANCH 27 28
ENDBRANCH 10 27
ENDBRANCH 8 10
ENDBRANCH 5 6
BRANCH 5 31
ATOM     31  CB  SER P   3      15.995  25.809  40.413  1.00 31.53 LIG 0.20  C 
BRANCH 31 32
ATOM     32 OG   SER P   3      15.498  25.836  41.739  1.00 31.05 LIG-0.40  OA
ATOM     33 HG   SER P   3      15.378  26.633  41.978  1.00 31.05 LIG 0.21  HD
ENDBRANCH 31 32
ENDBRANCH 5 31
ENDBRANCH 1 5
BRANCH 3 34
ATOM     34  CA  TYR P   4      17.880  29.841  39.441  1.00 31.95 LIG 0.18  C 
BRANCH 34 35
ATOM     35  C   TYR P   4      19.224  30.189  40.072  1.00 31.84 LIG 0.24  C 
ATOM     36 O    TYR P   4      19.821  29.365  40.765  1.00 32.23 LIG-0.27  OA
ATOM     37  N   LYS P   5      19.701  31.404  39.821  1.00 32.16 LIG-0.34  N 
ATOM     38 H    LYS P   5      19.324  31.984  39.309  1.00 32.16 LIG 0.16  HD
BRANCH 37 39
ATOM     39  CA  LYS P   5      20.937  31.832  40.424  1.00 31.76 LIG 0.18  C 
BRANCH 39 40
ATOM     40  C   LYS P   5      22.105  30.924  40.048  1.00 32.94 LIG 0.20  C 
ATOM     41 OXT  LYS P   5      22.801  30.370  40.929  1.00 33.46 LIG-0.65  OA
ATOM     42 O    LYS P   5      22.161  30.408  38.937  1.00 33.40 LIG-0.65  OA
ENDBRANCH 39 40
BRANCH 39 43
ATOM     43  CB  LYS P   5      20.793  31.865  41.943  1.00 39.97 LIG 0.04  C 
BRANCH 43 44
ATOM     44  CG  LYS P   5      19.833  32.928  42.385  1.00 38.10 LIG 0.00  C 
BRANCH 44 45
ATOM     45  CD  LYS P   5      18.666  32.331  42.973  1.00 35.88 LIG 0.03  C 
BRANCH 45 46
ATOM     46  CE  LYS P   5      18.444  32.446  44.157  1.00 33.52 LIG 0.23  C 
BRANCH 46 47
ATOM     47  NZ  LYS P   5      17.388  33.386  44.614  1.00 33.07 LIG-0.08  N 
ATOM     48 HZ1  LYS P   5      16.735  33.415  44.010  1.00 33.07 LIG 0.27  HD
ATOM     49 HZ2  LYS P   5      17.059  33.108  45.393  1.00 33.07 LIG 0.27  HD
ATOM     50 HZ3  LYS P   5      17.736  34.199  44.712  1.00 33.07 LIG 0.27  HD
ENDBRANCH 46 47
ENDBRANCH 45 46
ENDBRANCH 44 45
ENDBRANCH 43 44
ENDBRANCH 39 43
ENDBRANCH 37 39
ENDBRANCH 34 35
BRANCH 34 51
ATOM     51  CB  TYR P   4      16.739  30.471  40.249  1.00 30.77 LIG 0.07  C 
BRANCH 51 52
ATOM     52  CG  TYR P   4      16.010  31.619  39.575  1.00 30.74 LIG-0.06  A 
ATOM     53  CD2 TYR P   4      16.295  32.941  39.918  1.00 30.34 LIG 0.01  A 
ATOM     54  CE2 TYR P   4      15.666  34.006  39.279  1.00 30.16 LIG 0.04  A 
ATOM     55  CZ  TYR P   4      14.740  33.756  38.281  1.00 30.33 LIG 0.07  A 
ATOM     56  CE1 TYR P   4      14.431  32.453  37.921  1.00 30.37 LIG 0.04  A 
ATOM     57  CD1 TYR P   4      15.067  31.390  38.571  1.00 30.89 LIG 0.01  A 
BRANCH 55 58
ATOM     58 OH   TYR P   4      14.140  34.811  37.631  1.00 30.16 LIG-0.36  OA
ATOM     59 HH   TYR P   4      13.883  34.563  36.871  1.00 30.16 LIG 0.22  HD
ENDBRANCH 55 58
ENDBRANCH 51 52
ENDBRANCH 34 51
ENDBRANCH 3 34
TORSDOF 24
ENDMDL
MODEL 13
USER: ADFR SOLUTION from run 37
USER: SCORE 22.662787 LL:  -3.685 LR: -19.439 RR:   0.000 FEB: -12.280
USER: RMSD 13.731257
USER: SEED 36
USER: STATUS no improvement in best 2 clusters for 5 generations
USER: GENES 26
USER: genes 0 Translation |==|  0.70767 0.56257 0.63438
USER: genes 1 Rotation |==|  0.22764 0.24988 0.82925 0.56967
USER: genes 2 Torsion [N]-C--CA-[N] |==|  0.36207
USER: genes 3 Torsion [C]-CA--N-[C] |==|  0.66195
USER: genes 4 Torsion [N]-C--CA-[N] |==|  0.94324
USER: genes 5 Torsion [C]-CA--N-[C] |==|  0.81724
USER: genes 6 Torsion [N]-C--CA-[N] |==|  0.83743
USER: genes 7 Torsion [C]-CA--CB-[CG] |==|  0.72103
USER: genes 8 Torsion [CA]-CB--CG-[CD2] |==|  0.79724
USER: genes 9 Torsion [C]-CA--N-[H1] |==|  0.46300
USER: genes 10 Torsion [C]-CA--CB-[CG] |==|  0.27291
USER: genes 11 Torsion [CA]-CB--CG-[CD2] |==|  0.22200
USER: genes 12 Torsion [C]-CA--CB-[OG] |==|  0.76117
USER: genes 13 Torsion [CA]-CB--OG-[HG] |==|  0.81193
USER: genes 14 Torsion [C]-N--CA-[C] |==|  0.78333
USER: genes 15 Torsion [N]-CA--C-[N] |==|  0.18365
USER: genes 16 Torsion [C]-N--CA-[C] |==|  0.79061
USER: genes 17 Torsion [N]-CA--C-[OXT] |==|  0.94316
USER: genes 18 Torsion [N]-CA--CB-[CG] |==|  0.03592
USER: genes 19 Torsion [CA]-CB--CG-[CD] |==|  0.54724
USER: genes 20 Torsion [CB]-CG--CD-[CE] |==|  0.41271
USER: genes 21 Torsion [CG]-CD--CE-[NZ] |==|  0.13717
USER: genes 22 Torsion [CD]-CE--NZ-[HZ1] |==|  0.00907
USER: genes 23 Torsion [N]-CA--CB-[CG] |==|  0.58014
USER: genes 24 Torsion [CA]-CB--CG-[CD2] |==|  0.37269
USER: genes 25 Torsion [CE2]-CZ--OH-[HH] |==|  0.45926
ROOT
ATOM      1  C   SER P   3      19.260  22.157  44.961  1.00 32.74 LIG 0.24  C 
ATOM      2 O    SER P   3      18.890  23.283  45.274  1.00 33.45 LIG-0.27  OA
ATOM      3  N   TYR P   4      19.243  21.706  43.710  1.00 32.75 LIG-0.35  N 
ATOM      4 H    TYR P   4      19.491  20.914  43.485  1.00 32.75 LIG 0.16  HD
ENDROOT
BRANCH 1 5
ATOM      5  CA  SER P   3      19.764  21.183  46.019  1.00 31.85 LIG 0.20  C 
BRANCH 5 6
ATOM      6  N   SER P   3      20.782  21.732  46.914  1.00 31.96 LIG-0.34  N 
ATOM      7 H    SER P   3      20.550  22.432  47.357  1.00 31.96 LIG 0.16  HD
ATOM      8  C   LEU P   2      21.968  21.139  46.989  1.00 31.93 LIG 0.24  C 
ATOM      9 O    LEU P   2      22.238  20.149  46.313  1.00 32.53 LIG-0.27  OA
BRANCH 8 10
ATOM     10  CA  LEU P   2      23.031  21.720  47.922  1.00 41.07 LIG 0.18  C 
BRANCH 10 11
ATOM     11  N   LEU P   2      22.975  23.103  48.389  1.00 42.45 LIG-0.35  N 
ATOM     12  C   PHE P   1      23.194  23.922  46.988  1.00 42.69 LIG 0.25  C 
ATOM     13 O    PHE P   1      23.307  23.793  45.769  1.00 43.50 LIG-0.27  OA
ATOM     14 H    LEU P   2      22.854  23.332  49.208  1.00 42.45 LIG 0.16  HD
BRANCH 12 15
ATOM     15  CA  PHE P   1      23.153  25.319  47.594  1.00 41.57 LIG 0.28  C 
BRANCH 15 16
ATOM     16  CB  PHE P   1      24.311  25.448  48.588  1.00 35.06 LIG 0.08  C 
BRANCH 16 17
ATOM     17  CG  PHE P   1      23.906  25.280  50.026  1.00 31.19 LIG-0.06  A 
ATOM     18  CD1 PHE P   1      24.249  24.133  50.733  1.00 39.51 LIG 0.01  A 
ATOM     19  CE1 PHE P   1      23.888  23.984  52.072  1.00 39.01 LIG 0.00  A 
ATOM     20  CZ  PHE P   1      23.174  24.992  52.716  1.00 38.87 LIG 0.00  A 
ATOM     21  CE2 PHE P   1      22.826  26.141  52.017  1.00 39.01 LIG 0.00  A 
ATOM     22  CD2 PHE P   1      23.190  26.280  50.679  1.00 39.51 LIG 0.01  A 
ENDBRANCH 16 17
ENDBRANCH 15 16
BRANCH 15 23
ATOM     23  N   PHE P   1      21.846  25.505  48.289  1.00 43.28 LIG-0.07  N 
ATOM     24 H1   PHE P   1      21.884  26.230  48.805  1.00 43.28 LIG 0.28  HD
ATOM     25 H2   PHE P   1      21.200  25.605  47.686  1.00 43.28 LIG 0.28  HD
ATOM     26 H3   PHE P   1      21.674  24.791  48.793  1.00 43.28 LIG 0.28  HD
ENDBRANCH 15 23
ENDBRANCH 12 15
ENDBRANCH 10 11
BRANCH 10 27
ATOM     27  CB  LEU P   2      23.134  20.791  49.135  1.00 36.43 LIG 0.04  C 
BRANCH 27 28
ATOM     28  CG  LEU P   2      24.223  19.711  49.264  1.00 34.11 LIG-0.02  C 
ATOM     29  CD1 LEU P   2      24.421  18.980  47.946  1.00 33.27 LIG 0.01  C 
ATOM     30  CD2 LEU P   2      25.511  20.332  49.719  1.00 26.81 LIG 0.01  C 
ENDBRANCH 27 28
ENDBRANCH 10 27
ENDBRANCH 8 10
ENDBRANCH 5 6
BRANCH 5 31
ATOM     31  CB  SER P   3      18.579  20.655  46.823  1.00 31.53 LIG 0.20  C 
BRANCH 31 32
ATOM     32 OG   SER P   3      18.280  21.543  47.885  1.00 31.05 LIG-0.40  OA
ATOM     33 HG   SER P   3      18.905  21.530  48.446  1.00 31.05 LIG 0.21  HD
ENDBRANCH 31 32
ENDBRANCH 5 31
ENDBRANCH 1 5
BRANCH 3 34
ATOM     34  CA  TYR P   4      18.792  22.532  42.593  1.00 31.95 LIG 0.18  C 
BRANCH 34 35
ATOM     35  C   TYR P   4      17.268  22.567  42.597  1.00 31.84 LIG 0.24  C 
ATOM     36 O    TYR P   4      16.629  22.042  41.684  1.00 32.23 LIG-0.27  OA
ATOM     37  N   LYS P   5      16.690  23.174  43.629  1.00 32.16 LIG-0.34  N 
ATOM     38 H    LYS P   5      17.111  23.514  44.297  1.00 32.16 LIG 0.16  HD
BRANCH 37 39
ATOM     39  CA  LYS P   5      15.256  23.301  43.680  1.00 31.76 LIG 0.18  C 
BRANCH 39 40
ATOM     40  C   LYS P   5      14.739  24.377  42.728  1.00 32.94 LIG 0.20  C 
ATOM     41 OXT  LYS P   5      15.495  25.281  42.305  1.00 33.46 LIG-0.65  OA
ATOM     42 O    LYS P   5      13.729  24.185  42.059  1.00 33.40 LIG-0.65  OA
ENDBRANCH 39 40
BRANCH 39 43
ATOM     43  CB  LYS P   5      14.811  23.629  45.102  1.00 39.97 LIG 0.04  C 
BRANCH 43 44
ATOM     44  CG  LYS P   5      15.969  24.032  45.964  1.00 38.10 LIG 0.00  C 
BRANCH 44 45
ATOM     45  CD  LYS P   5      15.608  23.951  47.352  1.00 35.88 LIG 0.03  C 
BRANCH 45 46
ATOM     46  CE  LYS P   5      16.435  23.674  48.190  1.00 33.52 LIG 0.23  C 
BRANCH 46 47
ATOM     47  NZ  LYS P   5      17.731  24.402  48.205  1.00 33.07 LIG-0.08  N 
ATOM     48 HZ1  LYS P   5      17.724  25.032  47.576  1.00 33.07 LIG 0.27  HD
ATOM     49 HZ2  LYS P   5      17.850  24.780  49.002  1.00 33.07 LIG 0.27  HD
ATOM     50 HZ3  LYS P   5      18.394  23.831  48.046  1.00 33.07 LIG 0.27  HD
ENDBRANCH 46 47
ENDBRANCH 45 46
ENDBRANCH 44 45
ENDBRANCH 43 44
ENDBRANCH 39 43
ENDBRANCH 37 39
ENDBRANCH 34 35
BRANCH 34 51
ATOM     51  CB  TYR P   4      19.304  21.933  41.277  1.00 30.77 LIG 0.07  C 
BRANCH 51 52
ATOM     52  CG  TYR P   4      19.539  22.924  40.151  1.00 30.74 LIG-0.06  A 
ATOM     53  CD2 TYR P   4      20.708  22.871  39.391  1.00 30.34 LIG 0.01  A 
ATOM     54  CE2 TYR P   4      20.920  23.744  38.328  1.00 30.16 LIG 0.04  A 
ATOM     55  CZ  TYR P   4      19.955  24.686  38.011  1.00 30.33 LIG 0.07  A 
ATOM     56  CE1 TYR P   4      18.785  24.767  38.752  1.00 30.37 LIG 0.04  A 
ATOM     57  CD1 TYR P   4      18.584  23.886  39.820  1.00 30.89 LIG 0.01  A 
BRANCH 55 58
ATOM     58 OH   TYR P   4      20.155  25.530  36.943  1.00 30.16 LIG-0.36  OA
ATOM     59 HH   TYR P   4      19.430  25.902  36.740  1.00 30.16 LIG 0.22  HD
ENDBRANCH 55 58
ENDBRANCH 51 52
ENDBRANCH 34 51
ENDBRANCH 3 34
TORSDOF 24
ENDMDL
MODEL 14
USER: ADFR SOLUTION from run 157
USER: SCORE 22.553583 LL:  -4.419 LR: -19.383 RR:   0.000 FEB: -12.223
USER: RMSD 12.539662
USER: SEED 156
USER: STATUS no improvement in best 2 clusters for 5 generations
USER: GENES 26
USER: genes 0 Translation |==|  0.61173 0.52900 0.55250
USER: genes 1 Rotation |==|  0.61020 0.94593 0.45947 0.69329
USER: genes 2 Torsion [N]-C--CA-[N] |==|  0.18906
USER: genes 3 Torsion [C]-CA--N-[C] |==|  0.77124
USER: genes 4 Torsion [N]-C--CA-[N] |==|  0.51653
USER: genes 5 Torsion [C]-CA--N-[C] |==|  0.80365
USER: genes 6 Torsion [N]-C--CA-[N] |==|  0.11413
USER: genes 7 Torsion [C]-CA--CB-[CG] |==|  0.44976
USER: genes 8 Torsion [CA]-CB--CG-[CD2] |==|  0.24802
USER: genes 9 Torsion [C]-CA--N-[H1] |==|  0.73158
USER: genes 10 Torsion [C]-CA--CB-[CG] |==|  0.31079
USER: genes 11 Torsion [CA]-CB--CG-[CD2] |==|  0.52298
USER: genes 12 Torsion [C]-CA--CB-[OG] |==|  0.58680
USER: genes 13 Torsion [CA]-CB--OG-[HG] |==|  0.53996
USER: genes 14 Torsion [C]-N--CA-[C] |==|  0.61336
USER: genes 15 Torsion [N]-CA--C-[N] |==|  0.93557
USER: genes 16 Torsion [C]-N--CA-[C] |==|  0.56105
USER: genes 17 Torsion [N]-CA--C-[OXT] |==|  0.93783
USER: genes 18 Torsion [N]-CA--CB-[CG] |==|  0.04208
USER: genes 19 Torsion [CA]-CB--CG-[CD] |==|  0.49245
USER: genes 20 Torsion [CB]-CG--CD-[CE] |==|  0.31120
USER: genes 21 Torsion [CG]-CD--CE-[NZ] |==|  0.14759
USER: genes 22 Torsion [CD]-CE--NZ-[HZ1] |==|  0.85180
USER: genes 23 Torsion [N]-CA--CB-[CG] |==|  0.83657
USER: genes 24 Torsion [CA]-CB--CG-[CD2] |==|  0.80353
USER: genes 25 Torsion [CE2]-CZ--OH-[HH] |==|  0.49134
ROOT
ATOM      1  C   SER P   3      16.382  21.150  42.505  1.00 32.74 LIG 0.24  C 
ATOM      2 O    SER P   3      15.315  20.690  42.113  1.00 33.45 LIG-0.27  OA
ATOM      3  N   TYR P   4      16.930  22.251  41.997  1.00 32.75 LIG-0.35  N 
ATOM      4 H    TYR P   4      17.683  22.574  42.259  1.00 32.75 LIG 0.16  HD
ENDROOT
BRANCH 1 5
ATOM      5  CA  SER P   3      17.164  20.462  43.617  1.00 31.85 LIG 0.20  C 
BRANCH 5 6
ATOM      6  N   SER P   3      17.236  21.219  44.866  1.00 31.96 LIG-0.34  N 
ATOM      7 H    SER P   3      16.665  20.995  45.470  1.00 31.96 LIG 0.16  HD
ATOM      8  C   LEU P   2      18.147  22.176  44.995  1.00 31.93 LIG 0.24  C 
ATOM      9 O    LEU P   2      18.923  22.454  44.083  1.00 32.53 LIG-0.27  OA
BRANCH 8 10
ATOM     10  CA  LEU P   2      18.214  22.968  46.301  1.00 41.07 LIG 0.18  C 
BRANCH 10 11
ATOM     11  N   LEU P   2      19.104  24.115  46.463  1.00 42.45 LIG-0.35  N 
ATOM     12  C   PHE P   1      20.567  23.382  46.503  1.00 42.69 LIG 0.25  C 
ATOM     13 O    PHE P   1      21.138  22.299  46.380  1.00 43.50 LIG-0.27  OA
ATOM     14 H    LEU P   2      18.836  24.930  46.515  1.00 42.45 LIG 0.16  HD
BRANCH 12 15
ATOM     15  CA  PHE P   1      21.391  24.647  46.706  1.00 41.57 LIG 0.28  C 
BRANCH 15 16
ATOM     16  CB  PHE P   1      22.767  24.244  47.246  1.00 35.06 LIG 0.08  C 
BRANCH 16 17
ATOM     17  CG  PHE P   1      23.819  25.307  47.094  1.00 31.19 LIG-0.06  A 
ATOM     18  CD1 PHE P   1      24.608  25.370  45.951  1.00 39.51 LIG 0.01  A 
ATOM     19  CE1 PHE P   1      25.572  26.366  45.802  1.00 39.01 LIG 0.00  A 
ATOM     20  CZ  PHE P   1      25.753  27.314  46.806  1.00 38.87 LIG 0.00  A 
ATOM     21  CE2 PHE P   1      24.970  27.260  47.952  1.00 39.01 LIG 0.00  A 
ATOM     22  CD2 PHE P   1      24.010  26.259  48.092  1.00 39.51 LIG 0.01  A 
ENDBRANCH 16 17
ENDBRANCH 15 16
BRANCH 15 23
ATOM     23  N   PHE P   1      20.687  25.530  47.680  1.00 43.28 LIG-0.07  N 
ATOM     24 H1   PHE P   1      20.209  26.138  47.239  1.00 43.28 LIG 0.28  HD
ATOM     25 H2   PHE P   1      20.144  25.040  48.188  1.00 43.28 LIG 0.28  HD
ATOM     26 H3   PHE P   1      21.286  25.940  48.196  1.00 43.28 LIG 0.28  HD
ENDBRANCH 15 23
ENDBRANCH 12 15
ENDBRANCH 10 11
BRANCH 10 27
ATOM     27  CB  LEU P   2      16.786  23.394  46.651  1.00 36.43 LIG 0.04  C 
BRANCH 27 28
ATOM     28  CG  LEU P   2      16.023  22.829  47.863  1.00 34.11 LIG-0.02  C 
ATOM     29  CD1 LEU P   2      16.682  23.255  49.165  1.00 33.27 LIG 0.01  C 
ATOM     30  CD2 LEU P   2      14.593  23.280  47.827  1.00 26.81 LIG 0.01  C 
ENDBRANCH 27 28
ENDBRANCH 10 27
ENDBRANCH 8 10
ENDBRANCH 5 6
BRANCH 5 31
ATOM     31  CB  SER P   3      16.573  19.078  43.866  1.00 31.53 LIG 0.20  C 
BRANCH 31 32
ATOM     32 OG   SER P   3      16.728  18.723  45.229  1.00 31.05 LIG-0.40  OA
ATOM     33 HG   SER P   3      16.586  17.901  45.323  1.00 31.05 LIG 0.21  HD
ENDBRANCH 31 32
ENDBRANCH 5 31
ENDBRANCH 1 5
BRANCH 3 34
ATOM     34  CA  TYR P   4      16.289  23.017  40.932  1.00 31.95 LIG 0.18  C 
BRANCH 34 35
ATOM     35  C   TYR P   4      17.358  23.459  39.938  1.00 31.84 LIG 0.24  C 
ATOM     36 O    TYR P   4      17.054  23.742  38.779  1.00 32.23 LIG-0.27  OA
ATOM     37  N   LYS P   5      18.604  23.527  40.397  1.00 32.16 LIG-0.34  N 
ATOM     38 H    LYS P   5      18.836  23.372  41.211  1.00 32.16 LIG 0.16  HD
BRANCH 37 39
ATOM     39  CA  LYS P   5      19.681  23.880  39.509  1.00 31.76 LIG 0.18  C 
BRANCH 39 40
ATOM     40  C   LYS P   5      21.035  23.401  40.027  1.00 32.94 LIG 0.20  C 
ATOM     41 OXT  LYS P   5      21.213  23.162  41.243  1.00 33.46 LIG-0.65  OA
ATOM     42 O    LYS P   5      21.842  22.875  39.268  1.00 33.40 LIG-0.65  OA
ENDBRANCH 39 40
BRANCH 39 43
ATOM     43  CB  LYS P   5      19.722  25.393  39.314  1.00 39.97 LIG 0.04  C 
BRANCH 43 44
ATOM     44  CG  LYS P   5      18.905  26.106  40.349  1.00 38.10 LIG 0.00  C 
BRANCH 44 45
ATOM     45  CD  LYS P   5      19.016  27.528  40.177  1.00 35.88 LIG 0.03  C 
BRANCH 45 46
ATOM     46  CE  LYS P   5      18.064  28.182  39.816  1.00 33.52 LIG 0.23  C 
BRANCH 46 47
ATOM     47  NZ  LYS P   5      16.780  28.072  40.555  1.00 33.07 LIG-0.08  N 
ATOM     48 HZ1  LYS P   5      16.541  27.216  40.609  1.00 33.07 LIG 0.27  HD
ATOM     49 HZ2  LYS P   5      16.880  28.405  41.375  1.00 33.07 LIG 0.27  HD
ATOM     50 HZ3  LYS P   5      16.149  28.529  40.125  1.00 33.07 LIG 0.27  HD
ENDBRANCH 46 47
ENDBRANCH 45 46
ENDBRANCH 44 45
ENDBRANCH 43 44
ENDBRANCH 39 43
ENDBRANCH 37 39
ENDBRANCH 34 35
BRANCH 34 51
ATOM     51  CB  TYR P   4      15.590  24.242  41.535  1.00 30.77 LIG 0.07  C 
BRANCH 51 52
ATOM     52  CG  TYR P   4      14.527  23.946  42.578  1.00 30.74 LIG-0.06  A 
ATOM     53  CD2 TYR P   4      13.310  23.372  42.209  1.00 30.34 LIG 0.01  A 
ATOM     54  CE2 TYR P   4      12.343  23.055  43.159  1.00 30.16 LIG 0.04  A 
ATOM     55  CZ  TYR P   4      12.585  23.312  44.497  1.00 30.33 LIG 0.07  A 
ATOM     56  CE1 TYR P   4      13.783  23.888  44.894  1.00 30.37 LIG 0.04  A 
ATOM     57  CD1 TYR P   4      14.748  24.204  43.932  1.00 30.89 LIG 0.01  A 
BRANCH 55 58
ATOM     58 OH   TYR P   4      11.638  22.973  45.437  1.00 30.16 LIG-0.36  OA
ATOM     59 HH   TYR P   4      11.932  23.144  46.205  1.00 30.16 LIG 0.22  HD
ENDBRANCH 55 58
ENDBRANCH 51 52
ENDBRANCH 34 51
ENDBRANCH 3 34
TORSDOF 24
ENDMDL
MODEL 15
USER: ADFR SOLUTION from run 123
USER: SCORE 22.847129 LL:  -4.352 LR: -19.323 RR:   0.000 FEB: -12.164
USER: RMSD 13.295905
USER: SEED 122
USER: STATUS no improvement in best 4 clusters for 5 generations
USER: GENES 26
USER: genes 0 Translation |==|  0.62203 0.52585 0.57895
USER: genes 1 Rotation |==|  0.63033 0.95489 0.57477 0.64315
USER: genes 2 Torsion [N]-C--CA-[N] |==|  0.98496
USER: genes 3 Torsion [C]-CA--N-[C] |==|  0.20000
USER: genes 4 Torsion [N]-C--CA-[N] |==|  0.43631
USER: genes 5 Torsion [C]-CA--N-[C] |==|  0.64228
USER: genes 6 Torsion [N]-C--CA-[N] |==|  0.87621
USER: genes 7 Torsion [C]-CA--CB-[CG] |==|  0.34094
USER: genes 8 Torsion [CA]-CB--CG-[CD2] |==|  0.40300
USER: genes 9 Torsion [C]-CA--N-[H1] |==|  0.27438
USER: genes 10 Torsion [C]-CA--CB-[CG] |==|  0.50253
USER: genes 11 Torsion [CA]-CB--CG-[CD2] |==|  0.61555
USER: genes 12 Torsion [C]-CA--CB-[OG] |==|  0.28399
USER: genes 13 Torsion [CA]-CB--OG-[HG] |==|  0.31793
USER: genes 14 Torsion [C]-N--CA-[C] |==|  0.67344
USER: genes 15 Torsion [N]-CA--C-[N] |==|  0.96282
USER: genes 16 Torsion [C]-N--CA-[C] |==|  0.53881
USER: genes 17 Torsion [N]-CA--C-[OXT] |==|  0.46682
USER: genes 18 Torsion [N]-CA--CB-[CG] |==|  0.57521
USER: genes 19 Torsion [CA]-CB--CG-[CD] |==|  0.38753
USER: genes 20 Torsion [CB]-CG--CD-[CE] |==|  0.81797
USER: genes 21 Torsion [CG]-CD--CE-[NZ] |==|  0.25921
USER: genes 22 Torsion [CD]-CE--NZ-[HZ1] |==|  0.29759
USER: genes 23 Torsion [N]-CA--CB-[CG] |==|  0.85279
USER: genes 24 Torsion [CA]-CB--CG-[CD2] |==|  0.79820
USER: genes 25 Torsion [CE2]-CZ--OH-[HH] |==|  0.85080
ROOT
ATOM      1  C   SER P   3      16.691  21.056  43.298  1.00 32.74 LIG 0.24  C 
ATOM      2 O    SER P   3      15.626  20.713  42.797  1.00 33.45 LIG-0.27  OA
ATOM      3  N   TYR P   4      17.099  22.321  43.348  1.00 32.75 LIG-0.35  N 
ATOM      4 H    TYR P   4      17.849  22.567  43.688  1.00 32.75 LIG 0.16  HD
ENDROOT
BRANCH 1 5
ATOM      5  CA  SER P   3      17.635  20.022  43.899  1.00 31.85 LIG 0.20  C 
BRANCH 5 6
ATOM      6  N   SER P   3      18.923  20.558  44.338  1.00 31.96 LIG-0.34  N 
ATOM      7 H    SER P   3      19.600  20.344  43.852  1.00 31.96 LIG 0.16  HD
ATOM      8  C   LEU P   2      18.973  21.318  45.426  1.00 31.93 LIG 0.24  C 
ATOM      9 O    LEU P   2      17.967  21.570  46.084  1.00 32.53 LIG-0.27  OA
BRANCH 8 10
ATOM     10  CA  LEU P   2      20.323  21.871  45.883  1.00 41.07 LIG 0.18  C 
BRANCH 10 11
ATOM     11  N   LEU P   2      20.425  23.063  46.723  1.00 42.45 LIG-0.35  N 
ATOM     12  C   PHE P   1      21.503  23.959  45.877  1.00 42.69 LIG 0.25  C 
ATOM     13 O    PHE P   1      22.149  24.008  44.831  1.00 43.50 LIG-0.27  OA
ATOM     14 H    LEU P   2      19.990  23.176  47.456  1.00 42.45 LIG 0.16  HD
BRANCH 12 15
ATOM     15  CA  PHE P   1      21.553  25.133  46.847  1.00 41.57 LIG 0.28  C 
BRANCH 15 16
ATOM     16  CB  PHE P   1      22.388  24.719  48.062  1.00 35.06 LIG 0.08  C 
BRANCH 16 17
ATOM     17  CG  PHE P   1      23.566  25.613  48.328  1.00 31.19 LIG-0.06  A 
ATOM     18  CD1 PHE P   1      24.262  26.206  47.280  1.00 39.51 LIG 0.01  A 
ATOM     19  CE1 PHE P   1      25.345  27.049  47.528  1.00 39.01 LIG 0.00  A 
ATOM     20  CZ  PHE P   1      25.740  27.307  48.838  1.00 38.87 LIG 0.00  A 
ATOM     21  CE2 PHE P   1      25.052  26.720  49.892  1.00 39.01 LIG 0.00  A 
ATOM     22  CD2 PHE P   1      23.972  25.877  49.635  1.00 39.51 LIG 0.01  A 
ENDBRANCH 16 17
ENDBRANCH 15 16
BRANCH 15 23
ATOM     23  N   PHE P   1      20.162  25.475  47.262  1.00 43.28 LIG-0.07  N 
ATOM     24 H1   PHE P   1      19.990  25.109  48.055  1.00 43.28 LIG 0.28  HD
ATOM     25 H2   PHE P   1      20.077  26.359  47.320  1.00 43.28 LIG 0.28  HD
ATOM     26 H3   PHE P   1      19.586  25.161  46.660  1.00 43.28 LIG 0.28  HD
ENDBRANCH 15 23
ENDBRANCH 12 15
ENDBRANCH 10 11
BRANCH 10 27
ATOM     27  CB  LEU P   2      21.083  20.725  46.556  1.00 36.43 LIG 0.04  C 
BRANCH 27 28
ATOM     28  CG  LEU P   2      22.485  20.903  47.167  1.00 34.11 LIG-0.02  C 
ATOM     29  CD1 LEU P   2      22.399  21.087  48.674  1.00 33.27 LIG 0.01  C 
ATOM     30  CD2 LEU P   2      23.346  19.721  46.832  1.00 26.81 LIG 0.01  C 
ENDBRANCH 27 28
ENDBRANCH 10 27
ENDBRANCH 8 10
ENDBRANCH 5 6
BRANCH 5 31
ATOM     31  CB  SER P   3      16.934  19.310  45.053  1.00 31.53 LIG 0.20  C 
BRANCH 31 32
ATOM     32 OG   SER P   3      16.489  18.032  44.634  1.00 31.05 LIG-0.40  OA
ATOM     33 HG   SER P   3      16.907  17.437  45.055  1.00 31.05 LIG 0.21  HD
ENDBRANCH 31 32
ENDBRANCH 5 31
ENDBRANCH 1 5
BRANCH 3 34
ATOM     34  CA  TYR P   4      16.294  23.417  42.817  1.00 31.95 LIG 0.18  C 
BRANCH 34 35
ATOM     35  C   TYR P   4      17.063  24.081  41.680  1.00 31.84 LIG 0.24  C 
ATOM     36 O    TYR P   4      16.500  24.872  40.923  1.00 32.23 LIG-0.27  OA
ATOM     37  N   LYS P   5      18.350  23.765  41.569  1.00 32.16 LIG-0.34  N 
ATOM     38 H    LYS P   5      18.776  23.246  42.107  1.00 32.16 LIG 0.16  HD
BRANCH 37 39
ATOM     39  CA  LYS P   5      19.134  24.304  40.488  1.00 31.76 LIG 0.18  C 
BRANCH 39 40
ATOM     40  C   LYS P   5      20.467  23.577  40.326  1.00 32.94 LIG 0.20  C 
ATOM     41 OXT  LYS P   5      21.179  23.753  39.312  1.00 33.46 LIG-0.65  OA
ATOM     42 O    LYS P   5      21.053  23.126  41.304  1.00 33.40 LIG-0.65  OA
ENDBRANCH 39 40
BRANCH 39 43
ATOM     43  CB  LYS P   5      19.395  25.789  40.722  1.00 39.97 LIG 0.04  C 
BRANCH 43 44
ATOM     44  CG  LYS P   5      19.599  26.524  39.431  1.00 38.10 LIG 0.00  C 
BRANCH 44 45
ATOM     45  CD  LYS P   5      18.941  27.800  39.476  1.00 35.88 LIG 0.03  C 
BRANCH 45 46
ATOM     46  CE  LYS P   5      17.735  27.871  39.547  1.00 33.52 LIG 0.23  C 
BRANCH 46 47
ATOM     47  NZ  LYS P   5      17.087  27.982  40.880  1.00 33.07 LIG-0.08  N 
ATOM     48 HZ1  LYS P   5      16.780  28.810  40.992  1.00 33.07 LIG 0.27  HD
ATOM     49 HZ2  LYS P   5      16.411  27.405  40.930  1.00 33.07 LIG 0.27  HD
ATOM     50 HZ3  LYS P   5      17.682  27.798  41.515  1.00 33.07 LIG 0.27  HD
ENDBRANCH 46 47
ENDBRANCH 45 46
ENDBRANCH 44 45
ENDBRANCH 43 44
ENDBRANCH 39 43
ENDBRANCH 37 39
ENDBRANCH 34 35
BRANCH 34 51
ATOM     51  CB  TYR P   4      16.018  24.434  43.932  1.00 30.77 LIG 0.07  C 
BRANCH 51 52
ATOM     52  CG  TYR P   4      15.418  23.867  45.206  1.00 30.74 LIG-0.06  A 
ATOM     53  CD2 TYR P   4      14.088  23.447  45.240  1.00 30.34 LIG 0.01  A 
ATOM     54  CE2 TYR P   4      13.536  22.886  46.388  1.00 30.16 LIG 0.04  A 
ATOM     55  CZ  TYR P   4      14.316  22.737  47.522  1.00 30.33 LIG 0.07  A 
ATOM     56  CE1 TYR P   4      15.640  23.150  47.521  1.00 30.37 LIG 0.04  A 
ATOM     57  CD1 TYR P   4      16.185  23.714  46.363  1.00 30.89 LIG 0.01  A 
BRANCH 55 58
ATOM     58 OH   TYR P   4      13.775  22.156  48.647  1.00 30.16 LIG-0.36  OA
ATOM     59 HH   TYR P   4      13.068  22.558  48.858  1.00 30.16 LIG 0.22  HD
ENDBRANCH 55 58
ENDBRANCH 51 52
ENDBRANCH 34 51
ENDBRANCH 3 34
TORSDOF 24
ENDMDL
MODEL 16
USER: ADFR SOLUTION from run 82
USER: SCORE 22.613819 LL:  -3.690 LR: -19.296 RR:   0.000 FEB: -12.136
USER: RMSD 13.441719
USER: SEED 81
USER: STATUS no improvement in best 2 clusters for 5 generations
USER: GENES 26
USER: genes 0 Translation |==|  0.62873 0.58883 0.64150
USER: genes 1 Rotation |==|  0.77303 0.76482 0.17762 0.53732
USER: genes 2 Torsion [N]-C--CA-[N] |==|  0.19446
USER: genes 3 Torsion [C]-CA--N-[C] |==|  0.77171
USER: genes 4 Torsion [N]-C--CA-[N] |==|  0.97969
USER: genes 5 Torsion [C]-CA--N-[C] |==|  0.72080
USER: genes 6 Torsion [N]-C--CA-[N] |==|  0.86597
USER: genes 7 Torsion [C]-CA--CB-[CG] |==|  0.64946
USER: genes 8 Torsion [CA]-CB--CG-[CD2] |==|  0.28134
USER: genes 9 Torsion [C]-CA--N-[H1] |==|  0.13814
USER: genes 10 Torsion [C]-CA--CB-[CG] |==|  0.48621
USER: genes 11 Torsion [CA]-CB--CG-[CD2] |==|  0.65363
USER: genes 12 Torsion [C]-CA--CB-[OG] |==|  0.55178
USER: genes 13 Torsion [CA]-CB--OG-[HG] |==|  0.10218
USER: genes 14 Torsion [C]-N--CA-[C] |==|  0.77413
USER: genes 15 Torsion [N]-CA--C-[N] |==|  0.39345
USER: genes 16 Torsion [C]-N--CA-[C] |==|  0.20659
USER: genes 17 Torsion [N]-CA--C-[OXT] |==|  0.87694
USER: genes 18 Torsion [N]-CA--CB-[CG] |==|  0.36286
USER: genes 19 Torsion [CA]-CB--CG-[CD] |==|  0.38835
USER: genes 20 Torsion [CB]-CG--CD-[CE] |==|  0.95403
USER: genes 21 Torsion [CG]-CD--CE-[NZ] |==|  0.42315
USER: genes 22 Torsion [CD]-CE--NZ-[HZ1] |==|  0.12960
USER: genes 23 Torsion [N]-CA--CB-[CG] |==|  0.62699
USER: genes 24 Torsion [CA]-CB--CG-[CD2] |==|  0.53148
USER: genes 25 Torsion [CE2]-CZ--OH-[HH] |==|  0.14674
ROOT
ATOM      1  C   SER P   3      16.892  22.945  45.175  1.00 32.74 LIG 0.24  C 
ATOM      2 O    SER P   3      16.153  23.923  45.157  1.00 33.45 LIG-0.27  OA
ATOM      3  N   TYR P   4      17.329  22.342  44.073  1.00 32.75 LIG-0.35  N 
ATOM      4 H    TYR P   4      17.839  21.650  44.078  1.00 32.75 LIG 0.16  HD
ENDROOT
BRANCH 1 5
ATOM      5  CA  SER P   3      17.353  22.344  46.497  1.00 31.85 LIG 0.20  C 
BRANCH 5 6
ATOM      6  N   SER P   3      18.774  22.534  46.787  1.00 31.96 LIG-0.34  N 
ATOM      7 H    SER P   3      18.962  23.191  47.309  1.00 31.96 LIG 0.16  HD
ATOM      8  C   LEU P   2      19.663  21.708  46.247  1.00 31.93 LIG 0.24  C 
ATOM      9 O    LEU P   2      19.324  20.797  45.496  1.00 32.53 LIG-0.27  OA
BRANCH 8 10
ATOM     10  CA  LEU P   2      21.148  21.914  46.549  1.00 41.07 LIG 0.18  C 
BRANCH 10 11
ATOM     11  N   LEU P   2      21.631  23.081  47.284  1.00 42.45 LIG-0.35  N 
ATOM     12  C   PHE P   1      22.178  24.023  46.062  1.00 42.69 LIG 0.25  C 
ATOM     13 O    PHE P   1      22.252  24.117  44.837  1.00 43.50 LIG-0.27  OA
ATOM     14 H    LEU P   2      21.594  23.163  48.139  1.00 42.45 LIG 0.16  HD
BRANCH 12 15
ATOM     15  CA  PHE P   1      22.678  25.168  46.934  1.00 41.57 LIG 0.28  C 
BRANCH 15 16
ATOM     16  CB  PHE P   1      23.940  24.701  47.667  1.00 35.06 LIG 0.08  C 
BRANCH 16 17
ATOM     17  CG  PHE P   1      23.879  24.870  49.159  1.00 31.19 LIG-0.06  A 
ATOM     18  CD1 PHE P   1      24.078  26.117  49.743  1.00 39.51 LIG 0.01  A 
ATOM     19  CE1 PHE P   1      24.005  26.277  51.126  1.00 39.01 LIG 0.00  A 
ATOM     20  CZ  PHE P   1      23.730  25.182  51.940  1.00 38.87 LIG 0.00  A 
ATOM     21  CE2 PHE P   1      23.530  23.932  51.366  1.00 39.01 LIG 0.00  A 
ATOM     22  CD2 PHE P   1      23.607  23.781  49.983  1.00 39.51 LIG 0.01  A 
ENDBRANCH 16 17
ENDBRANCH 15 16
BRANCH 15 23
ATOM     23  N   PHE P   1      21.611  25.530  47.912  1.00 43.28 LIG-0.07  N 
ATOM     24 H1   PHE P   1      21.318  24.794  48.318  1.00 43.28 LIG 0.28  HD
ATOM     25 H2   PHE P   1      21.942  26.090  48.519  1.00 43.28 LIG 0.28  HD
ATOM     26 H3   PHE P   1      20.936  25.923  47.484  1.00 43.28 LIG 0.28  HD
ENDBRANCH 15 23
ENDBRANCH 12 15
ENDBRANCH 10 11
BRANCH 10 27
ATOM     27  CB  LEU P   2      21.654  20.647  47.244  1.00 36.43 LIG 0.04  C 
BRANCH 27 28
ATOM     28  CG  LEU P   2      23.135  20.432  47.605  1.00 34.11 LIG-0.02  C 
ATOM     29  CD1 LEU P   2      23.329  20.423  49.113  1.00 33.27 LIG 0.01  C 
ATOM     30  CD2 LEU P   2      23.630  19.150  47.004  1.00 26.81 LIG 0.01  C 
ENDBRANCH 27 28
ENDBRANCH 10 27
ENDBRANCH 8 10
ENDBRANCH 5 6
BRANCH 5 31
ATOM     31  CB  SER P   3      16.499  22.905  47.630  1.00 31.53 LIG 0.20  C 
BRANCH 31 32
ATOM     32 OG   SER P   3      17.156  22.714  48.871  1.00 31.05 LIG-0.40  OA
ATOM     33 HG   SER P   3      17.983  22.818  48.770  1.00 31.05 LIG 0.21  HD
ENDBRANCH 31 32
ENDBRANCH 5 31
ENDBRANCH 1 5
BRANCH 3 34
ATOM     34  CA  TYR P   4      16.974  22.814  42.737  1.00 31.95 LIG 0.18  C 
BRANCH 34 35
ATOM     35  C   TYR P   4      15.587  22.284  42.387  1.00 31.84 LIG 0.24  C 
ATOM     36 O    TYR P   4      15.247  21.151  42.728  1.00 32.23 LIG-0.27  OA
ATOM     37  N   LYS P   5      14.788  23.109  41.717  1.00 32.16 LIG-0.34  N 
ATOM     38 H    LYS P   5      14.987  23.917  41.501  1.00 32.16 LIG 0.16  HD
BRANCH 37 39
ATOM     39  CA  LYS P   5      13.483  22.666  41.298  1.00 31.76 LIG 0.18  C 
BRANCH 39 40
ATOM     40  C   LYS P   5      12.500  22.592  42.464  1.00 32.94 LIG 0.20  C 
ATOM     41 OXT  LYS P   5      12.835  22.089  43.560  1.00 33.46 LIG-0.65  OA
ATOM     42 O    LYS P   5      11.527  23.338  42.507  1.00 33.40 LIG-0.65  OA
ENDBRANCH 39 40
BRANCH 39 43
ATOM     43  CB  LYS P   5      13.585  21.295  40.636  1.00 39.97 LIG 0.04  C 
BRANCH 43 44
ATOM     44  CG  LYS P   5      12.581  20.334  41.198  1.00 38.10 LIG 0.00  C 
BRANCH 44 45
ATOM     45  CD  LYS P   5      12.019  19.530  40.148  1.00 35.88 LIG 0.03  C 
BRANCH 45 46
ATOM     46  CE  LYS P   5      12.131  19.861  38.990  1.00 33.52 LIG 0.23  C 
BRANCH 46 47
ATOM     47  NZ  LYS P   5      12.129  18.819  37.930  1.00 33.07 LIG-0.08  N 
ATOM     48 HZ1  LYS P   5      11.459  18.251  38.075  1.00 33.07 LIG 0.27  HD
ATOM     49 HZ2  LYS P   5      12.023  19.205  37.135  1.00 33.07 LIG 0.27  HD
ATOM     50 HZ3  LYS P   5      12.901  18.378  37.945  1.00 33.07 LIG 0.27  HD
ENDBRANCH 46 47
ENDBRANCH 45 46
ENDBRANCH 44 45
ENDBRANCH 43 44
ENDBRANCH 39 43
ENDBRANCH 37 39
ENDBRANCH 34 35
BRANCH 34 51
ATOM     51  CB  TYR P   4      18.006  22.302  41.724  1.00 30.77 LIG 0.07  C 
BRANCH 51 52
ATOM     52  CG  TYR P   4      18.514  23.327  40.727  1.00 30.74 LIG-0.06  A 
ATOM     53  CD2 TYR P   4      19.267  22.931  39.621  1.00 30.34 LIG 0.01  A 
ATOM     54  CE2 TYR P   4      19.703  23.854  38.675  1.00 30.16 LIG 0.04  A 
ATOM     55  CZ  TYR P   4      19.388  25.193  38.827  1.00 30.33 LIG 0.07  A 
ATOM     56  CE1 TYR P   4      18.646  25.619  39.919  1.00 30.37 LIG 0.04  A 
ATOM     57  CD1 TYR P   4      18.214  24.684  40.865  1.00 30.89 LIG 0.01  A 
BRANCH 55 58
ATOM     58 OH   TYR P   4      19.798  26.100  37.876  1.00 30.16 LIG-0.36  OA
ATOM     59 HH   TYR P   4      19.550  25.840  37.116  1.00 30.16 LIG 0.22  HD
ENDBRANCH 55 58
ENDBRANCH 51 52
ENDBRANCH 34 51
ENDBRANCH 3 34
TORSDOF 24
ENDMDL
MODEL 17
USER: ADFR SOLUTION from run 7
USER: SCORE 21.881974 LL:  -4.214 LR: -19.249 RR:   0.000 FEB: -12.090
USER: RMSD 13.367590
USER: SEED 391564
USER: STATUS no improvement in best 2 clusters for 5 generations
USER: GENES 26
USER: genes 0 Translation |==|  0.65184 0.74776 0.47943
USER: genes 1 Rotation |==|  0.90662 0.29591 0.35046 0.64367
USER: genes 2 Torsion [N]-C--CA-[N] |==|  0.32931
USER: genes 3 Torsion [C]-CA--N-[C] |==|  0.67945
USER: genes 4 Torsion [N]-C--CA-[N] |==|  0.12190
USER: genes 5 Torsion [C]-CA--N-[C] |==|  0.13590
USER: genes 6 Torsion [N]-C--CA-[N] |==|  0.92861
USER: genes 7 Torsion [C]-CA--CB-[CG] |==|  0.83172
USER: genes 8 Torsion [CA]-CB--CG-[CD2] |==|  0.82426
USER: genes 9 Torsion [C]-CA--N-[H1] |==|  0.83427
USER: genes 10 Torsion [C]-CA--CB-[CG] |==|  0.44609
USER: genes 11 Torsion [CA]-CB--CG-[CD2] |==|  0.31538
USER: genes 12 Torsion [C]-CA--CB-[OG] |==|  0.26445
USER: genes 13 Torsion [CA]-CB--OG-[HG] |==|  0.96642
USER: genes 14 Torsion [C]-N--CA-[C] |==|  0.49445
USER: genes 15 Torsion [N]-CA--C-[N] |==|  0.77501
USER: genes 16 Torsion [C]-N--CA-[C] |==|  0.75914
USER: genes 17 Torsion [N]-CA--C-[OXT] |==|  0.95958
USER: genes 18 Torsion [N]-CA--CB-[CG] |==|  0.27616
USER: genes 19 Torsion [CA]-CB--CG-[CD] |==|  0.42512
USER: genes 20 Torsion [CB]-CG--CD-[CE] |==|  0.39710
USER: genes 21 Torsion [CG]-CD--CE-[NZ] |==|  0.88954
USER: genes 22 Torsion [CD]-CE--NZ-[HZ1] |==|  0.79578
USER: genes 23 Torsion [N]-CA--CB-[CG] |==|  0.63502
USER: genes 24 Torsion [CA]-CB--CG-[CD2] |==|  0.17662
USER: genes 25 Torsion [CE2]-CZ--OH-[HH] |==|  0.58160
ROOT
ATOM      1  C   SER P   3      17.585  27.713  40.313  1.00 32.74 LIG 0.24  C 
ATOM      2 O    SER P   3      18.614  27.582  39.659  1.00 33.45 LIG-0.27  OA
ATOM      3  N   TYR P   4      16.922  26.687  40.840  1.00 32.75 LIG-0.35  N 
ATOM      4 H    TYR P   4      16.195  26.770  41.291  1.00 32.75 LIG 0.16  HD
ENDROOT
BRANCH 1 5
ATOM      5  CA  SER P   3      16.989  29.094  40.555  1.00 31.85 LIG 0.20  C 
BRANCH 5 6
ATOM      6  N   SER P   3      17.854  30.006  41.302  1.00 31.96 LIG-0.34  N 
ATOM      7 H    SER P   3      18.587  30.228  40.910  1.00 31.96 LIG 0.16  HD
ATOM      8  C   LEU P   2      17.472  30.427  42.502  1.00 31.93 LIG 0.24  C 
ATOM      9 O    LEU P   2      16.416  30.056  43.010  1.00 32.53 LIG-0.27  OA
BRANCH 8 10
ATOM     10  CA  LEU P   2      18.383  31.376  43.282  1.00 41.07 LIG 0.18  C 
BRANCH 10 11
ATOM     11  N   LEU P   2      19.040  32.513  42.642  1.00 42.45 LIG-0.35  N 
ATOM     12  C   PHE P   1      17.785  33.200  41.845  1.00 42.69 LIG 0.25  C 
ATOM     13 O    PHE P   1      16.569  33.141  41.669  1.00 43.50 LIG-0.27  OA
ATOM     14 H    LEU P   2      19.876  32.696  42.722  1.00 42.45 LIG 0.16  HD
BRANCH 12 15
ATOM     15  CA  PHE P   1      18.583  34.328  41.203  1.00 41.57 LIG 0.28  C 
BRANCH 15 16
ATOM     16  CB  PHE P   1      19.010  33.880  39.801  1.00 35.06 LIG 0.08  C 
BRANCH 16 17
ATOM     17  CG  PHE P   1      19.879  32.654  39.789  1.00 31.19 LIG-0.06  A 
ATOM     18  CD1 PHE P   1      19.455  31.486  39.166  1.00 39.51 LIG 0.01  A 
ATOM     19  CE1 PHE P   1      20.268  30.354  39.140  1.00 39.01 LIG 0.00  A 
ATOM     20  CZ  PHE P   1      21.523  30.385  39.743  1.00 38.87 LIG 0.00  A 
ATOM     21  CE2 PHE P   1      21.957  31.548  40.368  1.00 39.01 LIG 0.00  A 
ATOM     22  CD2 PHE P   1      21.136  32.673  40.391  1.00 39.51 LIG 0.01  A 
ENDBRANCH 16 17
ENDBRANCH 15 16
BRANCH 15 23
ATOM     23  N   PHE P   1      19.780  34.613  42.046  1.00 43.28 LIG-0.07  N 
ATOM     24 H1   PHE P   1      19.518  34.851  42.863  1.00 43.28 LIG 0.28  HD
ATOM     25 H2   PHE P   1      20.287  33.884  42.099  1.00 43.28 LIG 0.28  HD
ATOM     26 H3   PHE P   1      20.250  35.275  41.680  1.00 43.28 LIG 0.28  HD
ENDBRANCH 15 23
ENDBRANCH 12 15
ENDBRANCH 10 11
BRANCH 10 27
ATOM     27  CB  LEU P   2      17.592  31.877  44.493  1.00 36.43 LIG 0.04  C 
BRANCH 27 28
ATOM     28  CG  LEU P   2      18.270  32.487  45.734  1.00 34.11 LIG-0.02  C 
ATOM     29  CD1 LEU P   2      19.779  32.312  45.667  1.00 33.27 LIG 0.01  C 
ATOM     30  CD2 LEU P   2      17.916  33.940  45.851  1.00 26.81 LIG 0.01  C 
ENDBRANCH 27 28
ENDBRANCH 10 27
ENDBRANCH 8 10
ENDBRANCH 5 6
BRANCH 5 31
ATOM     31  CB  SER P   3      16.591  29.713  39.218  1.00 31.53 LIG 0.20  C 
BRANCH 31 32
ATOM     32 OG   SER P   3      15.220  29.468  38.960  1.00 31.05 LIG-0.40  OA
ATOM     33 HG   SER P   3      14.931  28.895  39.502  1.00 31.05 LIG 0.21  HD
ENDBRANCH 31 32
ENDBRANCH 5 31
ENDBRANCH 1 5
BRANCH 3 34
ATOM     34  CA  TYR P   4      17.382  25.309  40.695  1.00 31.95 LIG 0.18  C 
BRANCH 34 35
ATOM     35  C   TYR P   4      16.426  24.394  41.455  1.00 31.84 LIG 0.24  C 
ATOM     36 O    TYR P   4      15.545  23.777  40.857  1.00 32.23 LIG-0.27  OA
ATOM     37  N   LYS P   5      16.610  24.303  42.769  1.00 32.16 LIG-0.34  N 
ATOM     38 H    LYS P   5      17.242  24.693  43.204  1.00 32.16 LIG 0.16  HD
BRANCH 37 39
ATOM     39  CA  LYS P   5      15.716  23.506  43.568  1.00 31.76 LIG 0.18  C 
BRANCH 39 40
ATOM     40  C   LYS P   5      14.487  24.294  44.015  1.00 32.94 LIG 0.20  C 
ATOM     41 OXT  LYS P   5      14.455  25.542  43.929  1.00 33.46 LIG-0.65  OA
ATOM     42 O    LYS P   5      13.392  23.747  44.097  1.00 33.40 LIG-0.65  OA
ENDBRANCH 39 40
BRANCH 39 43
ATOM     43  CB  LYS P   5      16.448  22.973  44.796  1.00 39.97 LIG 0.04  C 
BRANCH 43 44
ATOM     44  CG  LYS P   5      16.154  23.795  46.014  1.00 38.10 LIG 0.00  C 
BRANCH 44 45
ATOM     45  CD  LYS P   5      16.293  22.996  47.200  1.00 35.88 LIG 0.03  C 
BRANCH 45 46
ATOM     46  CE  LYS P   5      16.754  23.470  48.214  1.00 33.52 LIG 0.23  C 
BRANCH 46 47
ATOM     47  NZ  LYS P   5      17.905  24.405  48.124  1.00 33.07 LIG-0.08  N 
ATOM     48 HZ1  LYS P   5      18.643  23.949  47.927  1.00 33.07 LIG 0.27  HD
ATOM     49 HZ2  LYS P   5      17.749  25.007  47.486  1.00 33.07 LIG 0.27  HD
ATOM     50 HZ3  LYS P   5      18.012  24.820  48.903  1.00 33.07 LIG 0.27  HD
ENDBRANCH 46 47
ENDBRANCH 45 46
ENDBRANCH 44 45
ENDBRANCH 43 44
ENDBRANCH 39 43
ENDBRANCH 37 39
ENDBRANCH 34 35
BRANCH 34 51
ATOM     51  CB  TYR P   4      18.800  25.181  41.264  1.00 30.77 LIG 0.07  C 
BRANCH 51 52
ATOM     52  CG  TYR P   4      19.806  24.474  40.372  1.00 30.74 LIG-0.06  A 
ATOM     53  CD2 TYR P   4      20.163  25.015  39.137  1.00 30.34 LIG 0.01  A 
ATOM     54  CE2 TYR P   4      21.115  24.401  38.327  1.00 30.16 LIG 0.04  A 
ATOM     55  CZ  TYR P   4      21.725  23.233  38.750  1.00 30.33 LIG 0.07  A 
ATOM     56  CE1 TYR P   4      21.386  22.668  39.971  1.00 30.37 LIG 0.04  A 
ATOM     57  CD1 TYR P   4      20.427  23.291  40.775  1.00 30.89 LIG 0.01  A 
BRANCH 55 58
ATOM     58 OH   TYR P   4      22.685  22.643  37.960  1.00 30.16 LIG-0.36  OA
ATOM     59 HH   TYR P   4      22.682  21.813  38.088  1.00 30.16 LIG 0.22  HD
ENDBRANCH 55 58
ENDBRANCH 51 52
ENDBRANCH 34 51
ENDBRANCH 3 34
TORSDOF 24
ENDMDL
MODEL 18
USER: ADFR SOLUTION from run 12
USER: SCORE 24.105292 LL:  -5.467 LR: -19.179 RR:   0.000 FEB: -12.019
USER: RMSD 13.140222
USER: SEED 229010
USER: STATUS no improvement in best 3 clusters for 5 generations
USER: GENES 26
USER: genes 0 Translation |==|  0.66406 0.74588 0.47001
USER: genes 1 Rotation |==|  0.30519 0.65413 0.10126 0.67117
USER: genes 2 Torsion [N]-C--CA-[N] |==|  0.49371
USER: genes 3 Torsion [C]-CA--N-[C] |==|  0.73402
USER: genes 4 Torsion [N]-C--CA-[N] |==|  0.05199
USER: genes 5 Torsion [C]-CA--N-[C] |==|  0.17222
USER: genes 6 Torsion [N]-C--CA-[N] |==|  0.89972
USER: genes 7 Torsion [C]-CA--CB-[CG] |==|  0.75146
USER: genes 8 Torsion [CA]-CB--CG-[CD2] |==|  0.25849
USER: genes 9 Torsion [C]-CA--N-[H1] |==|  0.52320
USER: genes 10 Torsion [C]-CA--CB-[CG] |==|  0.32954
USER: genes 11 Torsion [CA]-CB--CG-[CD2] |==|  0.74643
USER: genes 12 Torsion [C]-CA--CB-[OG] |==|  0.63392
USER: genes 13 Torsion [CA]-CB--OG-[HG] |==|  0.87604
USER: genes 14 Torsion [C]-N--CA-[C] |==|  0.78836
USER: genes 15 Torsion [N]-CA--C-[N] |==|  0.47688
USER: genes 16 Torsion [C]-N--CA-[C] |==|  0.87488
USER: genes 17 Torsion [N]-CA--C-[OXT] |==|  0.93124
USER: genes 18 Torsion [N]-CA--CB-[CG] |==|  0.63547
USER: genes 19 Torsion [CA]-CB--CG-[CD] |==|  0.84262
USER: genes 20 Torsion [CB]-CG--CD-[CE] |==|  0.35156
USER: genes 21 Torsion [CG]-CD--CE-[NZ] |==|  0.65218
USER: genes 22 Torsion [CD]-CE--NZ-[HZ1] |==|  0.02585
USER: genes 23 Torsion [N]-CA--CB-[CG] |==|  0.25216
USER: genes 24 Torsion [CA]-CB--CG-[CD2] |==|  0.81224
USER: genes 25 Torsion [CE2]-CZ--OH-[HH] |==|  0.70030
ROOT
ATOM      1  C   SER P   3      17.952  27.656  40.030  1.00 32.74 LIG 0.24  C 
ATOM      2 O    SER P   3      17.081  27.631  40.893  1.00 33.45 LIG-0.27  OA
ATOM      3  N   TYR P   4      18.439  26.560  39.456  1.00 32.75 LIG-0.35  N 
ATOM      4 H    TYR P   4      19.057  26.569  38.858  1.00 32.75 LIG 0.16  HD
ENDROOT
BRANCH 1 5
ATOM      5  CA  SER P   3      18.547  28.979  39.566  1.00 31.85 LIG 0.20  C 
BRANCH 5 6
ATOM      6  N   SER P   3      17.950  30.164  40.182  1.00 31.96 LIG-0.34  N 
ATOM      7 H    SER P   3      18.271  30.385  40.949  1.00 31.96 LIG 0.16  HD
ATOM      8  C   LEU P   2      16.980  30.809  39.545  1.00 31.93 LIG 0.24  C 
ATOM      9 O    LEU P   2      16.559  30.426  38.456  1.00 32.53 LIG-0.27  OA
BRANCH 8 10
ATOM     10  CA  LEU P   2      16.356  32.043  40.197  1.00 41.07 LIG 0.18  C 
BRANCH 10 11
ATOM     11  N   LEU P   2      17.026  32.771  41.271  1.00 42.45 LIG-0.35  N 
ATOM     12  C   PHE P   1      18.388  33.276  40.514  1.00 42.69 LIG 0.25  C 
ATOM     13 O    PHE P   1      18.962  33.316  39.426  1.00 43.50 LIG-0.27  OA
ATOM     14 H    LEU P   2      16.710  32.859  42.066  1.00 42.45 LIG 0.16  HD
BRANCH 12 15
ATOM     15  CA  PHE P   1      19.007  33.975  41.717  1.00 41.57 LIG 0.28  C 
BRANCH 15 16
ATOM     16  CB  PHE P   1      19.748  32.929  42.555  1.00 35.06 LIG 0.08  C 
BRANCH 16 17
ATOM     17  CG  PHE P   1      18.897  32.271  43.605  1.00 31.19 LIG-0.06  A 
ATOM     18  CD1 PHE P   1      18.742  32.848  44.861  1.00 39.51 LIG 0.01  A 
ATOM     19  CE1 PHE P   1      17.939  32.248  45.829  1.00 39.01 LIG 0.00  A 
ATOM     20  CZ  PHE P   1      17.280  31.055  45.543  1.00 38.87 LIG 0.00  A 
ATOM     21  CE2 PHE P   1      17.428  30.470  44.292  1.00 39.01 LIG 0.00  A 
ATOM     22  CD2 PHE P   1      18.235  31.077  43.331  1.00 39.51 LIG 0.01  A 
ENDBRANCH 16 17
ENDBRANCH 15 16
BRANCH 15 23
ATOM     23  N   PHE P   1      17.921  34.611  42.518  1.00 43.28 LIG-0.07  N 
ATOM     24 H1   PHE P   1      18.280  35.122  43.152  1.00 43.28 LIG 0.28  HD
ATOM     25 H2   PHE P   1      17.414  35.112  41.986  1.00 43.28 LIG 0.28  HD
ATOM     26 H3   PHE P   1      17.420  33.978  42.894  1.00 43.28 LIG 0.28  HD
ENDBRANCH 15 23
ENDBRANCH 12 15
ENDBRANCH 10 11
BRANCH 10 27
ATOM     27  CB  LEU P   2      16.006  33.025  39.076  1.00 36.43 LIG 0.04  C 
BRANCH 27 28
ATOM     28  CG  LEU P   2      14.564  33.486  38.794  1.00 34.11 LIG-0.02  C 
ATOM     29  CD1 LEU P   2      14.541  34.926  38.307  1.00 33.27 LIG 0.01  C 
ATOM     30  CD2 LEU P   2      13.922  32.580  37.786  1.00 26.81 LIG 0.01  C 
ENDBRANCH 27 28
ENDBRANCH 10 27
ENDBRANCH 8 10
ENDBRANCH 5 6
BRANCH 5 31
ATOM     31  CB  SER P   3      20.056  28.962  39.797  1.00 31.53 LIG 0.20  C 
BRANCH 31 32
ATOM     32 OG   SER P   3      20.460  30.156  40.444  1.00 31.05 LIG-0.40  OA
ATOM     33 HG   SER P   3      20.085  30.813  40.080  1.00 31.05 LIG 0.21  HD
ENDBRANCH 31 32
ENDBRANCH 5 31
ENDBRANCH 1 5
BRANCH 3 34
ATOM     34  CA  TYR P   4      17.957  25.225  39.797  1.00 31.95 LIG 0.18  C 
BRANCH 34 35
ATOM     35  C   TYR P   4      18.550  24.823  41.144  1.00 31.84 LIG 0.24  C 
ATOM     36 O    TYR P   4      19.410  25.522  41.680  1.00 32.23 LIG-0.27  OA
ATOM     37  N   LYS P   5      18.082  23.705  41.690  1.00 32.16 LIG-0.34  N 
ATOM     38 H    LYS P   5      17.454  23.221  41.355  1.00 32.16 LIG 0.16  HD
BRANCH 37 39
ATOM     39  CA  LYS P   5      18.629  23.225  42.932  1.00 31.76 LIG 0.18  C 
BRANCH 39 40
ATOM     40  C   LYS P   5      20.155  23.280  42.947  1.00 32.94 LIG 0.20  C 
ATOM     41 OXT  LYS P   5      20.812  23.251  41.883  1.00 33.46 LIG-0.65  OA
ATOM     42 O    LYS P   5      20.753  23.733  43.918  1.00 33.40 LIG-0.65  OA
ENDBRANCH 39 40
BRANCH 39 43
ATOM     43  CB  LYS P   5      18.174  21.791  43.184  1.00 39.97 LIG 0.04  C 
BRANCH 43 44
ATOM     44  CG  LYS P   5      17.638  21.617  44.573  1.00 38.10 LIG 0.00  C 
BRANCH 44 45
ATOM     45  CD  LYS P   5      18.624  22.012  45.541  1.00 35.88 LIG 0.03  C 
BRANCH 45 46
ATOM     46  CE  LYS P   5      18.358  22.824  46.398  1.00 33.52 LIG 0.23  C 
BRANCH 46 47
ATOM     47  NZ  LYS P   5      19.208  24.034  46.545  1.00 33.07 LIG-0.08  N 
ATOM     48 HZ1  LYS P   5      19.773  24.085  45.859  1.00 33.07 LIG 0.27  HD
ATOM     49 HZ2  LYS P   5      18.691  24.759  46.557  1.00 33.07 LIG 0.27  HD
ATOM     50 HZ3  LYS P   5      19.667  23.984  47.305  1.00 33.07 LIG 0.27  HD
ENDBRANCH 46 47
ENDBRANCH 45 46
ENDBRANCH 44 45
ENDBRANCH 43 44
ENDBRANCH 39 43
ENDBRANCH 37 39
ENDBRANCH 34 35
BRANCH 34 51
ATOM     51  CB  TYR P   4      18.391  24.233  38.712  1.00 30.77 LIG 0.07  C 
BRANCH 51 52
ATOM     52  CG  TYR P   4      19.728  23.550  38.940  1.00 30.74 LIG-0.06  A 
ATOM     53  CD2 TYR P   4      20.915  24.280  38.895  1.00 30.34 LIG 0.01  A 
ATOM     54  CE2 TYR P   4      22.145  23.677  39.145  1.00 30.16 LIG 0.04  A 
ATOM     55  CZ  TYR P   4      22.198  22.326  39.445  1.00 30.33 LIG 0.07  A 
ATOM     56  CE1 TYR P   4      21.035  21.573  39.491  1.00 30.37 LIG 0.04  A 
ATOM     57  CD1 TYR P   4      19.805  22.188  39.237  1.00 30.89 LIG 0.01  A 
BRANCH 55 58
ATOM     58 OH   TYR P   4      23.412  21.738  39.718  1.00 30.16 LIG-0.36  OA
ATOM     59 HH   TYR P   4      23.636  21.246  39.076  1.00 30.16 LIG 0.22  HD
ENDBRANCH 55 58
ENDBRANCH 51 52
ENDBRANCH 34 51
ENDBRANCH 3 34
TORSDOF 24
ENDMDL
