MODEL 1
USER: ADFR SOLUTION from run 2
USER: SCORE 17.275857 LL:  -4.383 LR: -14.134 RR:   0.000 FEB:  -8.168
USER: RMSD 10.011371
USER: SEED 57359
USER: STATUS searching
USER: GENES 22
USER: genes 0 Translation |==|  0.46772 0.37484 0.42924
USER: genes 1 Rotation |==|  0.74287 0.26804 0.13379 0.55566
USER: genes 2 Torsion [N]-CA--C-[N] |==|  0.05556
USER: genes 3 Torsion [C]-N--CA-[CB] |==|  0.19679
USER: genes 4 Torsion [N]-CA--C-[N] |==|  0.44610
USER: genes 5 Torsion [C]-N--CA-[C] |==|  0.63917
USER: genes 6 Torsion [N]-CA--CB-[CG1] |==|  0.04733
USER: genes 7 Torsion [CA]-CB--CG1-[CD1] |==|  0.72726
USER: genes 8 Torsion [N]-CA--C-[OXT] |==|  0.46203
USER: genes 9 Torsion [N]-CA--CB-[CG] |==|  0.72597
USER: genes 10 Torsion [CA]-CB--CG-[ND1] |==|  0.44503
USER: genes 11 Torsion [C]-CA--CB-[CG] |==|  0.47465
USER: genes 12 Torsion [CA]-CB--CG-[CD2] |==|  0.27519
USER: genes 13 Torsion [C]-CA--N-[C] |==|  0.69499
USER: genes 14 Torsion [N]-C--CA-[N] |==|  0.23281
USER: genes 15 Torsion [C]-CA--CB-[CG] |==|  0.72739
USER: genes 16 Torsion [CA]-CB--CG-[CD2] |==|  0.73664
USER: genes 17 Torsion [C]-CA--N-[C] |==|  0.77200
USER: genes 18 Torsion [N]-C--CA-[N] |==|  0.06314
USER: genes 19 Torsion [C]-CA--N-[H2] |==|  0.65761
USER: genes 20 Torsion [C]-CA--CB-[CG] |==|  0.29536
USER: genes 21 Torsion [CA]-CB--CG-[OD1] |==|  0.60757
ROOT
ATOM      1  CA  LEU D  11      17.462   3.185  60.387  1.00 47.89 LIG 0.18  C 
ENDROOT
BRANCH 1 2
ATOM      2  C   LEU D  11      18.628   3.843  61.113  1.00 48.14 LIG 0.24  C 
ATOM      3 O    LEU D  11      19.785   3.557  60.833  1.00 47.13 LIG-0.27  OA
ATOM      4  N   HIS D  12      18.312   4.699  62.078  1.00 49.28 LIG-0.35  N 
ATOM      5 H    HIS D  12      17.507   4.921  62.286  1.00 49.28 LIG 0.16  HD
BRANCH 4 6
ATOM      6  CA  HIS D  12      19.352   5.339  62.876  1.00 50.49 LIG 0.18  C 
BRANCH 6 7
ATOM      7  C   HIS D  12      18.781   5.993  64.133  1.00 51.38 LIG 0.24  C 
ATOM      8  N   ILE D  13      19.671   6.230  65.082  1.00 53.16 LIG-0.34  N 
ATOM      9 H    ILE D  13      20.494   5.998  64.991  1.00 53.16 LIG 0.16  HD
ATOM     10 O    HIS D  12      17.594   6.271  64.220  1.00 51.57 LIG-0.27  OA
BRANCH 8 11
ATOM     11  CA  ILE D  13      19.424   6.888  66.375  1.00 55.12 LIG 0.19  C 
BRANCH 11 12
ATOM     12  CB  ILE D  13      19.116   5.888  67.547  1.00 55.01 LIG 0.01  C 
ATOM     13  CG2 ILE D  13      17.635   5.900  67.969  1.00 56.15 LIG 0.01  C 
BRANCH 12 14
ATOM     14  CG1 ILE D  13      19.558   4.473  67.160  1.00 55.50 LIG 0.00  C 
ATOM     15  CD1 ILE D  13      18.413   3.567  66.633  1.00 55.45 LIG 0.01  C 
ENDBRANCH 12 14
ENDBRANCH 11 12
BRANCH 11 16
ATOM     16  C   ILE D  13      20.340   8.038  66.806  1.00 55.63 LIG 0.20  C 
ATOM     17 OXT  ILE D  13      19.972   8.744  67.756  1.00 55.86 LIG-0.65  OA
ATOM     18 O    ILE D  13      21.420   8.238  66.246  1.00 56.94 LIG-0.65  OA
ENDBRANCH 11 16
ENDBRANCH 8 11
ENDBRANCH 6 7
BRANCH 6 19
ATOM     19  CB  HIS D  12      20.128   6.369  62.053  1.00 50.55 LIG 0.10  C 
BRANCH 19 20
ATOM     20  CG  HIS D  12      21.428   5.859  61.518  1.00 49.61 LIG 0.05  A 
ATOM     21 ND1  HIS D  12      22.209   6.294  60.502  1.00 49.92 LIG-0.25  NA
ATOM     22  CE1 HIS D  12      23.298   5.460  60.442  1.00 49.12 LIG 0.21  A 
ATOM     23  NE2 HIS D  12      23.203   4.560  61.403  1.00 48.62 LIG-0.36  N 
ATOM     24 HE2  HIS D  12      23.775   3.940  61.570  1.00 48.62 LIG 0.17  HD
ATOM     25  CD2 HIS D  12      22.081   4.775  62.065  1.00 48.49 LIG 0.12  A 
ENDBRANCH 19 20
ENDBRANCH 6 19
ENDBRANCH 4 6
ENDBRANCH 1 2
BRANCH 1 26
ATOM     26  CB  LEU D  11      17.828   3.087  58.911  1.00 47.69 LIG 0.04  C 
BRANCH 26 27
ATOM     27  CG  LEU D  11      16.930   2.276  57.968  1.00 48.05 LIG-0.02  C 
ATOM     28  CD1 LEU D  11      16.176   1.211  58.751  1.00 46.53 LIG 0.01  C 
ATOM     29  CD2 LEU D  11      15.976   3.143  57.181  1.00 50.43 LIG 0.01  C 
ENDBRANCH 26 27
ENDBRANCH 1 26
BRANCH 1 30
ATOM     30  N   LEU D  11      16.208   3.911  60.529  1.00 47.51 LIG-0.35  N 
ATOM     31  C   LEU D  10      15.185   3.454  61.253  1.00 47.80 LIG 0.24  C 
ATOM     32 O    LEU D  10      15.229   2.417  61.930  1.00 47.07 LIG-0.27  OA
ATOM     33 H    LEU D  11      16.189   4.659  60.105  1.00 47.51 LIG 0.16  HD
BRANCH 31 34
ATOM     34  CA  LEU D  10      13.915   4.294  61.198  1.00 47.63 LIG 0.18  C 
BRANCH 34 35
ATOM     35  CB  LEU D  10      13.104   4.151  62.482  1.00 47.29 LIG 0.04  C 
BRANCH 35 36
ATOM     36  CG  LEU D  10      11.952   3.145  62.380  1.00 46.92 LIG-0.02  C 
ATOM     37  CD2 LEU D  10      10.669   3.824  62.033  1.00 45.50 LIG 0.01  C 
ATOM     38  CD1 LEU D  10      11.770   2.351  63.672  1.00 46.83 LIG 0.01  C 
ENDBRANCH 35 36
ENDBRANCH 34 35
BRANCH 34 39
ATOM     39  N   LEU D  10      13.137   3.940  60.023  1.00 47.82 LIG-0.35  N 
ATOM     40 H    LEU D  10      12.495   3.387  60.167  1.00 47.82 LIG 0.16  HD
ATOM     41  C   ASP D   9      13.433   4.458  58.837  1.00 48.63 LIG 0.25  C 
ATOM     42 O    ASP D   9      14.365   5.237  58.654  1.00 48.10 LIG-0.27  OA
BRANCH 41 43
ATOM     43  CA  ASP D   9      12.555   4.026  57.692  1.00 49.27 LIG 0.28  C 
BRANCH 43 44
ATOM     44  N   ASP D   9      11.263   3.568  58.263  1.00 49.86 LIG-0.07  N 
ATOM     45 H2   ASP D   9      11.104   2.731  58.005  1.00 49.86 LIG 0.28  HD
ATOM     46 H3   ASP D   9      11.302   3.602  59.151  1.00 49.86 LIG 0.28  HD
ATOM     47 H1   ASP D   9      10.607   4.096  57.975  1.00 49.86 LIG 0.28  HD
ENDBRANCH 43 44
BRANCH 43 48
ATOM     48  CB  ASP D   9      12.341   5.213  56.763  1.00 50.02 LIG 0.15  C 
BRANCH 48 49
ATOM     49  CG  ASP D   9      13.116   5.095  55.484  1.00 50.84 LIG 0.17  C 
ATOM     50 OD1  ASP D   9      13.635   6.120  55.010  1.00 53.44 LIG-0.65  OA
ATOM     51 OD2  ASP D   9      13.285   4.007  54.888  1.00 53.75 LIG-0.65  OA
ENDBRANCH 48 49
ENDBRANCH 43 48
ENDBRANCH 41 43
ENDBRANCH 34 39
ENDBRANCH 31 34
ENDBRANCH 1 30
TORSDOF 20
ENDMDL
MODEL 2
USER: ADFR SOLUTION from run 131
USER: SCORE 17.372679 LL:  -4.375 LR: -14.079 RR:   0.000 FEB:  -8.113
USER: RMSD 10.575595
USER: SEED 130
USER: STATUS no improvement in best 6 clusters for 5 generations
USER: GENES 22
USER: genes 0 Translation |==|  0.46047 0.36968 0.48203
USER: genes 1 Rotation |==|  0.76323 0.07687 0.46665 0.52372
USER: genes 2 Torsion [N]-CA--C-[N] |==|  0.60970
USER: genes 3 Torsion [C]-N--CA-[CB] |==|  0.84841
USER: genes 4 Torsion [N]-CA--C-[N] |==|  0.38786
USER: genes 5 Torsion [C]-N--CA-[C] |==|  0.63006
USER: genes 6 Torsion [N]-CA--CB-[CG1] |==|  0.98793
USER: genes 7 Torsion [CA]-CB--CG1-[CD1] |==|  0.54653
USER: genes 8 Torsion [N]-CA--C-[OXT] |==|  0.51692
USER: genes 9 Torsion [N]-CA--CB-[CG] |==|  0.84558
USER: genes 10 Torsion [CA]-CB--CG-[ND1] |==|  0.29704
USER: genes 11 Torsion [C]-CA--CB-[CG] |==|  0.33358
USER: genes 12 Torsion [CA]-CB--CG-[CD2] |==|  0.12372
USER: genes 13 Torsion [C]-CA--N-[C] |==|  0.71100
USER: genes 14 Torsion [N]-C--CA-[N] |==|  0.50241
USER: genes 15 Torsion [C]-CA--CB-[CG] |==|  0.79943
USER: genes 16 Torsion [CA]-CB--CG-[CD2] |==|  0.61777
USER: genes 17 Torsion [C]-CA--N-[C] |==|  0.56682
USER: genes 18 Torsion [N]-C--CA-[N] |==|  0.87421
USER: genes 19 Torsion [C]-CA--N-[H2] |==|  0.73198
USER: genes 20 Torsion [C]-CA--CB-[CG] |==|  0.19349
USER: genes 21 Torsion [CA]-CB--CG-[OD1] |==|  0.53486
ROOT
ATOM      1  CA  LEU D  11      17.244   3.030  61.971  1.00 47.89 LIG 0.18  C 
ENDROOT
BRANCH 1 2
ATOM      2  C   LEU D  11      18.060   4.230  62.434  1.00 48.14 LIG 0.24  C 
ATOM      3 O    LEU D  11      17.844   5.349  61.986  1.00 47.13 LIG-0.27  OA
ATOM      4  N   HIS D  12      19.028   3.980  63.308  1.00 49.28 LIG-0.35  N 
ATOM      5 H    HIS D  12      19.191   3.205  63.643  1.00 49.28 LIG 0.16  HD
BRANCH 4 6
ATOM      6  CA  HIS D  12      19.907   5.048  63.772  1.00 50.49 LIG 0.18  C 
BRANCH 6 7
ATOM      7  C   HIS D  12      19.166   6.050  64.655  1.00 51.38 LIG 0.24  C 
ATOM      8  N   ILE D  13      19.853   6.471  65.704  1.00 53.16 LIG-0.34  N 
ATOM      9 H    ILE D  13      20.640   6.168  65.874  1.00 53.16 LIG 0.16  HD
ATOM     10 O    HIS D  12      18.034   6.420  64.383  1.00 51.57 LIG-0.27  OA
BRANCH 8 11
ATOM     11  CA  ILE D  13      19.419   7.465  66.699  1.00 55.12 LIG 0.19  C 
BRANCH 11 12
ATOM     12  CB  ILE D  13      18.668   6.842  67.931  1.00 55.01 LIG 0.01  C 
ATOM     13  CG2 ILE D  13      17.316   7.524  68.214  1.00 56.15 LIG 0.01  C 
BRANCH 12 14
ATOM     14  CG1 ILE D  13      18.482   5.335  67.726  1.00 55.50 LIG 0.00  C 
ATOM     15  CD1 ILE D  13      17.418   4.690  68.655  1.00 55.45 LIG 0.01  C 
ENDBRANCH 12 14
ENDBRANCH 11 12
BRANCH 11 16
ATOM     16  C   ILE D  13      20.388   8.580  67.102  1.00 55.63 LIG 0.20  C 
ATOM     17 OXT  ILE D  13      20.048   9.336  68.022  1.00 55.86 LIG-0.65  OA
ATOM     18 O    ILE D  13      21.483   8.706  66.548  1.00 56.94 LIG-0.65  OA
ENDBRANCH 11 16
ENDBRANCH 8 11
ENDBRANCH 6 7
BRANCH 6 19
ATOM     19  CB  HIS D  12      20.569   5.771  62.596  1.00 50.55 LIG 0.10  C 
BRANCH 19 20
ATOM     20  CG  HIS D  12      21.323   4.863  61.677  1.00 49.61 LIG 0.05  A 
ATOM     21 ND1  HIS D  12      21.043   4.425  60.427  1.00 49.92 LIG-0.25  NA
ATOM     22  CE1 HIS D  12      22.079   3.612  60.042  1.00 49.12 LIG 0.21  A 
ATOM     23  NE2 HIS D  12      22.976   3.571  61.010  1.00 48.62 LIG-0.36  N 
ATOM     24 HE2  HIS D  12      23.717   3.135  60.991  1.00 48.62 LIG 0.17  HD
ATOM     25  CD2 HIS D  12      22.542   4.314  62.011  1.00 48.49 LIG 0.12  A 
ENDBRANCH 19 20
ENDBRANCH 6 19
ENDBRANCH 4 6
ENDBRANCH 1 2
BRANCH 1 26
ATOM     26  CB  LEU D  11      18.053   1.774  62.273  1.00 47.69 LIG 0.04  C 
BRANCH 26 27
ATOM     27  CG  LEU D  11      17.464   0.711  63.210  1.00 48.05 LIG-0.02  C 
ATOM     28  CD1 LEU D  11      17.648   1.133  64.660  1.00 46.53 LIG 0.01  C 
ATOM     29  CD2 LEU D  11      16.014   0.412  62.915  1.00 50.43 LIG 0.01  C 
ENDBRANCH 26 27
ENDBRANCH 1 26
BRANCH 1 30
ATOM     30  N   LEU D  11      16.914   3.066  60.554  1.00 47.51 LIG-0.35  N 
ATOM     31  C   LEU D  10      15.700   3.384  60.101  1.00 47.80 LIG 0.24  C 
ATOM     32 O    LEU D  10      14.767   3.750  60.830  1.00 47.07 LIG-0.27  OA
ATOM     33 H    LEU D  11      17.572   2.864  60.038  1.00 47.51 LIG 0.16  HD
BRANCH 31 34
ATOM     34  CA  LEU D  10      15.509   3.263  58.595  1.00 47.63 LIG 0.18  C 
BRANCH 34 35
ATOM     35  CB  LEU D  10      16.558   4.072  57.839  1.00 47.29 LIG 0.04  C 
BRANCH 35 36
ATOM     36  CG  LEU D  10      16.350   5.589  57.920  1.00 46.92 LIG-0.02  C 
ATOM     37  CD2 LEU D  10      16.579   6.239  56.596  1.00 45.50 LIG 0.01  C 
ATOM     38  CD1 LEU D  10      17.256   6.235  58.965  1.00 46.83 LIG 0.01  C 
ENDBRANCH 35 36
ENDBRANCH 34 35
BRANCH 34 39
ATOM     39  N   LEU D  10      14.157   3.655  58.234  1.00 47.82 LIG-0.35  N 
ATOM     40 H    LEU D  10      13.772   4.184  58.792  1.00 47.82 LIG 0.16  HD
ATOM     41  C   ASP D   9      13.600   3.206  57.116  1.00 48.63 LIG 0.25  C 
ATOM     42 O    ASP D   9      14.166   2.439  56.341  1.00 48.10 LIG-0.27  OA
BRANCH 41 43
ATOM     43  CA  ASP D   9      12.199   3.684  56.839  1.00 49.27 LIG 0.28  C 
BRANCH 43 44
ATOM     44  N   ASP D   9      11.425   3.565  58.102  1.00 49.86 LIG-0.07  N 
ATOM     45 H2   ASP D   9      10.971   2.800  58.100  1.00 49.86 LIG 0.28  HD
ATOM     46 H3   ASP D   9      11.984   3.577  58.794  1.00 49.86 LIG 0.28  HD
ATOM     47 H1   ASP D   9      10.857   4.246  58.167  1.00 49.86 LIG 0.28  HD
ENDBRANCH 43 44
BRANCH 43 48
ATOM     48  CB  ASP D   9      12.256   5.134  56.379  1.00 50.02 LIG 0.15  C 
BRANCH 48 49
ATOM     49  CG  ASP D   9      12.865   5.286  55.017  1.00 50.84 LIG 0.17  C 
ATOM     50 OD1  ASP D   9      13.182   6.425  54.635  1.00 53.44 LIG-0.65  OA
ATOM     51 OD2  ASP D   9      13.093   4.315  54.260  1.00 53.75 LIG-0.65  OA
ENDBRANCH 48 49
ENDBRANCH 43 48
ENDBRANCH 41 43
ENDBRANCH 34 39
ENDBRANCH 31 34
ENDBRANCH 1 30
TORSDOF 20
ENDMDL
MODEL 3
USER: ADFR SOLUTION from run 71
USER: SCORE 17.611107 LL:  -5.224 LR: -13.967 RR:   0.000 FEB:  -8.001
USER: RMSD 6.302582
USER: SEED 70
USER: STATUS 1 or 2 clusters left
USER: GENES 22
USER: genes 0 Translation |==|  0.47579 0.36597 0.45069
USER: genes 1 Rotation |==|  0.21513 0.33994 0.13412 0.59675
USER: genes 2 Torsion [N]-CA--C-[N] |==|  0.50000
USER: genes 3 Torsion [C]-N--CA-[CB] |==|  0.41566
USER: genes 4 Torsion [N]-CA--C-[N] |==|  0.90838
USER: genes 5 Torsion [C]-N--CA-[C] |==|  0.12587
USER: genes 6 Torsion [N]-CA--CB-[CG1] |==|  0.17240
USER: genes 7 Torsion [CA]-CB--CG1-[CD1] |==|  0.71137
USER: genes 8 Torsion [N]-CA--C-[OXT] |==|  0.22426
USER: genes 9 Torsion [N]-CA--CB-[CG] |==|  0.44555
USER: genes 10 Torsion [CA]-CB--CG-[ND1] |==|  0.64698
USER: genes 11 Torsion [C]-CA--CB-[CG] |==|  0.19041
USER: genes 12 Torsion [CA]-CB--CG-[CD2] |==|  0.47290
USER: genes 13 Torsion [C]-CA--N-[C] |==|  0.54279
USER: genes 14 Torsion [N]-C--CA-[N] |==|  0.44963
USER: genes 15 Torsion [C]-CA--CB-[CG] |==|  0.21979
USER: genes 16 Torsion [CA]-CB--CG-[CD2] |==|  0.65422
USER: genes 17 Torsion [C]-CA--N-[C] |==|  0.80419
USER: genes 18 Torsion [N]-C--CA-[N] |==|  0.97399
USER: genes 19 Torsion [C]-CA--N-[H2] |==|  0.92681
USER: genes 20 Torsion [C]-CA--CB-[CG] |==|  0.75865
USER: genes 21 Torsion [CA]-CB--CG-[OD1] |==|  0.80579
ROOT
ATOM      1  CA  LEU D  11      17.704   2.919  61.031  1.00 47.89 LIG 0.18  C 
ENDROOT
BRANCH 1 2
ATOM      2  C   LEU D  11      17.662   2.543  59.555  1.00 48.14 LIG 0.24  C 
ATOM      3 O    LEU D  11      18.436   3.049  58.754  1.00 47.13 LIG-0.27  OA
ATOM      4  N   HIS D  12      16.721   1.676  59.197  1.00 49.28 LIG-0.35  N 
ATOM      5 H    HIS D  12      16.173   1.301  59.743  1.00 49.28 LIG 0.16  HD
BRANCH 4 6
ATOM      6  CA  HIS D  12      16.555   1.293  57.799  1.00 50.49 LIG 0.18  C 
BRANCH 6 7
ATOM      7  C   HIS D  12      15.638   2.259  57.052  1.00 51.38 LIG 0.24  C 
ATOM      8  N   ILE D  13      14.672   2.781  57.789  1.00 53.16 LIG-0.34  N 
ATOM      9 H    ILE D  13      14.567   2.557  58.613  1.00 53.16 LIG 0.16  HD
ATOM     10 O    HIS D  12      15.814   2.516  55.870  1.00 51.57 LIG-0.27  OA
BRANCH 8 11
ATOM     11  CA  ILE D  13      13.672   3.771  57.357  1.00 55.12 LIG 0.19  C 
BRANCH 11 12
ATOM     12  CB  ILE D  13      14.112   5.261  57.594  1.00 55.01 LIG 0.01  C 
ATOM     13  CG2 ILE D  13      14.330   5.588  59.083  1.00 56.15 LIG 0.01  C 
BRANCH 12 14
ATOM     14  CG1 ILE D  13      15.371   5.574  56.779  1.00 55.50 LIG 0.00  C 
ATOM     15  CD1 ILE D  13      16.678   5.622  57.616  1.00 55.45 LIG 0.01  C 
ENDBRANCH 12 14
ENDBRANCH 11 12
BRANCH 11 16
ATOM     16  C   ILE D  13      12.968   3.572  56.011  1.00 55.63 LIG 0.20  C 
ATOM     17 OXT  ILE D  13      12.018   2.778  55.968  1.00 55.86 LIG-0.65  OA
ATOM     18 O    ILE D  13      13.318   4.199  55.008  1.00 56.94 LIG-0.65  OA
ENDBRANCH 11 16
ENDBRANCH 8 11
ENDBRANCH 6 7
BRANCH 6 19
ATOM     19  CB  HIS D  12      16.026  -0.137  57.675  1.00 50.55 LIG 0.10  C 
BRANCH 19 20
ATOM     20  CG  HIS D  12      15.403  -0.437  56.348  1.00 49.61 LIG 0.05  A 
ATOM     21 ND1  HIS D  12      14.191  -0.947  56.026  1.00 49.92 LIG-0.25  NA
ATOM     22  CE1 HIS D  12      14.130  -1.010  54.656  1.00 49.12 LIG 0.21  A 
ATOM     23  NE2 HIS D  12      15.254  -0.534  54.154  1.00 48.62 LIG-0.36  N 
ATOM     24 HE2  HIS D  12      15.441  -0.463  53.317  1.00 48.62 LIG 0.17  HD
ATOM     25  CD2 HIS D  12      16.042  -0.185  55.154  1.00 48.49 LIG 0.12  A 
ENDBRANCH 19 20
ENDBRANCH 6 19
ENDBRANCH 4 6
ENDBRANCH 1 2
BRANCH 1 26
ATOM     26  CB  LEU D  11      16.349   3.513  61.398  1.00 47.69 LIG 0.04  C 
BRANCH 26 27
ATOM     27  CG  LEU D  11      15.113   2.605  61.419  1.00 48.05 LIG-0.02  C 
ATOM     28  CD1 LEU D  11      15.431   1.306  62.146  1.00 46.53 LIG 0.01  C 
ATOM     29  CD2 LEU D  11      13.903   3.278  62.023  1.00 50.43 LIG 0.01  C 
ENDBRANCH 26 27
ENDBRANCH 1 26
BRANCH 1 30
ATOM     30  N   LEU D  11      18.756   3.871  61.356  1.00 47.51 LIG-0.35  N 
ATOM     31  C   LEU D  10      19.160   4.103  62.606  1.00 47.80 LIG 0.24  C 
ATOM     32 O    LEU D  10      18.739   3.483  63.593  1.00 47.07 LIG-0.27  OA
ATOM     33 H    LEU D  11      19.090   4.267  60.670  1.00 47.51 LIG 0.16  HD
BRANCH 31 34
ATOM     34  CA  LEU D  10      20.194   5.211  62.766  1.00 47.63 LIG 0.18  C 
BRANCH 34 35
ATOM     35  CB  LEU D  10      21.566   4.760  62.273  1.00 47.29 LIG 0.04  C 
BRANCH 35 36
ATOM     36  CG  LEU D  10      21.723   4.803  60.749  1.00 46.92 LIG-0.02  C 
ATOM     37  CD2 LEU D  10      22.138   3.474  60.210  1.00 45.50 LIG 0.01  C 
ATOM     38  CD1 LEU D  10      22.729   5.864  60.308  1.00 46.83 LIG 0.01  C 
ENDBRANCH 35 36
ENDBRANCH 34 35
BRANCH 34 39
ATOM     39  N   LEU D  10      20.233   5.656  64.148  1.00 47.82 LIG-0.35  N 
ATOM     40 H    LEU D  10      20.945   5.437  64.579  1.00 47.82 LIG 0.16  HD
ATOM     41  C   ASP D   9      19.224   6.346  64.664  1.00 48.63 LIG 0.25  C 
ATOM     42 O    ASP D   9      18.210   6.635  64.032  1.00 48.10 LIG-0.27  OA
BRANCH 41 43
ATOM     43  CA  ASP D   9      19.376   6.762  66.104  1.00 49.27 LIG 0.28  C 
BRANCH 43 44
ATOM     44  N   ASP D   9      20.572   6.069  66.648  1.00 49.86 LIG-0.07  N 
ATOM     45 H2   ASP D   9      20.710   5.315  66.195  1.00 49.86 LIG 0.28  HD
ATOM     46 H3   ASP D   9      21.283   6.597  66.568  1.00 49.86 LIG 0.28  HD
ATOM     47 H1   ASP D   9      20.440   5.878  67.507  1.00 49.86 LIG 0.28  HD
ENDBRANCH 43 44
BRANCH 43 48
ATOM     48  CB  ASP D   9      19.557   8.272  66.163  1.00 50.02 LIG 0.15  C 
BRANCH 48 49
ATOM     49  CG  ASP D   9      20.990   8.689  66.013  1.00 50.84 LIG 0.17  C 
ATOM     50 OD1  ASP D   9      21.779   8.439  66.940  1.00 53.44 LIG-0.65  OA
ATOM     51 OD2  ASP D   9      21.432   9.253  64.986  1.00 53.75 LIG-0.65  OA
ENDBRANCH 48 49
ENDBRANCH 43 48
ENDBRANCH 41 43
ENDBRANCH 34 39
ENDBRANCH 31 34
ENDBRANCH 1 30
TORSDOF 20
ENDMDL
MODEL 4
USER: ADFR SOLUTION from run 16
USER: SCORE 16.374817 LL:  -4.131 LR: -13.764 RR:   0.000 FEB:  -7.798
USER: RMSD 6.776902
USER: SEED 489544
USER: STATUS no improvement in best 12 clusters for 5 generations
USER: GENES 22
USER: genes 0 Translation |==|  0.51174 0.37090 0.45257
USER: genes 1 Rotation |==|  0.19511 0.37490 0.23471 0.76648
USER: genes 2 Torsion [N]-CA--C-[N] |==|  0.48669
USER: genes 3 Torsion [C]-N--CA-[CB] |==|  0.50556
USER: genes 4 Torsion [N]-CA--C-[N] |==|  0.41306
USER: genes 5 Torsion [C]-N--CA-[C] |==|  0.65636
USER: genes 6 Torsion [N]-CA--CB-[CG1] |==|  0.88717
USER: genes 7 Torsion [CA]-CB--CG1-[CD1] |==|  0.28361
USER: genes 8 Torsion [N]-CA--C-[OXT] |==|  0.71747
USER: genes 9 Torsion [N]-CA--CB-[CG] |==|  0.55455
USER: genes 10 Torsion [CA]-CB--CG-[ND1] |==|  0.05432
USER: genes 11 Torsion [C]-CA--CB-[CG] |==|  0.25551
USER: genes 12 Torsion [CA]-CB--CG-[CD2] |==|  0.69923
USER: genes 13 Torsion [C]-CA--N-[C] |==|  0.75630
USER: genes 14 Torsion [N]-C--CA-[N] |==|  0.63935
USER: genes 15 Torsion [C]-CA--CB-[CG] |==|  0.27160
USER: genes 16 Torsion [CA]-CB--CG-[CD2] |==|  0.75973
USER: genes 17 Torsion [C]-CA--N-[C] |==|  0.63746
USER: genes 18 Torsion [N]-C--CA-[N] |==|  0.07277
USER: genes 19 Torsion [C]-CA--N-[H2] |==|  0.67547
USER: genes 20 Torsion [C]-CA--CB-[CG] |==|  0.28166
USER: genes 21 Torsion [CA]-CB--CG-[OD1] |==|  0.14749
ROOT
ATOM      1  CA  LEU D  11      18.782   3.067  61.087  1.00 47.89 LIG 0.18  C 
ENDROOT
BRANCH 1 2
ATOM      2  C   LEU D  11      18.038   3.016  59.759  1.00 48.14 LIG 0.24  C 
ATOM      3 O    LEU D  11      17.914   4.018  59.068  1.00 47.13 LIG-0.27  OA
ATOM      4  N   HIS D  12      17.508   1.844  59.428  1.00 49.28 LIG-0.35  N 
ATOM      5 H    HIS D  12      17.589   1.125  59.893  1.00 49.28 LIG 0.16  HD
BRANCH 4 6
ATOM      6  CA  HIS D  12      16.723   1.700  58.207  1.00 50.49 LIG 0.18  C 
BRANCH 6 7
ATOM      7  C   HIS D  12      15.580   2.711  58.144  1.00 51.38 LIG 0.24  C 
ATOM      8  N   ILE D  13      15.257   3.100  56.922  1.00 53.16 LIG-0.34  N 
ATOM      9 H    ILE D  13      15.689   2.818  56.234  1.00 53.16 LIG 0.16  HD
ATOM     10 O    HIS D  12      15.023   3.103  59.159  1.00 51.57 LIG-0.27  OA
BRANCH 8 11
ATOM     11  CA  ILE D  13      14.172   4.024  56.550  1.00 55.12 LIG 0.19  C 
BRANCH 11 12
ATOM     12  CB  ILE D  13      14.660   5.490  56.262  1.00 55.01 LIG 0.01  C 
ATOM     13  CG2 ILE D  13      13.505   6.509  56.243  1.00 56.15 LIG 0.01  C 
BRANCH 12 14
ATOM     14  CG1 ILE D  13      15.728   5.899  57.281  1.00 55.50 LIG 0.00  C 
ATOM     15  CD1 ILE D  13      17.182   5.842  56.740  1.00 55.45 LIG 0.01  C 
ENDBRANCH 12 14
ENDBRANCH 11 12
BRANCH 11 16
ATOM     16  C   ILE D  13      13.106   3.551  55.558  1.00 55.63 LIG 0.20  C 
ATOM     17 OXT  ILE D  13      13.197   3.940  54.385  1.00 55.86 LIG-0.65  OA
ATOM     18 O    ILE D  13      12.203   2.787  55.906  1.00 56.94 LIG-0.65  OA
ENDBRANCH 11 16
ENDBRANCH 8 11
ENDBRANCH 6 7
BRANCH 6 19
ATOM     19  CB  HIS D  12      16.176   0.278  58.063  1.00 50.55 LIG 0.10  C 
BRANCH 19 20
ATOM     20  CG  HIS D  12      15.776  -0.076  56.666  1.00 49.61 LIG 0.05  A 
ATOM     21 ND1  HIS D  12      16.112   0.471  55.474  1.00 49.92 LIG-0.25  NA
ATOM     22  CE1 HIS D  12      15.462  -0.247  54.502  1.00 49.12 LIG 0.21  A 
ATOM     23  NE2 HIS D  12      14.771  -1.216  55.072  1.00 48.62 LIG-0.36  N 
ATOM     24 HE2  HIS D  12      14.293  -1.803  54.663  1.00 48.62 LIG 0.17  HD
ATOM     25  CD2 HIS D  12      14.939  -1.133  56.379  1.00 48.49 LIG 0.12  A 
ENDBRANCH 19 20
ENDBRANCH 6 19
ENDBRANCH 4 6
ENDBRANCH 1 2
BRANCH 1 26
ATOM     26  CB  LEU D  11      17.776   2.781  62.196  1.00 47.69 LIG 0.04  C 
BRANCH 26 27
ATOM     27  CG  LEU D  11      17.579   1.338  62.675  1.00 48.05 LIG-0.02  C 
ATOM     28  CD1 LEU D  11      17.735   1.262  64.187  1.00 46.53 LIG 0.01  C 
ATOM     29  CD2 LEU D  11      16.256   0.753  62.240  1.00 50.43 LIG 0.01  C 
ENDBRANCH 26 27
ENDBRANCH 1 26
BRANCH 1 30
ATOM     30  N   LEU D  11      19.432   4.345  61.338  1.00 47.51 LIG-0.35  N 
ATOM     31  C   LEU D  10      20.667   4.624  60.919  1.00 47.80 LIG 0.24  C 
ATOM     32 O    LEU D  10      21.344   3.861  60.216  1.00 47.07 LIG-0.27  OA
ATOM     33 H    LEU D  11      18.947   4.901  61.780  1.00 47.51 LIG 0.16  HD
BRANCH 31 34
ATOM     34  CA  LEU D  10      21.224   5.969  61.367  1.00 47.63 LIG 0.18  C 
BRANCH 34 35
ATOM     35  CB  LEU D  10      20.171   6.781  62.114  1.00 47.29 LIG 0.04  C 
BRANCH 35 36
ATOM     36  CG  LEU D  10      20.276   6.683  63.640  1.00 46.92 LIG-0.02  C 
ATOM     37  CD2 LEU D  10      19.528   5.501  64.160  1.00 45.50 LIG 0.01  C 
ATOM     38  CD1 LEU D  10      19.769   7.947  64.331  1.00 46.83 LIG 0.01  C 
ENDBRANCH 35 36
ENDBRANCH 34 35
BRANCH 34 39
ATOM     39  N   LEU D  10      21.756   6.691  60.224  1.00 47.82 LIG-0.35  N 
ATOM     40 H    LEU D  10      21.228   6.737  59.547  1.00 47.82 LIG 0.16  HD
ATOM     41  C   ASP D   9      22.971   7.224  60.268  1.00 48.63 LIG 0.25  C 
ATOM     42 O    ASP D   9      23.713   7.133  61.244  1.00 48.10 LIG-0.27  OA
BRANCH 41 43
ATOM     43  CA  ASP D   9      23.416   7.956  59.030  1.00 49.27 LIG 0.28  C 
BRANCH 43 44
ATOM     44  N   ASP D   9      22.197   8.438  58.330  1.00 49.86 LIG-0.07  N 
ATOM     45 H2   ASP D   9      22.140   8.049  57.532  1.00 49.86 LIG 0.28  HD
ATOM     46 H3   ASP D   9      21.478   8.234  58.812  1.00 49.86 LIG 0.28  HD
ATOM     47 H1   ASP D   9      22.244   9.321  58.227  1.00 49.86 LIG 0.28  HD
ENDBRANCH 43 44
BRANCH 43 48
ATOM     48  CB  ASP D   9      24.298   9.127  59.441  1.00 50.02 LIG 0.15  C 
BRANCH 48 49
ATOM     49  CG  ASP D   9      25.760   8.843  59.256  1.00 50.84 LIG 0.17  C 
ATOM     50 OD1  ASP D   9      26.149   8.449  58.144  1.00 53.44 LIG-0.65  OA
ATOM     51 OD2  ASP D   9      26.606   9.011  60.163  1.00 53.75 LIG-0.65  OA
ENDBRANCH 48 49
ENDBRANCH 43 48
ENDBRANCH 41 43
ENDBRANCH 34 39
ENDBRANCH 31 34
ENDBRANCH 1 30
TORSDOF 20
ENDMDL
MODEL 5
USER: ADFR SOLUTION from run 53
USER: SCORE 16.136199 LL:  -5.036 LR: -13.702 RR:   0.000 FEB:  -7.736
USER: RMSD 5.335253
USER: SEED 52
USER: STATUS no improvement in best 11 clusters for 5 generations
USER: GENES 22
USER: genes 0 Translation |==|  0.49742 0.36826 0.42462
USER: genes 1 Rotation |==|  0.23174 0.46114 0.17707 0.76878
USER: genes 2 Torsion [N]-CA--C-[N] |==|  0.80556
USER: genes 3 Torsion [C]-N--CA-[CB] |==|  0.85919
USER: genes 4 Torsion [N]-CA--C-[N] |==|  0.74048
USER: genes 5 Torsion [C]-N--CA-[C] |==|  0.11013
USER: genes 6 Torsion [N]-CA--CB-[CG1] |==|  0.98960
USER: genes 7 Torsion [CA]-CB--CG1-[CD1] |==|  0.48795
USER: genes 8 Torsion [N]-CA--C-[OXT] |==|  0.69755
USER: genes 9 Torsion [N]-CA--CB-[CG] |==|  0.54885
USER: genes 10 Torsion [CA]-CB--CG-[ND1] |==|  0.94987
USER: genes 11 Torsion [C]-CA--CB-[CG] |==|  0.33548
USER: genes 12 Torsion [CA]-CB--CG-[CD2] |==|  0.31518
USER: genes 13 Torsion [C]-CA--N-[C] |==|  0.19093
USER: genes 14 Torsion [N]-C--CA-[N] |==|  0.62049
USER: genes 15 Torsion [C]-CA--CB-[CG] |==|  0.22158
USER: genes 16 Torsion [CA]-CB--CG-[CD2] |==|  0.63610
USER: genes 17 Torsion [C]-CA--N-[C] |==|  0.18622
USER: genes 18 Torsion [N]-C--CA-[N] |==|  0.65234
USER: genes 19 Torsion [C]-CA--N-[H2] |==|  0.25507
USER: genes 20 Torsion [C]-CA--CB-[CG] |==|  0.76508
USER: genes 21 Torsion [CA]-CB--CG-[OD1] |==|  0.35121
ROOT
ATOM      1  CA  LEU D  11      18.353   2.988  60.249  1.00 47.89 LIG 0.18  C 
ENDROOT
BRANCH 1 2
ATOM      2  C   LEU D  11      17.730   3.571  58.987  1.00 48.14 LIG 0.24  C 
ATOM      3 O    LEU D  11      18.031   3.143  57.881  1.00 47.13 LIG-0.27  OA
ATOM      4  N   HIS D  12      16.888   4.583  59.162  1.00 49.28 LIG-0.35  N 
ATOM      5 H    HIS D  12      16.655   4.895  59.929  1.00 49.28 LIG 0.16  HD
BRANCH 4 6
ATOM      6  CA  HIS D  12      16.282   5.254  58.016  1.00 50.49 LIG 0.18  C 
BRANCH 6 7
ATOM      7  C   HIS D  12      15.214   4.389  57.352  1.00 51.38 LIG 0.24  C 
ATOM      8  N   ILE D  13      15.652   3.653  56.344  1.00 53.16 LIG-0.34  N 
ATOM      9 H    ILE D  13      16.469   3.696  56.080  1.00 53.16 LIG 0.16  HD
ATOM     10 O    HIS D  12      14.057   4.391  57.749  1.00 51.57 LIG-0.27  OA
BRANCH 8 11
ATOM     11  CA  ILE D  13      14.867   2.693  55.549  1.00 55.12 LIG 0.19  C 
BRANCH 11 12
ATOM     12  CB  ILE D  13      15.015   1.204  56.029  1.00 55.01 LIG 0.01  C 
ATOM     13  CG2 ILE D  13      15.394   0.244  54.886  1.00 56.15 LIG 0.01  C 
BRANCH 12 14
ATOM     14  CG1 ILE D  13      16.032   1.117  57.171  1.00 55.50 LIG 0.00  C 
ATOM     15  CD1 ILE D  13      16.177  -0.298  57.792  1.00 55.45 LIG 0.01  C 
ENDBRANCH 12 14
ENDBRANCH 11 12
BRANCH 11 16
ATOM     16  C   ILE D  13      13.427   3.051  55.170  1.00 55.63 LIG 0.20  C 
ATOM     17 OXT  ILE D  13      12.512   2.431  55.731  1.00 55.86 LIG-0.65  OA
ATOM     18 O    ILE D  13      13.184   3.943  54.354  1.00 56.94 LIG-0.65  OA
ENDBRANCH 11 16
ENDBRANCH 8 11
ENDBRANCH 6 7
BRANCH 6 19
ATOM     19  CB  HIS D  12      17.340   5.665  56.990  1.00 50.55 LIG 0.10  C 
BRANCH 19 20
ATOM     20  CG  HIS D  12      16.869   6.699  56.018  1.00 49.61 LIG 0.05  A 
ATOM     21 ND1  HIS D  12      15.622   7.100  55.675  1.00 49.92 LIG-0.25  NA
ATOM     22  CE1 HIS D  12      15.760   8.089  54.733  1.00 49.12 LIG 0.21  A 
ATOM     23  NE2 HIS D  12      17.045   8.305  54.522  1.00 48.62 LIG-0.36  N 
ATOM     24 HE2  HIS D  12      17.376   8.888  53.982  1.00 48.62 LIG 0.17  HD
ATOM     25  CD2 HIS D  12      17.737   7.476  55.282  1.00 48.49 LIG 0.12  A 
ENDBRANCH 19 20
ENDBRANCH 6 19
ENDBRANCH 4 6
ENDBRANCH 1 2
BRANCH 1 26
ATOM     26  CB  LEU D  11      17.222   2.675  61.223  1.00 47.69 LIG 0.04  C 
BRANCH 26 27
ATOM     27  CG  LEU D  11      17.033   1.234  61.713  1.00 48.05 LIG-0.02  C 
ATOM     28  CD1 LEU D  11      17.896   0.285  60.894  1.00 46.53 LIG 0.01  C 
ATOM     29  CD2 LEU D  11      17.311   1.077  63.189  1.00 50.43 LIG 0.01  C 
ENDBRANCH 26 27
ENDBRANCH 1 26
BRANCH 1 30
ATOM     30  N   LEU D  11      19.311   3.878  60.886  1.00 47.51 LIG-0.35  N 
ATOM     31  C   LEU D  10      18.956   5.015  61.486  1.00 47.80 LIG 0.24  C 
ATOM     32 O    LEU D  10      17.780   5.383  61.624  1.00 47.07 LIG-0.27  OA
ATOM     33 H    LEU D  11      20.125   3.603  60.841  1.00 47.51 LIG 0.16  HD
BRANCH 31 34
ATOM     34  CA  LEU D  10      20.105   5.872  62.002  1.00 47.63 LIG 0.18  C 
BRANCH 34 35
ATOM     35  CB  LEU D  10      21.420   5.100  61.984  1.00 47.29 LIG 0.04  C 
BRANCH 35 36
ATOM     36  CG  LEU D  10      22.082   5.031  60.603  1.00 46.92 LIG-0.02  C 
ATOM     37  CD2 LEU D  10      22.478   3.634  60.261  1.00 45.50 LIG 0.01  C 
ATOM     38  CD1 LEU D  10      23.304   5.942  60.508  1.00 46.83 LIG 0.01  C 
ENDBRANCH 35 36
ENDBRANCH 34 35
BRANCH 34 39
ATOM     39  N   LEU D  10      19.790   6.376  63.328  1.00 47.82 LIG-0.35  N 
ATOM     40 H    LEU D  10      19.676   7.228  63.374  1.00 47.82 LIG 0.16  HD
ATOM     41  C   ASP D   9      19.694   5.547  64.359  1.00 48.63 LIG 0.25  C 
ATOM     42 O    ASP D   9      19.875   4.335  64.271  1.00 48.10 LIG-0.27  OA
BRANCH 41 43
ATOM     43  CA  ASP D   9      19.356   6.179  65.684  1.00 49.27 LIG 0.28  C 
BRANCH 43 44
ATOM     44  N   ASP D   9      20.407   5.777  66.655  1.00 49.86 LIG-0.07  N 
ATOM     45 H2   ASP D   9      21.054   6.387  66.661  1.00 49.86 LIG 0.28  HD
ATOM     46 H3   ASP D   9      20.051   5.714  67.468  1.00 49.86 LIG 0.28  HD
ATOM     47 H1   ASP D   9      20.744   4.989  66.418  1.00 49.86 LIG 0.28  HD
ENDBRANCH 43 44
BRANCH 43 48
ATOM     48  CB  ASP D   9      19.331   7.692  65.516  1.00 50.02 LIG 0.15  C 
BRANCH 48 49
ATOM     49  CG  ASP D   9      20.692   8.310  65.640  1.00 50.84 LIG 0.17  C 
ATOM     50 OD1  ASP D   9      21.093   9.047  64.723  1.00 53.44 LIG-0.65  OA
ATOM     51 OD2  ASP D   9      21.430   8.139  66.637  1.00 53.75 LIG-0.65  OA
ENDBRANCH 48 49
ENDBRANCH 43 48
ENDBRANCH 41 43
ENDBRANCH 34 39
ENDBRANCH 31 34
ENDBRANCH 1 30
TORSDOF 20
ENDMDL
MODEL 6
USER: ADFR SOLUTION from run 66
USER: SCORE 17.070951 LL:  -5.331 LR: -13.689 RR:   0.000 FEB:  -7.723
USER: RMSD 5.333808
USER: SEED 65
USER: STATUS no improvement in best 12 clusters for 5 generations
USER: GENES 22
USER: genes 0 Translation |==|  0.49633 0.36103 0.42801
USER: genes 1 Rotation |==|  0.23010 0.48576 0.17103 0.76216
USER: genes 2 Torsion [N]-CA--C-[N] |==|  0.77778
USER: genes 3 Torsion [C]-N--CA-[CB] |==|  0.74291
USER: genes 4 Torsion [N]-CA--C-[N] |==|  0.22324
USER: genes 5 Torsion [C]-N--CA-[C] |==|  0.67502
USER: genes 6 Torsion [N]-CA--CB-[CG1] |==|  0.96152
USER: genes 7 Torsion [CA]-CB--CG1-[CD1] |==|  0.48413
USER: genes 8 Torsion [N]-CA--C-[OXT] |==|  0.20984
USER: genes 9 Torsion [N]-CA--CB-[CG] |==|  0.90306
USER: genes 10 Torsion [CA]-CB--CG-[ND1] |==|  0.32917
USER: genes 11 Torsion [C]-CA--CB-[CG] |==|  0.40614
USER: genes 12 Torsion [CA]-CB--CG-[CD2] |==|  0.62672
USER: genes 13 Torsion [C]-CA--N-[C] |==|  0.18570
USER: genes 14 Torsion [N]-C--CA-[N] |==|  0.60000
USER: genes 15 Torsion [C]-CA--CB-[CG] |==|  0.28118
USER: genes 16 Torsion [CA]-CB--CG-[CD2] |==|  0.09912
USER: genes 17 Torsion [C]-CA--N-[C] |==|  0.15642
USER: genes 18 Torsion [N]-C--CA-[N] |==|  0.70755
USER: genes 19 Torsion [C]-CA--N-[H2] |==|  0.27535
USER: genes 20 Torsion [C]-CA--CB-[CG] |==|  0.74219
USER: genes 21 Torsion [CA]-CB--CG-[OD1] |==|  0.36078
ROOT
ATOM      1  CA  LEU D  11      18.320   2.771  60.350  1.00 47.89 LIG 0.18  C 
ENDROOT
BRANCH 1 2
ATOM      2  C   LEU D  11      17.699   3.466  59.145  1.00 48.14 LIG 0.24  C 
ATOM      3 O    LEU D  11      18.055   3.190  58.007  1.00 47.13 LIG-0.27  OA
ATOM      4  N   HIS D  12      16.793   4.400  59.409  1.00 49.28 LIG-0.35  N 
ATOM      5 H    HIS D  12      16.521   4.604  60.199  1.00 49.28 LIG 0.16  HD
BRANCH 4 6
ATOM      6  CA  HIS D  12      16.180   5.169  58.331  1.00 50.49 LIG 0.18  C 
BRANCH 6 7
ATOM      7  C   HIS D  12      16.071   4.353  57.044  1.00 51.38 LIG 0.24  C 
ATOM      8  N   ILE D  13      15.046   3.517  57.008  1.00 53.16 LIG-0.34  N 
ATOM      9 H    ILE D  13      14.514   3.434  57.679  1.00 53.16 LIG 0.16  HD
ATOM     10 O    HIS D  12      16.877   4.491  56.135  1.00 51.57 LIG-0.27  OA
BRANCH 8 11
ATOM     11  CA  ILE D  13      14.663   2.643  55.888  1.00 55.12 LIG 0.19  C 
BRANCH 11 12
ATOM     12  CB  ILE D  13      14.977   1.123  56.134  1.00 55.01 LIG 0.01  C 
ATOM     13  CG2 ILE D  13      15.562   0.426  54.892  1.00 56.15 LIG 0.01  C 
BRANCH 12 14
ATOM     14  CG1 ILE D  13      15.915   0.968  57.336  1.00 55.50 LIG 0.00  C 
ATOM     15  CD1 ILE D  13      16.180  -0.503  57.754  1.00 55.45 LIG 0.01  C 
ENDBRANCH 12 14
ENDBRANCH 11 12
BRANCH 11 16
ATOM     16  C   ILE D  13      13.308   2.862  55.209  1.00 55.63 LIG 0.20  C 
ATOM     17 OXT  ILE D  13      13.196   3.829  54.442  1.00 55.86 LIG-0.65  OA
ATOM     18 O    ILE D  13      12.366   2.089  55.398  1.00 56.94 LIG-0.65  OA
ENDBRANCH 11 16
ENDBRANCH 8 11
ENDBRANCH 6 7
BRANCH 6 19
ATOM     19  CB  HIS D  12      16.948   6.466  58.068  1.00 50.55 LIG 0.10  C 
BRANCH 19 20
ATOM     20  CG  HIS D  12      17.525   7.086  59.301  1.00 49.61 LIG 0.05  A 
ATOM     21 ND1  HIS D  12      18.805   7.349  59.654  1.00 49.92 LIG-0.25  NA
ATOM     22  CE1 HIS D  12      18.771   7.931  60.896  1.00 49.12 LIG 0.21  A 
ATOM     23  NE2 HIS D  12      17.514   8.045  61.284  1.00 48.62 LIG-0.36  N 
ATOM     24 HE2  HIS D  12      17.245   8.392  62.023  1.00 48.62 LIG 0.17  HD
ATOM     25  CD2 HIS D  12      16.741   7.538  60.341  1.00 48.49 LIG 0.12  A 
ENDBRANCH 19 20
ENDBRANCH 6 19
ENDBRANCH 4 6
ENDBRANCH 1 2
BRANCH 1 26
ATOM     26  CB  LEU D  11      17.207   2.505  61.358  1.00 47.69 LIG 0.04  C 
BRANCH 26 27
ATOM     27  CG  LEU D  11      17.269   1.241  62.226  1.00 48.05 LIG-0.02  C 
ATOM     28  CD1 LEU D  11      17.769   1.589  63.621  1.00 46.53 LIG 0.01  C 
ATOM     29  CD2 LEU D  11      15.948   0.513  62.292  1.00 50.43 LIG 0.01  C 
ENDBRANCH 26 27
ENDBRANCH 1 26
BRANCH 1 30
ATOM     30  N   LEU D  11      19.375   3.546  60.986  1.00 47.51 LIG-0.35  N 
ATOM     31  C   LEU D  10      19.146   4.697  61.620  1.00 47.80 LIG 0.24  C 
ATOM     32 O    LEU D  10      18.016   5.173  61.796  1.00 47.07 LIG-0.27  OA
ATOM     33 H    LEU D  11      20.157   3.195  60.913  1.00 47.51 LIG 0.16  HD
BRANCH 31 34
ATOM     34  CA  LEU D  10      20.384   5.424  62.128  1.00 47.63 LIG 0.18  C 
BRANCH 34 35
ATOM     35  CB  LEU D  10      21.576   4.478  62.231  1.00 47.29 LIG 0.04  C 
BRANCH 35 36
ATOM     36  CG  LEU D  10      22.570   4.601  61.070  1.00 46.92 LIG-0.02  C 
ATOM     37  CD2 LEU D  10      22.692   6.015  60.609  1.00 45.50 LIG 0.01  C 
ATOM     38  CD1 LEU D  10      22.180   3.716  59.888  1.00 46.83 LIG 0.01  C 
ENDBRANCH 35 36
ENDBRANCH 34 35
BRANCH 34 39
ATOM     39  N   LEU D  10      20.094   6.070  63.397  1.00 47.82 LIG-0.35  N 
ATOM     40 H    LEU D  10      20.241   6.918  63.415  1.00 47.82 LIG 0.16  HD
ATOM     41  C   ASP D   9      19.637   5.365  64.424  1.00 48.63 LIG 0.25  C 
ATOM     42 O    ASP D   9      19.448   4.151  64.379  1.00 48.10 LIG-0.27  OA
BRANCH 41 43
ATOM     43  CA  ASP D   9      19.363   6.139  65.687  1.00 49.27 LIG 0.28  C 
BRANCH 43 44
ATOM     44  N   ASP D   9      20.453   5.831  66.648  1.00 49.86 LIG-0.07  N 
ATOM     45 H2   ASP D   9      21.055   6.486  66.635  1.00 49.86 LIG 0.28  HD
ATOM     46 H3   ASP D   9      20.114   5.756  67.468  1.00 49.86 LIG 0.28  HD
ATOM     47 H1   ASP D   9      20.845   5.065  66.418  1.00 49.86 LIG 0.28  HD
ENDBRANCH 43 44
BRANCH 43 48
ATOM     48  CB  ASP D   9      19.343   7.625  65.358  1.00 50.02 LIG 0.15  C 
BRANCH 48 49
ATOM     49  CG  ASP D   9      20.680   8.278  65.547  1.00 50.84 LIG 0.17  C 
ATOM     50 OD1  ASP D   9      21.132   8.976  64.623  1.00 53.44 LIG-0.65  OA
ATOM     51 OD2  ASP D   9      21.347   8.174  66.601  1.00 53.75 LIG-0.65  OA
ENDBRANCH 48 49
ENDBRANCH 43 48
ENDBRANCH 41 43
ENDBRANCH 34 39
ENDBRANCH 31 34
ENDBRANCH 1 30
TORSDOF 20
ENDMDL
MODEL 7
USER: ADFR SOLUTION from run 78
USER: SCORE 15.843135 LL:  -4.018 LR: -13.648 RR:   0.000 FEB:  -7.682
USER: RMSD 6.174460
USER: SEED 77
USER: STATUS no improvement in best 3 clusters for 5 generations
USER: GENES 22
USER: genes 0 Translation |==|  0.50972 0.37080 0.44626
USER: genes 1 Rotation |==|  0.18144 0.47527 0.22563 0.76949
USER: genes 2 Torsion [N]-CA--C-[N] |==|  0.56665
USER: genes 3 Torsion [C]-N--CA-[CB] |==|  0.84901
USER: genes 4 Torsion [N]-CA--C-[N] |==|  0.41052
USER: genes 5 Torsion [C]-N--CA-[C] |==|  0.63360
USER: genes 6 Torsion [N]-CA--CB-[CG1] |==|  0.90232
USER: genes 7 Torsion [CA]-CB--CG1-[CD1] |==|  0.34790
USER: genes 8 Torsion [N]-CA--C-[OXT] |==|  0.06557
USER: genes 9 Torsion [N]-CA--CB-[CG] |==|  0.32114
USER: genes 10 Torsion [CA]-CB--CG-[ND1] |==|  0.79798
USER: genes 11 Torsion [C]-CA--CB-[CG] |==|  0.28955
USER: genes 12 Torsion [CA]-CB--CG-[CD2] |==|  0.69981
USER: genes 13 Torsion [C]-CA--N-[C] |==|  0.73457
USER: genes 14 Torsion [N]-C--CA-[N] |==|  0.70273
USER: genes 15 Torsion [C]-CA--CB-[CG] |==|  0.76128
USER: genes 16 Torsion [CA]-CB--CG-[CD2] |==|  0.70818
USER: genes 17 Torsion [C]-CA--N-[C] |==|  0.55015
USER: genes 18 Torsion [N]-C--CA-[N] |==|  0.10461
USER: genes 19 Torsion [C]-CA--N-[H2] |==|  0.62296
USER: genes 20 Torsion [C]-CA--CB-[CG] |==|  0.23494
USER: genes 21 Torsion [CA]-CB--CG-[OD1] |==|  0.14056
ROOT
ATOM      1  CA  LEU D  11      18.721   3.064  60.898  1.00 47.89 LIG 0.18  C 
ENDROOT
BRANCH 1 2
ATOM      2  C   LEU D  11      17.753   3.498  59.805  1.00 48.14 LIG 0.24  C 
ATOM      3 O    LEU D  11      18.067   4.356  58.991  1.00 47.13 LIG-0.27  OA
ATOM      4  N   HIS D  12      16.556   2.923  59.819  1.00 49.28 LIG-0.35  N 
ATOM      5 H    HIS D  12      16.317   2.312  60.375  1.00 49.28 LIG 0.16  HD
BRANCH 4 6
ATOM      6  CA  HIS D  12      15.533   3.310  58.854  1.00 50.49 LIG 0.18  C 
BRANCH 6 7
ATOM      7  C   HIS D  12      15.890   2.860  57.438  1.00 51.38 LIG 0.24  C 
ATOM      8  N   ILE D  13      14.850   2.553  56.681  1.00 53.16 LIG-0.34  N 
ATOM      9 H    ILE D  13      14.048   2.581  56.989  1.00 53.16 LIG 0.16  HD
ATOM     10 O    HIS D  12      17.052   2.808  57.063  1.00 51.57 LIG-0.27  OA
BRANCH 8 11
ATOM     11  CA  ILE D  13      14.883   2.137  55.269  1.00 55.12 LIG 0.19  C 
BRANCH 11 12
ATOM     12  CB  ILE D  13      14.961   0.580  55.069  1.00 55.01 LIG 0.01  C 
ATOM     13  CG2 ILE D  13      15.492   0.183  53.679  1.00 56.15 LIG 0.01  C 
BRANCH 12 14
ATOM     14  CG1 ILE D  13      15.812  -0.050  56.176  1.00 55.50 LIG 0.00  C 
ATOM     15  CD1 ILE D  13      15.099  -1.182  56.964  1.00 55.45 LIG 0.01  C 
ENDBRANCH 12 14
ENDBRANCH 11 12
BRANCH 11 16
ATOM     16  C   ILE D  13      13.930   2.812  54.277  1.00 55.63 LIG 0.20  C 
ATOM     17 OXT  ILE D  13      13.505   3.940  54.562  1.00 55.86 LIG-0.65  OA
ATOM     18 O    ILE D  13      13.616   2.263  53.218  1.00 56.94 LIG-0.65  OA
ENDBRANCH 11 16
ENDBRANCH 8 11
ENDBRANCH 6 7
BRANCH 6 19
ATOM     19  CB  HIS D  12      15.287   4.820  58.880  1.00 50.55 LIG 0.10  C 
BRANCH 19 20
ATOM     20  CG  HIS D  12      15.653   5.513  57.607  1.00 49.61 LIG 0.05  A 
ATOM     21 ND1  HIS D  12      16.857   5.804  57.062  1.00 49.92 LIG-0.25  NA
ATOM     22  CE1 HIS D  12      16.619   6.449  55.874  1.00 49.12 LIG 0.21  A 
ATOM     23  NE2 HIS D  12      15.315   6.530  55.682  1.00 48.62 LIG-0.36  N 
ATOM     24 HE2  HIS D  12      14.927   6.882  55.000  1.00 48.62 LIG 0.17  HD
ATOM     25  CD2 HIS D  12      14.708   5.977  56.716  1.00 48.49 LIG 0.12  A 
ENDBRANCH 19 20
ENDBRANCH 6 19
ENDBRANCH 4 6
ENDBRANCH 1 2
BRANCH 1 26
ATOM     26  CB  LEU D  11      17.908   2.788  62.157  1.00 47.69 LIG 0.04  C 
BRANCH 26 27
ATOM     27  CG  LEU D  11      17.640   1.336  62.573  1.00 48.05 LIG-0.02  C 
ATOM     28  CD1 LEU D  11      18.055   1.122  64.022  1.00 46.53 LIG 0.01  C 
ATOM     29  CD2 LEU D  11      16.205   0.922  62.357  1.00 50.43 LIG 0.01  C 
ENDBRANCH 26 27
ENDBRANCH 1 26
BRANCH 1 30
ATOM     30  N   LEU D  11      19.747   4.054  61.189  1.00 47.51 LIG-0.35  N 
ATOM     31  C   LEU D  10      20.962   4.021  60.640  1.00 47.80 LIG 0.24  C 
ATOM     32 O    LEU D  10      21.307   3.199  59.779  1.00 47.07 LIG-0.27  OA
ATOM     33 H    LEU D  11      19.498   4.660  61.747  1.00 47.51 LIG 0.16  HD
BRANCH 31 34
ATOM     34  CA  LEU D  10      21.940   5.074  61.145  1.00 47.63 LIG 0.18  C 
BRANCH 34 35
ATOM     35  CB  LEU D  10      21.471   5.672  62.468  1.00 47.29 LIG 0.04  C 
BRANCH 35 36
ATOM     36  CG  LEU D  10      20.497   6.845  62.309  1.00 46.92 LIG-0.02  C 
ATOM     37  CD2 LEU D  10      21.166   8.148  62.591  1.00 45.50 LIG 0.01  C 
ATOM     38  CD1 LEU D  10      19.274   6.698  63.212  1.00 46.83 LIG 0.01  C 
ENDBRANCH 35 36
ENDBRANCH 34 35
BRANCH 34 39
ATOM     39  N   LEU D  10      22.139   6.094  60.129  1.00 47.82 LIG-0.35  N 
ATOM     40 H    LEU D  10      21.535   6.119  59.518  1.00 47.82 LIG 0.16  HD
ATOM     41  C   ASP D   9      23.190   6.903  60.183  1.00 48.63 LIG 0.25  C 
ATOM     42 O    ASP D   9      24.048   6.838  61.059  1.00 48.10 LIG-0.27  OA
BRANCH 41 43
ATOM     43  CA  ASP D   9      23.291   7.927  59.082  1.00 49.27 LIG 0.28  C 
BRANCH 43 44
ATOM     44  N   ASP D   9      21.915   8.402  58.782  1.00 49.86 LIG-0.07  N 
ATOM     45 H2   ASP D   9      21.800   8.440  57.901  1.00 49.86 LIG 0.28  HD
ATOM     46 H3   ASP D   9      21.323   7.839  59.135  1.00 49.86 LIG 0.28  HD
ATOM     47 H1   ASP D   9      21.798   9.212  59.132  1.00 49.86 LIG 0.28  HD
ENDBRANCH 43 44
BRANCH 43 48
ATOM     48  CB  ASP D   9      24.164   9.078  59.560  1.00 50.02 LIG 0.15  C 
BRANCH 48 49
ATOM     49  CG  ASP D   9      25.628   8.815  59.363  1.00 50.84 LIG 0.17  C 
ATOM     50 OD1  ASP D   9      26.016   8.441  58.244  1.00 53.44 LIG-0.65  OA
ATOM     51 OD2  ASP D   9      26.478   8.980  60.268  1.00 53.75 LIG-0.65  OA
ENDBRANCH 48 49
ENDBRANCH 43 48
ENDBRANCH 41 43
ENDBRANCH 34 39
ENDBRANCH 31 34
ENDBRANCH 1 30
TORSDOF 20
ENDMDL
MODEL 8
USER: ADFR SOLUTION from run 1
USER: SCORE 17.404993 LL:  -4.899 LR: -13.543 RR:   0.000 FEB:  -7.577
USER: RMSD 6.537994
USER: SEED 102651
USER: STATUS no improvement in best 10 clusters for 5 generations
USER: GENES 22
USER: genes 0 Translation |==|  0.49420 0.35078 0.45862
USER: genes 1 Rotation |==|  0.14511 0.39894 0.29514 0.76809
USER: genes 2 Torsion [N]-CA--C-[N] |==|  0.20002
USER: genes 3 Torsion [C]-N--CA-[CB] |==|  0.80992
USER: genes 4 Torsion [N]-CA--C-[N] |==|  0.26734
USER: genes 5 Torsion [C]-N--CA-[C] |==|  0.70883
USER: genes 6 Torsion [N]-CA--CB-[CG1] |==|  0.03745
USER: genes 7 Torsion [CA]-CB--CG1-[CD1] |==|  0.75469
USER: genes 8 Torsion [N]-CA--C-[OXT] |==|  0.03099
USER: genes 9 Torsion [N]-CA--CB-[CG] |==|  0.57573
USER: genes 10 Torsion [CA]-CB--CG-[ND1] |==|  0.54073
USER: genes 11 Torsion [C]-CA--CB-[CG] |==|  0.23451
USER: genes 12 Torsion [CA]-CB--CG-[CD2] |==|  0.75195
USER: genes 13 Torsion [C]-CA--N-[C] |==|  0.72832
USER: genes 14 Torsion [N]-C--CA-[N] |==|  0.06667
USER: genes 15 Torsion [C]-CA--CB-[CG] |==|  0.45637
USER: genes 16 Torsion [CA]-CB--CG-[CD2] |==|  0.32416
USER: genes 17 Torsion [C]-CA--N-[C] |==|  0.17678
USER: genes 18 Torsion [N]-C--CA-[N] |==|  0.48934
USER: genes 19 Torsion [C]-CA--N-[H2] |==|  0.00428
USER: genes 20 Torsion [C]-CA--CB-[CG] |==|  0.59879
USER: genes 21 Torsion [CA]-CB--CG-[OD1] |==|  0.91648
ROOT
ATOM      1  CA  LEU D  11      18.256   2.463  61.269  1.00 47.89 LIG 0.18  C 
ENDROOT
BRANCH 1 2
ATOM      2  C   LEU D  11      17.149   2.256  60.243  1.00 48.14 LIG 0.24  C 
ATOM      3 O    LEU D  11      15.975   2.214  60.584  1.00 47.13 LIG-0.27  OA
ATOM      4  N   HIS D  12      17.539   2.087  58.985  1.00 49.28 LIG-0.35  N 
ATOM      5 H    HIS D  12      18.357   2.122  58.720  1.00 49.28 LIG 0.16  HD
BRANCH 4 6
ATOM      6  CA  HIS D  12      16.564   1.822  57.932  1.00 50.49 LIG 0.18  C 
BRANCH 6 7
ATOM      7  C   HIS D  12      15.479   2.895  57.881  1.00 51.38 LIG 0.24  C 
ATOM      8  N   ILE D  13      15.692   3.851  56.991  1.00 53.16 LIG-0.34  N 
ATOM      9 H    ILE D  13      16.406   3.864  56.512  1.00 53.16 LIG 0.16  HD
ATOM     10 O    HIS D  12      14.499   2.842  58.610  1.00 51.57 LIG-0.27  OA
BRANCH 8 11
ATOM     11  CA  ILE D  13      14.802   4.983  56.686  1.00 55.12 LIG 0.19  C 
BRANCH 11 12
ATOM     12  CB  ILE D  13      15.449   6.389  56.960  1.00 55.01 LIG 0.01  C 
ATOM     13  CG2 ILE D  13      14.808   7.118  58.156  1.00 56.15 LIG 0.01  C 
BRANCH 12 14
ATOM     14  CG1 ILE D  13      16.961   6.241  57.162  1.00 55.50 LIG 0.00  C 
ATOM     15  CD1 ILE D  13      17.385   5.961  58.629  1.00 55.45 LIG 0.01  C 
ENDBRANCH 12 14
ENDBRANCH 11 12
BRANCH 11 16
ATOM     16  C   ILE D  13      13.984   4.953  55.392  1.00 55.63 LIG 0.20  C 
ATOM     17 OXT  ILE D  13      13.944   3.887  54.760  1.00 55.86 LIG-0.65  OA
ATOM     18 O    ILE D  13      13.365   5.946  55.003  1.00 56.94 LIG-0.65  OA
ENDBRANCH 11 16
ENDBRANCH 8 11
ENDBRANCH 6 7
BRANCH 6 19
ATOM     19  CB  HIS D  12      15.931   0.439  58.098  1.00 50.55 LIG 0.10  C 
BRANCH 19 20
ATOM     20  CG  HIS D  12      15.456  -0.166  56.815  1.00 49.61 LIG 0.05  A 
ATOM     21 ND1  HIS D  12      14.635  -1.214  56.571  1.00 49.92 LIG-0.25  NA
ATOM     22  CE1 HIS D  12      14.531  -1.338  55.208  1.00 49.12 LIG 0.21  A 
ATOM     23  NE2 HIS D  12      15.243  -0.386  54.634  1.00 48.62 LIG-0.36  N 
ATOM     24 HE2  HIS D  12      15.320  -0.256  53.788  1.00 48.62 LIG 0.17  HD
ATOM     25  CD2 HIS D  12      15.816   0.333  55.582  1.00 48.49 LIG 0.12  A 
ENDBRANCH 19 20
ENDBRANCH 6 19
ENDBRANCH 4 6
ENDBRANCH 1 2
BRANCH 1 26
ATOM     26  CB  LEU D  11      17.642   2.300  62.655  1.00 47.69 LIG 0.04  C 
BRANCH 26 27
ATOM     27  CG  LEU D  11      17.498   0.893  63.249  1.00 48.05 LIG-0.02  C 
ATOM     28  CD1 LEU D  11      17.685   0.942  64.759  1.00 46.53 LIG 0.01  C 
ATOM     29  CD2 LEU D  11      16.186   0.238  62.889  1.00 50.43 LIG 0.01  C 
ENDBRANCH 26 27
ENDBRANCH 1 26
BRANCH 1 30
ATOM     30  N   LEU D  11      18.899   3.766  61.172  1.00 47.51 LIG-0.35  N 
ATOM     31  C   LEU D  10      20.050   3.959  60.526  1.00 47.80 LIG 0.24  C 
ATOM     32 O    LEU D  10      20.637   3.075  59.887  1.00 47.07 LIG-0.27  OA
ATOM     33 H    LEU D  11      18.469   4.396  61.569  1.00 47.51 LIG 0.16  HD
BRANCH 31 34
ATOM     34  CA  LEU D  10      20.629   5.364  60.623  1.00 47.63 LIG 0.18  C 
BRANCH 34 35
ATOM     35  CB  LEU D  10      22.154   5.336  60.581  1.00 47.29 LIG 0.04  C 
BRANCH 35 36
ATOM     36  CG  LEU D  10      22.792   6.700  60.292  1.00 46.92 LIG-0.02  C 
ATOM     37  CD2 LEU D  10      23.624   7.163  61.441  1.00 45.50 LIG 0.01  C 
ATOM     38  CD1 LEU D  10      21.746   7.763  59.963  1.00 46.83 LIG 0.01  C 
ENDBRANCH 35 36
ENDBRANCH 34 35
BRANCH 34 39
ATOM     39  N   LEU D  10      20.131   6.024  61.818  1.00 47.82 LIG-0.35  N 
ATOM     40 H    LEU D  10      19.647   6.720  61.674  1.00 47.82 LIG 0.16  HD
ATOM     41  C   ASP D   9      20.428   5.551  63.023  1.00 48.63 LIG 0.25  C 
ATOM     42 O    ASP D   9      21.134   4.563  63.205  1.00 48.10 LIG-0.27  OA
BRANCH 41 43
ATOM     43  CA  ASP D   9      19.852   6.310  64.190  1.00 49.27 LIG 0.28  C 
BRANCH 43 44
ATOM     44  N   ASP D   9      20.217   5.575  65.428  1.00 49.86 LIG-0.07  N 
ATOM     45 H2   ASP D   9      20.711   4.865  65.217  1.00 49.86 LIG 0.28  HD
ATOM     46 H3   ASP D   9      20.682   6.111  65.965  1.00 49.86 LIG 0.28  HD
ATOM     47 H1   ASP D   9      19.477   5.308  65.844  1.00 49.86 LIG 0.28  HD
ENDBRANCH 43 44
BRANCH 43 48
ATOM     48  CB  ASP D   9      20.444   7.713  64.204  1.00 50.02 LIG 0.15  C 
BRANCH 48 49
ATOM     49  CG  ASP D   9      20.668   8.232  65.593  1.00 50.84 LIG 0.17  C 
ATOM     50 OD1  ASP D   9      19.912   7.842  66.499  1.00 53.44 LIG-0.65  OA
ATOM     51 OD2  ASP D   9      21.596   9.019  65.885  1.00 53.75 LIG-0.65  OA
ENDBRANCH 48 49
ENDBRANCH 43 48
ENDBRANCH 41 43
ENDBRANCH 34 39
ENDBRANCH 31 34
ENDBRANCH 1 30
TORSDOF 20
ENDMDL
MODEL 9
USER: ADFR SOLUTION from run 12
USER: SCORE 16.777180 LL:  -4.967 LR: -13.459 RR:   0.000 FEB:  -7.493
USER: RMSD 5.868550
USER: SEED 52452
USER: STATUS no improvement in best 5 clusters for 5 generations
USER: GENES 22
USER: genes 0 Translation |==|  0.46211 0.34721 0.46748
USER: genes 1 Rotation |==|  0.17414 0.46755 0.31765 0.83092
USER: genes 2 Torsion [N]-CA--C-[N] |==|  0.85000
USER: genes 3 Torsion [C]-N--CA-[CB] |==|  0.47787
USER: genes 4 Torsion [N]-CA--C-[N] |==|  0.26704
USER: genes 5 Torsion [C]-N--CA-[C] |==|  0.69915
USER: genes 6 Torsion [N]-CA--CB-[CG1] |==|  0.22035
USER: genes 7 Torsion [CA]-CB--CG1-[CD1] |==|  0.72889
USER: genes 8 Torsion [N]-CA--C-[OXT] |==|  0.44821
USER: genes 9 Torsion [N]-CA--CB-[CG] |==|  0.80198
USER: genes 10 Torsion [CA]-CB--CG-[ND1] |==|  0.48667
USER: genes 11 Torsion [C]-CA--CB-[CG] |==|  0.52378
USER: genes 12 Torsion [CA]-CB--CG-[CD2] |==|  0.53069
USER: genes 13 Torsion [C]-CA--N-[C] |==|  0.76414
USER: genes 14 Torsion [N]-C--CA-[N] |==|  0.06725
USER: genes 15 Torsion [C]-CA--CB-[CG] |==|  0.82422
USER: genes 16 Torsion [CA]-CB--CG-[CD2] |==|  0.63186
USER: genes 17 Torsion [C]-CA--N-[C] |==|  0.68134
USER: genes 18 Torsion [N]-C--CA-[N] |==|  0.05187
USER: genes 19 Torsion [C]-CA--N-[H2] |==|  0.08900
USER: genes 20 Torsion [C]-CA--CB-[CG] |==|  0.70776
USER: genes 21 Torsion [CA]-CB--CG-[OD1] |==|  0.34055
ROOT
ATOM      1  CA  LEU D  11      17.293   2.356  61.534  1.00 47.89 LIG 0.18  C 
ENDROOT
BRANCH 1 2
ATOM      2  C   LEU D  11      15.989   2.482  60.758  1.00 48.14 LIG 0.24  C 
ATOM      3 O    LEU D  11      15.801   1.839  59.735  1.00 47.13 LIG-0.27  OA
ATOM      4  N   HIS D  12      15.103   3.349  61.235  1.00 49.28 LIG-0.35  N 
ATOM      5 H    HIS D  12      15.210   3.805  61.957  1.00 49.28 LIG 0.16  HD
BRANCH 4 6
ATOM      6  CA  HIS D  12      13.846   3.591  60.536  1.00 50.49 LIG 0.18  C 
BRANCH 6 7
ATOM      7  C   HIS D  12      14.073   4.215  59.161  1.00 51.38 LIG 0.24  C 
ATOM      8  N   ILE D  13      14.088   3.350  58.160  1.00 53.16 LIG-0.34  N 
ATOM      9 H    ILE D  13      14.006   2.505  58.298  1.00 53.16 LIG 0.16  HD
ATOM     10 O    HIS D  12      14.217   5.422  59.027  1.00 51.57 LIG-0.27  OA
BRANCH 8 11
ATOM     11  CA  ILE D  13      14.239   3.662  56.729  1.00 55.12 LIG 0.19  C 
BRANCH 11 12
ATOM     12  CB  ILE D  13      15.555   3.088  56.091  1.00 55.01 LIG 0.01  C 
ATOM     13  CG2 ILE D  13      16.796   3.322  56.972  1.00 56.15 LIG 0.01  C 
BRANCH 12 14
ATOM     14  CG1 ILE D  13      15.383   1.598  55.781  1.00 55.50 LIG 0.00  C 
ATOM     15  CD1 ILE D  13      15.965   0.648  56.862  1.00 55.45 LIG 0.01  C 
ENDBRANCH 12 14
ENDBRANCH 11 12
BRANCH 11 16
ATOM     16  C   ILE D  13      13.023   3.513  55.809  1.00 55.63 LIG 0.20  C 
ATOM     17 OXT  ILE D  13      13.052   4.097  54.716  1.00 55.86 LIG-0.65  OA
ATOM     18 O    ILE D  13      12.059   2.815  56.131  1.00 56.94 LIG-0.65  OA
ENDBRANCH 11 16
ENDBRANCH 8 11
ENDBRANCH 6 7
BRANCH 6 19
ATOM     19  CB  HIS D  12      12.910   4.472  61.366  1.00 50.55 LIG 0.10  C 
BRANCH 19 20
ATOM     20  CG  HIS D  12      12.333   3.781  62.561  1.00 49.61 LIG 0.05  A 
ATOM     21 ND1  HIS D  12      11.549   4.239  63.565  1.00 49.92 LIG-0.25  NA
ATOM     22  CE1 HIS D  12      11.305   3.179  64.402  1.00 49.12 LIG 0.21  A 
ATOM     23  NE2 HIS D  12      11.897   2.103  63.918  1.00 48.62 LIG-0.36  N 
ATOM     24 HE2  HIS D  12      11.874   1.317  64.265  1.00 48.62 LIG 0.17  HD
ATOM     25  CD2 HIS D  12      12.528   2.440  62.809  1.00 48.49 LIG 0.12  A 
ENDBRANCH 19 20
ENDBRANCH 6 19
ENDBRANCH 4 6
ENDBRANCH 1 2
BRANCH 1 26
ATOM     26  CB  LEU D  11      16.971   1.734  62.889  1.00 47.69 LIG 0.04  C 
BRANCH 26 27
ATOM     27  CG  LEU D  11      18.065   1.669  63.962  1.00 48.05 LIG-0.02  C 
ATOM     28  CD1 LEU D  11      18.430   3.072  64.423  1.00 46.53 LIG 0.01  C 
ATOM     29  CD2 LEU D  11      17.681   0.799  65.135  1.00 50.43 LIG 0.01  C 
ENDBRANCH 26 27
ENDBRANCH 1 26
BRANCH 1 30
ATOM     30  N   LEU D  11      17.974   3.628  61.733  1.00 47.51 LIG-0.35  N 
ATOM     31  C   LEU D  10      18.794   4.159  60.826  1.00 47.80 LIG 0.24  C 
ATOM     32 O    LEU D  10      18.995   3.667  59.706  1.00 47.07 LIG-0.27  OA
ATOM     33 H    LEU D  11      17.798   4.002  62.487  1.00 47.51 LIG 0.16  HD
BRANCH 31 34
ATOM     34  CA  LEU D  10      19.502   5.439  61.251  1.00 47.63 LIG 0.18  C 
BRANCH 34 35
ATOM     35  CB  LEU D  10      20.876   5.552  60.598  1.00 47.29 LIG 0.04  C 
BRANCH 35 36
ATOM     36  CG  LEU D  10      21.852   4.444  61.010  1.00 46.92 LIG-0.02  C 
ATOM     37  CD2 LEU D  10      23.183   5.006  61.386  1.00 45.50 LIG 0.01  C 
ATOM     38  CD1 LEU D  10      22.036   3.405  59.906  1.00 46.83 LIG 0.01  C 
ENDBRANCH 35 36
ENDBRANCH 34 35
BRANCH 34 39
ATOM     39  N   LEU D  10      19.583   5.503  62.700  1.00 47.82 LIG-0.35  N 
ATOM     40 H    LEU D  10      20.072   4.895  63.063  1.00 47.82 LIG 0.16  HD
ATOM     41  C   ASP D   9      18.935   6.447  63.371  1.00 48.63 LIG 0.25  C 
ATOM     42 O    ASP D   9      18.230   7.296  62.831  1.00 48.10 LIG-0.27  OA
BRANCH 41 43
ATOM     43  CA  ASP D   9      19.097   6.421  64.869  1.00 49.27 LIG 0.28  C 
BRANCH 43 44
ATOM     44  N   ASP D   9      20.305   5.613  65.177  1.00 49.86 LIG-0.07  N 
ATOM     45 H2   ASP D   9      20.901   5.709  64.522  1.00 49.86 LIG 0.28  HD
ATOM     46 H3   ASP D   9      20.660   5.891  65.944  1.00 49.86 LIG 0.28  HD
ATOM     47 H1   ASP D   9      20.079   4.756  65.248  1.00 49.86 LIG 0.28  HD
ENDBRANCH 43 44
BRANCH 43 48
ATOM     48  CB  ASP D   9      19.263   7.849  65.370  1.00 50.02 LIG 0.15  C 
BRANCH 48 49
ATOM     49  CG  ASP D   9      20.678   8.165  65.756  1.00 50.84 LIG 0.17  C 
ATOM     50 OD1  ASP D   9      21.245   9.118  65.195  1.00 53.44 LIG-0.65  OA
ATOM     51 OD2  ASP D   9      21.303   7.530  66.635  1.00 53.75 LIG-0.65  OA
ENDBRANCH 48 49
ENDBRANCH 43 48
ENDBRANCH 41 43
ENDBRANCH 34 39
ENDBRANCH 31 34
ENDBRANCH 1 30
TORSDOF 20
ENDMDL
MODEL 10
USER: ADFR SOLUTION from run 3
USER: SCORE 15.375661 LL:  -3.687 LR: -13.452 RR:   0.000 FEB:  -7.486
USER: RMSD 6.672750
USER: SEED 942691
USER: STATUS no improvement in best 13 clusters for 5 generations
USER: GENES 22
USER: genes 0 Translation |==|  0.51290 0.37205 0.44620
USER: genes 1 Rotation |==|  0.20212 0.37070 0.21967 0.75684
USER: genes 2 Torsion [N]-CA--C-[N] |==|  0.90907
USER: genes 3 Torsion [C]-N--CA-[CB] |==|  0.20555
USER: genes 4 Torsion [N]-CA--C-[N] |==|  0.54763
USER: genes 5 Torsion [C]-N--CA-[C] |==|  0.53830
USER: genes 6 Torsion [N]-CA--CB-[CG1] |==|  0.06873
USER: genes 7 Torsion [CA]-CB--CG1-[CD1] |==|  0.41416
USER: genes 8 Torsion [N]-CA--C-[OXT] |==|  0.59677
USER: genes 9 Torsion [N]-CA--CB-[CG] |==|  0.75608
USER: genes 10 Torsion [CA]-CB--CG-[ND1] |==|  0.24877
USER: genes 11 Torsion [C]-CA--CB-[CG] |==|  0.27351
USER: genes 12 Torsion [CA]-CB--CG-[CD2] |==|  0.65890
USER: genes 13 Torsion [C]-CA--N-[C] |==|  0.77534
USER: genes 14 Torsion [N]-C--CA-[N] |==|  0.64297
USER: genes 15 Torsion [C]-CA--CB-[CG] |==|  0.26975
USER: genes 16 Torsion [CA]-CB--CG-[CD2] |==|  0.75725
USER: genes 17 Torsion [C]-CA--N-[C] |==|  0.65300
USER: genes 18 Torsion [N]-C--CA-[N] |==|  0.05478
USER: genes 19 Torsion [C]-CA--N-[H2] |==|  0.67201
USER: genes 20 Torsion [C]-CA--CB-[CG] |==|  0.26069
USER: genes 21 Torsion [CA]-CB--CG-[OD1] |==|  0.65993
ROOT
ATOM      1  CA  LEU D  11      18.817   3.102  60.896  1.00 47.89 LIG 0.18  C 
ENDROOT
BRANCH 1 2
ATOM      2  C   LEU D  11      18.166   3.072  59.520  1.00 48.14 LIG 0.24  C 
ATOM      3 O    LEU D  11      18.126   2.039  58.864  1.00 47.13 LIG-0.27  OA
ATOM      4  N   HIS D  12      17.692   4.228  59.070  1.00 49.28 LIG-0.35  N 
ATOM      5 H    HIS D  12      17.701   4.963  59.515  1.00 49.28 LIG 0.16  HD
BRANCH 4 6
ATOM      6  CA  HIS D  12      17.102   4.323  57.738  1.00 50.49 LIG 0.18  C 
BRANCH 6 7
ATOM      7  C   HIS D  12      17.020   5.770  57.257  1.00 51.38 LIG 0.24  C 
ATOM      8  N   ILE D  13      16.192   5.966  56.244  1.00 53.16 LIG-0.34  N 
ATOM      9 H    ILE D  13      15.768   5.313  55.880  1.00 53.16 LIG 0.16  HD
ATOM     10 O    HIS D  12      17.672   6.655  57.791  1.00 51.57 LIG-0.27  OA
BRANCH 8 11
ATOM     11  CA  ILE D  13      15.874   7.254  55.604  1.00 55.12 LIG 0.19  C 
BRANCH 11 12
ATOM     12  CB  ILE D  13      17.132   8.007  55.038  1.00 55.01 LIG 0.01  C 
ATOM     13  CG2 ILE D  13      17.634   9.119  55.978  1.00 56.15 LIG 0.01  C 
BRANCH 12 14
ATOM     14  CG1 ILE D  13      18.251   7.007  54.733  1.00 55.50 LIG 0.00  C 
ATOM     15  CD1 ILE D  13      19.173   7.419  53.553  1.00 55.45 LIG 0.01  C 
ENDBRANCH 12 14
ENDBRANCH 11 12
BRANCH 11 16
ATOM     16  C   ILE D  13      14.667   7.334  54.665  1.00 55.63 LIG 0.20  C 
ATOM     17 OXT  ILE D  13      14.747   8.086  53.684  1.00 55.86 LIG-0.65  OA
ATOM     18 O    ILE D  13      13.657   6.654  54.864  1.00 56.94 LIG-0.65  OA
ENDBRANCH 11 16
ENDBRANCH 8 11
ENDBRANCH 6 7
BRANCH 6 19
ATOM     19  CB  HIS D  12      15.717   3.675  57.697  1.00 50.55 LIG 0.10  C 
BRANCH 19 20
ATOM     20  CG  HIS D  12      15.744   2.211  57.394  1.00 49.61 LIG 0.05  A 
ATOM     21 ND1  HIS D  12      15.834   1.132  58.206  1.00 49.92 LIG-0.25  NA
ATOM     22  CE1 HIS D  12      15.812   0.019  57.403  1.00 49.12 LIG 0.21  A 
ATOM     23  NE2 HIS D  12      15.686   0.398  56.145  1.00 48.62 LIG-0.36  N 
ATOM     24 HE2  HIS D  12      15.638  -0.125  55.464  1.00 48.62 LIG 0.17  HD
ATOM     25  CD2 HIS D  12      15.648   1.717  56.111  1.00 48.49 LIG 0.12  A 
ENDBRANCH 19 20
ENDBRANCH 6 19
ENDBRANCH 4 6
ENDBRANCH 1 2
BRANCH 1 26
ATOM     26  CB  LEU D  11      17.726   2.855  61.932  1.00 47.69 LIG 0.04  C 
BRANCH 26 27
ATOM     27  CG  LEU D  11      17.545   1.446  62.509  1.00 48.05 LIG-0.02  C 
ATOM     28  CD1 LEU D  11      17.918   1.432  63.984  1.00 46.53 LIG 0.01  C 
ATOM     29  CD2 LEU D  11      16.151   0.904  62.300  1.00 50.43 LIG 0.01  C 
ENDBRANCH 26 27
ENDBRANCH 1 26
BRANCH 1 30
ATOM     30  N   LEU D  11      19.492   4.357  61.191  1.00 47.51 LIG-0.35  N 
ATOM     31  C   LEU D  10      20.716   4.643  60.744  1.00 47.80 LIG 0.24  C 
ATOM     32 O    LEU D  10      21.359   3.909  59.980  1.00 47.07 LIG-0.27  OA
ATOM     33 H    LEU D  11      19.030   4.894  61.677  1.00 47.51 LIG 0.16  HD
BRANCH 31 34
ATOM     34  CA  LEU D  10      21.307   5.955  61.242  1.00 47.63 LIG 0.18  C 
BRANCH 34 35
ATOM     35  CB  LEU D  10      20.301   6.725  62.092  1.00 47.29 LIG 0.04  C 
BRANCH 35 36
ATOM     36  CG  LEU D  10      20.477   6.521  63.601  1.00 46.92 LIG-0.02  C 
ATOM     37  CD2 LEU D  10      19.721   5.327  64.079  1.00 45.50 LIG 0.01  C 
ATOM     38  CD1 LEU D  10      20.041   7.749  64.399  1.00 46.83 LIG 0.01  C 
ENDBRANCH 35 36
ENDBRANCH 34 35
BRANCH 34 39
ATOM     39  N   LEU D  10      21.782   6.743  60.118  1.00 47.82 LIG-0.35  N 
ATOM     40 H    LEU D  10      21.195   6.896  59.508  1.00 47.82 LIG 0.16  HD
ATOM     41  C   ASP D   9      23.037   7.174  60.078  1.00 48.63 LIG 0.25  C 
ATOM     42 O    ASP D   9      23.862   6.931  60.956  1.00 48.10 LIG-0.27  OA
BRANCH 41 43
ATOM     43  CA  ASP D   9      23.417   7.988  58.869  1.00 49.27 LIG 0.28  C 
BRANCH 43 44
ATOM     44  N   ASP D   9      22.163   8.500  58.259  1.00 49.86 LIG-0.07  N 
ATOM     45 H2   ASP D   9      22.081   8.176  57.434  1.00 49.86 LIG 0.28  HD
ATOM     46 H3   ASP D   9      21.467   8.242  58.750  1.00 49.86 LIG 0.28  HD
ATOM     47 H1   ASP D   9      22.190   9.389  58.226  1.00 49.86 LIG 0.28  HD
ENDBRANCH 43 44
BRANCH 43 48
ATOM     48  CB  ASP D   9      24.307   9.141  59.313  1.00 50.02 LIG 0.15  C 
BRANCH 48 49
ATOM     49  CG  ASP D   9      25.768   8.816  59.212  1.00 50.84 LIG 0.17  C 
ATOM     50 OD1  ASP D   9      26.465   8.899  60.238  1.00 53.44 LIG-0.65  OA
ATOM     51 OD2  ASP D   9      26.311   8.440  58.148  1.00 53.75 LIG-0.65  OA
ENDBRANCH 48 49
ENDBRANCH 43 48
ENDBRANCH 41 43
ENDBRANCH 34 39
ENDBRANCH 31 34
ENDBRANCH 1 30
TORSDOF 20
ENDMDL
MODEL 11
USER: ADFR SOLUTION from run 58
USER: SCORE 15.858345 LL:  -4.086 LR: -13.405 RR:   0.000 FEB:  -7.439
USER: RMSD 6.229925
USER: SEED 57
USER: STATUS no improvement in best 9 clusters for 5 generations
USER: GENES 22
USER: genes 0 Translation |==|  0.50905 0.36941 0.44301
USER: genes 1 Rotation |==|  0.18874 0.49896 0.25114 0.80197
USER: genes 2 Torsion [N]-CA--C-[N] |==|  0.53889
USER: genes 3 Torsion [C]-N--CA-[CB] |==|  0.85705
USER: genes 4 Torsion [N]-CA--C-[N] |==|  0.36421
USER: genes 5 Torsion [C]-N--CA-[C] |==|  0.68301
USER: genes 6 Torsion [N]-CA--CB-[CG1] |==|  0.89547
USER: genes 7 Torsion [CA]-CB--CG1-[CD1] |==|  0.25447
USER: genes 8 Torsion [N]-CA--C-[OXT] |==|  0.64066
USER: genes 9 Torsion [N]-CA--CB-[CG] |==|  0.76903
USER: genes 10 Torsion [CA]-CB--CG-[ND1] |==|  0.54074
USER: genes 11 Torsion [C]-CA--CB-[CG] |==|  0.25874
USER: genes 12 Torsion [CA]-CB--CG-[CD2] |==|  0.02010
USER: genes 13 Torsion [C]-CA--N-[C] |==|  0.70042
USER: genes 14 Torsion [N]-C--CA-[N] |==|  0.70408
USER: genes 15 Torsion [C]-CA--CB-[CG] |==|  0.76559
USER: genes 16 Torsion [CA]-CB--CG-[CD2] |==|  0.70231
USER: genes 17 Torsion [C]-CA--N-[C] |==|  0.56670
USER: genes 18 Torsion [N]-C--CA-[N] |==|  0.09352
USER: genes 19 Torsion [C]-CA--N-[H2] |==|  0.95849
USER: genes 20 Torsion [C]-CA--CB-[CG] |==|  0.23468
USER: genes 21 Torsion [CA]-CB--CG-[OD1] |==|  0.15389
ROOT
ATOM      1  CA  LEU D  11      18.702   3.022  60.800  1.00 47.89 LIG 0.18  C 
ENDROOT
BRANCH 1 2
ATOM      2  C   LEU D  11      17.594   3.533  59.888  1.00 48.14 LIG 0.24  C 
ATOM      3 O    LEU D  11      17.693   4.613  59.322  1.00 47.13 LIG-0.27  OA
ATOM      4  N   HIS D  12      16.519   2.761  59.781  1.00 49.28 LIG-0.35  N 
ATOM      5 H    HIS D  12      16.431   1.994  60.161  1.00 49.28 LIG 0.16  HD
BRANCH 4 6
ATOM      6  CA  HIS D  12      15.375   3.183  58.980  1.00 50.49 LIG 0.18  C 
BRANCH 6 7
ATOM      7  C   HIS D  12      15.675   3.117  57.484  1.00 51.38 LIG 0.24  C 
ATOM      8  N   ILE D  13      14.752   2.498  56.765  1.00 53.16 LIG-0.34  N 
ATOM      9 H    ILE D  13      14.062   2.142  57.135  1.00 53.16 LIG 0.16  HD
ATOM     10 O    HIS D  12      16.690   3.613  57.017  1.00 51.57 LIG-0.27  OA
BRANCH 8 11
ATOM     11  CA  ILE D  13      14.747   2.323  55.303  1.00 55.12 LIG 0.19  C 
BRANCH 11 12
ATOM     12  CB  ILE D  13      15.002   0.843  54.842  1.00 55.01 LIG 0.01  C 
ATOM     13  CG2 ILE D  13      15.431   0.744  53.366  1.00 56.15 LIG 0.01  C 
BRANCH 12 14
ATOM     14  CG1 ILE D  13      16.038   0.179  55.754  1.00 55.50 LIG 0.00  C 
ATOM     15  CD1 ILE D  13      15.430  -0.577  56.967  1.00 55.45 LIG 0.01  C 
ENDBRANCH 12 14
ENDBRANCH 11 12
BRANCH 11 16
ATOM     16  C   ILE D  13      13.658   3.019  54.480  1.00 55.63 LIG 0.20  C 
ATOM     17 OXT  ILE D  13      13.019   2.332  53.671  1.00 55.86 LIG-0.65  OA
ATOM     18 O    ILE D  13      13.407   4.216  54.635  1.00 56.94 LIG-0.65  OA
ENDBRANCH 11 16
ENDBRANCH 8 11
ENDBRANCH 6 7
BRANCH 6 19
ATOM     19  CB  HIS D  12      14.919   4.592  59.364  1.00 50.55 LIG 0.10  C 
BRANCH 19 20
ATOM     20  CG  HIS D  12      14.014   4.630  60.555  1.00 49.61 LIG 0.05  A 
ATOM     21 ND1  HIS D  12      13.211   5.608  61.036  1.00 49.92 LIG-0.25  NA
ATOM     22  CE1 HIS D  12      12.596   5.111  62.157  1.00 49.12 LIG 0.21  A 
ATOM     23  NE2 HIS D  12      12.986   3.864  62.345  1.00 48.62 LIG-0.36  N 
ATOM     24 HE2  HIS D  12      12.724   3.345  62.978  1.00 48.62 LIG 0.17  HD
ATOM     25  CD2 HIS D  12      13.846   3.551  61.394  1.00 48.49 LIG 0.12  A 
ENDBRANCH 19 20
ENDBRANCH 6 19
ENDBRANCH 4 6
ENDBRANCH 1 2
BRANCH 1 26
ATOM     26  CB  LEU D  11      18.051   2.511  62.081  1.00 47.69 LIG 0.04  C 
BRANCH 26 27
ATOM     27  CG  LEU D  11      17.684   1.026  62.194  1.00 48.05 LIG-0.02  C 
ATOM     28  CD1 LEU D  11      16.178   0.870  62.349  1.00 46.53 LIG 0.01  C 
ATOM     29  CD2 LEU D  11      18.194   0.208  61.031  1.00 50.43 LIG 0.01  C 
ENDBRANCH 26 27
ENDBRANCH 1 26
BRANCH 1 30
ATOM     30  N   LEU D  11      19.693   4.036  61.130  1.00 47.51 LIG-0.35  N 
ATOM     31  C   LEU D  10      20.930   4.028  60.632  1.00 47.80 LIG 0.24  C 
ATOM     32 O    LEU D  10      21.327   3.211  59.788  1.00 47.07 LIG-0.27  OA
ATOM     33 H    LEU D  11      19.408   4.637  61.675  1.00 47.51 LIG 0.16  HD
BRANCH 31 34
ATOM     34  CA  LEU D  10      21.863   5.103  61.173  1.00 47.63 LIG 0.18  C 
BRANCH 34 35
ATOM     35  CB  LEU D  10      21.333   5.685  62.480  1.00 47.29 LIG 0.04  C 
BRANCH 35 36
ATOM     36  CG  LEU D  10      20.308   6.809  62.289  1.00 46.92 LIG-0.02  C 
ATOM     37  CD2 LEU D  10      20.893   8.140  62.627  1.00 45.50 LIG 0.01  C 
ATOM     38  CD1 LEU D  10      19.049   6.582  63.123  1.00 46.83 LIG 0.01  C 
ENDBRANCH 35 36
ENDBRANCH 34 35
BRANCH 34 39
ATOM     39  N   LEU D  10      22.072   6.130  60.167  1.00 47.82 LIG-0.35  N 
ATOM     40 H    LEU D  10      21.447   6.195  59.580  1.00 47.82 LIG 0.16  HD
ATOM     41  C   ASP D   9      23.162   6.888  60.193  1.00 48.63 LIG 0.25  C 
ATOM     42 O    ASP D   9      24.049   6.766  61.035  1.00 48.10 LIG-0.27  OA
BRANCH 41 43
ATOM     43  CA  ASP D   9      23.270   7.925  59.106  1.00 49.27 LIG 0.28  C 
BRANCH 43 44
ATOM     44  N   ASP D   9      21.896   8.400  58.799  1.00 49.86 LIG-0.07  N 
ATOM     45 H2   ASP D   9      21.303   7.836  59.148  1.00 49.86 LIG 0.28  HD
ATOM     46 H3   ASP D   9      21.777   9.210  59.147  1.00 49.86 LIG 0.28  HD
ATOM     47 H1   ASP D   9      21.785   8.437  57.916  1.00 49.86 LIG 0.28  HD
ENDBRANCH 43 44
BRANCH 43 48
ATOM     48  CB  ASP D   9      24.136   9.073  59.606  1.00 50.02 LIG 0.15  C 
BRANCH 48 49
ATOM     49  CG  ASP D   9      25.602   8.815  59.422  1.00 50.84 LIG 0.17  C 
ATOM     50 OD1  ASP D   9      26.016   8.543  58.282  1.00 53.44 LIG-0.65  OA
ATOM     51 OD2  ASP D   9      26.429   8.888  60.359  1.00 53.75 LIG-0.65  OA
ENDBRANCH 48 49
ENDBRANCH 43 48
ENDBRANCH 41 43
ENDBRANCH 34 39
ENDBRANCH 31 34
ENDBRANCH 1 30
TORSDOF 20
ENDMDL
MODEL 12
USER: ADFR SOLUTION from run 136
USER: SCORE 16.918829 LL:  -4.274 LR: -13.399 RR:   0.000 FEB:  -7.433
USER: RMSD 10.487653
USER: SEED 135
USER: STATUS searching
USER: GENES 22
USER: genes 0 Translation |==|  0.45988 0.38985 0.47226
USER: genes 1 Rotation |==|  0.77397 0.12729 0.32130 0.56398
USER: genes 2 Torsion [N]-CA--C-[N] |==|  0.49609
USER: genes 3 Torsion [C]-N--CA-[CB] |==|  0.85309
USER: genes 4 Torsion [N]-CA--C-[N] |==|  0.39266
USER: genes 5 Torsion [C]-N--CA-[C] |==|  0.64368
USER: genes 6 Torsion [N]-CA--CB-[CG1] |==|  0.98838
USER: genes 7 Torsion [CA]-CB--CG1-[CD1] |==|  0.57750
USER: genes 8 Torsion [N]-CA--C-[OXT] |==|  0.49986
USER: genes 9 Torsion [N]-CA--CB-[CG] |==|  0.85075
USER: genes 10 Torsion [CA]-CB--CG-[ND1] |==|  0.29758
USER: genes 11 Torsion [C]-CA--CB-[CG] |==|  0.39495
USER: genes 12 Torsion [CA]-CB--CG-[CD2] |==|  0.26504
USER: genes 13 Torsion [C]-CA--N-[C] |==|  0.55573
USER: genes 14 Torsion [N]-C--CA-[N] |==|  0.30564
USER: genes 15 Torsion [C]-CA--CB-[CG] |==|  0.08755
USER: genes 16 Torsion [CA]-CB--CG-[CD2] |==|  0.63108
USER: genes 17 Torsion [C]-CA--N-[C] |==|  0.83054
USER: genes 18 Torsion [N]-C--CA-[N] |==|  0.71594
USER: genes 19 Torsion [C]-CA--N-[H2] |==|  0.47226
USER: genes 20 Torsion [C]-CA--CB-[CG] |==|  0.25596
USER: genes 21 Torsion [CA]-CB--CG-[OD1] |==|  0.80225
ROOT
ATOM      1  CA  LEU D  11      17.226   3.635  61.678  1.00 47.89 LIG 0.18  C 
ENDROOT
BRANCH 1 2
ATOM      2  C   LEU D  11      18.134   4.721  62.242  1.00 48.14 LIG 0.24  C 
ATOM      3 O    LEU D  11      18.085   5.867  61.815  1.00 47.13 LIG-0.27  OA
ATOM      4  N   HIS D  12      18.991   4.339  63.181  1.00 49.28 LIG-0.35  N 
ATOM      5 H    HIS D  12      19.037   3.543  63.503  1.00 49.28 LIG 0.16  HD
BRANCH 4 6
ATOM      6  CA  HIS D  12      19.947   5.286  63.747  1.00 50.49 LIG 0.18  C 
BRANCH 6 7
ATOM      7  C   HIS D  12      19.261   6.322  64.635  1.00 51.38 LIG 0.24  C 
ATOM      8  N   ILE D  13      19.938   6.648  65.723  1.00 53.16 LIG-0.34  N 
ATOM      9 H    ILE D  13      20.688   6.272  65.913  1.00 53.16 LIG 0.16  HD
ATOM     10 O    HIS D  12      18.177   6.800  64.332  1.00 51.57 LIG-0.27  OA
BRANCH 8 11
ATOM     11  CA  ILE D  13      19.551   7.646  66.734  1.00 55.12 LIG 0.19  C 
BRANCH 11 12
ATOM     12  CB  ILE D  13      18.804   7.035  67.974  1.00 55.01 LIG 0.01  C 
ATOM     13  CG2 ILE D  13      17.477   7.753  68.284  1.00 56.15 LIG 0.01  C 
BRANCH 12 14
ATOM     14  CG1 ILE D  13      18.573   5.535  67.762  1.00 55.50 LIG 0.00  C 
ATOM     15  CD1 ILE D  13      17.330   4.970  68.501  1.00 55.45 LIG 0.01  C 
ENDBRANCH 12 14
ENDBRANCH 11 12
BRANCH 11 16
ATOM     16  C   ILE D  13      20.561   8.728  67.128  1.00 55.63 LIG 0.20  C 
ATOM     17 OXT  ILE D  13      20.215   9.558  67.980  1.00 55.86 LIG-0.65  OA
ATOM     18 O    ILE D  13      21.691   8.757  66.635  1.00 56.94 LIG-0.65  OA
ENDBRANCH 11 16
ENDBRANCH 8 11
ENDBRANCH 6 7
BRANCH 6 19
ATOM     19  CB  HIS D  12      20.752   5.983  62.649  1.00 50.55 LIG 0.10  C 
BRANCH 19 20
ATOM     20  CG  HIS D  12      21.428   5.041  61.704  1.00 49.61 LIG 0.05  A 
ATOM     21 ND1  HIS D  12      21.157   4.719  60.417  1.00 49.92 LIG-0.25  NA
ATOM     22  CE1 HIS D  12      22.097   3.800  60.024  1.00 49.12 LIG 0.21  A 
ATOM     23  NE2 HIS D  12      22.931   3.582  61.024  1.00 48.62 LIG-0.36  N 
ATOM     24 HE2  HIS D  12      23.609   3.053  61.009  1.00 48.62 LIG 0.17  HD
ATOM     25  CD2 HIS D  12      22.546   4.315  62.053  1.00 48.49 LIG 0.12  A 
ENDBRANCH 19 20
ENDBRANCH 6 19
ENDBRANCH 4 6
ENDBRANCH 1 2
BRANCH 1 26
ATOM     26  CB  LEU D  11      18.114   2.561  61.060  1.00 47.69 LIG 0.04  C 
BRANCH 26 27
ATOM     27  CG  LEU D  11      17.716   1.087  61.202  1.00 48.05 LIG-0.02  C 
ATOM     28  CD1 LEU D  11      16.926   0.879  62.486  1.00 46.53 LIG 0.01  C 
ATOM     29  CD2 LEU D  11      16.949   0.572  60.007  1.00 50.43 LIG 0.01  C 
ENDBRANCH 26 27
ENDBRANCH 1 26
BRANCH 1 30
ATOM     30  N   LEU D  11      16.290   4.126  60.678  1.00 47.51 LIG-0.35  N 
ATOM     31  C   LEU D  10      15.177   3.470  60.345  1.00 47.80 LIG 0.24  C 
ATOM     32 O    LEU D  10      14.796   2.431  60.904  1.00 47.07 LIG-0.27  OA
ATOM     33 H    LEU D  11      16.520   4.874  60.323  1.00 47.51 LIG 0.16  HD
BRANCH 31 34
ATOM     34  CA  LEU D  10      14.374   4.077  59.202  1.00 47.63 LIG 0.18  C 
BRANCH 34 35
ATOM     35  CB  LEU D  10      12.926   4.325  59.616  1.00 47.29 LIG 0.04  C 
BRANCH 35 36
ATOM     36  CG  LEU D  10      12.754   4.663  61.101  1.00 46.92 LIG-0.02  C 
ATOM     37  CD2 LEU D  10      11.650   3.866  61.713  1.00 45.50 LIG 0.01  C 
ATOM     38  CD1 LEU D  10      12.487   6.150  61.323  1.00 46.83 LIG 0.01  C 
ENDBRANCH 35 36
ENDBRANCH 34 35
BRANCH 34 39
ATOM     39  N   LEU D  10      14.464   3.227  58.027  1.00 47.82 LIG-0.35  N 
ATOM     40 H    LEU D  10      13.713   2.913  57.748  1.00 47.82 LIG 0.16  HD
ATOM     41  C   ASP D   9      15.638   2.983  57.459  1.00 48.63 LIG 0.25  C 
ATOM     42 O    ASP D   9      16.700   3.432  57.885  1.00 48.10 LIG-0.27  OA
BRANCH 41 43
ATOM     43  CA  ASP D   9      15.612   2.095  56.243  1.00 49.27 LIG 0.28  C 
BRANCH 43 44
ATOM     44  N   ASP D   9      16.061   0.743  56.664  1.00 49.86 LIG-0.07  N 
ATOM     45 H2   ASP D   9      15.919   0.164  56.003  1.00 49.86 LIG 0.28  HD
ATOM     46 H3   ASP D   9      16.930   0.765  56.856  1.00 49.86 LIG 0.28  HD
ATOM     47 H1   ASP D   9      15.605   0.489  57.384  1.00 49.86 LIG 0.28  HD
ENDBRANCH 43 44
BRANCH 43 48
ATOM     48  CB  ASP D   9      14.189   2.044  55.703  1.00 50.02 LIG 0.15  C 
BRANCH 48 49
ATOM     49  CG  ASP D   9      13.930   3.086  54.655  1.00 50.84 LIG 0.17  C 
ATOM     50 OD1  ASP D   9      13.856   4.275  55.010  1.00 53.44 LIG-0.65  OA
ATOM     51 OD2  ASP D   9      13.811   2.815  53.439  1.00 53.75 LIG-0.65  OA
ENDBRANCH 48 49
ENDBRANCH 43 48
ENDBRANCH 41 43
ENDBRANCH 34 39
ENDBRANCH 31 34
ENDBRANCH 1 30
TORSDOF 20
ENDMDL
MODEL 13
USER: ADFR SOLUTION from run 103
USER: SCORE 16.374536 LL:  -4.798 LR: -13.325 RR:   0.000 FEB:  -7.359
USER: RMSD 5.429079
USER: SEED 102
USER: STATUS no improvement in best 11 clusters for 5 generations
USER: GENES 22
USER: genes 0 Translation |==|  0.48957 0.36780 0.47869
USER: genes 1 Rotation |==|  0.23577 0.50462 0.29377 0.87099
USER: genes 2 Torsion [N]-CA--C-[N] |==|  0.26644
USER: genes 3 Torsion [C]-N--CA-[CB] |==|  0.24436
USER: genes 4 Torsion [N]-CA--C-[N] |==|  0.38065
USER: genes 5 Torsion [C]-N--CA-[C] |==|  0.62405
USER: genes 6 Torsion [N]-CA--CB-[CG1] |==|  0.93962
USER: genes 7 Torsion [CA]-CB--CG1-[CD1] |==|  0.39685
USER: genes 8 Torsion [N]-CA--C-[OXT] |==|  0.75944
USER: genes 9 Torsion [N]-CA--CB-[CG] |==|  0.03553
USER: genes 10 Torsion [CA]-CB--CG-[ND1] |==|  0.21369
USER: genes 11 Torsion [C]-CA--CB-[CG] |==|  0.21680
USER: genes 12 Torsion [CA]-CB--CG-[CD2] |==|  0.04467
USER: genes 13 Torsion [C]-CA--N-[C] |==|  0.75663
USER: genes 14 Torsion [N]-C--CA-[N] |==|  0.52639
USER: genes 15 Torsion [C]-CA--CB-[CG] |==|  0.32303
USER: genes 16 Torsion [CA]-CB--CG-[CD2] |==|  0.80338
USER: genes 17 Torsion [C]-CA--N-[C] |==|  0.79777
USER: genes 18 Torsion [N]-C--CA-[N] |==|  0.80509
USER: genes 19 Torsion [C]-CA--N-[H2] |==|  0.98245
USER: genes 20 Torsion [C]-CA--CB-[CG] |==|  0.28536
USER: genes 21 Torsion [CA]-CB--CG-[OD1] |==|  0.12796
ROOT
ATOM      1  CA  LEU D  11      18.117   2.974  61.871  1.00 47.89 LIG 0.18  C 
ENDROOT
BRANCH 1 2
ATOM      2  C   LEU D  11      16.873   3.461  61.140  1.00 48.14 LIG 0.24  C 
ATOM      3 O    LEU D  11      15.815   3.620  61.735  1.00 47.13 LIG-0.27  OA
ATOM      4  N   HIS D  12      16.999   3.658  59.833  1.00 49.28 LIG-0.35  N 
ATOM      5 H    HIS D  12      17.733   3.561  59.395  1.00 49.28 LIG 0.16  HD
BRANCH 4 6
ATOM      6  CA  HIS D  12      15.853   4.066  59.027  1.00 50.49 LIG 0.18  C 
BRANCH 6 7
ATOM      7  C   HIS D  12      15.937   3.520  57.603  1.00 51.38 LIG 0.24  C 
ATOM      8  N   ILE D  13      14.798   3.041  57.130  1.00 53.16 LIG-0.34  N 
ATOM      9 H    ILE D  13      14.087   3.021  57.613  1.00 53.16 LIG 0.16  HD
ATOM     10 O    HIS D  12      16.985   3.546  56.974  1.00 51.57 LIG-0.27  OA
BRANCH 8 11
ATOM     11  CA  ILE D  13      14.565   2.497  55.782  1.00 55.12 LIG 0.19  C 
BRANCH 11 12
ATOM     12  CB  ILE D  13      14.861   0.958  55.661  1.00 55.01 LIG 0.01  C 
ATOM     13  CG2 ILE D  13      15.425   0.566  54.283  1.00 56.15 LIG 0.01  C 
BRANCH 12 14
ATOM     14  CG1 ILE D  13      15.807   0.515  56.782  1.00 55.50 LIG 0.00  C 
ATOM     15  CD1 ILE D  13      15.502  -0.895  57.355  1.00 55.45 LIG 0.01  C 
ENDBRANCH 12 14
ENDBRANCH 11 12
BRANCH 11 16
ATOM     16  C   ILE D  13      13.302   2.916  55.024  1.00 55.63 LIG 0.20  C 
ATOM     17 OXT  ILE D  13      12.267   2.266  55.224  1.00 55.86 LIG-0.65  OA
ATOM     18 O    ILE D  13      13.308   3.884  54.260  1.00 56.94 LIG-0.65  OA
ENDBRANCH 11 16
ENDBRANCH 8 11
ENDBRANCH 6 7
BRANCH 6 19
ATOM     19  CB  HIS D  12      15.709   5.589  58.999  1.00 50.55 LIG 0.10  C 
BRANCH 19 20
ATOM     20  CG  HIS D  12      16.905   6.318  59.524  1.00 49.61 LIG 0.05  A 
ATOM     21 ND1  HIS D  12      18.112   6.572  58.966  1.00 49.92 LIG-0.25  NA
ATOM     22  CE1 HIS D  12      18.840   7.286  59.885  1.00 49.12 LIG 0.21  A 
ATOM     23  NE2 HIS D  12      18.099   7.486  60.959  1.00 48.62 LIG-0.36  N 
ATOM     24 HE2  HIS D  12      18.339   7.919  61.663  1.00 48.62 LIG 0.17  HD
ATOM     25  CD2 HIS D  12      16.928   6.907  60.770  1.00 48.49 LIG 0.12  A 
ENDBRANCH 19 20
ENDBRANCH 6 19
ENDBRANCH 4 6
ENDBRANCH 1 2
BRANCH 1 26
ATOM     26  CB  LEU D  11      17.672   1.982  62.939  1.00 47.69 LIG 0.04  C 
BRANCH 26 27
ATOM     27  CG  LEU D  11      17.310   0.549  62.528  1.00 48.05 LIG-0.02  C 
ATOM     28  CD1 LEU D  11      15.806   0.339  62.631  1.00 46.53 LIG 0.01  C 
ATOM     29  CD2 LEU D  11      17.810   0.194  61.148  1.00 50.43 LIG 0.01  C 
ENDBRANCH 26 27
ENDBRANCH 1 26
BRANCH 1 30
ATOM     30  N   LEU D  11      18.881   4.046  62.491  1.00 47.51 LIG-0.35  N 
ATOM     31  C   LEU D  10      19.827   4.729  61.845  1.00 47.80 LIG 0.24  C 
ATOM     32 O    LEU D  10      20.092   4.571  60.645  1.00 47.07 LIG-0.27  OA
ATOM     33 H    LEU D  11      18.666   4.197  63.310  1.00 47.51 LIG 0.16  HD
BRANCH 31 34
ATOM     34  CA  LEU D  10      20.597   5.740  62.685  1.00 47.63 LIG 0.18  C 
BRANCH 34 35
ATOM     35  CB  LEU D  10      19.653   6.580  63.540  1.00 47.29 LIG 0.04  C 
BRANCH 35 36
ATOM     36  CG  LEU D  10      19.845   6.390  65.049  1.00 46.92 LIG-0.02  C 
ATOM     37  CD2 LEU D  10      19.370   5.046  65.490  1.00 45.50 LIG 0.01  C 
ATOM     38  CD1 LEU D  10      19.129   7.470  65.857  1.00 46.83 LIG 0.01  C 
ENDBRANCH 35 36
ENDBRANCH 34 35
BRANCH 34 39
ATOM     39  N   LEU D  10      21.431   6.565  61.827  1.00 47.82 LIG-0.35  N 
ATOM     40 H    LEU D  10      21.156   7.373  61.724  1.00 47.82 LIG 0.16  HD
ATOM     41  C   ASP D   9      22.525   6.065  61.267  1.00 48.63 LIG 0.25  C 
ATOM     42 O    ASP D   9      22.889   4.901  61.418  1.00 48.10 LIG-0.27  OA
BRANCH 41 43
ATOM     43  CA  ASP D   9      23.316   7.012  60.404  1.00 49.27 LIG 0.28  C 
BRANCH 43 44
ATOM     44  N   ASP D   9      22.522   7.271  59.176  1.00 49.86 LIG-0.07  N 
ATOM     45 H2   ASP D   9      21.802   6.747  59.172  1.00 49.86 LIG 0.28  HD
ATOM     46 H3   ASP D   9      22.267   8.124  59.161  1.00 49.86 LIG 0.28  HD
ATOM     47 H1   ASP D   9      23.018   7.097  58.458  1.00 49.86 LIG 0.28  HD
ENDBRANCH 43 44
BRANCH 43 48
ATOM     48  CB  ASP D   9      23.549   8.303  61.175  1.00 50.02 LIG 0.15  C 
BRANCH 48 49
ATOM     49  CG  ASP D   9      24.939   8.404  61.730  1.00 50.84 LIG 0.17  C 
ATOM     50 OD1  ASP D   9      25.894   8.120  60.987  1.00 53.44 LIG-0.65  OA
ATOM     51 OD2  ASP D   9      25.181   8.786  62.897  1.00 53.75 LIG-0.65  OA
ENDBRANCH 48 49
ENDBRANCH 43 48
ENDBRANCH 41 43
ENDBRANCH 34 39
ENDBRANCH 31 34
ENDBRANCH 1 30
TORSDOF 20
ENDMDL
MODEL 14
USER: ADFR SOLUTION from run 124
USER: SCORE 16.377528 LL:  -4.871 LR: -13.261 RR:   0.000 FEB:  -7.295
USER: RMSD 9.496312
USER: SEED 123
USER: STATUS searching
USER: GENES 22
USER: genes 0 Translation |==|  0.45631 0.40778 0.45402
USER: genes 1 Rotation |==|  0.77197 0.32132 0.13408 0.60101
USER: genes 2 Torsion [N]-CA--C-[N] |==|  0.32013
USER: genes 3 Torsion [C]-N--CA-[CB] |==|  0.85255
USER: genes 4 Torsion [N]-CA--C-[N] |==|  0.43517
USER: genes 5 Torsion [C]-N--CA-[C] |==|  0.62757
USER: genes 6 Torsion [N]-CA--CB-[CG1] |==|  0.99290
USER: genes 7 Torsion [CA]-CB--CG1-[CD1] |==|  0.54669
USER: genes 8 Torsion [N]-CA--C-[OXT] |==|  0.48800
USER: genes 9 Torsion [N]-CA--CB-[CG] |==|  0.84299
USER: genes 10 Torsion [CA]-CB--CG-[ND1] |==|  0.28985
USER: genes 11 Torsion [C]-CA--CB-[CG] |==|  0.32964
USER: genes 12 Torsion [CA]-CB--CG-[CD2] |==|  0.29322
USER: genes 13 Torsion [C]-CA--N-[C] |==|  0.53335
USER: genes 14 Torsion [N]-C--CA-[N] |==|  0.73769
USER: genes 15 Torsion [C]-CA--CB-[CG] |==|  0.72655
USER: genes 16 Torsion [CA]-CB--CG-[CD2] |==|  0.69177
USER: genes 17 Torsion [C]-CA--N-[C] |==|  0.62815
USER: genes 18 Torsion [N]-C--CA-[N] |==|  0.81848
USER: genes 19 Torsion [C]-CA--N-[H2] |==|  0.17897
USER: genes 20 Torsion [C]-CA--CB-[CG] |==|  0.55247
USER: genes 21 Torsion [CA]-CB--CG-[OD1] |==|  0.52163
ROOT
ATOM      1  CA  LEU D  11      17.119   4.173  61.131  1.00 47.89 LIG 0.18  C 
ENDROOT
BRANCH 1 2
ATOM      2  C   LEU D  11      18.073   5.082  61.896  1.00 48.14 LIG 0.24  C 
ATOM      3 O    LEU D  11      18.167   6.270  61.621  1.00 47.13 LIG-0.27  OA
ATOM      4  N   HIS D  12      18.809   4.500  62.836  1.00 49.28 LIG-0.35  N 
ATOM      5 H    HIS D  12      18.753   3.670  63.053  1.00 49.28 LIG 0.16  HD
BRANCH 4 6
ATOM      6  CA  HIS D  12      19.797   5.267  63.589  1.00 50.49 LIG 0.18  C 
BRANCH 6 7
ATOM      7  C   HIS D  12      19.137   6.254  64.549  1.00 51.38 LIG 0.24  C 
ATOM      8  N   ILE D  13      19.895   6.615  65.572  1.00 53.16 LIG-0.34  N 
ATOM      9 H    ILE D  13      20.681   6.285  65.684  1.00 53.16 LIG 0.16  HD
ATOM     10 O    HIS D  12      18.002   6.665  64.357  1.00 51.57 LIG-0.27  OA
BRANCH 8 11
ATOM     11  CA  ILE D  13      19.547   7.582  66.626  1.00 55.12 LIG 0.19  C 
BRANCH 11 12
ATOM     12  CB  ILE D  13      18.830   6.936  67.866  1.00 55.01 LIG 0.01  C 
ATOM     13  CG2 ILE D  13      17.500   7.630  68.214  1.00 56.15 LIG 0.01  C 
BRANCH 12 14
ATOM     14  CG1 ILE D  13      18.615   5.438  67.628  1.00 55.50 LIG 0.00  C 
ATOM     15  CD1 ILE D  13      17.573   4.784  68.574  1.00 55.45 LIG 0.01  C 
ENDBRANCH 12 14
ENDBRANCH 11 12
BRANCH 11 16
ATOM     16  C   ILE D  13      20.579   8.641  67.027  1.00 55.63 LIG 0.20  C 
ATOM     17 OXT  ILE D  13      20.237   9.495  67.857  1.00 55.86 LIG-0.65  OA
ATOM     18 O    ILE D  13      21.720   8.630  66.559  1.00 56.94 LIG-0.65  OA
ENDBRANCH 11 16
ENDBRANCH 8 11
ENDBRANCH 6 7
BRANCH 6 19
ATOM     19  CB  HIS D  12      20.756   6.004  62.653  1.00 50.55 LIG 0.10  C 
BRANCH 19 20
ATOM     20  CG  HIS D  12      21.469   5.108  61.690  1.00 49.61 LIG 0.05  A 
ATOM     21 ND1  HIS D  12      21.285   4.893  60.366  1.00 49.92 LIG-0.25  NA
ATOM     22  CE1 HIS D  12      22.221   3.969  59.973  1.00 49.12 LIG 0.21  A 
ATOM     23  NE2 HIS D  12      22.969   3.646  61.011  1.00 48.62 LIG-0.36  N 
ATOM     24 HE2  HIS D  12      23.628   3.093  61.004  1.00 48.62 LIG 0.17  HD
ATOM     25  CD2 HIS D  12      22.533   4.316  62.062  1.00 48.49 LIG 0.12  A 
ENDBRANCH 19 20
ENDBRANCH 6 19
ENDBRANCH 4 6
ENDBRANCH 1 2
BRANCH 1 26
ATOM     26  CB  LEU D  11      17.449   4.298  59.647  1.00 47.69 LIG 0.04  C 
BRANCH 26 27
ATOM     27  CG  LEU D  11      17.911   3.055  58.876  1.00 48.05 LIG-0.02  C 
ATOM     28  CD1 LEU D  11      18.401   1.989  59.845  1.00 46.53 LIG 0.01  C 
ATOM     29  CD2 LEU D  11      16.841   2.503  57.963  1.00 50.43 LIG 0.01  C 
ENDBRANCH 26 27
ENDBRANCH 1 26
BRANCH 1 30
ATOM     30  N   LEU D  11      15.716   4.494  61.345  1.00 47.51 LIG-0.35  N 
ATOM     31  C   LEU D  10      14.723   3.690  60.962  1.00 47.80 LIG 0.24  C 
ATOM     32 O    LEU D  10      14.898   2.570  60.463  1.00 47.07 LIG-0.27  OA
ATOM     33 H    LEU D  11      15.588   5.248  61.739  1.00 47.51 LIG 0.16  HD
BRANCH 31 34
ATOM     34  CA  LEU D  10      13.317   4.239  61.169  1.00 47.63 LIG 0.18  C 
BRANCH 34 35
ATOM     35  CB  LEU D  10      13.298   5.761  61.064  1.00 47.29 LIG 0.04  C 
BRANCH 35 36
ATOM     36  CG  LEU D  10      13.326   6.478  62.419  1.00 46.92 LIG-0.02  C 
ATOM     37  CD2 LEU D  10      12.028   7.157  62.700  1.00 45.50 LIG 0.01  C 
ATOM     38  CD1 LEU D  10      14.460   7.498  62.503  1.00 46.83 LIG 0.01  C 
ENDBRANCH 35 36
ENDBRANCH 34 35
BRANCH 34 39
ATOM     39  N   LEU D  10      12.787   3.777  62.440  1.00 47.82 LIG-0.35  N 
ATOM     40 H    LEU D  10      13.328   3.846  63.105  1.00 47.82 LIG 0.16  HD
ATOM     41  C   ASP D   9      11.554   3.293  62.521  1.00 48.63 LIG 0.25  C 
ATOM     42 O    ASP D   9      10.804   3.191  61.553  1.00 48.10 LIG-0.27  OA
BRANCH 41 43
ATOM     43  CA  ASP D   9      11.107   2.850  63.889  1.00 49.27 LIG 0.28  C 
BRANCH 43 44
ATOM     44  N   ASP D   9      11.947   1.690  64.284  1.00 49.86 LIG-0.07  N 
ATOM     45 H2   ASP D   9      12.794   1.951  64.364  1.00 49.86 LIG 0.28  HD
ATOM     46 H3   ASP D   9      11.661   1.367  65.062  1.00 49.86 LIG 0.28  HD
ATOM     47 H1   ASP D   9      11.890   1.057  63.661  1.00 49.86 LIG 0.28  HD
ENDBRANCH 43 44
BRANCH 43 48
ATOM     48  CB  ASP D   9      11.293   4.004  64.865  1.00 50.02 LIG 0.15  C 
BRANCH 48 49
ATOM     49  CG  ASP D   9      11.313   3.554  66.296  1.00 50.84 LIG 0.17  C 
ATOM     50 OD1  ASP D   9      11.312   4.420  67.187  1.00 53.44 LIG-0.65  OA
ATOM     51 OD2  ASP D   9      11.305   2.349  66.631  1.00 53.75 LIG-0.65  OA
ENDBRANCH 48 49
ENDBRANCH 43 48
ENDBRANCH 41 43
ENDBRANCH 34 39
ENDBRANCH 31 34
ENDBRANCH 1 30
TORSDOF 20
ENDMDL
MODEL 15
USER: ADFR SOLUTION from run 89
USER: SCORE 16.705434 LL:  -5.040 LR: -13.242 RR:   0.000 FEB:  -7.276
USER: RMSD 9.861450
USER: SEED 88
USER: STATUS searching
USER: GENES 22
USER: genes 0 Translation |==|  0.45855 0.38066 0.47315
USER: genes 1 Rotation |==|  0.76081 0.07953 0.43213 0.52396
USER: genes 2 Torsion [N]-CA--C-[N] |==|  0.58312
USER: genes 3 Torsion [C]-N--CA-[CB] |==|  0.85530
USER: genes 4 Torsion [N]-CA--C-[N] |==|  0.40348
USER: genes 5 Torsion [C]-N--CA-[C] |==|  0.63038
USER: genes 6 Torsion [N]-CA--CB-[CG1] |==|  0.99896
USER: genes 7 Torsion [CA]-CB--CG1-[CD1] |==|  0.61466
USER: genes 8 Torsion [N]-CA--C-[OXT] |==|  0.50700
USER: genes 9 Torsion [N]-CA--CB-[CG] |==|  0.84177
USER: genes 10 Torsion [CA]-CB--CG-[ND1] |==|  0.31367
USER: genes 11 Torsion [C]-CA--CB-[CG] |==|  0.32874
USER: genes 12 Torsion [CA]-CB--CG-[CD2] |==|  0.12451
USER: genes 13 Torsion [C]-CA--N-[C] |==|  0.63780
USER: genes 14 Torsion [N]-C--CA-[N] |==|  0.80000
USER: genes 15 Torsion [C]-CA--CB-[CG] |==|  0.19445
USER: genes 16 Torsion [CA]-CB--CG-[CD2] |==|  0.74790
USER: genes 17 Torsion [C]-CA--N-[C] |==|  0.21076
USER: genes 18 Torsion [N]-C--CA-[N] |==|  0.62253
USER: genes 19 Torsion [C]-CA--N-[H2] |==|  0.67222
USER: genes 20 Torsion [C]-CA--CB-[CG] |==|  0.77607
USER: genes 21 Torsion [CA]-CB--CG-[OD1] |==|  0.81029
ROOT
ATOM      1  CA  LEU D  11      17.186   3.360  61.705  1.00 47.89 LIG 0.18  C 
ENDROOT
BRANCH 1 2
ATOM      2  C   LEU D  11      18.050   4.494  62.241  1.00 48.14 LIG 0.24  C 
ATOM      3 O    LEU D  11      17.930   5.633  61.812  1.00 47.13 LIG-0.27  OA
ATOM      4  N   HIS D  12      18.951   4.162  63.158  1.00 49.28 LIG-0.35  N 
ATOM      5 H    HIS D  12      19.047   3.370  63.481  1.00 49.28 LIG 0.16  HD
BRANCH 4 6
ATOM      6  CA  HIS D  12      19.870   5.160  63.695  1.00 50.49 LIG 0.18  C 
BRANCH 6 7
ATOM      7  C   HIS D  12      19.158   6.151  64.613  1.00 51.38 LIG 0.24  C 
ATOM      8  N   ILE D  13      19.884   6.573  65.635  1.00 53.16 LIG-0.34  N 
ATOM      9 H    ILE D  13      20.680   6.277  65.771  1.00 53.16 LIG 0.16  HD
ATOM     10 O    HIS D  12      18.012   6.513  64.390  1.00 51.57 LIG-0.27  OA
BRANCH 8 11
ATOM     11  CA  ILE D  13      19.482   7.559  66.652  1.00 55.12 LIG 0.19  C 
BRANCH 11 12
ATOM     12  CB  ILE D  13      18.791   6.924  67.912  1.00 55.01 LIG 0.01  C 
ATOM     13  CG2 ILE D  13      17.402   7.525  68.197  1.00 56.15 LIG 0.01  C 
BRANCH 12 14
ATOM     14  CG1 ILE D  13      18.701   5.403  67.752  1.00 55.50 LIG 0.00  C 
ATOM     15  CD1 ILE D  13      17.355   4.789  68.223  1.00 55.45 LIG 0.01  C 
ENDBRANCH 12 14
ENDBRANCH 11 12
BRANCH 11 16
ATOM     16  C   ILE D  13      20.457   8.682  67.018  1.00 55.63 LIG 0.20  C 
ATOM     17 OXT  ILE D  13      20.118   9.473  67.910  1.00 55.86 LIG-0.65  OA
ATOM     18 O    ILE D  13      21.554   8.782  66.463  1.00 56.94 LIG-0.65  OA
ENDBRANCH 11 16
ENDBRANCH 8 11
ENDBRANCH 6 7
BRANCH 6 19
ATOM     19  CB  HIS D  12      20.594   5.907  62.574  1.00 50.55 LIG 0.10  C 
BRANCH 19 20
ATOM     20  CG  HIS D  12      21.352   5.014  61.644  1.00 49.61 LIG 0.05  A 
ATOM     21 ND1  HIS D  12      21.161   4.717  60.336  1.00 49.92 LIG-0.25  NA
ATOM     22  CE1 HIS D  12      22.153   3.841  59.972  1.00 49.12 LIG 0.21  A 
ATOM     23  NE2 HIS D  12      22.940   3.626  61.010  1.00 48.62 LIG-0.36  N 
ATOM     24 HE2  HIS D  12      23.637   3.122  61.017  1.00 48.62 LIG 0.17  HD
ATOM     25  CD2 HIS D  12      22.476   4.318  62.033  1.00 48.49 LIG 0.12  A 
ENDBRANCH 19 20
ENDBRANCH 6 19
ENDBRANCH 4 6
ENDBRANCH 1 2
BRANCH 1 26
ATOM     26  CB  LEU D  11      17.998   2.073  61.798  1.00 47.69 LIG 0.04  C 
BRANCH 26 27
ATOM     27  CG  LEU D  11      17.486   0.926  62.678  1.00 48.05 LIG-0.02  C 
ATOM     28  CD1 LEU D  11      17.814   1.201  64.139  1.00 46.53 LIG 0.01  C 
ATOM     29  CD2 LEU D  11      16.010   0.665  62.497  1.00 50.43 LIG 0.01  C 
ENDBRANCH 26 27
ENDBRANCH 1 26
BRANCH 1 30
ATOM     30  N   LEU D  11      16.753   3.562  60.330  1.00 47.51 LIG-0.35  N 
ATOM     31  C   LEU D  10      15.483   3.431  59.945  1.00 47.80 LIG 0.24  C 
ATOM     32 O    LEU D  10      14.547   3.202  60.724  1.00 47.07 LIG-0.27  OA
ATOM     33 H    LEU D  11      17.390   3.774  59.792  1.00 47.51 LIG 0.16  HD
BRANCH 31 34
ATOM     34  CA  LEU D  10      15.233   3.573  58.449  1.00 47.63 LIG 0.18  C 
BRANCH 34 35
ATOM     35  CB  LEU D  10      16.143   2.647  57.647  1.00 47.29 LIG 0.04  C 
BRANCH 35 36
ATOM     36  CG  LEU D  10      15.799   1.160  57.790  1.00 46.92 LIG-0.02  C 
ATOM     37  CD2 LEU D  10      16.552   0.535  58.917  1.00 45.50 LIG 0.01  C 
ATOM     38  CD1 LEU D  10      16.074   0.383  56.505  1.00 46.83 LIG 0.01  C 
ENDBRANCH 35 36
ENDBRANCH 34 35
BRANCH 34 39
ATOM     39  N   LEU D  10      15.385   4.961  58.050  1.00 47.82 LIG-0.35  N 
ATOM     40 H    LEU D  10      14.648   5.380  57.906  1.00 47.82 LIG 0.16  HD
ATOM     41  C   ASP D   9      16.592   5.501  57.932  1.00 48.63 LIG 0.25  C 
ATOM     42 O    ASP D   9      17.632   4.878  58.131  1.00 48.10 LIG-0.27  OA
BRANCH 41 43
ATOM     43  CA  ASP D   9      16.630   6.949  57.521  1.00 49.27 LIG 0.28  C 
BRANCH 43 44
ATOM     44  N   ASP D   9      17.686   7.095  56.485  1.00 49.86 LIG-0.07  N 
ATOM     45 H2   ASP D   9      18.318   7.646  56.782  1.00 49.86 LIG 0.28  HD
ATOM     46 H3   ASP D   9      18.043   6.299  56.312  1.00 49.86 LIG 0.28  HD
ATOM     47 H1   ASP D   9      17.328   7.427  55.741  1.00 49.86 LIG 0.28  HD
ENDBRANCH 43 44
BRANCH 43 48
ATOM     48  CB  ASP D   9      15.270   7.337  56.959  1.00 50.02 LIG 0.15  C 
BRANCH 48 49
ATOM     49  CG  ASP D   9      15.090   6.909  55.532  1.00 50.84 LIG 0.17  C 
ATOM     50 OD1  ASP D   9      15.773   7.467  54.657  1.00 53.44 LIG-0.65  OA
ATOM     51 OD2  ASP D   9      14.303   5.998  55.188  1.00 53.75 LIG-0.65  OA
ENDBRANCH 48 49
ENDBRANCH 43 48
ENDBRANCH 41 43
ENDBRANCH 34 39
ENDBRANCH 31 34
ENDBRANCH 1 30
TORSDOF 20
ENDMDL
MODEL 16
USER: ADFR SOLUTION from run 31
USER: SCORE 17.600759 LL:  -4.772 LR: -13.231 RR:   0.000 FEB:  -7.265
USER: RMSD 5.645256
USER: SEED 30
USER: STATUS searching
USER: GENES 22
USER: genes 0 Translation |==|  0.52392 0.47922 0.64041
USER: genes 1 Rotation |==|  0.30538 0.21849 0.20816 0.71842
USER: genes 2 Torsion [N]-CA--C-[N] |==|  0.87931
USER: genes 3 Torsion [C]-N--CA-[CB] |==|  0.82890
USER: genes 4 Torsion [N]-CA--C-[N] |==|  0.39431
USER: genes 5 Torsion [C]-N--CA-[C] |==|  0.55151
USER: genes 6 Torsion [N]-CA--CB-[CG1] |==|  0.70970
USER: genes 7 Torsion [CA]-CB--CG1-[CD1] |==|  0.83042
USER: genes 8 Torsion [N]-CA--C-[OXT] |==|  0.84843
USER: genes 9 Torsion [N]-CA--CB-[CG] |==|  0.37673
USER: genes 10 Torsion [CA]-CB--CG-[ND1] |==|  0.19307
USER: genes 11 Torsion [C]-CA--CB-[CG] |==|  0.26311
USER: genes 12 Torsion [CA]-CB--CG-[CD2] |==|  0.77193
USER: genes 13 Torsion [C]-CA--N-[C] |==|  0.80861
USER: genes 14 Torsion [N]-C--CA-[N] |==|  0.16491
USER: genes 15 Torsion [C]-CA--CB-[CG] |==|  0.81978
USER: genes 16 Torsion [CA]-CB--CG-[CD2] |==|  0.73444
USER: genes 17 Torsion [C]-CA--N-[C] |==|  0.76460
USER: genes 18 Torsion [N]-C--CA-[N] |==|  0.70408
USER: genes 19 Torsion [C]-CA--N-[H2] |==|  0.11092
USER: genes 20 Torsion [C]-CA--CB-[CG] |==|  0.59131
USER: genes 21 Torsion [CA]-CB--CG-[OD1] |==|  0.40993
ROOT
ATOM      1  CA  LEU D  11      19.148   6.317  66.722  1.00 47.89 LIG 0.18  C 
ENDROOT
BRANCH 1 2
ATOM      2  C   LEU D  11      19.502   5.915  65.297  1.00 48.14 LIG 0.24  C 
ATOM      3 O    LEU D  11      20.305   5.017  65.077  1.00 47.13 LIG-0.27  OA
ATOM      4  N   HIS D  12      18.925   6.616  64.328  1.00 49.28 LIG-0.35  N 
ATOM      5 H    HIS D  12      18.352   7.244  64.458  1.00 49.28 LIG 0.16  HD
BRANCH 4 6
ATOM      6  CA  HIS D  12      19.241   6.354  62.928  1.00 50.49 LIG 0.18  C 
BRANCH 6 7
ATOM      7  C   HIS D  12      18.857   4.934  62.517  1.00 51.38 LIG 0.24  C 
ATOM      8  N   ILE D  13      18.361   4.831  61.294  1.00 53.16 LIG-0.34  N 
ATOM      9 H    ILE D  13      18.245   5.525  60.800  1.00 53.16 LIG 0.16  HD
ATOM     10 O    HIS D  12      19.015   3.988  63.275  1.00 51.57 LIG-0.27  OA
BRANCH 8 11
ATOM     11  CA  ILE D  13      17.950   3.592  60.613  1.00 55.12 LIG 0.19  C 
BRANCH 11 12
ATOM     12  CB  ILE D  13      16.770   2.839  61.327  1.00 55.01 LIG 0.01  C 
ATOM     13  CG2 ILE D  13      15.642   2.443  60.356  1.00 56.15 LIG 0.01  C 
BRANCH 12 14
ATOM     14  CG1 ILE D  13      17.304   1.609  62.069  1.00 55.50 LIG 0.00  C 
ATOM     15  CD1 ILE D  13      17.988   0.558  61.154  1.00 55.45 LIG 0.01  C 
ENDBRANCH 12 14
ENDBRANCH 11 12
BRANCH 11 16
ATOM     16  C   ILE D  13      17.809   3.600  59.088  1.00 55.63 LIG 0.20  C 
ATOM     17 OXT  ILE D  13      17.069   4.455  58.581  1.00 55.86 LIG-0.65  OA
ATOM     18 O    ILE D  13      18.430   2.800  58.385  1.00 56.94 LIG-0.65  OA
ENDBRANCH 11 16
ENDBRANCH 8 11
ENDBRANCH 6 7
BRANCH 6 19
ATOM     19  CB  HIS D  12      20.723   6.603  62.637  1.00 50.55 LIG 0.10  C 
BRANCH 19 20
ATOM     20  CG  HIS D  12      21.362   5.539  61.803  1.00 49.61 LIG 0.05  A 
ATOM     21 ND1  HIS D  12      21.198   5.205  60.501  1.00 49.92 LIG-0.25  NA
ATOM     22  CE1 HIS D  12      22.037   4.150  60.246  1.00 49.12 LIG 0.21  A 
ATOM     23  NE2 HIS D  12      22.711   3.860  61.343  1.00 48.62 LIG-0.36  N 
ATOM     24 HE2  HIS D  12      23.305   3.243  61.422  1.00 48.62 LIG 0.17  HD
ATOM     25  CD2 HIS D  12      22.319   4.681  62.300  1.00 48.49 LIG 0.12  A 
ENDBRANCH 19 20
ENDBRANCH 6 19
ENDBRANCH 4 6
ENDBRANCH 1 2
BRANCH 1 26
ATOM     26  CB  LEU D  11      17.770   5.744  67.038  1.00 47.69 LIG 0.04  C 
BRANCH 26 27
ATOM     27  CG  LEU D  11      17.667   4.390  67.750  1.00 48.05 LIG-0.02  C 
ATOM     28  CD1 LEU D  11      16.363   4.307  68.530  1.00 46.53 LIG 0.01  C 
ATOM     29  CD2 LEU D  11      17.805   3.221  66.805  1.00 50.43 LIG 0.01  C 
ENDBRANCH 26 27
ENDBRANCH 1 26
BRANCH 1 30
ATOM     30  N   LEU D  11      19.135   7.757  66.932  1.00 47.51 LIG-0.35  N 
ATOM     31  C   LEU D  10      20.242   8.501  66.910  1.00 47.80 LIG 0.24  C 
ATOM     32 O    LEU D  10      21.365   8.057  66.635  1.00 47.07 LIG-0.27  OA
ATOM     33 H    LEU D  11      18.351   8.081  67.071  1.00 47.51 LIG 0.16  HD
BRANCH 31 34
ATOM     34  CA  LEU D  10      20.051   9.972  67.258  1.00 47.63 LIG 0.18  C 
BRANCH 34 35
ATOM     35  CB  LEU D  10      21.356  10.748  67.110  1.00 47.29 LIG 0.04  C 
BRANCH 35 36
ATOM     36  CG  LEU D  10      22.450  10.315  68.093  1.00 46.92 LIG-0.02  C 
ATOM     37  CD2 LEU D  10      22.469  11.189  69.302  1.00 45.50 LIG 0.01  C 
ATOM     38  CD1 LEU D  10      23.833  10.316  67.445  1.00 46.83 LIG 0.01  C 
ENDBRANCH 35 36
ENDBRANCH 34 35
BRANCH 34 39
ATOM     39  N   LEU D  10      19.494  10.097  68.594  1.00 47.82 LIG-0.35  N 
ATOM     40 H    LEU D  10      20.073  10.222  69.218  1.00 47.82 LIG 0.16  HD
ATOM     41  C   ASP D   9      18.184  10.016  68.789  1.00 48.63 LIG 0.25  C 
ATOM     42 O    ASP D   9      17.377   9.822  67.883  1.00 48.10 LIG-0.27  OA
BRANCH 41 43
ATOM     43  CA  ASP D   9      17.718  10.167  70.214  1.00 49.27 LIG 0.28  C 
BRANCH 43 44
ATOM     44  N   ASP D   9      17.306   8.824  70.696  1.00 49.86 LIG-0.07  N 
ATOM     45 H2   ASP D   9      17.877   8.212  70.394  1.00 49.86 LIG 0.28  HD
ATOM     46 H3   ASP D   9      17.305   8.815  71.586  1.00 49.86 LIG 0.28  HD
ATOM     47 H1   ASP D   9      16.488   8.639  70.398  1.00 49.86 LIG 0.28  HD
ENDBRANCH 43 44
BRANCH 43 48
ATOM     48  CB  ASP D   9      18.867  10.709  71.052  1.00 50.02 LIG 0.15  C 
BRANCH 48 49
ATOM     49  CG  ASP D   9      18.849  10.195  72.461  1.00 50.84 LIG 0.17  C 
ATOM     50 OD1  ASP D   9      19.934  10.026  73.043  1.00 53.44 LIG-0.65  OA
ATOM     51 OD2  ASP D   9      17.790   9.954  73.085  1.00 53.75 LIG-0.65  OA
ENDBRANCH 48 49
ENDBRANCH 43 48
ENDBRANCH 41 43
ENDBRANCH 34 39
ENDBRANCH 31 34
ENDBRANCH 1 30
TORSDOF 20
ENDMDL
MODEL 17
USER: ADFR SOLUTION from run 94
USER: SCORE 16.604538 LL:  -4.665 LR: -13.215 RR:   0.000 FEB:  -7.249
USER: RMSD 5.141391
USER: SEED 93
USER: STATUS no improvement in best 11 clusters for 5 generations
USER: GENES 22
USER: genes 0 Translation |==|  0.50412 0.38065 0.45020
USER: genes 1 Rotation |==|  0.21954 0.35412 0.22833 0.77614
USER: genes 2 Torsion [N]-CA--C-[N] |==|  0.78938
USER: genes 3 Torsion [C]-N--CA-[CB] |==|  0.83026
USER: genes 4 Torsion [N]-CA--C-[N] |==|  0.46899
USER: genes 5 Torsion [C]-N--CA-[C] |==|  0.97476
USER: genes 6 Torsion [N]-CA--CB-[CG1] |==|  0.75328
USER: genes 7 Torsion [CA]-CB--CG1-[CD1] |==|  0.11757
USER: genes 8 Torsion [N]-CA--C-[OXT] |==|  0.31111
USER: genes 9 Torsion [N]-CA--CB-[CG] |==|  0.85591
USER: genes 10 Torsion [CA]-CB--CG-[ND1] |==|  0.15332
USER: genes 11 Torsion [C]-CA--CB-[CG] |==|  0.27926
USER: genes 12 Torsion [CA]-CB--CG-[CD2] |==|  0.64839
USER: genes 13 Torsion [C]-CA--N-[C] |==|  0.55556
USER: genes 14 Torsion [N]-C--CA-[N] |==|  0.37459
USER: genes 15 Torsion [C]-CA--CB-[CG] |==|  0.06958
USER: genes 16 Torsion [CA]-CB--CG-[CD2] |==|  0.73533
USER: genes 17 Torsion [C]-CA--N-[C] |==|  0.81893
USER: genes 18 Torsion [N]-C--CA-[N] |==|  0.88084
USER: genes 19 Torsion [C]-CA--N-[H2] |==|  0.58062
USER: genes 20 Torsion [C]-CA--CB-[CG] |==|  0.79347
USER: genes 21 Torsion [CA]-CB--CG-[OD1] |==|  0.84555
ROOT
ATOM      1  CA  LEU D  11      18.554   3.360  61.016  1.00 47.89 LIG 0.18  C 
ENDROOT
BRANCH 1 2
ATOM      2  C   LEU D  11      17.953   3.305  59.617  1.00 48.14 LIG 0.24  C 
ATOM      3 O    LEU D  11      18.575   2.815  58.684  1.00 47.13 LIG-0.27  OA
ATOM      4  N   HIS D  12      16.751   3.850  59.473  1.00 49.28 LIG-0.35  N 
ATOM      5 H    HIS D  12      16.292   4.192  60.116  1.00 49.28 LIG 0.16  HD
BRANCH 4 6
ATOM      6  CA  HIS D  12      16.110   3.905  58.164  1.00 50.49 LIG 0.18  C 
BRANCH 6 7
ATOM      7  C   HIS D  12      15.847   2.510  57.602  1.00 51.38 LIG 0.24  C 
ATOM      8  N   ILE D  13      15.066   2.485  56.534  1.00 53.16 LIG-0.34  N 
ATOM      9 H    ILE D  13      14.720   3.206  56.217  1.00 53.16 LIG 0.16  HD
ATOM     10 O    HIS D  12      16.340   1.516  58.114  1.00 51.57 LIG-0.27  OA
BRANCH 8 11
ATOM     11  CA  ILE D  13      14.678   1.298  55.755  1.00 55.12 LIG 0.19  C 
BRANCH 11 12
ATOM     12  CB  ILE D  13      14.525   1.574  54.215  1.00 55.01 LIG 0.01  C 
ATOM     13  CG2 ILE D  13      14.923   0.363  53.350  1.00 56.15 LIG 0.01  C 
BRANCH 12 14
ATOM     14  CG1 ILE D  13      13.093   2.018  53.901  1.00 55.50 LIG 0.00  C 
ATOM     15  CD1 ILE D  13      12.499   3.028  54.920  1.00 55.45 LIG 0.01  C 
ENDBRANCH 12 14
ENDBRANCH 11 12
BRANCH 11 16
ATOM     16  C   ILE D  13      15.369  -0.037  56.049  1.00 55.63 LIG 0.20  C 
ATOM     17 OXT  ILE D  13      14.689  -0.939  56.556  1.00 55.86 LIG-0.65  OA
ATOM     18 O    ILE D  13      16.556  -0.218  55.767  1.00 56.94 LIG-0.65  OA
ENDBRANCH 11 16
ENDBRANCH 8 11
ENDBRANCH 6 7
BRANCH 6 19
ATOM     19  CB  HIS D  12      16.941   4.723  57.173  1.00 50.55 LIG 0.10  C 
BRANCH 19 20
ATOM     20  CG  HIS D  12      17.320   6.079  57.679  1.00 49.61 LIG 0.05  A 
ATOM     21 ND1  HIS D  12      17.966   6.465  58.804  1.00 49.92 LIG-0.25  NA
ATOM     22  CE1 HIS D  12      18.055   7.834  58.770  1.00 49.12 LIG 0.21  A 
ATOM     23  NE2 HIS D  12      17.505   8.274  57.653  1.00 48.62 LIG-0.36  N 
ATOM     24 HE2  HIS D  12      17.454   9.096  57.407  1.00 48.62 LIG 0.17  HD
ATOM     25  CD2 HIS D  12      17.049   7.235  56.978  1.00 48.49 LIG 0.12  A 
ENDBRANCH 19 20
ENDBRANCH 6 19
ENDBRANCH 4 6
ENDBRANCH 1 2
BRANCH 1 26
ATOM     26  CB  LEU D  11      17.469   2.948  62.005  1.00 47.69 LIG 0.04  C 
BRANCH 26 27
ATOM     27  CG  LEU D  11      17.467   1.520  62.564  1.00 48.05 LIG-0.02  C 
ATOM     28  CD1 LEU D  11      17.871   1.532  64.031  1.00 46.53 LIG 0.01  C 
ATOM     29  CD2 LEU D  11      16.143   0.820  62.375  1.00 50.43 LIG 0.01  C 
ENDBRANCH 26 27
ENDBRANCH 1 26
BRANCH 1 30
ATOM     30  N   LEU D  11      19.065   4.674  61.375  1.00 47.51 LIG-0.35  N 
ATOM     31  C   LEU D  10      19.955   4.862  62.352  1.00 47.80 LIG 0.24  C 
ATOM     32 O    LEU D  10      20.484   3.940  62.989  1.00 47.07 LIG-0.27  OA
ATOM     33 H    LEU D  11      18.742   5.314  60.902  1.00 47.51 LIG 0.16  HD
BRANCH 31 34
ATOM     34  CA  LEU D  10      20.292   6.315  62.661  1.00 47.63 LIG 0.18  C 
BRANCH 34 35
ATOM     35  CB  LEU D  10      21.618   6.720  62.024  1.00 47.29 LIG 0.04  C 
BRANCH 35 36
ATOM     36  CG  LEU D  10      21.996   5.888  60.793  1.00 46.92 LIG-0.02  C 
ATOM     37  CD2 LEU D  10      22.904   4.761  61.158  1.00 45.50 LIG 0.01  C 
ATOM     38  CD1 LEU D  10      22.656   6.738  59.709  1.00 46.83 LIG 0.01  C 
ENDBRANCH 35 36
ENDBRANCH 34 35
BRANCH 34 39
ATOM     39  N   LEU D  10      20.294   6.529  64.098  1.00 47.82 LIG-0.35  N 
ATOM     40 H    LEU D  10      21.059   6.732  64.434  1.00 47.82 LIG 0.16  HD
ATOM     41  C   ASP D   9      19.173   6.409  64.799  1.00 48.63 LIG 0.25  C 
ATOM     42 O    ASP D   9      18.093   6.103  64.298  1.00 48.10 LIG-0.27  OA
BRANCH 41 43
ATOM     43  CA  ASP D   9      19.290   6.660  66.279  1.00 49.27 LIG 0.28  C 
BRANCH 43 44
ATOM     44  N   ASP D   9      20.528   5.989  66.752  1.00 49.86 LIG-0.07  N 
ATOM     45 H2   ASP D   9      20.429   5.749  67.604  1.00 49.86 LIG 0.28  HD
ATOM     46 H3   ASP D   9      20.683   5.266  66.257  1.00 49.86 LIG 0.28  HD
ATOM     47 H1   ASP D   9      21.216   6.550  66.681  1.00 49.86 LIG 0.28  HD
ENDBRANCH 43 44
BRANCH 43 48
ATOM     48  CB  ASP D   9      19.368   8.161  66.519  1.00 50.02 LIG 0.15  C 
BRANCH 48 49
ATOM     49  CG  ASP D   9      20.701   8.738  66.146  1.00 50.84 LIG 0.17  C 
ATOM     50 OD1  ASP D   9      21.721   8.256  66.668  1.00 53.44 LIG-0.65  OA
ATOM     51 OD2  ASP D   9      20.834   9.665  65.315  1.00 53.75 LIG-0.65  OA
ENDBRANCH 48 49
ENDBRANCH 43 48
ENDBRANCH 41 43
ENDBRANCH 34 39
ENDBRANCH 31 34
ENDBRANCH 1 30
TORSDOF 20
ENDMDL
MODEL 18
USER: ADFR SOLUTION from run 160
USER: SCORE 16.537487 LL:  -4.584 LR: -13.204 RR:   0.000 FEB:  -7.238
USER: RMSD 10.223127
USER: SEED 159
USER: STATUS no improvement in best 9 clusters for 5 generations
USER: GENES 22
USER: genes 0 Translation |==|  0.47021 0.36479 0.47971
USER: genes 1 Rotation |==|  0.29895 0.93976 0.59562 0.58395
USER: genes 2 Torsion [N]-CA--C-[N] |==|  0.99373
USER: genes 3 Torsion [C]-N--CA-[CB] |==|  0.45000
USER: genes 4 Torsion [N]-CA--C-[N] |==|  0.44744
USER: genes 5 Torsion [C]-N--CA-[C] |==|  0.63944
USER: genes 6 Torsion [N]-CA--CB-[CG1] |==|  0.98404
USER: genes 7 Torsion [CA]-CB--CG1-[CD1] |==|  0.56183
USER: genes 8 Torsion [N]-CA--C-[OXT] |==|  0.49168
USER: genes 9 Torsion [N]-CA--CB-[CG] |==|  0.89760
USER: genes 10 Torsion [CA]-CB--CG-[ND1] |==|  0.99600
USER: genes 11 Torsion [C]-CA--CB-[CG] |==|  0.40999
USER: genes 12 Torsion [CA]-CB--CG-[CD2] |==|  0.16991
USER: genes 13 Torsion [C]-CA--N-[C] |==|  0.75448
USER: genes 14 Torsion [N]-C--CA-[N] |==|  0.21354
USER: genes 15 Torsion [C]-CA--CB-[CG] |==|  0.43136
USER: genes 16 Torsion [CA]-CB--CG-[CD2] |==|  0.40451
USER: genes 17 Torsion [C]-CA--N-[C] |==|  0.75795
USER: genes 18 Torsion [N]-C--CA-[N] |==|  0.64396
USER: genes 19 Torsion [C]-CA--N-[H2] |==|  0.56117
USER: genes 20 Torsion [C]-CA--CB-[CG] |==|  0.27561
USER: genes 21 Torsion [CA]-CB--CG-[OD1] |==|  0.24137
ROOT
ATOM      1  CA  LEU D  11      17.536   2.884  61.901  1.00 47.89 LIG 0.18  C 
ENDROOT
BRANCH 1 2
ATOM      2  C   LEU D  11      18.447   3.494  62.959  1.00 48.14 LIG 0.24  C 
ATOM      3 O    LEU D  11      18.430   3.089  64.114  1.00 47.13 LIG-0.27  OA
ATOM      4  N   HIS D  12      19.217   4.500  62.561  1.00 49.28 LIG-0.35  N 
ATOM      5 H    HIS D  12      19.253   4.795  61.753  1.00 49.28 LIG 0.16  HD
BRANCH 4 6
ATOM      6  CA  HIS D  12      20.083   5.195  63.507  1.00 50.49 LIG 0.18  C 
BRANCH 6 7
ATOM      7  C   HIS D  12      19.290   6.116  64.431  1.00 51.38 LIG 0.24  C 
ATOM      8  N   ILE D  13      19.925   6.464  65.538  1.00 53.16 LIG-0.34  N 
ATOM      9 H    ILE D  13      20.709   6.160  65.718  1.00 53.16 LIG 0.16  HD
ATOM     10 O    HIS D  12      18.164   6.492  64.139  1.00 51.57 LIG-0.27  OA
BRANCH 8 11
ATOM     11  CA  ILE D  13      19.433   7.374  66.586  1.00 55.12 LIG 0.19  C 
BRANCH 11 12
ATOM     12  CB  ILE D  13      18.715   6.640  67.775  1.00 55.01 LIG 0.01  C 
ATOM     13  CG2 ILE D  13      17.342   7.252  68.111  1.00 56.15 LIG 0.01  C 
BRANCH 12 14
ATOM     14  CG1 ILE D  13      18.583   5.145  67.468  1.00 55.50 LIG 0.00  C 
ATOM     15  CD1 ILE D  13      17.456   4.427  68.259  1.00 55.45 LIG 0.01  C 
ENDBRANCH 12 14
ENDBRANCH 11 12
BRANCH 11 16
ATOM     16  C   ILE D  13      20.339   8.516  67.058  1.00 55.63 LIG 0.20  C 
ATOM     17 OXT  ILE D  13      19.883   9.303  67.899  1.00 55.86 LIG-0.65  OA
ATOM     18 O    ILE D  13      21.491   8.634  66.635  1.00 56.94 LIG-0.65  OA
ENDBRANCH 11 16
ENDBRANCH 8 11
ENDBRANCH 6 7
BRANCH 6 19
ATOM     19  CB  HIS D  12      21.174   5.987  62.783  1.00 50.55 LIG 0.10  C 
BRANCH 19 20
ATOM     20  CG  HIS D  12      21.704   5.306  61.561  1.00 49.61 LIG 0.05  A 
ATOM     21 ND1  HIS D  12      21.406   4.107  61.006  1.00 49.92 LIG-0.25  NA
ATOM     22  CE1 HIS D  12      22.187   3.976  59.885  1.00 49.12 LIG 0.21  A 
ATOM     23  NE2 HIS D  12      22.920   5.064  59.741  1.00 48.62 LIG-0.36  N 
ATOM     24 HE2  HIS D  12      23.477   5.215  59.104  1.00 48.62 LIG 0.17  HD
ATOM     25  CD2 HIS D  12      22.652   5.881  60.743  1.00 48.49 LIG 0.12  A 
ENDBRANCH 19 20
ENDBRANCH 6 19
ENDBRANCH 4 6
ENDBRANCH 1 2
BRANCH 1 26
ATOM     26  CB  LEU D  11      17.923   1.418  61.743  1.00 47.69 LIG 0.04  C 
BRANCH 26 27
ATOM     27  CG  LEU D  11      16.840   0.391  61.389  1.00 48.05 LIG-0.02  C 
ATOM     28  CD1 LEU D  11      15.806   0.315  62.504  1.00 46.53 LIG 0.01  C 
ATOM     29  CD2 LEU D  11      16.180   0.673  60.060  1.00 50.43 LIG 0.01  C 
ENDBRANCH 26 27
ENDBRANCH 1 26
BRANCH 1 30
ATOM     30  N   LEU D  11      17.621   3.550  60.610  1.00 47.51 LIG-0.35  N 
ATOM     31  C   LEU D  10      16.863   4.599  60.286  1.00 47.80 LIG 0.24  C 
ATOM     32 O    LEU D  10      16.077   5.149  61.070  1.00 47.07 LIG-0.27  OA
ATOM     33 H    LEU D  11      18.203   3.206  60.078  1.00 47.51 LIG 0.16  HD
BRANCH 31 34
ATOM     34  CA  LEU D  10      17.010   5.097  58.854  1.00 47.63 LIG 0.18  C 
BRANCH 34 35
ATOM     35  CB  LEU D  10      16.546   6.545  58.723  1.00 47.29 LIG 0.04  C 
BRANCH 35 36
ATOM     36  CG  LEU D  10      17.182   7.297  57.549  1.00 46.92 LIG-0.02  C 
ATOM     37  CD2 LEU D  10      16.226   8.274  56.950  1.00 45.50 LIG 0.01  C 
ATOM     38  CD1 LEU D  10      17.680   6.346  56.463  1.00 46.83 LIG 0.01  C 
ENDBRANCH 35 36
ENDBRANCH 34 35
BRANCH 34 39
ATOM     39  N   LEU D  10      16.295   4.215  57.946  1.00 47.82 LIG-0.35  N 
ATOM     40 H    LEU D  10      15.486   4.450  57.774  1.00 47.82 LIG 0.16  HD
ATOM     41  C   ASP D   9      16.888   3.139  57.445  1.00 48.63 LIG 0.25  C 
ATOM     42 O    ASP D   9      18.042   2.815  57.717  1.00 48.10 LIG-0.27  OA
BRANCH 41 43
ATOM     43  CA  ASP D   9      16.055   2.301  56.510  1.00 49.27 LIG 0.28  C 
BRANCH 43 44
ATOM     44  N   ASP D   9      16.114   0.897  56.991  1.00 49.86 LIG-0.07  N 
ATOM     45 H2   ASP D   9      15.918   0.345  56.320  1.00 49.86 LIG 0.28  HD
ATOM     46 H3   ASP D   9      16.933   0.720  57.291  1.00 49.86 LIG 0.28  HD
ATOM     47 H1   ASP D   9      15.527   0.783  57.649  1.00 49.86 LIG 0.28  HD
ENDBRANCH 43 44
BRANCH 43 48
ATOM     48  CB  ASP D   9      14.623   2.817  56.532  1.00 50.02 LIG 0.15  C 
BRANCH 48 49
ATOM     49  CG  ASP D   9      14.312   3.711  55.369  1.00 50.84 LIG 0.17  C 
ATOM     50 OD1  ASP D   9      13.924   3.190  54.310  1.00 53.44 LIG-0.65  OA
ATOM     51 OD2  ASP D   9      14.400   4.959  55.426  1.00 53.75 LIG-0.65  OA
ENDBRANCH 48 49
ENDBRANCH 43 48
ENDBRANCH 41 43
ENDBRANCH 34 39
ENDBRANCH 31 34
ENDBRANCH 1 30
TORSDOF 20
ENDMDL
MODEL 19
USER: ADFR SOLUTION from run 88
USER: SCORE 17.107642 LL:  -4.806 LR: -13.192 RR:   0.000 FEB:  -7.226
USER: RMSD 10.938728
USER: SEED 87
USER: STATUS no improvement in best 8 clusters for 5 generations
USER: GENES 22
USER: genes 0 Translation |==|  0.45597 0.38265 0.47563
USER: genes 1 Rotation |==|  0.76143 0.08780 0.39841 0.53776
USER: genes 2 Torsion [N]-CA--C-[N] |==|  0.55930
USER: genes 3 Torsion [C]-N--CA-[CB] |==|  0.85400
USER: genes 4 Torsion [N]-CA--C-[N] |==|  0.39517
USER: genes 5 Torsion [C]-N--CA-[C] |==|  0.63431
USER: genes 6 Torsion [N]-CA--CB-[CG1] |==|  0.98442
USER: genes 7 Torsion [CA]-CB--CG1-[CD1] |==|  0.57541
USER: genes 8 Torsion [N]-CA--C-[OXT] |==|  0.00667
USER: genes 9 Torsion [N]-CA--CB-[CG] |==|  0.84151
USER: genes 10 Torsion [CA]-CB--CG-[ND1] |==|  0.29163
USER: genes 11 Torsion [C]-CA--CB-[CG] |==|  0.32677
USER: genes 12 Torsion [CA]-CB--CG-[CD2] |==|  0.16985
USER: genes 13 Torsion [C]-CA--N-[C] |==|  0.59118
USER: genes 14 Torsion [N]-C--CA-[N] |==|  0.27993
USER: genes 15 Torsion [C]-CA--CB-[CG] |==|  0.48321
USER: genes 16 Torsion [CA]-CB--CG-[CD2] |==|  0.25139
USER: genes 17 Torsion [C]-CA--N-[C] |==|  0.76508
USER: genes 18 Torsion [N]-C--CA-[N] |==|  0.76049
USER: genes 19 Torsion [C]-CA--N-[H2] |==|  0.96491
USER: genes 20 Torsion [C]-CA--CB-[CG] |==|  0.60175
USER: genes 21 Torsion [CA]-CB--CG-[OD1] |==|  0.67997
ROOT
ATOM      1  CA  LEU D  11      17.109   3.420  61.779  1.00 47.89 LIG 0.18  C 
ENDROOT
BRANCH 1 2
ATOM      2  C   LEU D  11      18.013   4.524  62.311  1.00 48.14 LIG 0.24  C 
ATOM      3 O    LEU D  11      17.927   5.668  61.885  1.00 47.13 LIG-0.27  OA
ATOM      4  N   HIS D  12      18.911   4.160  63.220  1.00 49.28 LIG-0.35  N 
ATOM      5 H    HIS D  12      18.984   3.366  63.540  1.00 49.28 LIG 0.16  HD
BRANCH 4 6
ATOM      6  CA  HIS D  12      19.866   5.127  63.752  1.00 50.49 LIG 0.18  C 
BRANCH 6 7
ATOM      7  C   HIS D  12      19.191   6.145  64.669  1.00 51.38 LIG 0.24  C 
ATOM      8  N   ILE D  13      19.910   6.497  65.722  1.00 53.16 LIG-0.34  N 
ATOM      9 H    ILE D  13      20.680   6.146  65.875  1.00 53.16 LIG 0.16  HD
ATOM     10 O    HIS D  12      18.079   6.587  64.418  1.00 51.57 LIG-0.27  OA
BRANCH 8 11
ATOM     11  CA  ILE D  13      19.542   7.488  66.747  1.00 55.12 LIG 0.19  C 
BRANCH 11 12
ATOM     12  CB  ILE D  13      18.801   6.869  67.987  1.00 55.01 LIG 0.01  C 
ATOM     13  CG2 ILE D  13      17.501   7.617  68.339  1.00 56.15 LIG 0.01  C 
BRANCH 12 14
ATOM     14  CG1 ILE D  13      18.523   5.382  67.746  1.00 55.50 LIG 0.00  C 
ATOM     15  CD1 ILE D  13      17.289   4.830  68.510  1.00 55.45 LIG 0.01  C 
ENDBRANCH 12 14
ENDBRANCH 11 12
BRANCH 11 16
ATOM     16  C   ILE D  13      20.565   8.556  67.144  1.00 55.63 LIG 0.20  C 
ATOM     17 OXT  ILE D  13      21.650   8.566  66.546  1.00 55.86 LIG-0.65  OA
ATOM     18 O    ILE D  13      20.309   9.395  68.011  1.00 56.94 LIG-0.65  OA
ENDBRANCH 11 16
ENDBRANCH 8 11
ENDBRANCH 6 7
BRANCH 6 19
ATOM     19  CB  HIS D  12      20.613   5.846  62.626  1.00 50.55 LIG 0.10  C 
BRANCH 19 20
ATOM     20  CG  HIS D  12      21.337   4.924  61.698  1.00 49.61 LIG 0.05  A 
ATOM     21 ND1  HIS D  12      21.054   4.522  60.436  1.00 49.92 LIG-0.25  NA
ATOM     22  CE1 HIS D  12      22.059   3.671  60.048  1.00 49.12 LIG 0.21  A 
ATOM     23  NE2 HIS D  12      22.941   3.572  61.025  1.00 48.62 LIG-0.36  N 
ATOM     24 HE2  HIS D  12      23.662   3.104  61.007  1.00 48.62 LIG 0.17  HD
ATOM     25  CD2 HIS D  12      22.527   4.315  62.035  1.00 48.49 LIG 0.12  A 
ENDBRANCH 19 20
ENDBRANCH 6 19
ENDBRANCH 4 6
ENDBRANCH 1 2
BRANCH 1 26
ATOM     26  CB  LEU D  11      17.946   2.150  61.660  1.00 47.69 LIG 0.04  C 
BRANCH 26 27
ATOM     27  CG  LEU D  11      17.569   0.923  62.500  1.00 48.05 LIG-0.02  C 
ATOM     28  CD1 LEU D  11      17.707   1.241  63.982  1.00 46.53 LIG 0.01  C 
ATOM     29  CD2 LEU D  11      16.186   0.403  62.186  1.00 50.43 LIG 0.01  C 
ENDBRANCH 26 27
ENDBRANCH 1 26
BRANCH 1 30
ATOM     30  N   LEU D  11      16.513   3.731  60.488  1.00 47.51 LIG-0.35  N 
ATOM     31  C   LEU D  10      15.299   3.308  60.131  1.00 47.80 LIG 0.24  C 
ATOM     32 O    LEU D  10      14.539   2.682  60.883  1.00 47.07 LIG-0.27  OA
ATOM     33 H    LEU D  11      17.014   4.211  59.980  1.00 47.51 LIG 0.16  HD
BRANCH 31 34
ATOM     34  CA  LEU D  10      14.884   3.637  58.703  1.00 47.63 LIG 0.18  C 
BRANCH 34 35
ATOM     35  CB  LEU D  10      13.457   4.175  58.653  1.00 47.29 LIG 0.04  C 
BRANCH 35 36
ATOM     36  CG  LEU D  10      13.025   4.663  57.266  1.00 46.92 LIG-0.02  C 
ATOM     37  CD2 LEU D  10      12.392   3.566  56.478  1.00 45.50 LIG 0.01  C 
ATOM     38  CD1 LEU D  10      14.194   5.246  56.475  1.00 46.83 LIG 0.01  C 
ENDBRANCH 35 36
ENDBRANCH 34 35
BRANCH 34 39
ATOM     39  N   LEU D  10      15.053   2.469  57.856  1.00 47.82 LIG-0.35  N 
ATOM     40 H    LEU D  10      14.343   1.995  57.746  1.00 47.82 LIG 0.16  HD
ATOM     41  C   ASP D   9      16.232   2.194  57.312  1.00 48.63 LIG 0.25  C 
ATOM     42 O    ASP D   9      17.236   2.879  57.495  1.00 48.10 LIG-0.27  OA
BRANCH 41 43
ATOM     43  CA  ASP D   9      16.289   0.962  56.447  1.00 49.27 LIG 0.28  C 
BRANCH 43 44
ATOM     44  N   ASP D   9      16.555  -0.199  57.335  1.00 49.86 LIG-0.07  N 
ATOM     45 H2   ASP D   9      16.802   0.092  58.138  1.00 49.86 LIG 0.28  HD
ATOM     46 H3   ASP D   9      15.816  -0.689  57.411  1.00 49.86 LIG 0.28  HD
ATOM     47 H1   ASP D   9      17.206  -0.696  56.987  1.00 49.86 LIG 0.28  HD
ENDBRANCH 43 44
BRANCH 43 48
ATOM     48  CB  ASP D   9      14.954   0.799  55.735  1.00 50.02 LIG 0.15  C 
BRANCH 48 49
ATOM     49  CG  ASP D   9      14.543  -0.637  55.597  1.00 50.84 LIG 0.17  C 
ATOM     50 OD1  ASP D   9      14.461  -1.121  54.455  1.00 53.44 LIG-0.65  OA
ATOM     51 OD2  ASP D   9      14.306  -1.375  56.579  1.00 53.75 LIG-0.65  OA
ENDBRANCH 48 49
ENDBRANCH 43 48
ENDBRANCH 41 43
ENDBRANCH 34 39
ENDBRANCH 31 34
ENDBRANCH 1 30
TORSDOF 20
ENDMDL
MODEL 20
USER: ADFR SOLUTION from run 121
USER: SCORE 16.727295 LL:  -4.701 LR: -13.173 RR:   0.000 FEB:  -7.207
USER: RMSD 5.782840
USER: SEED 120
USER: STATUS no improvement in best 11 clusters for 5 generations
USER: GENES 22
USER: genes 0 Translation |==|  0.46476 0.45525 0.42909
USER: genes 1 Rotation |==|  0.73595 0.64963 0.87396 0.67914
USER: genes 2 Torsion [N]-CA--C-[N] |==|  0.26060
USER: genes 3 Torsion [C]-N--CA-[CB] |==|  0.47778
USER: genes 4 Torsion [N]-CA--C-[N] |==|  0.40107
USER: genes 5 Torsion [C]-N--CA-[C] |==|  0.05277
USER: genes 6 Torsion [N]-CA--CB-[CG1] |==|  0.00549
USER: genes 7 Torsion [CA]-CB--CG1-[CD1] |==|  0.38922
USER: genes 8 Torsion [N]-CA--C-[OXT] |==|  0.73683
USER: genes 9 Torsion [N]-CA--CB-[CG] |==|  0.94657
USER: genes 10 Torsion [CA]-CB--CG-[ND1] |==|  0.91556
USER: genes 11 Torsion [C]-CA--CB-[CG] |==|  0.50956
USER: genes 12 Torsion [CA]-CB--CG-[CD2] |==|  0.24358
USER: genes 13 Torsion [C]-CA--N-[C] |==|  0.73133
USER: genes 14 Torsion [N]-C--CA-[N] |==|  0.40316
USER: genes 15 Torsion [C]-CA--CB-[CG] |==|  0.21953
USER: genes 16 Torsion [CA]-CB--CG-[CD2] |==|  0.63567
USER: genes 17 Torsion [C]-CA--N-[C] |==|  0.82443
USER: genes 18 Torsion [N]-C--CA-[N] |==|  0.06996
USER: genes 19 Torsion [C]-CA--N-[H2] |==|  0.19499
USER: genes 20 Torsion [C]-CA--CB-[CG] |==|  0.73401
USER: genes 21 Torsion [CA]-CB--CG-[OD1] |==|  0.11493
ROOT
ATOM      1  CA  LEU D  11      17.373   5.598  60.383  1.00 47.89 LIG 0.18  C 
ENDROOT
BRANCH 1 2
ATOM      2  C   LEU D  11      17.366   4.439  59.394  1.00 48.14 LIG 0.24  C 
ATOM      3 O    LEU D  11      17.687   4.608  58.225  1.00 47.13 LIG-0.27  OA
ATOM      4  N   HIS D  12      16.959   3.267  59.866  1.00 49.28 LIG-0.35  N 
ATOM      5 H    HIS D  12      16.738   3.123  60.684  1.00 49.28 LIG 0.16  HD
BRANCH 4 6
ATOM      6  CA  HIS D  12      16.857   2.105  58.989  1.00 50.49 LIG 0.18  C 
BRANCH 6 7
ATOM      7  C   HIS D  12      15.801   2.304  57.904  1.00 51.38 LIG 0.24  C 
ATOM      8  N   ILE D  13      16.105   1.763  56.735  1.00 53.16 LIG-0.34  N 
ATOM      9 H    ILE D  13      16.855   1.362  56.610  1.00 53.16 LIG 0.16  HD
ATOM     10 O    HIS D  12      14.765   2.912  58.130  1.00 51.57 LIG-0.27  OA
BRANCH 8 11
ATOM     11  CA  ILE D  13      15.265   1.752  55.526  1.00 55.12 LIG 0.19  C 
BRANCH 11 12
ATOM     12  CB  ILE D  13      14.847   0.311  55.058  1.00 55.01 LIG 0.01  C 
ATOM     13  CG2 ILE D  13      15.289   0.001  53.616  1.00 56.15 LIG 0.01  C 
BRANCH 12 14
ATOM     14  CG1 ILE D  13      15.394  -0.737  56.031  1.00 55.50 LIG 0.00  C 
ATOM     15  CD1 ILE D  13      14.413  -1.902  56.333  1.00 55.45 LIG 0.01  C 
ENDBRANCH 12 14
ENDBRANCH 11 12
BRANCH 11 16
ATOM     16  C   ILE D  13      14.121   2.765  55.412  1.00 55.63 LIG 0.20  C 
ATOM     17 OXT  ILE D  13      12.991   2.401  55.764  1.00 55.86 LIG-0.65  OA
ATOM     18 O    ILE D  13      14.322   3.912  55.007  1.00 56.94 LIG-0.65  OA
ENDBRANCH 11 16
ENDBRANCH 8 11
ENDBRANCH 6 7
BRANCH 6 19
ATOM     19  CB  HIS D  12      16.561   0.833  59.785  1.00 50.55 LIG 0.10  C 
BRANCH 19 20
ATOM     20  CG  HIS D  12      16.885   0.943  61.241  1.00 49.61 LIG 0.05  A 
ATOM     21 ND1  HIS D  12      17.825   1.665  61.895  1.00 49.92 LIG-0.25  NA
ATOM     22  CE1 HIS D  12      17.681   1.398  63.233  1.00 49.12 LIG 0.21  A 
ATOM     23  NE2 HIS D  12      16.674   0.562  63.400  1.00 48.62 LIG-0.36  N 
ATOM     24 HE2  HIS D  12      16.388   0.261  64.153  1.00 48.62 LIG 0.17  HD
ATOM     25  CD2 HIS D  12      16.178   0.268  62.212  1.00 48.49 LIG 0.12  A 
ENDBRANCH 19 20
ENDBRANCH 6 19
ENDBRANCH 4 6
ENDBRANCH 1 2
BRANCH 1 26
ATOM     26  CB  LEU D  11      16.991   6.862  59.621  1.00 47.69 LIG 0.04  C 
BRANCH 26 27
ATOM     27  CG  LEU D  11      16.994   8.209  60.355  1.00 48.05 LIG-0.02  C 
ATOM     28  CD1 LEU D  11      16.505   8.026  61.785  1.00 46.53 LIG 0.01  C 
ATOM     29  CD2 LEU D  11      18.344   8.885  60.329  1.00 50.43 LIG 0.01  C 
ENDBRANCH 26 27
ENDBRANCH 1 26
BRANCH 1 30
ATOM     30  N   LEU D  11      18.658   5.794  61.036  1.00 47.51 LIG-0.35  N 
ATOM     31  C   LEU D  10      18.940   5.299  62.243  1.00 47.80 LIG 0.24  C 
ATOM     32 O    LEU D  10      18.172   4.568  62.884  1.00 47.07 LIG-0.27  OA
ATOM     33 H    LEU D  11      19.216   6.257  60.574  1.00 47.51 LIG 0.16  HD
BRANCH 31 34
ATOM     34  CA  LEU D  10      20.294   5.698  62.816  1.00 47.63 LIG 0.18  C 
BRANCH 34 35
ATOM     35  CB  LEU D  10      21.375   4.695  62.424  1.00 47.29 LIG 0.04  C 
BRANCH 35 36
ATOM     36  CG  LEU D  10      21.900   4.874  60.995  1.00 46.92 LIG-0.02  C 
ATOM     37  CD2 LEU D  10      21.920   3.576  60.258  1.00 45.50 LIG 0.01  C 
ATOM     38  CD1 LEU D  10      23.297   5.490  60.972  1.00 46.83 LIG 0.01  C 
ENDBRANCH 35 36
ENDBRANCH 34 35
BRANCH 34 39
ATOM     39  N   LEU D  10      20.196   5.854  64.257  1.00 47.82 LIG-0.35  N 
ATOM     40 H    LEU D  10      20.675   5.305  64.714  1.00 47.82 LIG 0.16  HD
ATOM     41  C   ASP D   9      19.413   6.787  64.782  1.00 48.63 LIG 0.25  C 
ATOM     42 O    ASP D   9      18.726   7.551  64.108  1.00 48.10 LIG-0.27  OA
BRANCH 41 43
ATOM     43  CA  ASP D   9      19.394   6.863  66.287  1.00 49.27 LIG 0.28  C 
BRANCH 43 44
ATOM     44  N   ASP D   9      20.680   6.306  66.781  1.00 49.86 LIG-0.07  N 
ATOM     45 H2   ASP D   9      21.343   6.865  66.579  1.00 49.86 LIG 0.28  HD
ATOM     46 H3   ASP D   9      20.639   6.201  67.663  1.00 49.86 LIG 0.28  HD
ATOM     47 H1   ASP D   9      20.830   5.518  66.395  1.00 49.86 LIG 0.28  HD
ENDBRANCH 43 44
BRANCH 43 48
ATOM     48  CB  ASP D   9      19.245   8.319  66.704  1.00 50.02 LIG 0.15  C 
BRANCH 48 49
ATOM     49  CG  ASP D   9      20.561   8.973  67.006  1.00 50.84 LIG 0.17  C 
ATOM     50 OD1  ASP D   9      21.525   8.733  66.259  1.00 53.44 LIG-0.65  OA
ATOM     51 OD2  ASP D   9      20.724   9.768  67.959  1.00 53.75 LIG-0.65  OA
ENDBRANCH 48 49
ENDBRANCH 43 48
ENDBRANCH 41 43
ENDBRANCH 34 39
ENDBRANCH 31 34
ENDBRANCH 1 30
TORSDOF 20
ENDMDL
MODEL 21
USER: ADFR SOLUTION from run 91
USER: SCORE 15.981564 LL:  -5.432 LR: -13.139 RR:   0.000 FEB:  -7.173
USER: RMSD 6.324281
USER: SEED 90
USER: STATUS no improvement in best 7 clusters for 5 generations
USER: GENES 22
USER: genes 0 Translation |==|  0.43908 0.34798 0.44733
USER: genes 1 Rotation |==|  0.21136 0.50368 0.29318 0.85199
USER: genes 2 Torsion [N]-CA--C-[N] |==|  0.85849
USER: genes 3 Torsion [C]-N--CA-[CB] |==|  0.43830
USER: genes 4 Torsion [N]-CA--C-[N] |==|  0.19806
USER: genes 5 Torsion [C]-N--CA-[C] |==|  0.68364
USER: genes 6 Torsion [N]-CA--CB-[CG1] |==|  0.01531
USER: genes 7 Torsion [CA]-CB--CG1-[CD1] |==|  0.24566
USER: genes 8 Torsion [N]-CA--C-[OXT] |==|  0.35098
USER: genes 9 Torsion [N]-CA--CB-[CG] |==|  0.81532
USER: genes 10 Torsion [CA]-CB--CG-[ND1] |==|  0.64732
USER: genes 11 Torsion [C]-CA--CB-[CG] |==|  0.44222
USER: genes 12 Torsion [CA]-CB--CG-[CD2] |==|  0.27810
USER: genes 13 Torsion [C]-CA--N-[C] |==|  0.68903
USER: genes 14 Torsion [N]-C--CA-[N] |==|  0.17694
USER: genes 15 Torsion [C]-CA--CB-[CG] |==|  0.77717
USER: genes 16 Torsion [CA]-CB--CG-[CD2] |==|  0.63655
USER: genes 17 Torsion [C]-CA--N-[C] |==|  0.63856
USER: genes 18 Torsion [N]-C--CA-[N] |==|  0.38491
USER: genes 19 Torsion [C]-CA--N-[H2] |==|  0.59049
USER: genes 20 Torsion [C]-CA--CB-[CG] |==|  0.64094
USER: genes 21 Torsion [CA]-CB--CG-[OD1] |==|  0.14864
ROOT
ATOM      1  CA  LEU D  11      16.602   2.380  60.930  1.00 47.89 LIG 0.18  C 
ENDROOT
BRANCH 1 2
ATOM      2  C   LEU D  11      15.345   2.820  60.193  1.00 48.14 LIG 0.24  C 
ATOM      3 O    LEU D  11      15.086   2.390  59.077  1.00 47.13 LIG-0.27  OA
ATOM      4  N   HIS D  12      14.584   3.716  60.813  1.00 49.28 LIG-0.35  N 
ATOM      5 H    HIS D  12      14.741   4.025  61.600  1.00 49.28 LIG 0.16  HD
BRANCH 4 6
ATOM      6  CA  HIS D  12      13.388   4.250  60.170  1.00 50.49 LIG 0.18  C 
BRANCH 6 7
ATOM      7  C   HIS D  12      13.730   5.325  59.141  1.00 51.38 LIG 0.24  C 
ATOM      8  N   ILE D  13      14.306   4.869  58.040  1.00 53.16 LIG-0.34  N 
ATOM      9 H    ILE D  13      14.492   4.035  57.946  1.00 53.16 LIG 0.16  HD
ATOM     10 O    HIS D  12      13.472   6.503  59.343  1.00 51.57 LIG-0.27  OA
BRANCH 8 11
ATOM     11  CA  ILE D  13      14.703   5.659  56.863  1.00 55.12 LIG 0.19  C 
BRANCH 11 12
ATOM     12  CB  ILE D  13      16.259   5.804  56.692  1.00 55.01 LIG 0.01  C 
ATOM     13  CG2 ILE D  13      16.731   7.269  56.752  1.00 56.15 LIG 0.01  C 
BRANCH 12 14
ATOM     14  CG1 ILE D  13      16.984   4.956  57.742  1.00 55.50 LIG 0.00  C 
ATOM     15  CD1 ILE D  13      17.257   3.492  57.302  1.00 55.45 LIG 0.01  C 
ENDBRANCH 12 14
ENDBRANCH 11 12
BRANCH 11 16
ATOM     16  C   ILE D  13      13.984   5.415  55.533  1.00 55.63 LIG 0.20  C 
ATOM     17 OXT  ILE D  13      13.483   6.393  54.960  1.00 55.86 LIG-0.65  OA
ATOM     18 O    ILE D  13      13.927   4.289  55.034  1.00 56.94 LIG-0.65  OA
ENDBRANCH 11 16
ENDBRANCH 8 11
ENDBRANCH 6 7
BRANCH 6 19
ATOM     19  CB  HIS D  12      12.404   4.803  61.202  1.00 50.55 LIG 0.10  C 
BRANCH 19 20
ATOM     20  CG  HIS D  12      11.812   3.757  62.092  1.00 49.61 LIG 0.05  A 
ATOM     21 ND1  HIS D  12      10.524   3.459  62.388  1.00 49.92 LIG-0.25  NA
ATOM     22  CE1 HIS D  12      10.544   2.400  63.260  1.00 49.12 LIG 0.21  A 
ATOM     23  NE2 HIS D  12      11.797   2.042  63.474  1.00 48.62 LIG-0.36  N 
ATOM     24 HE2  HIS D  12      12.057   1.394  63.977  1.00 48.62 LIG 0.17  HD
ATOM     25  CD2 HIS D  12      12.583   2.849  62.785  1.00 48.49 LIG 0.12  A 
ENDBRANCH 19 20
ENDBRANCH 6 19
ENDBRANCH 4 6
ENDBRANCH 1 2
BRANCH 1 26
ATOM     26  CB  LEU D  11      16.171   1.530  62.120  1.00 47.69 LIG 0.04  C 
BRANCH 26 27
ATOM     27  CG  LEU D  11      17.179   0.566  62.758  1.00 48.05 LIG-0.02  C 
ATOM     28  CD1 LEU D  11      18.249   0.184  61.745  1.00 46.53 LIG 0.01  C 
ATOM     29  CD2 LEU D  11      17.801   1.120  64.017  1.00 50.43 LIG 0.01  C 
ENDBRANCH 26 27
ENDBRANCH 1 26
BRANCH 1 30
ATOM     30  N   LEU D  11      17.419   3.490  61.397  1.00 47.51 LIG-0.35  N 
ATOM     31  C   LEU D  10      18.624   3.764  60.894  1.00 47.80 LIG 0.24  C 
ATOM     32 O    LEU D  10      19.126   3.155  59.939  1.00 47.07 LIG-0.27  OA
ATOM     33 H    LEU D  11      17.054   3.951  62.024  1.00 47.51 LIG 0.16  HD
BRANCH 31 34
ATOM     34  CA  LEU D  10      19.380   4.895  61.579  1.00 47.63 LIG 0.18  C 
BRANCH 34 35
ATOM     35  CB  LEU D  10      20.645   5.259  60.808  1.00 47.29 LIG 0.04  C 
BRANCH 35 36
ATOM     36  CG  LEU D  10      21.825   4.316  61.070  1.00 46.92 LIG-0.02  C 
ATOM     37  CD2 LEU D  10      23.068   5.077  61.390  1.00 45.50 LIG 0.01  C 
ATOM     38  CD1 LEU D  10      22.090   3.389  59.886  1.00 46.83 LIG 0.01  C 
ENDBRANCH 35 36
ENDBRANCH 34 35
BRANCH 34 39
ATOM     39  N   LEU D  10      19.668   4.535  62.957  1.00 47.82 LIG-0.35  N 
ATOM     40 H    LEU D  10      20.029   3.761  63.061  1.00 47.82 LIG 0.16  HD
ATOM     41  C   ASP D   9      19.380   5.370  63.947  1.00 48.63 LIG 0.25  C 
ATOM     42 O    ASP D   9      18.850   6.465  63.774  1.00 48.10 LIG-0.27  OA
BRANCH 41 43
ATOM     43  CA  ASP D   9      19.729   4.896  65.333  1.00 49.27 LIG 0.28  C 
BRANCH 43 44
ATOM     44  N   ASP D   9      20.305   6.050  66.071  1.00 49.86 LIG-0.07  N 
ATOM     45 H2   ASP D   9      20.918   5.758  66.647  1.00 49.86 LIG 0.28  HD
ATOM     46 H3   ASP D   9      20.683   6.612  65.495  1.00 49.86 LIG 0.28  HD
ATOM     47 H1   ASP D   9      19.659   6.471  66.515  1.00 49.86 LIG 0.28  HD
ENDBRANCH 43 44
BRANCH 43 48
ATOM     48  CB  ASP D   9      18.463   4.399  66.017  1.00 50.02 LIG 0.15  C 
BRANCH 48 49
ATOM     49  CG  ASP D   9      18.265   5.002  67.377  1.00 50.84 LIG 0.17  C 
ATOM     50 OD1  ASP D   9      18.284   6.240  67.483  1.00 53.44 LIG-0.65  OA
ATOM     51 OD2  ASP D   9      18.056   4.315  68.402  1.00 53.75 LIG-0.65  OA
ENDBRANCH 48 49
ENDBRANCH 43 48
ENDBRANCH 41 43
ENDBRANCH 34 39
ENDBRANCH 31 34
ENDBRANCH 1 30
TORSDOF 20
ENDMDL
MODEL 22
USER: ADFR SOLUTION from run 100
USER: SCORE 15.987303 LL:  -3.706 LR: -13.103 RR:   0.000 FEB:  -7.137
USER: RMSD 10.680525
USER: SEED 99
USER: STATUS no improvement in best 9 clusters for 5 generations
USER: GENES 22
USER: genes 0 Translation |==|  0.48469 0.42639 0.41028
USER: genes 1 Rotation |==|  0.77625 0.72984 0.16319 0.58614
USER: genes 2 Torsion [N]-CA--C-[N] |==|  0.32642
USER: genes 3 Torsion [C]-N--CA-[CB] |==|  0.52098
USER: genes 4 Torsion [N]-CA--C-[N] |==|  0.40646
USER: genes 5 Torsion [C]-N--CA-[C] |==|  0.83463
USER: genes 6 Torsion [N]-CA--CB-[CG1] |==|  0.98851
USER: genes 7 Torsion [CA]-CB--CG1-[CD1] |==|  0.75359
USER: genes 8 Torsion [N]-CA--C-[OXT] |==|  0.69031
USER: genes 9 Torsion [N]-CA--CB-[CG] |==|  0.15002
USER: genes 10 Torsion [CA]-CB--CG-[ND1] |==|  0.33479
USER: genes 11 Torsion [C]-CA--CB-[CG] |==|  0.40704
USER: genes 12 Torsion [CA]-CB--CG-[CD2] |==|  0.55418
USER: genes 13 Torsion [C]-CA--N-[C] |==|  0.64819
USER: genes 14 Torsion [N]-C--CA-[N] |==|  0.42164
USER: genes 15 Torsion [C]-CA--CB-[CG] |==|  0.12344
USER: genes 16 Torsion [CA]-CB--CG-[CD2] |==|  0.62848
USER: genes 17 Torsion [C]-CA--N-[C] |==|  0.75647
USER: genes 18 Torsion [N]-C--CA-[N] |==|  0.09140
USER: genes 19 Torsion [C]-CA--N-[H2] |==|  0.75994
USER: genes 20 Torsion [C]-CA--CB-[CG] |==|  0.27084
USER: genes 21 Torsion [CA]-CB--CG-[OD1] |==|  0.76296
ROOT
ATOM      1  CA  LEU D  11      17.971   4.732  59.818  1.00 47.89 LIG 0.18  C 
ENDROOT
BRANCH 1 2
ATOM      2  C   LEU D  11      18.649   4.808  61.180  1.00 48.14 LIG 0.24  C 
ATOM      3 O    LEU D  11      17.990   4.916  62.206  1.00 47.13 LIG-0.27  OA
ATOM      4  N   HIS D  12      19.977   4.791  61.177  1.00 49.28 LIG-0.35  N 
ATOM      5 H    HIS D  12      20.460   4.706  60.470  1.00 49.28 LIG 0.16  HD
BRANCH 4 6
ATOM      6  CA  HIS D  12      20.727   4.919  62.422  1.00 50.49 LIG 0.18  C 
BRANCH 6 7
ATOM      7  C   HIS D  12      20.231   6.093  63.263  1.00 51.38 LIG 0.24  C 
ATOM      8  N   ILE D  13      20.301   5.900  64.570  1.00 53.16 LIG-0.34  N 
ATOM      9 H    ILE D  13      20.577   5.154  64.898  1.00 53.16 LIG 0.16  HD
ATOM     10 O    HIS D  12      19.819   7.118  62.742  1.00 51.57 LIG-0.27  OA
BRANCH 8 11
ATOM     11  CA  ILE D  13      19.942   6.865  65.623  1.00 55.12 LIG 0.19  C 
BRANCH 11 12
ATOM     12  CB  ILE D  13      19.761   6.216  67.043  1.00 55.01 LIG 0.01  C 
ATOM     13  CG2 ILE D  13      18.423   6.593  67.705  1.00 56.15 LIG 0.01  C 
BRANCH 12 14
ATOM     14  CG1 ILE D  13      19.911   4.694  66.948  1.00 55.50 LIG 0.00  C 
ATOM     15  CD1 ILE D  13      18.588   3.940  66.645  1.00 55.45 LIG 0.01  C 
ENDBRANCH 12 14
ENDBRANCH 11 12
BRANCH 11 16
ATOM     16  C   ILE D  13      20.678   8.207  65.677  1.00 55.63 LIG 0.20  C 
ATOM     17 OXT  ILE D  13      21.439   8.409  66.633  1.00 55.86 LIG-0.65  OA
ATOM     18 O    ILE D  13      20.538   9.048  64.786  1.00 56.94 LIG-0.65  OA
ENDBRANCH 11 16
ENDBRANCH 8 11
ENDBRANCH 6 7
BRANCH 6 19
ATOM     19  CB  HIS D  12      22.227   5.058  62.154  1.00 50.55 LIG 0.10  C 
BRANCH 19 20
ATOM     20  CG  HIS D  12      22.570   6.167  61.210  1.00 49.61 LIG 0.05  A 
ATOM     21 ND1  HIS D  12      23.346   7.266  61.367  1.00 49.92 LIG-0.25  NA
ATOM     22  CE1 HIS D  12      23.323   7.950  60.178  1.00 49.12 LIG 0.21  A 
ATOM     23  NE2 HIS D  12      22.580   7.285  59.313  1.00 48.62 LIG-0.36  N 
ATOM     24 HE2  HIS D  12      22.429   7.514  58.498  1.00 48.62 LIG 0.17  HD
ATOM     25  CD2 HIS D  12      22.110   6.207  59.912  1.00 48.49 LIG 0.12  A 
ENDBRANCH 19 20
ENDBRANCH 6 19
ENDBRANCH 4 6
ENDBRANCH 1 2
BRANCH 1 26
ATOM     26  CB  LEU D  11      17.109   5.979  59.657  1.00 47.69 LIG 0.04  C 
BRANCH 26 27
ATOM     27  CG  LEU D  11      16.936   6.596  58.264  1.00 48.05 LIG-0.02  C 
ATOM     28  CD1 LEU D  11      15.985   5.749  57.431  1.00 46.53 LIG 0.01  C 
ATOM     29  CD2 LEU D  11      16.476   8.033  58.314  1.00 50.43 LIG 0.01  C 
ENDBRANCH 26 27
ENDBRANCH 1 26
BRANCH 1 30
ATOM     30  N   LEU D  11      17.145   3.545  59.648  1.00 47.51 LIG-0.35  N 
ATOM     31  C   LEU D  10      17.283   2.709  58.618  1.00 47.80 LIG 0.24  C 
ATOM     32 O    LEU D  10      18.168   2.817  57.757  1.00 47.07 LIG-0.27  OA
ATOM     33 H    LEU D  11      16.563   3.434  60.271  1.00 47.51 LIG 0.16  HD
BRANCH 31 34
ATOM     34  CA  LEU D  10      16.261   1.582  58.545  1.00 47.63 LIG 0.18  C 
BRANCH 34 35
ATOM     35  CB  LEU D  10      16.672   0.408  59.428  1.00 47.29 LIG 0.04  C 
BRANCH 35 36
ATOM     36  CG  LEU D  10      17.175   0.819  60.816  1.00 46.92 LIG-0.02  C 
ATOM     37  CD2 LEU D  10      18.433   0.100  61.172  1.00 45.50 LIG 0.01  C 
ATOM     38  CD1 LEU D  10      16.127   0.574  61.900  1.00 46.83 LIG 0.01  C 
ENDBRANCH 35 36
ENDBRANCH 34 35
BRANCH 34 39
ATOM     39  N   LEU D  10      16.065   1.180  57.163  1.00 47.82 LIG-0.35  N 
ATOM     40 H    LEU D  10      16.567   0.533  56.899  1.00 47.82 LIG 0.16  HD
ATOM     41  C   ASP D   9      15.166   1.792  56.403  1.00 48.63 LIG 0.25  C 
ATOM     42 O    ASP D   9      14.470   2.725  56.798  1.00 48.10 LIG-0.27  OA
BRANCH 41 43
ATOM     43  CA  ASP D   9      15.043   1.287  54.989  1.00 49.27 LIG 0.28  C 
BRANCH 43 44
ATOM     44  N   ASP D   9      15.319  -0.172  55.007  1.00 49.86 LIG-0.07  N 
ATOM     45 H2   ASP D   9      16.196  -0.309  54.937  1.00 49.86 LIG 0.28  HD
ATOM     46 H3   ASP D   9      15.025  -0.521  55.771  1.00 49.86 LIG 0.28  HD
ATOM     47 H1   ASP D   9      14.903  -0.562  54.324  1.00 49.86 LIG 0.28  HD
ENDBRANCH 43 44
BRANCH 43 48
ATOM     48  CB  ASP D   9      13.630   1.560  54.491  1.00 50.02 LIG 0.15  C 
BRANCH 48 49
ATOM     49  CG  ASP D   9      13.538   2.812  53.670  1.00 50.84 LIG 0.17  C 
ATOM     50 OD1  ASP D   9      13.381   3.895  54.260  1.00 53.44 LIG-0.65  OA
ATOM     51 OD2  ASP D   9      13.637   2.818  52.422  1.00 53.75 LIG-0.65  OA
ENDBRANCH 48 49
ENDBRANCH 43 48
ENDBRANCH 41 43
ENDBRANCH 34 39
ENDBRANCH 31 34
ENDBRANCH 1 30
TORSDOF 20
ENDMDL
MODEL 23
USER: ADFR SOLUTION from run 31
USER: SCORE 18.027585 LL:  -5.138 LR: -13.069 RR:   0.000 FEB:  -7.103
USER: RMSD 5.177049
USER: SEED 30
USER: STATUS searching
USER: GENES 22
USER: genes 0 Translation |==|  0.52749 0.46546 0.64045
USER: genes 1 Rotation |==|  0.31135 0.23329 0.20242 0.73393
USER: genes 2 Torsion [N]-CA--C-[N] |==|  0.88080
USER: genes 3 Torsion [C]-N--CA-[CB] |==|  0.83099
USER: genes 4 Torsion [N]-CA--C-[N] |==|  0.40554
USER: genes 5 Torsion [C]-N--CA-[C] |==|  0.55618
USER: genes 6 Torsion [N]-CA--CB-[CG1] |==|  0.70067
USER: genes 7 Torsion [CA]-CB--CG1-[CD1] |==|  0.87017
USER: genes 8 Torsion [N]-CA--C-[OXT] |==|  0.92196
USER: genes 9 Torsion [N]-CA--CB-[CG] |==|  0.36050
USER: genes 10 Torsion [CA]-CB--CG-[ND1] |==|  0.19164
USER: genes 11 Torsion [C]-CA--CB-[CG] |==|  0.50900
USER: genes 12 Torsion [CA]-CB--CG-[CD2] |==|  0.58397
USER: genes 13 Torsion [C]-CA--N-[C] |==|  0.81323
USER: genes 14 Torsion [N]-C--CA-[N] |==|  0.44875
USER: genes 15 Torsion [C]-CA--CB-[CG] |==|  0.25402
USER: genes 16 Torsion [CA]-CB--CG-[CD2] |==|  0.06450
USER: genes 17 Torsion [C]-CA--N-[C] |==|  0.61874
USER: genes 18 Torsion [N]-C--CA-[N] |==|  0.45587
USER: genes 19 Torsion [C]-CA--N-[H2] |==|  0.87636
USER: genes 20 Torsion [C]-CA--CB-[CG] |==|  0.77360
USER: genes 21 Torsion [CA]-CB--CG-[OD1] |==|  0.50270
ROOT
ATOM      1  CA  LEU D  11      19.255   5.904  66.723  1.00 47.89 LIG 0.18  C 
ENDROOT
BRANCH 1 2
ATOM      2  C   LEU D  11      19.560   5.626  65.257  1.00 48.14 LIG 0.24  C 
ATOM      3 O    LEU D  11      20.360   4.758  64.935  1.00 47.13 LIG-0.27  OA
ATOM      4  N   HIS D  12      18.944   6.401  64.372  1.00 49.28 LIG-0.35  N 
ATOM      5 H    HIS D  12      18.372   7.011  64.575  1.00 49.28 LIG 0.16  HD
BRANCH 4 6
ATOM      6  CA  HIS D  12      19.211   6.260  62.945  1.00 50.49 LIG 0.18  C 
BRANCH 6 7
ATOM      7  C   HIS D  12      18.804   4.882  62.426  1.00 51.38 LIG 0.24  C 
ATOM      8  N   ILE D  13      18.344   4.877  61.185  1.00 53.16 LIG-0.34  N 
ATOM      9 H    ILE D  13      18.261   5.605  60.736  1.00 53.16 LIG 0.16  HD
ATOM     10 O    HIS D  12      18.914   3.883  63.122  1.00 51.57 LIG-0.27  OA
BRANCH 8 11
ATOM     11  CA  ILE D  13      17.924   3.699  60.408  1.00 55.12 LIG 0.19  C 
BRANCH 11 12
ATOM     12  CB  ILE D  13      16.677   2.955  61.010  1.00 55.01 LIG 0.01  C 
ATOM     13  CG2 ILE D  13      15.556   2.737  59.977  1.00 56.15 LIG 0.01  C 
BRANCH 12 14
ATOM     14  CG1 ILE D  13      17.109   1.624  61.633  1.00 55.50 LIG 0.00  C 
ATOM     15  CD1 ILE D  13      18.053   0.777  60.738  1.00 55.45 LIG 0.01  C 
ENDBRANCH 12 14
ENDBRANCH 11 12
BRANCH 11 16
ATOM     16  C   ILE D  13      17.868   3.802  58.881  1.00 55.63 LIG 0.20  C 
ATOM     17 OXT  ILE D  13      17.652   4.917  58.386  1.00 55.86 LIG-0.65  OA
ATOM     18 O    ILE D  13      18.058   2.815  58.167  1.00 56.94 LIG-0.65  OA
ENDBRANCH 11 16
ENDBRANCH 8 11
ENDBRANCH 6 7
BRANCH 6 19
ATOM     19  CB  HIS D  12      20.683   6.528  62.626  1.00 50.55 LIG 0.10  C 
BRANCH 19 20
ATOM     20  CG  HIS D  12      21.324   5.464  61.794  1.00 49.61 LIG 0.05  A 
ATOM     21 ND1  HIS D  12      21.138   5.107  60.501  1.00 49.92 LIG-0.25  NA
ATOM     22  CE1 HIS D  12      21.993   4.064  60.243  1.00 49.12 LIG 0.21  A 
ATOM     23  NE2 HIS D  12      22.697   3.806  61.328  1.00 48.62 LIG-0.36  N 
ATOM     24 HE2  HIS D  12      23.305   3.202  61.402  1.00 48.62 LIG 0.17  HD
ATOM     25  CD2 HIS D  12      22.310   4.633  62.282  1.00 48.49 LIG 0.12  A 
ENDBRANCH 19 20
ENDBRANCH 6 19
ENDBRANCH 4 6
ENDBRANCH 1 2
BRANCH 1 26
ATOM     26  CB  LEU D  11      17.899   5.283  67.042  1.00 47.69 LIG 0.04  C 
BRANCH 26 27
ATOM     27  CG  LEU D  11      17.298   5.473  68.440  1.00 48.05 LIG-0.02  C 
ATOM     28  CD1 LEU D  11      16.529   6.784  68.506  1.00 46.53 LIG 0.01  C 
ATOM     29  CD2 LEU D  11      16.426   4.315  68.864  1.00 50.43 LIG 0.01  C 
ENDBRANCH 26 27
ENDBRANCH 1 26
BRANCH 1 30
ATOM     30  N   LEU D  11      19.229   7.322  67.051  1.00 47.51 LIG-0.35  N 
ATOM     31  C   LEU D  10      20.317   8.092  67.018  1.00 47.80 LIG 0.24  C 
ATOM     32 O    LEU D  10      21.428   7.699  66.635  1.00 47.07 LIG-0.27  OA
ATOM     33 H    LEU D  11      18.449   7.614  67.267  1.00 47.51 LIG 0.16  HD
BRANCH 31 34
ATOM     34  CA  LEU D  10      20.121   9.525  67.497  1.00 47.63 LIG 0.18  C 
BRANCH 34 35
ATOM     35  CB  LEU D  10      19.360  10.353  66.466  1.00 47.29 LIG 0.04  C 
BRANCH 35 36
ATOM     36  CG  LEU D  10      17.840  10.352  66.668  1.00 46.92 LIG-0.02  C 
ATOM     37  CD2 LEU D  10      17.482  10.034  68.081  1.00 45.50 LIG 0.01  C 
ATOM     38  CD1 LEU D  10      17.140   9.366  65.734  1.00 46.83 LIG 0.01  C 
ENDBRANCH 35 36
ENDBRANCH 34 35
BRANCH 34 39
ATOM     39  N   LEU D  10      21.407  10.117  67.826  1.00 47.82 LIG-0.35  N 
ATOM     40 H    LEU D  10      22.037   9.950  67.265  1.00 47.82 LIG 0.16  HD
ATOM     41  C   ASP D   9      21.550  10.854  68.920  1.00 48.63 LIG 0.25  C 
ATOM     42 O    ASP D   9      20.638  11.067  69.716  1.00 48.10 LIG-0.27  OA
BRANCH 41 43
ATOM     43  CA  ASP D   9      22.924  11.424  69.157  1.00 49.27 LIG 0.28  C 
BRANCH 43 44
ATOM     44  N   ASP D   9      22.796  12.501  70.172  1.00 49.86 LIG-0.07  N 
ATOM     45 H2   ASP D   9      22.091  13.009  69.978  1.00 49.86 LIG 0.28  HD
ATOM     46 H3   ASP D   9      22.686  12.139  70.978  1.00 49.86 LIG 0.28  HD
ATOM     47 H1   ASP D   9      23.532  13.001  70.170  1.00 49.86 LIG 0.28  HD
ENDBRANCH 43 44
BRANCH 43 48
ATOM     48  CB  ASP D   9      23.836  10.315  69.664  1.00 50.02 LIG 0.15  C 
BRANCH 48 49
ATOM     49  CG  ASP D   9      23.679  10.064  71.135  1.00 50.84 LIG 0.17  C 
ATOM     50 OD1  ASP D   9      24.388   9.191  71.664  1.00 53.44 LIG-0.65  OA
ATOM     51 OD2  ASP D   9      22.887  10.711  71.856  1.00 53.75 LIG-0.65  OA
ENDBRANCH 48 49
ENDBRANCH 43 48
ENDBRANCH 41 43
ENDBRANCH 34 39
ENDBRANCH 31 34
ENDBRANCH 1 30
TORSDOF 20
ENDMDL
MODEL 24
USER: ADFR SOLUTION from run 88
USER: SCORE 16.808554 LL:  -4.700 LR: -13.071 RR:   0.000 FEB:  -7.105
USER: RMSD 9.952295
USER: SEED 87
USER: STATUS no improvement in best 8 clusters for 5 generations
USER: GENES 22
USER: genes 0 Translation |==|  0.46206 0.38430 0.47362
USER: genes 1 Rotation |==|  0.77800 0.13267 0.31973 0.57271
USER: genes 2 Torsion [N]-CA--C-[N] |==|  0.49009
USER: genes 3 Torsion [C]-N--CA-[CB] |==|  0.85908
USER: genes 4 Torsion [N]-CA--C-[N] |==|  0.38877
USER: genes 5 Torsion [C]-N--CA-[C] |==|  0.64038
USER: genes 6 Torsion [N]-CA--CB-[CG1] |==|  0.99127
USER: genes 7 Torsion [CA]-CB--CG1-[CD1] |==|  0.57340
USER: genes 8 Torsion [N]-CA--C-[OXT] |==|  0.99742
USER: genes 9 Torsion [N]-CA--CB-[CG] |==|  0.84754
USER: genes 10 Torsion [CA]-CB--CG-[ND1] |==|  0.30811
USER: genes 11 Torsion [C]-CA--CB-[CG] |==|  0.42552
USER: genes 12 Torsion [CA]-CB--CG-[CD2] |==|  0.24880
USER: genes 13 Torsion [C]-CA--N-[C] |==|  0.57932
USER: genes 14 Torsion [N]-C--CA-[N] |==|  0.61678
USER: genes 15 Torsion [C]-CA--CB-[CG] |==|  0.22134
USER: genes 16 Torsion [CA]-CB--CG-[CD2] |==|  0.41033
USER: genes 17 Torsion [C]-CA--N-[C] |==|  0.15521
USER: genes 18 Torsion [N]-C--CA-[N] |==|  0.04019
USER: genes 19 Torsion [C]-CA--N-[H2] |==|  0.57334
USER: genes 20 Torsion [C]-CA--CB-[CG] |==|  0.78042
USER: genes 21 Torsion [CA]-CB--CG-[OD1] |==|  0.86315
ROOT
ATOM      1  CA  LEU D  11      17.292   3.469  61.719  1.00 47.89 LIG 0.18  C 
ENDROOT
BRANCH 1 2
ATOM      2  C   LEU D  11      18.175   4.589  62.254  1.00 48.14 LIG 0.24  C 
ATOM      3 O    LEU D  11      18.102   5.721  61.796  1.00 47.13 LIG-0.27  OA
ATOM      4  N   HIS D  12      19.040   4.251  63.204  1.00 49.28 LIG-0.35  N 
ATOM      5 H    HIS D  12      19.102   3.465  63.547  1.00 49.28 LIG 0.16  HD
BRANCH 4 6
ATOM      6  CA  HIS D  12      19.973   5.233  63.744  1.00 50.49 LIG 0.18  C 
BRANCH 6 7
ATOM      7  C   HIS D  12      19.272   6.247  64.646  1.00 51.38 LIG 0.24  C 
ATOM      8  N   ILE D  13      19.950   6.578  65.732  1.00 53.16 LIG-0.34  N 
ATOM      9 H    ILE D  13      20.709   6.217  65.913  1.00 53.16 LIG 0.16  HD
ATOM     10 O    HIS D  12      18.176   6.703  64.355  1.00 51.57 LIG-0.27  OA
BRANCH 8 11
ATOM     11  CA  ILE D  13      19.550   7.559  66.755  1.00 55.12 LIG 0.19  C 
BRANCH 11 12
ATOM     12  CB  ILE D  13      18.799   6.925  67.981  1.00 55.01 LIG 0.01  C 
ATOM     13  CG2 ILE D  13      17.453   7.612  68.277  1.00 56.15 LIG 0.01  C 
BRANCH 12 14
ATOM     14  CG1 ILE D  13      18.604   5.422  67.758  1.00 55.50 LIG 0.00  C 
ATOM     15  CD1 ILE D  13      17.384   4.818  68.506  1.00 55.45 LIG 0.01  C 
ENDBRANCH 12 14
ENDBRANCH 11 12
BRANCH 11 16
ATOM     16  C   ILE D  13      20.549   8.642  67.171  1.00 55.63 LIG 0.20  C 
ATOM     17 OXT  ILE D  13      21.666   8.633  66.635  1.00 55.86 LIG-0.65  OA
ATOM     18 O    ILE D  13      20.245   9.511  67.991  1.00 56.94 LIG-0.65  OA
ENDBRANCH 11 16
ENDBRANCH 8 11
ENDBRANCH 6 7
BRANCH 6 19
ATOM     19  CB  HIS D  12      20.727   5.957  62.626  1.00 50.55 LIG 0.10  C 
BRANCH 19 20
ATOM     20  CG  HIS D  12      21.435   5.037  61.683  1.00 49.61 LIG 0.05  A 
ATOM     21 ND1  HIS D  12      21.202   4.736  60.383  1.00 49.92 LIG-0.25  NA
ATOM     22  CE1 HIS D  12      22.161   3.832  59.999  1.00 49.12 LIG 0.21  A 
ATOM     23  NE2 HIS D  12      22.969   3.604  61.017  1.00 48.62 LIG-0.36  N 
ATOM     24 HE2  HIS D  12      23.652   3.081  61.010  1.00 48.62 LIG 0.17  HD
ATOM     25  CD2 HIS D  12      22.551   4.315  62.048  1.00 48.49 LIG 0.12  A 
ENDBRANCH 19 20
ENDBRANCH 6 19
ENDBRANCH 4 6
ENDBRANCH 1 2
BRANCH 1 26
ATOM     26  CB  LEU D  11      18.201   2.424  61.082  1.00 47.69 LIG 0.04  C 
BRANCH 26 27
ATOM     27  CG  LEU D  11      17.734   0.964  61.017  1.00 48.05 LIG-0.02  C 
ATOM     28  CD1 LEU D  11      16.920   0.620  62.256  1.00 46.53 LIG 0.01  C 
ATOM     29  CD2 LEU D  11      16.959   0.653  59.759  1.00 50.43 LIG 0.01  C 
ENDBRANCH 26 27
ENDBRANCH 1 26
BRANCH 1 30
ATOM     30  N   LEU D  11      16.312   3.921  60.742  1.00 47.51 LIG-0.35  N 
ATOM     31  C   LEU D  10      15.139   3.313  60.559  1.00 47.80 LIG 0.24  C 
ATOM     32 O    LEU D  10      14.740   2.364  61.248  1.00 47.07 LIG-0.27  OA
ATOM     33 H    LEU D  11      16.560   4.613  60.295  1.00 47.51 LIG 0.16  HD
BRANCH 31 34
ATOM     34  CA  LEU D  10      14.288   3.858  59.418  1.00 47.63 LIG 0.18  C 
BRANCH 34 35
ATOM     35  CB  LEU D  10      14.817   5.203  58.930  1.00 47.29 LIG 0.04  C 
BRANCH 35 36
ATOM     36  CG  LEU D  10      16.023   5.092  57.990  1.00 46.92 LIG-0.02  C 
ATOM     37  CD2 LEU D  10      16.028   6.192  56.981  1.00 45.50 LIG 0.01  C 
ATOM     38  CD1 LEU D  10      16.066   3.745  57.271  1.00 46.83 LIG 0.01  C 
ENDBRANCH 35 36
ENDBRANCH 34 35
BRANCH 34 39
ATOM     39  N   LEU D  10      12.898   3.940  59.833  1.00 47.82 LIG-0.35  N 
ATOM     40 H    LEU D  10      12.344   3.516  59.329  1.00 47.82 LIG 0.16  HD
ATOM     41  C   ASP D   9      12.556   4.629  60.914  1.00 48.63 LIG 0.25  C 
ATOM     42 O    ASP D   9      13.365   5.239  61.610  1.00 48.10 LIG-0.27  OA
BRANCH 41 43
ATOM     43  CA  ASP D   9      11.088   4.639  61.253  1.00 49.27 LIG 0.28  C 
BRANCH 43 44
ATOM     44  N   ASP D   9      10.436   3.566  60.460  1.00 49.86 LIG-0.07  N 
ATOM     45 H2   ASP D   9       9.580   3.772  60.330  1.00 49.86 LIG 0.28  HD
ATOM     46 H3   ASP D   9      10.845   3.487  59.674  1.00 49.86 LIG 0.28  HD
ATOM     47 H1   ASP D   9      10.491   2.795  60.901  1.00 49.86 LIG 0.28  HD
ENDBRANCH 43 44
BRANCH 43 48
ATOM     48  CB  ASP D   9      10.926   4.379  62.744  1.00 50.02 LIG 0.15  C 
BRANCH 48 49
ATOM     49  CG  ASP D   9      11.061   2.927  63.096  1.00 50.84 LIG 0.17  C 
ATOM     50 OD1  ASP D   9      10.407   2.097  62.441  1.00 53.44 LIG-0.65  OA
ATOM     51 OD2  ASP D   9      11.820   2.512  64.001  1.00 53.75 LIG-0.65  OA
ENDBRANCH 48 49
ENDBRANCH 43 48
ENDBRANCH 41 43
ENDBRANCH 34 39
ENDBRANCH 31 34
ENDBRANCH 1 30
TORSDOF 20
ENDMDL
MODEL 25
USER: ADFR SOLUTION from run 22
USER: SCORE 17.250001 LL:  -4.824 LR: -13.056 RR:   0.000 FEB:  -7.090
USER: RMSD 5.812454
USER: SEED 21
USER: STATUS no improvement in best 6 clusters for 5 generations
USER: GENES 22
USER: genes 0 Translation |==|  0.49641 0.37937 0.44067
USER: genes 1 Rotation |==|  0.19256 0.46536 0.27761 0.82376
USER: genes 2 Torsion [N]-CA--C-[N] |==|  0.53806
USER: genes 3 Torsion [C]-N--CA-[CB] |==|  0.84890
USER: genes 4 Torsion [N]-CA--C-[N] |==|  0.38333
USER: genes 5 Torsion [C]-N--CA-[C] |==|  0.74268
USER: genes 6 Torsion [N]-CA--CB-[CG1] |==|  0.95716
USER: genes 7 Torsion [CA]-CB--CG1-[CD1] |==|  0.83386
USER: genes 8 Torsion [N]-CA--C-[OXT] |==|  0.57483
USER: genes 9 Torsion [N]-CA--CB-[CG] |==|  0.79872
USER: genes 10 Torsion [CA]-CB--CG-[ND1] |==|  0.06578
USER: genes 11 Torsion [C]-CA--CB-[CG] |==|  0.25790
USER: genes 12 Torsion [CA]-CB--CG-[CD2] |==|  0.98964
USER: genes 13 Torsion [C]-CA--N-[C] |==|  0.66013
USER: genes 14 Torsion [N]-C--CA-[N] |==|  0.08338
USER: genes 15 Torsion [C]-CA--CB-[CG] |==|  0.36961
USER: genes 16 Torsion [CA]-CB--CG-[CD2] |==|  0.18086
USER: genes 17 Torsion [C]-CA--N-[C] |==|  0.17181
USER: genes 18 Torsion [N]-C--CA-[N] |==|  0.60565
USER: genes 19 Torsion [C]-CA--N-[H2] |==|  0.91300
USER: genes 20 Torsion [C]-CA--CB-[CG] |==|  0.76582
USER: genes 21 Torsion [CA]-CB--CG-[OD1] |==|  0.85453
ROOT
ATOM      1  CA  LEU D  11      18.322   3.321  60.730  1.00 47.89 LIG 0.18  C 
ENDROOT
BRANCH 1 2
ATOM      2  C   LEU D  11      17.159   3.610  59.790  1.00 48.14 LIG 0.24  C 
ATOM      3 O    LEU D  11      17.061   4.691  59.224  1.00 47.13 LIG-0.27  OA
ATOM      4  N   HIS D  12      16.256   2.645  59.659  1.00 49.28 LIG-0.35  N 
ATOM      5 H    HIS D  12      16.309   1.875  60.039  1.00 49.28 LIG 0.16  HD
BRANCH 4 6
ATOM      6  CA  HIS D  12      15.072   2.841  58.830  1.00 50.49 LIG 0.18  C 
BRANCH 6 7
ATOM      7  C   HIS D  12      15.424   2.910  57.346  1.00 51.38 LIG 0.24  C 
ATOM      8  N   ILE D  13      14.595   2.249  56.553  1.00 53.16 LIG-0.34  N 
ATOM      9 H    ILE D  13      13.936   1.799  56.872  1.00 53.16 LIG 0.16  HD
ATOM     10 O    HIS D  12      16.394   3.540  56.952  1.00 51.57 LIG-0.27  OA
BRANCH 8 11
ATOM     11  CA  ILE D  13      14.654   2.176  55.084  1.00 55.12 LIG 0.19  C 
BRANCH 11 12
ATOM     12  CB  ILE D  13      14.547   0.714  54.518  1.00 55.01 LIG 0.01  C 
ATOM     13  CG2 ILE D  13      15.500   0.461  53.335  1.00 56.15 LIG 0.01  C 
BRANCH 12 14
ATOM     14  CG1 ILE D  13      14.789  -0.303  55.638  1.00 55.50 LIG 0.00  C 
ATOM     15  CD1 ILE D  13      16.180  -0.185  56.317  1.00 55.45 LIG 0.01  C 
ENDBRANCH 12 14
ENDBRANCH 11 12
BRANCH 11 16
ATOM     16  C   ILE D  13      13.851   3.188  54.261  1.00 55.63 LIG 0.20  C 
ATOM     17 OXT  ILE D  13      13.486   2.849  53.126  1.00 55.86 LIG-0.65  OA
ATOM     18 O    ILE D  13      13.554   4.293  54.721  1.00 56.94 LIG-0.65  OA
ENDBRANCH 11 16
ENDBRANCH 8 11
ENDBRANCH 6 7
BRANCH 6 19
ATOM     19  CB  HIS D  12      14.303   4.096  59.248  1.00 50.55 LIG 0.10  C 
BRANCH 19 20
ATOM     20  CG  HIS D  12      13.575   3.953  60.547  1.00 49.61 LIG 0.05  A 
ATOM     21 ND1  HIS D  12      13.780   3.129  61.601  1.00 49.92 LIG-0.25  NA
ATOM     22  CE1 HIS D  12      12.819   3.421  62.536  1.00 49.12 LIG 0.21  A 
ATOM     23  NE2 HIS D  12      12.065   4.406  62.085  1.00 48.62 LIG-0.36  N 
ATOM     24 HE2  HIS D  12      11.405   4.767  62.502  1.00 48.62 LIG 0.17  HD
ATOM     25  CD2 HIS D  12      12.497   4.743  60.884  1.00 48.49 LIG 0.12  A 
ENDBRANCH 19 20
ENDBRANCH 6 19
ENDBRANCH 4 6
ENDBRANCH 1 2
BRANCH 1 26
ATOM     26  CB  LEU D  11      17.751   2.698  61.999  1.00 47.69 LIG 0.04  C 
BRANCH 26 27
ATOM     27  CG  LEU D  11      17.664   1.170  62.109  1.00 48.05 LIG-0.02  C 
ATOM     28  CD1 LEU D  11      16.255   0.753  62.504  1.00 46.53 LIG 0.01  C 
ATOM     29  CD2 LEU D  11      18.101   0.467  60.846  1.00 50.43 LIG 0.01  C 
ENDBRANCH 26 27
ENDBRANCH 1 26
BRANCH 1 30
ATOM     30  N   LEU D  11      19.095   4.505  61.076  1.00 47.51 LIG-0.35  N 
ATOM     31  C   LEU D  10      20.405   4.607  60.846  1.00 47.80 LIG 0.24  C 
ATOM     32 O    LEU D  10      21.069   3.746  60.251  1.00 47.07 LIG-0.27  OA
ATOM     33 H    LEU D  11      18.630   5.129  61.442  1.00 47.51 LIG 0.16  HD
BRANCH 31 34
ATOM     34  CA  LEU D  10      21.067   5.873  61.374  1.00 47.63 LIG 0.18  C 
BRANCH 34 35
ATOM     35  CB  LEU D  10      22.553   5.649  61.637  1.00 47.29 LIG 0.04  C 
BRANCH 35 36
ATOM     36  CG  LEU D  10      23.457   6.753  61.077  1.00 46.92 LIG-0.02  C 
ATOM     37  CD2 LEU D  10      23.209   8.056  61.761  1.00 45.50 LIG 0.01  C 
ATOM     38  CD1 LEU D  10      23.277   6.930  59.570  1.00 46.83 LIG 0.01  C 
ENDBRANCH 35 36
ENDBRANCH 34 35
BRANCH 34 39
ATOM     39  N   LEU D  10      20.371   6.339  62.560  1.00 47.82 LIG-0.35  N 
ATOM     40 H    LEU D  10      20.015   7.119  62.490  1.00 47.82 LIG 0.16  HD
ATOM     41  C   ASP D   9      20.313   5.582  63.649  1.00 48.63 LIG 0.25  C 
ATOM     42 O    ASP D   9      20.841   4.476  63.731  1.00 48.10 LIG-0.27  OA
BRANCH 41 43
ATOM     43  CA  ASP D   9      19.558   6.163  64.817  1.00 49.27 LIG 0.28  C 
BRANCH 43 44
ATOM     44  N   ASP D   9      20.287   5.784  66.055  1.00 49.86 LIG-0.07  N 
ATOM     45 H2   ASP D   9      20.683   4.996  65.937  1.00 49.86 LIG 0.28  HD
ATOM     46 H3   ASP D   9      20.902   6.401  66.238  1.00 49.86 LIG 0.28  HD
ATOM     47 H1   ASP D   9      19.713   5.728  66.733  1.00 49.86 LIG 0.28  HD
ENDBRANCH 43 44
BRANCH 43 48
ATOM     48  CB  ASP D   9      19.507   7.676  64.666  1.00 50.02 LIG 0.15  C 
BRANCH 48 49
ATOM     49  CG  ASP D   9      20.736   8.353  65.196  1.00 50.84 LIG 0.17  C 
ATOM     50 OD1  ASP D   9      21.101   8.091  66.355  1.00 53.44 LIG-0.65  OA
ATOM     51 OD2  ASP D   9      21.423   9.148  64.517  1.00 53.75 LIG-0.65  OA
ENDBRANCH 48 49
ENDBRANCH 43 48
ENDBRANCH 41 43
ENDBRANCH 34 39
ENDBRANCH 31 34
ENDBRANCH 1 30
TORSDOF 20
ENDMDL
MODEL 26
USER: ADFR SOLUTION from run 20
USER: SCORE 16.505069 LL:  -5.600 LR: -13.048 RR:   0.000 FEB:  -7.082
USER: RMSD 6.169956
USER: SEED 19
USER: STATUS no improvement in best 7 clusters for 5 generations
USER: GENES 22
USER: genes 0 Translation |==|  0.50386 0.36528 0.41820
USER: genes 1 Rotation |==|  0.23818 0.44070 0.19397 0.79031
USER: genes 2 Torsion [N]-CA--C-[N] |==|  0.84939
USER: genes 3 Torsion [C]-N--CA-[CB] |==|  0.84541
USER: genes 4 Torsion [N]-CA--C-[N] |==|  0.72356
USER: genes 5 Torsion [C]-N--CA-[C] |==|  0.12845
USER: genes 6 Torsion [N]-CA--CB-[CG1] |==|  0.03094
USER: genes 7 Torsion [CA]-CB--CG1-[CD1] |==|  0.53619
USER: genes 8 Torsion [N]-CA--C-[OXT] |==|  0.15040
USER: genes 9 Torsion [N]-CA--CB-[CG] |==|  0.59762
USER: genes 10 Torsion [CA]-CB--CG-[ND1] |==|  0.48137
USER: genes 11 Torsion [C]-CA--CB-[CG] |==|  0.27713
USER: genes 12 Torsion [CA]-CB--CG-[CD2] |==|  0.44647
USER: genes 13 Torsion [C]-CA--N-[C] |==|  0.71910
USER: genes 14 Torsion [N]-C--CA-[N] |==|  0.83215
USER: genes 15 Torsion [C]-CA--CB-[CG] |==|  0.78356
USER: genes 16 Torsion [CA]-CB--CG-[CD2] |==|  0.66337
USER: genes 17 Torsion [C]-CA--N-[C] |==|  0.66971
USER: genes 18 Torsion [N]-C--CA-[N] |==|  0.67551
USER: genes 19 Torsion [C]-CA--N-[H2] |==|  0.65783
USER: genes 20 Torsion [C]-CA--CB-[CG] |==|  0.76165
USER: genes 21 Torsion [CA]-CB--CG-[OD1] |==|  0.77502
ROOT
ATOM      1  CA  LEU D  11      18.546   2.898  60.056  1.00 47.89 LIG 0.18  C 
ENDROOT
BRANCH 1 2
ATOM      2  C   LEU D  11      17.872   3.395  58.784  1.00 48.14 LIG 0.24  C 
ATOM      3 O    LEU D  11      18.039   2.820  57.717  1.00 47.13 LIG-0.27  OA
ATOM      4  N   HIS D  12      17.138   4.496  58.900  1.00 49.28 LIG-0.35  N 
ATOM      5 H    HIS D  12      16.998   4.911  59.640  1.00 49.28 LIG 0.16  HD
BRANCH 4 6
ATOM      6  CA  HIS D  12      16.497   5.090  57.732  1.00 50.49 LIG 0.18  C 
BRANCH 6 7
ATOM      7  C   HIS D  12      15.383   4.202  57.183  1.00 51.38 LIG 0.24  C 
ATOM      8  N   ILE D  13      15.728   3.471  56.135  1.00 53.16 LIG-0.34  N 
ATOM      9 H    ILE D  13      16.513   3.530  55.789  1.00 53.16 LIG 0.16  HD
ATOM     10 O    HIS D  12      14.274   4.183  57.697  1.00 51.57 LIG-0.27  OA
BRANCH 8 11
ATOM     11  CA  ILE D  13      14.885   2.494  55.427  1.00 55.12 LIG 0.19  C 
BRANCH 11 12
ATOM     12  CB  ILE D  13      14.989   1.034  56.001  1.00 55.01 LIG 0.01  C 
ATOM     13  CG2 ILE D  13      15.646   0.052  55.014  1.00 56.15 LIG 0.01  C 
BRANCH 12 14
ATOM     14  CG1 ILE D  13      15.740   1.047  57.336  1.00 55.50 LIG 0.00  C 
ATOM     15  CD1 ILE D  13      16.180  -0.356  57.835  1.00 55.45 LIG 0.01  C 
ENDBRANCH 12 14
ENDBRANCH 11 12
BRANCH 11 16
ATOM     16  C   ILE D  13      13.449   2.883  55.064  1.00 55.63 LIG 0.20  C 
ATOM     17 OXT  ILE D  13      13.280   3.926  54.416  1.00 55.86 LIG-0.65  OA
ATOM     18 O    ILE D  13      12.494   2.171  55.381  1.00 56.94 LIG-0.65  OA
ENDBRANCH 11 16
ENDBRANCH 8 11
ENDBRANCH 6 7
BRANCH 6 19
ATOM     19  CB  HIS D  12      17.518   5.394  56.633  1.00 50.55 LIG 0.10  C 
BRANCH 19 20
ATOM     20  CG  HIS D  12      17.216   6.635  55.855  1.00 49.61 LIG 0.05  A 
ATOM     21 ND1  HIS D  12      17.926   7.290  54.906  1.00 49.92 LIG-0.25  NA
ATOM     22  CE1 HIS D  12      17.179   8.374  54.518  1.00 49.12 LIG 0.21  A 
ATOM     23  NE2 HIS D  12      16.040   8.373  55.186  1.00 48.62 LIG-0.36  N 
ATOM     24 HE2  HIS D  12      15.406   8.949  55.102  1.00 48.62 LIG 0.17  HD
ATOM     25  CD2 HIS D  12      16.038   7.336  56.003  1.00 48.49 LIG 0.12  A 
ENDBRANCH 19 20
ENDBRANCH 6 19
ENDBRANCH 4 6
ENDBRANCH 1 2
BRANCH 1 26
ATOM     26  CB  LEU D  11      17.453   2.430  61.010  1.00 47.69 LIG 0.04  C 
BRANCH 26 27
ATOM     27  CG  LEU D  11      17.146   0.931  61.120  1.00 48.05 LIG-0.02  C 
ATOM     28  CD1 LEU D  11      18.430   0.124  60.997  1.00 46.53 LIG 0.01  C 
ATOM     29  CD2 LEU D  11      16.406   0.578  62.388  1.00 50.43 LIG 0.01  C 
ENDBRANCH 26 27
ENDBRANCH 1 26
BRANCH 1 30
ATOM     30  N   LEU D  11      19.362   3.910  60.712  1.00 47.51 LIG-0.35  N 
ATOM     31  C   LEU D  10      20.691   3.948  60.604  1.00 47.80 LIG 0.24  C 
ATOM     32 O    LEU D  10      21.346   3.183  59.883  1.00 47.07 LIG-0.27  OA
ATOM     33 H    LEU D  11      18.909   4.477  61.173  1.00 47.51 LIG 0.16  HD
BRANCH 31 34
ATOM     34  CA  LEU D  10      21.387   5.010  61.447  1.00 47.63 LIG 0.18  C 
BRANCH 34 35
ATOM     35  CB  LEU D  10      21.190   4.747  62.937  1.00 47.29 LIG 0.04  C 
BRANCH 35 36
ATOM     36  CG  LEU D  10      19.811   5.162  63.464  1.00 46.92 LIG-0.02  C 
ATOM     37  CD2 LEU D  10      19.930   6.172  64.556  1.00 45.50 LIG 0.01  C 
ATOM     38  CD1 LEU D  10      19.007   3.965  63.966  1.00 46.83 LIG 0.01  C 
ENDBRANCH 35 36
ENDBRANCH 34 35
BRANCH 34 39
ATOM     39  N   LEU D  10      20.921   6.331  61.063  1.00 47.82 LIG-0.35  N 
ATOM     40 H    LEU D  10      20.079   6.465  61.174  1.00 47.82 LIG 0.16  HD
ATOM     41  C   ASP D   9      21.769   7.232  60.583  1.00 48.63 LIG 0.25  C 
ATOM     42 O    ASP D   9      22.967   7.012  60.420  1.00 48.10 LIG-0.27  OA
BRANCH 41 43
ATOM     43  CA  ASP D   9      21.178   8.570  60.225  1.00 49.27 LIG 0.28  C 
BRANCH 43 44
ATOM     44  N   ASP D   9      21.353   8.762  58.762  1.00 49.86 LIG-0.07  N 
ATOM     45 H2   ASP D   9      21.803   9.515  58.613  1.00 49.86 LIG 0.28  HD
ATOM     46 H3   ASP D   9      21.805   8.074  58.424  1.00 49.86 LIG 0.28  HD
ATOM     47 H1   ASP D   9      20.555   8.812  58.371  1.00 49.86 LIG 0.28  HD
ENDBRANCH 43 44
BRANCH 43 48
ATOM     48  CB  ASP D   9      19.701   8.570  60.593  1.00 50.02 LIG 0.15  C 
BRANCH 48 49
ATOM     49  CG  ASP D   9      18.834   7.999  59.509  1.00 50.84 LIG 0.17  C 
ATOM     50 OD1  ASP D   9      18.524   8.731  58.554  1.00 53.44 LIG-0.65  OA
ATOM     51 OD2  ASP D   9      18.433   6.813  59.511  1.00 53.75 LIG-0.65  OA
ENDBRANCH 48 49
ENDBRANCH 43 48
ENDBRANCH 41 43
ENDBRANCH 34 39
ENDBRANCH 31 34
ENDBRANCH 1 30
TORSDOF 20
ENDMDL
MODEL 27
USER: ADFR SOLUTION from run 86
USER: SCORE 16.924564 LL:  -4.883 LR: -13.029 RR:   0.000 FEB:  -7.063
USER: RMSD 6.843649
USER: SEED 85
USER: STATUS searching
USER: GENES 22
USER: genes 0 Translation |==|  0.49828 0.35560 0.46317
USER: genes 1 Rotation |==|  0.19009 0.28352 0.30073 0.75959
USER: genes 2 Torsion [N]-CA--C-[N] |==|  0.94254
USER: genes 3 Torsion [C]-N--CA-[CB] |==|  0.13608
USER: genes 4 Torsion [N]-CA--C-[N] |==|  0.69440
USER: genes 5 Torsion [C]-N--CA-[C] |==|  0.14359
USER: genes 6 Torsion [N]-CA--CB-[CG1] |==|  0.03847
USER: genes 7 Torsion [CA]-CB--CG1-[CD1] |==|  0.75250
USER: genes 8 Torsion [N]-CA--C-[OXT] |==|  0.11707
USER: genes 9 Torsion [N]-CA--CB-[CG] |==|  0.54519
USER: genes 10 Torsion [CA]-CB--CG-[ND1] |==|  0.53451
USER: genes 11 Torsion [C]-CA--CB-[CG] |==|  0.20162
USER: genes 12 Torsion [CA]-CB--CG-[CD2] |==|  0.69079
USER: genes 13 Torsion [C]-CA--N-[C] |==|  0.77740
USER: genes 14 Torsion [N]-C--CA-[N] |==|  0.47991
USER: genes 15 Torsion [C]-CA--CB-[CG] |==|  0.26109
USER: genes 16 Torsion [CA]-CB--CG-[CD2] |==|  0.06452
USER: genes 17 Torsion [C]-CA--N-[C] |==|  0.80356
USER: genes 18 Torsion [N]-C--CA-[N] |==|  0.03336
USER: genes 19 Torsion [C]-CA--N-[H2] |==|  0.18269
USER: genes 20 Torsion [C]-CA--CB-[CG] |==|  0.52804
USER: genes 21 Torsion [CA]-CB--CG-[OD1] |==|  0.59993
ROOT
ATOM      1  CA  LEU D  11      18.379   2.608  61.405  1.00 47.89 LIG 0.18  C 
ENDROOT
BRANCH 1 2
ATOM      2  C   LEU D  11      17.800   1.944  60.163  1.00 48.14 LIG 0.24  C 
ATOM      3 O    LEU D  11      17.971   0.752  59.948  1.00 47.13 LIG-0.27  OA
ATOM      4  N   HIS D  12      17.145   2.739  59.324  1.00 49.28 LIG-0.35  N 
ATOM      5 H    HIS D  12      17.004   3.576  59.458  1.00 49.28 LIG 0.16  HD
BRANCH 4 6
ATOM      6  CA  HIS D  12      16.602   2.217  58.074  1.00 50.49 LIG 0.18  C 
BRANCH 6 7
ATOM      7  C   HIS D  12      15.737   3.251  57.356  1.00 51.38 LIG 0.24  C 
ATOM      8  N   ILE D  13      14.444   2.975  57.348  1.00 53.16 LIG-0.34  N 
ATOM      9 H    ILE D  13      14.139   2.251  57.698  1.00 53.16 LIG 0.16  HD
ATOM     10 O    HIS D  12      16.230   4.247  56.847  1.00 51.57 LIG-0.27  OA
BRANCH 8 11
ATOM     11  CA  ILE D  13      13.371   3.806  56.776  1.00 55.12 LIG 0.19  C 
BRANCH 11 12
ATOM     12  CB  ILE D  13      12.850   4.925  57.748  1.00 55.01 LIG 0.01  C 
ATOM     13  CG2 ILE D  13      11.421   4.657  58.256  1.00 56.15 LIG 0.01  C 
BRANCH 12 14
ATOM     14  CG1 ILE D  13      13.820   5.095  58.922  1.00 55.50 LIG 0.00  C 
ATOM     15  CD1 ILE D  13      13.519   4.178  60.138  1.00 55.45 LIG 0.01  C 
ENDBRANCH 12 14
ENDBRANCH 11 12
BRANCH 11 16
ATOM     16  C   ILE D  13      13.506   4.295  55.331  1.00 55.63 LIG 0.20  C 
ATOM     17 OXT  ILE D  13      13.929   3.493  54.487  1.00 55.86 LIG-0.65  OA
ATOM     18 O    ILE D  13      13.179   5.441  55.012  1.00 56.94 LIG-0.65  OA
ENDBRANCH 11 16
ENDBRANCH 8 11
ENDBRANCH 6 7
BRANCH 6 19
ATOM     19  CB  HIS D  12      15.802   0.934  58.309  1.00 50.55 LIG 0.10  C 
BRANCH 19 20
ATOM     20  CG  HIS D  12      15.548   0.145  57.064  1.00 49.61 LIG 0.05  A 
ATOM     21 ND1  HIS D  12      14.717  -0.896  56.820  1.00 49.92 LIG-0.25  NA
ATOM     22  CE1 HIS D  12      14.875  -1.239  55.501  1.00 49.12 LIG 0.21  A 
ATOM     23  NE2 HIS D  12      15.754  -0.424  54.947  1.00 48.62 LIG-0.36  N 
ATOM     24 HE2  HIS D  12      16.006  -0.439  54.124  1.00 48.62 LIG 0.17  HD
ATOM     25  CD2 HIS D  12      16.179   0.418  55.870  1.00 48.49 LIG 0.12  A 
ENDBRANCH 19 20
ENDBRANCH 6 19
ENDBRANCH 4 6
ENDBRANCH 1 2
BRANCH 1 26
ATOM     26  CB  LEU D  11      17.439   2.314  62.570  1.00 47.69 LIG 0.04  C 
BRANCH 26 27
ATOM     27  CG  LEU D  11      17.396   0.898  63.159  1.00 48.05 LIG-0.02  C 
ATOM     28  CD1 LEU D  11      17.681   0.945  64.653  1.00 46.53 LIG 0.01  C 
ATOM     29  CD2 LEU D  11      16.092   0.189  62.880  1.00 50.43 LIG 0.01  C 
ENDBRANCH 26 27
ENDBRANCH 1 26
BRANCH 1 30
ATOM     30  N   LEU D  11      18.547   4.047  61.268  1.00 47.51 LIG-0.35  N 
ATOM     31  C   LEU D  10      19.580   4.597  60.630  1.00 47.80 LIG 0.24  C 
ATOM     32 O    LEU D  10      20.447   3.944  60.031  1.00 47.07 LIG-0.27  OA
ATOM     33 H    LEU D  11      17.920   4.507  61.636  1.00 47.51 LIG 0.16  HD
BRANCH 31 34
ATOM     34  CA  LEU D  10      19.649   6.118  60.681  1.00 47.63 LIG 0.18  C 
BRANCH 34 35
ATOM     35  CB  LEU D  10      18.440   6.748  59.997  1.00 47.29 LIG 0.04  C 
BRANCH 35 36
ATOM     36  CG  LEU D  10      17.290   7.084  60.953  1.00 46.92 LIG-0.02  C 
ATOM     37  CD2 LEU D  10      17.780   7.248  62.353  1.00 45.50 LIG 0.01  C 
ATOM     38  CD1 LEU D  10      16.192   6.023  60.923  1.00 46.83 LIG 0.01  C 
ENDBRANCH 35 36
ENDBRANCH 34 35
BRANCH 34 39
ATOM     39  N   LEU D  10      20.900   6.577  60.101  1.00 47.82 LIG-0.35  N 
ATOM     40 H    LEU D  10      20.824   6.973  59.341  1.00 47.82 LIG 0.16  HD
ATOM     41  C   ASP D   9      22.050   6.379  60.734  1.00 48.63 LIG 0.25  C 
ATOM     42 O    ASP D   9      22.135   5.798  61.813  1.00 48.10 LIG-0.27  OA
BRANCH 41 43
ATOM     43  CA  ASP D   9      23.282   6.904  60.044  1.00 49.27 LIG 0.28  C 
BRANCH 43 44
ATOM     44  N   ASP D   9      22.835   7.783  58.932  1.00 49.86 LIG-0.07  N 
ATOM     45 H2   ASP D   9      22.426   8.499  59.267  1.00 49.86 LIG 0.28  HD
ATOM     46 H3   ASP D   9      23.540   8.040  58.455  1.00 49.86 LIG 0.28  HD
ATOM     47 H1   ASP D   9      22.270   7.337  58.409  1.00 49.86 LIG 0.28  HD
ENDBRANCH 43 44
BRANCH 43 48
ATOM     48  CB  ASP D   9      24.112   7.689  61.049  1.00 50.02 LIG 0.15  C 
BRANCH 48 49
ATOM     49  CG  ASP D   9      25.232   8.451  60.405  1.00 50.84 LIG 0.17  C 
ATOM     50 OD1  ASP D   9      26.308   8.552  61.019  1.00 53.44 LIG-0.65  OA
ATOM     51 OD2  ASP D   9      25.140   8.967  59.268  1.00 53.75 LIG-0.65  OA
ENDBRANCH 48 49
ENDBRANCH 43 48
ENDBRANCH 41 43
ENDBRANCH 34 39
ENDBRANCH 31 34
ENDBRANCH 1 30
TORSDOF 20
ENDMDL
MODEL 28
USER: ADFR SOLUTION from run 94
USER: SCORE 17.138822 LL:  -4.777 LR: -13.013 RR:   0.000 FEB:  -7.047
USER: RMSD 6.237907
USER: SEED 93
USER: STATUS no improvement in best 11 clusters for 5 generations
USER: GENES 22
USER: genes 0 Translation |==|  0.49451 0.33522 0.44151
USER: genes 1 Rotation |==|  0.25013 0.46794 0.33646 0.89974
USER: genes 2 Torsion [N]-CA--C-[N] |==|  0.88333
USER: genes 3 Torsion [C]-N--CA-[CB] |==|  0.54077
USER: genes 4 Torsion [N]-CA--C-[N] |==|  0.29805
USER: genes 5 Torsion [C]-N--CA-[C] |==|  0.72950
USER: genes 6 Torsion [N]-CA--CB-[CG1] |==|  0.36168
USER: genes 7 Torsion [CA]-CB--CG1-[CD1] |==|  0.41394
USER: genes 8 Torsion [N]-CA--C-[OXT] |==|  0.39705
USER: genes 9 Torsion [N]-CA--CB-[CG] |==|  0.76289
USER: genes 10 Torsion [CA]-CB--CG-[ND1] |==|  0.55577
USER: genes 11 Torsion [C]-CA--CB-[CG] |==|  0.80718
USER: genes 12 Torsion [CA]-CB--CG-[CD2] |==|  0.66835
USER: genes 13 Torsion [C]-CA--N-[C] |==|  0.81117
USER: genes 14 Torsion [N]-C--CA-[N] |==|  0.41285
USER: genes 15 Torsion [C]-CA--CB-[CG] |==|  0.34687
USER: genes 16 Torsion [CA]-CB--CG-[CD2] |==|  0.24244
USER: genes 17 Torsion [C]-CA--N-[C] |==|  0.79816
USER: genes 18 Torsion [N]-C--CA-[N] |==|  0.92559
USER: genes 19 Torsion [C]-CA--N-[H2] |==|  0.99644
USER: genes 20 Torsion [C]-CA--CB-[CG] |==|  0.53649
USER: genes 21 Torsion [CA]-CB--CG-[OD1] |==|  0.14537
ROOT
ATOM      1  CA  LEU D  11      18.265   1.997  60.755  1.00 47.89 LIG 0.18  C 
ENDROOT
BRANCH 1 2
ATOM      2  C   LEU D  11      16.967   2.195  59.984  1.00 48.14 LIG 0.24  C 
ATOM      3 O    LEU D  11      16.836   1.759  58.849  1.00 47.13 LIG-0.27  OA
ATOM      4  N   HIS D  12      16.020   2.894  60.600  1.00 49.28 LIG-0.35  N 
ATOM      5 H    HIS D  12      16.086   3.203  61.400  1.00 49.28 LIG 0.16  HD
BRANCH 4 6
ATOM      6  CA  HIS D  12      14.760   3.194  59.928  1.00 50.49 LIG 0.18  C 
BRANCH 6 7
ATOM      7  C   HIS D  12      14.975   3.591  58.469  1.00 51.38 LIG 0.24  C 
ATOM      8  N   ILE D  13      14.605   2.674  57.590  1.00 53.16 LIG-0.34  N 
ATOM      9 H    ILE D  13      14.299   1.911  57.842  1.00 53.16 LIG 0.16  HD
ATOM     10 O    HIS D  12      15.446   4.678  58.169  1.00 51.57 LIG-0.27  OA
BRANCH 8 11
ATOM     11  CA  ILE D  13      14.650   2.793  56.123  1.00 55.12 LIG 0.19  C 
BRANCH 11 12
ATOM     12  CB  ILE D  13      15.428   1.625  55.416  1.00 55.01 LIG 0.01  C 
ATOM     13  CG2 ILE D  13      15.859   0.517  56.395  1.00 56.15 LIG 0.01  C 
BRANCH 12 14
ATOM     14  CG1 ILE D  13      14.583   1.044  54.277  1.00 55.50 LIG 0.00  C 
ATOM     15  CD1 ILE D  13      15.411   0.488  53.087  1.00 55.45 LIG 0.01  C 
ENDBRANCH 12 14
ENDBRANCH 11 12
BRANCH 11 16
ATOM     16  C   ILE D  13      13.373   3.189  55.375  1.00 55.63 LIG 0.20  C 
ATOM     17 OXT  ILE D  13      13.489   3.932  54.390  1.00 55.86 LIG-0.65  OA
ATOM     18 O    ILE D  13      12.270   2.763  55.724  1.00 56.94 LIG-0.65  OA
ENDBRANCH 11 16
ENDBRANCH 8 11
ENDBRANCH 6 7
BRANCH 6 19
ATOM     19  CB  HIS D  12      13.987   4.291  60.663  1.00 50.55 LIG 0.10  C 
BRANCH 19 20
ATOM     20  CG  HIS D  12      13.135   3.782  61.782  1.00 49.61 LIG 0.05  A 
ATOM     21 ND1  HIS D  12      12.071   4.329  62.416  1.00 49.92 LIG-0.25  NA
ATOM     22  CE1 HIS D  12      11.662   3.431  63.369  1.00 49.12 LIG 0.21  A 
ATOM     23  NE2 HIS D  12      12.430   2.359  63.308  1.00 48.62 LIG-0.36  N 
ATOM     24 HE2  HIS D  12      12.356   1.657  63.801  1.00 48.62 LIG 0.17  HD
ATOM     25  CD2 HIS D  12      13.331   2.546  62.361  1.00 48.49 LIG 0.12  A 
ENDBRANCH 19 20
ENDBRANCH 6 19
ENDBRANCH 4 6
ENDBRANCH 1 2
BRANCH 1 26
ATOM     26  CB  LEU D  11      18.042   0.874  61.762  1.00 47.69 LIG 0.04  C 
BRANCH 26 27
ATOM     27  CG  LEU D  11      17.112   1.113  62.957  1.00 48.05 LIG-0.02  C 
ATOM     28  CD1 LEU D  11      15.907   0.187  62.876  1.00 46.53 LIG 0.01  C 
ATOM     29  CD2 LEU D  11      17.816   0.966  64.285  1.00 50.43 LIG 0.01  C 
ENDBRANCH 26 27
ENDBRANCH 1 26
BRANCH 1 30
ATOM     30  N   LEU D  11      18.713   3.193  61.453  1.00 47.51 LIG-0.35  N 
ATOM     31  C   LEU D  10      19.143   4.284  60.817  1.00 47.80 LIG 0.24  C 
ATOM     32 O    LEU D  10      19.130   4.413  59.585  1.00 47.07 LIG-0.27  OA
ATOM     33 H    LEU D  11      18.675   3.130  62.310  1.00 47.51 LIG 0.16  HD
BRANCH 31 34
ATOM     34  CA  LEU D  10      19.675   5.397  61.711  1.00 47.63 LIG 0.18  C 
BRANCH 34 35
ATOM     35  CB  LEU D  10      18.549   6.317  62.175  1.00 47.29 LIG 0.04  C 
BRANCH 35 36
ATOM     36  CG  LEU D  10      18.459   6.467  63.698  1.00 46.92 LIG-0.02  C 
ATOM     37  CD2 LEU D  10      19.342   7.566  64.187  1.00 45.50 LIG 0.01  C 
ATOM     38  CD1 LEU D  10      18.815   5.171  64.423  1.00 46.83 LIG 0.01  C 
ENDBRANCH 35 36
ENDBRANCH 34 35
BRANCH 34 39
ATOM     39  N   LEU D  10      20.722   6.129  61.019  1.00 47.82 LIG-0.35  N 
ATOM     40 H    LEU D  10      20.500   6.917  60.754  1.00 47.82 LIG 0.16  HD
ATOM     41  C   ASP D   9      21.918   5.583  60.834  1.00 48.63 LIG 0.25  C 
ATOM     42 O    ASP D   9      22.207   4.450  61.210  1.00 48.10 LIG-0.27  OA
BRANCH 41 43
ATOM     43  CA  ASP D   9      22.928   6.436  60.112  1.00 49.27 LIG 0.28  C 
BRANCH 43 44
ATOM     44  N   ASP D   9      22.180   7.377  59.239  1.00 49.86 LIG-0.07  N 
ATOM     45 H2   ASP D   9      21.307   7.223  59.316  1.00 49.86 LIG 0.28  HD
ATOM     46 H3   ASP D   9      22.357   8.214  59.485  1.00 49.86 LIG 0.28  HD
ATOM     47 H1   ASP D   9      22.428   7.258  58.393  1.00 49.86 LIG 0.28  HD
ENDBRANCH 43 44
BRANCH 43 48
ATOM     48  CB  ASP D   9      23.753   7.197  61.140  1.00 50.02 LIG 0.15  C 
BRANCH 48 49
ATOM     49  CG  ASP D   9      24.566   8.299  60.527  1.00 50.84 LIG 0.17  C 
ATOM     50 OD1  ASP D   9      23.988   9.127  59.803  1.00 53.44 LIG-0.65  OA
ATOM     51 OD2  ASP D   9      25.793   8.437  60.735  1.00 53.75 LIG-0.65  OA
ENDBRANCH 48 49
ENDBRANCH 43 48
ENDBRANCH 41 43
ENDBRANCH 34 39
ENDBRANCH 31 34
ENDBRANCH 1 30
TORSDOF 20
ENDMDL
MODEL 29
USER: ADFR SOLUTION from run 158
USER: SCORE 15.580971 LL:  -4.216 LR: -12.992 RR:   0.000 FEB:  -7.026
USER: RMSD 6.011526
USER: SEED 157
USER: STATUS no improvement in best 10 clusters for 5 generations
USER: GENES 22
USER: genes 0 Translation |==|  0.50773 0.37273 0.41538
USER: genes 1 Rotation |==|  0.20832 0.44638 0.24337 0.81014
USER: genes 2 Torsion [N]-CA--C-[N] |==|  0.76519
USER: genes 3 Torsion [C]-N--CA-[CB] |==|  0.75942
USER: genes 4 Torsion [N]-CA--C-[N] |==|  0.20533
USER: genes 5 Torsion [C]-N--CA-[C] |==|  0.31035
USER: genes 6 Torsion [N]-CA--CB-[CG1] |==|  0.80580
USER: genes 7 Torsion [CA]-CB--CG1-[CD1] |==|  0.83750
USER: genes 8 Torsion [N]-CA--C-[OXT] |==|  0.27211
USER: genes 9 Torsion [N]-CA--CB-[CG] |==|  0.96531
USER: genes 10 Torsion [CA]-CB--CG-[ND1] |==|  0.24883
USER: genes 11 Torsion [C]-CA--CB-[CG] |==|  0.23803
USER: genes 12 Torsion [CA]-CB--CG-[CD2] |==|  0.86847
USER: genes 13 Torsion [C]-CA--N-[C] |==|  0.67948
USER: genes 14 Torsion [N]-C--CA-[N] |==|  0.69845
USER: genes 15 Torsion [C]-CA--CB-[CG] |==|  0.21490
USER: genes 16 Torsion [CA]-CB--CG-[CD2] |==|  0.00349
USER: genes 17 Torsion [C]-CA--N-[C] |==|  0.62919
USER: genes 18 Torsion [N]-C--CA-[N] |==|  0.06110
USER: genes 19 Torsion [C]-CA--N-[H2] |==|  0.36861
USER: genes 20 Torsion [C]-CA--CB-[CG] |==|  0.25421
USER: genes 21 Torsion [CA]-CB--CG-[OD1] |==|  0.16575
ROOT
ATOM      1  CA  LEU D  11      18.662   3.122  59.971  1.00 47.89 LIG 0.18  C 
ENDROOT
BRANCH 1 2
ATOM      2  C   LEU D  11      17.690   3.460  58.849  1.00 48.14 LIG 0.24  C 
ATOM      3 O    LEU D  11      18.008   3.315  57.676  1.00 47.13 LIG-0.27  OA
ATOM      4  N   HIS D  12      16.512   3.949  59.220  1.00 49.28 LIG-0.35  N 
ATOM      5 H    HIS D  12      16.264   4.051  60.037  1.00 49.28 LIG 0.16  HD
BRANCH 4 6
ATOM      6  CA  HIS D  12      15.530   4.362  58.223  1.00 50.49 LIG 0.18  C 
BRANCH 6 7
ATOM      7  C   HIS D  12      15.535   3.439  57.006  1.00 51.38 LIG 0.24  C 
ATOM      8  N   ILE D  13      14.984   2.254  57.213  1.00 53.16 LIG-0.34  N 
ATOM      9 H    ILE D  13      14.681   2.030  57.987  1.00 53.16 LIG 0.16  HD
ATOM     10 O    HIS D  12      16.008   3.798  55.938  1.00 51.57 LIG-0.27  OA
BRANCH 8 11
ATOM     11  CA  ILE D  13      14.804   1.182  56.220  1.00 55.12 LIG 0.19  C 
BRANCH 11 12
ATOM     12  CB  ILE D  13      14.752   1.695  54.736  1.00 55.01 LIG 0.01  C 
ATOM     13  CG2 ILE D  13      14.913   0.562  53.706  1.00 56.15 LIG 0.01  C 
BRANCH 12 14
ATOM     14  CG1 ILE D  13      13.451   2.468  54.493  1.00 55.50 LIG 0.00  C 
ATOM     15  CD1 ILE D  13      12.161   1.647  54.758  1.00 55.45 LIG 0.01  C 
ENDBRANCH 12 14
ENDBRANCH 11 12
BRANCH 11 16
ATOM     16  C   ILE D  13      15.617  -0.108  56.370  1.00 55.63 LIG 0.20  C 
ATOM     17 OXT  ILE D  13      15.066  -1.078  56.908  1.00 55.86 LIG-0.65  OA
ATOM     18 O    ILE D  13      16.773  -0.187  55.946  1.00 56.94 LIG-0.65  OA
ENDBRANCH 11 16
ENDBRANCH 8 11
ENDBRANCH 6 7
BRANCH 6 19
ATOM     19  CB  HIS D  12      15.757   5.810  57.786  1.00 50.55 LIG 0.10  C 
BRANCH 19 20
ATOM     20  CG  HIS D  12      16.710   6.562  58.660  1.00 49.61 LIG 0.05  A 
ATOM     21 ND1  HIS D  12      18.055   6.706  58.600  1.00 49.92 LIG-0.25  NA
ATOM     22  CE1 HIS D  12      18.424   7.507  59.651  1.00 49.12 LIG 0.21  A 
ATOM     23  NE2 HIS D  12      17.343   7.864  60.320  1.00 48.62 LIG-0.36  N 
ATOM     24 HE2  HIS D  12      17.325   8.375  61.012  1.00 48.62 LIG 0.17  HD
ATOM     25  CD2 HIS D  12      16.295   7.303  59.746  1.00 48.49 LIG 0.12  A 
ENDBRANCH 19 20
ENDBRANCH 6 19
ENDBRANCH 4 6
ENDBRANCH 1 2
BRANCH 1 26
ATOM     26  CB  LEU D  11      17.852   2.562  61.136  1.00 47.69 LIG 0.04  C 
BRANCH 26 27
ATOM     27  CG  LEU D  11      17.512   1.066  61.161  1.00 48.05 LIG-0.02  C 
ATOM     28  CD1 LEU D  11      16.539   0.770  62.292  1.00 46.53 LIG 0.01  C 
ATOM     29  CD2 LEU D  11      16.973   0.568  59.841  1.00 50.43 LIG 0.01  C 
ENDBRANCH 26 27
ENDBRANCH 1 26
BRANCH 1 30
ATOM     30  N   LEU D  11      19.441   4.264  60.426  1.00 47.51 LIG-0.35  N 
ATOM     31  C   LEU D  10      20.765   4.338  60.290  1.00 47.80 LIG 0.24  C 
ATOM     32 O    LEU D  10      21.445   3.486  59.700  1.00 47.07 LIG-0.27  OA
ATOM     33 H    LEU D  11      18.969   4.884  60.790  1.00 47.51 LIG 0.16  HD
BRANCH 31 34
ATOM     34  CA  LEU D  10      21.424   5.557  60.922  1.00 47.63 LIG 0.18  C 
BRANCH 34 35
ATOM     35  CB  LEU D  10      20.484   6.240  61.912  1.00 47.29 LIG 0.04  C 
BRANCH 35 36
ATOM     36  CG  LEU D  10      20.375   5.522  63.262  1.00 46.92 LIG-0.02  C 
ATOM     37  CD2 LEU D  10      21.252   4.315  63.306  1.00 45.50 LIG 0.01  C 
ATOM     38  CD1 LEU D  10      18.938   5.114  63.578  1.00 46.83 LIG 0.01  C 
ENDBRANCH 35 36
ENDBRANCH 34 35
BRANCH 34 39
ATOM     39  N   LEU D  10      21.876   6.470  59.886  1.00 47.82 LIG-0.35  N 
ATOM     40 H    LEU D  10      21.302   6.627  59.265  1.00 47.82 LIG 0.16  HD
ATOM     41  C   ASP D   9      23.093   6.998  59.936  1.00 48.63 LIG 0.25  C 
ATOM     42 O    ASP D   9      23.901   6.747  60.827  1.00 48.10 LIG-0.27  OA
BRANCH 41 43
ATOM     43  CA  ASP D   9      23.452   7.936  58.814  1.00 49.27 LIG 0.28  C 
BRANCH 43 44
ATOM     44  N   ASP D   9      22.184   8.442  58.227  1.00 49.86 LIG-0.07  N 
ATOM     45 H2   ASP D   9      22.232   9.325  58.133  1.00 49.86 LIG 0.28  HD
ATOM     46 H3   ASP D   9      22.054   8.065  57.432  1.00 49.86 LIG 0.28  HD
ATOM     47 H1   ASP D   9      21.505   8.238  58.766  1.00 49.86 LIG 0.28  HD
ENDBRANCH 43 44
BRANCH 43 48
ATOM     48  CB  ASP D   9      24.277   9.084  59.378  1.00 50.02 LIG 0.15  C 
BRANCH 48 49
ATOM     49  CG  ASP D   9      25.753   8.815  59.327  1.00 50.84 LIG 0.17  C 
ATOM     50 OD1  ASP D   9      26.278   8.607  58.220  1.00 53.44 LIG-0.65  OA
ATOM     51 OD2  ASP D   9      26.480   8.817  60.346  1.00 53.75 LIG-0.65  OA
ENDBRANCH 48 49
ENDBRANCH 43 48
ENDBRANCH 41 43
ENDBRANCH 34 39
ENDBRANCH 31 34
ENDBRANCH 1 30
TORSDOF 20
ENDMDL
MODEL 30
USER: ADFR SOLUTION from run 116
USER: SCORE 16.747592 LL:  -5.269 LR: -12.917 RR:   0.000 FEB:  -6.951
USER: RMSD 7.090512
USER: SEED 115
USER: STATUS no improvement in best 4 clusters for 5 generations
USER: GENES 22
USER: genes 0 Translation |==|  0.50655 0.36096 0.44772
USER: genes 1 Rotation |==|  0.18545 0.38167 0.23255 0.75599
USER: genes 2 Torsion [N]-CA--C-[N] |==|  0.47778
USER: genes 3 Torsion [C]-N--CA-[CB] |==|  0.50621
USER: genes 4 Torsion [N]-CA--C-[N] |==|  0.40892
USER: genes 5 Torsion [C]-N--CA-[C] |==|  0.53410
USER: genes 6 Torsion [N]-CA--CB-[CG1] |==|  0.08188
USER: genes 7 Torsion [CA]-CB--CG1-[CD1] |==|  0.16740
USER: genes 8 Torsion [N]-CA--C-[OXT] |==|  0.04320
USER: genes 9 Torsion [N]-CA--CB-[CG] |==|  0.54434
USER: genes 10 Torsion [CA]-CB--CG-[ND1] |==|  0.59401
USER: genes 11 Torsion [C]-CA--CB-[CG] |==|  0.27770
USER: genes 12 Torsion [CA]-CB--CG-[CD2] |==|  0.68869
USER: genes 13 Torsion [C]-CA--N-[C] |==|  0.76654
USER: genes 14 Torsion [N]-C--CA-[N] |==|  0.82761
USER: genes 15 Torsion [C]-CA--CB-[CG] |==|  0.76619
USER: genes 16 Torsion [CA]-CB--CG-[CD2] |==|  0.68819
USER: genes 17 Torsion [C]-CA--N-[C] |==|  0.57809
USER: genes 18 Torsion [N]-C--CA-[N] |==|  0.69155
USER: genes 19 Torsion [C]-CA--N-[H2] |==|  0.63799
USER: genes 20 Torsion [C]-CA--CB-[CG] |==|  0.75292
USER: genes 21 Torsion [CA]-CB--CG-[OD1] |==|  0.78260
ROOT
ATOM      1  CA  LEU D  11      18.627   2.769  60.942  1.00 47.89 LIG 0.18  C 
ENDROOT
BRANCH 1 2
ATOM      2  C   LEU D  11      17.854   2.719  59.630  1.00 48.14 LIG 0.24  C 
ATOM      3 O    LEU D  11      17.721   3.720  58.940  1.00 47.13 LIG-0.27  OA
ATOM      4  N   HIS D  12      17.312   1.549  59.312  1.00 49.28 LIG-0.35  N 
ATOM      5 H    HIS D  12      17.400   0.830  59.777  1.00 49.28 LIG 0.16  HD
BRANCH 4 6
ATOM      6  CA  HIS D  12      16.501   1.406  58.108  1.00 50.49 LIG 0.18  C 
BRANCH 6 7
ATOM      7  C   HIS D  12      15.365   2.426  58.065  1.00 51.38 LIG 0.24  C 
ATOM      8  N   ILE D  13      15.041   2.836  56.849  1.00 53.16 LIG-0.34  N 
ATOM      9 H    ILE D  13      15.468   2.561  56.156  1.00 53.16 LIG 0.16  HD
ATOM     10 O    HIS D  12      14.814   2.806  59.087  1.00 51.57 LIG-0.27  OA
BRANCH 8 11
ATOM     11  CA  ILE D  13      13.961   3.773  56.496  1.00 55.12 LIG 0.19  C 
BRANCH 11 12
ATOM     12  CB  ILE D  13      14.062   5.160  57.228  1.00 55.01 LIG 0.01  C 
ATOM     13  CG2 ILE D  13      13.216   5.219  58.514  1.00 56.15 LIG 0.01  C 
BRANCH 12 14
ATOM     14  CG1 ILE D  13      15.527   5.492  57.526  1.00 55.50 LIG 0.00  C 
ATOM     15  CD1 ILE D  13      16.429   5.594  56.266  1.00 55.45 LIG 0.01  C 
ENDBRANCH 12 14
ENDBRANCH 11 12
BRANCH 11 16
ATOM     16  C   ILE D  13      13.554   3.910  55.026  1.00 55.63 LIG 0.20  C 
ATOM     17 OXT  ILE D  13      13.931   3.032  54.238  1.00 55.86 LIG-0.65  OA
ATOM     18 O    ILE D  13      12.851   4.848  54.643  1.00 56.94 LIG-0.65  OA
ENDBRANCH 11 16
ENDBRANCH 8 11
ENDBRANCH 6 7
BRANCH 6 19
ATOM     19  CB  HIS D  12      15.941  -0.012  57.981  1.00 50.55 LIG 0.10  C 
BRANCH 19 20
ATOM     20  CG  HIS D  12      15.428  -0.338  56.614  1.00 49.61 LIG 0.05  A 
ATOM     21 ND1  HIS D  12      14.398  -1.118  56.209  1.00 49.92 LIG-0.25  NA
ATOM     22  CE1 HIS D  12      14.366  -1.065  54.838  1.00 49.12 LIG 0.21  A 
ATOM     23  NE2 HIS D  12      15.326  -0.262  54.416  1.00 48.62 LIG-0.36  N 
ATOM     24 HE2  HIS D  12      15.492  -0.064  53.595  1.00 48.62 LIG 0.17  HD
ATOM     25  CD2 HIS D  12      15.985   0.186  55.468  1.00 48.49 LIG 0.12  A 
ENDBRANCH 19 20
ENDBRANCH 6 19
ENDBRANCH 4 6
ENDBRANCH 1 2
BRANCH 1 26
ATOM     26  CB  LEU D  11      17.629   2.570  62.077  1.00 47.69 LIG 0.04  C 
BRANCH 26 27
ATOM     27  CG  LEU D  11      17.500   1.186  62.727  1.00 48.05 LIG-0.02  C 
ATOM     28  CD1 LEU D  11      17.744   1.288  64.226  1.00 46.53 LIG 0.01  C 
ATOM     29  CD2 LEU D  11      16.172   0.527  62.441  1.00 50.43 LIG 0.01  C 
ENDBRANCH 26 27
ENDBRANCH 1 26
BRANCH 1 30
ATOM     30  N   LEU D  11      19.347   4.017  61.142  1.00 47.51 LIG-0.35  N 
ATOM     31  C   LEU D  10      20.558   4.244  60.631  1.00 47.80 LIG 0.24  C 
ATOM     32 O    LEU D  10      21.148   3.454  59.880  1.00 47.07 LIG-0.27  OA
ATOM     33 H    LEU D  11      18.921   4.592  61.619  1.00 47.51 LIG 0.16  HD
BRANCH 31 34
ATOM     34  CA  LEU D  10      21.205   5.562  61.035  1.00 47.63 LIG 0.18  C 
BRANCH 34 35
ATOM     35  CB  LEU D  10      21.437   5.624  62.542  1.00 47.29 LIG 0.04  C 
BRANCH 35 36
ATOM     36  CG  LEU D  10      20.213   6.085  63.341  1.00 46.92 LIG-0.02  C 
ATOM     37  CD2 LEU D  10      20.443   7.423  63.961  1.00 45.50 LIG 0.01  C 
ATOM     38  CD1 LEU D  10      19.828   5.083  64.427  1.00 46.83 LIG 0.01  C 
ENDBRANCH 35 36
ENDBRANCH 34 35
BRANCH 34 39
ATOM     39  N   LEU D  10      20.398   6.675  60.565  1.00 47.82 LIG-0.35  N 
ATOM     40 H    LEU D  10      19.558   6.507  60.489  1.00 47.82 LIG 0.16  HD
ATOM     41  C   ASP D   9      20.958   7.846  60.288  1.00 48.63 LIG 0.25  C 
ATOM     42 O    ASP D   9      22.164   8.058  60.392  1.00 48.10 LIG-0.27  OA
BRANCH 41 43
ATOM     43  CA  ASP D   9      20.025   8.929  59.816  1.00 49.27 LIG 0.28  C 
BRANCH 43 44
ATOM     44  N   ASP D   9      20.324   9.188  58.384  1.00 49.86 LIG-0.07  N 
ATOM     45 H2   ASP D   9      20.425  10.063  58.255  1.00 49.86 LIG 0.28  HD
ATOM     46 H3   ASP D   9      21.074   8.767  58.156  1.00 49.86 LIG 0.28  HD
ATOM     47 H1   ASP D   9      19.653   8.891  57.881  1.00 49.86 LIG 0.28  HD
ENDBRANCH 43 44
BRANCH 43 48
ATOM     48  CB  ASP D   9      18.590   8.451  59.986  1.00 50.02 LIG 0.15  C 
BRANCH 48 49
ATOM     49  CG  ASP D   9      18.079   7.713  58.783  1.00 50.84 LIG 0.17  C 
ATOM     50 OD1  ASP D   9      17.718   8.374  57.794  1.00 53.44 LIG-0.65  OA
ATOM     51 OD2  ASP D   9      18.027   6.464  58.721  1.00 53.75 LIG-0.65  OA
ENDBRANCH 48 49
ENDBRANCH 43 48
ENDBRANCH 41 43
ENDBRANCH 34 39
ENDBRANCH 31 34
ENDBRANCH 1 30
TORSDOF 20
ENDMDL
MODEL 31
USER: ADFR SOLUTION from run 15
USER: SCORE 15.809242 LL:  -4.290 LR: -12.913 RR:   0.000 FEB:  -6.947
USER: RMSD 5.469998
USER: SEED 704917
USER: STATUS no improvement in best 34 clusters for 5 generations
USER: GENES 22
USER: genes 0 Translation |==|  0.48430 0.36864 0.45553
USER: genes 1 Rotation |==|  0.21297 0.59078 0.32404 0.85834
USER: genes 2 Torsion [N]-CA--C-[N] |==|  0.48516
USER: genes 3 Torsion [C]-N--CA-[CB] |==|  0.85363
USER: genes 4 Torsion [N]-CA--C-[N] |==|  0.34109
USER: genes 5 Torsion [C]-N--CA-[C] |==|  0.21158
USER: genes 6 Torsion [N]-CA--CB-[CG1] |==|  0.90287
USER: genes 7 Torsion [CA]-CB--CG1-[CD1] |==|  0.50308
USER: genes 8 Torsion [N]-CA--C-[OXT] |==|  0.86770
USER: genes 9 Torsion [N]-CA--CB-[CG] |==|  0.66561
USER: genes 10 Torsion [CA]-CB--CG-[ND1] |==|  0.25651
USER: genes 11 Torsion [C]-CA--CB-[CG] |==|  0.25459
USER: genes 12 Torsion [CA]-CB--CG-[CD2] |==|  0.03008
USER: genes 13 Torsion [C]-CA--N-[C] |==|  0.22194
USER: genes 14 Torsion [N]-C--CA-[N] |==|  0.49563
USER: genes 15 Torsion [C]-CA--CB-[CG] |==|  0.24165
USER: genes 16 Torsion [CA]-CB--CG-[CD2] |==|  0.67206
USER: genes 17 Torsion [C]-CA--N-[C] |==|  0.78516
USER: genes 18 Torsion [N]-C--CA-[N] |==|  0.98960
USER: genes 19 Torsion [C]-CA--N-[H2] |==|  0.23720
USER: genes 20 Torsion [C]-CA--CB-[CG] |==|  0.75739
USER: genes 21 Torsion [CA]-CB--CG-[OD1] |==|  0.80519
ROOT
ATOM      1  CA  LEU D  11      17.959   2.999  61.176  1.00 47.89 LIG 0.18  C 
ENDROOT
BRANCH 1 2
ATOM      2  C   LEU D  11      16.605   3.658  60.947  1.00 48.14 LIG 0.24  C 
ATOM      3 O    LEU D  11      16.437   4.848  61.179  1.00 47.13 LIG-0.27  OA
ATOM      4  N   HIS D  12      15.628   2.863  60.527  1.00 49.28 LIG-0.35  N 
ATOM      5 H    HIS D  12      15.725   2.027  60.349  1.00 49.28 LIG 0.16  HD
BRANCH 4 6
ATOM      6  CA  HIS D  12      14.278   3.380  60.334  1.00 50.49 LIG 0.18  C 
BRANCH 6 7
ATOM      7  C   HIS D  12      14.193   4.306  59.123  1.00 51.38 LIG 0.24  C 
ATOM      8  N   ILE D  13      13.308   3.939  58.211  1.00 53.16 LIG-0.34  N 
ATOM      9 H    ILE D  13      12.851   3.216  58.297  1.00 53.16 LIG 0.16  HD
ATOM     10 O    HIS D  12      14.893   5.305  59.037  1.00 51.57 LIG-0.27  OA
BRANCH 8 11
ATOM     11  CA  ILE D  13      12.975   4.656  56.969  1.00 55.12 LIG 0.19  C 
BRANCH 11 12
ATOM     12  CB  ILE D  13      12.421   6.108  57.205  1.00 55.01 LIG 0.01  C 
ATOM     13  CG2 ILE D  13      11.619   6.643  56.004  1.00 56.15 LIG 0.01  C 
BRANCH 12 14
ATOM     14  CG1 ILE D  13      11.576   6.146  58.482  1.00 55.50 LIG 0.00  C 
ATOM     15  CD1 ILE D  13      10.955   7.534  58.796  1.00 55.45 LIG 0.01  C 
ENDBRANCH 12 14
ENDBRANCH 11 12
BRANCH 11 16
ATOM     16  C   ILE D  13      13.949   4.581  55.788  1.00 55.63 LIG 0.20  C 
ATOM     17 OXT  ILE D  13      15.150   4.779  56.018  1.00 55.86 LIG-0.65  OA
ATOM     18 O    ILE D  13      13.555   4.308  54.652  1.00 56.94 LIG-0.65  OA
ENDBRANCH 11 16
ENDBRANCH 8 11
ENDBRANCH 6 7
BRANCH 6 19
ATOM     19  CB  HIS D  12      13.776   4.102  61.586  1.00 50.55 LIG 0.10  C 
BRANCH 19 20
ATOM     20  CG  HIS D  12      12.532   3.508  62.168  1.00 49.61 LIG 0.05  A 
ATOM     21 ND1  HIS D  12      12.354   2.568  63.126  1.00 49.92 LIG-0.25  NA
ATOM     22  CE1 HIS D  12      11.001   2.397  63.279  1.00 49.12 LIG 0.21  A 
ATOM     23  NE2 HIS D  12      10.369   3.220  62.462  1.00 48.62 LIG-0.36  N 
ATOM     24 HE2  HIS D  12       9.516   3.300  62.390  1.00 48.62 LIG 0.17  HD
ATOM     25  CD2 HIS D  12      11.270   3.899  61.777  1.00 48.49 LIG 0.12  A 
ENDBRANCH 19 20
ENDBRANCH 6 19
ENDBRANCH 4 6
ENDBRANCH 1 2
BRANCH 1 26
ATOM     26  CB  LEU D  11      17.799   1.987  62.305  1.00 47.69 LIG 0.04  C 
BRANCH 26 27
ATOM     27  CG  LEU D  11      17.447   0.534  61.964  1.00 48.05 LIG-0.02  C 
ATOM     28  CD1 LEU D  11      16.058   0.196  62.485  1.00 46.53 LIG 0.01  C 
ATOM     29  CD2 LEU D  11      17.557   0.237  60.488  1.00 50.43 LIG 0.01  C 
ENDBRANCH 26 27
ENDBRANCH 1 26
BRANCH 1 30
ATOM     30  N   LEU D  11      19.013   3.944  61.516  1.00 47.51 LIG-0.35  N 
ATOM     31  C   LEU D  10      19.170   4.443  62.743  1.00 47.80 LIG 0.24  C 
ATOM     32 O    LEU D  10      18.490   4.096  63.719  1.00 47.07 LIG-0.27  OA
ATOM     33 H    LEU D  11      19.522   4.149  60.854  1.00 47.51 LIG 0.16  HD
BRANCH 31 34
ATOM     34  CA  LEU D  10      20.257   5.500  62.887  1.00 47.63 LIG 0.18  C 
BRANCH 34 35
ATOM     35  CB  LEU D  10      21.611   4.965  62.432  1.00 47.29 LIG 0.04  C 
BRANCH 35 36
ATOM     36  CG  LEU D  10      21.870   5.129  60.930  1.00 46.92 LIG-0.02  C 
ATOM     37  CD2 LEU D  10      22.044   3.806  60.262  1.00 45.50 LIG 0.01  C 
ATOM     38  CD1 LEU D  10      23.093   6.000  60.652  1.00 46.83 LIG 0.01  C 
ENDBRANCH 35 36
ENDBRANCH 34 35
BRANCH 34 39
ATOM     39  N   LEU D  10      20.298   5.984  64.257  1.00 47.82 LIG-0.35  N 
ATOM     40 H    LEU D  10      20.941   5.669  64.734  1.00 47.82 LIG 0.16  HD
ATOM     41  C   ASP D   9      19.391   6.849  64.694  1.00 48.63 LIG 0.25  C 
ATOM     42 O    ASP D   9      18.472   7.274  63.998  1.00 48.10 LIG-0.27  OA
BRANCH 41 43
ATOM     43  CA  ASP D   9      19.535   7.288  66.128  1.00 49.27 LIG 0.28  C 
BRANCH 43 44
ATOM     44  N   ASP D   9      20.665   6.525  66.720  1.00 49.86 LIG-0.07  N 
ATOM     45 H2   ASP D   9      21.430   6.943  66.542  1.00 49.86 LIG 0.28  HD
ATOM     46 H3   ASP D   9      20.555   6.469  67.601  1.00 49.86 LIG 0.28  HD
ATOM     47 H1   ASP D   9      20.686   5.707  66.371  1.00 49.86 LIG 0.28  HD
ENDBRANCH 43 44
BRANCH 43 48
ATOM     48  CB  ASP D   9      19.822   8.782  66.158  1.00 50.02 LIG 0.15  C 
BRANCH 48 49
ATOM     49  CG  ASP D   9      21.286   9.093  66.048  1.00 50.84 LIG 0.17  C 
ATOM     50 OD1  ASP D   9      22.022   8.815  67.010  1.00 53.44 LIG-0.65  OA
ATOM     51 OD2  ASP D   9      21.801   9.594  65.024  1.00 53.75 LIG-0.65  OA
ENDBRANCH 48 49
ENDBRANCH 43 48
ENDBRANCH 41 43
ENDBRANCH 34 39
ENDBRANCH 31 34
ENDBRANCH 1 30
TORSDOF 20
ENDMDL
MODEL 32
USER: ADFR SOLUTION from run 4
USER: SCORE 16.073038 LL:  -4.806 LR: -12.857 RR:   0.000 FEB:  -6.891
USER: RMSD 5.864182
USER: SEED 882922
USER: STATUS no improvement in best 13 clusters for 5 generations
USER: GENES 22
USER: genes 0 Translation |==|  0.47397 0.37267 0.45486
USER: genes 1 Rotation |==|  0.17343 0.48763 0.28542 0.81170
USER: genes 2 Torsion [N]-CA--C-[N] |==|  0.76726
USER: genes 3 Torsion [C]-N--CA-[CB] |==|  0.50556
USER: genes 4 Torsion [N]-CA--C-[N] |==|  0.33060
USER: genes 5 Torsion [C]-N--CA-[C] |==|  0.49465
USER: genes 6 Torsion [N]-CA--CB-[CG1] |==|  0.52338
USER: genes 7 Torsion [CA]-CB--CG1-[CD1] |==|  0.47283
USER: genes 8 Torsion [N]-CA--C-[OXT] |==|  0.35205
USER: genes 9 Torsion [N]-CA--CB-[CG] |==|  0.80171
USER: genes 10 Torsion [CA]-CB--CG-[ND1] |==|  0.55847
USER: genes 11 Torsion [C]-CA--CB-[CG] |==|  0.30503
USER: genes 12 Torsion [CA]-CB--CG-[CD2] |==|  0.73581
USER: genes 13 Torsion [C]-CA--N-[C] |==|  0.66863
USER: genes 14 Torsion [N]-C--CA-[N] |==|  0.06943
USER: genes 15 Torsion [C]-CA--CB-[CG] |==|  0.40710
USER: genes 16 Torsion [CA]-CB--CG-[CD2] |==|  0.14843
USER: genes 17 Torsion [C]-CA--N-[C] |==|  0.18605
USER: genes 18 Torsion [N]-C--CA-[N] |==|  0.60102
USER: genes 19 Torsion [C]-CA--N-[H2] |==|  0.25208
USER: genes 20 Torsion [C]-CA--CB-[CG] |==|  0.75065
USER: genes 21 Torsion [CA]-CB--CG-[OD1] |==|  0.85961
ROOT
ATOM      1  CA  LEU D  11      17.649   3.120  61.156  1.00 47.89 LIG 0.18  C 
ENDROOT
BRANCH 1 2
ATOM      2  C   LEU D  11      16.410   3.446  60.332  1.00 48.14 LIG 0.24  C 
ATOM      3 O    LEU D  11      16.394   3.269  59.121  1.00 47.13 LIG-0.27  OA
ATOM      4  N   HIS D  12      15.383   3.963  60.997  1.00 49.28 LIG-0.35  N 
ATOM      5 H    HIS D  12      15.367   4.088  61.847  1.00 49.28 LIG 0.16  HD
BRANCH 4 6
ATOM      6  CA  HIS D  12      14.169   4.367  60.295  1.00 50.49 LIG 0.18  C 
BRANCH 6 7
ATOM      7  C   HIS D  12      14.469   5.343  59.159  1.00 51.38 LIG 0.24  C 
ATOM      8  N   ILE D  13      14.123   4.910  57.958  1.00 53.16 LIG-0.34  N 
ATOM      9 H    ILE D  13      13.786   4.127  57.844  1.00 53.16 LIG 0.16  HD
ATOM     10 O    HIS D  12      14.979   6.432  59.376  1.00 51.57 LIG-0.27  OA
BRANCH 8 11
ATOM     11  CA  ILE D  13      14.245   5.647  56.688  1.00 55.12 LIG 0.19  C 
BRANCH 11 12
ATOM     12  CB  ILE D  13      15.594   6.441  56.545  1.00 55.01 LIG 0.01  C 
ATOM     13  CG2 ILE D  13      16.827   5.519  56.508  1.00 56.15 LIG 0.01  C 
BRANCH 12 14
ATOM     14  CG1 ILE D  13      15.547   7.336  55.303  1.00 55.50 LIG 0.00  C 
ATOM     15  CD1 ILE D  13      16.726   8.341  55.194  1.00 55.45 LIG 0.01  C 
ENDBRANCH 12 14
ENDBRANCH 11 12
BRANCH 11 16
ATOM     16  C   ILE D  13      13.828   4.953  55.388  1.00 55.63 LIG 0.20  C 
ATOM     17 OXT  ILE D  13      13.014   5.537  54.659  1.00 55.86 LIG-0.65  OA
ATOM     18 O    ILE D  13      14.305   3.863  55.064  1.00 56.94 LIG-0.65  OA
ENDBRANCH 11 16
ENDBRANCH 8 11
ENDBRANCH 6 7
BRANCH 6 19
ATOM     19  CB  HIS D  12      13.148   4.977  61.258  1.00 50.55 LIG 0.10  C 
BRANCH 19 20
ATOM     20  CG  HIS D  12      12.513   3.980  62.175  1.00 49.61 LIG 0.05  A 
ATOM     21 ND1  HIS D  12      11.354   4.021  62.874  1.00 49.92 LIG-0.25  NA
ATOM     22  CE1 HIS D  12      11.251   2.833  63.554  1.00 49.12 LIG 0.21  A 
ATOM     23  NE2 HIS D  12      12.295   2.079  63.265  1.00 48.62 LIG-0.36  N 
ATOM     24 HE2  HIS D  12      12.442   1.286  63.564  1.00 48.62 LIG 0.17  HD
ATOM     25  CD2 HIS D  12      13.075   2.750  62.438  1.00 48.49 LIG 0.12  A 
ENDBRANCH 19 20
ENDBRANCH 6 19
ENDBRANCH 4 6
ENDBRANCH 1 2
BRANCH 1 26
ATOM     26  CB  LEU D  11      17.183   2.583  62.504  1.00 47.69 LIG 0.04  C 
BRANCH 26 27
ATOM     27  CG  LEU D  11      17.388   1.099  62.831  1.00 48.05 LIG-0.02  C 
ATOM     28  CD1 LEU D  11      17.805   0.935  64.285  1.00 46.53 LIG 0.01  C 
ATOM     29  CD2 LEU D  11      16.171   0.259  62.522  1.00 50.43 LIG 0.01  C 
ENDBRANCH 26 27
ENDBRANCH 1 26
BRANCH 1 30
ATOM     30  N   LEU D  11      18.523   4.265  61.364  1.00 47.51 LIG-0.35  N 
ATOM     31  C   LEU D  10      19.787   4.298  60.939  1.00 47.80 LIG 0.24  C 
ATOM     32 O    LEU D  10      20.310   3.399  60.264  1.00 47.07 LIG-0.27  OA
ATOM     33 H    LEU D  11      18.150   4.915  61.786  1.00 47.51 LIG 0.16  HD
BRANCH 31 34
ATOM     34  CA  LEU D  10      20.584   5.532  61.342  1.00 47.63 LIG 0.18  C 
BRANCH 34 35
ATOM     35  CB  LEU D  10      22.065   5.203  61.504  1.00 47.29 LIG 0.04  C 
BRANCH 35 36
ATOM     36  CG  LEU D  10      23.002   6.350  61.109  1.00 46.92 LIG-0.02  C 
ATOM     37  CD2 LEU D  10      22.650   7.610  61.828  1.00 45.50 LIG 0.01  C 
ATOM     38  CD1 LEU D  10      22.991   6.605  59.604  1.00 46.83 LIG 0.01  C 
ENDBRANCH 35 36
ENDBRANCH 34 35
BRANCH 34 39
ATOM     39  N   LEU D  10      20.022   6.111  62.551  1.00 47.82 LIG-0.35  N 
ATOM     40 H    LEU D  10      19.660   6.884  62.448  1.00 47.82 LIG 0.16  HD
ATOM     41  C   ASP D   9      20.085   5.458  63.704  1.00 48.63 LIG 0.25  C 
ATOM     42 O    ASP D   9      20.621   4.359  63.830  1.00 48.10 LIG-0.27  OA
BRANCH 41 43
ATOM     43  CA  ASP D   9      19.464   6.150  64.889  1.00 49.27 LIG 0.28  C 
BRANCH 43 44
ATOM     44  N   ASP D   9      20.303   5.847  66.078  1.00 49.86 LIG-0.07  N 
ATOM     45 H2   ASP D   9      20.928   6.474  66.167  1.00 49.86 LIG 0.28  HD
ATOM     46 H3   ASP D   9      19.792   5.832  66.806  1.00 49.86 LIG 0.28  HD
ATOM     47 H1   ASP D   9      20.692   5.053  65.972  1.00 49.86 LIG 0.28  HD
ENDBRANCH 43 44
BRANCH 43 48
ATOM     48  CB  ASP D   9      19.432   7.648  64.623  1.00 50.02 LIG 0.15  C 
BRANCH 48 49
ATOM     49  CG  ASP D   9      20.673   8.347  65.096  1.00 50.84 LIG 0.17  C 
ATOM     50 OD1  ASP D   9      21.059   8.142  66.260  1.00 53.44 LIG-0.65  OA
ATOM     51 OD2  ASP D   9      21.350   9.104  64.365  1.00 53.75 LIG-0.65  OA
ENDBRANCH 48 49
ENDBRANCH 43 48
ENDBRANCH 41 43
ENDBRANCH 34 39
ENDBRANCH 31 34
ENDBRANCH 1 30
TORSDOF 20
ENDMDL
MODEL 33
USER: ADFR SOLUTION from run 28
USER: SCORE 16.160757 LL:  -4.907 LR: -12.847 RR:   0.000 FEB:  -6.881
USER: RMSD 6.260000
USER: SEED 27
USER: STATUS no improvement in best 13 clusters for 5 generations
USER: GENES 22
USER: genes 0 Translation |==|  0.49215 0.32244 0.43831
USER: genes 1 Rotation |==|  0.23721 0.42845 0.34402 0.88922
USER: genes 2 Torsion [N]-CA--C-[N] |==|  0.00000
USER: genes 3 Torsion [C]-N--CA-[CB] |==|  0.46675
USER: genes 4 Torsion [N]-CA--C-[N] |==|  0.42458
USER: genes 5 Torsion [C]-N--CA-[C] |==|  0.65812
USER: genes 6 Torsion [N]-CA--CB-[CG1] |==|  0.91266
USER: genes 7 Torsion [CA]-CB--CG1-[CD1] |==|  0.30654
USER: genes 8 Torsion [N]-CA--C-[OXT] |==|  0.09398
USER: genes 9 Torsion [N]-CA--CB-[CG] |==|  0.78978
USER: genes 10 Torsion [CA]-CB--CG-[ND1] |==|  0.11239
USER: genes 11 Torsion [C]-CA--CB-[CG] |==|  0.79209
USER: genes 12 Torsion [CA]-CB--CG-[CD2] |==|  0.66842
USER: genes 13 Torsion [C]-CA--N-[C] |==|  0.70635
USER: genes 14 Torsion [N]-C--CA-[N] |==|  0.15374
USER: genes 15 Torsion [C]-CA--CB-[CG] |==|  0.75111
USER: genes 16 Torsion [CA]-CB--CG-[CD2] |==|  0.52995
USER: genes 17 Torsion [C]-CA--N-[C] |==|  0.56866
USER: genes 18 Torsion [N]-C--CA-[N] |==|  0.39760
USER: genes 19 Torsion [C]-CA--N-[H2] |==|  0.59384
USER: genes 20 Torsion [C]-CA--CB-[CG] |==|  0.62251
USER: genes 21 Torsion [CA]-CB--CG-[OD1] |==|  0.64328
ROOT
ATOM      1  CA  LEU D  11      18.194   1.613  60.659  1.00 47.89 LIG 0.18  C 
ENDROOT
BRANCH 1 2
ATOM      2  C   LEU D  11      16.969   1.605  59.755  1.00 48.14 LIG 0.24  C 
ATOM      3 O    LEU D  11      16.632   0.589  59.161  1.00 47.13 LIG-0.27  OA
ATOM      4  N   HIS D  12      16.329   2.761  59.624  1.00 49.28 LIG-0.35  N 
ATOM      5 H    HIS D  12      16.542   3.484  60.037  1.00 49.28 LIG 0.16  HD
BRANCH 4 6
ATOM      6  CA  HIS D  12      15.178   2.878  58.734  1.00 50.49 LIG 0.18  C 
BRANCH 6 7
ATOM      7  C   HIS D  12      15.580   2.751  57.267  1.00 51.38 LIG 0.24  C 
ATOM      8  N   ILE D  13      14.627   2.291  56.473  1.00 53.16 LIG-0.34  N 
ATOM      9 H    ILE D  13      13.860   2.058  56.785  1.00 53.16 LIG 0.16  HD
ATOM     10 O    HIS D  12      16.698   3.067  56.885  1.00 51.57 LIG-0.27  OA
BRANCH 8 11
ATOM     11  CA  ILE D  13      14.708   2.108  55.015  1.00 55.12 LIG 0.19  C 
BRANCH 11 12
ATOM     12  CB  ILE D  13      14.971   0.622  54.576  1.00 55.01 LIG 0.01  C 
ATOM     13  CG2 ILE D  13      15.630   0.518  53.188  1.00 56.15 LIG 0.01  C 
BRANCH 12 14
ATOM     14  CG1 ILE D  13      15.815  -0.097  55.633  1.00 55.50 LIG 0.00  C 
ATOM     15  CD1 ILE D  13      15.050  -1.188  56.429  1.00 55.45 LIG 0.01  C 
ENDBRANCH 12 14
ENDBRANCH 11 12
BRANCH 11 16
ATOM     16  C   ILE D  13      13.682   2.813  54.123  1.00 55.63 LIG 0.20  C 
ATOM     17 OXT  ILE D  13      13.269   3.924  54.486  1.00 55.86 LIG-0.65  OA
ATOM     18 O    ILE D  13      13.297   2.306  53.067  1.00 56.94 LIG-0.65  OA
ENDBRANCH 11 16
ENDBRANCH 8 11
ENDBRANCH 6 7
BRANCH 6 19
ATOM     19  CB  HIS D  12      14.431   4.194  58.964  1.00 50.55 LIG 0.10  C 
BRANCH 19 20
ATOM     20  CG  HIS D  12      13.596   4.205  60.205  1.00 49.61 LIG 0.05  A 
ATOM     21 ND1  HIS D  12      13.833   3.719  61.446  1.00 49.92 LIG-0.25  NA
ATOM     22  CE1 HIS D  12      12.729   4.005  62.210  1.00 49.12 LIG 0.21  A 
ATOM     23  NE2 HIS D  12      11.855   4.665  61.473  1.00 48.62 LIG-0.36  N 
ATOM     24 HE2  HIS D  12      11.093   4.960  61.740  1.00 48.62 LIG 0.17  HD
ATOM     25  CD2 HIS D  12      12.352   4.795  60.257  1.00 48.49 LIG 0.12  A 
ENDBRANCH 19 20
ENDBRANCH 6 19
ENDBRANCH 4 6
ENDBRANCH 1 2
BRANCH 1 26
ATOM     26  CB  LEU D  11      17.961   0.593  61.768  1.00 47.69 LIG 0.04  C 
BRANCH 26 27
ATOM     27  CG  LEU D  11      16.989   0.933  62.906  1.00 48.05 LIG-0.02  C 
ATOM     28  CD1 LEU D  11      15.805  -0.023  62.885  1.00 46.53 LIG 0.01  C 
ATOM     29  CD2 LEU D  11      17.654   0.937  64.261  1.00 50.43 LIG 0.01  C 
ENDBRANCH 26 27
ENDBRANCH 1 26
BRANCH 1 30
ATOM     30  N   LEU D  11      18.471   2.915  61.247  1.00 47.51 LIG-0.35  N 
ATOM     31  C   LEU D  10      19.473   3.696  60.838  1.00 47.80 LIG 0.24  C 
ATOM     32 O    LEU D  10      20.208   3.427  59.877  1.00 47.07 LIG-0.27  OA
ATOM     33 H    LEU D  11      17.932   3.133  61.881  1.00 47.51 LIG 0.16  HD
BRANCH 31 34
ATOM     34  CA  LEU D  10      19.679   4.974  61.641  1.00 47.63 LIG 0.18  C 
BRANCH 34 35
ATOM     35  CB  LEU D  10      20.847   5.787  61.092  1.00 47.29 LIG 0.04  C 
BRANCH 35 36
ATOM     36  CG  LEU D  10      22.201   5.431  61.718  1.00 46.92 LIG-0.02  C 
ATOM     37  CD2 LEU D  10      23.250   6.422  61.340  1.00 45.50 LIG 0.01  C 
ATOM     38  CD1 LEU D  10      22.662   4.030  61.325  1.00 46.83 LIG 0.01  C 
ENDBRANCH 35 36
ENDBRANCH 34 35
BRANCH 34 39
ATOM     39  N   LEU D  10      19.856   4.652  63.047  1.00 47.82 LIG-0.35  N 
ATOM     40 H    LEU D  10      20.151   3.860  63.203  1.00 47.82 LIG 0.16  HD
ATOM     41  C   ASP D   9      19.570   5.546  63.985  1.00 48.63 LIG 0.25  C 
ATOM     42 O    ASP D   9      19.135   6.669  63.737  1.00 48.10 LIG-0.27  OA
BRANCH 41 43
ATOM     43  CA  ASP D   9      19.798   5.107  65.408  1.00 49.27 LIG 0.28  C 
BRANCH 43 44
ATOM     44  N   ASP D   9      20.307   6.280  66.164  1.00 49.86 LIG-0.07  N 
ATOM     45 H2   ASP D   9      20.881   6.005  66.786  1.00 49.86 LIG 0.28  HD
ATOM     46 H3   ASP D   9      20.719   6.837  65.606  1.00 49.86 LIG 0.28  HD
ATOM     47 H1   ASP D   9      19.627   6.700  66.555  1.00 49.86 LIG 0.28  HD
ENDBRANCH 43 44
BRANCH 43 48
ATOM     48  CB  ASP D   9      18.477   4.624  65.991  1.00 50.02 LIG 0.15  C 
BRANCH 48 49
ATOM     49  CG  ASP D   9      18.238   5.135  67.381  1.00 50.84 LIG 0.17  C 
ATOM     50 OD1  ASP D   9      17.944   4.317  68.269  1.00 53.44 LIG-0.65  OA
ATOM     51 OD2  ASP D   9      18.346   6.343  67.691  1.00 53.75 LIG-0.65  OA
ENDBRANCH 48 49
ENDBRANCH 43 48
ENDBRANCH 41 43
ENDBRANCH 34 39
ENDBRANCH 31 34
ENDBRANCH 1 30
TORSDOF 20
ENDMDL
MODEL 34
USER: ADFR SOLUTION from run 39
USER: SCORE 16.154795 LL:  -4.976 LR: -12.811 RR:   0.000 FEB:  -6.845
USER: RMSD 5.695246
USER: SEED 38
USER: STATUS no improvement in best 11 clusters for 5 generations
USER: GENES 22
USER: genes 0 Translation |==|  0.51099 0.37909 0.47071
USER: genes 1 Rotation |==|  0.23916 0.32440 0.24083 0.78976
USER: genes 2 Torsion [N]-CA--C-[N] |==|  0.92218
USER: genes 3 Torsion [C]-N--CA-[CB] |==|  0.23333
USER: genes 4 Torsion [N]-CA--C-[N] |==|  0.55192
USER: genes 5 Torsion [C]-N--CA-[C] |==|  0.55974
USER: genes 6 Torsion [N]-CA--CB-[CG1] |==|  0.05079
USER: genes 7 Torsion [CA]-CB--CG1-[CD1] |==|  0.45944
USER: genes 8 Torsion [N]-CA--C-[OXT] |==|  0.03444
USER: genes 9 Torsion [N]-CA--CB-[CG] |==|  0.69236
USER: genes 10 Torsion [CA]-CB--CG-[ND1] |==|  0.72869
USER: genes 11 Torsion [C]-CA--CB-[CG] |==|  0.24090
USER: genes 12 Torsion [CA]-CB--CG-[CD2] |==|  0.67662
USER: genes 13 Torsion [C]-CA--N-[C] |==|  0.65443
USER: genes 14 Torsion [N]-C--CA-[N] |==|  0.29671
USER: genes 15 Torsion [C]-CA--CB-[CG] |==|  0.17492
USER: genes 16 Torsion [CA]-CB--CG-[CD2] |==|  0.08378
USER: genes 17 Torsion [C]-CA--N-[C] |==|  0.75467
USER: genes 18 Torsion [N]-C--CA-[N] |==|  0.92112
USER: genes 19 Torsion [C]-CA--N-[H2] |==|  0.58088
USER: genes 20 Torsion [C]-CA--CB-[CG] |==|  0.81824
USER: genes 21 Torsion [CA]-CB--CG-[OD1] |==|  0.85344
ROOT
ATOM      1  CA  LEU D  11      18.760   3.313  61.631  1.00 47.89 LIG 0.18  C 
ENDROOT
BRANCH 1 2
ATOM      2  C   LEU D  11      18.265   3.170  60.198  1.00 48.14 LIG 0.24  C 
ATOM      3 O    LEU D  11      18.485   2.153  59.554  1.00 47.13 LIG-0.27  OA
ATOM      4  N   HIS D  12      17.627   4.218  59.690  1.00 49.28 LIG-0.35  N 
ATOM      5 H    HIS D  12      17.453   4.939  60.126  1.00 49.28 LIG 0.16  HD
BRANCH 4 6
ATOM      6  CA  HIS D  12      17.164   4.210  58.306  1.00 50.49 LIG 0.18  C 
BRANCH 6 7
ATOM      7  C   HIS D  12      17.092   5.620  57.724  1.00 51.38 LIG 0.24  C 
ATOM      8  N   ILE D  13      16.334   5.731  56.646  1.00 53.16 LIG-0.34  N 
ATOM      9 H    ILE D  13      15.946   5.046  56.299  1.00 53.16 LIG 0.16  HD
ATOM     10 O    HIS D  12      17.691   6.552  58.241  1.00 51.57 LIG-0.27  OA
BRANCH 8 11
ATOM     11  CA  ILE D  13      16.040   6.966  55.900  1.00 55.12 LIG 0.19  C 
BRANCH 11 12
ATOM     12  CB  ILE D  13      17.299   7.604  55.209  1.00 55.01 LIG 0.01  C 
ATOM     13  CG2 ILE D  13      17.798   8.870  55.930  1.00 56.15 LIG 0.01  C 
BRANCH 12 14
ATOM     14  CG1 ILE D  13      18.420   6.565  55.098  1.00 55.50 LIG 0.00  C 
ATOM     15  CD1 ILE D  13      19.565   6.962  54.127  1.00 55.45 LIG 0.01  C 
ENDBRANCH 12 14
ENDBRANCH 11 12
BRANCH 11 16
ATOM     16  C   ILE D  13      14.792   7.015  55.013  1.00 55.63 LIG 0.20  C 
ATOM     17 OXT  ILE D  13      13.959   6.106  55.138  1.00 55.86 LIG-0.65  OA
ATOM     18 O    ILE D  13      14.608   7.941  54.219  1.00 56.94 LIG-0.65  OA
ENDBRANCH 11 16
ENDBRANCH 8 11
ENDBRANCH 6 7
BRANCH 6 19
ATOM     19  CB  HIS D  12      15.805   3.518  58.180  1.00 50.55 LIG 0.10  C 
BRANCH 19 20
ATOM     20  CG  HIS D  12      15.860   2.207  57.462  1.00 49.61 LIG 0.05  A 
ATOM     21 ND1  HIS D  12      15.599   1.882  56.174  1.00 49.92 LIG-0.25  NA
ATOM     22  CE1 HIS D  12      15.812   0.532  56.047  1.00 49.12 LIG 0.21  A 
ATOM     23  NE2 HIS D  12      16.212   0.048  57.208  1.00 48.62 LIG-0.36  N 
ATOM     24 HE2  HIS D  12      16.417  -0.772  57.368  1.00 48.62 LIG 0.17  HD
ATOM     25  CD2 HIS D  12      16.245   1.038  58.081  1.00 48.49 LIG 0.12  A 
ENDBRANCH 19 20
ENDBRANCH 6 19
ENDBRANCH 4 6
ENDBRANCH 1 2
BRANCH 1 26
ATOM     26  CB  LEU D  11      17.685   2.747  62.553  1.00 47.69 LIG 0.04  C 
BRANCH 26 27
ATOM     27  CG  LEU D  11      17.683   1.246  62.869  1.00 48.05 LIG-0.02  C 
ATOM     28  CD1 LEU D  11      17.858   1.026  64.364  1.00 46.53 LIG 0.01  C 
ATOM     29  CD2 LEU D  11      16.446   0.544  62.361  1.00 50.43 LIG 0.01  C 
ENDBRANCH 26 27
ENDBRANCH 1 26
BRANCH 1 30
ATOM     30  N   LEU D  11      19.050   4.688  62.010  1.00 47.51 LIG-0.35  N 
ATOM     31  C   LEU D  10      20.235   5.073  62.485  1.00 47.80 LIG 0.24  C 
ATOM     32 O    LEU D  10      21.217   4.323  62.578  1.00 47.07 LIG-0.27  OA
ATOM     33 H    LEU D  11      18.388   5.226  61.898  1.00 47.51 LIG 0.16  HD
BRANCH 31 34
ATOM     34  CA  LEU D  10      20.321   6.527  62.932  1.00 47.63 LIG 0.18  C 
BRANCH 34 35
ATOM     35  CB  LEU D  10      21.519   7.228  62.297  1.00 47.29 LIG 0.04  C 
BRANCH 35 36
ATOM     36  CG  LEU D  10      21.450   7.314  60.768  1.00 46.92 LIG-0.02  C 
ATOM     37  CD2 LEU D  10      20.037   7.384  60.293  1.00 45.50 LIG 0.01  C 
ATOM     38  CD1 LEU D  10      22.153   6.137  60.097  1.00 46.83 LIG 0.01  C 
ENDBRANCH 35 36
ENDBRANCH 34 35
BRANCH 34 39
ATOM     39  N   LEU D  10      20.357   6.599  64.382  1.00 47.82 LIG-0.35  N 
ATOM     40 H    LEU D  10      21.146   6.599  64.726  1.00 47.82 LIG 0.16  HD
ATOM     41  C   ASP D   9      19.232   6.659  65.083  1.00 48.63 LIG 0.25  C 
ATOM     42 O    ASP D   9      18.115   6.643  64.570  1.00 48.10 LIG-0.27  OA
BRANCH 41 43
ATOM     43  CA  ASP D   9      19.389   6.738  66.579  1.00 49.27 LIG 0.28  C 
BRANCH 43 44
ATOM     44  N   ASP D   9      20.661   6.058  66.934  1.00 49.86 LIG-0.07  N 
ATOM     45 H2   ASP D   9      20.596   5.715  67.753  1.00 49.86 LIG 0.28  HD
ATOM     46 H3   ASP D   9      20.821   5.405  66.351  1.00 49.86 LIG 0.28  HD
ATOM     47 H1   ASP D   9      21.329   6.646  66.912  1.00 49.86 LIG 0.28  HD
ENDBRANCH 43 44
BRANCH 43 48
ATOM     48  CB  ASP D   9      19.429   8.202  66.993  1.00 50.02 LIG 0.15  C 
BRANCH 48 49
ATOM     49  CG  ASP D   9      20.638   8.919  66.468  1.00 50.84 LIG 0.17  C 
ATOM     50 OD1  ASP D   9      21.758   8.428  66.689  1.00 53.44 LIG-0.65  OA
ATOM     51 OD2  ASP D   9      20.568   9.973  65.796  1.00 53.75 LIG-0.65  OA
ENDBRANCH 48 49
ENDBRANCH 43 48
ENDBRANCH 41 43
ENDBRANCH 34 39
ENDBRANCH 31 34
ENDBRANCH 1 30
TORSDOF 20
ENDMDL
MODEL 35
USER: ADFR SOLUTION from run 124
USER: SCORE 17.253221 LL:  -5.625 LR: -12.785 RR:   0.000 FEB:  -6.819
USER: RMSD 9.720601
USER: SEED 123
USER: STATUS searching
USER: GENES 22
USER: genes 0 Translation |==|  0.39901 0.36034 0.47521
USER: genes 1 Rotation |==|  0.50090 0.10335 0.41157 0.79129
USER: genes 2 Torsion [N]-CA--C-[N] |==|  0.27678
USER: genes 3 Torsion [C]-N--CA-[CB] |==|  0.76896
USER: genes 4 Torsion [N]-CA--C-[N] |==|  0.11835
USER: genes 5 Torsion [C]-N--CA-[C] |==|  0.58905
USER: genes 6 Torsion [N]-CA--CB-[CG1] |==|  0.82913
USER: genes 7 Torsion [CA]-CB--CG1-[CD1] |==|  0.42126
USER: genes 8 Torsion [N]-CA--C-[OXT] |==|  0.42959
USER: genes 9 Torsion [N]-CA--CB-[CG] |==|  0.74649
USER: genes 10 Torsion [CA]-CB--CG-[ND1] |==|  0.60368
USER: genes 11 Torsion [C]-CA--CB-[CG] |==|  0.17792
USER: genes 12 Torsion [CA]-CB--CG-[CD2] |==|  0.11961
USER: genes 13 Torsion [C]-CA--N-[C] |==|  0.73336
USER: genes 14 Torsion [N]-C--CA-[N] |==|  0.86410
USER: genes 15 Torsion [C]-CA--CB-[CG] |==|  0.80964
USER: genes 16 Torsion [CA]-CB--CG-[CD2] |==|  0.69284
USER: genes 17 Torsion [C]-CA--N-[C] |==|  0.67516
USER: genes 18 Torsion [N]-C--CA-[N] |==|  0.85166
USER: genes 19 Torsion [C]-CA--N-[H2] |==|  0.20669
USER: genes 20 Torsion [C]-CA--CB-[CG] |==|  0.58047
USER: genes 21 Torsion [CA]-CB--CG-[OD1] |==|  0.51928
ROOT
ATOM      1  CA  LEU D  11      15.400   2.750  61.766  1.00 47.89 LIG 0.18  C 
ENDROOT
BRANCH 1 2
ATOM      2  C   LEU D  11      16.302   2.795  60.539  1.00 48.14 LIG 0.24  C 
ATOM      3 O    LEU D  11      16.288   1.891  59.715  1.00 47.13 LIG-0.27  OA
ATOM      4  N   HIS D  12      17.117   3.839  60.447  1.00 49.28 LIG-0.35  N 
ATOM      5 H    HIS D  12      17.137   4.490  61.009  1.00 49.28 LIG 0.16  HD
BRANCH 4 6
ATOM      6  CA  HIS D  12      18.064   3.950  59.343  1.00 50.49 LIG 0.18  C 
BRANCH 6 7
ATOM      7  C   HIS D  12      17.447   3.503  58.020  1.00 51.38 LIG 0.24  C 
ATOM      8  N   ILE D  13      16.210   3.927  57.819  1.00 53.16 LIG-0.34  N 
ATOM      9 H    ILE D  13      15.795   4.391  58.412  1.00 53.16 LIG 0.16  HD
ATOM     10 O    HIS D  12      18.074   2.815  57.227  1.00 51.57 LIG-0.27  OA
BRANCH 8 11
ATOM     11  CA  ILE D  13      15.384   3.695  56.622  1.00 55.12 LIG 0.19  C 
BRANCH 11 12
ATOM     12  CB  ILE D  13      14.798   2.240  56.529  1.00 55.01 LIG 0.01  C 
ATOM     13  CG2 ILE D  13      13.826   2.063  55.348  1.00 56.15 LIG 0.01  C 
BRANCH 12 14
ATOM     14  CG1 ILE D  13      15.937   1.218  56.453  1.00 55.50 LIG 0.00  C 
ATOM     15  CD1 ILE D  13      15.585  -0.177  57.036  1.00 55.45 LIG 0.01  C 
ENDBRANCH 12 14
ENDBRANCH 11 12
BRANCH 11 16
ATOM     16  C   ILE D  13      14.372   4.766  56.204  1.00 55.63 LIG 0.20  C 
ATOM     17 OXT  ILE D  13      14.044   4.816  55.010  1.00 55.86 LIG-0.65  OA
ATOM     18 O    ILE D  13      13.880   5.537  57.031  1.00 56.94 LIG-0.65  OA
ENDBRANCH 11 16
ENDBRANCH 8 11
ENDBRANCH 6 7
BRANCH 6 19
ATOM     19  CB  HIS D  12      19.340   3.154  59.625  1.00 50.55 LIG 0.10  C 
BRANCH 19 20
ATOM     20  CG  HIS D  12      20.412   3.951  60.298  1.00 49.61 LIG 0.05  A 
ATOM     21 ND1  HIS D  12      21.758   3.942  60.152  1.00 49.92 LIG-0.25  NA
ATOM     22  CE1 HIS D  12      22.265   4.881  61.015  1.00 49.12 LIG 0.21  A 
ATOM     23  NE2 HIS D  12      21.266   5.464  61.651  1.00 48.62 LIG-0.36  N 
ATOM     24 HE2  HIS D  12      21.339   6.093  62.234  1.00 48.62 LIG 0.17  HD
ATOM     25  CD2 HIS D  12      20.137   4.918  61.240  1.00 48.49 LIG 0.12  A 
ENDBRANCH 19 20
ENDBRANCH 6 19
ENDBRANCH 4 6
ENDBRANCH 1 2
BRANCH 1 26
ATOM     26  CB  LEU D  11      15.366   1.311  62.267  1.00 47.69 LIG 0.04  C 
BRANCH 26 27
ATOM     27  CG  LEU D  11      16.659   0.667  62.784  1.00 48.05 LIG-0.02  C 
ATOM     28  CD1 LEU D  11      17.499   0.168  61.617  1.00 46.53 LIG 0.01  C 
ATOM     29  CD2 LEU D  11      17.460   1.593  63.668  1.00 50.43 LIG 0.01  C 
ENDBRANCH 26 27
ENDBRANCH 1 26
BRANCH 1 30
ATOM     30  N   LEU D  11      14.043   3.206  61.504  1.00 47.51 LIG-0.35  N 
ATOM     31  C   LEU D  10      13.639   4.454  61.744  1.00 47.80 LIG 0.24  C 
ATOM     32 O    LEU D  10      14.392   5.358  62.135  1.00 47.07 LIG-0.27  OA
ATOM     33 H    LEU D  11      13.528   2.597  61.183  1.00 47.51 LIG 0.16  HD
BRANCH 31 34
ATOM     34  CA  LEU D  10      12.158   4.721  61.513  1.00 47.63 LIG 0.18  C 
BRANCH 34 35
ATOM     35  CB  LEU D  10      11.310   4.143  62.642  1.00 47.29 LIG 0.04  C 
BRANCH 35 36
ATOM     36  CG  LEU D  10      11.289   2.610  62.681  1.00 46.92 LIG-0.02  C 
ATOM     37  CD2 LEU D  10       9.948   2.077  62.302  1.00 45.50 LIG 0.01  C 
ATOM     38  CD1 LEU D  10      11.680   2.068  64.054  1.00 46.83 LIG 0.01  C 
ENDBRANCH 35 36
ENDBRANCH 34 35
BRANCH 34 39
ATOM     39  N   LEU D  10      11.758   4.204  60.215  1.00 47.82 LIG-0.35  N 
ATOM     40 H    LEU D  10      11.832   3.351  60.126  1.00 47.82 LIG 0.16  HD
ATOM     41  C   ASP D   9      11.316   5.023  59.269  1.00 48.63 LIG 0.25  C 
ATOM     42 O    ASP D   9      11.232   6.240  59.415  1.00 48.10 LIG-0.27  OA
BRANCH 41 43
ATOM     43  CA  ASP D   9      10.922   4.376  57.967  1.00 49.27 LIG 0.28  C 
BRANCH 43 44
ATOM     44  N   ASP D   9      12.072   3.555  57.507  1.00 49.86 LIG-0.07  N 
ATOM     45 H2   ASP D   9      12.126   2.817  58.002  1.00 49.86 LIG 0.28  HD
ATOM     46 H3   ASP D   9      11.955   3.332  56.654  1.00 49.86 LIG 0.28  HD
ATOM     47 H1   ASP D   9      12.824   4.023  57.591  1.00 49.86 LIG 0.28  HD
ENDBRANCH 43 44
BRANCH 43 48
ATOM     48  CB  ASP D   9       9.698   3.502  58.202  1.00 50.02 LIG 0.15  C 
BRANCH 48 49
ATOM     49  CG  ASP D   9       9.630   2.337  57.260  1.00 50.84 LIG 0.17  C 
ATOM     50 OD1  ASP D   9       8.609   1.628  57.270  1.00 53.44 LIG-0.65  OA
ATOM     51 OD2  ASP D   9      10.541   2.063  56.447  1.00 53.75 LIG-0.65  OA
ENDBRANCH 48 49
ENDBRANCH 43 48
ENDBRANCH 41 43
ENDBRANCH 34 39
ENDBRANCH 31 34
ENDBRANCH 1 30
TORSDOF 20
ENDMDL
MODEL 36
USER: ADFR SOLUTION from run 21
USER: SCORE 15.798731 LL:  -4.443 LR: -12.793 RR:   0.000 FEB:  -6.827
USER: RMSD 5.143811
USER: SEED 20
USER: STATUS no improvement in best 7 clusters for 5 generations
USER: GENES 22
USER: genes 0 Translation |==|  0.49601 0.37418 0.43311
USER: genes 1 Rotation |==|  0.26552 0.59475 0.32227 0.89300
USER: genes 2 Torsion [N]-CA--C-[N] |==|  0.36202
USER: genes 3 Torsion [C]-N--CA-[CB] |==|  0.16942
USER: genes 4 Torsion [N]-CA--C-[N] |==|  0.11111
USER: genes 5 Torsion [C]-N--CA-[C] |==|  0.90113
USER: genes 6 Torsion [N]-CA--CB-[CG1] |==|  0.95815
USER: genes 7 Torsion [CA]-CB--CG1-[CD1] |==|  0.39386
USER: genes 8 Torsion [N]-CA--C-[OXT] |==|  0.76342
USER: genes 9 Torsion [N]-CA--CB-[CG] |==|  0.70077
USER: genes 10 Torsion [CA]-CB--CG-[ND1] |==|  0.41678
USER: genes 11 Torsion [C]-CA--CB-[CG] |==|  0.06741
USER: genes 12 Torsion [CA]-CB--CG-[CD2] |==|  0.55219
USER: genes 13 Torsion [C]-CA--N-[C] |==|  0.19973
USER: genes 14 Torsion [N]-C--CA-[N] |==|  0.51076
USER: genes 15 Torsion [C]-CA--CB-[CG] |==|  0.22532
USER: genes 16 Torsion [CA]-CB--CG-[CD2] |==|  0.66855
USER: genes 17 Torsion [C]-CA--N-[C] |==|  0.77350
USER: genes 18 Torsion [N]-C--CA-[N] |==|  0.06598
USER: genes 19 Torsion [C]-CA--N-[H2] |==|  0.86199
USER: genes 20 Torsion [C]-CA--CB-[CG] |==|  0.73295
USER: genes 21 Torsion [CA]-CB--CG-[OD1] |==|  0.58626
ROOT
ATOM      1  CA  LEU D  11      18.310   3.165  60.503  1.00 47.89 LIG 0.18  C 
ENDROOT
BRANCH 1 2
ATOM      2  C   LEU D  11      16.978   3.879  60.313  1.00 48.14 LIG 0.24  C 
ATOM      3 O    LEU D  11      16.425   4.439  61.249  1.00 47.13 LIG-0.27  OA
ATOM      4  N   HIS D  12      16.449   3.818  59.096  1.00 49.28 LIG-0.35  N 
ATOM      5 H    HIS D  12      16.823   3.439  58.421  1.00 49.28 LIG 0.16  HD
BRANCH 4 6
ATOM      6  CA  HIS D  12      15.147   4.417  58.820  1.00 50.49 LIG 0.18  C 
BRANCH 6 7
ATOM      7  C   HIS D  12      14.684   4.133  57.393  1.00 51.38 LIG 0.24  C 
ATOM      8  N   ILE D  13      14.942   2.908  56.965  1.00 53.16 LIG-0.34  N 
ATOM      9 H    ILE D  13      15.366   2.343  57.455  1.00 53.16 LIG 0.16  HD
ATOM     10 O    HIS D  12      14.115   4.986  56.728  1.00 51.57 LIG-0.27  OA
BRANCH 8 11
ATOM     11  CA  ILE D  13      14.574   2.336  55.659  1.00 55.12 LIG 0.19  C 
BRANCH 11 12
ATOM     12  CB  ILE D  13      14.852   0.794  55.541  1.00 55.01 LIG 0.01  C 
ATOM     13  CG2 ILE D  13      15.431   0.395  54.171  1.00 56.15 LIG 0.01  C 
BRANCH 12 14
ATOM     14  CG1 ILE D  13      15.777   0.339  56.674  1.00 55.50 LIG 0.00  C 
ATOM     15  CD1 ILE D  13      15.430  -1.056  57.261  1.00 55.45 LIG 0.01  C 
ENDBRANCH 12 14
ENDBRANCH 11 12
BRANCH 11 16
ATOM     16  C   ILE D  13      13.243   2.746  55.022  1.00 55.63 LIG 0.20  C 
ATOM     17 OXT  ILE D  13      12.226   2.123  55.358  1.00 55.86 LIG-0.65  OA
ATOM     18 O    ILE D  13      13.179   3.681  54.220  1.00 56.94 LIG-0.65  OA
ENDBRANCH 11 16
ENDBRANCH 8 11
ENDBRANCH 6 7
BRANCH 6 19
ATOM     19  CB  HIS D  12      15.164   5.925  59.077  1.00 50.55 LIG 0.10  C 
BRANCH 19 20
ATOM     20  CG  HIS D  12      14.412   6.336  60.304  1.00 49.61 LIG 0.05  A 
ATOM     21 ND1  HIS D  12      14.592   7.372  61.156  1.00 49.92 LIG-0.25  NA
ATOM     22  CE1 HIS D  12      13.612   7.282  62.114  1.00 49.12 LIG 0.21  A 
ATOM     23  NE2 HIS D  12      12.843   6.244  61.846  1.00 48.62 LIG-0.36  N 
ATOM     24 HE2  HIS D  12      12.156   5.995  62.301  1.00 48.62 LIG 0.17  HD
ATOM     25  CD2 HIS D  12      13.307   5.652  60.761  1.00 48.49 LIG 0.12  A 
ENDBRANCH 19 20
ENDBRANCH 6 19
ENDBRANCH 4 6
ENDBRANCH 1 2
BRANCH 1 26
ATOM     26  CB  LEU D  11      18.055   1.921  61.346  1.00 47.69 LIG 0.04  C 
BRANCH 26 27
ATOM     27  CG  LEU D  11      16.653   1.299  61.359  1.00 48.05 LIG-0.02  C 
ATOM     28  CD1 LEU D  11      16.394   0.566  60.051  1.00 46.53 LIG 0.01  C 
ATOM     29  CD2 LEU D  11      16.429   0.388  62.542  1.00 50.43 LIG 0.01  C 
ENDBRANCH 26 27
ENDBRANCH 1 26
BRANCH 1 30
ATOM     30  N   LEU D  11      19.322   3.990  61.148  1.00 47.51 LIG-0.35  N 
ATOM     31  C   LEU D  10      19.275   4.314  62.441  1.00 47.80 LIG 0.24  C 
ATOM     32 O    LEU D  10      18.418   3.887  63.227  1.00 47.07 LIG-0.27  OA
ATOM     33 H    LEU D  11      19.949   4.247  60.619  1.00 47.51 LIG 0.16  HD
BRANCH 31 34
ATOM     34  CA  LEU D  10      20.358   5.274  62.916  1.00 47.63 LIG 0.18  C 
BRANCH 34 35
ATOM     35  CB  LEU D  10      21.745   4.783  62.513  1.00 47.29 LIG 0.04  C 
BRANCH 35 36
ATOM     36  CG  LEU D  10      22.123   5.111  61.064  1.00 46.92 LIG-0.02  C 
ATOM     37  CD2 LEU D  10      22.381   3.870  60.277  1.00 45.50 LIG 0.01  C 
ATOM     38  CD1 LEU D  10      23.345   6.024  60.984  1.00 46.83 LIG 0.01  C 
ENDBRANCH 35 36
ENDBRANCH 34 35
BRANCH 34 39
ATOM     39  N   LEU D  10      20.249   5.472  64.351  1.00 47.82 LIG-0.35  N 
ATOM     40 H    LEU D  10      20.788   4.998  64.825  1.00 47.82 LIG 0.16  HD
ATOM     41  C   ASP D   9      19.370   6.333  64.849  1.00 48.63 LIG 0.25  C 
ATOM     42 O    ASP D   9      18.600   6.990  64.152  1.00 48.10 LIG-0.27  OA
BRANCH 41 43
ATOM     43  CA  ASP D   9      19.350   6.462  66.349  1.00 49.27 LIG 0.28  C 
BRANCH 43 44
ATOM     44  N   ASP D   9      20.680   6.036  66.856  1.00 49.86 LIG-0.07  N 
ATOM     45 H2   ASP D   9      20.896   5.251  66.497  1.00 49.86 LIG 0.28  HD
ATOM     46 H3   ASP D   9      21.291   6.643  66.631  1.00 49.86 LIG 0.28  HD
ATOM     47 H1   ASP D   9      20.650   5.959  67.742  1.00 49.86 LIG 0.28  HD
ENDBRANCH 43 44
BRANCH 43 48
ATOM     48  CB  ASP D   9      19.077   7.915  66.714  1.00 50.02 LIG 0.15  C 
BRANCH 48 49
ATOM     49  CG  ASP D   9      20.333   8.687  66.992  1.00 50.84 LIG 0.17  C 
ATOM     50 OD1  ASP D   9      20.284   9.616  67.817  1.00 53.44 LIG-0.65  OA
ATOM     51 OD2  ASP D   9      21.430   8.422  66.452  1.00 53.75 LIG-0.65  OA
ENDBRANCH 48 49
ENDBRANCH 43 48
ENDBRANCH 41 43
ENDBRANCH 34 39
ENDBRANCH 31 34
ENDBRANCH 1 30
TORSDOF 20
ENDMDL
MODEL 37
USER: ADFR SOLUTION from run 122
USER: SCORE 16.002967 LL:  -4.744 LR: -12.788 RR:   0.000 FEB:  -6.822
USER: RMSD 9.438768
USER: SEED 121
USER: STATUS no improvement in best 6 clusters for 5 generations
USER: GENES 22
USER: genes 0 Translation |==|  0.41667 0.35426 0.42918
USER: genes 1 Rotation |==|  0.47172 0.16113 0.46406 0.86479
USER: genes 2 Torsion [N]-CA--C-[N] |==|  0.94781
USER: genes 3 Torsion [C]-N--CA-[CB] |==|  0.20501
USER: genes 4 Torsion [N]-CA--C-[N] |==|  0.54121
USER: genes 5 Torsion [C]-N--CA-[C] |==|  0.22441
USER: genes 6 Torsion [N]-CA--CB-[CG1] |==|  0.71766
USER: genes 7 Torsion [CA]-CB--CG1-[CD1] |==|  0.39454
USER: genes 8 Torsion [N]-CA--C-[OXT] |==|  0.31754
USER: genes 9 Torsion [N]-CA--CB-[CG] |==|  0.18515
USER: genes 10 Torsion [CA]-CB--CG-[ND1] |==|  0.21830
USER: genes 11 Torsion [C]-CA--CB-[CG] |==|  0.25585
USER: genes 12 Torsion [CA]-CB--CG-[CD2] |==|  0.67366
USER: genes 13 Torsion [C]-CA--N-[C] |==|  0.77827
USER: genes 14 Torsion [N]-C--CA-[N] |==|  0.14593
USER: genes 15 Torsion [C]-CA--CB-[CG] |==|  0.77623
USER: genes 16 Torsion [CA]-CB--CG-[CD2] |==|  0.72248
USER: genes 17 Torsion [C]-CA--N-[C] |==|  0.59149
USER: genes 18 Torsion [N]-C--CA-[N] |==|  0.82321
USER: genes 19 Torsion [C]-CA--N-[H2] |==|  0.44951
USER: genes 20 Torsion [C]-CA--CB-[CG] |==|  0.51358
USER: genes 21 Torsion [CA]-CB--CG-[OD1] |==|  0.03233
ROOT
ATOM      1  CA  LEU D  11      15.930   2.568  60.385  1.00 47.89 LIG 0.18  C 
ENDROOT
BRANCH 1 2
ATOM      2  C   LEU D  11      16.301   2.397  58.918  1.00 48.14 LIG 0.24  C 
ATOM      3 O    LEU D  11      17.463   2.491  58.547  1.00 47.13 LIG-0.27  OA
ATOM      4  N   HIS D  12      15.293   2.186  58.079  1.00 49.28 LIG-0.35  N 
ATOM      5 H    HIS D  12      14.471   2.107  58.317  1.00 49.28 LIG 0.16  HD
BRANCH 4 6
ATOM      6  CA  HIS D  12      15.531   2.068  56.644  1.00 50.49 LIG 0.18  C 
BRANCH 6 7
ATOM      7  C   HIS D  12      14.246   2.255  55.839  1.00 51.38 LIG 0.24  C 
ATOM      8  N   ILE D  13      14.326   1.862  54.579  1.00 53.16 LIG-0.34  N 
ATOM      9 H    ILE D  13      15.060   1.557  54.251  1.00 53.16 LIG 0.16  HD
ATOM     10 O    HIS D  12      13.240   2.725  56.350  1.00 51.57 LIG-0.27  OA
BRANCH 8 11
ATOM     11  CA  ILE D  13      13.241   1.876  53.583  1.00 55.12 LIG 0.19  C 
BRANCH 11 12
ATOM     12  CB  ILE D  13      11.956   1.092  54.035  1.00 55.01 LIG 0.01  C 
ATOM     13  CG2 ILE D  13      10.656   1.874  53.769  1.00 56.15 LIG 0.01  C 
BRANCH 12 14
ATOM     14  CG1 ILE D  13      11.912  -0.281  53.357  1.00 55.50 LIG 0.00  C 
ATOM     15  CD1 ILE D  13      11.378  -1.424  54.262  1.00 55.45 LIG 0.01  C 
ENDBRANCH 12 14
ENDBRANCH 11 12
BRANCH 11 16
ATOM     16  C   ILE D  13      12.910   3.190  52.869  1.00 55.63 LIG 0.20  C 
ATOM     17 OXT  ILE D  13      13.117   3.252  51.649  1.00 55.86 LIG-0.65  OA
ATOM     18 O    ILE D  13      12.430   4.146  53.482  1.00 56.94 LIG-0.65  OA
ENDBRANCH 11 16
ENDBRANCH 8 11
ENDBRANCH 6 7
BRANCH 6 19
ATOM     19  CB  HIS D  12      16.179   0.727  56.297  1.00 50.55 LIG 0.10  C 
BRANCH 19 20
ATOM     20  CG  HIS D  12      15.292  -0.453  56.538  1.00 49.61 LIG 0.05  A 
ATOM     21 ND1  HIS D  12      14.267  -0.962  55.815  1.00 49.92 LIG-0.25  NA
ATOM     22  CE1 HIS D  12      13.800  -2.060  56.493  1.00 49.12 LIG 0.21  A 
ATOM     23  NE2 HIS D  12      14.527  -2.235  57.581  1.00 48.62 LIG-0.36  N 
ATOM     24 HE2  HIS D  12      14.428  -2.867  58.157  1.00 48.62 LIG 0.17  HD
ATOM     25  CD2 HIS D  12      15.431  -1.275  57.635  1.00 48.49 LIG 0.12  A 
ENDBRANCH 19 20
ENDBRANCH 6 19
ENDBRANCH 4 6
ENDBRANCH 1 2
BRANCH 1 26
ATOM     26  CB  LEU D  11      16.254   1.261  61.102  1.00 47.69 LIG 0.04  C 
BRANCH 26 27
ATOM     27  CG  LEU D  11      17.631   1.087  61.755  1.00 48.05 LIG-0.02  C 
ATOM     28  CD1 LEU D  11      17.475   0.889  63.256  1.00 46.53 LIG 0.01  C 
ATOM     29  CD2 LEU D  11      18.430  -0.039  61.143  1.00 50.43 LIG 0.01  C 
ENDBRANCH 26 27
ENDBRANCH 1 26
BRANCH 1 30
ATOM     30  N   LEU D  11      14.529   2.902  60.594  1.00 47.51 LIG-0.35  N 
ATOM     31  C   LEU D  10      14.048   4.136  60.440  1.00 47.80 LIG 0.24  C 
ATOM     32 O    LEU D  10      14.724   5.093  60.033  1.00 47.07 LIG-0.27  OA
ATOM     33 H    LEU D  11      14.042   2.231  60.825  1.00 47.51 LIG 0.16  HD
BRANCH 31 34
ATOM     34  CA  LEU D  10      12.582   4.320  60.807  1.00 47.63 LIG 0.18  C 
BRANCH 34 35
ATOM     35  CB  LEU D  10      12.156   5.778  60.664  1.00 47.29 LIG 0.04  C 
BRANCH 35 36
ATOM     36  CG  LEU D  10      12.554   6.661  61.852  1.00 46.92 LIG-0.02  C 
ATOM     37  CD2 LEU D  10      11.403   6.875  62.777  1.00 45.50 LIG 0.01  C 
ATOM     38  CD1 LEU D  10      13.099   8.015  61.401  1.00 46.83 LIG 0.01  C 
ENDBRANCH 35 36
ENDBRANCH 34 35
BRANCH 34 39
ATOM     39  N   LEU D  10      12.339   3.814  62.147  1.00 47.82 LIG-0.35  N 
ATOM     40 H    LEU D  10      12.997   3.904  62.693  1.00 47.82 LIG 0.16  HD
ATOM     41  C   ASP D   9      11.173   3.263  62.459  1.00 48.63 LIG 0.25  C 
ATOM     42 O    ASP D   9      10.251   3.133  61.657  1.00 48.10 LIG-0.27  OA
BRANCH 41 43
ATOM     43  CA  ASP D   9      11.030   2.780  63.879  1.00 49.27 LIG 0.28  C 
BRANCH 43 44
ATOM     44  N   ASP D   9      12.019   1.690  64.084  1.00 49.86 LIG-0.07  N 
ATOM     45 H2   ASP D   9      12.146   1.566  64.956  1.00 49.86 LIG 0.28  HD
ATOM     46 H3   ASP D   9      11.713   0.939  63.719  1.00 49.86 LIG 0.28  HD
ATOM     47 H1   ASP D   9      12.791   1.913  63.701  1.00 49.86 LIG 0.28  HD
ENDBRANCH 43 44
BRANCH 43 48
ATOM     48  CB  ASP D   9      11.307   3.941  64.824  1.00 50.02 LIG 0.15  C 
BRANCH 48 49
ATOM     49  CG  ASP D   9      11.303   3.527  66.266  1.00 50.84 LIG 0.17  C 
ATOM     50 OD1  ASP D   9      11.305   2.313  66.532  1.00 53.44 LIG-0.65  OA
ATOM     51 OD2  ASP D   9      11.324   4.348  67.210  1.00 53.75 LIG-0.65  OA
ENDBRANCH 48 49
ENDBRANCH 43 48
ENDBRANCH 41 43
ENDBRANCH 34 39
ENDBRANCH 31 34
ENDBRANCH 1 30
TORSDOF 20
ENDMDL
MODEL 38
USER: ADFR SOLUTION from run 113
USER: SCORE 16.484791 LL:  -4.710 LR: -12.774 RR:   0.000 FEB:  -6.808
USER: RMSD 6.668324
USER: SEED 112
USER: STATUS no improvement in best 8 clusters for 5 generations
USER: GENES 22
USER: genes 0 Translation |==|  0.48738 0.32811 0.42292
USER: genes 1 Rotation |==|  0.28581 0.46785 0.29976 0.90373
USER: genes 2 Torsion [N]-CA--C-[N] |==|  0.41594
USER: genes 3 Torsion [C]-N--CA-[CB] |==|  0.17369
USER: genes 4 Torsion [N]-CA--C-[N] |==|  0.50038
USER: genes 5 Torsion [C]-N--CA-[C] |==|  0.65387
USER: genes 6 Torsion [N]-CA--CB-[CG1] |==|  0.77965
USER: genes 7 Torsion [CA]-CB--CG1-[CD1] |==|  0.23727
USER: genes 8 Torsion [N]-CA--C-[OXT] |==|  0.89563
USER: genes 9 Torsion [N]-CA--CB-[CG] |==|  0.57005
USER: genes 10 Torsion [CA]-CB--CG-[ND1] |==|  0.63259
USER: genes 11 Torsion [C]-CA--CB-[CG] |==|  0.76799
USER: genes 12 Torsion [CA]-CB--CG-[CD2] |==|  0.75242
USER: genes 13 Torsion [C]-CA--N-[C] |==|  0.83888
USER: genes 14 Torsion [N]-C--CA-[N] |==|  0.41497
USER: genes 15 Torsion [C]-CA--CB-[CG] |==|  0.36628
USER: genes 16 Torsion [CA]-CB--CG-[CD2] |==|  0.27970
USER: genes 17 Torsion [C]-CA--N-[C] |==|  0.81430
USER: genes 18 Torsion [N]-C--CA-[N] |==|  0.90520
USER: genes 19 Torsion [C]-CA--N-[H2] |==|  0.65680
USER: genes 20 Torsion [C]-CA--CB-[CG] |==|  0.53479
USER: genes 21 Torsion [CA]-CB--CG-[OD1] |==|  0.17221
ROOT
ATOM      1  CA  LEU D  11      18.052   1.783  60.198  1.00 47.89 LIG 0.18  C 
ENDROOT
BRANCH 1 2
ATOM      2  C   LEU D  11      16.884   2.218  59.321  1.00 48.14 LIG 0.24  C 
ATOM      3 O    LEU D  11      16.059   3.025  59.727  1.00 47.13 LIG-0.27  OA
ATOM      4  N   HIS D  12      16.802   1.643  58.126  1.00 49.28 LIG-0.35  N 
ATOM      5 H    HIS D  12      17.375   1.081  57.817  1.00 49.28 LIG 0.16  HD
BRANCH 4 6
ATOM      6  CA  HIS D  12      15.690   1.943  57.231  1.00 50.49 LIG 0.18  C 
BRANCH 6 7
ATOM      7  C   HIS D  12      15.715   1.064  55.982  1.00 51.38 LIG 0.24  C 
ATOM      8  N   ILE D  13      14.729   1.293  55.129  1.00 53.16 LIG-0.34  N 
ATOM      9 H    ILE D  13      14.117   1.873  55.298  1.00 53.16 LIG 0.16  HD
ATOM     10 O    HIS D  12      16.593   0.232  55.809  1.00 51.57 LIG-0.27  OA
BRANCH 8 11
ATOM     11  CA  ILE D  13      14.523   0.638  53.827  1.00 55.12 LIG 0.19  C 
BRANCH 11 12
ATOM     12  CB  ILE D  13      13.468  -0.526  53.864  1.00 55.01 LIG 0.01  C 
ATOM     13  CG2 ILE D  13      12.840  -0.805  52.485  1.00 56.15 LIG 0.01  C 
BRANCH 12 14
ATOM     14  CG1 ILE D  13      14.105  -1.795  54.437  1.00 55.50 LIG 0.00  C 
ATOM     15  CD1 ILE D  13      14.082  -1.878  55.987  1.00 55.45 LIG 0.01  C 
ENDBRANCH 12 14
ENDBRANCH 11 12
BRANCH 11 16
ATOM     16  C   ILE D  13      14.397   1.509  52.573  1.00 55.63 LIG 0.20  C 
ATOM     17 OXT  ILE D  13      13.787   2.583  52.676  1.00 55.86 LIG-0.65  OA
ATOM     18 O    ILE D  13      14.907   1.167  51.504  1.00 56.94 LIG-0.65  OA
ENDBRANCH 11 16
ENDBRANCH 8 11
ENDBRANCH 6 7
BRANCH 6 19
ATOM     19  CB  HIS D  12      15.679   3.421  56.835  1.00 50.55 LIG 0.10  C 
BRANCH 19 20
ATOM     20  CG  HIS D  12      14.328   3.932  56.448  1.00 49.61 LIG 0.05  A 
ATOM     21 ND1  HIS D  12      13.921   4.666  55.385  1.00 49.92 LIG-0.25  NA
ATOM     22  CE1 HIS D  12      12.568   4.853  55.518  1.00 49.12 LIG 0.21  A 
ATOM     23  NE2 HIS D  12      12.153   4.237  56.609  1.00 48.62 LIG-0.36  N 
ATOM     24 HE2  HIS D  12      11.341   4.205  56.891  1.00 48.62 LIG 0.17  HD
ATOM     25  CD2 HIS D  12      13.196   3.676  57.191  1.00 48.49 LIG 0.12  A 
ENDBRANCH 19 20
ENDBRANCH 6 19
ENDBRANCH 4 6
ENDBRANCH 1 2
BRANCH 1 26
ATOM     26  CB  LEU D  11      17.599   0.575  61.010  1.00 47.69 LIG 0.04  C 
BRANCH 26 27
ATOM     27  CG  LEU D  11      16.816   0.797  62.310  1.00 48.05 LIG-0.02  C 
ATOM     28  CD1 LEU D  11      15.805  -0.323  62.510  1.00 46.53 LIG 0.01  C 
ATOM     29  CD2 LEU D  11      17.713   0.935  63.517  1.00 50.43 LIG 0.01  C 
ENDBRANCH 26 27
ENDBRANCH 1 26
BRANCH 1 30
ATOM     30  N   LEU D  11      18.519   2.826  61.098  1.00 47.51 LIG-0.35  N 
ATOM     31  C   LEU D  10      18.948   4.014  60.670  1.00 47.80 LIG 0.24  C 
ATOM     32 O    LEU D  10      18.919   4.370  59.483  1.00 47.07 LIG-0.27  OA
ATOM     33 H    LEU D  11      18.493   2.606  61.929  1.00 47.51 LIG 0.16  HD
BRANCH 31 34
ATOM     34  CA  LEU D  10      19.502   4.940  61.745  1.00 47.63 LIG 0.18  C 
BRANCH 34 35
ATOM     35  CB  LEU D  10      18.389   5.749  62.403  1.00 47.29 LIG 0.04  C 
BRANCH 35 36
ATOM     36  CG  LEU D  10      18.438   5.743  63.935  1.00 46.92 LIG-0.02  C 
ATOM     37  CD2 LEU D  10      19.041   7.002  64.463  1.00 45.50 LIG 0.01  C 
ATOM     38  CD1 LEU D  10      19.214   4.545  64.478  1.00 46.83 LIG 0.01  C 
ENDBRANCH 35 36
ENDBRANCH 34 35
BRANCH 34 39
ATOM     39  N   LEU D  10      20.533   5.794  61.181  1.00 47.82 LIG-0.35  N 
ATOM     40 H    LEU D  10      20.333   6.630  61.149  1.00 47.82 LIG 0.16  HD
ATOM     41  C   ASP D   9      21.682   5.279  60.761  1.00 48.63 LIG 0.25  C 
ATOM     42 O    ASP D   9      21.939   4.078  60.805  1.00 48.10 LIG-0.27  OA
BRANCH 41 43
ATOM     43  CA  ASP D   9      22.680   6.258  60.202  1.00 49.27 LIG 0.28  C 
BRANCH 43 44
ATOM     44  N   ASP D   9      21.918   7.330  59.510  1.00 49.86 LIG-0.07  N 
ATOM     45 H2   ASP D   9      22.189   7.389  58.664  1.00 49.86 LIG 0.28  HD
ATOM     46 H3   ASP D   9      21.049   7.138  59.530  1.00 49.86 LIG 0.28  HD
ATOM     47 H1   ASP D   9      22.059   8.107  59.920  1.00 49.86 LIG 0.28  HD
ENDBRANCH 43 44
BRANCH 43 48
ATOM     48  CB  ASP D   9      23.498   6.836  61.348  1.00 50.02 LIG 0.15  C 
BRANCH 48 49
ATOM     49  CG  ASP D   9      24.307   8.030  60.937  1.00 50.84 LIG 0.17  C 
ATOM     50 OD1  ASP D   9      23.706   9.040  60.532  1.00 53.44 LIG-0.65  OA
ATOM     51 OD2  ASP D   9      25.556   8.065  61.010  1.00 53.75 LIG-0.65  OA
ENDBRANCH 48 49
ENDBRANCH 43 48
ENDBRANCH 41 43
ENDBRANCH 34 39
ENDBRANCH 31 34
ENDBRANCH 1 30
TORSDOF 20
ENDMDL
MODEL 39
USER: ADFR SOLUTION from run 27
USER: SCORE 16.874988 LL:  -4.793 LR: -12.765 RR:   0.000 FEB:  -6.799
USER: RMSD 6.239901
USER: SEED 26
USER: STATUS no improvement in best 12 clusters for 5 generations
USER: GENES 22
USER: genes 0 Translation |==|  0.48035 0.33217 0.42808
USER: genes 1 Rotation |==|  0.28103 0.50000 0.32554 0.91426
USER: genes 2 Torsion [N]-CA--C-[N] |==|  0.90361
USER: genes 3 Torsion [C]-N--CA-[CB] |==|  0.49795
USER: genes 4 Torsion [N]-CA--C-[N] |==|  0.48594
USER: genes 5 Torsion [C]-N--CA-[C] |==|  0.24356
USER: genes 6 Torsion [N]-CA--CB-[CG1] |==|  0.26088
USER: genes 7 Torsion [CA]-CB--CG1-[CD1] |==|  0.62122
USER: genes 8 Torsion [N]-CA--C-[OXT] |==|  0.39155
USER: genes 9 Torsion [N]-CA--CB-[CG] |==|  0.75908
USER: genes 10 Torsion [CA]-CB--CG-[ND1] |==|  0.65182
USER: genes 11 Torsion [C]-CA--CB-[CG] |==|  0.81146
USER: genes 12 Torsion [CA]-CB--CG-[CD2] |==|  0.74015
USER: genes 13 Torsion [C]-CA--N-[C] |==|  0.81112
USER: genes 14 Torsion [N]-C--CA-[N] |==|  0.42489
USER: genes 15 Torsion [C]-CA--CB-[CG] |==|  0.38770
USER: genes 16 Torsion [CA]-CB--CG-[CD2] |==|  0.19919
USER: genes 17 Torsion [C]-CA--N-[C] |==|  0.77459
USER: genes 18 Torsion [N]-C--CA-[N] |==|  0.92622
USER: genes 19 Torsion [C]-CA--N-[H2] |==|  0.98875
USER: genes 20 Torsion [C]-CA--CB-[CG] |==|  0.51265
USER: genes 21 Torsion [CA]-CB--CG-[OD1] |==|  0.16110
ROOT
ATOM      1  CA  LEU D  11      17.841   1.905  60.352  1.00 47.89 LIG 0.18  C 
ENDROOT
BRANCH 1 2
ATOM      2  C   LEU D  11      16.533   2.322  59.693  1.00 48.14 LIG 0.24  C 
ATOM      3 O    LEU D  11      16.270   1.984  58.546  1.00 47.13 LIG-0.27  OA
ATOM      4  N   HIS D  12      15.731   3.095  60.416  1.00 49.28 LIG-0.35  N 
ATOM      5 H    HIS D  12      15.889   3.337  61.226  1.00 49.28 LIG 0.16  HD
BRANCH 4 6
ATOM      6  CA  HIS D  12      14.481   3.600  59.858  1.00 50.49 LIG 0.18  C 
BRANCH 6 7
ATOM      7  C   HIS D  12      14.714   4.400  58.578  1.00 51.38 LIG 0.24  C 
ATOM      8  N   ILE D  13      13.608   4.795  57.968  1.00 53.16 LIG-0.34  N 
ATOM      9 H    ILE D  13      12.831   4.581  58.268  1.00 53.16 LIG 0.16  HD
ATOM     10 O    HIS D  12      15.843   4.647  58.180  1.00 51.57 LIG-0.27  OA
BRANCH 8 11
ATOM     11  CA  ILE D  13      13.522   5.616  56.749  1.00 55.12 LIG 0.19  C 
BRANCH 11 12
ATOM     12  CB  ILE D  13      14.420   6.905  56.788  1.00 55.01 LIG 0.01  C 
ATOM     13  CG2 ILE D  13      14.605   7.460  58.213  1.00 56.15 LIG 0.01  C 
BRANCH 12 14
ATOM     14  CG1 ILE D  13      15.776   6.620  56.135  1.00 55.50 LIG 0.00  C 
ATOM     15  CD1 ILE D  13      16.993   7.189  56.915  1.00 55.45 LIG 0.01  C 
ENDBRANCH 12 14
ENDBRANCH 11 12
BRANCH 11 16
ATOM     16  C   ILE D  13      13.549   4.919  55.385  1.00 55.63 LIG 0.20  C 
ATOM     17 OXT  ILE D  13      12.805   5.359  54.497  1.00 55.86 LIG-0.65  OA
ATOM     18 O    ILE D  13      14.304   3.969  55.168  1.00 56.94 LIG-0.65  OA
ENDBRANCH 11 16
ENDBRANCH 8 11
ENDBRANCH 6 7
BRANCH 6 19
ATOM     19  CB  HIS D  12      13.720   4.449  60.878  1.00 50.55 LIG 0.10  C 
BRANCH 19 20
ATOM     20  CG  HIS D  12      12.827   3.655  61.778  1.00 49.61 LIG 0.05  A 
ATOM     21 ND1  HIS D  12      11.505   3.766  62.049  1.00 49.92 LIG-0.25  NA
ATOM     22  CE1 HIS D  12      11.192   2.775  62.945  1.00 49.12 LIG 0.21  A 
ATOM     23  NE2 HIS D  12      12.276   2.065  63.198  1.00 48.62 LIG-0.36  N 
ATOM     24 HE2  HIS D  12      12.321   1.384  63.722  1.00 48.62 LIG 0.17  HD
ATOM     25  CD2 HIS D  12      13.279   2.578  62.510  1.00 48.49 LIG 0.12  A 
ENDBRANCH 19 20
ENDBRANCH 6 19
ENDBRANCH 4 6
ENDBRANCH 1 2
BRANCH 1 26
ATOM     26  CB  LEU D  11      17.571   0.642  61.163  1.00 47.69 LIG 0.04  C 
BRANCH 26 27
ATOM     27  CG  LEU D  11      16.678   0.727  62.407  1.00 48.05 LIG-0.02  C 
ATOM     28  CD1 LEU D  11      15.805  -0.515  62.510  1.00 46.53 LIG 0.01  C 
ATOM     29  CD2 LEU D  11      17.465   0.940  63.678  1.00 50.43 LIG 0.01  C 
ENDBRANCH 26 27
ENDBRANCH 1 26
BRANCH 1 30
ATOM     30  N   LEU D  11      18.403   2.929  61.221  1.00 47.51 LIG-0.35  N 
ATOM     31  C   LEU D  10      18.890   4.082  60.759  1.00 47.80 LIG 0.24  C 
ATOM     32 O    LEU D  10      18.841   4.423  59.569  1.00 47.07 LIG-0.27  OA
ATOM     33 H    LEU D  11      18.392   2.721  62.055  1.00 47.51 LIG 0.16  HD
BRANCH 31 34
ATOM     34  CA  LEU D  10      19.538   4.985  61.801  1.00 47.63 LIG 0.18  C 
BRANCH 34 35
ATOM     35  CB  LEU D  10      18.490   5.807  62.545  1.00 47.29 LIG 0.04  C 
BRANCH 35 36
ATOM     36  CG  LEU D  10      18.756   5.938  64.049  1.00 46.92 LIG-0.02  C 
ATOM     37  CD2 LEU D  10      19.916   6.838  64.318  1.00 45.50 LIG 0.01  C 
ATOM     38  CD1 LEU D  10      19.006   4.581  64.705  1.00 46.83 LIG 0.01  C 
ENDBRANCH 35 36
ENDBRANCH 34 35
BRANCH 34 39
ATOM     39  N   LEU D  10      20.542   5.826  61.172  1.00 47.82 LIG-0.35  N 
ATOM     40 H    LEU D  10      20.282   6.625  60.988  1.00 47.82 LIG 0.16  HD
ATOM     41  C   ASP D   9      21.756   5.354  60.921  1.00 48.63 LIG 0.25  C 
ATOM     42 O    ASP D   9      22.101   4.203  61.180  1.00 48.10 LIG-0.27  OA
BRANCH 41 43
ATOM     43  CA  ASP D   9      22.718   6.316  60.273  1.00 49.27 LIG 0.28  C 
BRANCH 43 44
ATOM     44  N   ASP D   9      21.916   7.307  59.510  1.00 49.86 LIG-0.07  N 
ATOM     45 H2   ASP D   9      21.055   7.087  59.551  1.00 49.86 LIG 0.28  HD
ATOM     46 H3   ASP D   9      22.031   8.117  59.861  1.00 49.86 LIG 0.28  HD
ATOM     47 H1   ASP D   9      22.181   7.312  58.660  1.00 49.86 LIG 0.28  HD
ENDBRANCH 43 44
BRANCH 43 48
ATOM     48  CB  ASP D   9      23.530   7.006  61.361  1.00 50.02 LIG 0.15  C 
BRANCH 48 49
ATOM     49  CG  ASP D   9      24.442   8.066  60.817  1.00 50.84 LIG 0.17  C 
ATOM     50 OD1  ASP D   9      23.941   9.001  60.168  1.00 53.44 LIG-0.65  OA
ATOM     51 OD2  ASP D   9      25.679   8.065  61.010  1.00 53.75 LIG-0.65  OA
ENDBRANCH 48 49
ENDBRANCH 43 48
ENDBRANCH 41 43
ENDBRANCH 34 39
ENDBRANCH 31 34
ENDBRANCH 1 30
TORSDOF 20
ENDMDL
MODEL 40
USER: ADFR SOLUTION from run 66
USER: SCORE 16.600432 LL:  -4.102 LR: -12.748 RR:   0.000 FEB:  -6.782
USER: RMSD 10.088307
USER: SEED 65
USER: STATUS no improvement in best 12 clusters for 5 generations
USER: GENES 22
USER: genes 0 Translation |==|  0.44714 0.30987 0.36663
USER: genes 1 Rotation |==|  0.21160 0.35876 0.30366 0.82914
USER: genes 2 Torsion [N]-CA--C-[N] |==|  0.38296
USER: genes 3 Torsion [C]-N--CA-[CB] |==|  0.84162
USER: genes 4 Torsion [N]-CA--C-[N] |==|  0.37833
USER: genes 5 Torsion [C]-N--CA-[C] |==|  0.82301
USER: genes 6 Torsion [N]-CA--CB-[CG1] |==|  0.04940
USER: genes 7 Torsion [CA]-CB--CG1-[CD1] |==|  0.59291
USER: genes 8 Torsion [N]-CA--C-[OXT] |==|  0.41061
USER: genes 9 Torsion [N]-CA--CB-[CG] |==|  0.79041
USER: genes 10 Torsion [CA]-CB--CG-[ND1] |==|  0.30165
USER: genes 11 Torsion [C]-CA--CB-[CG] |==|  0.51944
USER: genes 12 Torsion [CA]-CB--CG-[CD2] |==|  0.82274
USER: genes 13 Torsion [C]-CA--N-[C] |==|  0.61890
USER: genes 14 Torsion [N]-C--CA-[N] |==|  0.97778
USER: genes 15 Torsion [C]-CA--CB-[CG] |==|  0.29744
USER: genes 16 Torsion [CA]-CB--CG-[CD2] |==|  0.80714
USER: genes 17 Torsion [C]-CA--N-[C] |==|  0.79193
USER: genes 18 Torsion [N]-C--CA-[N] |==|  0.36399
USER: genes 19 Torsion [C]-CA--N-[H2] |==|  0.98386
USER: genes 20 Torsion [C]-CA--CB-[CG] |==|  0.72401
USER: genes 21 Torsion [CA]-CB--CG-[OD1] |==|  0.39884
ROOT
ATOM      1  CA  LEU D  11      16.844   1.236  58.509  1.00 47.89 LIG 0.18  C 
ENDROOT
BRANCH 1 2
ATOM      2  C   LEU D  11      15.939   1.012  57.305  1.00 48.14 LIG 0.24  C 
ATOM      3 O    LEU D  11      14.919   1.671  57.153  1.00 47.13 LIG-0.27  OA
ATOM      4  N   HIS D  12      16.301   0.045  56.470  1.00 49.28 LIG-0.35  N 
ATOM      5 H    HIS D  12      17.017  -0.424  56.551  1.00 49.28 LIG 0.16  HD
BRANCH 4 6
ATOM      6  CA  HIS D  12      15.473  -0.292  55.317  1.00 50.49 LIG 0.18  C 
BRANCH 6 7
ATOM      7  C   HIS D  12      15.432   0.843  54.296  1.00 51.38 LIG 0.24  C 
ATOM      8  N   ILE D  13      15.561   0.455  53.038  1.00 53.16 LIG-0.34  N 
ATOM      9 H    ILE D  13      15.688  -0.371  52.835  1.00 53.16 LIG 0.16  HD
ATOM     10 O    HIS D  12      15.282   2.005  54.644  1.00 51.57 LIG-0.27  OA
BRANCH 8 11
ATOM     11  CA  ILE D  13      15.514   1.314  51.843  1.00 55.12 LIG 0.19  C 
BRANCH 11 12
ATOM     12  CB  ILE D  13      16.177   0.670  50.572  1.00 55.01 LIG 0.01  C 
ATOM     13  CG2 ILE D  13      17.537   1.303  50.224  1.00 56.15 LIG 0.01  C 
BRANCH 12 14
ATOM     14  CG1 ILE D  13      16.316  -0.844  50.763  1.00 55.50 LIG 0.00  C 
ATOM     15  CD1 ILE D  13      17.571  -1.460  50.088  1.00 55.45 LIG 0.01  C 
ENDBRANCH 12 14
ENDBRANCH 11 12
BRANCH 11 16
ATOM     16  C   ILE D  13      14.213   2.055  51.518  1.00 55.63 LIG 0.20  C 
ATOM     17 OXT  ILE D  13      14.302   3.160  50.964  1.00 55.86 LIG-0.65  OA
ATOM     18 O    ILE D  13      13.114   1.559  51.774  1.00 56.94 LIG-0.65  OA
ENDBRANCH 11 16
ENDBRANCH 8 11
ENDBRANCH 6 7
BRANCH 6 19
ATOM     19  CB  HIS D  12      14.053  -0.667  55.745  1.00 50.55 LIG 0.10  C 
BRANCH 19 20
ATOM     20  CG  HIS D  12      13.945  -2.030  56.351  1.00 49.61 LIG 0.05  A 
ATOM     21 ND1  HIS D  12      13.726  -2.427  57.627  1.00 49.92 LIG-0.25  NA
ATOM     22  CE1 HIS D  12      13.716  -3.799  57.628  1.00 49.12 LIG 0.21  A 
ATOM     23  NE2 HIS D  12      13.897  -4.232  56.394  1.00 48.62 LIG-0.36  N 
ATOM     24 HE2  HIS D  12      13.917  -5.055  56.147  1.00 48.62 LIG 0.17  HD
ATOM     25  CD2 HIS D  12      14.043  -3.184  55.604  1.00 48.49 LIG 0.12  A 
ENDBRANCH 19 20
ENDBRANCH 6 19
ENDBRANCH 4 6
ENDBRANCH 1 2
BRANCH 1 26
ATOM     26  CB  LEU D  11      16.191   0.567  59.713  1.00 47.69 LIG 0.04  C 
BRANCH 26 27
ATOM     27  CG  LEU D  11      16.803   0.768  61.105  1.00 48.05 LIG-0.02  C 
ATOM     28  CD1 LEU D  11      15.884   0.187  62.170  1.00 46.53 LIG 0.01  C 
ATOM     29  CD2 LEU D  11      18.194   0.192  61.221  1.00 50.43 LIG 0.01  C 
ENDBRANCH 26 27
ENDBRANCH 1 26
BRANCH 1 30
ATOM     30  N   LEU D  11      17.079   2.642  58.803  1.00 47.51 LIG-0.35  N 
ATOM     31  C   LEU D  10      18.280   3.122  59.129  1.00 47.80 LIG 0.24  C 
ATOM     32 O    LEU D  10      19.316   2.441  59.137  1.00 47.07 LIG-0.27  OA
ATOM     33 H    LEU D  11      16.374   3.132  58.748  1.00 47.51 LIG 0.16  HD
BRANCH 31 34
ATOM     34  CA  LEU D  10      18.316   4.597  59.510  1.00 47.63 LIG 0.18  C 
BRANCH 34 35
ATOM     35  CB  LEU D  10      18.749   4.780  60.961  1.00 47.29 LIG 0.04  C 
BRANCH 35 36
ATOM     36  CG  LEU D  10      20.170   5.333  61.121  1.00 46.92 LIG-0.02  C 
ATOM     37  CD2 LEU D  10      21.192   4.329  60.704  1.00 45.50 LIG 0.01  C 
ATOM     38  CD1 LEU D  10      20.453   5.779  62.554  1.00 46.83 LIG 0.01  C 
ENDBRANCH 35 36
ENDBRANCH 34 35
BRANCH 34 39
ATOM     39  N   LEU D  10      17.024   5.208  59.248  1.00 47.82 LIG-0.35  N 
ATOM     40 H    LEU D  10      16.549   5.364  59.947  1.00 47.82 LIG 0.16  HD
ATOM     41  C   ASP D   9      16.649   5.487  58.006  1.00 48.63 LIG 0.25  C 
ATOM     42 O    ASP D   9      17.341   5.241  57.020  1.00 48.10 LIG-0.27  OA
BRANCH 41 43
ATOM     43  CA  ASP D   9      15.294   6.126  57.853  1.00 49.27 LIG 0.28  C 
BRANCH 43 44
ATOM     44  N   ASP D   9      15.452   7.309  56.968  1.00 49.86 LIG-0.07  N 
ATOM     45 H2   ASP D   9      16.315   7.433  56.790  1.00 49.86 LIG 0.28  HD
ATOM     46 H3   ASP D   9      15.009   7.172  56.208  1.00 49.86 LIG 0.28  HD
ATOM     47 H1   ASP D   9      15.126   8.030  57.375  1.00 49.86 LIG 0.28  HD
ENDBRANCH 43 44
BRANCH 43 48
ATOM     48  CB  ASP D   9      14.341   5.115  57.233  1.00 50.02 LIG 0.15  C 
BRANCH 48 49
ATOM     49  CG  ASP D   9      14.159   5.320  55.758  1.00 50.84 LIG 0.17  C 
ATOM     50 OD1  ASP D   9      14.033   4.318  55.033  1.00 53.44 LIG-0.65  OA
ATOM     51 OD2  ASP D   9      14.102   6.453  55.229  1.00 53.75 LIG-0.65  OA
ENDBRANCH 48 49
ENDBRANCH 43 48
ENDBRANCH 41 43
ENDBRANCH 34 39
ENDBRANCH 31 34
ENDBRANCH 1 30
TORSDOF 20
ENDMDL
MODEL 41
USER: ADFR SOLUTION from run 149
USER: SCORE 16.093533 LL:  -4.838 LR: -12.721 RR:   0.000 FEB:  -6.755
USER: RMSD 6.504261
USER: SEED 148
USER: STATUS no improvement in best 8 clusters for 5 generations
USER: GENES 22
USER: genes 0 Translation |==|  0.49025 0.32456 0.42003
USER: genes 1 Rotation |==|  0.21106 0.49792 0.33562 0.87348
USER: genes 2 Torsion [N]-CA--C-[N] |==|  0.33392
USER: genes 3 Torsion [C]-N--CA-[CB] |==|  0.13977
USER: genes 4 Torsion [N]-CA--C-[N] |==|  0.56111
USER: genes 5 Torsion [C]-N--CA-[C] |==|  0.57411
USER: genes 6 Torsion [N]-CA--CB-[CG1] |==|  0.06639
USER: genes 7 Torsion [CA]-CB--CG1-[CD1] |==|  0.68813
USER: genes 8 Torsion [N]-CA--C-[OXT] |==|  0.97302
USER: genes 9 Torsion [N]-CA--CB-[CG] |==|  0.14225
USER: genes 10 Torsion [CA]-CB--CG-[ND1] |==|  0.79963
USER: genes 11 Torsion [C]-CA--CB-[CG] |==|  0.82885
USER: genes 12 Torsion [CA]-CB--CG-[CD2] |==|  0.66801
USER: genes 13 Torsion [C]-CA--N-[C] |==|  0.63605
USER: genes 14 Torsion [N]-C--CA-[N] |==|  0.11623
USER: genes 15 Torsion [C]-CA--CB-[CG] |==|  0.38011
USER: genes 16 Torsion [CA]-CB--CG-[CD2] |==|  0.34010
USER: genes 17 Torsion [C]-CA--N-[C] |==|  0.64000
USER: genes 18 Torsion [N]-C--CA-[N] |==|  0.10515
USER: genes 19 Torsion [C]-CA--N-[H2] |==|  0.36626
USER: genes 20 Torsion [C]-CA--CB-[CG] |==|  0.69939
USER: genes 21 Torsion [CA]-CB--CG-[OD1] |==|  0.84588
ROOT
ATOM      1  CA  LEU D  11      18.138   1.677  60.111  1.00 47.89 LIG 0.18  C 
ENDROOT
BRANCH 1 2
ATOM      2  C   LEU D  11      16.766   1.923  59.496  1.00 48.14 LIG 0.24  C 
ATOM      3 O    LEU D  11      15.859   2.413  60.155  1.00 47.13 LIG-0.27  OA
ATOM      4  N   HIS D  12      16.612   1.539  58.233  1.00 49.28 LIG-0.35  N 
ATOM      5 H    HIS D  12      17.237   1.201  57.748  1.00 49.28 LIG 0.16  HD
BRANCH 4 6
ATOM      6  CA  HIS D  12      15.321   1.674  57.566  1.00 50.49 LIG 0.18  C 
BRANCH 6 7
ATOM      7  C   HIS D  12      15.408   1.313  56.085  1.00 51.38 LIG 0.24  C 
ATOM      8  N   ILE D  13      14.447   1.829  55.337  1.00 53.16 LIG-0.34  N 
ATOM      9 H    ILE D  13      13.816   2.301  55.682  1.00 53.16 LIG 0.16  HD
ATOM     10 O    HIS D  12      16.311   0.610  55.654  1.00 51.57 LIG-0.27  OA
BRANCH 8 11
ATOM     11  CA  ILE D  13      14.299   1.694  53.878  1.00 55.12 LIG 0.19  C 
BRANCH 11 12
ATOM     12  CB  ILE D  13      13.897   0.247  53.413  1.00 55.01 LIG 0.01  C 
ATOM     13  CG2 ILE D  13      15.095  -0.566  52.889  1.00 56.15 LIG 0.01  C 
BRANCH 12 14
ATOM     14  CG1 ILE D  13      13.195  -0.495  54.555  1.00 55.50 LIG 0.00  C 
ATOM     15  CD1 ILE D  13      14.001  -1.690  55.131  1.00 55.45 LIG 0.01  C 
ENDBRANCH 12 14
ENDBRANCH 11 12
BRANCH 11 16
ATOM     16  C   ILE D  13      13.557   2.789  53.106  1.00 55.63 LIG 0.20  C 
ATOM     17 OXT  ILE D  13      12.954   3.650  53.762  1.00 55.86 LIG-0.65  OA
ATOM     18 O    ILE D  13      13.581   2.829  51.873  1.00 56.94 LIG-0.65  OA
ENDBRANCH 11 16
ENDBRANCH 8 11
ENDBRANCH 6 7
BRANCH 6 19
ATOM     19  CB  HIS D  12      14.756   3.086  57.732  1.00 50.55 LIG 0.10  C 
BRANCH 19 20
ATOM     20  CG  HIS D  12      15.717   4.169  57.359  1.00 49.61 LIG 0.05  A 
ATOM     21 ND1  HIS D  12      16.833   4.624  57.976  1.00 49.92 LIG-0.25  NA
ATOM     22  CE1 HIS D  12      17.342   5.634  57.197  1.00 49.12 LIG 0.21  A 
ATOM     23  NE2 HIS D  12      16.581   5.777  56.128  1.00 48.62 LIG-0.36  N 
ATOM     24 HE2  HIS D  12      16.710   6.341  55.491  1.00 48.62 LIG 0.17  HD
ATOM     25  CD2 HIS D  12      15.591   4.908  56.203  1.00 48.49 LIG 0.12  A 
ENDBRANCH 19 20
ENDBRANCH 6 19
ENDBRANCH 4 6
ENDBRANCH 1 2
BRANCH 1 26
ATOM     26  CB  LEU D  11      17.955   0.727  61.290  1.00 47.69 LIG 0.04  C 
BRANCH 26 27
ATOM     27  CG  LEU D  11      17.083   1.162  62.474  1.00 48.05 LIG-0.02  C 
ATOM     28  CD1 LEU D  11      15.868   0.252  62.591  1.00 46.53 LIG 0.01  C 
ATOM     29  CD2 LEU D  11      17.847   1.212  63.776  1.00 50.43 LIG 0.01  C 
ENDBRANCH 26 27
ENDBRANCH 1 26
BRANCH 1 30
ATOM     30  N   LEU D  11      18.795   2.893  60.564  1.00 47.51 LIG-0.35  N 
ATOM     31  C   LEU D  10      20.058   3.193  60.254  1.00 47.80 LIG 0.24  C 
ATOM     32 O    LEU D  10      20.760   2.511  59.494  1.00 47.07 LIG-0.27  OA
ATOM     33 H    LEU D  11      18.296   3.399  61.049  1.00 47.51 LIG 0.16  HD
BRANCH 31 34
ATOM     34  CA  LEU D  10      20.613   4.452  60.907  1.00 47.63 LIG 0.18  C 
BRANCH 34 35
ATOM     35  CB  LEU D  10      22.131   4.523  60.764  1.00 47.29 LIG 0.04  C 
BRANCH 35 36
ATOM     36  CG  LEU D  10      22.655   5.913  60.385  1.00 46.92 LIG-0.02  C 
ATOM     37  CD2 LEU D  10      23.632   6.417  61.394  1.00 45.50 LIG 0.01  C 
ATOM     38  CD1 LEU D  10      21.523   6.927  60.226  1.00 46.83 LIG 0.01  C 
ENDBRANCH 35 36
ENDBRANCH 34 35
BRANCH 34 39
ATOM     39  N   LEU D  10      20.196   4.515  62.297  1.00 47.82 LIG-0.35  N 
ATOM     40 H    LEU D  10      20.341   3.799  62.752  1.00 47.82 LIG 0.16  HD
ATOM     41  C   ASP D   9      19.637   5.615  62.785  1.00 48.63 LIG 0.25  C 
ATOM     42 O    ASP D   9      19.427   6.621  62.111  1.00 48.10 LIG-0.27  OA
BRANCH 41 43
ATOM     43  CA  ASP D   9      19.251   5.571  64.240  1.00 49.27 LIG 0.28  C 
BRANCH 43 44
ATOM     44  N   ASP D   9      20.305   4.811  64.962  1.00 49.86 LIG-0.07  N 
ATOM     45 H2   ASP D   9      20.552   5.264  65.687  1.00 49.86 LIG 0.28  HD
ATOM     46 H3   ASP D   9      19.985   4.017  65.203  1.00 49.86 LIG 0.28  HD
ATOM     47 H1   ASP D   9      21.008   4.699  64.428  1.00 49.86 LIG 0.28  HD
ENDBRANCH 43 44
BRANCH 43 48
ATOM     48  CB  ASP D   9      19.159   6.995  64.768  1.00 50.02 LIG 0.15  C 
BRANCH 48 49
ATOM     49  CG  ASP D   9      20.286   7.343  65.696  1.00 50.84 LIG 0.17  C 
ATOM     50 OD1  ASP D   9      20.478   6.620  66.688  1.00 53.44 LIG-0.65  OA
ATOM     51 OD2  ASP D   9      21.055   8.310  65.500  1.00 53.75 LIG-0.65  OA
ENDBRANCH 48 49
ENDBRANCH 43 48
ENDBRANCH 41 43
ENDBRANCH 34 39
ENDBRANCH 31 34
ENDBRANCH 1 30
TORSDOF 20
ENDMDL
MODEL 42
USER: ADFR SOLUTION from run 147
USER: SCORE 15.403714 LL:  -4.179 LR: -12.618 RR:   0.000 FEB:  -6.652
USER: RMSD 9.579131
USER: SEED 146
USER: STATUS no improvement in best 10 clusters for 5 generations
USER: GENES 22
USER: genes 0 Translation |==|  0.45318 0.37084 0.47841
USER: genes 1 Rotation |==|  0.65517 0.14583 0.22323 0.65455
USER: genes 2 Torsion [N]-CA--C-[N] |==|  0.18143
USER: genes 3 Torsion [C]-N--CA-[CB] |==|  0.17767
USER: genes 4 Torsion [N]-CA--C-[N] |==|  0.06999
USER: genes 5 Torsion [C]-N--CA-[C] |==|  0.98136
USER: genes 6 Torsion [N]-CA--CB-[CG1] |==|  0.04946
USER: genes 7 Torsion [CA]-CB--CG1-[CD1] |==|  0.73418
USER: genes 8 Torsion [N]-CA--C-[OXT] |==|  0.80658
USER: genes 9 Torsion [N]-CA--CB-[CG] |==|  0.08065
USER: genes 10 Torsion [CA]-CB--CG-[ND1] |==|  0.18948
USER: genes 11 Torsion [C]-CA--CB-[CG] |==|  0.32508
USER: genes 12 Torsion [CA]-CB--CG-[CD2] |==|  0.04595
USER: genes 13 Torsion [C]-CA--N-[C] |==|  0.50074
USER: genes 14 Torsion [N]-C--CA-[N] |==|  0.28389
USER: genes 15 Torsion [C]-CA--CB-[CG] |==|  0.81748
USER: genes 16 Torsion [CA]-CB--CG-[CD2] |==|  0.69047
USER: genes 17 Torsion [C]-CA--N-[C] |==|  0.75338
USER: genes 18 Torsion [N]-C--CA-[N] |==|  0.04146
USER: genes 19 Torsion [C]-CA--N-[H2] |==|  0.70756
USER: genes 20 Torsion [C]-CA--CB-[CG] |==|  0.37617
USER: genes 21 Torsion [CA]-CB--CG-[OD1] |==|  0.02504
ROOT
ATOM      1  CA  LEU D  11      17.025   3.065  61.862  1.00 47.89 LIG 0.18  C 
ENDROOT
BRANCH 1 2
ATOM      2  C   LEU D  11      18.314   3.862  61.707  1.00 48.14 LIG 0.24  C 
ATOM      3 O    LEU D  11      19.114   3.600  60.819  1.00 47.13 LIG-0.27  OA
ATOM      4  N   HIS D  12      18.526   4.816  62.607  1.00 49.28 LIG-0.35  N 
ATOM      5 H    HIS D  12      17.975   5.024  63.233  1.00 49.28 LIG 0.16  HD
BRANCH 4 6
ATOM      6  CA  HIS D  12      19.757   5.599  62.586  1.00 50.49 LIG 0.18  C 
BRANCH 6 7
ATOM      7  C   HIS D  12      19.874   6.505  63.810  1.00 51.38 LIG 0.24  C 
ATOM      8  N   ILE D  13      19.202   6.085  64.870  1.00 53.16 LIG-0.34  N 
ATOM      9 H    ILE D  13      18.720   5.374  64.841  1.00 53.16 LIG 0.16  HD
ATOM     10 O    HIS D  12      20.548   7.524  63.784  1.00 51.57 LIG-0.27  OA
BRANCH 8 11
ATOM     11  CA  ILE D  13      19.165   6.722  66.197  1.00 55.12 LIG 0.19  C 
BRANCH 11 12
ATOM     12  CB  ILE D  13      19.125   5.699  67.389  1.00 55.01 LIG 0.01  C 
ATOM     13  CG2 ILE D  13      17.743   5.622  68.063  1.00 56.15 LIG 0.01  C 
BRANCH 12 14
ATOM     14  CG1 ILE D  13      19.574   4.315  66.910  1.00 55.50 LIG 0.00  C 
ATOM     15  CD1 ILE D  13      18.409   3.366  66.519  1.00 55.45 LIG 0.01  C 
ENDBRANCH 12 14
ENDBRANCH 11 12
BRANCH 11 16
ATOM     16  C   ILE D  13      20.090   7.912  66.471  1.00 55.63 LIG 0.20  C 
ATOM     17 OXT  ILE D  13      21.307   7.692  66.548  1.00 55.86 LIG-0.65  OA
ATOM     18 O    ILE D  13      19.642   9.056  66.585  1.00 56.94 LIG-0.65  OA
ENDBRANCH 11 16
ENDBRANCH 8 11
ENDBRANCH 6 7
BRANCH 6 19
ATOM     19  CB  HIS D  12      19.864   6.429  61.305  1.00 50.55 LIG 0.10  C 
BRANCH 19 20
ATOM     20  CG  HIS D  12      18.541   6.822  60.728  1.00 49.61 LIG 0.05  A 
ATOM     21 ND1  HIS D  12      17.586   7.669  61.178  1.00 49.92 LIG-0.25  NA
ATOM     22  CE1 HIS D  12      16.572   7.663  60.253  1.00 49.12 LIG 0.21  A 
ATOM     23  NE2 HIS D  12      16.902   6.861  59.258  1.00 48.62 LIG-0.36  N 
ATOM     24 HE2  HIS D  12      16.428   6.707  58.557  1.00 48.62 LIG 0.17  HD
ATOM     25  CD2 HIS D  12      18.084   6.337  59.521  1.00 48.49 LIG 0.12  A 
ENDBRANCH 19 20
ENDBRANCH 6 19
ENDBRANCH 4 6
ENDBRANCH 1 2
BRANCH 1 26
ATOM     26  CB  LEU D  11      17.057   1.928  60.847  1.00 47.69 LIG 0.04  C 
BRANCH 26 27
ATOM     27  CG  LEU D  11      17.060   0.478  61.347  1.00 48.05 LIG-0.02  C 
ATOM     28  CD1 LEU D  11      18.430  -0.148  61.130  1.00 46.53 LIG 0.01  C 
ATOM     29  CD2 LEU D  11      16.634   0.356  62.791  1.00 50.43 LIG 0.01  C 
ENDBRANCH 26 27
ENDBRANCH 1 26
BRANCH 1 30
ATOM     30  N   LEU D  11      15.824   3.862  61.663  1.00 47.51 LIG-0.35  N 
ATOM     31  C   LEU D  10      14.594   3.354  61.759  1.00 47.80 LIG 0.24  C 
ATOM     32 O    LEU D  10      14.356   2.186  62.101  1.00 47.07 LIG-0.27  OA
ATOM     33 H    LEU D  11      15.980   4.686  61.477  1.00 47.51 LIG 0.16  HD
BRANCH 31 34
ATOM     34  CA  LEU D  10      13.460   4.309  61.410  1.00 47.63 LIG 0.18  C 
BRANCH 34 35
ATOM     35  CB  LEU D  10      12.352   4.255  62.457  1.00 47.29 LIG 0.04  C 
BRANCH 35 36
ATOM     36  CG  LEU D  10      11.620   2.909  62.519  1.00 46.92 LIG-0.02  C 
ATOM     37  CD2 LEU D  10      10.214   3.034  62.035  1.00 45.50 LIG 0.01  C 
ATOM     38  CD1 LEU D  10      11.620   2.323  63.930  1.00 46.83 LIG 0.01  C 
ENDBRANCH 35 36
ENDBRANCH 34 35
BRANCH 34 39
ATOM     39  N   LEU D  10      12.961   4.018  60.077  1.00 47.82 LIG-0.35  N 
ATOM     40 H    LEU D  10      12.310   3.457  60.048  1.00 47.82 LIG 0.16  HD
ATOM     41  C   ASP D   9      13.500   4.600  59.013  1.00 48.63 LIG 0.25  C 
ATOM     42 O    ASP D   9      14.440   5.389  59.079  1.00 48.10 LIG-0.27  OA
BRANCH 41 43
ATOM     43  CA  ASP D   9      12.898   4.231  57.683  1.00 49.27 LIG 0.28  C 
BRANCH 43 44
ATOM     44  N   ASP D   9      11.597   3.565  57.947  1.00 49.86 LIG-0.07  N 
ATOM     45 H2   ASP D   9      11.679   2.689  57.813  1.00 49.86 LIG 0.28  HD
ATOM     46 H3   ASP D   9      11.352   3.714  58.790  1.00 49.86 LIG 0.28  HD
ATOM     47 H1   ASP D   9      10.978   3.892  57.397  1.00 49.86 LIG 0.28  HD
ENDBRANCH 43 44
BRANCH 43 48
ATOM     48  CB  ASP D   9      12.696   5.499  56.865  1.00 50.02 LIG 0.15  C 
BRANCH 48 49
ATOM     49  CG  ASP D   9      13.138   5.346  55.440  1.00 50.84 LIG 0.17  C 
ATOM     50 OD1  ASP D   9      13.444   4.211  55.035  1.00 53.44 LIG-0.65  OA
ATOM     51 OD2  ASP D   9      13.187   6.303  54.635  1.00 53.75 LIG-0.65  OA
ENDBRANCH 48 49
ENDBRANCH 43 48
ENDBRANCH 41 43
ENDBRANCH 34 39
ENDBRANCH 31 34
ENDBRANCH 1 30
TORSDOF 20
ENDMDL
MODEL 43
USER: ADFR SOLUTION from run 14
USER: SCORE 15.806872 LL:  -5.707 LR: -12.608 RR:   0.000 FEB:  -6.642
USER: RMSD 9.453734
USER: SEED 834019
USER: STATUS no improvement in best 14 clusters for 5 generations
USER: GENES 22
USER: genes 0 Translation |==|  0.46124 0.35399 0.49431
USER: genes 1 Rotation |==|  0.75193 0.17270 0.21834 0.50866
USER: genes 2 Torsion [N]-CA--C-[N] |==|  0.90969
USER: genes 3 Torsion [C]-N--CA-[CB] |==|  0.38579
USER: genes 4 Torsion [N]-CA--C-[N] |==|  0.46350
USER: genes 5 Torsion [C]-N--CA-[C] |==|  0.60804
USER: genes 6 Torsion [N]-CA--CB-[CG1] |==|  0.99890
USER: genes 7 Torsion [CA]-CB--CG1-[CD1] |==|  0.58077
USER: genes 8 Torsion [N]-CA--C-[OXT] |==|  0.96695
USER: genes 9 Torsion [N]-CA--CB-[CG] |==|  0.84473
USER: genes 10 Torsion [CA]-CB--CG-[ND1] |==|  0.27115
USER: genes 11 Torsion [C]-CA--CB-[CG] |==|  0.41894
USER: genes 12 Torsion [CA]-CB--CG-[CD2] |==|  0.30384
USER: genes 13 Torsion [C]-CA--N-[C] |==|  0.19810
USER: genes 14 Torsion [N]-C--CA-[N] |==|  0.99633
USER: genes 15 Torsion [C]-CA--CB-[CG] |==|  0.86503
USER: genes 16 Torsion [CA]-CB--CG-[CD2] |==|  0.71966
USER: genes 17 Torsion [C]-CA--N-[C] |==|  0.76111
USER: genes 18 Torsion [N]-C--CA-[N] |==|  0.43123
USER: genes 19 Torsion [C]-CA--N-[H2] |==|  0.31777
USER: genes 20 Torsion [C]-CA--CB-[CG] |==|  0.54451
USER: genes 21 Torsion [CA]-CB--CG-[OD1] |==|  0.13722
ROOT
ATOM      1  CA  LEU D  11      17.267   2.560  62.339  1.00 47.89 LIG 0.18  C 
ENDROOT
BRANCH 1 2
ATOM      2  C   LEU D  11      18.347   3.187  63.212  1.00 48.14 LIG 0.24  C 
ATOM      3 O    LEU D  11      18.803   2.588  64.176  1.00 47.13 LIG-0.27  OA
ATOM      4  N   HIS D  12      18.723   4.418  62.886  1.00 49.28 LIG-0.35  N 
ATOM      5 H    HIS D  12      18.423   4.854  62.208  1.00 49.28 LIG 0.16  HD
BRANCH 4 6
ATOM      6  CA  HIS D  12      19.707   5.134  63.691  1.00 50.49 LIG 0.18  C 
BRANCH 6 7
ATOM      7  C   HIS D  12      19.043   6.084  64.685  1.00 51.38 LIG 0.24  C 
ATOM      8  N   ILE D  13      19.853   6.554  65.620  1.00 53.16 LIG-0.34  N 
ATOM      9 H    ILE D  13      20.675   6.307  65.665  1.00 53.16 LIG 0.16  HD
ATOM     10 O    HIS D  12      17.860   6.375  64.592  1.00 51.57 LIG-0.27  OA
BRANCH 8 11
ATOM     11  CA  ILE D  13      19.508   7.518  66.678  1.00 55.12 LIG 0.19  C 
BRANCH 11 12
ATOM     12  CB  ILE D  13      18.816   6.866  67.930  1.00 55.01 LIG 0.01  C 
ATOM     13  CG2 ILE D  13      17.458   7.509  68.263  1.00 56.15 LIG 0.01  C 
BRANCH 12 14
ATOM     14  CG1 ILE D  13      18.665   5.356  67.718  1.00 55.50 LIG 0.00  C 
ATOM     15  CD1 ILE D  13      17.450   4.727  68.453  1.00 55.45 LIG 0.01  C 
ENDBRANCH 12 14
ENDBRANCH 11 12
BRANCH 11 16
ATOM     16  C   ILE D  13      20.533   8.590  67.063  1.00 55.63 LIG 0.20  C 
ATOM     17 OXT  ILE D  13      21.688   8.466  66.631  1.00 55.86 LIG-0.65  OA
ATOM     18 O    ILE D  13      20.214   9.558  67.757  1.00 56.94 LIG-0.65  OA
ENDBRANCH 11 16
ENDBRANCH 8 11
ENDBRANCH 6 7
BRANCH 6 19
ATOM     19  CB  HIS D  12      20.694   5.901  62.808  1.00 50.55 LIG 0.10  C 
BRANCH 19 20
ATOM     20  CG  HIS D  12      21.401   5.043  61.807  1.00 49.61 LIG 0.05  A 
ATOM     21 ND1  HIS D  12      21.156   4.813  60.495  1.00 49.92 LIG-0.25  NA
ATOM     22  CE1 HIS D  12      22.118   3.943  60.050  1.00 49.12 LIG 0.21  A 
ATOM     23  NE2 HIS D  12      22.941   3.666  61.045  1.00 48.62 LIG-0.36  N 
ATOM     24 HE2  HIS D  12      23.629   3.151  61.001  1.00 48.62 LIG 0.17  HD
ATOM     25  CD2 HIS D  12      22.527   4.313  62.118  1.00 48.49 LIG 0.12  A 
ENDBRANCH 19 20
ENDBRANCH 6 19
ENDBRANCH 4 6
ENDBRANCH 1 2
BRANCH 1 26
ATOM     26  CB  LEU D  11      17.959   1.848  61.182  1.00 47.69 LIG 0.04  C 
BRANCH 26 27
ATOM     27  CG  LEU D  11      17.290   0.621  60.550  1.00 48.05 LIG-0.02  C 
ATOM     28  CD1 LEU D  11      16.184   0.102  61.458  1.00 46.53 LIG 0.01  C 
ATOM     29  CD2 LEU D  11      16.764   0.893  59.161  1.00 50.43 LIG 0.01  C 
ENDBRANCH 26 27
ENDBRANCH 1 26
BRANCH 1 30
ATOM     30  N   LEU D  11      16.313   3.526  61.815  1.00 47.51 LIG-0.35  N 
ATOM     31  C   LEU D  10      16.625   4.409  60.865  1.00 47.80 LIG 0.24  C 
ATOM     32 O    LEU D  10      17.722   4.442  60.289  1.00 47.07 LIG-0.27  OA
ATOM     33 H    LEU D  11      15.533   3.474  62.173  1.00 47.51 LIG 0.16  HD
BRANCH 31 34
ATOM     34  CA  LEU D  10      15.534   5.413  60.518  1.00 47.63 LIG 0.18  C 
BRANCH 34 35
ATOM     35  CB  LEU D  10      16.027   6.846  60.693  1.00 47.29 LIG 0.04  C 
BRANCH 35 36
ATOM     36  CG  LEU D  10      16.730   7.102  62.031  1.00 46.92 LIG-0.02  C 
ATOM     37  CD2 LEU D  10      15.823   7.787  62.998  1.00 45.50 LIG 0.01  C 
ATOM     38  CD1 LEU D  10      18.003   7.929  61.859  1.00 46.83 LIG 0.01  C 
ENDBRANCH 35 36
ENDBRANCH 34 35
BRANCH 34 39
ATOM     39  N   LEU D  10      14.346   5.148  61.312  1.00 47.82 LIG-0.35  N 
ATOM     40 H    LEU D  10      14.287   5.602  62.040  1.00 47.82 LIG 0.16  HD
ATOM     41  C   ASP D   9      13.445   4.263  60.903  1.00 48.63 LIG 0.25  C 
ATOM     42 O    ASP D   9      13.558   3.615  59.865  1.00 48.10 LIG-0.27  OA
BRANCH 41 43
ATOM     43  CA  ASP D   9      12.251   4.074  61.801  1.00 49.27 LIG 0.28  C 
BRANCH 43 44
ATOM     44  N   ASP D   9      11.133   3.570  60.962  1.00 49.86 LIG-0.07  N 
ATOM     45 H2   ASP D   9      10.923   2.742  61.214  1.00 49.86 LIG 0.28  HD
ATOM     46 H3   ASP D   9      10.425   4.099  61.063  1.00 49.86 LIG 0.28  HD
ATOM     47 H1   ASP D   9      11.381   3.565  60.108  1.00 49.86 LIG 0.28  HD
ENDBRANCH 43 44
BRANCH 43 48
ATOM     48  CB  ASP D   9      12.605   3.065  62.885  1.00 50.02 LIG 0.15  C 
BRANCH 48 49
ATOM     49  CG  ASP D   9      11.396   2.523  63.588  1.00 50.84 LIG 0.17  C 
ATOM     50 OD1  ASP D   9      10.453   2.098  62.899  1.00 53.44 LIG-0.65  OA
ATOM     51 OD2  ASP D   9      11.306   2.455  64.835  1.00 53.75 LIG-0.65  OA
ENDBRANCH 48 49
ENDBRANCH 43 48
ENDBRANCH 41 43
ENDBRANCH 34 39
ENDBRANCH 31 34
ENDBRANCH 1 30
TORSDOF 20
ENDMDL
MODEL 44
USER: ADFR SOLUTION from run 150
USER: SCORE 17.322273 LL:  -5.547 LR: -12.596 RR:   0.000 FEB:  -6.630
USER: RMSD 5.853583
USER: SEED 149
USER: STATUS no improvement in best 4 clusters for 5 generations
USER: GENES 22
USER: genes 0 Translation |==|  0.47147 0.43176 0.43080
USER: genes 1 Rotation |==|  0.71568 0.68022 0.87646 0.67111
USER: genes 2 Torsion [N]-CA--C-[N] |==|  0.46973
USER: genes 3 Torsion [C]-N--CA-[CB] |==|  0.25422
USER: genes 4 Torsion [N]-CA--C-[N] |==|  0.99809
USER: genes 5 Torsion [C]-N--CA-[C] |==|  0.78865
USER: genes 6 Torsion [N]-CA--CB-[CG1] |==|  0.00378
USER: genes 7 Torsion [CA]-CB--CG1-[CD1] |==|  0.53335
USER: genes 8 Torsion [N]-CA--C-[OXT] |==|  0.75833
USER: genes 9 Torsion [N]-CA--CB-[CG] |==|  0.96116
USER: genes 10 Torsion [CA]-CB--CG-[ND1] |==|  0.73703
USER: genes 11 Torsion [C]-CA--CB-[CG] |==|  0.31431
USER: genes 12 Torsion [CA]-CB--CG-[CD2] |==|  0.97284
USER: genes 13 Torsion [C]-CA--N-[C] |==|  0.76323
USER: genes 14 Torsion [N]-C--CA-[N] |==|  0.36634
USER: genes 15 Torsion [C]-CA--CB-[CG] |==|  0.23494
USER: genes 16 Torsion [CA]-CB--CG-[CD2] |==|  0.06701
USER: genes 17 Torsion [C]-CA--N-[C] |==|  0.78759
USER: genes 18 Torsion [N]-C--CA-[N] |==|  0.07818
USER: genes 19 Torsion [C]-CA--N-[H2] |==|  0.85899
USER: genes 20 Torsion [C]-CA--CB-[CG] |==|  0.71203
USER: genes 21 Torsion [CA]-CB--CG-[OD1] |==|  0.61935
ROOT
ATOM      1  CA  LEU D  11      17.574   4.893  60.434  1.00 47.89 LIG 0.18  C 
ENDROOT
BRANCH 1 2
ATOM      2  C   LEU D  11      17.711   3.646  59.569  1.00 48.14 LIG 0.24  C 
ATOM      3 O    LEU D  11      18.813   3.209  59.265  1.00 47.13 LIG-0.27  OA
ATOM      4  N   HIS D  12      16.578   3.100  59.143  1.00 49.28 LIG-0.35  N 
ATOM      5 H    HIS D  12      15.793   3.384  59.352  1.00 49.28 LIG 0.16  HD
BRANCH 4 6
ATOM      6  CA  HIS D  12      16.597   1.939  58.260  1.00 50.49 LIG 0.18  C 
BRANCH 6 7
ATOM      7  C   HIS D  12      15.450   1.975  57.251  1.00 51.38 LIG 0.24  C 
ATOM      8  N   ILE D  13      14.652   3.024  57.365  1.00 53.16 LIG-0.34  N 
ATOM      9 H    ILE D  13      14.768   3.610  57.983  1.00 53.16 LIG 0.16  HD
ATOM     10 O    HIS D  12      15.314   1.096  56.413  1.00 51.57 LIG-0.27  OA
BRANCH 8 11
ATOM     11  CA  ILE D  13      13.499   3.349  56.507  1.00 55.12 LIG 0.19  C 
BRANCH 11 12
ATOM     12  CB  ILE D  13      12.336   4.087  57.263  1.00 55.01 LIG 0.01  C 
ATOM     13  CG2 ILE D  13      10.992   3.342  57.163  1.00 56.15 LIG 0.01  C 
BRANCH 12 14
ATOM     14  CG1 ILE D  13      12.722   4.315  58.728  1.00 55.50 LIG 0.00  C 
ATOM     15  CD1 ILE D  13      11.547   4.768  59.636  1.00 55.45 LIG 0.01  C 
ENDBRANCH 12 14
ENDBRANCH 11 12
BRANCH 11 16
ATOM     16  C   ILE D  13      13.756   3.925  55.112  1.00 55.63 LIG 0.20  C 
ATOM     17 OXT  ILE D  13      13.886   5.153  55.010  1.00 55.86 LIG-0.65  OA
ATOM     18 O    ILE D  13      13.856   3.191  54.126  1.00 56.94 LIG-0.65  OA
ENDBRANCH 11 16
ENDBRANCH 8 11
ENDBRANCH 6 7
BRANCH 6 19
ATOM     19  CB  HIS D  12      16.555   0.634  59.058  1.00 50.55 LIG 0.10  C 
BRANCH 19 20
ATOM     20  CG  HIS D  12      16.837   0.810  60.517  1.00 49.61 LIG 0.05  A 
ATOM     21 ND1  HIS D  12      17.985   0.695  61.225  1.00 49.92 LIG-0.25  NA
ATOM     22  CE1 HIS D  12      17.680   0.968  62.535  1.00 49.12 LIG 0.21  A 
ATOM     23  NE2 HIS D  12      16.397   1.264  62.626  1.00 48.62 LIG-0.36  N 
ATOM     24 HE2  HIS D  12      15.980   1.481  63.346  1.00 48.62 LIG 0.17  HD
ATOM     25  CD2 HIS D  12      15.863   1.172  61.422  1.00 48.49 LIG 0.12  A 
ENDBRANCH 19 20
ENDBRANCH 6 19
ENDBRANCH 4 6
ENDBRANCH 1 2
BRANCH 1 26
ATOM     26  CB  LEU D  11      17.071   6.023  59.544  1.00 47.69 LIG 0.04  C 
BRANCH 26 27
ATOM     27  CG  LEU D  11      15.668   6.596  59.782  1.00 48.05 LIG-0.02  C 
ATOM     28  CD1 LEU D  11      14.931   6.744  58.458  1.00 46.53 LIG 0.01  C 
ATOM     29  CD2 LEU D  11      14.860   5.776  60.759  1.00 50.43 LIG 0.01  C 
ENDBRANCH 26 27
ENDBRANCH 1 26
BRANCH 1 30
ATOM     30  N   LEU D  11      18.819   5.294  61.072  1.00 47.51 LIG-0.35  N 
ATOM     31  C   LEU D  10      19.236   4.784  62.231  1.00 47.80 LIG 0.24  C 
ATOM     32 O    LEU D  10      18.650   3.872  62.833  1.00 47.07 LIG-0.27  OA
ATOM     33 H    LEU D  11      19.258   5.890  60.633  1.00 47.51 LIG 0.16  HD
BRANCH 31 34
ATOM     34  CA  LEU D  10      20.506   5.402  62.803  1.00 47.63 LIG 0.18  C 
BRANCH 34 35
ATOM     35  CB  LEU D  10      21.708   4.488  62.588  1.00 47.29 LIG 0.04  C 
BRANCH 35 36
ATOM     36  CG  LEU D  10      22.371   4.645  61.215  1.00 46.92 LIG-0.02  C 
ATOM     37  CD2 LEU D  10      22.097   5.990  60.631  1.00 45.50 LIG 0.01  C 
ATOM     38  CD1 LEU D  10      21.917   3.565  60.235  1.00 46.83 LIG 0.01  C 
ENDBRANCH 35 36
ENDBRANCH 34 35
BRANCH 34 39
ATOM     39  N   LEU D  10      20.312   5.723  64.206  1.00 47.82 LIG-0.35  N 
ATOM     40 H    LEU D  10      20.684   5.178  64.758  1.00 47.82 LIG 0.16  HD
ATOM     41  C   ASP D   9      19.607   6.790  64.563  1.00 48.63 LIG 0.25  C 
ATOM     42 O    ASP D   9      19.072   7.546  63.756  1.00 48.10 LIG-0.27  OA
BRANCH 41 43
ATOM     43  CA  ASP D   9      19.478   7.030  66.044  1.00 49.27 LIG 0.28  C 
BRANCH 43 44
ATOM     44  N   ASP D   9      20.680   6.454  66.700  1.00 49.86 LIG-0.07  N 
ATOM     45 H2   ASP D   9      20.797   5.617  66.423  1.00 49.86 LIG 0.28  HD
ATOM     46 H3   ASP D   9      21.395   6.939  66.487  1.00 49.86 LIG 0.28  HD
ATOM     47 H1   ASP D   9      20.569   6.462  67.583  1.00 49.86 LIG 0.28  HD
ENDBRANCH 43 44
BRANCH 43 48
ATOM     48  CB  ASP D   9      19.396   8.529  66.294  1.00 50.02 LIG 0.15  C 
BRANCH 48 49
ATOM     49  CG  ASP D   9      20.681   9.099  66.818  1.00 50.84 LIG 0.17  C 
ATOM     50 OD1  ASP D   9      20.627   9.922  67.748  1.00 53.44 LIG-0.65  OA
ATOM     51 OD2  ASP D   9      21.805   8.764  66.380  1.00 53.75 LIG-0.65  OA
ENDBRANCH 48 49
ENDBRANCH 43 48
ENDBRANCH 41 43
ENDBRANCH 34 39
ENDBRANCH 31 34
ENDBRANCH 1 30
TORSDOF 20
ENDMDL
MODEL 45
USER: ADFR SOLUTION from run 49
USER: SCORE 16.359307 LL:  -4.949 LR: -12.590 RR:   0.000 FEB:  -6.624
USER: RMSD 9.404532
USER: SEED 48
USER: STATUS no improvement in best 5 clusters for 5 generations
USER: GENES 22
USER: genes 0 Translation |==|  0.44147 0.34874 0.39219
USER: genes 1 Rotation |==|  0.72721 0.29786 0.10526 0.54118
USER: genes 2 Torsion [N]-CA--C-[N] |==|  0.98259
USER: genes 3 Torsion [C]-N--CA-[CB] |==|  0.23389
USER: genes 4 Torsion [N]-CA--C-[N] |==|  0.41918
USER: genes 5 Torsion [C]-N--CA-[C] |==|  0.69406
USER: genes 6 Torsion [N]-CA--CB-[CG1] |==|  0.60907
USER: genes 7 Torsion [CA]-CB--CG1-[CD1] |==|  0.44269
USER: genes 8 Torsion [N]-CA--C-[OXT] |==|  0.03026
USER: genes 9 Torsion [N]-CA--CB-[CG] |==|  0.60782
USER: genes 10 Torsion [CA]-CB--CG-[ND1] |==|  0.64019
USER: genes 11 Torsion [C]-CA--CB-[CG] |==|  0.43054
USER: genes 12 Torsion [CA]-CB--CG-[CD2] |==|  0.24116
USER: genes 13 Torsion [C]-CA--N-[C] |==|  0.81110
USER: genes 14 Torsion [N]-C--CA-[N] |==|  0.47038
USER: genes 15 Torsion [C]-CA--CB-[CG] |==|  0.69791
USER: genes 16 Torsion [CA]-CB--CG-[CD2] |==|  0.72982
USER: genes 17 Torsion [C]-CA--N-[C] |==|  0.61079
USER: genes 18 Torsion [N]-C--CA-[N] |==|  0.85477
USER: genes 19 Torsion [C]-CA--N-[H2] |==|  0.41405
USER: genes 20 Torsion [C]-CA--CB-[CG] |==|  0.55590
USER: genes 21 Torsion [CA]-CB--CG-[OD1] |==|  0.52820
ROOT
ATOM      1  CA  LEU D  11      16.674   2.402  59.276  1.00 47.89 LIG 0.18  C 
ENDROOT
BRANCH 1 2
ATOM      2  C   LEU D  11      17.919   2.911  59.990  1.00 48.14 LIG 0.24  C 
ATOM      3 O    LEU D  11      18.985   2.316  59.899  1.00 47.13 LIG-0.27  OA
ATOM      4  N   HIS D  12      17.765   3.999  60.735  1.00 49.28 LIG-0.35  N 
ATOM      5 H    HIS D  12      17.030   4.439  60.806  1.00 49.28 LIG 0.16  HD
BRANCH 4 6
ATOM      6  CA  HIS D  12      18.880   4.536  61.509  1.00 50.49 LIG 0.18  C 
BRANCH 6 7
ATOM      7  C   HIS D  12      18.399   5.289  62.748  1.00 51.38 LIG 0.24  C 
ATOM      8  N   ILE D  13      19.247   5.274  63.763  1.00 53.16 LIG-0.34  N 
ATOM      9 H    ILE D  13      19.989   4.843  63.719  1.00 53.16 LIG 0.16  HD
ATOM     10 O    HIS D  12      17.317   5.858  62.765  1.00 51.57 LIG-0.27  OA
BRANCH 8 11
ATOM     11  CA  ILE D  13      19.077   5.949  65.061  1.00 55.12 LIG 0.19  C 
BRANCH 11 12
ATOM     12  CB  ILE D  13      18.918   4.961  66.273  1.00 55.01 LIG 0.01  C 
ATOM     13  CG2 ILE D  13      20.250   4.681  66.994  1.00 56.15 LIG 0.01  C 
BRANCH 12 14
ATOM     14  CG1 ILE D  13      17.871   5.497  67.254  1.00 55.50 LIG 0.00  C 
ATOM     15  CD1 ILE D  13      17.265   4.420  68.194  1.00 55.45 LIG 0.01  C 
ENDBRANCH 12 14
ENDBRANCH 11 12
BRANCH 11 16
ATOM     16  C   ILE D  13      19.970   7.149  65.392  1.00 55.63 LIG 0.20  C 
ATOM     17 OXT  ILE D  13      20.653   7.630  64.477  1.00 55.86 LIG-0.65  OA
ATOM     18 O    ILE D  13      19.989   7.638  66.524  1.00 56.94 LIG-0.65  OA
ENDBRANCH 11 16
ENDBRANCH 8 11
ENDBRANCH 6 7
BRANCH 6 19
ATOM     19  CB  HIS D  12      19.764   5.443  60.652  1.00 50.55 LIG 0.10  C 
BRANCH 19 20
ATOM     20  CG  HIS D  12      21.227   5.300  60.932  1.00 49.61 LIG 0.05  A 
ATOM     21 ND1  HIS D  12      22.181   6.224  61.194  1.00 49.92 LIG-0.25  NA
ATOM     22  CE1 HIS D  12      23.360   5.546  61.381  1.00 49.12 LIG 0.21  A 
ATOM     23  NE2 HIS D  12      23.134   4.250  61.263  1.00 48.62 LIG-0.36  N 
ATOM     24 HE2  HIS D  12      23.720   3.627  61.351  1.00 48.62 LIG 0.17  HD
ATOM     25  CD2 HIS D  12      21.855   4.075  60.987  1.00 48.49 LIG 0.12  A 
ENDBRANCH 19 20
ENDBRANCH 6 19
ENDBRANCH 4 6
ENDBRANCH 1 2
BRANCH 1 26
ATOM     26  CB  LEU D  11      16.910   2.537  57.775  1.00 47.69 LIG 0.04  C 
BRANCH 26 27
ATOM     27  CG  LEU D  11      16.144   1.623  56.811  1.00 48.05 LIG-0.02  C 
ATOM     28  CD1 LEU D  11      16.009   0.229  57.408  1.00 46.53 LIG 0.01  C 
ATOM     29  CD2 LEU D  11      14.793   2.178  56.428  1.00 50.43 LIG 0.01  C 
ENDBRANCH 26 27
ENDBRANCH 1 26
BRANCH 1 30
ATOM     30  N   LEU D  11      15.462   3.119  59.643  1.00 47.51 LIG-0.35  N 
ATOM     31  C   LEU D  10      14.916   3.042  60.858  1.00 47.80 LIG 0.24  C 
ATOM     32 O    LEU D  10      15.423   2.422  61.803  1.00 47.07 LIG-0.27  OA
ATOM     33 H    LEU D  11      15.133   3.595  59.007  1.00 47.51 LIG 0.16  HD
BRANCH 31 34
ATOM     34  CA  LEU D  10      13.590   3.772  61.028  1.00 47.63 LIG 0.18  C 
BRANCH 34 35
ATOM     35  CB  LEU D  10      13.770   5.282  60.896  1.00 47.29 LIG 0.04  C 
BRANCH 35 36
ATOM     36  CG  LEU D  10      13.619   6.043  62.218  1.00 46.92 LIG-0.02  C 
ATOM     37  CD2 LEU D  10      12.245   6.605  62.366  1.00 45.50 LIG 0.01  C 
ATOM     38  CD1 LEU D  10      14.643   7.169  62.349  1.00 46.83 LIG 0.01  C 
ENDBRANCH 35 36
ENDBRANCH 34 35
BRANCH 34 39
ATOM     39  N   LEU D  10      12.983   3.408  62.297  1.00 47.82 LIG-0.35  N 
ATOM     40 H    LEU D  10      13.533   3.338  62.955  1.00 47.82 LIG 0.16  HD
ATOM     41  C   ASP D   9      11.674   3.209  62.387  1.00 48.63 LIG 0.25  C 
ATOM     42 O    ASP D   9      10.910   3.302  61.429  1.00 48.10 LIG-0.27  OA
BRANCH 41 43
ATOM     43  CA  ASP D   9      11.154   2.843  63.753  1.00 49.27 LIG 0.28  C 
BRANCH 43 44
ATOM     44  N   ASP D   9      11.952   1.690  64.243  1.00 49.86 LIG-0.07  N 
ATOM     45 H2   ASP D   9      12.010   1.726  65.131  1.00 49.86 LIG 0.28  HD
ATOM     46 H3   ASP D   9      11.556   0.931  64.002  1.00 49.86 LIG 0.28  HD
ATOM     47 H1   ASP D   9      12.769   1.723  63.892  1.00 49.86 LIG 0.28  HD
ENDBRANCH 43 44
BRANCH 43 48
ATOM     48  CB  ASP D   9      11.316   4.041  64.678  1.00 50.02 LIG 0.15  C 
BRANCH 48 49
ATOM     49  CG  ASP D   9      11.290   3.659  66.129  1.00 50.84 LIG 0.17  C 
ATOM     50 OD1  ASP D   9      11.220   4.565  66.977  1.00 53.44 LIG-0.65  OA
ATOM     51 OD2  ASP D   9      11.308   2.470  66.521  1.00 53.75 LIG-0.65  OA
ENDBRANCH 48 49
ENDBRANCH 43 48
ENDBRANCH 41 43
ENDBRANCH 34 39
ENDBRANCH 31 34
ENDBRANCH 1 30
TORSDOF 20
ENDMDL
MODEL 46
USER: ADFR SOLUTION from run 125
USER: SCORE 15.163120 LL:  -5.431 LR: -12.576 RR:   0.000 FEB:  -6.610
USER: RMSD 7.647493
USER: SEED 124
USER: STATUS no improvement in best 9 clusters for 5 generations
USER: GENES 22
USER: genes 0 Translation |==|  0.46588 0.32952 0.39074
USER: genes 1 Rotation |==|  0.26105 0.37172 0.20341 0.79746
USER: genes 2 Torsion [N]-CA--C-[N] |==|  0.51836
USER: genes 3 Torsion [C]-N--CA-[CB] |==|  0.44302
USER: genes 4 Torsion [N]-CA--C-[N] |==|  0.14744
USER: genes 5 Torsion [C]-N--CA-[C] |==|  0.79629
USER: genes 6 Torsion [N]-CA--CB-[CG1] |==|  0.97897
USER: genes 7 Torsion [CA]-CB--CG1-[CD1] |==|  0.65871
USER: genes 8 Torsion [N]-CA--C-[OXT] |==|  0.59705
USER: genes 9 Torsion [N]-CA--CB-[CG] |==|  0.14769
USER: genes 10 Torsion [CA]-CB--CG-[ND1] |==|  0.92926
USER: genes 11 Torsion [C]-CA--CB-[CG] |==|  0.42192
USER: genes 12 Torsion [CA]-CB--CG-[CD2] |==|  0.34694
USER: genes 13 Torsion [C]-CA--N-[C] |==|  0.71112
USER: genes 14 Torsion [N]-C--CA-[N] |==|  0.61066
USER: genes 15 Torsion [C]-CA--CB-[CG] |==|  0.73444
USER: genes 16 Torsion [CA]-CB--CG-[CD2] |==|  0.68317
USER: genes 17 Torsion [C]-CA--N-[C] |==|  0.66480
USER: genes 18 Torsion [N]-C--CA-[N] |==|  0.10241
USER: genes 19 Torsion [C]-CA--N-[H2] |==|  0.67611
USER: genes 20 Torsion [C]-CA--CB-[CG] |==|  0.56051
USER: genes 21 Torsion [CA]-CB--CG-[OD1] |==|  0.64064
ROOT
ATOM      1  CA  LEU D  11      17.407   1.825  59.232  1.00 47.89 LIG 0.18  C 
ENDROOT
BRANCH 1 2
ATOM      2  C   LEU D  11      16.923   2.065  57.808  1.00 48.14 LIG 0.24  C 
ATOM      3 O    LEU D  11      17.025   3.166  57.285  1.00 47.13 LIG-0.27  OA
ATOM      4  N   HIS D  12      16.357   1.029  57.199  1.00 49.28 LIG-0.35  N 
ATOM      5 H    HIS D  12      16.283   0.244  57.542  1.00 49.28 LIG 0.16  HD
BRANCH 4 6
ATOM      6  CA  HIS D  12      15.805   1.166  55.855  1.00 50.49 LIG 0.18  C 
BRANCH 6 7
ATOM      7  C   HIS D  12      14.455   1.880  55.866  1.00 51.38 LIG 0.24  C 
ATOM      8  N   ILE D  13      14.455   3.045  56.492  1.00 53.16 LIG-0.34  N 
ATOM      9 H    ILE D  13      15.161   3.344  56.881  1.00 53.16 LIG 0.16  HD
ATOM     10 O    HIS D  12      13.475   1.392  55.323  1.00 51.57 LIG-0.27  OA
BRANCH 8 11
ATOM     11  CA  ILE D  13      13.320   3.973  56.623  1.00 55.12 LIG 0.19  C 
BRANCH 11 12
ATOM     12  CB  ILE D  13      13.354   4.835  57.937  1.00 55.01 LIG 0.01  C 
ATOM     13  CG2 ILE D  13      12.007   4.838  58.684  1.00 56.15 LIG 0.01  C 
BRANCH 12 14
ATOM     14  CG1 ILE D  13      14.482   4.351  58.853  1.00 55.50 LIG 0.00  C 
ATOM     15  CD1 ILE D  13      14.015   3.924  60.271  1.00 55.45 LIG 0.01  C 
ENDBRANCH 12 14
ENDBRANCH 11 12
BRANCH 11 16
ATOM     16  C   ILE D  13      12.882   4.782  55.398  1.00 55.63 LIG 0.20  C 
ATOM     17 OXT  ILE D  13      12.462   5.932  55.586  1.00 55.86 LIG-0.65  OA
ATOM     18 O    ILE D  13      12.968   4.315  54.260  1.00 56.94 LIG-0.65  OA
ENDBRANCH 11 16
ENDBRANCH 8 11
ENDBRANCH 6 7
BRANCH 6 19
ATOM     19  CB  HIS D  12      15.676  -0.195  55.167  1.00 50.55 LIG 0.10  C 
BRANCH 19 20
ATOM     20  CG  HIS D  12      14.919  -1.206  55.968  1.00 49.61 LIG 0.05  A 
ATOM     21 ND1  HIS D  12      14.719  -1.322  57.302  1.00 49.92 LIG-0.25  NA
ATOM     22  CE1 HIS D  12      13.941  -2.435  57.499  1.00 49.12 LIG 0.21  A 
ATOM     23  NE2 HIS D  12      13.652  -2.971  56.328  1.00 48.62 LIG-0.36  N 
ATOM     24 HE2  HIS D  12      13.167  -3.670  56.199  1.00 48.62 LIG 0.17  HD
ATOM     25  CD2 HIS D  12      14.234  -2.251  55.386  1.00 48.49 LIG 0.12  A 
ENDBRANCH 19 20
ENDBRANCH 6 19
ENDBRANCH 4 6
ENDBRANCH 1 2
BRANCH 1 26
ATOM     26  CB  LEU D  11      16.248   1.228  60.023  1.00 47.69 LIG 0.04  C 
BRANCH 26 27
ATOM     27  CG  LEU D  11      16.548   0.309  61.213  1.00 48.05 LIG-0.02  C 
ATOM     28  CD1 LEU D  11      18.052   0.165  61.397  1.00 46.53 LIG 0.01  C 
ATOM     29  CD2 LEU D  11      15.891   0.773  62.491  1.00 50.43 LIG 0.01  C 
ENDBRANCH 26 27
ENDBRANCH 1 26
BRANCH 1 30
ATOM     30  N   LEU D  11      17.876   3.033  59.895  1.00 47.51 LIG-0.35  N 
ATOM     31  C   LEU D  10      19.169   3.305  60.075  1.00 47.80 LIG 0.24  C 
ATOM     32 O    LEU D  10      20.088   2.601  59.632  1.00 47.07 LIG-0.27  OA
ATOM     33 H    LEU D  11      17.243   3.553  60.159  1.00 47.51 LIG 0.16  HD
BRANCH 31 34
ATOM     34  CA  LEU D  10      19.470   4.559  60.885  1.00 47.63 LIG 0.18  C 
BRANCH 34 35
ATOM     35  CB  LEU D  10      18.238   5.451  60.998  1.00 47.29 LIG 0.04  C 
BRANCH 35 36
ATOM     36  CG  LEU D  10      18.182   6.569  59.951  1.00 46.92 LIG-0.02  C 
ATOM     37  CD2 LEU D  10      18.301   7.914  60.586  1.00 45.50 LIG 0.01  C 
ATOM     38  CD1 LEU D  10      16.900   6.512  59.122  1.00 46.83 LIG 0.01  C 
ENDBRANCH 35 36
ENDBRANCH 34 35
BRANCH 34 39
ATOM     39  N   LEU D  10      20.599   5.265  60.304  1.00 47.82 LIG-0.35  N 
ATOM     40 H    LEU D  10      20.490   5.514  59.488  1.00 47.82 LIG 0.16  HD
ATOM     41  C   ASP D   9      21.697   5.486  61.017  1.00 48.63 LIG 0.25  C 
ATOM     42 O    ASP D   9      21.835   5.107  62.177  1.00 48.10 LIG-0.27  OA
BRANCH 41 43
ATOM     43  CA  ASP D   9      22.800   6.233  60.315  1.00 49.27 LIG 0.28  C 
BRANCH 43 44
ATOM     44  N   ASP D   9      22.167   7.256  59.444  1.00 49.86 LIG-0.07  N 
ATOM     45 H2   ASP D   9      22.357   7.080  58.593  1.00 49.86 LIG 0.28  HD
ATOM     46 H3   ASP D   9      21.285   7.241  59.560  1.00 49.86 LIG 0.28  HD
ATOM     47 H1   ASP D   9      22.480   8.062  59.656  1.00 49.86 LIG 0.28  HD
ENDBRANCH 43 44
BRANCH 43 48
ATOM     48  CB  ASP D   9      23.689   6.893  61.361  1.00 50.02 LIG 0.15  C 
BRANCH 48 49
ATOM     49  CG  ASP D   9      24.471   8.049  60.809  1.00 50.84 LIG 0.17  C 
ATOM     50 OD1  ASP D   9      25.697   8.082  61.010  1.00 53.44 LIG-0.65  OA
ATOM     51 OD2  ASP D   9      23.949   8.964  60.134  1.00 53.75 LIG-0.65  OA
ENDBRANCH 48 49
ENDBRANCH 43 48
ENDBRANCH 41 43
ENDBRANCH 34 39
ENDBRANCH 31 34
ENDBRANCH 1 30
TORSDOF 20
ENDMDL
MODEL 47
USER: ADFR SOLUTION from run 40
USER: SCORE 15.818650 LL:  -5.180 LR: -12.566 RR:   0.000 FEB:  -6.600
USER: RMSD 6.190550
USER: SEED 39
USER: STATUS no improvement in best 6 clusters for 5 generations
USER: GENES 22
USER: genes 0 Translation |==|  0.47639 0.37237 0.47766
USER: genes 1 Rotation |==|  0.23198 0.43069 0.33327 0.88152
USER: genes 2 Torsion [N]-CA--C-[N] |==|  0.84759
USER: genes 3 Torsion [C]-N--CA-[CB] |==|  0.52222
USER: genes 4 Torsion [N]-CA--C-[N] |==|  0.34775
USER: genes 5 Torsion [C]-N--CA-[C] |==|  0.58172
USER: genes 6 Torsion [N]-CA--CB-[CG1] |==|  0.09147
USER: genes 7 Torsion [CA]-CB--CG1-[CD1] |==|  0.14905
USER: genes 8 Torsion [N]-CA--C-[OXT] |==|  0.49286
USER: genes 9 Torsion [N]-CA--CB-[CG] |==|  0.79707
USER: genes 10 Torsion [CA]-CB--CG-[ND1] |==|  0.48935
USER: genes 11 Torsion [C]-CA--CB-[CG] |==|  0.18701
USER: genes 12 Torsion [CA]-CB--CG-[CD2] |==|  0.06286
USER: genes 13 Torsion [C]-CA--N-[C] |==|  0.50061
USER: genes 14 Torsion [N]-C--CA-[N] |==|  0.88964
USER: genes 15 Torsion [C]-CA--CB-[CG] |==|  0.22335
USER: genes 16 Torsion [CA]-CB--CG-[CD2] |==|  0.57587
USER: genes 17 Torsion [C]-CA--N-[C] |==|  0.80371
USER: genes 18 Torsion [N]-C--CA-[N] |==|  0.52606
USER: genes 19 Torsion [C]-CA--N-[H2] |==|  0.08604
USER: genes 20 Torsion [C]-CA--CB-[CG] |==|  0.72173
USER: genes 21 Torsion [CA]-CB--CG-[OD1] |==|  0.65691
ROOT
ATOM      1  CA  LEU D  11      17.722   3.111  61.840  1.00 47.89 LIG 0.18  C 
ENDROOT
BRANCH 1 2
ATOM      2  C   LEU D  11      16.509   3.143  60.918  1.00 48.14 LIG 0.24  C 
ATOM      3 O    LEU D  11      16.587   2.753  59.761  1.00 47.13 LIG-0.27  OA
ATOM      4  N   HIS D  12      15.395   3.652  61.432  1.00 49.28 LIG-0.35  N 
ATOM      5 H    HIS D  12      15.314   3.924  62.244  1.00 49.28 LIG 0.16  HD
BRANCH 4 6
ATOM      6  CA  HIS D  12      14.192   3.785  60.617  1.00 50.49 LIG 0.18  C 
BRANCH 6 7
ATOM      7  C   HIS D  12      14.490   4.440  59.270  1.00 51.38 LIG 0.24  C 
ATOM      8  N   ILE D  13      14.095   3.739  58.219  1.00 53.16 LIG-0.34  N 
ATOM      9 H    ILE D  13      13.731   2.965  58.309  1.00 53.16 LIG 0.16  HD
ATOM     10 O    HIS D  12      15.041   5.529  59.201  1.00 51.57 LIG-0.27  OA
BRANCH 8 11
ATOM     11  CA  ILE D  13      14.205   4.136  56.806  1.00 55.12 LIG 0.19  C 
BRANCH 11 12
ATOM     12  CB  ILE D  13      15.670   4.074  56.242  1.00 55.01 LIG 0.01  C 
ATOM     13  CG2 ILE D  13      16.424   5.409  56.393  1.00 56.15 LIG 0.01  C 
BRANCH 12 14
ATOM     14  CG1 ILE D  13      16.444   2.934  56.912  1.00 55.50 LIG 0.00  C 
ATOM     15  CD1 ILE D  13      15.744   1.551  56.828  1.00 55.45 LIG 0.01  C 
ENDBRANCH 12 14
ENDBRANCH 11 12
BRANCH 11 16
ATOM     16  C   ILE D  13      13.167   3.612  55.809  1.00 55.63 LIG 0.20  C 
ATOM     17 OXT  ILE D  13      13.249   3.997  54.634  1.00 55.86 LIG-0.65  OA
ATOM     18 O    ILE D  13      12.294   2.813  56.156  1.00 56.94 LIG-0.65  OA
ENDBRANCH 11 16
ENDBRANCH 8 11
ENDBRANCH 6 7
BRANCH 6 19
ATOM     19  CB  HIS D  12      13.106   4.569  61.355  1.00 50.55 LIG 0.10  C 
BRANCH 19 20
ATOM     20  CG  HIS D  12      12.456   3.803  62.464  1.00 49.61 LIG 0.05  A 
ATOM     21 ND1  HIS D  12      11.521   4.166  63.373  1.00 49.92 LIG-0.25  NA
ATOM     22  CE1 HIS D  12      11.275   3.070  64.161  1.00 49.12 LIG 0.21  A 
ATOM     23  NE2 HIS D  12      12.013   2.061  63.737  1.00 48.62 LIG-0.36  N 
ATOM     24 HE2  HIS D  12      12.020   1.267  64.068  1.00 48.62 LIG 0.17  HD
ATOM     25  CD2 HIS D  12      12.739   2.478  62.716  1.00 48.49 LIG 0.12  A 
ENDBRANCH 19 20
ENDBRANCH 6 19
ENDBRANCH 4 6
ENDBRANCH 1 2
BRANCH 1 26
ATOM     26  CB  LEU D  11      17.422   2.131  62.969  1.00 47.69 LIG 0.04  C 
BRANCH 26 27
ATOM     27  CG  LEU D  11      17.295   0.637  62.650  1.00 48.05 LIG-0.02  C 
ATOM     28  CD1 LEU D  11      15.828   0.235  62.602  1.00 46.53 LIG 0.01  C 
ATOM     29  CD2 LEU D  11      18.001   0.250  61.372  1.00 50.43 LIG 0.01  C 
ENDBRANCH 26 27
ENDBRANCH 1 26
BRANCH 1 30
ATOM     30  N   LEU D  11      18.057   4.411  62.401  1.00 47.51 LIG-0.35  N 
ATOM     31  C   LEU D  10      19.086   4.599  63.228  1.00 47.80 LIG 0.24  C 
ATOM     32 O    LEU D  10      19.895   3.711  63.535  1.00 47.07 LIG-0.27  OA
ATOM     33 H    LEU D  11      17.531   5.044  62.151  1.00 47.51 LIG 0.16  HD
BRANCH 31 34
ATOM     34  CA  LEU D  10      19.220   6.003  63.803  1.00 47.63 LIG 0.18  C 
BRANCH 34 35
ATOM     35  CB  LEU D  10      18.348   6.177  65.043  1.00 47.29 LIG 0.04  C 
BRANCH 35 36
ATOM     36  CG  LEU D  10      18.966   5.602  66.323  1.00 46.92 LIG-0.02  C 
ATOM     37  CD2 LEU D  10      17.913   5.196  67.299  1.00 45.50 LIG 0.01  C 
ATOM     38  CD1 LEU D  10      19.921   6.590  66.990  1.00 46.83 LIG 0.01  C 
ENDBRANCH 35 36
ENDBRANCH 34 35
BRANCH 34 39
ATOM     39  N   LEU D  10      18.910   6.988  62.781  1.00 47.82 LIG-0.35  N 
ATOM     40 H    LEU D  10      18.169   7.410  62.895  1.00 47.82 LIG 0.16  HD
ATOM     41  C   ASP D   9      19.740   7.189  61.764  1.00 48.63 LIG 0.25  C 
ATOM     42 O    ASP D   9      20.787   6.564  61.614  1.00 48.10 LIG-0.27  OA
BRANCH 41 43
ATOM     43  CA  ASP D   9      19.322   8.239  60.769  1.00 49.27 LIG 0.28  C 
BRANCH 43 44
ATOM     44  N   ASP D   9      20.246   8.152  59.609  1.00 49.86 LIG-0.07  N 
ATOM     45 H2   ASP D   9      20.518   7.311  59.509  1.00 49.86 LIG 0.28  HD
ATOM     46 H3   ASP D   9      19.824   8.417  58.872  1.00 49.86 LIG 0.28  HD
ATOM     47 H1   ASP D   9      20.951   8.676  59.751  1.00 49.86 LIG 0.28  HD
ENDBRANCH 43 44
BRANCH 43 48
ATOM     48  CB  ASP D   9      17.889   7.963  60.335  1.00 50.02 LIG 0.15  C 
BRANCH 48 49
ATOM     49  CG  ASP D   9      17.810   7.271  59.006  1.00 50.84 LIG 0.17  C 
ATOM     50 OD1  ASP D   9      17.147   7.806  58.100  1.00 53.44 LIG-0.65  OA
ATOM     51 OD2  ASP D   9      18.402   6.196  58.761  1.00 53.75 LIG-0.65  OA
ENDBRANCH 48 49
ENDBRANCH 43 48
ENDBRANCH 41 43
ENDBRANCH 34 39
ENDBRANCH 31 34
ENDBRANCH 1 30
TORSDOF 20
ENDMDL
MODEL 48
USER: ADFR SOLUTION from run 15
USER: SCORE 15.080190 LL:  -5.103 LR: -12.563 RR:   0.000 FEB:  -6.597
USER: RMSD 7.729509
USER: SEED 704917
USER: STATUS no improvement in best 34 clusters for 5 generations
USER: GENES 22
USER: genes 0 Translation |==|  0.48568 0.30528 0.42308
USER: genes 1 Rotation |==|  0.13748 0.53693 0.34803 0.80679
USER: genes 2 Torsion [N]-CA--C-[N] |==|  0.90150
USER: genes 3 Torsion [C]-N--CA-[CB] |==|  0.43489
USER: genes 4 Torsion [N]-CA--C-[N] |==|  0.18447
USER: genes 5 Torsion [C]-N--CA-[C] |==|  0.83314
USER: genes 6 Torsion [N]-CA--CB-[CG1] |==|  0.35068
USER: genes 7 Torsion [CA]-CB--CG1-[CD1] |==|  0.34041
USER: genes 8 Torsion [N]-CA--C-[OXT] |==|  0.86512
USER: genes 9 Torsion [N]-CA--CB-[CG] |==|  0.71239
USER: genes 10 Torsion [CA]-CB--CG-[ND1] |==|  0.61507
USER: genes 11 Torsion [C]-CA--CB-[CG] |==|  0.93952
USER: genes 12 Torsion [CA]-CB--CG-[CD2] |==|  0.59739
USER: genes 13 Torsion [C]-CA--N-[C] |==|  0.18297
USER: genes 14 Torsion [N]-C--CA-[N] |==|  0.34445
USER: genes 15 Torsion [C]-CA--CB-[CG] |==|  0.31110
USER: genes 16 Torsion [CA]-CB--CG-[CD2] |==|  0.26850
USER: genes 17 Torsion [C]-CA--N-[C] |==|  0.82009
USER: genes 18 Torsion [N]-C--CA-[N] |==|  0.18848
USER: genes 19 Torsion [C]-CA--N-[H2] |==|  0.26317
USER: genes 20 Torsion [C]-CA--CB-[CG] |==|  0.79295
USER: genes 21 Torsion [CA]-CB--CG-[OD1] |==|  0.87284
ROOT
ATOM      1  CA  LEU D  11      18.000   1.098  60.202  1.00 47.89 LIG 0.18  C 
ENDROOT
BRANCH 1 2
ATOM      2  C   LEU D  11      16.548   1.389  59.846  1.00 48.14 LIG 0.24  C 
ATOM      3 O    LEU D  11      15.867   0.561  59.256  1.00 47.13 LIG-0.27  OA
ATOM      4  N   HIS D  12      16.092   2.592  60.176  1.00 49.28 LIG-0.35  N 
ATOM      5 H    HIS D  12      16.549   3.186  60.599  1.00 49.28 LIG 0.16  HD
BRANCH 4 6
ATOM      6  CA  HIS D  12      14.734   2.995  59.828  1.00 50.49 LIG 0.18  C 
BRANCH 6 7
ATOM      7  C   HIS D  12      14.630   3.438  58.370  1.00 51.38 LIG 0.24  C 
ATOM      8  N   ILE D  13      14.832   2.473  57.487  1.00 53.16 LIG-0.34  N 
ATOM      9 H    ILE D  13      15.034   1.675  57.735  1.00 53.16 LIG 0.16  HD
ATOM     10 O    HIS D  12      14.372   4.595  58.075  1.00 51.57 LIG-0.27  OA
BRANCH 8 11
ATOM     11  CA  ILE D  13      14.749   2.591  56.022  1.00 55.12 LIG 0.19  C 
BRANCH 11 12
ATOM     12  CB  ILE D  13      15.427   1.400  55.252  1.00 55.01 LIG 0.01  C 
ATOM     13  CG2 ILE D  13      15.997   0.326  56.197  1.00 56.15 LIG 0.01  C 
BRANCH 12 14
ATOM     14  CG1 ILE D  13      14.434   0.780  54.263  1.00 55.50 LIG 0.00  C 
ATOM     15  CD1 ILE D  13      14.920   0.777  52.788  1.00 55.45 LIG 0.01  C 
ENDBRANCH 12 14
ENDBRANCH 11 12
BRANCH 11 16
ATOM     16  C   ILE D  13      13.424   3.024  55.389  1.00 55.63 LIG 0.20  C 
ATOM     17 OXT  ILE D  13      12.391   2.448  55.759  1.00 55.86 LIG-0.65  OA
ATOM     18 O    ILE D  13      13.381   3.934  54.557  1.00 56.94 LIG-0.65  OA
ENDBRANCH 11 16
ENDBRANCH 8 11
ENDBRANCH 6 7
BRANCH 6 19
ATOM     19  CB  HIS D  12      14.231   4.105  60.753  1.00 50.55 LIG 0.10  C 
BRANCH 19 20
ATOM     20  CG  HIS D  12      13.267   3.633  61.795  1.00 49.61 LIG 0.05  A 
ATOM     21 ND1  HIS D  12      12.122   4.179  62.266  1.00 49.92 LIG-0.25  NA
ATOM     22  CE1 HIS D  12      11.628   3.323  63.219  1.00 49.12 LIG 0.21  A 
ATOM     23  NE2 HIS D  12      12.427   2.276  63.312  1.00 48.62 LIG-0.36  N 
ATOM     24 HE2  HIS D  12      12.314   1.602  63.834  1.00 48.62 LIG 0.17  HD
ATOM     25  CD2 HIS D  12      13.427   2.440  62.466  1.00 48.49 LIG 0.12  A 
ENDBRANCH 19 20
ENDBRANCH 6 19
ENDBRANCH 4 6
ENDBRANCH 1 2
BRANCH 1 26
ATOM     26  CB  LEU D  11      18.035   0.592  61.640  1.00 47.69 LIG 0.04  C 
BRANCH 26 27
ATOM     27  CG  LEU D  11      16.869   0.926  62.580  1.00 48.05 LIG-0.02  C 
ATOM     28  CD1 LEU D  11      15.809  -0.163  62.506  1.00 46.53 LIG 0.01  C 
ATOM     29  CD2 LEU D  11      17.314   1.150  64.006  1.00 50.43 LIG 0.01  C 
ENDBRANCH 26 27
ENDBRANCH 1 26
BRANCH 1 30
ATOM     30  N   LEU D  11      18.871   2.258  60.075  1.00 47.51 LIG-0.35  N 
ATOM     31  C   LEU D  10      18.758   3.337  60.851  1.00 47.80 LIG 0.24  C 
ATOM     32 O    LEU D  10      17.961   3.425  61.796  1.00 47.07 LIG-0.27  OA
ATOM     33 H    LEU D  11      19.462   2.182  59.455  1.00 47.51 LIG 0.16  HD
BRANCH 31 34
ATOM     34  CA  LEU D  10      19.682   4.496  60.502  1.00 47.63 LIG 0.18  C 
BRANCH 34 35
ATOM     35  CB  LEU D  10      20.738   4.705  61.583  1.00 47.29 LIG 0.04  C 
BRANCH 35 36
ATOM     36  CG  LEU D  10      22.164   4.370  61.131  1.00 46.92 LIG-0.02  C 
ATOM     37  CD2 LEU D  10      22.897   5.595  60.697  1.00 45.50 LIG 0.01  C 
ATOM     38  CD1 LEU D  10      22.180   3.344  60.000  1.00 46.83 LIG 0.01  C 
ENDBRANCH 35 36
ENDBRANCH 34 35
BRANCH 34 39
ATOM     39  N   LEU D  10      18.901   5.699  60.267  1.00 47.82 LIG-0.35  N 
ATOM     40 H    LEU D  10      19.037   6.335  60.831  1.00 47.82 LIG 0.16  HD
ATOM     41  C   ASP D   9      18.056   5.766  59.247  1.00 48.63 LIG 0.25  C 
ATOM     42 O    ASP D   9      17.869   4.839  58.462  1.00 48.10 LIG-0.27  OA
BRANCH 41 43
ATOM     43  CA  ASP D   9      17.305   7.063  59.096  1.00 49.27 LIG 0.28  C 
BRANCH 43 44
ATOM     44  N   ASP D   9      18.289   8.111  58.717  1.00 49.86 LIG-0.07  N 
ATOM     45 H2   ASP D   9      18.304   8.197  57.832  1.00 49.86 LIG 0.28  HD
ATOM     46 H3   ASP D   9      18.055   8.885  59.087  1.00 49.86 LIG 0.28  HD
ATOM     47 H1   ASP D   9      19.098   7.877  59.006  1.00 49.86 LIG 0.28  HD
ENDBRANCH 43 44
BRANCH 43 48
ATOM     48  CB  ASP D   9      16.252   6.899  58.009  1.00 50.02 LIG 0.15  C 
BRANCH 48 49
ATOM     49  CG  ASP D   9      16.841   6.890  56.629  1.00 50.84 LIG 0.17  C 
ATOM     50 OD1  ASP D   9      17.689   7.753  56.343  1.00 53.44 LIG-0.65  OA
ATOM     51 OD2  ASP D   9      16.537   6.039  55.763  1.00 53.75 LIG-0.65  OA
ENDBRANCH 48 49
ENDBRANCH 43 48
ENDBRANCH 41 43
ENDBRANCH 34 39
ENDBRANCH 31 34
ENDBRANCH 1 30
TORSDOF 20
ENDMDL
MODEL 49
USER: ADFR SOLUTION from run 125
USER: SCORE 15.184442 LL:  -5.188 LR: -12.552 RR:   0.000 FEB:  -6.586
USER: RMSD 7.395465
USER: SEED 124
USER: STATUS no improvement in best 9 clusters for 5 generations
USER: GENES 22
USER: genes 0 Translation |==|  0.46643 0.33872 0.39774
USER: genes 1 Rotation |==|  0.25929 0.37286 0.20205 0.79516
USER: genes 2 Torsion [N]-CA--C-[N] |==|  0.51854
USER: genes 3 Torsion [C]-N--CA-[CB] |==|  0.43003
USER: genes 4 Torsion [N]-CA--C-[N] |==|  0.14423
USER: genes 5 Torsion [C]-N--CA-[C] |==|  0.77624
USER: genes 6 Torsion [N]-CA--CB-[CG1] |==|  0.96647
USER: genes 7 Torsion [CA]-CB--CG1-[CD1] |==|  0.49345
USER: genes 8 Torsion [N]-CA--C-[OXT] |==|  0.56169
USER: genes 9 Torsion [N]-CA--CB-[CG] |==|  0.14487
USER: genes 10 Torsion [CA]-CB--CG-[ND1] |==|  0.90294
USER: genes 11 Torsion [C]-CA--CB-[CG] |==|  0.39151
USER: genes 12 Torsion [CA]-CB--CG-[CD2] |==|  0.36431
USER: genes 13 Torsion [C]-CA--N-[C] |==|  0.70795
USER: genes 14 Torsion [N]-C--CA-[N] |==|  0.28105
USER: genes 15 Torsion [C]-CA--CB-[CG] |==|  0.70307
USER: genes 16 Torsion [CA]-CB--CG-[CD2] |==|  0.53300
USER: genes 17 Torsion [C]-CA--N-[C] |==|  0.60572
USER: genes 18 Torsion [N]-C--CA-[N] |==|  0.38733
USER: genes 19 Torsion [C]-CA--N-[H2] |==|  0.22682
USER: genes 20 Torsion [C]-CA--CB-[CG] |==|  0.66493
USER: genes 21 Torsion [CA]-CB--CG-[OD1] |==|  0.62795
ROOT
ATOM      1  CA  LEU D  11      17.423   2.102  59.442  1.00 47.89 LIG 0.18  C 
ENDROOT
BRANCH 1 2
ATOM      2  C   LEU D  11      16.940   2.340  58.018  1.00 48.14 LIG 0.24  C 
ATOM      3 O    LEU D  11      17.056   3.438  57.489  1.00 47.13 LIG-0.27  OA
ATOM      4  N   HIS D  12      16.358   1.310  57.414  1.00 49.28 LIG-0.35  N 
ATOM      5 H    HIS D  12      16.274   0.528  57.762  1.00 49.28 LIG 0.16  HD
BRANCH 4 6
ATOM      6  CA  HIS D  12      15.806   1.448  56.071  1.00 50.49 LIG 0.18  C 
BRANCH 6 7
ATOM      7  C   HIS D  12      14.414   2.077  56.092  1.00 51.38 LIG 0.24  C 
ATOM      8  N   ILE D  13      14.334   3.211  56.768  1.00 53.16 LIG-0.34  N 
ATOM      9 H    ILE D  13      15.016   3.534  57.181  1.00 53.16 LIG 0.16  HD
ATOM     10 O    HIS D  12      13.473   1.555  55.513  1.00 51.57 LIG-0.27  OA
BRANCH 8 11
ATOM     11  CA  ILE D  13      13.142   4.062  56.922  1.00 55.12 LIG 0.19  C 
BRANCH 11 12
ATOM     12  CB  ILE D  13      13.015   4.724  58.341  1.00 55.01 LIG 0.01  C 
ATOM     13  CG2 ILE D  13      11.583   4.659  58.904  1.00 56.15 LIG 0.01  C 
BRANCH 12 14
ATOM     14  CG1 ILE D  13      14.010   4.081  59.313  1.00 55.50 LIG 0.00  C 
ATOM     15  CD1 ILE D  13      14.008   4.703  60.735  1.00 55.45 LIG 0.01  C 
ENDBRANCH 12 14
ENDBRANCH 11 12
BRANCH 11 16
ATOM     16  C   ILE D  13      12.768   5.021  55.788  1.00 55.63 LIG 0.20  C 
ATOM     17 OXT  ILE D  13      12.059   5.997  56.068  1.00 55.86 LIG-0.65  OA
ATOM     18 O    ILE D  13      13.180   4.843  54.639  1.00 56.94 LIG-0.65  OA
ENDBRANCH 11 16
ENDBRANCH 8 11
ENDBRANCH 6 7
BRANCH 6 19
ATOM     19  CB  HIS D  12      15.764   0.100  55.348  1.00 50.55 LIG 0.10  C 
BRANCH 19 20
ATOM     20  CG  HIS D  12      15.087  -0.982  56.127  1.00 49.61 LIG 0.05  A 
ATOM     21 ND1  HIS D  12      15.052  -1.238  57.456  1.00 49.92 LIG-0.25  NA
ATOM     22  CE1 HIS D  12      14.278  -2.357  57.632  1.00 49.12 LIG 0.21  A 
ATOM     23  NE2 HIS D  12      13.832  -2.762  56.457  1.00 48.62 LIG-0.36  N 
ATOM     24 HE2  HIS D  12      13.318  -3.438  56.319  1.00 48.62 LIG 0.17  HD
ATOM     25  CD2 HIS D  12      14.310  -1.952  55.531  1.00 48.49 LIG 0.12  A 
ENDBRANCH 19 20
ENDBRANCH 6 19
ENDBRANCH 4 6
ENDBRANCH 1 2
BRANCH 1 26
ATOM     26  CB  LEU D  11      16.258   1.523  60.238  1.00 47.69 LIG 0.04  C 
BRANCH 26 27
ATOM     27  CG  LEU D  11      16.529   0.414  61.263  1.00 48.05 LIG-0.02  C 
ATOM     28  CD1 LEU D  11      18.027   0.194  61.412  1.00 46.53 LIG 0.01  C 
ATOM     29  CD2 LEU D  11      15.888   0.688  62.602  1.00 50.43 LIG 0.01  C 
ENDBRANCH 26 27
ENDBRANCH 1 26
BRANCH 1 30
ATOM     30  N   LEU D  11      17.909   3.306  60.099  1.00 47.51 LIG-0.35  N 
ATOM     31  C   LEU D  10      19.205   3.551  60.295  1.00 47.80 LIG 0.24  C 
ATOM     32 O    LEU D  10      20.115   2.823  59.873  1.00 47.07 LIG-0.27  OA
ATOM     33 H    LEU D  11      17.284   3.843  60.347  1.00 47.51 LIG 0.16  HD
BRANCH 31 34
ATOM     34  CA  LEU D  10      19.522   4.808  61.095  1.00 47.63 LIG 0.18  C 
BRANCH 34 35
ATOM     35  CB  LEU D  10      20.636   5.615  60.436  1.00 47.29 LIG 0.04  C 
BRANCH 35 36
ATOM     36  CG  LEU D  10      21.978   5.539  61.174  1.00 46.92 LIG-0.02  C 
ATOM     37  CD2 LEU D  10      22.938   6.558  60.658  1.00 45.50 LIG 0.01  C 
ATOM     38  CD1 LEU D  10      22.608   4.152  61.073  1.00 46.83 LIG 0.01  C 
ENDBRANCH 35 36
ENDBRANCH 34 35
BRANCH 34 39
ATOM     39  N   LEU D  10      19.847   4.453  62.466  1.00 47.82 LIG-0.35  N 
ATOM     40 H    LEU D  10      20.307   3.731  62.555  1.00 47.82 LIG 0.16  HD
ATOM     41  C   ASP D   9      19.445   5.217  63.474  1.00 48.63 LIG 0.25  C 
ATOM     42 O    ASP D   9      18.776   6.237  63.324  1.00 48.10 LIG-0.27  OA
BRANCH 41 43
ATOM     43  CA  ASP D   9      19.845   4.757  64.852  1.00 49.27 LIG 0.28  C 
BRANCH 43 44
ATOM     44  N   ASP D   9      20.239   5.959  65.631  1.00 49.86 LIG-0.07  N 
ATOM     45 H2   ASP D   9      19.509   6.359  65.947  1.00 49.86 LIG 0.28  HD
ATOM     46 H3   ASP D   9      20.762   5.716  66.308  1.00 49.86 LIG 0.28  HD
ATOM     47 H1   ASP D   9      20.680   6.524  65.103  1.00 49.86 LIG 0.28  HD
ENDBRANCH 43 44
BRANCH 43 48
ATOM     48  CB  ASP D   9      18.658   4.061  65.502  1.00 50.02 LIG 0.15  C 
BRANCH 48 49
ATOM     49  CG  ASP D   9      18.231   4.719  66.781  1.00 50.84 LIG 0.17  C 
ATOM     50 OD1  ASP D   9      18.004   4.000  67.769  1.00 53.44 LIG-0.65  OA
ATOM     51 OD2  ASP D   9      18.118   5.960  66.904  1.00 53.75 LIG-0.65  OA
ENDBRANCH 48 49
ENDBRANCH 43 48
ENDBRANCH 41 43
ENDBRANCH 34 39
ENDBRANCH 31 34
ENDBRANCH 1 30
TORSDOF 20
ENDMDL
MODEL 50
USER: ADFR SOLUTION from run 118
USER: SCORE 16.566013 LL:  -5.788 LR: -12.521 RR:   0.000 FEB:  -6.555
USER: RMSD 6.888475
USER: SEED 117
USER: STATUS no improvement in best 19 clusters for 5 generations
USER: GENES 22
USER: genes 0 Translation |==|  0.47898 0.35999 0.46225
USER: genes 1 Rotation |==|  0.13300 0.44405 0.33933 0.79388
USER: genes 2 Torsion [N]-CA--C-[N] |==|  0.84902
USER: genes 3 Torsion [C]-N--CA-[CB] |==|  0.46133
USER: genes 4 Torsion [N]-CA--C-[N] |==|  0.26605
USER: genes 5 Torsion [C]-N--CA-[C] |==|  0.78287
USER: genes 6 Torsion [N]-CA--CB-[CG1] |==|  0.32672
USER: genes 7 Torsion [CA]-CB--CG1-[CD1] |==|  0.63601
USER: genes 8 Torsion [N]-CA--C-[OXT] |==|  0.89970
USER: genes 9 Torsion [N]-CA--CB-[CG] |==|  0.76613
USER: genes 10 Torsion [CA]-CB--CG-[ND1] |==|  0.50816
USER: genes 11 Torsion [C]-CA--CB-[CG] |==|  0.22794
USER: genes 12 Torsion [CA]-CB--CG-[CD2] |==|  0.79982
USER: genes 13 Torsion [C]-CA--N-[C] |==|  0.68895
USER: genes 14 Torsion [N]-C--CA-[N] |==|  0.91395
USER: genes 15 Torsion [C]-CA--CB-[CG] |==|  0.24187
USER: genes 16 Torsion [CA]-CB--CG-[CD2] |==|  0.12431
USER: genes 17 Torsion [C]-CA--N-[C] |==|  0.82564
USER: genes 18 Torsion [N]-C--CA-[N] |==|  0.61009
USER: genes 19 Torsion [C]-CA--N-[H2] |==|  0.12367
USER: genes 20 Torsion [C]-CA--CB-[CG] |==|  0.76852
USER: genes 21 Torsion [CA]-CB--CG-[OD1] |==|  0.06492
ROOT
ATOM      1  CA  LEU D  11      17.799   2.740  61.377  1.00 47.89 LIG 0.18  C 
ENDROOT
BRANCH 1 2
ATOM      2  C   LEU D  11      16.461   2.609  60.662  1.00 48.14 LIG 0.24  C 
ATOM      3 O    LEU D  11      16.275   1.730  59.830  1.00 47.13 LIG-0.27  OA
ATOM      4  N   HIS D  12      15.542   3.519  60.964  1.00 49.28 LIG-0.35  N 
ATOM      5 H    HIS D  12      15.647   4.139  61.551  1.00 49.28 LIG 0.16  HD
BRANCH 4 6
ATOM      6  CA  HIS D  12      14.247   3.521  60.293  1.00 50.49 LIG 0.18  C 
BRANCH 6 7
ATOM      7  C   HIS D  12      14.367   3.951  58.832  1.00 51.38 LIG 0.24  C 
ATOM      8  N   ILE D  13      14.455   2.951  57.971  1.00 53.16 LIG-0.34  N 
ATOM      9 H    ILE D  13      14.473   2.133  58.235  1.00 53.16 LIG 0.16  HD
ATOM     10 O    HIS D  12      14.368   5.132  58.516  1.00 51.57 LIG-0.27  OA
BRANCH 8 11
ATOM     11  CA  ILE D  13      14.532   3.058  56.504  1.00 55.12 LIG 0.19  C 
BRANCH 11 12
ATOM     12  CB  ILE D  13      15.430   1.955  55.835  1.00 55.01 LIG 0.01  C 
ATOM     13  CG2 ILE D  13      16.175   1.086  56.866  1.00 56.15 LIG 0.01  C 
BRANCH 12 14
ATOM     14  CG1 ILE D  13      14.584   1.083  54.902  1.00 55.50 LIG 0.00  C 
ATOM     15  CD1 ILE D  13      14.772  -0.444  55.108  1.00 55.45 LIG 0.01  C 
ENDBRANCH 12 14
ENDBRANCH 11 12
BRANCH 11 16
ATOM     16  C   ILE D  13      13.249   3.333  55.714  1.00 55.63 LIG 0.20  C 
ATOM     17 OXT  ILE D  13      12.199   2.815  56.121  1.00 55.86 LIG-0.65  OA
ATOM     18 O    ILE D  13      13.254   4.066  54.722  1.00 56.94 LIG-0.65  OA
ENDBRANCH 11 16
ENDBRANCH 8 11
ENDBRANCH 6 7
BRANCH 6 19
ATOM     19  CB  HIS D  12      13.244   4.416  61.025  1.00 50.55 LIG 0.10  C 
BRANCH 19 20
ATOM     20  CG  HIS D  12      12.551   3.739  62.164  1.00 49.61 LIG 0.05  A 
ATOM     21 ND1  HIS D  12      11.579   4.170  63.002  1.00 49.92 LIG-0.25  NA
ATOM     22  CE1 HIS D  12      11.304   3.140  63.866  1.00 49.12 LIG 0.21  A 
ATOM     23  NE2 HIS D  12      12.060   2.104  63.555  1.00 48.62 LIG-0.36  N 
ATOM     24 HE2  HIS D  12      12.055   1.340  63.951  1.00 48.62 LIG 0.17  HD
ATOM     25  CD2 HIS D  12      12.826   2.440  62.534  1.00 48.49 LIG 0.12  A 
ENDBRANCH 19 20
ENDBRANCH 6 19
ENDBRANCH 4 6
ENDBRANCH 1 2
BRANCH 1 26
ATOM     26  CB  LEU D  11      17.566   2.453  62.857  1.00 47.69 LIG 0.04  C 
BRANCH 26 27
ATOM     27  CG  LEU D  11      17.510   0.998  63.338  1.00 48.05 LIG-0.02  C 
ATOM     28  CD1 LEU D  11      17.680   0.940  64.849  1.00 46.53 LIG 0.01  C 
ATOM     29  CD2 LEU D  11      16.248   0.288  62.910  1.00 50.43 LIG 0.01  C 
ENDBRANCH 26 27
ENDBRANCH 1 26
BRANCH 1 30
ATOM     30  N   LEU D  11      18.410   4.052  61.228  1.00 47.51 LIG-0.35  N 
ATOM     31  C   LEU D  10      19.529   4.254  60.530  1.00 47.80 LIG 0.24  C 
ATOM     32 O    LEU D  10      20.108   3.368  59.885  1.00 47.07 LIG-0.27  OA
ATOM     33 H    LEU D  11      17.984   4.682  61.629  1.00 47.51 LIG 0.16  HD
BRANCH 31 34
ATOM     34  CA  LEU D  10      20.083   5.673  60.574  1.00 47.63 LIG 0.18  C 
BRANCH 34 35
ATOM     35  CB  LEU D  10      21.122   5.825  61.680  1.00 47.29 LIG 0.04  C 
BRANCH 35 36
ATOM     36  CG  LEU D  10      22.546   5.452  61.251  1.00 46.92 LIG-0.02  C 
ATOM     37  CD2 LEU D  10      22.879   6.031  59.917  1.00 45.50 LIG 0.01  C 
ATOM     38  CD1 LEU D  10      22.754   3.940  61.213  1.00 46.83 LIG 0.01  C 
ENDBRANCH 35 36
ENDBRANCH 34 35
BRANCH 34 39
ATOM     39  N   LEU D  10      18.995   6.625  60.717  1.00 47.82 LIG-0.35  N 
ATOM     40 H    LEU D  10      19.012   7.090  61.440  1.00 47.82 LIG 0.16  HD
ATOM     41  C   ASP D   9      18.067   6.735  59.774  1.00 48.63 LIG 0.25  C 
ATOM     42 O    ASP D   9      18.055   6.049  58.755  1.00 48.10 LIG-0.27  OA
BRANCH 41 43
ATOM     43  CA  ASP D   9      16.991   7.759  60.024  1.00 49.27 LIG 0.28  C 
BRANCH 43 44
ATOM     44  N   ASP D   9      15.702   7.178  59.567  1.00 49.86 LIG-0.07  N 
ATOM     45 H2   ASP D   9      15.639   6.336  59.850  1.00 49.86 LIG 0.28  HD
ATOM     46 H3   ASP D   9      15.027   7.654  59.900  1.00 49.86 LIG 0.28  HD
ATOM     47 H1   ASP D   9      15.667   7.195  58.678  1.00 49.86 LIG 0.28  HD
ENDBRANCH 43 44
BRANCH 43 48
ATOM     48  CB  ASP D   9      16.942   8.068  61.514  1.00 50.02 LIG 0.15  C 
BRANCH 48 49
ATOM     49  CG  ASP D   9      16.125   7.073  62.285  1.00 50.84 LIG 0.17  C 
ATOM     50 OD1  ASP D   9      15.964   5.940  61.801  1.00 53.44 LIG-0.65  OA
ATOM     51 OD2  ASP D   9      15.623   7.325  63.403  1.00 53.75 LIG-0.65  OA
ENDBRANCH 48 49
ENDBRANCH 43 48
ENDBRANCH 41 43
ENDBRANCH 34 39
ENDBRANCH 31 34
ENDBRANCH 1 30
TORSDOF 20
ENDMDL
MODEL 51
USER: ADFR SOLUTION from run 12
USER: SCORE 14.840107 LL:  -4.273 LR: -12.482 RR:   0.000 FEB:  -6.516
USER: RMSD 12.836989
USER: SEED 52452
USER: STATUS no improvement in best 5 clusters for 5 generations
USER: GENES 22
USER: genes 0 Translation |==|  0.40344 0.26122 0.26097
USER: genes 1 Rotation |==|  0.80932 0.52597 0.20787 0.76135
USER: genes 2 Torsion [N]-CA--C-[N] |==|  0.28895
USER: genes 3 Torsion [C]-N--CA-[CB] |==|  0.52278
USER: genes 4 Torsion [N]-CA--C-[N] |==|  0.33314
USER: genes 5 Torsion [C]-N--CA-[C] |==|  0.16056
USER: genes 6 Torsion [N]-CA--CB-[CG1] |==|  0.15476
USER: genes 7 Torsion [CA]-CB--CG1-[CD1] |==|  0.70127
USER: genes 8 Torsion [N]-CA--C-[OXT] |==|  0.63681
USER: genes 9 Torsion [N]-CA--CB-[CG] |==|  0.74015
USER: genes 10 Torsion [CA]-CB--CG-[ND1] |==|  0.37965
USER: genes 11 Torsion [C]-CA--CB-[CG] |==|  0.49942
USER: genes 12 Torsion [CA]-CB--CG-[CD2] |==|  0.59596
USER: genes 13 Torsion [C]-CA--N-[C] |==|  0.82616
USER: genes 14 Torsion [N]-C--CA-[N] |==|  0.79608
USER: genes 15 Torsion [C]-CA--CB-[CG] |==|  0.35256
USER: genes 16 Torsion [CA]-CB--CG-[CD2] |==|  0.19504
USER: genes 17 Torsion [C]-CA--N-[C] |==|  0.20634
USER: genes 18 Torsion [N]-C--CA-[N] |==|  0.05931
USER: genes 19 Torsion [C]-CA--N-[H2] |==|  0.09020
USER: genes 20 Torsion [C]-CA--CB-[CG] |==|  0.68957
USER: genes 21 Torsion [CA]-CB--CG-[OD1] |==|  0.34819
ROOT
ATOM      1  CA  LEU D  11      15.533  -0.223  55.339  1.00 47.89 LIG 0.18  C 
ENDROOT
BRANCH 1 2
ATOM      2  C   LEU D  11      15.341   0.970  56.265  1.00 48.14 LIG 0.24  C 
ATOM      3 O    LEU D  11      14.402   1.741  56.113  1.00 47.13 LIG-0.27  OA
ATOM      4  N   HIS D  12      16.265   1.140  57.204  1.00 49.28 LIG-0.35  N 
ATOM      5 H    HIS D  12      16.928   0.607  57.336  1.00 49.28 LIG 0.16  HD
BRANCH 4 6
ATOM      6  CA  HIS D  12      16.210   2.285  58.106  1.00 50.49 LIG 0.18  C 
BRANCH 6 7
ATOM      7  C   HIS D  12      15.988   3.593  57.349  1.00 51.38 LIG 0.24  C 
ATOM      8  N   ILE D  13      14.887   4.243  57.687  1.00 53.16 LIG-0.34  N 
ATOM      9 H    ILE D  13      14.338   3.923  58.266  1.00 53.16 LIG 0.16  HD
ATOM     10 O    HIS D  12      16.787   3.984  56.510  1.00 51.57 LIG-0.27  OA
BRANCH 8 11
ATOM     11  CA  ILE D  13      14.438   5.545  57.164  1.00 55.12 LIG 0.19  C 
BRANCH 11 12
ATOM     12  CB  ILE D  13      15.182   6.774  57.802  1.00 55.01 LIG 0.01  C 
ATOM     13  CG2 ILE D  13      14.826   6.981  59.286  1.00 56.15 LIG 0.01  C 
BRANCH 12 14
ATOM     14  CG1 ILE D  13      16.696   6.623  57.622  1.00 55.50 LIG 0.00  C 
ATOM     15  CD1 ILE D  13      17.462   6.275  58.926  1.00 55.45 LIG 0.01  C 
ENDBRANCH 12 14
ENDBRANCH 11 12
BRANCH 11 16
ATOM     16  C   ILE D  13      14.226   5.701  55.655  1.00 55.63 LIG 0.20  C 
ATOM     17 OXT  ILE D  13      14.743   6.680  55.098  1.00 55.86 LIG-0.65  OA
ATOM     18 O    ILE D  13      13.585   4.869  55.010  1.00 56.94 LIG-0.65  OA
ENDBRANCH 11 16
ENDBRANCH 8 11
ENDBRANCH 6 7
BRANCH 6 19
ATOM     19  CB  HIS D  12      17.475   2.380  58.961  1.00 50.55 LIG 0.10  C 
BRANCH 19 20
ATOM     20  CG  HIS D  12      17.356   1.706  60.291  1.00 49.61 LIG 0.05  A 
ATOM     21 ND1  HIS D  12      18.214   0.906  60.967  1.00 49.92 LIG-0.25  NA
ATOM     22  CE1 HIS D  12      17.603   0.565  62.148  1.00 49.12 LIG 0.21  A 
ATOM     23  NE2 HIS D  12      16.424   1.154  62.208  1.00 48.62 LIG-0.36  N 
ATOM     24 HE2  HIS D  12      15.865   1.098  62.860  1.00 48.62 LIG 0.17  HD
ATOM     25  CD2 HIS D  12      16.247   1.845  61.098  1.00 48.49 LIG 0.12  A 
ENDBRANCH 19 20
ENDBRANCH 6 19
ENDBRANCH 4 6
ENDBRANCH 1 2
BRANCH 1 26
ATOM     26  CB  LEU D  11      15.288   0.251  53.911  1.00 47.69 LIG 0.04  C 
BRANCH 26 27
ATOM     27  CG  LEU D  11      15.418  -0.750  52.756  1.00 48.05 LIG-0.02  C 
ATOM     28  CD1 LEU D  11      14.078  -1.419  52.490  1.00 46.53 LIG 0.01  C 
ATOM     29  CD2 LEU D  11      15.967  -0.121  51.498  1.00 50.43 LIG 0.01  C 
ENDBRANCH 26 27
ENDBRANCH 1 26
BRANCH 1 30
ATOM     30  N   LEU D  11      14.647  -1.338  55.640  1.00 47.51 LIG-0.35  N 
ATOM     31  C   LEU D  10      14.678  -1.996  56.800  1.00 47.80 LIG 0.24  C 
ATOM     32 O    LEU D  10      15.404  -1.677  57.752  1.00 47.07 LIG-0.27  OA
ATOM     33 H    LEU D  11      14.103  -1.531  55.002  1.00 47.51 LIG 0.16  HD
BRANCH 31 34
ATOM     34  CA  LEU D  10      13.754  -3.203  56.895  1.00 47.63 LIG 0.18  C 
BRANCH 34 35
ATOM     35  CB  LEU D  10      13.944  -4.138  55.705  1.00 47.29 LIG 0.04  C 
BRANCH 35 36
ATOM     36  CG  LEU D  10      14.222  -5.594  56.097  1.00 46.92 LIG-0.02  C 
ATOM     37  CD2 LEU D  10      13.009  -6.239  56.681  1.00 45.50 LIG 0.01  C 
ATOM     38  CD1 LEU D  10      15.381  -5.709  57.085  1.00 46.83 LIG 0.01  C 
ENDBRANCH 35 36
ENDBRANCH 34 35
BRANCH 34 39
ATOM     39  N   LEU D  10      12.376  -2.762  57.024  1.00 47.82 LIG-0.35  N 
ATOM     40 H    LEU D  10      12.039  -2.848  57.811  1.00 47.82 LIG 0.16  HD
ATOM     41  C   ASP D   9      11.724  -2.269  55.978  1.00 48.63 LIG 0.25  C 
ATOM     42 O    ASP D   9      12.222  -2.169  54.859  1.00 48.10 LIG-0.27  OA
BRANCH 41 43
ATOM     43  CA  ASP D   9      10.303  -1.837  56.229  1.00 49.27 LIG 0.28  C 
BRANCH 43 44
ATOM     44  N   ASP D   9      10.158  -1.595  57.687  1.00 49.86 LIG-0.07  N 
ATOM     45 H2   ASP D   9      10.928  -1.293  58.016  1.00 49.86 LIG 0.28  HD
ATOM     46 H3   ASP D   9       9.519  -0.992  57.826  1.00 49.86 LIG 0.28  HD
ATOM     47 H1   ASP D   9       9.940  -2.356  58.094  1.00 49.86 LIG 0.28  HD
ENDBRANCH 43 44
BRANCH 43 48
ATOM     48  CB  ASP D   9      10.031  -0.562  55.443  1.00 50.02 LIG 0.15  C 
BRANCH 48 49
ATOM     49  CG  ASP D   9       9.838   0.633  56.329  1.00 50.84 LIG 0.17  C 
ATOM     50 OD1  ASP D   9      10.549   1.634  56.135  1.00 53.44 LIG-0.65  OA
ATOM     51 OD2  ASP D   9       8.977   0.677  57.236  1.00 53.75 LIG-0.65  OA
ENDBRANCH 48 49
ENDBRANCH 43 48
ENDBRANCH 41 43
ENDBRANCH 34 39
ENDBRANCH 31 34
ENDBRANCH 1 30
TORSDOF 20
ENDMDL
MODEL 52
USER: ADFR SOLUTION from run 53
USER: SCORE 15.590915 LL:  -4.597 LR: -12.450 RR:   0.000 FEB:  -6.484
USER: RMSD 6.012214
USER: SEED 52
USER: STATUS no improvement in best 11 clusters for 5 generations
USER: GENES 22
USER: genes 0 Translation |==|  0.49021 0.34103 0.42939
USER: genes 1 Rotation |==|  0.21099 0.43366 0.18954 0.75630
USER: genes 2 Torsion [N]-CA--C-[N] |==|  0.65142
USER: genes 3 Torsion [C]-N--CA-[CB] |==|  0.86624
USER: genes 4 Torsion [N]-CA--C-[N] |==|  0.39563
USER: genes 5 Torsion [C]-N--CA-[C] |==|  0.20204
USER: genes 6 Torsion [N]-CA--CB-[CG1] |==|  0.69323
USER: genes 7 Torsion [CA]-CB--CG1-[CD1] |==|  0.53544
USER: genes 8 Torsion [N]-CA--C-[OXT] |==|  0.46444
USER: genes 9 Torsion [N]-CA--CB-[CG] |==|  0.58979
USER: genes 10 Torsion [CA]-CB--CG-[ND1] |==|  0.82006
USER: genes 11 Torsion [C]-CA--CB-[CG] |==|  0.37993
USER: genes 12 Torsion [CA]-CB--CG-[CD2] |==|  0.62355
USER: genes 13 Torsion [C]-CA--N-[C] |==|  0.18314
USER: genes 14 Torsion [N]-C--CA-[N] |==|  0.64260
USER: genes 15 Torsion [C]-CA--CB-[CG] |==|  0.22470
USER: genes 16 Torsion [CA]-CB--CG-[CD2] |==|  0.63876
USER: genes 17 Torsion [C]-CA--N-[C] |==|  0.16051
USER: genes 18 Torsion [N]-C--CA-[N] |==|  0.67585
USER: genes 19 Torsion [C]-CA--N-[H2] |==|  0.29172
USER: genes 20 Torsion [C]-CA--CB-[CG] |==|  0.75882
USER: genes 21 Torsion [CA]-CB--CG-[OD1] |==|  0.34200
ROOT
ATOM      1  CA  LEU D  11      18.136   2.171  60.392  1.00 47.89 LIG 0.18  C 
ENDROOT
BRANCH 1 2
ATOM      2  C   LEU D  11      17.469   2.535  59.072  1.00 48.14 LIG 0.24  C 
ATOM      3 O    LEU D  11      18.135   2.869  58.101  1.00 47.13 LIG-0.27  OA
ATOM      4  N   HIS D  12      16.142   2.505  59.057  1.00 49.28 LIG-0.35  N 
ATOM      5 H    HIS D  12      15.654   2.265  59.723  1.00 49.28 LIG 0.16  HD
BRANCH 4 6
ATOM      6  CA  HIS D  12      15.401   2.893  57.862  1.00 50.49 LIG 0.18  C 
BRANCH 6 7
ATOM      7  C   HIS D  12      15.454   1.812  56.785  1.00 51.38 LIG 0.24  C 
ATOM      8  N   ILE D  13      14.331   1.661  56.102  1.00 53.16 LIG-0.34  N 
ATOM      9 H    ILE D  13      13.630   2.124  56.286  1.00 53.16 LIG 0.16  HD
ATOM     10 O    HIS D  12      16.470   1.160  56.589  1.00 51.57 LIG-0.27  OA
BRANCH 8 11
ATOM     11  CA  ILE D  13      14.101   0.735  54.980  1.00 55.12 LIG 0.19  C 
BRANCH 11 12
ATOM     12  CB  ILE D  13      14.988   1.036  53.718  1.00 55.01 LIG 0.01  C 
ATOM     13  CG2 ILE D  13      15.805  -0.185  53.258  1.00 56.15 LIG 0.01  C 
BRANCH 12 14
ATOM     14  CG1 ILE D  13      14.115   1.567  52.577  1.00 55.50 LIG 0.00  C 
ATOM     15  CD1 ILE D  13      14.822   1.604  51.195  1.00 55.45 LIG 0.01  C 
ENDBRANCH 12 14
ENDBRANCH 11 12
BRANCH 11 16
ATOM     16  C   ILE D  13      13.981  -0.764  55.272  1.00 55.63 LIG 0.20  C 
ATOM     17 OXT  ILE D  13      13.552  -1.495  54.369  1.00 55.86 LIG-0.65  OA
ATOM     18 O    ILE D  13      14.325  -1.232  56.360  1.00 56.94 LIG-0.65  OA
ENDBRANCH 11 16
ENDBRANCH 8 11
ENDBRANCH 6 7
BRANCH 6 19
ATOM     19  CB  HIS D  12      15.912   4.221  57.299  1.00 50.55 LIG 0.10  C 
BRANCH 19 20
ATOM     20  CG  HIS D  12      14.852   5.047  56.642  1.00 49.61 LIG 0.05  A 
ATOM     21 ND1  HIS D  12      14.105   4.824  55.535  1.00 49.92 LIG-0.25  NA
ATOM     22  CE1 HIS D  12      13.277   5.908  55.382  1.00 49.12 LIG 0.21  A 
ATOM     23  NE2 HIS D  12      13.489   6.755  56.372  1.00 48.62 LIG-0.36  N 
ATOM     24 HE2  HIS D  12      13.078   7.501  56.493  1.00 48.62 LIG 0.17  HD
ATOM     25  CD2 HIS D  12      14.439   6.262  57.144  1.00 48.49 LIG 0.12  A 
ENDBRANCH 19 20
ENDBRANCH 6 19
ENDBRANCH 4 6
ENDBRANCH 1 2
BRANCH 1 26
ATOM     26  CB  LEU D  11      17.036   1.953  61.424  1.00 47.69 LIG 0.04  C 
BRANCH 26 27
ATOM     27  CG  LEU D  11      17.133   0.758  62.381  1.00 48.05 LIG-0.02  C 
ATOM     28  CD1 LEU D  11      17.659   1.213  63.735  1.00 46.53 LIG 0.01  C 
ATOM     29  CD2 LEU D  11      15.823   0.022  62.532  1.00 50.43 LIG 0.01  C 
ENDBRANCH 26 27
ENDBRANCH 1 26
BRANCH 1 30
ATOM     30  N   LEU D  11      19.060   3.187  60.873  1.00 47.51 LIG-0.35  N 
ATOM     31  C   LEU D  10      18.664   4.402  61.257  1.00 47.80 LIG 0.24  C 
ATOM     32 O    LEU D  10      17.477   4.753  61.314  1.00 47.07 LIG-0.27  OA
ATOM     33 H    LEU D  11      19.881   2.933  60.887  1.00 47.51 LIG 0.16  HD
BRANCH 31 34
ATOM     34  CA  LEU D  10      19.780   5.370  61.627  1.00 47.63 LIG 0.18  C 
BRANCH 34 35
ATOM     35  CB  LEU D  10      21.143   4.687  61.571  1.00 47.29 LIG 0.04  C 
BRANCH 35 36
ATOM     36  CG  LEU D  10      21.728   4.581  60.158  1.00 46.92 LIG-0.02  C 
ATOM     37  CD2 LEU D  10      22.180   3.190  59.862  1.00 45.50 LIG 0.01  C 
ATOM     38  CD1 LEU D  10      22.891   5.547  59.946  1.00 46.83 LIG 0.01  C 
ENDBRANCH 35 36
ENDBRANCH 34 35
BRANCH 34 39
ATOM     39  N   LEU D  10      19.518   5.953  62.932  1.00 47.82 LIG-0.35  N 
ATOM     40 H    LEU D  10      19.471   6.812  62.943  1.00 47.82 LIG 0.16  HD
ATOM     41  C   ASP D   9      19.369   5.178  63.999  1.00 48.63 LIG 0.25  C 
ATOM     42 O    ASP D   9      19.455   3.953  63.961  1.00 48.10 LIG-0.27  OA
BRANCH 41 43
ATOM     43  CA  ASP D   9      19.094   5.889  65.298  1.00 49.27 LIG 0.28  C 
BRANCH 43 44
ATOM     44  N   ASP D   9      20.232   5.612  66.212  1.00 49.86 LIG-0.07  N 
ATOM     45 H2   ASP D   9      20.749   6.335  66.270  1.00 49.86 LIG 0.28  HD
ATOM     46 H3   ASP D   9      19.921   5.405  67.019  1.00 49.86 LIG 0.28  HD
ATOM     47 H1   ASP D   9      20.710   4.932  65.894  1.00 49.86 LIG 0.28  HD
ENDBRANCH 43 44
BRANCH 43 48
ATOM     48  CB  ASP D   9      18.976   7.382  65.025  1.00 50.02 LIG 0.15  C 
BRANCH 48 49
ATOM     49  CG  ASP D   9      20.302   8.083  65.055  1.00 50.84 LIG 0.17  C 
ATOM     50 OD1  ASP D   9      20.656   8.722  64.050  1.00 53.44 LIG-0.65  OA
ATOM     51 OD2  ASP D   9      21.055   8.075  66.055  1.00 53.75 LIG-0.65  OA
ENDBRANCH 48 49
ENDBRANCH 43 48
ENDBRANCH 41 43
ENDBRANCH 34 39
ENDBRANCH 31 34
ENDBRANCH 1 30
TORSDOF 20
ENDMDL
MODEL 53
USER: ADFR SOLUTION from run 73
USER: SCORE 15.990718 LL:  -5.146 LR: -12.445 RR:   0.000 FEB:  -6.479
USER: RMSD 5.570151
USER: SEED 72
USER: STATUS no improvement in best 9 clusters for 5 generations
USER: GENES 22
USER: genes 0 Translation |==|  0.49111 0.35051 0.42788
USER: genes 1 Rotation |==|  0.28694 0.48051 0.16733 0.80587
USER: genes 2 Torsion [N]-CA--C-[N] |==|  0.80934
USER: genes 3 Torsion [C]-N--CA-[CB] |==|  0.86553
USER: genes 4 Torsion [N]-CA--C-[N] |==|  0.79606
USER: genes 5 Torsion [C]-N--CA-[C] |==|  0.07219
USER: genes 6 Torsion [N]-CA--CB-[CG1] |==|  0.95857
USER: genes 7 Torsion [CA]-CB--CG1-[CD1] |==|  0.45291
USER: genes 8 Torsion [N]-CA--C-[OXT] |==|  0.67789
USER: genes 9 Torsion [N]-CA--CB-[CG] |==|  0.50213
USER: genes 10 Torsion [CA]-CB--CG-[ND1] |==|  0.60194
USER: genes 11 Torsion [C]-CA--CB-[CG] |==|  0.46249
USER: genes 12 Torsion [CA]-CB--CG-[CD2] |==|  0.56844
USER: genes 13 Torsion [C]-CA--N-[C] |==|  0.18957
USER: genes 14 Torsion [N]-C--CA-[N] |==|  0.11531
USER: genes 15 Torsion [C]-CA--CB-[CG] |==|  0.32522
USER: genes 16 Torsion [CA]-CB--CG-[CD2] |==|  0.29979
USER: genes 17 Torsion [C]-CA--N-[C] |==|  0.16110
USER: genes 18 Torsion [N]-C--CA-[N] |==|  0.57566
USER: genes 19 Torsion [C]-CA--N-[H2] |==|  0.92892
USER: genes 20 Torsion [C]-CA--CB-[CG] |==|  0.67447
USER: genes 21 Torsion [CA]-CB--CG-[OD1] |==|  0.13855
ROOT
ATOM      1  CA  LEU D  11      18.163   2.455  60.346  1.00 47.89 LIG 0.18  C 
ENDROOT
BRANCH 1 2
ATOM      2  C   LEU D  11      17.638   3.315  59.204  1.00 48.14 LIG 0.24  C 
ATOM      3 O    LEU D  11      18.060   3.173  58.064  1.00 47.13 LIG-0.27  OA
ATOM      4  N   HIS D  12      16.740   4.238  59.528  1.00 49.28 LIG-0.35  N 
ATOM      5 H    HIS D  12      16.423   4.350  60.320  1.00 49.28 LIG 0.16  HD
BRANCH 4 6
ATOM      6  CA  HIS D  12      16.216   5.154  58.521  1.00 50.49 LIG 0.18  C 
BRANCH 6 7
ATOM      7  C   HIS D  12      15.211   4.469  57.598  1.00 51.38 LIG 0.24  C 
ATOM      8  N   ILE D  13      15.749   3.633  56.725  1.00 53.16 LIG-0.34  N 
ATOM      9 H    ILE D  13      16.600   3.523  56.677  1.00 53.16 LIG 0.16  HD
ATOM     10 O    HIS D  12      14.012   4.688  57.690  1.00 51.57 LIG-0.27  OA
BRANCH 8 11
ATOM     11  CA  ILE D  13      15.029   2.800  55.747  1.00 55.12 LIG 0.19  C 
BRANCH 11 12
ATOM     12  CB  ILE D  13      15.077   1.262  56.068  1.00 55.01 LIG 0.01  C 
ATOM     13  CG2 ILE D  13      15.284   0.397  54.811  1.00 56.15 LIG 0.01  C 
BRANCH 12 14
ATOM     14  CG1 ILE D  13      16.163   0.976  57.109  1.00 55.50 LIG 0.00  C 
ATOM     15  CD1 ILE D  13      16.034  -0.406  57.804  1.00 55.45 LIG 0.01  C 
ENDBRANCH 12 14
ENDBRANCH 11 12
BRANCH 11 16
ATOM     16  C   ILE D  13      13.652   3.258  55.257  1.00 55.63 LIG 0.20  C 
ATOM     17 OXT  ILE D  13      12.676   2.545  55.530  1.00 55.86 LIG-0.65  OA
ATOM     18 O    ILE D  13      13.514   4.314  54.635  1.00 56.94 LIG-0.65  OA
ENDBRANCH 11 16
ENDBRANCH 8 11
ENDBRANCH 6 7
BRANCH 6 19
ATOM     19  CB  HIS D  12      17.346   5.779  57.699  1.00 50.55 LIG 0.10  C 
BRANCH 19 20
ATOM     20  CG  HIS D  12      16.872   6.744  56.659  1.00 49.61 LIG 0.05  A 
ATOM     21 ND1  HIS D  12      17.319   6.998  55.406  1.00 49.92 LIG-0.25  NA
ATOM     22  CE1 HIS D  12      16.517   7.981  54.883  1.00 49.12 LIG 0.21  A 
ATOM     23  NE2 HIS D  12      15.594   8.302  55.771  1.00 48.62 LIG-0.36  N 
ATOM     24 HE2  HIS D  12      14.972   8.886  55.662  1.00 48.62 LIG 0.17  HD
ATOM     25  CD2 HIS D  12      15.789   7.574  56.854  1.00 48.49 LIG 0.12  A 
ENDBRANCH 19 20
ENDBRANCH 6 19
ENDBRANCH 4 6
ENDBRANCH 1 2
BRANCH 1 26
ATOM     26  CB  LEU D  11      16.961   1.867  61.076  1.00 47.69 LIG 0.04  C 
BRANCH 26 27
ATOM     27  CG  LEU D  11      17.176   0.719  62.071  1.00 48.05 LIG-0.02  C 
ATOM     28  CD1 LEU D  11      17.664   1.267  63.404  1.00 46.53 LIG 0.01  C 
ATOM     29  CD2 LEU D  11      15.943  -0.133  62.256  1.00 50.43 LIG 0.01  C 
ENDBRANCH 26 27
ENDBRANCH 1 26
BRANCH 1 30
ATOM     30  N   LEU D  11      18.992   3.190  61.290  1.00 47.51 LIG-0.35  N 
ATOM     31  C   LEU D  10      18.507   4.133  62.099  1.00 47.80 LIG 0.24  C 
ATOM     32 O    LEU D  10      17.304   4.418  62.180  1.00 47.07 LIG-0.27  OA
ATOM     33 H    LEU D  11      19.821   2.960  61.277  1.00 47.51 LIG 0.16  HD
BRANCH 31 34
ATOM     34  CA  LEU D  10      19.540   4.872  62.940  1.00 47.63 LIG 0.18  C 
BRANCH 34 35
ATOM     35  CB  LEU D  10      18.947   6.135  63.558  1.00 47.29 LIG 0.04  C 
BRANCH 35 36
ATOM     36  CG  LEU D  10      18.917   6.121  65.090  1.00 46.92 LIG-0.02  C 
ATOM     37  CD2 LEU D  10      19.930   7.057  65.661  1.00 45.50 LIG 0.01  C 
ATOM     38  CD1 LEU D  10      19.146   4.721  65.654  1.00 46.83 LIG 0.01  C 
ENDBRANCH 35 36
ENDBRANCH 34 35
BRANCH 34 39
ATOM     39  N   LEU D  10      20.716   5.162  62.138  1.00 47.82 LIG-0.35  N 
ATOM     40 H    LEU D  10      21.452   4.839  62.444  1.00 47.82 LIG 0.16  HD
ATOM     41  C   ASP D   9      20.614   5.875  61.023  1.00 48.63 LIG 0.25  C 
ATOM     42 O    ASP D   9      19.552   6.338  60.613  1.00 48.10 LIG-0.27  OA
BRANCH 41 43
ATOM     43  CA  ASP D   9      21.897   6.107  60.268  1.00 49.27 LIG 0.28  C 
BRANCH 43 44
ATOM     44  N   ASP D   9      21.749   7.378  59.512  1.00 49.86 LIG-0.07  N 
ATOM     45 H2   ASP D   9      20.887   7.531  59.354  1.00 49.86 LIG 0.28  HD
ATOM     46 H3   ASP D   9      22.087   8.048  59.990  1.00 49.86 LIG 0.28  HD
ATOM     47 H1   ASP D   9      22.185   7.316  58.739  1.00 49.86 LIG 0.28  HD
ENDBRANCH 43 44
BRANCH 43 48
ATOM     48  CB  ASP D   9      23.043   6.206  61.265  1.00 50.02 LIG 0.15  C 
BRANCH 48 49
ATOM     49  CG  ASP D   9      23.711   7.549  61.247  1.00 50.84 LIG 0.17  C 
ATOM     50 OD1  ASP D   9      22.999   8.564  61.321  1.00 53.44 LIG-0.65  OA
ATOM     51 OD2  ASP D   9      24.954   7.691  61.188  1.00 53.75 LIG-0.65  OA
ENDBRANCH 48 49
ENDBRANCH 43 48
ENDBRANCH 41 43
ENDBRANCH 34 39
ENDBRANCH 31 34
ENDBRANCH 1 30
TORSDOF 20
ENDMDL
MODEL 54
USER: ADFR SOLUTION from run 28
USER: SCORE 16.632207 LL:  -5.182 LR: -12.408 RR:   0.000 FEB:  -6.442
USER: RMSD 6.188476
USER: SEED 27
USER: STATUS no improvement in best 13 clusters for 5 generations
USER: GENES 22
USER: genes 0 Translation |==|  0.44739 0.34793 0.44800
USER: genes 1 Rotation |==|  0.20618 0.43420 0.22182 0.78628
USER: genes 2 Torsion [N]-CA--C-[N] |==|  0.97044
USER: genes 3 Torsion [C]-N--CA-[CB] |==|  0.52506
USER: genes 4 Torsion [N]-CA--C-[N] |==|  0.38494
USER: genes 5 Torsion [C]-N--CA-[C] |==|  0.62276
USER: genes 6 Torsion [N]-CA--CB-[CG1] |==|  0.77738
USER: genes 7 Torsion [CA]-CB--CG1-[CD1] |==|  0.33025
USER: genes 8 Torsion [N]-CA--C-[OXT] |==|  0.95161
USER: genes 9 Torsion [N]-CA--CB-[CG] |==|  0.02118
USER: genes 10 Torsion [CA]-CB--CG-[ND1] |==|  0.25078
USER: genes 11 Torsion [C]-CA--CB-[CG] |==|  0.37691
USER: genes 12 Torsion [CA]-CB--CG-[CD2] |==|  0.14135
USER: genes 13 Torsion [C]-CA--N-[C] |==|  0.79716
USER: genes 14 Torsion [N]-C--CA-[N] |==|  0.13795
USER: genes 15 Torsion [C]-CA--CB-[CG] |==|  0.77240
USER: genes 16 Torsion [CA]-CB--CG-[CD2] |==|  0.62368
USER: genes 17 Torsion [C]-CA--N-[C] |==|  0.65198
USER: genes 18 Torsion [N]-C--CA-[N] |==|  0.38416
USER: genes 19 Torsion [C]-CA--N-[H2] |==|  0.86985
USER: genes 20 Torsion [C]-CA--CB-[CG] |==|  0.53194
USER: genes 21 Torsion [CA]-CB--CG-[OD1] |==|  0.95818
ROOT
ATOM      1  CA  LEU D  11      16.852   2.378  60.950  1.00 47.89 LIG 0.18  C 
ENDROOT
BRANCH 1 2
ATOM      2  C   LEU D  11      16.005   2.694  59.724  1.00 48.14 LIG 0.24  C 
ATOM      3 O    LEU D  11      15.439   1.803  59.103  1.00 47.13 LIG-0.27  OA
ATOM      4  N   HIS D  12      15.958   3.969  59.356  1.00 49.28 LIG-0.35  N 
ATOM      5 H    HIS D  12      16.339   4.612  59.781  1.00 49.28 LIG 0.16  HD
BRANCH 4 6
ATOM      6  CA  HIS D  12      15.225   4.373  58.161  1.00 50.49 LIG 0.18  C 
BRANCH 6 7
ATOM      7  C   HIS D  12      15.556   3.482  56.965  1.00 51.38 LIG 0.24  C 
ATOM      8  N   ILE D  13      14.513   3.151  56.221  1.00 53.16 LIG-0.34  N 
ATOM      9 H    ILE D  13      13.718   3.403  56.429  1.00 53.16 LIG 0.16  HD
ATOM     10 O    HIS D  12      16.703   3.128  56.735  1.00 51.57 LIG-0.27  OA
BRANCH 8 11
ATOM     11  CA  ILE D  13      14.532   2.348  54.987  1.00 55.12 LIG 0.19  C 
BRANCH 11 12
ATOM     12  CB  ILE D  13      14.418   0.801  55.237  1.00 55.01 LIG 0.01  C 
ATOM     13  CG2 ILE D  13      13.851   0.041  54.023  1.00 56.15 LIG 0.01  C 
BRANCH 12 14
ATOM     14  CG1 ILE D  13      15.781   0.232  55.644  1.00 55.50 LIG 0.00  C 
ATOM     15  CD1 ILE D  13      15.807  -0.417  57.054  1.00 55.45 LIG 0.01  C 
ENDBRANCH 12 14
ENDBRANCH 11 12
BRANCH 11 16
ATOM     16  C   ILE D  13      13.701   2.815  53.788  1.00 55.63 LIG 0.20  C 
ATOM     17 OXT  ILE D  13      12.804   3.644  53.996  1.00 55.86 LIG-0.65  OA
ATOM     18 O    ILE D  13      13.933   2.401  52.650  1.00 56.94 LIG-0.65  OA
ENDBRANCH 11 16
ENDBRANCH 8 11
ENDBRANCH 6 7
BRANCH 6 19
ATOM     19  CB  HIS D  12      15.492   5.839  57.815  1.00 50.55 LIG 0.10  C 
BRANCH 19 20
ATOM     20  CG  HIS D  12      16.561   6.470  58.649  1.00 49.61 LIG 0.05  A 
ATOM     21 ND1  HIS D  12      17.899   6.564  58.465  1.00 49.92 LIG-0.25  NA
ATOM     22  CE1 HIS D  12      18.407   7.254  59.537  1.00 49.12 LIG 0.21  A 
ATOM     23  NE2 HIS D  12      17.415   7.593  60.340  1.00 48.62 LIG-0.36  N 
ATOM     24 HE2  HIS D  12      17.490   8.041  61.070  1.00 48.62 LIG 0.17  HD
ATOM     25  CD2 HIS D  12      16.290   7.128  59.829  1.00 48.49 LIG 0.12  A 
ENDBRANCH 19 20
ENDBRANCH 6 19
ENDBRANCH 4 6
ENDBRANCH 1 2
BRANCH 1 26
ATOM     26  CB  LEU D  11      15.907   1.972  62.075  1.00 47.69 LIG 0.04  C 
BRANCH 26 27
ATOM     27  CG  LEU D  11      16.251   0.753  62.940  1.00 48.05 LIG-0.02  C 
ATOM     28  CD1 LEU D  11      16.021  -0.529  62.153  1.00 46.53 LIG 0.01  C 
ATOM     29  CD2 LEU D  11      17.658   0.804  63.488  1.00 50.43 LIG 0.01  C 
ENDBRANCH 26 27
ENDBRANCH 1 26
BRANCH 1 30
ATOM     30  N   LEU D  11      17.676   3.494  61.387  1.00 47.51 LIG-0.35  N 
ATOM     31  C   LEU D  10      18.763   3.894  60.726  1.00 47.80 LIG 0.24  C 
ATOM     32 O    LEU D  10      19.129   3.410  59.645  1.00 47.07 LIG-0.27  OA
ATOM     33 H    LEU D  11      17.399   3.870  62.110  1.00 47.51 LIG 0.16  HD
BRANCH 31 34
ATOM     34  CA  LEU D  10      19.564   5.007  61.390  1.00 47.63 LIG 0.18  C 
BRANCH 34 35
ATOM     35  CB  LEU D  10      20.855   5.288  60.627  1.00 47.29 LIG 0.04  C 
BRANCH 35 36
ATOM     36  CG  LEU D  10      21.997   4.322  60.964  1.00 46.92 LIG-0.02  C 
ATOM     37  CD2 LEU D  10      23.284   5.051  61.159  1.00 45.50 LIG 0.01  C 
ATOM     38  CD1 LEU D  10      22.179   3.254  59.886  1.00 46.83 LIG 0.01  C 
ENDBRANCH 35 36
ENDBRANCH 34 35
BRANCH 34 39
ATOM     39  N   LEU D  10      19.817   4.673  62.781  1.00 47.82 LIG-0.35  N 
ATOM     40 H    LEU D  10      20.199   3.913  62.908  1.00 47.82 LIG 0.16  HD
ATOM     41  C   ASP D   9      19.468   5.510  63.750  1.00 48.63 LIG 0.25  C 
ATOM     42 O    ASP D   9      18.910   6.586  63.545  1.00 48.10 LIG-0.27  OA
BRANCH 41 43
ATOM     43  CA  ASP D   9      19.785   5.064  65.153  1.00 49.27 LIG 0.28  C 
BRANCH 43 44
ATOM     44  N   ASP D   9      20.305   6.243  65.893  1.00 49.86 LIG-0.07  N 
ATOM     45 H2   ASP D   9      20.915   6.660  65.397  1.00 49.86 LIG 0.28  HD
ATOM     46 H3   ASP D   9      19.635   6.802  66.070  1.00 49.86 LIG 0.28  HD
ATOM     47 H1   ASP D   9      20.677   5.976  66.656  1.00 49.86 LIG 0.28  HD
ENDBRANCH 43 44
BRANCH 43 48
ATOM     48  CB  ASP D   9      18.512   4.542  65.803  1.00 50.02 LIG 0.15  C 
BRANCH 48 49
ATOM     49  CG  ASP D   9      18.661   4.331  67.281  1.00 50.84 LIG 0.17  C 
ATOM     50 OD1  ASP D   9      19.806   4.312  67.763  1.00 53.44 LIG-0.65  OA
ATOM     51 OD2  ASP D   9      17.683   4.200  68.052  1.00 53.75 LIG-0.65  OA
ENDBRANCH 48 49
ENDBRANCH 43 48
ENDBRANCH 41 43
ENDBRANCH 34 39
ENDBRANCH 31 34
ENDBRANCH 1 30
TORSDOF 20
ENDMDL
MODEL 55
USER: ADFR SOLUTION from run 14
USER: SCORE 14.866767 LL:  -4.608 LR: -12.405 RR:   0.000 FEB:  -6.439
USER: RMSD 6.147044
USER: SEED 834019
USER: STATUS no improvement in best 14 clusters for 5 generations
USER: GENES 22
USER: genes 0 Translation |==|  0.48558 0.34598 0.45212
USER: genes 1 Rotation |==|  0.24696 0.41333 0.14018 0.72133
USER: genes 2 Torsion [N]-CA--C-[N] |==|  0.66465
USER: genes 3 Torsion [C]-N--CA-[CB] |==|  0.15556
USER: genes 4 Torsion [N]-CA--C-[N] |==|  0.53951
USER: genes 5 Torsion [C]-N--CA-[C] |==|  0.44310
USER: genes 6 Torsion [N]-CA--CB-[CG1] |==|  0.57437
USER: genes 7 Torsion [CA]-CB--CG1-[CD1] |==|  0.06956
USER: genes 8 Torsion [N]-CA--C-[OXT] |==|  0.20816
USER: genes 9 Torsion [N]-CA--CB-[CG] |==|  0.17018
USER: genes 10 Torsion [CA]-CB--CG-[ND1] |==|  0.85030
USER: genes 11 Torsion [C]-CA--CB-[CG] |==|  0.38897
USER: genes 12 Torsion [CA]-CB--CG-[CD2] |==|  0.13924
USER: genes 13 Torsion [C]-CA--N-[C] |==|  0.14373
USER: genes 14 Torsion [N]-C--CA-[N] |==|  0.76244
USER: genes 15 Torsion [C]-CA--CB-[CG] |==|  0.17080
USER: genes 16 Torsion [CA]-CB--CG-[CD2] |==|  0.60960
USER: genes 17 Torsion [C]-CA--N-[C] |==|  0.63980
USER: genes 18 Torsion [N]-C--CA-[N] |==|  0.19794
USER: genes 19 Torsion [C]-CA--N-[H2] |==|  0.52962
USER: genes 20 Torsion [C]-CA--CB-[CG] |==|  0.74188
USER: genes 21 Torsion [CA]-CB--CG-[OD1] |==|  0.58506
ROOT
ATOM      1  CA  LEU D  11      17.997   2.319  61.074  1.00 47.89 LIG 0.18  C 
ENDROOT
BRANCH 1 2
ATOM      2  C   LEU D  11      17.746   2.696  59.620  1.00 48.14 LIG 0.24  C 
ATOM      3 O    LEU D  11      18.674   2.819  58.832  1.00 47.13 LIG-0.27  OA
ATOM      4  N   HIS D  12      16.481   2.916  59.281  1.00 49.28 LIG-0.35  N 
ATOM      5 H    HIS D  12      15.812   2.827  59.814  1.00 49.28 LIG 0.16  HD
BRANCH 4 6
ATOM      6  CA  HIS D  12      16.135   3.341  57.928  1.00 50.49 LIG 0.18  C 
BRANCH 6 7
ATOM      7  C   HIS D  12      14.628   3.525  57.760  1.00 51.38 LIG 0.24  C 
ATOM      8  N   ILE D  13      14.223   3.618  56.503  1.00 53.16 LIG-0.34  N 
ATOM      9 H    ILE D  13      14.783   3.604  55.851  1.00 53.16 LIG 0.16  HD
ATOM     10 O    HIS D  12      13.882   3.570  58.726  1.00 51.57 LIG-0.27  OA
BRANCH 8 11
ATOM     11  CA  ILE D  13      12.834   3.751  56.035  1.00 55.12 LIG 0.19  C 
BRANCH 11 12
ATOM     12  CB  ILE D  13      11.857   4.347  57.112  1.00 55.01 LIG 0.01  C 
ATOM     13  CG2 ILE D  13      11.907   5.885  57.176  1.00 56.15 LIG 0.01  C 
BRANCH 12 14
ATOM     14  CG1 ILE D  13      10.427   3.861  56.851  1.00 55.50 LIG 0.00  C 
ATOM     15  CD1 ILE D  13      10.341   2.517  56.078  1.00 55.45 LIG 0.01  C 
ENDBRANCH 12 14
ENDBRANCH 11 12
BRANCH 11 16
ATOM     16  C   ILE D  13      12.578   4.311  54.632  1.00 55.63 LIG 0.20  C 
ATOM     17 OXT  ILE D  13      12.802   3.569  53.665  1.00 55.86 LIG-0.65  OA
ATOM     18 O    ILE D  13      12.139   5.451  54.469  1.00 56.94 LIG-0.65  OA
ENDBRANCH 11 16
ENDBRANCH 8 11
ENDBRANCH 6 7
BRANCH 6 19
ATOM     19  CB  HIS D  12      16.665   2.355  56.885  1.00 50.55 LIG 0.10  C 
BRANCH 19 20
ATOM     20  CG  HIS D  12      16.106   0.974  57.020  1.00 49.61 LIG 0.05  A 
ATOM     21 ND1  HIS D  12      16.063   0.127  58.075  1.00 49.92 LIG-0.25  NA
ATOM     22  CE1 HIS D  12      15.430  -1.014  57.651  1.00 49.12 LIG 0.21  A 
ATOM     23  NE2 HIS D  12      15.073  -0.865  56.389  1.00 48.62 LIG-0.36  N 
ATOM     24 HE2  HIS D  12      14.652  -1.445  55.914  1.00 48.62 LIG 0.17  HD
ATOM     25  CD2 HIS D  12      15.473   0.325  55.982  1.00 48.49 LIG 0.12  A 
ENDBRANCH 19 20
ENDBRANCH 6 19
ENDBRANCH 4 6
ENDBRANCH 1 2
BRANCH 1 26
ATOM     26  CB  LEU D  11      16.649   2.280  61.784  1.00 47.69 LIG 0.04  C 
BRANCH 26 27
ATOM     27  CG  LEU D  11      16.374   1.171  62.807  1.00 48.05 LIG-0.02  C 
ATOM     28  CD1 LEU D  11      16.128  -0.151  62.093  1.00 46.53 LIG 0.01  C 
ATOM     29  CD2 LEU D  11      17.475   1.034  63.831  1.00 50.43 LIG 0.01  C 
ENDBRANCH 26 27
ENDBRANCH 1 26
BRANCH 1 30
ATOM     30  N   LEU D  11      18.884   3.243  61.766  1.00 47.51 LIG-0.35  N 
ATOM     31  C   LEU D  10      18.690   4.563  61.776  1.00 47.80 LIG 0.24  C 
ATOM     32 O    LEU D  10      17.705   5.118  61.269  1.00 47.07 LIG-0.27  OA
ATOM     33 H    LEU D  11      19.542   2.860  62.165  1.00 47.51 LIG 0.16  HD
BRANCH 31 34
ATOM     34  CA  LEU D  10      19.779   5.381  62.458  1.00 47.63 LIG 0.18  C 
BRANCH 34 35
ATOM     35  CB  LEU D  10      21.164   4.819  62.153  1.00 47.29 LIG 0.04  C 
BRANCH 35 36
ATOM     36  CG  LEU D  10      21.526   4.834  60.663  1.00 46.92 LIG-0.02  C 
ATOM     37  CD2 LEU D  10      22.260   3.595  60.271  1.00 45.50 LIG 0.01  C 
ATOM     38  CD1 LEU D  10      22.362   6.057  60.291  1.00 46.83 LIG 0.01  C 
ENDBRANCH 35 36
ENDBRANCH 34 35
BRANCH 34 39
ATOM     39  N   LEU D  10      19.525   5.451  63.887  1.00 47.82 LIG-0.35  N 
ATOM     40 H    LEU D  10      19.375   4.694  64.266  1.00 47.82 LIG 0.16  HD
ATOM     41  C   ASP D   9      19.533   6.619  64.517  1.00 48.63 LIG 0.25  C 
ATOM     42 O    ASP D   9      19.735   7.691  63.951  1.00 48.10 LIG-0.27  OA
BRANCH 41 43
ATOM     43  CA  ASP D   9      19.265   6.572  65.998  1.00 49.27 LIG 0.28  C 
BRANCH 43 44
ATOM     44  N   ASP D   9      20.455   5.969  66.652  1.00 49.86 LIG-0.07  N 
ATOM     45 H2   ASP D   9      20.266   5.786  67.502  1.00 49.86 LIG 0.28  HD
ATOM     46 H3   ASP D   9      20.678   5.218  66.230  1.00 49.86 LIG 0.28  HD
ATOM     47 H1   ASP D   9      21.136   6.542  66.616  1.00 49.86 LIG 0.28  HD
ENDBRANCH 43 44
BRANCH 43 48
ATOM     48  CB  ASP D   9      19.036   7.990  66.502  1.00 50.02 LIG 0.15  C 
BRANCH 48 49
ATOM     49  CG  ASP D   9      20.293   8.634  67.009  1.00 50.84 LIG 0.17  C 
ATOM     50 OD1  ASP D   9      20.201   9.470  67.923  1.00 53.44 LIG-0.65  OA
ATOM     51 OD2  ASP D   9      21.430   8.347  66.571  1.00 53.75 LIG-0.65  OA
ENDBRANCH 48 49
ENDBRANCH 43 48
ENDBRANCH 41 43
ENDBRANCH 34 39
ENDBRANCH 31 34
ENDBRANCH 1 30
TORSDOF 20
ENDMDL
MODEL 56
USER: ADFR SOLUTION from run 85
USER: SCORE 15.792217 LL:  -5.819 LR: -12.413 RR:   0.000 FEB:  -6.447
USER: RMSD 9.999563
USER: SEED 84
USER: STATUS no improvement in best 12 clusters for 5 generations
USER: GENES 22
USER: genes 0 Translation |==|  0.44354 0.34525 0.43034
USER: genes 1 Rotation |==|  0.34680 0.23527 0.65165 0.86531
USER: genes 2 Torsion [N]-CA--C-[N] |==|  0.14346
USER: genes 3 Torsion [C]-N--CA-[CB] |==|  0.22758
USER: genes 4 Torsion [N]-CA--C-[N] |==|  0.90667
USER: genes 5 Torsion [C]-N--CA-[C] |==|  0.50209
USER: genes 6 Torsion [N]-CA--CB-[CG1] |==|  0.72091
USER: genes 7 Torsion [CA]-CB--CG1-[CD1] |==|  0.37986
USER: genes 8 Torsion [N]-CA--C-[OXT] |==|  0.85347
USER: genes 9 Torsion [N]-CA--CB-[CG] |==|  0.37498
USER: genes 10 Torsion [CA]-CB--CG-[ND1] |==|  0.84139
USER: genes 11 Torsion [C]-CA--CB-[CG] |==|  0.74045
USER: genes 12 Torsion [CA]-CB--CG-[CD2] |==|  0.49917
USER: genes 13 Torsion [C]-CA--N-[C] |==|  0.58889
USER: genes 14 Torsion [N]-C--CA-[N] |==|  0.75542
USER: genes 15 Torsion [C]-CA--CB-[CG] |==|  0.48027
USER: genes 16 Torsion [CA]-CB--CG-[CD2] |==|  0.56385
USER: genes 17 Torsion [C]-CA--N-[C] |==|  0.80733
USER: genes 18 Torsion [N]-C--CA-[N] |==|  0.92121
USER: genes 19 Torsion [C]-CA--N-[H2] |==|  0.54673
USER: genes 20 Torsion [C]-CA--CB-[CG] |==|  0.80005
USER: genes 21 Torsion [CA]-CB--CG-[OD1] |==|  0.86353
ROOT
ATOM      1  CA  LEU D  11      16.736   2.297  60.420  1.00 47.89 LIG 0.18  C 
ENDROOT
BRANCH 1 2
ATOM      2  C   LEU D  11      16.869   1.058  59.546  1.00 48.14 LIG 0.24  C 
ATOM      3 O    LEU D  11      17.668   0.174  59.823  1.00 47.13 LIG-0.27  OA
ATOM      4  N   HIS D  12      16.103   1.020  58.461  1.00 49.28 LIG-0.35  N 
ATOM      5 H    HIS D  12      15.528   1.624  58.251  1.00 49.28 LIG 0.16  HD
BRANCH 4 6
ATOM      6  CA  HIS D  12      16.194  -0.094  57.523  1.00 50.49 LIG 0.18  C 
BRANCH 6 7
ATOM      7  C   HIS D  12      15.754   0.310  56.118  1.00 51.38 LIG 0.24  C 
ATOM      8  N   ILE D  13      14.786   1.212  56.084  1.00 53.16 LIG-0.34  N 
ATOM      9 H    ILE D  13      14.427   1.510  56.806  1.00 53.16 LIG 0.16  HD
ATOM     10 O    HIS D  12      16.279  -0.171  55.125  1.00 51.57 LIG-0.27  OA
BRANCH 8 11
ATOM     11  CA  ILE D  13      14.195   1.822  54.881  1.00 55.12 LIG 0.19  C 
BRANCH 11 12
ATOM     12  CB  ILE D  13      13.884   0.792  53.736  1.00 55.01 LIG 0.01  C 
ATOM     13  CG2 ILE D  13      12.497   1.006  53.102  1.00 56.15 LIG 0.01  C 
BRANCH 12 14
ATOM     14  CG1 ILE D  13      14.982   0.845  52.669  1.00 55.50 LIG 0.00  C 
ATOM     15  CD1 ILE D  13      15.450  -0.547  52.165  1.00 55.45 LIG 0.01  C 
ENDBRANCH 12 14
ENDBRANCH 11 12
BRANCH 11 16
ATOM     16  C   ILE D  13      13.088   2.867  55.051  1.00 55.63 LIG 0.20  C 
ATOM     17 OXT  ILE D  13      12.110   2.564  55.749  1.00 55.86 LIG-0.65  OA
ATOM     18 O    ILE D  13      13.177   3.983  54.533  1.00 56.94 LIG-0.65  OA
ENDBRANCH 11 16
ENDBRANCH 8 11
ENDBRANCH 6 7
BRANCH 6 19
ATOM     19  CB  HIS D  12      15.377  -1.294  58.006  1.00 50.55 LIG 0.10  C 
BRANCH 19 20
ATOM     20  CG  HIS D  12      14.547  -1.929  56.936  1.00 49.61 LIG 0.05  A 
ATOM     21 ND1  HIS D  12      13.590  -1.418  56.126  1.00 49.92 LIG-0.25  NA
ATOM     22  CE1 HIS D  12      13.153  -2.440  55.321  1.00 49.12 LIG 0.21  A 
ATOM     23  NE2 HIS D  12      13.834  -3.534  55.607  1.00 48.62 LIG-0.36  N 
ATOM     24 HE2  HIS D  12      13.743  -4.299  55.223  1.00 48.62 LIG 0.17  HD
ATOM     25  CD2 HIS D  12      14.679  -3.254  56.582  1.00 48.49 LIG 0.12  A 
ENDBRANCH 19 20
ENDBRANCH 6 19
ENDBRANCH 4 6
ENDBRANCH 1 2
BRANCH 1 26
ATOM     26  CB  LEU D  11      17.557   2.065  61.684  1.00 47.69 LIG 0.04  C 
BRANCH 26 27
ATOM     27  CG  LEU D  11      16.870   1.489  62.928  1.00 48.05 LIG-0.02  C 
ATOM     28  CD1 LEU D  11      16.181   0.176  62.584  1.00 46.53 LIG 0.01  C 
ATOM     29  CD2 LEU D  11      17.818   1.312  64.090  1.00 50.43 LIG 0.01  C 
ENDBRANCH 26 27
ENDBRANCH 1 26
BRANCH 1 30
ATOM     30  N   LEU D  11      15.361   2.605  60.784  1.00 47.51 LIG-0.35  N 
ATOM     31  C   LEU D  10      14.923   3.851  60.971  1.00 47.80 LIG 0.24  C 
ATOM     32 O    LEU D  10      15.616   4.861  60.780  1.00 47.07 LIG-0.27  OA
ATOM     33 H    LEU D  11      14.860   1.912  60.867  1.00 47.51 LIG 0.16  HD
BRANCH 31 34
ATOM     34  CA  LEU D  10      13.484   3.976  61.454  1.00 47.63 LIG 0.18  C 
BRANCH 34 35
ATOM     35  CB  LEU D  10      13.130   2.855  62.427  1.00 47.29 LIG 0.04  C 
BRANCH 35 36
ATOM     36  CG  LEU D  10      11.755   3.015  63.085  1.00 46.92 LIG-0.02  C 
ATOM     37  CD2 LEU D  10      11.680   2.263  64.372  1.00 45.50 LIG 0.01  C 
ATOM     38  CD1 LEU D  10      10.624   2.558  62.165  1.00 46.83 LIG 0.01  C 
ENDBRANCH 35 36
ENDBRANCH 34 35
BRANCH 34 39
ATOM     39  N   LEU D  10      12.581   4.013  60.317  1.00 47.82 LIG-0.35  N 
ATOM     40 H    LEU D  10      12.085   3.316  60.225  1.00 47.82 LIG 0.16  HD
ATOM     41  C   ASP D   9      12.558   5.065  59.508  1.00 48.63 LIG 0.25  C 
ATOM     42 O    ASP D   9      13.287   6.043  59.651  1.00 48.10 LIG-0.27  OA
BRANCH 41 43
ATOM     43  CA  ASP D   9      11.577   4.998  58.366  1.00 49.27 LIG 0.28  C 
BRANCH 43 44
ATOM     44  N   ASP D   9      11.383   3.565  58.024  1.00 49.86 LIG-0.07  N 
ATOM     45 H2   ASP D   9      11.013   3.500  57.217  1.00 49.86 LIG 0.28  HD
ATOM     46 H3   ASP D   9      12.171   3.151  58.022  1.00 49.86 LIG 0.28  HD
ATOM     47 H1   ASP D   9      10.849   3.185  58.626  1.00 49.86 LIG 0.28  HD
ENDBRANCH 43 44
BRANCH 43 48
ATOM     48  CB  ASP D   9      10.263   5.626  58.809  1.00 50.02 LIG 0.15  C 
BRANCH 48 49
ATOM     49  CG  ASP D   9       9.515   4.772  59.790  1.00 50.84 LIG 0.17  C 
ATOM     50 OD1  ASP D   9       9.350   3.570  59.521  1.00 53.44 LIG-0.65  OA
ATOM     51 OD2  ASP D   9       9.073   5.210  60.876  1.00 53.75 LIG-0.65  OA
ENDBRANCH 48 49
ENDBRANCH 43 48
ENDBRANCH 41 43
ENDBRANCH 34 39
ENDBRANCH 31 34
ENDBRANCH 1 30
TORSDOF 20
ENDMDL
MODEL 57
USER: ADFR SOLUTION from run 15
USER: SCORE 15.132612 LL:  -4.558 LR: -12.374 RR:   0.000 FEB:  -6.408
USER: RMSD 5.927093
USER: SEED 704917
USER: STATUS no improvement in best 34 clusters for 5 generations
USER: GENES 22
USER: genes 0 Translation |==|  0.49111 0.36699 0.44205
USER: genes 1 Rotation |==|  0.23062 0.41867 0.15874 0.73316
USER: genes 2 Torsion [N]-CA--C-[N] |==|  0.74534
USER: genes 3 Torsion [C]-N--CA-[CB] |==|  0.82422
USER: genes 4 Torsion [N]-CA--C-[N] |==|  0.42344
USER: genes 5 Torsion [C]-N--CA-[C] |==|  0.51167
USER: genes 6 Torsion [N]-CA--CB-[CG1] |==|  0.73770
USER: genes 7 Torsion [CA]-CB--CG1-[CD1] |==|  0.36434
USER: genes 8 Torsion [N]-CA--C-[OXT] |==|  0.93091
USER: genes 9 Torsion [N]-CA--CB-[CG] |==|  0.57602
USER: genes 10 Torsion [CA]-CB--CG-[ND1] |==|  0.02130
USER: genes 11 Torsion [C]-CA--CB-[CG] |==|  0.27553
USER: genes 12 Torsion [CA]-CB--CG-[CD2] |==|  0.24444
USER: genes 13 Torsion [C]-CA--N-[C] |==|  0.45263
USER: genes 14 Torsion [N]-C--CA-[N] |==|  0.45000
USER: genes 15 Torsion [C]-CA--CB-[CG] |==|  0.22354
USER: genes 16 Torsion [CA]-CB--CG-[CD2] |==|  0.70350
USER: genes 17 Torsion [C]-CA--N-[C] |==|  0.78057
USER: genes 18 Torsion [N]-C--CA-[N] |==|  0.54227
USER: genes 19 Torsion [C]-CA--N-[H2] |==|  0.31866
USER: genes 20 Torsion [C]-CA--CB-[CG] |==|  0.77681
USER: genes 21 Torsion [CA]-CB--CG-[OD1] |==|  0.82481
ROOT
ATOM      1  CA  LEU D  11      18.163   2.950  60.772  1.00 47.89 LIG 0.18  C 
ENDROOT
BRANCH 1 2
ATOM      2  C   LEU D  11      17.748   3.307  59.351  1.00 48.14 LIG 0.24  C 
ATOM      3 O    LEU D  11      18.430   2.972  58.392  1.00 47.13 LIG-0.27  OA
ATOM      4  N   HIS D  12      16.640   4.029  59.227  1.00 49.28 LIG-0.35  N 
ATOM      5 H    HIS D  12      16.140   4.268  59.885  1.00 49.28 LIG 0.16  HD
BRANCH 4 6
ATOM      6  CA  HIS D  12      16.185   4.477  57.915  1.00 50.49 LIG 0.18  C 
BRANCH 6 7
ATOM      7  C   HIS D  12      15.901   3.302  56.982  1.00 51.38 LIG 0.24  C 
ATOM      8  N   ILE D  13      14.992   3.546  56.052  1.00 53.16 LIG-0.34  N 
ATOM      9 H    ILE D  13      14.584   4.302  56.013  1.00 53.16 LIG 0.16  HD
ATOM     10 O    HIS D  12      16.489   2.237  57.104  1.00 51.57 LIG-0.27  OA
BRANCH 8 11
ATOM     11  CA  ILE D  13      14.551   2.626  54.990  1.00 55.12 LIG 0.19  C 
BRANCH 11 12
ATOM     12  CB  ILE D  13      14.209   1.181  55.506  1.00 55.01 LIG 0.01  C 
ATOM     13  CG2 ILE D  13      12.981   0.572  54.804  1.00 56.15 LIG 0.01  C 
BRANCH 12 14
ATOM     14  CG1 ILE D  13      15.429   0.267  55.355  1.00 55.50 LIG 0.00  C 
ATOM     15  CD1 ILE D  13      15.776  -0.550  56.629  1.00 55.45 LIG 0.01  C 
ENDBRANCH 12 14
ENDBRANCH 11 12
BRANCH 11 16
ATOM     16  C   ILE D  13      13.552   3.130  53.944  1.00 55.63 LIG 0.20  C 
ATOM     17 OXT  ILE D  13      12.810   4.070  54.260  1.00 55.86 LIG-0.65  OA
ATOM     18 O    ILE D  13      13.506   2.635  52.815  1.00 56.94 LIG-0.65  OA
ENDBRANCH 11 16
ENDBRANCH 8 11
ENDBRANCH 6 7
BRANCH 6 19
ATOM     19  CB  HIS D  12      17.197   5.427  57.272  1.00 50.55 LIG 0.10  C 
BRANCH 19 20
ATOM     20  CG  HIS D  12      16.586   6.399  56.312  1.00 49.61 LIG 0.05  A 
ATOM     21 ND1  HIS D  12      15.293   6.671  56.018  1.00 49.92 LIG-0.25  NA
ATOM     22  CE1 HIS D  12      15.295   7.658  55.064  1.00 49.12 LIG 0.21  A 
ATOM     23  NE2 HIS D  12      16.543   7.997  54.798  1.00 48.62 LIG-0.36  N 
ATOM     24 HE2  HIS D  12      16.792   8.603  54.240  1.00 48.62 LIG 0.17  HD
ATOM     25  CD2 HIS D  12      17.342   7.249  55.535  1.00 48.49 LIG 0.12  A 
ENDBRANCH 19 20
ENDBRANCH 6 19
ENDBRANCH 4 6
ENDBRANCH 1 2
BRANCH 1 26
ATOM     26  CB  LEU D  11      16.898   2.853  61.616  1.00 47.69 LIG 0.04  C 
BRANCH 26 27
ATOM     27  CG  LEU D  11      16.295   1.473  61.908  1.00 48.05 LIG-0.02  C 
ATOM     28  CD1 LEU D  11      16.456   0.565  60.698  1.00 46.53 LIG 0.01  C 
ATOM     29  CD2 LEU D  11      16.876   0.832  63.145  1.00 50.43 LIG 0.01  C 
ENDBRANCH 26 27
ENDBRANCH 1 26
BRANCH 1 30
ATOM     30  N   LEU D  11      19.074   3.915  61.369  1.00 47.51 LIG-0.35  N 
ATOM     31  C   LEU D  10      19.298   3.982  62.682  1.00 47.80 LIG 0.24  C 
ATOM     32 O    LEU D  10      18.819   3.187  63.504  1.00 47.07 LIG-0.27  OA
ATOM     33 H    LEU D  11      19.451   4.436  60.799  1.00 47.51 LIG 0.16  HD
BRANCH 31 34
ATOM     34  CA  LEU D  10      20.196   5.125  63.138  1.00 47.63 LIG 0.18  C 
BRANCH 34 35
ATOM     35  CB  LEU D  10      21.654   4.860  62.773  1.00 47.29 LIG 0.04  C 
BRANCH 35 36
ATOM     36  CG  LEU D  10      21.998   5.182  61.315  1.00 46.92 LIG-0.02  C 
ATOM     37  CD2 LEU D  10      22.184   3.936  60.514  1.00 45.50 LIG 0.01  C 
ATOM     38  CD1 LEU D  10      23.250   6.049  61.201  1.00 46.83 LIG 0.01  C 
ENDBRANCH 35 36
ENDBRANCH 34 35
BRANCH 34 39
ATOM     39  N   LEU D  10      20.026   5.351  64.563  1.00 47.82 LIG-0.35  N 
ATOM     40 H    LEU D  10      20.645   5.019  65.059  1.00 47.82 LIG 0.16  HD
ATOM     41  C   ASP D   9      18.978   6.026  65.019  1.00 48.63 LIG 0.25  C 
ATOM     42 O    ASP D   9      18.098   6.479  64.291  1.00 48.10 LIG-0.27  OA
BRANCH 41 43
ATOM     43  CA  ASP D   9      18.908   6.206  66.513  1.00 49.27 LIG 0.28  C 
BRANCH 43 44
ATOM     44  N   ASP D   9      17.526   6.636  66.849  1.00 49.86 LIG-0.07  N 
ATOM     45 H2   ASP D   9      17.129   6.004  67.334  1.00 49.86 LIG 0.28  HD
ATOM     46 H3   ASP D   9      17.556   7.393  67.315  1.00 49.86 LIG 0.28  HD
ATOM     47 H1   ASP D   9      17.065   6.767  66.099  1.00 49.86 LIG 0.28  HD
ENDBRANCH 43 44
BRANCH 43 48
ATOM     48  CB  ASP D   9      19.236   4.880  67.184  1.00 50.02 LIG 0.15  C 
BRANCH 48 49
ATOM     49  CG  ASP D   9      18.067   3.940  67.210  1.00 50.84 LIG 0.17  C 
ATOM     50 OD1  ASP D   9      17.053   4.274  67.846  1.00 53.44 LIG-0.65  OA
ATOM     51 OD2  ASP D   9      18.057   2.848  66.598  1.00 53.75 LIG-0.65  OA
ENDBRANCH 48 49
ENDBRANCH 43 48
ENDBRANCH 41 43
ENDBRANCH 34 39
ENDBRANCH 31 34
ENDBRANCH 1 30
TORSDOF 20
ENDMDL
MODEL 58
USER: ADFR SOLUTION from run 120
USER: SCORE 16.031230 LL:  -5.771 LR: -12.355 RR:   0.000 FEB:  -6.389
USER: RMSD 5.928017
USER: SEED 119
USER: STATUS no improvement in best 18 clusters for 5 generations
USER: GENES 22
USER: genes 0 Translation |==|  0.48655 0.36192 0.38286
USER: genes 1 Rotation |==|  0.30656 0.49098 0.22783 0.87205
USER: genes 2 Torsion [N]-CA--C-[N] |==|  0.78534
USER: genes 3 Torsion [C]-N--CA-[CB] |==|  0.79443
USER: genes 4 Torsion [N]-CA--C-[N] |==|  0.09288
USER: genes 5 Torsion [C]-N--CA-[C] |==|  0.84867
USER: genes 6 Torsion [N]-CA--CB-[CG1] |==|  0.91200
USER: genes 7 Torsion [CA]-CB--CG1-[CD1] |==|  0.33189
USER: genes 8 Torsion [N]-CA--C-[OXT] |==|  0.15661
USER: genes 9 Torsion [N]-CA--CB-[CG] |==|  0.95694
USER: genes 10 Torsion [CA]-CB--CG-[ND1] |==|  0.26741
USER: genes 11 Torsion [C]-CA--CB-[CG] |==|  0.62074
USER: genes 12 Torsion [CA]-CB--CG-[CD2] |==|  0.70833
USER: genes 13 Torsion [C]-CA--N-[C] |==|  0.63607
USER: genes 14 Torsion [N]-C--CA-[N] |==|  0.73098
USER: genes 15 Torsion [C]-CA--CB-[CG] |==|  0.50420
USER: genes 16 Torsion [CA]-CB--CG-[CD2] |==|  0.63668
USER: genes 17 Torsion [C]-CA--N-[C] |==|  0.71644
USER: genes 18 Torsion [N]-C--CA-[N] |==|  0.92782
USER: genes 19 Torsion [C]-CA--N-[H2] |==|  0.67199
USER: genes 20 Torsion [C]-CA--CB-[CG] |==|  0.76258
USER: genes 21 Torsion [CA]-CB--CG-[OD1] |==|  0.37180
ROOT
ATOM      1  CA  LEU D  11      18.026   2.797  58.996  1.00 47.89 LIG 0.18  C 
ENDROOT
BRANCH 1 2
ATOM      2  C   LEU D  11      17.145   3.624  58.069  1.00 48.14 LIG 0.24  C 
ATOM      3 O    LEU D  11      17.529   3.940  56.951  1.00 47.13 LIG-0.27  OA
ATOM      4  N   HIS D  12      15.972   4.006  58.561  1.00 49.28 LIG-0.35  N 
ATOM      5 H    HIS D  12      15.677   3.788  59.340  1.00 49.28 LIG 0.16  HD
BRANCH 4 6
ATOM      6  CA  HIS D  12      15.075   4.851  57.780  1.00 50.49 LIG 0.18  C 
BRANCH 6 7
ATOM      7  C   HIS D  12      14.873   4.309  56.366  1.00 51.38 LIG 0.24  C 
ATOM      8  N   ILE D  13      14.893   2.989  56.277  1.00 53.16 LIG-0.34  N 
ATOM      9 H    ILE D  13      15.040   2.496  56.966  1.00 53.16 LIG 0.16  HD
ATOM     10 O    HIS D  12      14.701   5.059  55.417  1.00 51.57 LIG-0.27  OA
BRANCH 8 11
ATOM     11  CA  ILE D  13      14.680   2.187  55.060  1.00 55.12 LIG 0.19  C 
BRANCH 11 12
ATOM     12  CB  ILE D  13      15.031   0.665  55.236  1.00 55.01 LIG 0.01  C 
ATOM     13  CG2 ILE D  13      15.376  -0.025  53.903  1.00 56.15 LIG 0.01  C 
BRANCH 12 14
ATOM     14  CG1 ILE D  13      16.173   0.502  56.244  1.00 55.50 LIG 0.00  C 
ATOM     15  CD1 ILE D  13      15.805  -0.341  57.495  1.00 55.45 LIG 0.01  C 
ENDBRANCH 12 14
ENDBRANCH 11 12
BRANCH 11 16
ATOM     16  C   ILE D  13      13.403   2.408  54.244  1.00 55.63 LIG 0.20  C 
ATOM     17 OXT  ILE D  13      13.170   3.554  53.835  1.00 55.86 LIG-0.65  OA
ATOM     18 O    ILE D  13      12.645   1.472  53.979  1.00 56.94 LIG-0.65  OA
ENDBRANCH 11 16
ENDBRANCH 8 11
ENDBRANCH 6 7
BRANCH 6 19
ATOM     19  CB  HIS D  12      15.583   6.294  57.723  1.00 50.55 LIG 0.10  C 
BRANCH 19 20
ATOM     20  CG  HIS D  12      16.632   6.605  58.742  1.00 49.61 LIG 0.05  A 
ATOM     21 ND1  HIS D  12      17.983   6.617  58.658  1.00 49.92 LIG-0.25  NA
ATOM     22  CE1 HIS D  12      18.462   6.978  59.892  1.00 49.12 LIG 0.21  A 
ATOM     23  NE2 HIS D  12      17.442   7.205  60.700  1.00 48.62 LIG-0.36  N 
ATOM     24 HE2  HIS D  12      17.496   7.456  61.521  1.00 48.62 LIG 0.17  HD
ATOM     25  CD2 HIS D  12      16.326   6.982  60.031  1.00 48.49 LIG 0.12  A 
ENDBRANCH 19 20
ENDBRANCH 6 19
ENDBRANCH 4 6
ENDBRANCH 1 2
BRANCH 1 26
ATOM     26  CB  LEU D  11      17.143   1.753  59.669  1.00 47.69 LIG 0.04  C 
BRANCH 26 27
ATOM     27  CG  LEU D  11      17.309   1.487  61.171  1.00 48.05 LIG-0.02  C 
ATOM     28  CD1 LEU D  11      15.953   1.522  61.861  1.00 46.53 LIG 0.01  C 
ATOM     29  CD2 LEU D  11      18.027   0.190  61.459  1.00 50.43 LIG 0.01  C 
ENDBRANCH 26 27
ENDBRANCH 1 26
BRANCH 1 30
ATOM     30  N   LEU D  11      18.702   3.590  60.012  1.00 47.51 LIG-0.35  N 
ATOM     31  C   LEU D  10      20.009   3.488  60.260  1.00 47.80 LIG 0.24  C 
ATOM     32 O    LEU D  10      20.780   2.774  59.604  1.00 47.07 LIG-0.27  OA
ATOM     33 H    LEU D  11      18.182   4.128  60.437  1.00 47.51 LIG 0.16  HD
BRANCH 31 34
ATOM     34  CA  LEU D  10      20.521   4.315  61.432  1.00 47.63 LIG 0.18  C 
BRANCH 34 35
ATOM     35  CB  LEU D  10      19.424   4.542  62.468  1.00 47.29 LIG 0.04  C 
BRANCH 35 36
ATOM     36  CG  LEU D  10      19.864   5.400  63.660  1.00 46.92 LIG-0.02  C 
ATOM     37  CD2 LEU D  10      19.494   4.758  64.956  1.00 45.50 LIG 0.01  C 
ATOM     38  CD1 LEU D  10      19.268   6.805  63.603  1.00 46.83 LIG 0.01  C 
ENDBRANCH 35 36
ENDBRANCH 34 35
BRANCH 34 39
ATOM     39  N   LEU D  10      21.078   5.567  60.950  1.00 47.82 LIG-0.35  N 
ATOM     40 H    LEU D  10      20.497   6.167  60.743  1.00 47.82 LIG 0.16  HD
ATOM     41  C   ASP D   9      22.392   5.728  60.853  1.00 48.63 LIG 0.25  C 
ATOM     42 O    ASP D   9      23.203   4.851  61.141  1.00 48.10 LIG-0.27  OA
BRANCH 41 43
ATOM     43  CA  ASP D   9      22.858   7.068  60.348  1.00 49.27 LIG 0.28  C 
BRANCH 43 44
ATOM     44  N   ASP D   9      21.770   7.636  59.510  1.00 49.86 LIG-0.07  N 
ATOM     45 H2   ASP D   9      22.063   7.744  58.676  1.00 49.86 LIG 0.28  HD
ATOM     46 H3   ASP D   9      21.074   7.080  59.510  1.00 49.86 LIG 0.28  HD
ATOM     47 H1   ASP D   9      21.520   8.423  59.840  1.00 49.86 LIG 0.28  HD
ENDBRANCH 43 44
BRANCH 43 48
ATOM     48  CB  ASP D   9      23.143   7.971  61.540  1.00 50.02 LIG 0.15  C 
BRANCH 48 49
ATOM     49  CG  ASP D   9      21.917   8.678  62.037  1.00 50.84 LIG 0.17  C 
ATOM     50 OD1  ASP D   9      21.699   8.694  63.261  1.00 53.44 LIG-0.65  OA
ATOM     51 OD2  ASP D   9      21.119   9.274  61.279  1.00 53.75 LIG-0.65  OA
ENDBRANCH 48 49
ENDBRANCH 43 48
ENDBRANCH 41 43
ENDBRANCH 34 39
ENDBRANCH 31 34
ENDBRANCH 1 30
TORSDOF 20
ENDMDL
MODEL 59
USER: ADFR SOLUTION from run 121
USER: SCORE 15.851114 LL:  -4.740 LR: -12.353 RR:   0.000 FEB:  -6.387
USER: RMSD 6.112401
USER: SEED 120
USER: STATUS no improvement in best 11 clusters for 5 generations
USER: GENES 22
USER: genes 0 Translation |==|  0.46853 0.45765 0.44285
USER: genes 1 Rotation |==|  0.73663 0.63002 0.88803 0.66290
USER: genes 2 Torsion [N]-CA--C-[N] |==|  0.26192
USER: genes 3 Torsion [C]-N--CA-[CB] |==|  0.46060
USER: genes 4 Torsion [N]-CA--C-[N] |==|  0.42824
USER: genes 5 Torsion [C]-N--CA-[C] |==|  0.05287
USER: genes 6 Torsion [N]-CA--CB-[CG1] |==|  0.94654
USER: genes 7 Torsion [CA]-CB--CG1-[CD1] |==|  0.23872
USER: genes 8 Torsion [N]-CA--C-[OXT] |==|  0.76841
USER: genes 9 Torsion [N]-CA--CB-[CG] |==|  0.97700
USER: genes 10 Torsion [CA]-CB--CG-[ND1] |==|  0.86190
USER: genes 11 Torsion [C]-CA--CB-[CG] |==|  0.55827
USER: genes 12 Torsion [CA]-CB--CG-[CD2] |==|  0.22083
USER: genes 13 Torsion [C]-CA--N-[C] |==|  0.76885
USER: genes 14 Torsion [N]-C--CA-[N] |==|  0.92011
USER: genes 15 Torsion [C]-CA--CB-[CG] |==|  0.15300
USER: genes 16 Torsion [CA]-CB--CG-[CD2] |==|  0.60331
USER: genes 17 Torsion [C]-CA--N-[C] |==|  0.82261
USER: genes 18 Torsion [N]-C--CA-[N] |==|  0.79102
USER: genes 19 Torsion [C]-CA--N-[H2] |==|  0.60996
USER: genes 20 Torsion [C]-CA--CB-[CG] |==|  0.53271
USER: genes 21 Torsion [CA]-CB--CG-[OD1] |==|  0.11167
ROOT
ATOM      1  CA  LEU D  11      17.486   5.669  60.795  1.00 47.89 LIG 0.18  C 
ENDROOT
BRANCH 1 2
ATOM      2  C   LEU D  11      17.548   4.624  59.689  1.00 48.14 LIG 0.24  C 
ATOM      3 O    LEU D  11      17.908   4.925  58.559  1.00 47.13 LIG-0.27  OA
ATOM      4  N   HIS D  12      17.155   3.399  60.017  1.00 49.28 LIG-0.35  N 
ATOM      5 H    HIS D  12      16.907   3.162  60.806  1.00 49.28 LIG 0.16  HD
BRANCH 4 6
ATOM      6  CA  HIS D  12      17.119   2.336  59.017  1.00 50.49 LIG 0.18  C 
BRANCH 6 7
ATOM      7  C   HIS D  12      15.997   2.550  58.003  1.00 51.38 LIG 0.24  C 
ATOM      8  N   ILE D  13      16.210   1.992  56.823  1.00 53.16 LIG-0.34  N 
ATOM      9 H    ILE D  13      16.941   1.573  56.652  1.00 53.16 LIG 0.16  HD
ATOM     10 O    HIS D  12      14.993   3.184  58.291  1.00 51.57 LIG-0.27  OA
BRANCH 8 11
ATOM     11  CA  ILE D  13      15.292   1.990  55.672  1.00 55.12 LIG 0.19  C 
BRANCH 11 12
ATOM     12  CB  ILE D  13      14.811   0.555  55.247  1.00 55.01 LIG 0.01  C 
ATOM     13  CG2 ILE D  13      14.663   0.403  53.722  1.00 56.15 LIG 0.01  C 
BRANCH 12 14
ATOM     14  CG1 ILE D  13      15.762  -0.506  55.809  1.00 55.50 LIG 0.00  C 
ATOM     15  CD1 ILE D  13      15.430  -0.959  57.256  1.00 55.45 LIG 0.01  C 
ENDBRANCH 12 14
ENDBRANCH 11 12
BRANCH 11 16
ATOM     16  C   ILE D  13      14.167   3.028  55.623  1.00 55.63 LIG 0.20  C 
ATOM     17 OXT  ILE D  13      13.123   2.778  56.241  1.00 55.86 LIG-0.65  OA
ATOM     18 O    ILE D  13      14.304   4.090  55.010  1.00 56.94 LIG-0.65  OA
ENDBRANCH 11 16
ENDBRANCH 8 11
ENDBRANCH 6 7
BRANCH 6 19
ATOM     19  CB  HIS D  12      16.979   0.961  59.674  1.00 50.55 LIG 0.10  C 
BRANCH 19 20
ATOM     20  CG  HIS D  12      17.109   0.989  61.164  1.00 49.61 LIG 0.05  A 
ATOM     21 ND1  HIS D  12      18.042   1.547  61.970  1.00 49.92 LIG-0.25  NA
ATOM     22  CE1 HIS D  12      17.675   1.274  63.264  1.00 49.12 LIG 0.21  A 
ATOM     23  NE2 HIS D  12      16.544   0.594  63.256  1.00 48.62 LIG-0.36  N 
ATOM     24 HE2  HIS D  12      16.116   0.321  63.950  1.00 48.62 LIG 0.17  HD
ATOM     25  CD2 HIS D  12      16.183   0.404  62.000  1.00 48.49 LIG 0.12  A 
ENDBRANCH 19 20
ENDBRANCH 6 19
ENDBRANCH 4 6
ENDBRANCH 1 2
BRANCH 1 26
ATOM     26  CB  LEU D  11      17.087   6.996  60.160  1.00 47.69 LIG 0.04  C 
BRANCH 26 27
ATOM     27  CG  LEU D  11      17.404   8.305  60.895  1.00 48.05 LIG-0.02  C 
ATOM     28  CD1 LEU D  11      17.037   8.180  62.367  1.00 46.53 LIG 0.01  C 
ATOM     29  CD2 LEU D  11      18.843   8.733  60.733  1.00 50.43 LIG 0.01  C 
ENDBRANCH 26 27
ENDBRANCH 1 26
BRANCH 1 30
ATOM     30  N   LEU D  11      18.743   5.832  61.511  1.00 47.51 LIG-0.35  N 
ATOM     31  C   LEU D  10      19.113   5.035  62.514  1.00 47.80 LIG 0.24  C 
ATOM     32 O    LEU D  10      18.467   4.042  62.880  1.00 47.07 LIG-0.27  OA
ATOM     33 H    LEU D  11      19.222   6.487  61.227  1.00 47.51 LIG 0.16  HD
BRANCH 31 34
ATOM     34  CA  LEU D  10      20.408   5.421  63.216  1.00 47.63 LIG 0.18  C 
BRANCH 34 35
ATOM     35  CB  LEU D  10      20.132   6.253  64.465  1.00 47.29 LIG 0.04  C 
BRANCH 35 36
ATOM     36  CG  LEU D  10      19.178   5.581  65.459  1.00 46.92 LIG-0.02  C 
ATOM     37  CD2 LEU D  10      18.272   6.579  66.099  1.00 45.50 LIG 0.01  C 
ATOM     38  CD1 LEU D  10      19.930   4.812  66.544  1.00 46.83 LIG 0.01  C 
ENDBRANCH 35 36
ENDBRANCH 34 35
BRANCH 34 39
ATOM     39  N   LEU D  10      21.288   6.112  62.288  1.00 47.82 LIG-0.35  N 
ATOM     40 H    LEU D  10      21.459   6.930  62.492  1.00 47.82 LIG 0.16  HD
ATOM     41  C   ASP D   9      21.767   5.487  61.220  1.00 48.63 LIG 0.25  C 
ATOM     42 O    ASP D   9      21.496   4.321  60.942  1.00 48.10 LIG-0.27  OA
BRANCH 41 43
ATOM     43  CA  ASP D   9      22.674   6.298  60.332  1.00 49.27 LIG 0.28  C 
BRANCH 43 44
ATOM     44  N   ASP D   9      21.823   7.238  59.558  1.00 49.86 LIG-0.07  N 
ATOM     45 H2   ASP D   9      22.127   7.296  58.724  1.00 49.86 LIG 0.28  HD
ATOM     46 H3   ASP D   9      20.984   6.940  59.548  1.00 49.86 LIG 0.28  HD
ATOM     47 H1   ASP D   9      21.846   8.043  59.938  1.00 49.86 LIG 0.28  HD
ENDBRANCH 43 44
BRANCH 43 48
ATOM     48  CB  ASP D   9      23.661   7.062  61.204  1.00 50.02 LIG 0.15  C 
BRANCH 48 49
ATOM     49  CG  ASP D   9      24.418   8.108  60.441  1.00 50.84 LIG 0.17  C 
ATOM     50 OD1  ASP D   9      23.805   8.783  59.596  1.00 53.44 LIG-0.65  OA
ATOM     51 OD2  ASP D   9      25.631   8.349  60.635  1.00 53.75 LIG-0.65  OA
ENDBRANCH 48 49
ENDBRANCH 43 48
ENDBRANCH 41 43
ENDBRANCH 34 39
ENDBRANCH 31 34
ENDBRANCH 1 30
TORSDOF 20
ENDMDL
MODEL 60
USER: ADFR SOLUTION from run 69
USER: SCORE 15.957198 LL:  -4.464 LR: -12.340 RR:   0.000 FEB:  -6.374
USER: RMSD 10.051107
USER: SEED 68
USER: STATUS searching
USER: GENES 22
USER: genes 0 Translation |==|  0.45781 0.36779 0.46780
USER: genes 1 Rotation |==|  0.70569 0.19784 0.17285 0.59676
USER: genes 2 Torsion [N]-CA--C-[N] |==|  0.16854
USER: genes 3 Torsion [C]-N--CA-[CB] |==|  0.14612
USER: genes 4 Torsion [N]-CA--C-[N] |==|  0.12068
USER: genes 5 Torsion [C]-N--CA-[C] |==|  0.50912
USER: genes 6 Torsion [N]-CA--CB-[CG1] |==|  0.68502
USER: genes 7 Torsion [CA]-CB--CG1-[CD1] |==|  0.56050
USER: genes 8 Torsion [N]-CA--C-[OXT] |==|  0.94360
USER: genes 9 Torsion [N]-CA--CB-[CG] |==|  0.70473
USER: genes 10 Torsion [CA]-CB--CG-[ND1] |==|  0.48591
USER: genes 11 Torsion [C]-CA--CB-[CG] |==|  0.34505
USER: genes 12 Torsion [CA]-CB--CG-[CD2] |==|  0.36929
USER: genes 13 Torsion [C]-CA--N-[C] |==|  0.57222
USER: genes 14 Torsion [N]-C--CA-[N] |==|  0.28220
USER: genes 15 Torsion [C]-CA--CB-[CG] |==|  0.80999
USER: genes 16 Torsion [CA]-CB--CG-[CD2] |==|  0.72011
USER: genes 17 Torsion [C]-CA--N-[C] |==|  0.76429
USER: genes 18 Torsion [N]-C--CA-[N] |==|  0.33527
USER: genes 19 Torsion [C]-CA--N-[H2] |==|  0.55260
USER: genes 20 Torsion [C]-CA--CB-[CG] |==|  0.64945
USER: genes 21 Torsion [CA]-CB--CG-[OD1] |==|  0.64750
ROOT
ATOM      1  CA  LEU D  11      17.164   2.974  61.544  1.00 47.89 LIG 0.18  C 
ENDROOT
BRANCH 1 2
ATOM      2  C   LEU D  11      18.423   3.754  61.899  1.00 48.14 LIG 0.24  C 
ATOM      3 O    LEU D  11      19.385   3.774  61.143  1.00 47.13 LIG-0.27  OA
ATOM      4  N   HIS D  12      18.422   4.365  63.078  1.00 49.28 LIG-0.35  N 
ATOM      5 H    HIS D  12      17.755   4.373  63.621  1.00 49.28 LIG 0.16  HD
BRANCH 4 6
ATOM      6  CA  HIS D  12      19.600   5.090  63.542  1.00 50.49 LIG 0.18  C 
BRANCH 6 7
ATOM      7  C   HIS D  12      19.347   5.790  64.875  1.00 51.38 LIG 0.24  C 
ATOM      8  N   ILE D  13      18.694   5.059  65.764  1.00 53.16 LIG-0.34  N 
ATOM      9 H    ILE D  13      18.417   4.267  65.575  1.00 53.16 LIG 0.16  HD
ATOM     10 O    HIS D  12      19.735   6.931  65.078  1.00 51.57 LIG-0.27  OA
BRANCH 8 11
ATOM     11  CA  ILE D  13      18.351   5.449  67.142  1.00 55.12 LIG 0.19  C 
BRANCH 11 12
ATOM     12  CB  ILE D  13      17.725   6.886  67.257  1.00 55.01 LIG 0.01  C 
ATOM     13  CG2 ILE D  13      16.332   6.879  67.912  1.00 56.15 LIG 0.01  C 
BRANCH 12 14
ATOM     14  CG1 ILE D  13      18.678   7.815  68.017  1.00 55.50 LIG 0.00  C 
ATOM     15  CD1 ILE D  13      17.991   9.055  68.650  1.00 55.45 LIG 0.01  C 
ENDBRANCH 12 14
ENDBRANCH 11 12
BRANCH 11 16
ATOM     16  C   ILE D  13      17.654   4.428  68.047  1.00 55.63 LIG 0.20  C 
ATOM     17 OXT  ILE D  13      17.069   3.481  67.504  1.00 55.86 LIG-0.65  OA
ATOM     18 O    ILE D  13      17.696   4.530  69.275  1.00 56.94 LIG-0.65  OA
ENDBRANCH 11 16
ENDBRANCH 8 11
ENDBRANCH 6 7
BRANCH 6 19
ATOM     19  CB  HIS D  12      20.076   6.102  62.498  1.00 50.55 LIG 0.10  C 
BRANCH 19 20
ATOM     20  CG  HIS D  12      21.324   5.692  61.784  1.00 49.61 LIG 0.05  A 
ATOM     21 ND1  HIS D  12      21.992   6.260  60.752  1.00 49.92 LIG-0.25  NA
ATOM     22  CE1 HIS D  12      23.082   5.469  60.491  1.00 49.12 LIG 0.21  A 
ATOM     23  NE2 HIS D  12      23.100   4.464  61.347  1.00 48.62 LIG-0.36  N 
ATOM     24 HE2  HIS D  12      23.696   3.845  61.385  1.00 48.62 LIG 0.17  HD
ATOM     25  CD2 HIS D  12      22.047   4.572  62.136  1.00 48.49 LIG 0.12  A 
ENDBRANCH 19 20
ENDBRANCH 6 19
ENDBRANCH 4 6
ENDBRANCH 1 2
BRANCH 1 26
ATOM     26  CB  LEU D  11      17.392   2.314  60.189  1.00 47.69 LIG 0.04  C 
BRANCH 26 27
ATOM     27  CG  LEU D  11      17.227   0.795  60.057  1.00 48.05 LIG-0.02  C 
ATOM     28  CD1 LEU D  11      16.639   0.220  61.338  1.00 46.53 LIG 0.01  C 
ATOM     29  CD2 LEU D  11      16.398   0.399  58.859  1.00 50.43 LIG 0.01  C 
ENDBRANCH 26 27
ENDBRANCH 1 26
BRANCH 1 30
ATOM     30  N   LEU D  11      15.968   3.800  61.487  1.00 47.51 LIG-0.35  N 
ATOM     31  C   LEU D  10      14.743   3.316  61.697  1.00 47.80 LIG 0.24  C 
ATOM     32 O    LEU D  10      14.513   2.145  62.033  1.00 47.07 LIG-0.27  OA
ATOM     33 H    LEU D  11      16.124   4.626  61.306  1.00 47.51 LIG 0.16  HD
BRANCH 31 34
ATOM     34  CA  LEU D  10      13.602   4.303  61.489  1.00 47.63 LIG 0.18  C 
BRANCH 34 35
ATOM     35  CB  LEU D  10      12.597   4.235  62.635  1.00 47.29 LIG 0.04  C 
BRANCH 35 36
ATOM     36  CG  LEU D  10      11.799   2.927  62.684  1.00 46.92 LIG-0.02  C 
ATOM     37  CD2 LEU D  10      10.434   3.103  62.106  1.00 45.50 LIG 0.01  C 
ATOM     38  CD1 LEU D  10      11.680   2.382  64.106  1.00 46.83 LIG 0.01  C 
ENDBRANCH 35 36
ENDBRANCH 34 35
BRANCH 34 39
ATOM     39  N   LEU D  10      12.972   4.068  60.201  1.00 47.82 LIG-0.35  N 
ATOM     40 H    LEU D  10      12.276   3.562  60.224  1.00 47.82 LIG 0.16  HD
ATOM     41  C   ASP D   9      13.468   4.614  59.097  1.00 48.63 LIG 0.25  C 
ATOM     42 O    ASP D   9      14.472   5.322  59.087  1.00 48.10 LIG-0.27  OA
BRANCH 41 43
ATOM     43  CA  ASP D   9      12.730   4.308  57.820  1.00 49.27 LIG 0.28  C 
BRANCH 43 44
ATOM     44  N   ASP D   9      12.281   5.600  57.240  1.00 49.86 LIG-0.07  N 
ATOM     45 H2   ASP D   9      11.626   5.452  56.655  1.00 49.86 LIG 0.28  HD
ATOM     46 H3   ASP D   9      11.984   6.131  57.890  1.00 49.86 LIG 0.28  HD
ATOM     47 H1   ASP D   9      12.964   5.993  56.826  1.00 49.86 LIG 0.28  HD
ENDBRANCH 43 44
BRANCH 43 48
ATOM     48  CB  ASP D   9      13.674   3.590  56.866  1.00 50.02 LIG 0.15  C 
BRANCH 48 49
ATOM     49  CG  ASP D   9      13.759   4.257  55.525  1.00 50.84 LIG 0.17  C 
ATOM     50 OD1  ASP D   9      13.555   3.569  54.510  1.00 53.44 LIG-0.65  OA
ATOM     51 OD2  ASP D   9      13.999   5.477  55.384  1.00 53.75 LIG-0.65  OA
ENDBRANCH 48 49
ENDBRANCH 43 48
ENDBRANCH 41 43
ENDBRANCH 34 39
ENDBRANCH 31 34
ENDBRANCH 1 30
TORSDOF 20
ENDMDL
MODEL 61
USER: ADFR SOLUTION from run 94
USER: SCORE 15.721545 LL:  -4.741 LR: -12.344 RR:   0.000 FEB:  -6.378
USER: RMSD 5.194673
USER: SEED 93
USER: STATUS no improvement in best 11 clusters for 5 generations
USER: GENES 22
USER: genes 0 Translation |==|  0.50450 0.38498 0.44181
USER: genes 1 Rotation |==|  0.21637 0.38889 0.22334 0.78402
USER: genes 2 Torsion [N]-CA--C-[N] |==|  0.86138
USER: genes 3 Torsion [C]-N--CA-[CB] |==|  0.86098
USER: genes 4 Torsion [N]-CA--C-[N] |==|  0.37462
USER: genes 5 Torsion [C]-N--CA-[C] |==|  0.75282
USER: genes 6 Torsion [N]-CA--CB-[CG1] |==|  0.87150
USER: genes 7 Torsion [CA]-CB--CG1-[CD1] |==|  0.26238
USER: genes 8 Torsion [N]-CA--C-[OXT] |==|  0.39776
USER: genes 9 Torsion [N]-CA--CB-[CG] |==|  0.68669
USER: genes 10 Torsion [CA]-CB--CG-[ND1] |==|  0.46651
USER: genes 11 Torsion [C]-CA--CB-[CG] |==|  0.10616
USER: genes 12 Torsion [CA]-CB--CG-[CD2] |==|  0.69014
USER: genes 13 Torsion [C]-CA--N-[C] |==|  0.48368
USER: genes 14 Torsion [N]-C--CA-[N] |==|  0.42685
USER: genes 15 Torsion [C]-CA--CB-[CG] |==|  0.04332
USER: genes 16 Torsion [CA]-CB--CG-[CD2] |==|  0.74429
USER: genes 17 Torsion [C]-CA--N-[C] |==|  0.80900
USER: genes 18 Torsion [N]-C--CA-[N] |==|  0.90833
USER: genes 19 Torsion [C]-CA--N-[H2] |==|  0.57739
USER: genes 20 Torsion [C]-CA--CB-[CG] |==|  0.80204
USER: genes 21 Torsion [CA]-CB--CG-[OD1] |==|  0.82760
ROOT
ATOM      1  CA  LEU D  11      18.565   3.490  60.764  1.00 47.89 LIG 0.18  C 
ENDROOT
BRANCH 1 2
ATOM      2  C   LEU D  11      17.855   3.611  59.422  1.00 48.14 LIG 0.24  C 
ATOM      3 O    LEU D  11      18.074   2.815  58.519  1.00 47.13 LIG-0.27  OA
ATOM      4  N   HIS D  12      17.029   4.642  59.287  1.00 49.28 LIG-0.35  N 
ATOM      5 H    HIS D  12      16.852   5.208  59.910  1.00 49.28 LIG 0.16  HD
BRANCH 4 6
ATOM      6  CA  HIS D  12      16.343   4.886  58.022  1.00 50.49 LIG 0.18  C 
BRANCH 6 7
ATOM      7  C   HIS D  12      15.218   3.881  57.784  1.00 51.38 LIG 0.24  C 
ATOM      8  N   ILE D  13      14.086   4.415  57.356  1.00 53.16 LIG-0.34  N 
ATOM      9 H    ILE D  13      14.002   5.265  57.256  1.00 53.16 LIG 0.16  HD
ATOM     10 O    HIS D  12      15.384   2.685  57.974  1.00 51.57 LIG-0.27  OA
BRANCH 8 11
ATOM     11  CA  ILE D  13      12.853   3.694  56.999  1.00 55.12 LIG 0.19  C 
BRANCH 11 12
ATOM     12  CB  ILE D  13      11.547   4.343  57.585  1.00 55.01 LIG 0.01  C 
ATOM     13  CG2 ILE D  13      10.303   3.454  57.399  1.00 56.15 LIG 0.01  C 
BRANCH 12 14
ATOM     14  CG1 ILE D  13      11.750   4.690  59.064  1.00 55.50 LIG 0.00  C 
ATOM     15  CD1 ILE D  13      12.204   6.152  59.320  1.00 55.45 LIG 0.01  C 
ENDBRANCH 12 14
ENDBRANCH 11 12
BRANCH 11 16
ATOM     16  C   ILE D  13      12.673   3.205  55.559  1.00 55.63 LIG 0.20  C 
ATOM     17 OXT  ILE D  13      12.110   2.115  55.385  1.00 55.86 LIG-0.65  OA
ATOM     18 O    ILE D  13      13.052   3.885  54.602  1.00 56.94 LIG-0.65  OA
ENDBRANCH 11 16
ENDBRANCH 8 11
ENDBRANCH 6 7
BRANCH 6 19
ATOM     19  CB  HIS D  12      17.323   4.868  56.848  1.00 50.55 LIG 0.10  C 
BRANCH 19 20
ATOM     20  CG  HIS D  12      17.498   6.198  56.187  1.00 49.61 LIG 0.05  A 
ATOM     21 ND1  HIS D  12      18.407   6.635  55.284  1.00 49.92 LIG-0.25  NA
ATOM     22  CE1 HIS D  12      18.106   7.945  55.008  1.00 49.12 LIG 0.21  A 
ATOM     23  NE2 HIS D  12      17.036   8.295  55.697  1.00 48.62 LIG-0.36  N 
ATOM     24 HE2  HIS D  12      16.655   9.066  55.678  1.00 48.62 LIG 0.17  HD
ATOM     25  CD2 HIS D  12      16.652   7.260  56.421  1.00 48.49 LIG 0.12  A 
ENDBRANCH 19 20
ENDBRANCH 6 19
ENDBRANCH 4 6
ENDBRANCH 1 2
BRANCH 1 26
ATOM     26  CB  LEU D  11      17.531   3.065  61.801  1.00 47.69 LIG 0.04  C 
BRANCH 26 27
ATOM     27  CG  LEU D  11      16.446   2.055  61.407  1.00 48.05 LIG-0.02  C 
ATOM     28  CD1 LEU D  11      16.477   0.860  62.349  1.00 46.53 LIG 0.01  C 
ATOM     29  CD2 LEU D  11      15.067   2.669  61.359  1.00 50.43 LIG 0.01  C 
ENDBRANCH 26 27
ENDBRANCH 1 26
BRANCH 1 30
ATOM     30  N   LEU D  11      19.206   4.724  61.194  1.00 47.51 LIG-0.35  N 
ATOM     31  C   LEU D  10      19.782   4.862  62.389  1.00 47.80 LIG 0.24  C 
ATOM     32 O    LEU D  10      19.895   3.940  63.210  1.00 47.07 LIG-0.27  OA
ATOM     33 H    LEU D  11      19.178   5.352  60.608  1.00 47.51 LIG 0.16  HD
BRANCH 31 34
ATOM     34  CA  LEU D  10      20.304   6.257  62.709  1.00 47.63 LIG 0.18  C 
BRANCH 34 35
ATOM     35  CB  LEU D  10      21.676   6.488  62.083  1.00 47.29 LIG 0.04  C 
BRANCH 35 36
ATOM     36  CG  LEU D  10      22.044   5.470  60.998  1.00 46.92 LIG-0.02  C 
ATOM     37  CD2 LEU D  10      22.795   4.315  61.570  1.00 45.50 LIG 0.01  C 
ATOM     38  CD1 LEU D  10      22.865   6.102  59.875  1.00 46.83 LIG 0.01  C 
ENDBRANCH 35 36
ENDBRANCH 34 35
BRANCH 34 39
ATOM     39  N   LEU D  10      20.323   6.461  64.147  1.00 47.82 LIG-0.35  N 
ATOM     40 H    LEU D  10      21.108   6.513  64.496  1.00 47.82 LIG 0.16  HD
ATOM     41  C   ASP D   9      19.189   6.555  64.830  1.00 48.63 LIG 0.25  C 
ATOM     42 O    ASP D   9      18.079   6.464  64.312  1.00 48.10 LIG-0.27  OA
BRANCH 41 43
ATOM     43  CA  ASP D   9      19.329   6.774  66.314  1.00 49.27 LIG 0.28  C 
BRANCH 43 44
ATOM     44  N   ASP D   9      20.557   6.066  66.759  1.00 49.86 LIG-0.07  N 
ATOM     45 H2   ASP D   9      20.469   5.827  67.612  1.00 49.86 LIG 0.28  HD
ATOM     46 H3   ASP D   9      20.680   5.341  66.259  1.00 49.86 LIG 0.28  HD
ATOM     47 H1   ASP D   9      21.259   6.607  66.675  1.00 49.86 LIG 0.28  HD
ENDBRANCH 43 44
BRANCH 43 48
ATOM     48  CB  ASP D   9      19.443   8.268  66.582  1.00 50.02 LIG 0.15  C 
BRANCH 48 49
ATOM     49  CG  ASP D   9      20.758   8.837  66.137  1.00 50.84 LIG 0.17  C 
ATOM     50 OD1  ASP D   9      21.797   8.412  66.672  1.00 53.44 LIG-0.65  OA
ATOM     51 OD2  ASP D   9      20.858   9.699  65.235  1.00 53.75 LIG-0.65  OA
ENDBRANCH 48 49
ENDBRANCH 43 48
ENDBRANCH 41 43
ENDBRANCH 34 39
ENDBRANCH 31 34
ENDBRANCH 1 30
TORSDOF 20
ENDMDL
MODEL 62
USER: ADFR SOLUTION from run 30
USER: SCORE 16.999476 LL:  -4.983 LR: -12.327 RR:   0.000 FEB:  -6.361
USER: RMSD 9.829356
USER: SEED 29
USER: STATUS no improvement in best 4 clusters for 5 generations
USER: GENES 22
USER: genes 0 Translation |==|  0.33625 0.42678 0.75418
USER: genes 1 Rotation |==|  0.08637 0.38750 0.26036 0.59397
USER: genes 2 Torsion [N]-CA--C-[N] |==|  0.91471
USER: genes 3 Torsion [C]-N--CA-[CB] |==|  0.85000
USER: genes 4 Torsion [N]-CA--C-[N] |==|  0.94948
USER: genes 5 Torsion [C]-N--CA-[C] |==|  0.31752
USER: genes 6 Torsion [N]-CA--CB-[CG1] |==|  0.66044
USER: genes 7 Torsion [CA]-CB--CG1-[CD1] |==|  0.27975
USER: genes 8 Torsion [N]-CA--C-[OXT] |==|  0.99905
USER: genes 9 Torsion [N]-CA--CB-[CG] |==|  0.61131
USER: genes 10 Torsion [CA]-CB--CG-[ND1] |==|  0.49141
USER: genes 11 Torsion [C]-CA--CB-[CG] |==|  0.92505
USER: genes 12 Torsion [CA]-CB--CG-[CD2] |==|  0.75005
USER: genes 13 Torsion [C]-CA--N-[C] |==|  0.79580
USER: genes 14 Torsion [N]-C--CA-[N] |==|  0.00797
USER: genes 15 Torsion [C]-CA--CB-[CG] |==|  0.31054
USER: genes 16 Torsion [CA]-CB--CG-[CD2] |==|  0.19184
USER: genes 17 Torsion [C]-CA--N-[C] |==|  0.73431
USER: genes 18 Torsion [N]-C--CA-[N] |==|  0.93960
USER: genes 19 Torsion [C]-CA--N-[H2] |==|  0.82351
USER: genes 20 Torsion [C]-CA--CB-[CG] |==|  0.78763
USER: genes 21 Torsion [CA]-CB--CG-[OD1] |==|  0.82668
ROOT
ATOM      1  CA  LEU D  11      13.518   4.743  70.135  1.00 47.89 LIG 0.18  C 
ENDROOT
BRANCH 1 2
ATOM      2  C   LEU D  11      12.464   4.304  69.127  1.00 48.14 LIG 0.24  C 
ATOM      3 O    LEU D  11      11.832   3.268  69.288  1.00 47.13 LIG-0.27  OA
ATOM      4  N   HIS D  12      12.309   5.083  68.063  1.00 49.28 LIG-0.35  N 
ATOM      5 H    HIS D  12      12.734   5.819  67.934  1.00 49.28 LIG 0.16  HD
BRANCH 4 6
ATOM      6  CA  HIS D  12      11.369   4.723  67.007  1.00 50.49 LIG 0.18  C 
BRANCH 6 7
ATOM      7  C   HIS D  12       9.919   4.840  67.473  1.00 51.38 LIG 0.24  C 
ATOM      8  N   ILE D  13       9.765   4.863  68.787  1.00 53.16 LIG-0.34  N 
ATOM      9 H    ILE D  13      10.438   4.787  69.317  1.00 53.16 LIG 0.16  HD
ATOM     10 O    HIS D  12       8.999   4.913  66.673  1.00 51.57 LIG-0.27  OA
BRANCH 8 11
ATOM     11  CA  ILE D  13       8.498   5.016  69.521  1.00 55.12 LIG 0.19  C 
BRANCH 11 12
ATOM     12  CB  ILE D  13       7.355   5.689  68.679  1.00 55.01 LIG 0.01  C 
ATOM     13  CG2 ILE D  13       6.187   4.729  68.385  1.00 56.15 LIG 0.01  C 
BRANCH 12 14
ATOM     14  CG1 ILE D  13       6.855   6.952  69.388  1.00 55.50 LIG 0.00  C 
ATOM     15  CD1 ILE D  13       7.421   8.276  68.808  1.00 55.45 LIG 0.01  C 
ENDBRANCH 12 14
ENDBRANCH 11 12
BRANCH 11 16
ATOM     16  C   ILE D  13       7.993   3.847  70.374  1.00 55.63 LIG 0.20  C 
ATOM     17 OXT  ILE D  13       8.678   2.815  70.401  1.00 55.86 LIG-0.65  OA
ATOM     18 O    ILE D  13       6.954   3.939  71.032  1.00 56.94 LIG-0.65  OA
ENDBRANCH 11 16
ENDBRANCH 8 11
ENDBRANCH 6 7
BRANCH 6 19
ATOM     19  CB  HIS D  12      11.640   3.312  66.480  1.00 50.55 LIG 0.10  C 
BRANCH 19 20
ATOM     20  CG  HIS D  12      11.502   3.185  64.996  1.00 49.61 LIG 0.05  A 
ATOM     21 ND1  HIS D  12      11.711   2.136  64.166  1.00 49.92 LIG-0.25  NA
ATOM     22  CE1 HIS D  12      11.429   2.566  62.893  1.00 49.12 LIG 0.21  A 
ATOM     23  NE2 HIS D  12      11.038   3.826  62.941  1.00 48.62 LIG-0.36  N 
ATOM     24 HE2  HIS D  12      10.797   4.304  62.268  1.00 48.62 LIG 0.17  HD
ATOM     25  CD2 HIS D  12      11.077   4.225  64.198  1.00 48.49 LIG 0.12  A 
ENDBRANCH 19 20
ENDBRANCH 6 19
ENDBRANCH 4 6
ENDBRANCH 1 2
BRANCH 1 26
ATOM     26  CB  LEU D  11      12.833   5.635  71.165  1.00 47.69 LIG 0.04  C 
BRANCH 26 27
ATOM     27  CG  LEU D  11      11.581   6.423  70.759  1.00 48.05 LIG-0.02  C 
ATOM     28  CD1 LEU D  11      10.621   6.523  71.936  1.00 46.53 LIG 0.01  C 
ATOM     29  CD2 LEU D  11      11.905   7.793  70.210  1.00 50.43 LIG 0.01  C 
ENDBRANCH 26 27
ENDBRANCH 1 26
BRANCH 1 30
ATOM     30  N   LEU D  11      14.631   5.462  69.533  1.00 47.51 LIG-0.35  N 
ATOM     31  C   LEU D  10      15.573   4.860  68.806  1.00 47.80 LIG 0.24  C 
ATOM     32 O    LEU D  10      15.550   3.657  68.510  1.00 47.07 LIG-0.27  OA
ATOM     33 H    LEU D  11      14.624   6.308  69.690  1.00 47.51 LIG 0.16  HD
BRANCH 31 34
ATOM     34  CA  LEU D  10      16.719   5.752  68.348  1.00 47.63 LIG 0.18  C 
BRANCH 34 35
ATOM     35  CB  LEU D  10      18.070   5.153  68.729  1.00 47.29 LIG 0.04  C 
BRANCH 35 36
ATOM     36  CG  LEU D  10      18.901   4.682  67.530  1.00 46.92 LIG-0.02  C 
ATOM     37  CD2 LEU D  10      19.378   5.837  66.714  1.00 45.50 LIG 0.01  C 
ATOM     38  CD1 LEU D  10      18.121   3.719  66.637  1.00 46.83 LIG 0.01  C 
ENDBRANCH 35 36
ENDBRANCH 34 35
BRANCH 34 39
ATOM     39  N   LEU D  10      16.550   7.092  68.885  1.00 47.82 LIG-0.35  N 
ATOM     40 H    LEU D  10      16.850   7.203  69.683  1.00 47.82 LIG 0.16  HD
ATOM     41  C   ASP D   9      15.969   8.040  68.161  1.00 48.63 LIG 0.25  C 
ATOM     42 O    ASP D   9      15.533   7.853  67.027  1.00 48.10 LIG-0.27  OA
BRANCH 41 43
ATOM     43  CA  ASP D   9      15.853   9.392  68.815  1.00 49.27 LIG 0.28  C 
BRANCH 43 44
ATOM     44  N   ASP D   9      15.942   9.190  70.284  1.00 49.86 LIG-0.07  N 
ATOM     45 H2   ASP D   9      15.251   8.701  70.559  1.00 49.86 LIG 0.28  HD
ATOM     46 H3   ASP D   9      16.701   8.768  70.480  1.00 49.86 LIG 0.28  HD
ATOM     47 H1   ASP D   9      15.927   9.980  70.694  1.00 49.86 LIG 0.28  HD
ENDBRANCH 43 44
BRANCH 43 48
ATOM     48  CB  ASP D   9      16.991  10.275  68.324  1.00 50.02 LIG 0.15  C 
BRANCH 48 49
ATOM     49  CG  ASP D   9      18.303   9.941  68.971  1.00 50.84 LIG 0.17  C 
ATOM     50 OD1  ASP D   9      18.406  10.079  70.202  1.00 53.44 LIG-0.65  OA
ATOM     51 OD2  ASP D   9      19.287   9.506  68.332  1.00 53.75 LIG-0.65  OA
ENDBRANCH 48 49
ENDBRANCH 43 48
ENDBRANCH 41 43
ENDBRANCH 34 39
ENDBRANCH 31 34
ENDBRANCH 1 30
TORSDOF 20
ENDMDL
MODEL 63
USER: ADFR SOLUTION from run 40
USER: SCORE 15.522846 LL:  -5.064 LR: -12.309 RR:   0.000 FEB:  -6.343
USER: RMSD 5.914402
USER: SEED 39
USER: STATUS no improvement in best 6 clusters for 5 generations
USER: GENES 22
USER: genes 0 Translation |==|  0.47872 0.37226 0.47978
USER: genes 1 Rotation |==|  0.23783 0.42715 0.33345 0.88500
USER: genes 2 Torsion [N]-CA--C-[N] |==|  0.85000
USER: genes 3 Torsion [C]-N--CA-[CB] |==|  0.52421
USER: genes 4 Torsion [N]-CA--C-[N] |==|  0.34875
USER: genes 5 Torsion [C]-N--CA-[C] |==|  0.59088
USER: genes 6 Torsion [N]-CA--CB-[CG1] |==|  0.09596
USER: genes 7 Torsion [CA]-CB--CG1-[CD1] |==|  0.17764
USER: genes 8 Torsion [N]-CA--C-[OXT] |==|  0.47355
USER: genes 9 Torsion [N]-CA--CB-[CG] |==|  0.79876
USER: genes 10 Torsion [CA]-CB--CG-[ND1] |==|  0.47948
USER: genes 11 Torsion [C]-CA--CB-[CG] |==|  0.17580
USER: genes 12 Torsion [CA]-CB--CG-[CD2] |==|  0.06441
USER: genes 13 Torsion [C]-CA--N-[C] |==|  0.55765
USER: genes 14 Torsion [N]-C--CA-[N] |==|  0.30365
USER: genes 15 Torsion [C]-CA--CB-[CG] |==|  0.06707
USER: genes 16 Torsion [CA]-CB--CG-[CD2] |==|  0.56250
USER: genes 17 Torsion [C]-CA--N-[C] |==|  0.65753
USER: genes 18 Torsion [N]-C--CA-[N] |==|  0.52976
USER: genes 19 Torsion [C]-CA--N-[H2] |==|  0.96029
USER: genes 20 Torsion [C]-CA--CB-[CG] |==|  0.80427
USER: genes 21 Torsion [CA]-CB--CG-[OD1] |==|  0.84280
ROOT
ATOM      1  CA  LEU D  11      17.792   3.108  61.903  1.00 47.89 LIG 0.18  C 
ENDROOT
BRANCH 1 2
ATOM      2  C   LEU D  11      16.594   3.140  60.963  1.00 48.14 LIG 0.24  C 
ATOM      3 O    LEU D  11      16.693   2.759  59.804  1.00 47.13 LIG-0.27  OA
ATOM      4  N   HIS D  12      15.468   3.636  61.463  1.00 49.28 LIG-0.35  N 
ATOM      5 H    HIS D  12      15.372   3.901  62.276  1.00 49.28 LIG 0.16  HD
BRANCH 4 6
ATOM      6  CA  HIS D  12      14.277   3.768  60.630  1.00 50.49 LIG 0.18  C 
BRANCH 6 7
ATOM      7  C   HIS D  12      14.595   4.421  59.286  1.00 51.38 LIG 0.24  C 
ATOM      8  N   ILE D  13      14.209   3.721  58.231  1.00 53.16 LIG-0.34  N 
ATOM      9 H    ILE D  13      13.839   2.950  58.317  1.00 53.16 LIG 0.16  HD
ATOM     10 O    HIS D  12      15.153   5.506  59.224  1.00 51.57 LIG-0.27  OA
BRANCH 8 11
ATOM     11  CA  ILE D  13      14.338   4.117  56.819  1.00 55.12 LIG 0.19  C 
BRANCH 11 12
ATOM     12  CB  ILE D  13      15.796   3.969  56.250  1.00 55.01 LIG 0.01  C 
ATOM     13  CG2 ILE D  13      16.642   5.241  56.440  1.00 56.15 LIG 0.01  C 
BRANCH 12 14
ATOM     14  CG1 ILE D  13      16.486   2.757  56.883  1.00 55.50 LIG 0.00  C 
ATOM     15  CD1 ILE D  13      15.823   1.394  56.546  1.00 55.45 LIG 0.01  C 
ENDBRANCH 12 14
ENDBRANCH 11 12
BRANCH 11 16
ATOM     16  C   ILE D  13      13.267   3.662  55.823  1.00 55.63 LIG 0.20  C 
ATOM     17 OXT  ILE D  13      13.292   4.149  54.685  1.00 55.86 LIG-0.65  OA
ATOM     18 O    ILE D  13      12.423   2.818  56.135  1.00 56.94 LIG-0.65  OA
ENDBRANCH 11 16
ENDBRANCH 8 11
ENDBRANCH 6 7
BRANCH 6 19
ATOM     19  CB  HIS D  12      13.180   4.554  61.351  1.00 50.55 LIG 0.10  C 
BRANCH 19 20
ATOM     20  CG  HIS D  12      12.524   3.795  62.460  1.00 49.61 LIG 0.05  A 
ATOM     21 ND1  HIS D  12      11.625   4.180  63.396  1.00 49.92 LIG-0.25  NA
ATOM     22  CE1 HIS D  12      11.351   3.080  64.171  1.00 49.12 LIG 0.21  A 
ATOM     23  NE2 HIS D  12      12.038   2.050  63.712  1.00 48.62 LIG-0.36  N 
ATOM     24 HE2  HIS D  12      12.019   1.251  64.030  1.00 48.62 LIG 0.17  HD
ATOM     25  CD2 HIS D  12      12.758   2.455  62.683  1.00 48.49 LIG 0.12  A 
ENDBRANCH 19 20
ENDBRANCH 6 19
ENDBRANCH 4 6
ENDBRANCH 1 2
BRANCH 1 26
ATOM     26  CB  LEU D  11      17.490   2.100  63.007  1.00 47.69 LIG 0.04  C 
BRANCH 26 27
ATOM     27  CG  LEU D  11      17.299   0.623  62.641  1.00 48.05 LIG-0.02  C 
ATOM     28  CD1 LEU D  11      15.817   0.278  62.611  1.00 46.53 LIG 0.01  C 
ATOM     29  CD2 LEU D  11      17.966   0.253  61.338  1.00 50.43 LIG 0.01  C 
ENDBRANCH 26 27
ENDBRANCH 1 26
BRANCH 1 30
ATOM     30  N   LEU D  11      18.097   4.401  62.497  1.00 47.51 LIG-0.35  N 
ATOM     31  C   LEU D  10      19.292   4.699  63.007  1.00 47.80 LIG 0.24  C 
ATOM     32 O    LEU D  10      20.271   3.941  62.957  1.00 47.07 LIG-0.27  OA
ATOM     33 H    LEU D  11      17.437   4.953  62.487  1.00 47.51 LIG 0.16  HD
BRANCH 31 34
ATOM     34  CA  LEU D  10      19.397   6.060  63.684  1.00 47.63 LIG 0.18  C 
BRANCH 34 35
ATOM     35  CB  LEU D  10      20.550   6.876  63.107  1.00 47.29 LIG 0.04  C 
BRANCH 35 36
ATOM     36  CG  LEU D  10      20.947   6.470  61.684  1.00 46.92 LIG-0.02  C 
ATOM     37  CD2 LEU D  10      22.349   6.877  61.375  1.00 45.50 LIG 0.01  C 
ATOM     38  CD1 LEU D  10      20.006   7.063  60.637  1.00 46.83 LIG 0.01  C 
ENDBRANCH 35 36
ENDBRANCH 34 35
BRANCH 34 39
ATOM     39  N   LEU D  10      19.518   5.890  65.122  1.00 47.82 LIG-0.35  N 
ATOM     40 H    LEU D  10      20.179   5.402  65.375  1.00 47.82 LIG 0.16  HD
ATOM     41  C   ASP D   9      18.650   6.465  65.945  1.00 48.63 LIG 0.25  C 
ATOM     42 O    ASP D   9      17.703   7.147  65.558  1.00 48.10 LIG-0.27  OA
BRANCH 41 43
ATOM     43  CA  ASP D   9      18.876   6.228  67.415  1.00 49.27 LIG 0.28  C 
BRANCH 43 44
ATOM     44  N   ASP D   9      17.677   6.720  68.140  1.00 49.86 LIG-0.07  N 
ATOM     45 H2   ASP D   9      17.188   7.226  67.595  1.00 49.86 LIG 0.28  HD
ATOM     46 H3   ASP D   9      17.192   6.027  68.417  1.00 49.86 LIG 0.28  HD
ATOM     47 H1   ASP D   9      17.932   7.203  68.843  1.00 49.86 LIG 0.28  HD
ENDBRANCH 43 44
BRANCH 43 48
ATOM     48  CB  ASP D   9      19.070   4.736  67.647  1.00 50.02 LIG 0.15  C 
BRANCH 48 49
ATOM     49  CG  ASP D   9      17.804   3.952  67.458  1.00 50.84 LIG 0.17  C 
ATOM     50 OD1  ASP D   9      16.810   4.263  68.136  1.00 53.44 LIG-0.65  OA
ATOM     51 OD2  ASP D   9      17.698   3.018  66.632  1.00 53.75 LIG-0.65  OA
ENDBRANCH 48 49
ENDBRANCH 43 48
ENDBRANCH 41 43
ENDBRANCH 34 39
ENDBRANCH 31 34
ENDBRANCH 1 30
TORSDOF 20
ENDMDL
MODEL 64
USER: ADFR SOLUTION from run 93
USER: SCORE 16.548071 LL:  -5.007 LR: -12.280 RR:   0.000 FEB:  -6.314
USER: RMSD 10.024305
USER: SEED 92
USER: STATUS no improvement in best 5 clusters for 5 generations
USER: GENES 22
USER: genes 0 Translation |==|  0.44834 0.39992 0.46193
USER: genes 1 Rotation |==|  0.75474 0.33533 0.12174 0.62210
USER: genes 2 Torsion [N]-CA--C-[N] |==|  0.31382
USER: genes 3 Torsion [C]-N--CA-[CB] |==|  0.84997
USER: genes 4 Torsion [N]-CA--C-[N] |==|  0.41111
USER: genes 5 Torsion [C]-N--CA-[C] |==|  0.64399
USER: genes 6 Torsion [N]-CA--CB-[CG1] |==|  0.98718
USER: genes 7 Torsion [CA]-CB--CG1-[CD1] |==|  0.57724
USER: genes 8 Torsion [N]-CA--C-[OXT] |==|  0.97974
USER: genes 9 Torsion [N]-CA--CB-[CG] |==|  0.82679
USER: genes 10 Torsion [CA]-CB--CG-[ND1] |==|  0.29923
USER: genes 11 Torsion [C]-CA--CB-[CG] |==|  0.31747
USER: genes 12 Torsion [CA]-CB--CG-[CD2] |==|  0.18995
USER: genes 13 Torsion [C]-CA--N-[C] |==|  0.58458
USER: genes 14 Torsion [N]-C--CA-[N] |==|  0.25028
USER: genes 15 Torsion [C]-CA--CB-[CG] |==|  0.51306
USER: genes 16 Torsion [CA]-CB--CG-[CD2] |==|  0.24548
USER: genes 17 Torsion [C]-CA--N-[C] |==|  0.77220
USER: genes 18 Torsion [N]-C--CA-[N] |==|  0.94658
USER: genes 19 Torsion [C]-CA--N-[H2] |==|  0.17492
USER: genes 20 Torsion [C]-CA--CB-[CG] |==|  0.79188
USER: genes 21 Torsion [CA]-CB--CG-[OD1] |==|  0.38110
ROOT
ATOM      1  CA  LEU D  11      16.880   3.937  61.368  1.00 47.89 LIG 0.18  C 
ENDROOT
BRANCH 1 2
ATOM      2  C   LEU D  11      17.863   4.902  62.017  1.00 48.14 LIG 0.24  C 
ATOM      3 O    LEU D  11      17.884   6.086  61.705  1.00 47.13 LIG-0.27  OA
ATOM      4  N   HIS D  12      18.707   4.376  62.897  1.00 49.28 LIG-0.35  N 
ATOM      5 H    HIS D  12      18.706   3.551  63.139  1.00 49.28 LIG 0.16  HD
BRANCH 4 6
ATOM      6  CA  HIS D  12      19.730   5.201  63.533  1.00 50.49 LIG 0.18  C 
BRANCH 6 7
ATOM      7  C   HIS D  12      19.122   6.204  64.511  1.00 51.38 LIG 0.24  C 
ATOM      8  N   ILE D  13      19.887   6.490  65.552  1.00 53.16 LIG-0.34  N 
ATOM      9 H    ILE D  13      20.649   6.108  65.665  1.00 53.16 LIG 0.16  HD
ATOM     10 O    HIS D  12      18.018   6.692  64.316  1.00 51.57 LIG-0.27  OA
BRANCH 8 11
ATOM     11  CA  ILE D  13      19.588   7.451  66.626  1.00 55.12 LIG 0.19  C 
BRANCH 11 12
ATOM     12  CB  ILE D  13      18.946   6.796  67.902  1.00 55.01 LIG 0.01  C 
ATOM     13  CG2 ILE D  13      17.657   7.507  68.353  1.00 56.15 LIG 0.01  C 
BRANCH 12 14
ATOM     14  CG1 ILE D  13      18.686   5.306  67.653  1.00 55.50 LIG 0.00  C 
ATOM     15  CD1 ILE D  13      17.509   4.717  68.476  1.00 55.45 LIG 0.01  C 
ENDBRANCH 12 14
ENDBRANCH 11 12
BRANCH 11 16
ATOM     16  C   ILE D  13      20.629   8.520  66.973  1.00 55.63 LIG 0.20  C 
ATOM     17 OXT  ILE D  13      21.738   8.444  66.426  1.00 55.86 LIG-0.65  OA
ATOM     18 O    ILE D  13      20.365   9.441  67.749  1.00 56.94 LIG-0.65  OA
ENDBRANCH 11 16
ENDBRANCH 8 11
ENDBRANCH 6 7
BRANCH 6 19
ATOM     19  CB  HIS D  12      20.582   5.930  62.492  1.00 50.55 LIG 0.10  C 
BRANCH 19 20
ATOM     20  CG  HIS D  12      21.348   5.014  61.591  1.00 49.61 LIG 0.05  A 
ATOM     21 ND1  HIS D  12      21.179   4.698  60.286  1.00 49.92 LIG-0.25  NA
ATOM     22  CE1 HIS D  12      22.170   3.808  59.954  1.00 49.12 LIG 0.21  A 
ATOM     23  NE2 HIS D  12      22.935   3.602  61.010  1.00 48.62 LIG-0.36  N 
ATOM     24 HE2  HIS D  12      23.626   3.091  61.039  1.00 48.62 LIG 0.17  HD
ATOM     25  CD2 HIS D  12      22.458   4.315  62.013  1.00 48.49 LIG 0.12  A 
ENDBRANCH 19 20
ENDBRANCH 6 19
ENDBRANCH 4 6
ENDBRANCH 1 2
BRANCH 1 26
ATOM     26  CB  LEU D  11      17.024   4.074  59.856  1.00 47.69 LIG 0.04  C 
BRANCH 26 27
ATOM     27  CG  LEU D  11      17.558   2.887  59.044  1.00 48.05 LIG-0.02  C 
ATOM     28  CD1 LEU D  11      18.917   2.457  59.579  1.00 46.53 LIG 0.01  C 
ATOM     29  CD2 LEU D  11      16.598   1.722  59.012  1.00 50.43 LIG 0.01  C 
ENDBRANCH 26 27
ENDBRANCH 1 26
BRANCH 1 30
ATOM     30  N   LEU D  11      15.496   4.178  61.748  1.00 47.51 LIG-0.35  N 
ATOM     31  C   LEU D  10      14.585   3.207  61.817  1.00 47.80 LIG 0.24  C 
ATOM     32 O    LEU D  10      14.843   2.007  61.643  1.00 47.07 LIG-0.27  OA
ATOM     33 H    LEU D  11      15.321   5.002  61.922  1.00 47.51 LIG 0.16  HD
BRANCH 31 34
ATOM     34  CA  LEU D  10      13.163   3.660  62.124  1.00 47.63 LIG 0.18  C 
BRANCH 34 35
ATOM     35  CB  LEU D  10      12.430   2.633  62.981  1.00 47.29 LIG 0.04  C 
BRANCH 35 36
ATOM     36  CG  LEU D  10      10.956   2.972  63.233  1.00 46.92 LIG-0.02  C 
ATOM     37  CD2 LEU D  10      10.082   2.425  62.154  1.00 45.50 LIG 0.01  C 
ATOM     38  CD1 LEU D  10      10.729   4.478  63.353  1.00 46.83 LIG 0.01  C 
ENDBRANCH 35 36
ENDBRANCH 34 35
BRANCH 34 39
ATOM     39  N   LEU D  10      12.455   3.940  60.887  1.00 47.82 LIG-0.35  N 
ATOM     40 H    LEU D  10      11.949   3.303  60.607  1.00 47.82 LIG 0.16  HD
ATOM     41  C   ASP D   9      12.607   5.105  60.271  1.00 48.63 LIG 0.25  C 
ATOM     42 O    ASP D   9      13.348   5.995  60.683  1.00 48.10 LIG-0.27  OA
BRANCH 41 43
ATOM     43  CA  ASP D   9      11.818   5.289  59.001  1.00 49.27 LIG 0.28  C 
BRANCH 43 44
ATOM     44  N   ASP D   9      11.426   3.940  58.517  1.00 49.86 LIG-0.07  N 
ATOM     45 H2   ASP D   9      10.893   3.553  59.116  1.00 49.86 LIG 0.28  HD
ATOM     46 H3   ASP D   9      10.994   4.016  57.742  1.00 49.86 LIG 0.28  HD
ATOM     47 H1   ASP D   9      12.154   3.442  58.402  1.00 49.86 LIG 0.28  HD
ENDBRANCH 43 44
BRANCH 43 48
ATOM     48  CB  ASP D   9      10.586   6.130  59.304  1.00 50.02 LIG 0.15  C 
BRANCH 48 49
ATOM     49  CG  ASP D   9       9.525   5.360  60.034  1.00 50.84 LIG 0.17  C 
ATOM     50 OD1  ASP D   9       8.940   5.913  60.981  1.00 53.44 LIG-0.65  OA
ATOM     51 OD2  ASP D   9       9.186   4.198  59.716  1.00 53.75 LIG-0.65  OA
ENDBRANCH 48 49
ENDBRANCH 43 48
ENDBRANCH 41 43
ENDBRANCH 34 39
ENDBRANCH 31 34
ENDBRANCH 1 30
TORSDOF 20
ENDMDL
MODEL 65
USER: ADFR SOLUTION from run 24
USER: SCORE 17.064081 LL:  -5.163 LR: -12.263 RR:   0.000 FEB:  -6.297
USER: RMSD 5.963693
USER: SEED 23
USER: STATUS no improvement in best 4 clusters for 5 generations
USER: GENES 22
USER: genes 0 Translation |==|  0.43891 0.42096 0.46998
USER: genes 1 Rotation |==|  0.74216 0.73024 0.84577 0.63707
USER: genes 2 Torsion [N]-CA--C-[N] |==|  0.97222
USER: genes 3 Torsion [C]-N--CA-[CB] |==|  0.75366
USER: genes 4 Torsion [N]-CA--C-[N] |==|  0.17867
USER: genes 5 Torsion [C]-N--CA-[C] |==|  0.77308
USER: genes 6 Torsion [N]-CA--CB-[CG1] |==|  0.12904
USER: genes 7 Torsion [CA]-CB--CG1-[CD1] |==|  0.75336
USER: genes 8 Torsion [N]-CA--C-[OXT] |==|  0.04260
USER: genes 9 Torsion [N]-CA--CB-[CG] |==|  0.11408
USER: genes 10 Torsion [CA]-CB--CG-[ND1] |==|  0.71356
USER: genes 11 Torsion [C]-CA--CB-[CG] |==|  0.27598
USER: genes 12 Torsion [CA]-CB--CG-[CD2] |==|  0.91067
USER: genes 13 Torsion [C]-CA--N-[C] |==|  0.79246
USER: genes 14 Torsion [N]-C--CA-[N] |==|  0.34906
USER: genes 15 Torsion [C]-CA--CB-[CG] |==|  0.23230
USER: genes 16 Torsion [CA]-CB--CG-[CD2] |==|  0.70458
USER: genes 17 Torsion [C]-CA--N-[C] |==|  0.82885
USER: genes 18 Torsion [N]-C--CA-[N] |==|  0.98661
USER: genes 19 Torsion [C]-CA--N-[H2] |==|  0.92101
USER: genes 20 Torsion [C]-CA--CB-[CG] |==|  0.78692
USER: genes 21 Torsion [CA]-CB--CG-[OD1] |==|  0.75579
ROOT
ATOM      1  CA  LEU D  11      16.597   4.569  61.609  1.00 47.89 LIG 0.18  C 
ENDROOT
BRANCH 1 2
ATOM      2  C   LEU D  11      16.669   3.252  60.848  1.00 48.14 LIG 0.24  C 
ATOM      3 O    LEU D  11      15.685   2.533  60.739  1.00 47.13 LIG-0.27  OA
ATOM      4  N   HIS D  12      17.858   2.924  60.354  1.00 49.28 LIG-0.35  N 
ATOM      5 H    HIS D  12      18.560   3.417  60.410  1.00 49.28 LIG 0.16  HD
BRANCH 4 6
ATOM      6  CA  HIS D  12      18.051   1.655  59.659  1.00 50.49 LIG 0.18  C 
BRANCH 6 7
ATOM      7  C   HIS D  12      16.814   1.252  58.860  1.00 51.38 LIG 0.24  C 
ATOM      8  N   ILE D  13      16.510   2.072  57.867  1.00 53.16 LIG-0.34  N 
ATOM      9 H    ILE D  13      16.967   2.786  57.720  1.00 53.16 LIG 0.16  HD
ATOM     10 O    HIS D  12      16.181   0.243  59.134  1.00 51.57 LIG-0.27  OA
BRANCH 8 11
ATOM     11  CA  ILE D  13      15.408   1.917  56.903  1.00 55.12 LIG 0.19  C 
BRANCH 11 12
ATOM     12  CB  ILE D  13      14.705   3.269  56.520  1.00 55.01 LIG 0.01  C 
ATOM     13  CG2 ILE D  13      13.732   3.765  57.606  1.00 56.15 LIG 0.01  C 
BRANCH 12 14
ATOM     14  CG1 ILE D  13      15.758   4.338  56.206  1.00 55.50 LIG 0.00  C 
ATOM     15  CD1 ILE D  13      16.228   5.153  57.440  1.00 55.45 LIG 0.01  C 
ENDBRANCH 12 14
ENDBRANCH 11 12
BRANCH 11 16
ATOM     16  C   ILE D  13      15.605   0.992  55.698  1.00 55.63 LIG 0.20  C 
ATOM     17 OXT  ILE D  13      16.555   0.197  55.730  1.00 55.86 LIG-0.65  OA
ATOM     18 O    ILE D  13      14.830   1.019  54.739  1.00 56.94 LIG-0.65  OA
ENDBRANCH 11 16
ENDBRANCH 8 11
ENDBRANCH 6 7
BRANCH 6 19
ATOM     19  CB  HIS D  12      18.433   0.541  60.635  1.00 50.55 LIG 0.10  C 
BRANCH 19 20
ATOM     20  CG  HIS D  12      17.668   0.575  61.920  1.00 49.61 LIG 0.05  A 
ATOM     21 ND1  HIS D  12      18.019   0.994  63.158  1.00 49.92 LIG-0.25  NA
ATOM     22  CE1 HIS D  12      16.930   0.806  63.972  1.00 49.12 LIG 0.21  A 
ATOM     23  NE2 HIS D  12      15.938   0.312  63.257  1.00 48.62 LIG-0.36  N 
ATOM     24 HE2  HIS D  12      15.151   0.124  63.549  1.00 48.62 LIG 0.17  HD
ATOM     25  CD2 HIS D  12      16.358   0.158  62.015  1.00 48.49 LIG 0.12  A 
ENDBRANCH 19 20
ENDBRANCH 6 19
ENDBRANCH 4 6
ENDBRANCH 1 2
BRANCH 1 26
ATOM     26  CB  LEU D  11      15.761   5.539  60.783  1.00 47.69 LIG 0.04  C 
BRANCH 26 27
ATOM     27  CG  LEU D  11      14.286   5.754  61.144  1.00 48.05 LIG-0.02  C 
ATOM     28  CD1 LEU D  11      13.518   6.258  59.931  1.00 46.53 LIG 0.01  C 
ATOM     29  CD2 LEU D  11      13.638   4.515  61.715  1.00 50.43 LIG 0.01  C 
ENDBRANCH 26 27
ENDBRANCH 1 26
BRANCH 1 30
ATOM     30  N   LEU D  11      17.902   5.156  61.875  1.00 47.51 LIG-0.35  N 
ATOM     31  C   LEU D  10      18.733   4.683  62.805  1.00 47.80 LIG 0.24  C 
ATOM     32 O    LEU D  10      18.511   3.663  63.473  1.00 47.07 LIG-0.27  OA
ATOM     33 H    LEU D  11      18.086   5.834  61.379  1.00 47.51 LIG 0.16  HD
BRANCH 31 34
ATOM     34  CA  LEU D  10      20.007   5.491  63.019  1.00 47.63 LIG 0.18  C 
BRANCH 34 35
ATOM     35  CB  LEU D  10      21.230   4.736  62.508  1.00 47.29 LIG 0.04  C 
BRANCH 35 36
ATOM     36  CG  LEU D  10      21.476   4.896  61.003  1.00 46.92 LIG-0.02  C 
ATOM     37  CD2 LEU D  10      21.118   3.653  60.260  1.00 45.50 LIG 0.01  C 
ATOM     38  CD1 LEU D  10      22.925   5.270  60.697  1.00 46.83 LIG 0.01  C 
ENDBRANCH 35 36
ENDBRANCH 34 35
BRANCH 34 39
ATOM     39  N   LEU D  10      20.137   5.849  64.421  1.00 47.82 LIG-0.35  N 
ATOM     40 H    LEU D  10      20.836   5.534  64.812  1.00 47.82 LIG 0.16  HD
ATOM     41  C   ASP D   9      19.222   6.607  65.012  1.00 48.63 LIG 0.25  C 
ATOM     42 O    ASP D   9      18.224   7.033  64.435  1.00 48.10 LIG-0.27  OA
BRANCH 41 43
ATOM     43  CA  ASP D   9      19.463   6.921  66.465  1.00 49.27 LIG 0.28  C 
BRANCH 43 44
ATOM     44  N   ASP D   9      20.667   6.164  66.895  1.00 49.86 LIG-0.07  N 
ATOM     45 H2   ASP D   9      20.742   5.424  66.407  1.00 49.86 LIG 0.28  HD
ATOM     46 H3   ASP D   9      21.391   6.668  66.782  1.00 49.86 LIG 0.28  HD
ATOM     47 H1   ASP D   9      20.589   5.945  67.754  1.00 49.86 LIG 0.28  HD
ENDBRANCH 43 44
BRANCH 43 48
ATOM     48  CB  ASP D   9      19.690   8.419  66.613  1.00 50.02 LIG 0.15  C 
BRANCH 48 49
ATOM     49  CG  ASP D   9      21.061   8.843  66.176  1.00 50.84 LIG 0.17  C 
ATOM     50 OD1  ASP D   9      21.982   8.815  67.010  1.00 53.44 LIG-0.65  OA
ATOM     51 OD2  ASP D   9      21.324   9.197  65.004  1.00 53.75 LIG-0.65  OA
ENDBRANCH 48 49
ENDBRANCH 43 48
ENDBRANCH 41 43
ENDBRANCH 34 39
ENDBRANCH 31 34
ENDBRANCH 1 30
TORSDOF 20
ENDMDL
MODEL 66
USER: ADFR SOLUTION from run 21
USER: SCORE 16.561237 LL:  -4.772 LR: -12.239 RR:   0.000 FEB:  -6.273
USER: RMSD 6.078306
USER: SEED 20
USER: STATUS no improvement in best 7 clusters for 5 generations
USER: GENES 22
USER: genes 0 Translation |==|  0.46061 0.37820 0.41090
USER: genes 1 Rotation |==|  0.28559 0.55912 0.28136 0.89081
USER: genes 2 Torsion [N]-CA--C-[N] |==|  0.37816
USER: genes 3 Torsion [C]-N--CA-[CB] |==|  0.20000
USER: genes 4 Torsion [N]-CA--C-[N] |==|  0.09063
USER: genes 5 Torsion [C]-N--CA-[C] |==|  0.83278
USER: genes 6 Torsion [N]-CA--CB-[CG1] |==|  0.96317
USER: genes 7 Torsion [CA]-CB--CG1-[CD1] |==|  0.32751
USER: genes 8 Torsion [N]-CA--C-[OXT] |==|  0.88426
USER: genes 9 Torsion [N]-CA--CB-[CG] |==|  0.12159
USER: genes 10 Torsion [CA]-CB--CG-[ND1] |==|  0.12645
USER: genes 11 Torsion [C]-CA--CB-[CG] |==|  0.55868
USER: genes 12 Torsion [CA]-CB--CG-[CD2] |==|  0.73674
USER: genes 13 Torsion [C]-CA--N-[C] |==|  0.83668
USER: genes 14 Torsion [N]-C--CA-[N] |==|  0.41337
USER: genes 15 Torsion [C]-CA--CB-[CG] |==|  0.36391
USER: genes 16 Torsion [CA]-CB--CG-[CD2] |==|  0.92176
USER: genes 17 Torsion [C]-CA--N-[C] |==|  0.63368
USER: genes 18 Torsion [N]-C--CA-[N] |==|  0.02505
USER: genes 19 Torsion [C]-CA--N-[H2] |==|  0.41763
USER: genes 20 Torsion [C]-CA--CB-[CG] |==|  0.51399
USER: genes 21 Torsion [CA]-CB--CG-[OD1] |==|  0.59257
ROOT
ATOM      1  CA  LEU D  11      17.248   3.286  59.837  1.00 47.89 LIG 0.18  C 
ENDROOT
BRANCH 1 2
ATOM      2  C   LEU D  11      16.051   4.094  59.354  1.00 48.14 LIG 0.24  C 
ATOM      3 O    LEU D  11      15.421   4.808  60.124  1.00 47.13 LIG-0.27  OA
ATOM      4  N   HIS D  12      15.717   3.943  58.078  1.00 49.28 LIG-0.35  N 
ATOM      5 H    HIS D  12      16.149   3.455  57.517  1.00 49.28 LIG 0.16  HD
BRANCH 4 6
ATOM      6  CA  HIS D  12      14.550   4.625  57.528  1.00 50.49 LIG 0.18  C 
BRANCH 6 7
ATOM      7  C   HIS D  12      14.128   4.032  56.185  1.00 51.38 LIG 0.24  C 
ATOM      8  N   ILE D  13      14.348   2.733  56.064  1.00 53.16 LIG-0.34  N 
ATOM      9 H    ILE D  13      14.728   2.284  56.691  1.00 53.16 LIG 0.16  HD
ATOM     10 O    HIS D  12      13.622   4.726  55.315  1.00 51.57 LIG-0.27  OA
BRANCH 8 11
ATOM     11  CA  ILE D  13      14.004   1.886  54.910  1.00 55.12 LIG 0.19  C 
BRANCH 11 12
ATOM     12  CB  ILE D  13      14.747   0.501  54.896  1.00 55.01 LIG 0.01  C 
ATOM     13  CG2 ILE D  13      15.262   0.115  53.497  1.00 56.15 LIG 0.01  C 
BRANCH 12 14
ATOM     14  CG1 ILE D  13      15.893   0.510  55.914  1.00 55.50 LIG 0.00  C 
ATOM     15  CD1 ILE D  13      15.745  -0.536  57.052  1.00 55.45 LIG 0.01  C 
ENDBRANCH 12 14
ENDBRANCH 11 12
BRANCH 11 16
ATOM     16  C   ILE D  13      12.536   1.771  54.490  1.00 55.63 LIG 0.20  C 
ATOM     17 OXT  ILE D  13      11.686   1.660  55.385  1.00 55.86 LIG-0.65  OA
ATOM     18 O    ILE D  13      12.206   1.814  53.302  1.00 56.94 LIG-0.65  OA
ENDBRANCH 11 16
ENDBRANCH 8 11
ENDBRANCH 6 7
BRANCH 6 19
ATOM     19  CB  HIS D  12      14.801   6.127  57.384  1.00 50.55 LIG 0.10  C 
BRANCH 19 20
ATOM     20  CG  HIS D  12      16.143   6.463  56.816  1.00 49.61 LIG 0.05  A 
ATOM     21 ND1  HIS D  12      16.820   5.952  55.760  1.00 49.92 LIG-0.25  NA
ATOM     22  CE1 HIS D  12      18.011   6.630  55.677  1.00 49.12 LIG 0.21  A 
ATOM     23  NE2 HIS D  12      18.055   7.541  56.631  1.00 48.62 LIG-0.36  N 
ATOM     24 HE2  HIS D  12      18.699   8.094  56.769  1.00 48.62 LIG 0.17  HD
ATOM     25  CD2 HIS D  12      16.942   7.458  57.336  1.00 48.49 LIG 0.12  A 
ENDBRANCH 19 20
ENDBRANCH 6 19
ENDBRANCH 4 6
ENDBRANCH 1 2
BRANCH 1 26
ATOM     26  CB  LEU D  11      16.718   2.092  60.623  1.00 47.69 LIG 0.04  C 
BRANCH 26 27
ATOM     27  CG  LEU D  11      17.640   1.384  61.623  1.00 48.05 LIG-0.02  C 
ATOM     28  CD1 LEU D  11      16.858   0.991  62.868  1.00 46.53 LIG 0.01  C 
ATOM     29  CD2 LEU D  11      18.341   0.187  61.027  1.00 50.43 LIG 0.01  C 
ENDBRANCH 26 27
ENDBRANCH 1 26
BRANCH 1 30
ATOM     30  N   LEU D  11      18.163   4.050  60.672  1.00 47.51 LIG-0.35  N 
ATOM     31  C   LEU D  10      18.771   5.160  60.253  1.00 47.80 LIG 0.24  C 
ATOM     32 O    LEU D  10      18.558   5.687  59.151  1.00 47.07 LIG-0.27  OA
ATOM     33 H    LEU D  11      18.275   3.719  61.458  1.00 47.51 LIG 0.16  HD
BRANCH 31 34
ATOM     34  CA  LEU D  10      19.777   5.765  61.223  1.00 47.63 LIG 0.18  C 
BRANCH 34 35
ATOM     35  CB  LEU D  10      19.095   6.707  62.210  1.00 47.29 LIG 0.04  C 
BRANCH 35 36
ATOM     36  CG  LEU D  10      19.473   6.454  63.674  1.00 46.92 LIG-0.02  C 
ATOM     37  CD2 LEU D  10      19.840   5.025  63.900  1.00 45.50 LIG 0.01  C 
ATOM     38  CD1 LEU D  10      18.348   6.845  64.630  1.00 46.83 LIG 0.01  C 
ENDBRANCH 35 36
ENDBRANCH 34 35
BRANCH 34 39
ATOM     39  N   LEU D  10      20.840   6.428  60.486  1.00 47.82 LIG-0.35  N 
ATOM     40 H    LEU D  10      20.573   6.955  59.861  1.00 47.82 LIG 0.16  HD
ATOM     41  C   ASP D   9      22.112   6.207  60.791  1.00 48.63 LIG 0.25  C 
ATOM     42 O    ASP D   9      22.470   5.437  61.680  1.00 48.10 LIG-0.27  OA
BRANCH 41 43
ATOM     43  CA  ASP D   9      23.128   6.953  59.967  1.00 49.27 LIG 0.28  C 
BRANCH 43 44
ATOM     44  N   ASP D   9      22.393   7.941  59.135  1.00 49.86 LIG-0.07  N 
ATOM     45 H2   ASP D   9      22.915   8.646  58.982  1.00 49.86 LIG 0.28  HD
ATOM     46 H3   ASP D   9      22.166   7.567  58.361  1.00 49.86 LIG 0.28  HD
ATOM     47 H1   ASP D   9      21.659   8.204  59.565  1.00 49.86 LIG 0.28  HD
ENDBRANCH 43 44
BRANCH 43 48
ATOM     48  CB  ASP D   9      24.100   7.657  60.903  1.00 50.02 LIG 0.15  C 
BRANCH 48 49
ATOM     49  CG  ASP D   9      25.080   8.527  60.173  1.00 50.84 LIG 0.17  C 
ATOM     50 OD1  ASP D   9      26.228   8.642  60.636  1.00 53.44 LIG-0.65  OA
ATOM     51 OD2  ASP D   9      24.801   9.120  59.106  1.00 53.75 LIG-0.65  OA
ENDBRANCH 48 49
ENDBRANCH 43 48
ENDBRANCH 41 43
ENDBRANCH 34 39
ENDBRANCH 31 34
ENDBRANCH 1 30
TORSDOF 20
ENDMDL
MODEL 67
USER: ADFR SOLUTION from run 40
USER: SCORE 16.603191 LL:  -5.775 LR: -12.209 RR:   0.000 FEB:  -6.243
USER: RMSD 6.176828
USER: SEED 39
USER: STATUS no improvement in best 6 clusters for 5 generations
USER: GENES 22
USER: genes 0 Translation |==|  0.47582 0.37269 0.46507
USER: genes 1 Rotation |==|  0.20073 0.46163 0.34669 0.86805
USER: genes 2 Torsion [N]-CA--C-[N] |==|  0.87222
USER: genes 3 Torsion [C]-N--CA-[CB] |==|  0.47250
USER: genes 4 Torsion [N]-CA--C-[N] |==|  0.27304
USER: genes 5 Torsion [C]-N--CA-[C] |==|  0.62799
USER: genes 6 Torsion [N]-CA--CB-[CG1] |==|  0.09918
USER: genes 7 Torsion [CA]-CB--CG1-[CD1] |==|  0.15032
USER: genes 8 Torsion [N]-CA--C-[OXT] |==|  0.48961
USER: genes 9 Torsion [N]-CA--CB-[CG] |==|  0.77243
USER: genes 10 Torsion [CA]-CB--CG-[ND1] |==|  0.50755
USER: genes 11 Torsion [C]-CA--CB-[CG] |==|  0.19938
USER: genes 12 Torsion [CA]-CB--CG-[CD2] |==|  0.07330
USER: genes 13 Torsion [C]-CA--N-[C] |==|  0.78933
USER: genes 14 Torsion [N]-C--CA-[N] |==|  0.39419
USER: genes 15 Torsion [C]-CA--CB-[CG] |==|  0.06127
USER: genes 16 Torsion [CA]-CB--CG-[CD2] |==|  0.58054
USER: genes 17 Torsion [C]-CA--N-[C] |==|  0.80831
USER: genes 18 Torsion [N]-C--CA-[N] |==|  0.93916
USER: genes 19 Torsion [C]-CA--N-[H2] |==|  0.01894
USER: genes 20 Torsion [C]-CA--CB-[CG] |==|  0.54579
USER: genes 21 Torsion [CA]-CB--CG-[OD1] |==|  0.61290
ROOT
ATOM      1  CA  LEU D  11      17.705   3.121  61.462  1.00 47.89 LIG 0.18  C 
ENDROOT
BRANCH 1 2
ATOM      2  C   LEU D  11      16.364   3.156  60.739  1.00 48.14 LIG 0.24  C 
ATOM      3 O    LEU D  11      16.191   2.528  59.703  1.00 47.13 LIG-0.27  OA
ATOM      4  N   HIS D  12      15.428   3.931  61.276  1.00 49.28 LIG-0.35  N 
ATOM      5 H    HIS D  12      15.524   4.373  62.007  1.00 49.28 LIG 0.16  HD
BRANCH 4 6
ATOM      6  CA  HIS D  12      14.128   4.084  60.631  1.00 50.49 LIG 0.18  C 
BRANCH 6 7
ATOM      7  C   HIS D  12      14.242   4.806  59.291  1.00 51.38 LIG 0.24  C 
ATOM      8  N   ILE D  13      14.261   4.007  58.236  1.00 53.16 LIG-0.34  N 
ATOM      9 H    ILE D  13      14.241   3.152  58.323  1.00 53.16 LIG 0.16  HD
ATOM     10 O    HIS D  12      14.299   6.025  59.229  1.00 51.57 LIG-0.27  OA
BRANCH 8 11
ATOM     11  CA  ILE D  13      14.315   4.417  56.823  1.00 55.12 LIG 0.19  C 
BRANCH 11 12
ATOM     12  CB  ILE D  13      15.776   4.570  56.264  1.00 55.01 LIG 0.01  C 
ATOM     13  CG2 ILE D  13      16.352   5.982  56.479  1.00 56.15 LIG 0.01  C 
BRANCH 12 14
ATOM     14  CG1 ILE D  13      16.691   3.510  56.885  1.00 55.50 LIG 0.00  C 
ATOM     15  CD1 ILE D  13      16.180   2.052  56.725  1.00 55.45 LIG 0.01  C 
ENDBRANCH 12 14
ENDBRANCH 11 12
BRANCH 11 16
ATOM     16  C   ILE D  13      13.368   3.747  55.823  1.00 55.63 LIG 0.20  C 
ATOM     17 OXT  ILE D  13      13.380   4.156  54.653  1.00 55.86 LIG-0.65  OA
ATOM     18 O    ILE D  13      12.635   2.815  56.162  1.00 56.94 LIG-0.65  OA
ENDBRANCH 11 16
ENDBRANCH 8 11
ENDBRANCH 6 7
BRANCH 6 19
ATOM     19  CB  HIS D  12      13.140   4.816  61.542  1.00 50.55 LIG 0.10  C 
BRANCH 19 20
ATOM     20  CG  HIS D  12      12.488   3.933  62.558  1.00 49.61 LIG 0.05  A 
ATOM     21 ND1  HIS D  12      11.541   4.192  63.491  1.00 49.92 LIG-0.25  NA
ATOM     22  CE1 HIS D  12      11.300   3.018  64.159  1.00 49.12 LIG 0.21  A 
ATOM     23  NE2 HIS D  12      12.052   2.065  63.640  1.00 48.62 LIG-0.36  N 
ATOM     24 HE2  HIS D  12      12.064   1.241  63.888  1.00 48.62 LIG 0.17  HD
ATOM     25  CD2 HIS D  12      12.783   2.592  62.675  1.00 48.49 LIG 0.12  A 
ENDBRANCH 19 20
ENDBRANCH 6 19
ENDBRANCH 4 6
ENDBRANCH 1 2
BRANCH 1 26
ATOM     26  CB  LEU D  11      17.537   2.263  62.711  1.00 47.69 LIG 0.04  C 
BRANCH 26 27
ATOM     27  CG  LEU D  11      17.384   0.744  62.563  1.00 48.05 LIG-0.02  C 
ATOM     28  CD1 LEU D  11      15.913   0.358  62.626  1.00 46.53 LIG 0.01  C 
ATOM     29  CD2 LEU D  11      18.027   0.213  61.304  1.00 50.43 LIG 0.01  C 
ENDBRANCH 26 27
ENDBRANCH 1 26
BRANCH 1 30
ATOM     30  N   LEU D  11      18.194   4.438  61.839  1.00 47.51 LIG-0.35  N 
ATOM     31  C   LEU D  10      18.730   5.289  60.963  1.00 47.80 LIG 0.24  C 
ATOM     32 O    LEU D  10      18.793   5.075  59.744  1.00 47.07 LIG-0.27  OA
ATOM     33 H    LEU D  11      18.106   4.616  62.676  1.00 47.51 LIG 0.16  HD
BRANCH 31 34
ATOM     34  CA  LEU D  10      19.288   6.577  61.556  1.00 47.63 LIG 0.18  C 
BRANCH 34 35
ATOM     35  CB  LEU D  10      18.249   7.695  61.522  1.00 47.29 LIG 0.04  C 
BRANCH 35 36
ATOM     36  CG  LEU D  10      16.803   7.196  61.430  1.00 46.92 LIG-0.02  C 
ATOM     37  CD2 LEU D  10      15.932   8.183  60.727  1.00 45.50 LIG 0.01  C 
ATOM     38  CD1 LEU D  10      16.215   6.892  62.807  1.00 46.83 LIG 0.01  C 
ENDBRANCH 35 36
ENDBRANCH 34 35
BRANCH 34 39
ATOM     39  N   LEU D  10      20.510   6.952  60.866  1.00 47.82 LIG-0.35  N 
ATOM     40 H    LEU D  10      20.450   7.659  60.380  1.00 47.82 LIG 0.16  HD
ATOM     41  C   ASP D   9      21.613   6.227  61.006  1.00 48.63 LIG 0.25  C 
ATOM     42 O    ASP D   9      21.670   5.211  61.696  1.00 48.10 LIG-0.27  OA
BRANCH 41 43
ATOM     43  CA  ASP D   9      22.823   6.712  60.251  1.00 49.27 LIG 0.28  C 
BRANCH 43 44
ATOM     44  N   ASP D   9      22.342   7.567  59.135  1.00 49.86 LIG-0.07  N 
ATOM     45 H2   ASP D   9      21.464   7.689  59.211  1.00 49.86 LIG 0.28  HD
ATOM     46 H3   ASP D   9      22.754   8.355  59.166  1.00 49.86 LIG 0.28  HD
ATOM     47 H1   ASP D   9      22.520   7.170  58.359  1.00 49.86 LIG 0.28  HD
ENDBRANCH 43 44
BRANCH 43 48
ATOM     48  CB  ASP D   9      23.706   7.512  61.198  1.00 50.02 LIG 0.15  C 
BRANCH 48 49
ATOM     49  CG  ASP D   9      24.712   8.358  60.476  1.00 50.84 LIG 0.17  C 
ATOM     50 OD1  ASP D   9      25.864   8.430  60.938  1.00 53.44 LIG-0.65  OA
ATOM     51 OD2  ASP D   9      24.451   8.972  59.417  1.00 53.75 LIG-0.65  OA
ENDBRANCH 48 49
ENDBRANCH 43 48
ENDBRANCH 41 43
ENDBRANCH 34 39
ENDBRANCH 31 34
ENDBRANCH 1 30
TORSDOF 20
ENDMDL
MODEL 68
USER: ADFR SOLUTION from run 12
USER: SCORE 15.930289 LL:  -5.623 LR: -12.191 RR:   0.000 FEB:  -6.225
USER: RMSD 7.185362
USER: SEED 52452
USER: STATUS no improvement in best 5 clusters for 5 generations
USER: GENES 22
USER: genes 0 Translation |==|  0.45584 0.34492 0.45968
USER: genes 1 Rotation |==|  0.14666 0.49407 0.31349 0.80055
USER: genes 2 Torsion [N]-CA--C-[N] |==|  0.83014
USER: genes 3 Torsion [C]-N--CA-[CB] |==|  0.46111
USER: genes 4 Torsion [N]-CA--C-[N] |==|  0.27342
USER: genes 5 Torsion [C]-N--CA-[C] |==|  0.62717
USER: genes 6 Torsion [N]-CA--CB-[CG1] |==|  0.11567
USER: genes 7 Torsion [CA]-CB--CG1-[CD1] |==|  0.66887
USER: genes 8 Torsion [N]-CA--C-[OXT] |==|  0.48959
USER: genes 9 Torsion [N]-CA--CB-[CG] |==|  0.80162
USER: genes 10 Torsion [CA]-CB--CG-[ND1] |==|  0.49408
USER: genes 11 Torsion [C]-CA--CB-[CG] |==|  0.52680
USER: genes 12 Torsion [CA]-CB--CG-[CD2] |==|  0.55264
USER: genes 13 Torsion [C]-CA--N-[C] |==|  0.72076
USER: genes 14 Torsion [N]-C--CA-[N] |==|  0.86886
USER: genes 15 Torsion [C]-CA--CB-[CG] |==|  0.27350
USER: genes 16 Torsion [CA]-CB--CG-[CD2] |==|  0.24235
USER: genes 17 Torsion [C]-CA--N-[C] |==|  0.82303
USER: genes 18 Torsion [N]-C--CA-[N] |==|  0.19113
USER: genes 19 Torsion [C]-CA--N-[H2] |==|  0.05529
USER: genes 20 Torsion [C]-CA--CB-[CG] |==|  0.73430
USER: genes 21 Torsion [CA]-CB--CG-[OD1] |==|  0.35313
ROOT
ATOM      1  CA  LEU D  11      17.105   2.288  61.300  1.00 47.89 LIG 0.18  C 
ENDROOT
BRANCH 1 2
ATOM      2  C   LEU D  11      15.757   2.507  60.627  1.00 48.14 LIG 0.24  C 
ATOM      3 O    LEU D  11      15.444   1.878  59.625  1.00 47.13 LIG-0.27  OA
ATOM      4  N   HIS D  12      14.976   3.437  61.166  1.00 49.28 LIG-0.35  N 
ATOM      5 H    HIS D  12      15.171   3.884  61.874  1.00 49.28 LIG 0.16  HD
BRANCH 4 6
ATOM      6  CA  HIS D  12      13.689   3.768  60.564  1.00 50.49 LIG 0.18  C 
BRANCH 6 7
ATOM      7  C   HIS D  12      13.857   4.507  59.238  1.00 51.38 LIG 0.24  C 
ATOM      8  N   ILE D  13      13.744   3.742  58.165  1.00 53.16 LIG-0.34  N 
ATOM      9 H    ILE D  13      13.617   2.894  58.231  1.00 53.16 LIG 0.16  HD
ATOM     10 O    HIS D  12      14.068   5.711  59.204  1.00 51.57 LIG-0.27  OA
BRANCH 8 11
ATOM     11  CA  ILE D  13      13.811   4.180  56.761  1.00 55.12 LIG 0.19  C 
BRANCH 11 12
ATOM     12  CB  ILE D  13      15.264   4.169  56.162  1.00 55.01 LIG 0.01  C 
ATOM     13  CG2 ILE D  13      16.066   5.435  56.519  1.00 56.15 LIG 0.01  C 
BRANCH 12 14
ATOM     14  CG1 ILE D  13      16.009   2.909  56.615  1.00 55.50 LIG 0.00  C 
ATOM     15  CD1 ILE D  13      17.292   3.188  57.445  1.00 55.45 LIG 0.01  C 
ENDBRANCH 12 14
ENDBRANCH 11 12
BRANCH 11 16
ATOM     16  C   ILE D  13      12.763   3.659  55.773  1.00 55.63 LIG 0.20  C 
ATOM     17 OXT  ILE D  13      12.795   4.096  54.614  1.00 55.86 LIG-0.65  OA
ATOM     18 O    ILE D  13      11.930   2.814  56.112  1.00 56.94 LIG-0.65  OA
ENDBRANCH 11 16
ENDBRANCH 8 11
ENDBRANCH 6 7
BRANCH 6 19
ATOM     19  CB  HIS D  12      12.826   4.593  61.521  1.00 50.55 LIG 0.10  C 
BRANCH 19 20
ATOM     20  CG  HIS D  12      12.295   3.811  62.681  1.00 49.61 LIG 0.05  A 
ATOM     21 ND1  HIS D  12      11.541   4.186  63.741  1.00 49.92 LIG-0.25  NA
ATOM     22  CE1 HIS D  12      11.334   3.066  64.506  1.00 49.12 LIG 0.21  A 
ATOM     23  NE2 HIS D  12      11.918   2.035  63.926  1.00 48.62 LIG-0.36  N 
ATOM     24 HE2  HIS D  12      11.914   1.225  64.216  1.00 48.62 LIG 0.17  HD
ATOM     25  CD2 HIS D  12      12.510   2.458  62.824  1.00 48.49 LIG 0.12  A 
ENDBRANCH 19 20
ENDBRANCH 6 19
ENDBRANCH 4 6
ENDBRANCH 1 2
BRANCH 1 26
ATOM     26  CB  LEU D  11      16.843   1.862  62.740  1.00 47.69 LIG 0.04  C 
BRANCH 26 27
ATOM     27  CG  LEU D  11      18.016   1.786  63.725  1.00 48.05 LIG-0.02  C 
ATOM     28  CD1 LEU D  11      18.446   3.187  64.136  1.00 46.53 LIG 0.01  C 
ATOM     29  CD2 LEU D  11      17.708   0.940  64.938  1.00 50.43 LIG 0.01  C 
ENDBRANCH 26 27
ENDBRANCH 1 26
BRANCH 1 30
ATOM     30  N   LEU D  11      17.956   3.468  61.291  1.00 47.51 LIG-0.35  N 
ATOM     31  C   LEU D  10      18.955   3.634  60.422  1.00 47.80 LIG 0.24  C 
ATOM     32 O    LEU D  10      19.203   2.844  59.499  1.00 47.07 LIG-0.27  OA
ATOM     33 H    LEU D  11      17.756   4.046  61.895  1.00 47.51 LIG 0.16  HD
BRANCH 31 34
ATOM     34  CA  LEU D  10      19.807   4.879  60.630  1.00 47.63 LIG 0.18  C 
BRANCH 34 35
ATOM     35  CB  LEU D  10      20.785   4.690  61.787  1.00 47.29 LIG 0.04  C 
BRANCH 35 36
ATOM     36  CG  LEU D  10      22.201   4.304  61.346  1.00 46.92 LIG-0.02  C 
ATOM     37  CD2 LEU D  10      23.027   5.512  61.054  1.00 45.50 LIG 0.01  C 
ATOM     38  CD1 LEU D  10      22.190   3.391  60.121  1.00 46.83 LIG 0.01  C 
ENDBRANCH 35 36
ENDBRANCH 34 35
BRANCH 34 39
ATOM     39  N   LEU D  10      18.953   6.037  60.827  1.00 47.82 LIG-0.35  N 
ATOM     40 H    LEU D  10      19.020   6.411  61.599  1.00 47.82 LIG 0.16  HD
ATOM     41  C   ASP D   9      18.145   6.452  59.859  1.00 48.63 LIG 0.25  C 
ATOM     42 O    ASP D   9      18.056   5.893  58.768  1.00 48.10 LIG-0.27  OA
BRANCH 41 43
ATOM     43  CA  ASP D   9      17.311   7.667  60.170  1.00 49.27 LIG 0.28  C 
BRANCH 43 44
ATOM     44  N   ASP D   9      18.229   8.831  60.263  1.00 49.86 LIG-0.07  N 
ATOM     45 H2   ASP D   9      18.992   8.641  59.847  1.00 49.86 LIG 0.28  HD
ATOM     46 H3   ASP D   9      17.850   9.539  59.880  1.00 49.86 LIG 0.28  HD
ATOM     47 H1   ASP D   9      18.395   9.011  61.119  1.00 49.86 LIG 0.28  HD
ENDBRANCH 43 44
BRANCH 43 48
ATOM     48  CB  ASP D   9      16.300   7.869  59.050  1.00 50.02 LIG 0.15  C 
BRANCH 48 49
ATOM     49  CG  ASP D   9      16.770   8.849  58.016  1.00 50.84 LIG 0.17  C 
ATOM     50 OD1  ASP D   9      16.762   8.499  56.823  1.00 53.44 LIG-0.65  OA
ATOM     51 OD2  ASP D   9      17.145  10.010  58.298  1.00 53.75 LIG-0.65  OA
ENDBRANCH 48 49
ENDBRANCH 43 48
ENDBRANCH 41 43
ENDBRANCH 34 39
ENDBRANCH 31 34
ENDBRANCH 1 30
TORSDOF 20
ENDMDL
MODEL 69
USER: ADFR SOLUTION from run 76
USER: SCORE 15.808658 LL:  -5.628 LR: -12.181 RR:   0.000 FEB:  -6.215
USER: RMSD 11.798242
USER: SEED 75
USER: STATUS no improvement in best 14 clusters for 5 generations
USER: GENES 22
USER: genes 0 Translation |==|  0.42932 0.31300 0.36071
USER: genes 1 Rotation |==|  0.76654 0.10655 0.63211 0.58185
USER: genes 2 Torsion [N]-CA--C-[N] |==|  0.26498
USER: genes 3 Torsion [C]-N--CA-[CB] |==|  0.48167
USER: genes 4 Torsion [N]-CA--C-[N] |==|  0.95712
USER: genes 5 Torsion [C]-N--CA-[C] |==|  0.21608
USER: genes 6 Torsion [N]-CA--CB-[CG1] |==|  0.89762
USER: genes 7 Torsion [CA]-CB--CG1-[CD1] |==|  0.50210
USER: genes 8 Torsion [N]-CA--C-[OXT] |==|  0.69147
USER: genes 9 Torsion [N]-CA--CB-[CG] |==|  0.96039
USER: genes 10 Torsion [CA]-CB--CG-[ND1] |==|  0.75272
USER: genes 11 Torsion [C]-CA--CB-[CG] |==|  0.26983
USER: genes 12 Torsion [CA]-CB--CG-[CD2] |==|  0.93062
USER: genes 13 Torsion [C]-CA--N-[C] |==|  0.78986
USER: genes 14 Torsion [N]-C--CA-[N] |==|  0.33903
USER: genes 15 Torsion [C]-CA--CB-[CG] |==|  0.72621
USER: genes 16 Torsion [CA]-CB--CG-[CD2] |==|  0.55847
USER: genes 17 Torsion [C]-CA--N-[C] |==|  0.82285
USER: genes 18 Torsion [N]-C--CA-[N] |==|  0.58671
USER: genes 19 Torsion [C]-CA--N-[H2] |==|  0.06472
USER: genes 20 Torsion [C]-CA--CB-[CG] |==|  0.76488
USER: genes 21 Torsion [CA]-CB--CG-[OD1] |==|  0.80212
ROOT
ATOM      1  CA  LEU D  11      16.309   1.330  58.331  1.00 47.89 LIG 0.18  C 
ENDROOT
BRANCH 1 2
ATOM      2  C   LEU D  11      16.952   2.669  57.995  1.00 48.14 LIG 0.24  C 
ATOM      3 O    LEU D  11      18.166   2.816  58.046  1.00 47.13 LIG-0.27  OA
ATOM      4  N   HIS D  12      16.120   3.659  57.689  1.00 49.28 LIG-0.35  N 
ATOM      5 H    HIS D  12      15.265   3.577  57.638  1.00 49.28 LIG 0.16  HD
BRANCH 4 6
ATOM      6  CA  HIS D  12      16.627   4.998  57.409  1.00 50.49 LIG 0.18  C 
BRANCH 6 7
ATOM      7  C   HIS D  12      17.324   5.606  58.624  1.00 51.38 LIG 0.24  C 
ATOM      8  N   ILE D  13      17.075   4.988  59.767  1.00 53.16 LIG-0.34  N 
ATOM      9 H    ILE D  13      16.536   4.319  59.805  1.00 53.16 LIG 0.16  HD
ATOM     10 O    HIS D  12      18.055   6.580  58.516  1.00 51.57 LIG-0.27  OA
BRANCH 8 11
ATOM     11  CA  ILE D  13      17.639   5.317  61.086  1.00 55.12 LIG 0.19  C 
BRANCH 11 12
ATOM     12  CB  ILE D  13      19.209   5.256  61.137  1.00 55.01 LIG 0.01  C 
ATOM     13  CG2 ILE D  13      19.756   5.140  62.572  1.00 56.15 LIG 0.01  C 
BRANCH 12 14
ATOM     14  CG1 ILE D  13      19.718   4.102  60.267  1.00 55.50 LIG 0.00  C 
ATOM     15  CD1 ILE D  13      21.262   3.940  60.260  1.00 55.45 LIG 0.01  C 
ENDBRANCH 12 14
ENDBRANCH 11 12
BRANCH 11 16
ATOM     16  C   ILE D  13      17.071   6.512  61.856  1.00 55.63 LIG 0.20  C 
ATOM     17 OXT  ILE D  13      17.796   7.508  61.994  1.00 55.86 LIG-0.65  OA
ATOM     18 O    ILE D  13      15.921   6.497  62.302  1.00 56.94 LIG-0.65  OA
ENDBRANCH 11 16
ENDBRANCH 8 11
ENDBRANCH 6 7
BRANCH 6 19
ATOM     19  CB  HIS D  12      15.509   5.924  56.925  1.00 50.55 LIG 0.10  C 
BRANCH 19 20
ATOM     20  CG  HIS D  12      14.260   5.205  56.526  1.00 49.61 LIG 0.05  A 
ATOM     21 ND1  HIS D  12      13.870   4.683  55.339  1.00 49.92 LIG-0.25  NA
ATOM     22  CE1 HIS D  12      12.629   4.128  55.530  1.00 49.12 LIG 0.21  A 
ATOM     23  NE2 HIS D  12      12.279   4.279  56.793  1.00 48.62 LIG-0.36  N 
ATOM     24 HE2  HIS D  12      11.548   4.001  57.150  1.00 48.62 LIG 0.17  HD
ATOM     25  CD2 HIS D  12      13.244   4.931  57.416  1.00 48.49 LIG 0.12  A 
ENDBRANCH 19 20
ENDBRANCH 6 19
ENDBRANCH 4 6
ENDBRANCH 1 2
BRANCH 1 26
ATOM     26  CB  LEU D  11      17.129   0.687  59.445  1.00 47.69 LIG 0.04  C 
BRANCH 26 27
ATOM     27  CG  LEU D  11      16.664   0.835  60.899  1.00 48.05 LIG-0.02  C 
ATOM     28  CD1 LEU D  11      17.864   0.834  61.835  1.00 46.53 LIG 0.01  C 
ATOM     29  CD2 LEU D  11      15.811   2.062  61.117  1.00 50.43 LIG 0.01  C 
ENDBRANCH 26 27
ENDBRANCH 1 26
BRANCH 1 30
ATOM     30  N   LEU D  11      16.236   0.422  57.196  1.00 47.51 LIG-0.35  N 
ATOM     31  C   LEU D  10      15.346   0.564  56.213  1.00 47.80 LIG 0.24  C 
ATOM     32 O    LEU D  10      14.556   1.515  56.130  1.00 47.07 LIG-0.27  OA
ATOM     33 H    LEU D  11      16.817  -0.212  57.220  1.00 47.51 LIG 0.16  HD
BRANCH 31 34
ATOM     34  CA  LEU D  10      15.344  -0.542  55.165  1.00 47.63 LIG 0.18  C 
BRANCH 34 35
ATOM     35  CB  LEU D  10      15.805  -0.018  53.809  1.00 47.29 LIG 0.04  C 
BRANCH 35 36
ATOM     36  CG  LEU D  10      14.657   0.316  52.849  1.00 46.92 LIG-0.02  C 
ATOM     37  CD2 LEU D  10      15.123   0.330  51.431  1.00 45.50 LIG 0.01  C 
ATOM     38  CD1 LEU D  10      14.006   1.657  53.181  1.00 46.83 LIG 0.01  C 
ENDBRANCH 35 36
ENDBRANCH 34 35
BRANCH 34 39
ATOM     39  N   LEU D  10      14.027  -1.152  55.092  1.00 47.82 LIG-0.35  N 
ATOM     40 H    LEU D  10      13.624  -1.055  54.338  1.00 47.82 LIG 0.16  HD
ATOM     41  C   ASP D   9      13.525  -1.802  56.134  1.00 48.63 LIG 0.25  C 
ATOM     42 O    ASP D   9      14.115  -1.916  57.207  1.00 48.10 LIG-0.27  OA
BRANCH 41 43
ATOM     43  CA  ASP D   9      12.157  -2.401  55.943  1.00 49.27 LIG 0.28  C 
BRANCH 43 44
ATOM     44  N   ASP D   9      11.469  -2.382  57.260  1.00 49.86 LIG-0.07  N 
ATOM     45 H2   ASP D   9      11.832  -1.753  57.775  1.00 49.86 LIG 0.28  HD
ATOM     46 H3   ASP D   9      10.605  -2.207  57.141  1.00 49.86 LIG 0.28  HD
ATOM     47 H1   ASP D   9      11.560  -3.175  57.654  1.00 49.86 LIG 0.28  HD
ENDBRANCH 43 44
BRANCH 43 48
ATOM     48  CB  ASP D   9      11.392  -1.564  54.927  1.00 50.02 LIG 0.15  C 
BRANCH 48 49
ATOM     49  CG  ASP D   9      10.715  -0.377  55.546  1.00 50.84 LIG 0.17  C 
ATOM     50 OD1  ASP D   9       9.726  -0.573  56.273  1.00 53.44 LIG-0.65  OA
ATOM     51 OD2  ASP D   9      11.117   0.797  55.385  1.00 53.75 LIG-0.65  OA
ENDBRANCH 48 49
ENDBRANCH 43 48
ENDBRANCH 41 43
ENDBRANCH 34 39
ENDBRANCH 31 34
ENDBRANCH 1 30
TORSDOF 20
ENDMDL
MODEL 70
USER: ADFR SOLUTION from run 61
USER: SCORE 16.578196 LL:  -5.035 LR: -12.172 RR:   0.000 FEB:  -6.206
USER: RMSD 6.360977
USER: SEED 60
USER: STATUS no improvement in best 7 clusters for 5 generations
USER: GENES 22
USER: genes 0 Translation |==|  0.48022 0.42613 0.41219
USER: genes 1 Rotation |==|  0.72228 0.65584 0.85945 0.71703
USER: genes 2 Torsion [N]-CA--C-[N] |==|  0.45556
USER: genes 3 Torsion [C]-N--CA-[CB] |==|  0.23330
USER: genes 4 Torsion [N]-CA--C-[N] |==|  0.99567
USER: genes 5 Torsion [C]-N--CA-[C] |==|  0.77709
USER: genes 6 Torsion [N]-CA--CB-[CG1] |==|  0.98926
USER: genes 7 Torsion [CA]-CB--CG1-[CD1] |==|  0.24457
USER: genes 8 Torsion [N]-CA--C-[OXT] |==|  0.76246
USER: genes 9 Torsion [N]-CA--CB-[CG] |==|  0.97941
USER: genes 10 Torsion [CA]-CB--CG-[ND1] |==|  0.69186
USER: genes 11 Torsion [C]-CA--CB-[CG] |==|  0.45832
USER: genes 12 Torsion [CA]-CB--CG-[CD2] |==|  0.31451
USER: genes 13 Torsion [C]-CA--N-[C] |==|  0.75888
USER: genes 14 Torsion [N]-C--CA-[N] |==|  0.02647
USER: genes 15 Torsion [C]-CA--CB-[CG] |==|  0.89782
USER: genes 16 Torsion [CA]-CB--CG-[CD2] |==|  0.76879
USER: genes 17 Torsion [C]-CA--N-[C] |==|  0.71671
USER: genes 18 Torsion [N]-C--CA-[N] |==|  0.87298
USER: genes 19 Torsion [C]-CA--N-[H2] |==|  0.28102
USER: genes 20 Torsion [C]-CA--CB-[CG] |==|  0.45505
USER: genes 21 Torsion [CA]-CB--CG-[OD1] |==|  0.60376
ROOT
ATOM      1  CA  LEU D  11      17.837   4.724  59.876  1.00 47.89 LIG 0.18  C 
ENDROOT
BRANCH 1 2
ATOM      2  C   LEU D  11      17.747   3.454  59.039  1.00 48.14 LIG 0.24  C 
ATOM      3 O    LEU D  11      18.755   2.837  58.722  1.00 47.13 LIG-0.27  OA
ATOM      4  N   HIS D  12      16.529   3.092  58.651  1.00 49.28 LIG-0.35  N 
ATOM      5 H    HIS D  12      15.807   3.504  58.869  1.00 49.28 LIG 0.16  HD
BRANCH 4 6
ATOM      6  CA  HIS D  12      16.337   1.925  57.796  1.00 50.49 LIG 0.18  C 
BRANCH 6 7
ATOM      7  C   HIS D  12      15.077   2.050  56.942  1.00 51.38 LIG 0.24  C 
ATOM      8  N   ILE D  13      14.381   3.156  57.148  1.00 53.16 LIG-0.34  N 
ATOM      9 H    ILE D  13      14.619   3.731  57.742  1.00 53.16 LIG 0.16  HD
ATOM     10 O    HIS D  12      14.768   1.185  56.135  1.00 51.57 LIG-0.27  OA
BRANCH 8 11
ATOM     11  CA  ILE D  13      13.156   3.569  56.442  1.00 55.12 LIG 0.19  C 
BRANCH 11 12
ATOM     12  CB  ILE D  13      12.113   4.302  57.360  1.00 55.01 LIG 0.01  C 
ATOM     13  CG2 ILE D  13      10.704   3.688  57.270  1.00 56.15 LIG 0.01  C 
BRANCH 12 14
ATOM     14  CG1 ILE D  13      12.607   4.317  58.810  1.00 55.50 LIG 0.00  C 
ATOM     15  CD1 ILE D  13      13.510   5.530  59.165  1.00 55.45 LIG 0.01  C 
ENDBRANCH 12 14
ENDBRANCH 11 12
BRANCH 11 16
ATOM     16  C   ILE D  13      13.283   4.217  55.060  1.00 55.63 LIG 0.20  C 
ATOM     17 OXT  ILE D  13      13.479   5.439  55.011  1.00 55.86 LIG-0.65  OA
ATOM     18 O    ILE D  13      13.219   3.541  54.030  1.00 56.94 LIG-0.65  OA
ENDBRANCH 11 16
ENDBRANCH 8 11
ENDBRANCH 6 7
BRANCH 6 19
ATOM     19  CB  HIS D  12      16.289   0.636  58.620  1.00 50.55 LIG 0.10  C 
BRANCH 19 20
ATOM     20  CG  HIS D  12      16.621   0.831  60.065  1.00 49.61 LIG 0.05  A 
ATOM     21 ND1  HIS D  12      17.689   0.436  60.797  1.00 49.92 LIG-0.25  NA
ATOM     22  CE1 HIS D  12      17.489   0.886  62.079  1.00 49.12 LIG 0.21  A 
ATOM     23  NE2 HIS D  12      16.351   1.553  62.128  1.00 48.62 LIG-0.36  N 
ATOM     24 HE2  HIS D  12      16.022   1.938  62.824  1.00 48.62 LIG 0.17  HD
ATOM     25  CD2 HIS D  12      15.805   1.532  60.927  1.00 48.49 LIG 0.12  A 
ENDBRANCH 19 20
ENDBRANCH 6 19
ENDBRANCH 4 6
ENDBRANCH 1 2
BRANCH 1 26
ATOM     26  CB  LEU D  11      17.628   5.911  58.943  1.00 47.69 LIG 0.04  C 
BRANCH 26 27
ATOM     27  CG  LEU D  11      17.321   7.290  59.542  1.00 48.05 LIG-0.02  C 
ATOM     28  CD1 LEU D  11      17.006   7.157  61.025  1.00 46.53 LIG 0.01  C 
ATOM     29  CD2 LEU D  11      18.432   8.287  59.313  1.00 50.43 LIG 0.01  C 
ENDBRANCH 26 27
ENDBRANCH 1 26
BRANCH 1 30
ATOM     30  N   LEU D  11      19.107   4.870  60.572  1.00 47.51 LIG-0.35  N 
ATOM     31  C   LEU D  10      19.339   4.339  61.773  1.00 47.80 LIG 0.24  C 
ATOM     32 O    LEU D  10      18.534   3.613  62.372  1.00 47.07 LIG-0.27  OA
ATOM     33 H    LEU D  11      19.690   5.329  60.138  1.00 47.51 LIG 0.16  HD
BRANCH 31 34
ATOM     34  CA  LEU D  10      20.685   4.687  62.395  1.00 47.63 LIG 0.18  C 
BRANCH 34 35
ATOM     35  CB  LEU D  10      20.528   5.090  63.858  1.00 47.29 LIG 0.04  C 
BRANCH 35 36
ATOM     36  CG  LEU D  10      19.256   5.895  64.148  1.00 46.92 LIG-0.02  C 
ATOM     37  CD2 LEU D  10      19.449   7.343  63.843  1.00 45.50 LIG 0.01  C 
ATOM     38  CD1 LEU D  10      18.799   5.739  65.597  1.00 46.83 LIG 0.01  C 
ENDBRANCH 35 36
ENDBRANCH 34 35
BRANCH 34 39
ATOM     39  N   LEU D  10      21.339   5.724  61.614  1.00 47.82 LIG-0.35  N 
ATOM     40 H    LEU D  10      21.040   6.519  61.746  1.00 47.82 LIG 0.16  HD
ATOM     41  C   ASP D   9      22.319   5.418  60.774  1.00 48.63 LIG 0.25  C 
ATOM     42 O    ASP D   9      22.719   4.270  60.592  1.00 48.10 LIG-0.27  OA
BRANCH 41 43
ATOM     43  CA  ASP D   9      22.929   6.572  60.022  1.00 49.27 LIG 0.28  C 
BRANCH 43 44
ATOM     44  N   ASP D   9      21.816   7.413  59.510  1.00 49.86 LIG-0.07  N 
ATOM     45 H2   ASP D   9      21.717   8.126  60.034  1.00 49.86 LIG 0.28  HD
ATOM     46 H3   ASP D   9      22.001   7.678  58.681  1.00 49.86 LIG 0.28  HD
ATOM     47 H1   ASP D   9      21.062   6.940  59.509  1.00 49.86 LIG 0.28  HD
ENDBRANCH 43 44
BRANCH 43 48
ATOM     48  CB  ASP D   9      23.809   7.369  60.975  1.00 50.02 LIG 0.15  C 
BRANCH 48 49
ATOM     49  CG  ASP D   9      24.752   8.290  60.258  1.00 50.84 LIG 0.17  C 
ATOM     50 OD1  ASP D   9      25.895   8.442  60.721  1.00 53.44 LIG-0.65  OA
ATOM     51 OD2  ASP D   9      24.447   8.891  59.204  1.00 53.75 LIG-0.65  OA
ENDBRANCH 48 49
ENDBRANCH 43 48
ENDBRANCH 41 43
ENDBRANCH 34 39
ENDBRANCH 31 34
ENDBRANCH 1 30
TORSDOF 20
ENDMDL
MODEL 71
USER: ADFR SOLUTION from run 152
USER: SCORE 15.632492 LL:  -4.743 LR: -12.170 RR:   0.000 FEB:  -6.204
USER: RMSD 10.948598
USER: SEED 151
USER: STATUS no improvement in best 22 clusters for 5 generations
USER: GENES 22
USER: genes 0 Translation |==|  0.43574 0.29899 0.35847
USER: genes 1 Rotation |==|  0.20794 0.25097 0.43193 0.81313
USER: genes 2 Torsion [N]-CA--C-[N] |==|  0.07765
USER: genes 3 Torsion [C]-N--CA-[CB] |==|  0.21536
USER: genes 4 Torsion [N]-CA--C-[N] |==|  0.76124
USER: genes 5 Torsion [C]-N--CA-[C] |==|  0.62765
USER: genes 6 Torsion [N]-CA--CB-[CG1] |==|  0.98690
USER: genes 7 Torsion [CA]-CB--CG1-[CD1] |==|  0.56420
USER: genes 8 Torsion [N]-CA--C-[OXT] |==|  0.46052
USER: genes 9 Torsion [N]-CA--CB-[CG] |==|  0.75294
USER: genes 10 Torsion [CA]-CB--CG-[ND1] |==|  0.89538
USER: genes 11 Torsion [C]-CA--CB-[CG] |==|  0.42862
USER: genes 12 Torsion [CA]-CB--CG-[CD2] |==|  0.77956
USER: genes 13 Torsion [C]-CA--N-[C] |==|  0.68363
USER: genes 14 Torsion [N]-C--CA-[N] |==|  0.94129
USER: genes 15 Torsion [C]-CA--CB-[CG] |==|  0.92311
USER: genes 16 Torsion [CA]-CB--CG-[CD2] |==|  0.64951
USER: genes 17 Torsion [C]-CA--N-[C] |==|  0.82606
USER: genes 18 Torsion [N]-C--CA-[N] |==|  0.92803
USER: genes 19 Torsion [C]-CA--N-[H2] |==|  0.59948
USER: genes 20 Torsion [C]-CA--CB-[CG] |==|  0.91891
USER: genes 21 Torsion [CA]-CB--CG-[OD1] |==|  0.29713
ROOT
ATOM      1  CA  LEU D  11      16.502   0.910  58.264  1.00 47.89 LIG 0.18  C 
ENDROOT
BRANCH 1 2
ATOM      2  C   LEU D  11      15.976  -0.151  57.306  1.00 48.14 LIG 0.24  C 
ATOM      3 O    LEU D  11      15.962  -1.333  57.621  1.00 47.13 LIG-0.27  OA
ATOM      4  N   HIS D  12      15.580   0.280  56.113  1.00 49.28 LIG-0.35  N 
ATOM      5 H    HIS D  12      15.573   1.106  55.873  1.00 49.28 LIG 0.16  HD
BRANCH 4 6
ATOM      6  CA  HIS D  12      15.115  -0.659  55.098  1.00 50.49 LIG 0.18  C 
BRANCH 6 7
ATOM      7  C   HIS D  12      15.204  -0.066  53.694  1.00 51.38 LIG 0.24  C 
ATOM      8  N   ILE D  13      14.152   0.650  53.333  1.00 53.16 LIG-0.34  N 
ATOM      9 H    ILE D  13      13.471   0.737  53.850  1.00 53.16 LIG 0.16  HD
ATOM     10 O    HIS D  12      16.185  -0.250  52.988  1.00 51.57 LIG-0.27  OA
BRANCH 8 11
ATOM     11  CA  ILE D  13      13.976   1.377  52.064  1.00 55.12 LIG 0.19  C 
BRANCH 11 12
ATOM     12  CB  ILE D  13      13.313   0.517  50.928  1.00 55.01 LIG 0.01  C 
ATOM     13  CG2 ILE D  13      14.111   0.553  49.611  1.00 56.15 LIG 0.01  C 
BRANCH 12 14
ATOM     14  CG1 ILE D  13      13.119  -0.926  51.406  1.00 55.50 LIG 0.00  C 
ATOM     15  CD1 ILE D  13      13.018  -1.970  50.261  1.00 55.45 LIG 0.01  C 
ENDBRANCH 12 14
ENDBRANCH 11 12
BRANCH 11 16
ATOM     16  C   ILE D  13      13.445   2.813  52.103  1.00 55.63 LIG 0.20  C 
ATOM     17 OXT  ILE D  13      13.556   3.497  51.076  1.00 55.86 LIG-0.65  OA
ATOM     18 O    ILE D  13      12.903   3.267  53.113  1.00 56.94 LIG-0.65  OA
ENDBRANCH 11 16
ENDBRANCH 8 11
ENDBRANCH 6 7
BRANCH 6 19
ATOM     19  CB  HIS D  12      13.685  -1.123  55.385  1.00 50.55 LIG 0.10  C 
BRANCH 19 20
ATOM     20  CG  HIS D  12      13.608  -2.333  56.261  1.00 49.61 LIG 0.05  A 
ATOM     21 ND1  HIS D  12      14.382  -3.442  56.323  1.00 49.92 LIG-0.25  NA
ATOM     22  CE1 HIS D  12      13.866  -4.240  57.314  1.00 49.12 LIG 0.21  A 
ATOM     23  NE2 HIS D  12      12.827  -3.634  57.857  1.00 48.62 LIG-0.36  N 
ATOM     24 HE2  HIS D  12      12.350  -3.937  58.505  1.00 48.62 LIG 0.17  HD
ATOM     25  CD2 HIS D  12      12.646  -2.483  57.237  1.00 48.49 LIG 0.12  A 
ENDBRANCH 19 20
ENDBRANCH 6 19
ENDBRANCH 4 6
ENDBRANCH 1 2
BRANCH 1 26
ATOM     26  CB  LEU D  11      16.181   0.455  59.683  1.00 47.69 LIG 0.04  C 
BRANCH 26 27
ATOM     27  CG  LEU D  11      17.052   0.951  60.844  1.00 48.05 LIG-0.02  C 
ATOM     28  CD1 LEU D  11      16.269   0.891  62.148  1.00 46.53 LIG 0.01  C 
ATOM     29  CD2 LEU D  11      18.355   0.197  60.962  1.00 50.43 LIG 0.01  C 
ENDBRANCH 26 27
ENDBRANCH 1 26
BRANCH 1 30
ATOM     30  N   LEU D  11      15.932   2.230  58.037  1.00 47.51 LIG-0.35  N 
ATOM     31  C   LEU D  10      16.655   3.267  57.612  1.00 47.80 LIG 0.24  C 
ATOM     32 O    LEU D  10      17.852   3.190  57.298  1.00 47.07 LIG-0.27  OA
ATOM     33 H    LEU D  11      15.090   2.278  58.202  1.00 47.51 LIG 0.16  HD
BRANCH 31 34
ATOM     34  CA  LEU D  10      15.915   4.596  57.535  1.00 47.63 LIG 0.18  C 
BRANCH 34 35
ATOM     35  CB  LEU D  10      16.288   5.502  58.705  1.00 47.29 LIG 0.04  C 
BRANCH 35 36
ATOM     36  CG  LEU D  10      16.716   4.744  59.966  1.00 46.92 LIG-0.02  C 
ATOM     37  CD2 LEU D  10      15.920   5.174  61.153  1.00 45.50 LIG 0.01  C 
ATOM     38  CD1 LEU D  10      18.203   4.923  60.264  1.00 46.83 LIG 0.01  C 
ENDBRANCH 35 36
ENDBRANCH 34 35
BRANCH 34 39
ATOM     39  N   LEU D  10      14.483   4.362  57.466  1.00 47.82 LIG-0.35  N 
ATOM     40 H    LEU D  10      14.031   4.677  58.126  1.00 47.82 LIG 0.16  HD
ATOM     41  C   ASP D   9      13.955   3.707  56.439  1.00 48.63 LIG 0.25  C 
ATOM     42 O    ASP D   9      14.623   3.253  55.513  1.00 48.10 LIG-0.27  OA
BRANCH 41 43
ATOM     43  CA  ASP D   9      12.460   3.529  56.468  1.00 49.27 LIG 0.28  C 
BRANCH 43 44
ATOM     44  N   ASP D   9      12.029   3.568  57.889  1.00 49.86 LIG-0.07  N 
ATOM     45 H2   ASP D   9      11.356   3.000  58.011  1.00 49.86 LIG 0.28  HD
ATOM     46 H3   ASP D   9      12.711   3.337  58.412  1.00 49.86 LIG 0.28  HD
ATOM     47 H1   ASP D   9      11.763   4.392  58.096  1.00 49.86 LIG 0.28  HD
ENDBRANCH 43 44
BRANCH 43 48
ATOM     48  CB  ASP D   9      11.815   4.661  55.680  1.00 50.02 LIG 0.15  C 
BRANCH 48 49
ATOM     49  CG  ASP D   9      12.629   5.920  55.705  1.00 50.84 LIG 0.17  C 
ATOM     50 OD1  ASP D   9      13.238   6.252  54.673  1.00 53.44 LIG-0.65  OA
ATOM     51 OD2  ASP D   9      12.701   6.665  56.709  1.00 53.75 LIG-0.65  OA
ENDBRANCH 48 49
ENDBRANCH 43 48
ENDBRANCH 41 43
ENDBRANCH 34 39
ENDBRANCH 31 34
ENDBRANCH 1 30
TORSDOF 20
ENDMDL
MODEL 72
USER: ADFR SOLUTION from run 139
USER: SCORE 16.126887 LL:  -4.364 LR: -12.173 RR:   0.000 FEB:  -6.207
USER: RMSD 10.041327
USER: SEED 138
USER: STATUS no improvement in best 11 clusters for 5 generations
USER: GENES 22
USER: genes 0 Translation |==|  0.43406 0.32382 0.35271
USER: genes 1 Rotation |==|  0.28518 0.31847 0.37725 0.89475
USER: genes 2 Torsion [N]-CA--C-[N] |==|  0.46010
USER: genes 3 Torsion [C]-N--CA-[CB] |==|  0.84324
USER: genes 4 Torsion [N]-CA--C-[N] |==|  0.35001
USER: genes 5 Torsion [C]-N--CA-[C] |==|  0.86831
USER: genes 6 Torsion [N]-CA--CB-[CG1] |==|  0.09312
USER: genes 7 Torsion [CA]-CB--CG1-[CD1] |==|  0.63397
USER: genes 8 Torsion [N]-CA--C-[OXT] |==|  0.83203
USER: genes 9 Torsion [N]-CA--CB-[CG] |==|  0.80973
USER: genes 10 Torsion [CA]-CB--CG-[ND1] |==|  0.25769
USER: genes 11 Torsion [C]-CA--CB-[CG] |==|  0.47955
USER: genes 12 Torsion [CA]-CB--CG-[CD2] |==|  0.31894
USER: genes 13 Torsion [C]-CA--N-[C] |==|  0.82171
USER: genes 14 Torsion [N]-C--CA-[N] |==|  0.49126
USER: genes 15 Torsion [C]-CA--CB-[CG] |==|  0.20881
USER: genes 16 Torsion [CA]-CB--CG-[CD2] |==|  0.43499
USER: genes 17 Torsion [C]-CA--N-[C] |==|  0.75398
USER: genes 18 Torsion [N]-C--CA-[N] |==|  0.65899
USER: genes 19 Torsion [C]-CA--N-[H2] |==|  0.73959
USER: genes 20 Torsion [C]-CA--CB-[CG] |==|  0.77735
USER: genes 21 Torsion [CA]-CB--CG-[OD1] |==|  0.84580
ROOT
ATOM      1  CA  LEU D  11      16.452   1.655  58.091  1.00 47.89 LIG 0.18  C 
ENDROOT
BRANCH 1 2
ATOM      2  C   LEU D  11      15.667   1.269  56.844  1.00 48.14 LIG 0.24  C 
ATOM      3 O    LEU D  11      14.610   1.821  56.570  1.00 47.13 LIG-0.27  OA
ATOM      4  N   HIS D  12      16.176   0.286  56.111  1.00 49.28 LIG-0.35  N 
ATOM      5 H    HIS D  12      16.921  -0.110  56.279  1.00 49.28 LIG 0.16  HD
BRANCH 4 6
ATOM      6  CA  HIS D  12      15.474  -0.203  54.929  1.00 50.49 LIG 0.18  C 
BRANCH 6 7
ATOM      7  C   HIS D  12      15.430   0.848  53.821  1.00 51.38 LIG 0.24  C 
ATOM      8  N   ILE D  13      15.895   0.435  52.654  1.00 53.16 LIG-0.34  N 
ATOM      9 H    ILE D  13      16.219  -0.355  52.555  1.00 53.16 LIG 0.16  HD
ATOM     10 O    HIS D  12      14.987   1.969  54.027  1.00 51.57 LIG-0.27  OA
BRANCH 8 11
ATOM     11  CA  ILE D  13      15.934   1.207  51.400  1.00 55.12 LIG 0.19  C 
BRANCH 11 12
ATOM     12  CB  ILE D  13      16.635   0.452  50.213  1.00 55.01 LIG 0.01  C 
ATOM     13  CG2 ILE D  13      18.146   0.738  50.135  1.00 56.15 LIG 0.01  C 
BRANCH 12 14
ATOM     14  CG1 ILE D  13      16.372  -1.053  50.319  1.00 55.50 LIG 0.00  C 
ATOM     15  CD1 ILE D  13      17.641  -1.936  50.167  1.00 55.45 LIG 0.01  C 
ENDBRANCH 12 14
ENDBRANCH 11 12
BRANCH 11 16
ATOM     16  C   ILE D  13      14.677   1.962  50.958  1.00 55.63 LIG 0.20  C 
ATOM     17 OXT  ILE D  13      13.650   1.301  50.748  1.00 55.86 LIG-0.65  OA
ATOM     18 O    ILE D  13      14.678   3.190  50.840  1.00 56.94 LIG-0.65  OA
ENDBRANCH 11 16
ENDBRANCH 8 11
ENDBRANCH 6 7
BRANCH 6 19
ATOM     19  CB  HIS D  12      14.057  -0.662  55.276  1.00 50.55 LIG 0.10  C 
BRANCH 19 20
ATOM     20  CG  HIS D  12      14.012  -1.897  56.119  1.00 49.61 LIG 0.05  A 
ATOM     21 ND1  HIS D  12      13.956  -2.060  57.462  1.00 49.92 LIG-0.25  NA
ATOM     22  CE1 HIS D  12      13.930  -3.411  57.704  1.00 49.12 LIG 0.21  A 
ATOM     23  NE2 HIS D  12      13.944  -4.055  56.552  1.00 48.62 LIG-0.36  N 
ATOM     24 HE2  HIS D  12      13.922  -4.909  56.452  1.00 48.62 LIG 0.17  HD
ATOM     25  CD2 HIS D  12      13.999  -3.165  55.579  1.00 48.49 LIG 0.12  A 
ENDBRANCH 19 20
ENDBRANCH 6 19
ENDBRANCH 4 6
ENDBRANCH 1 2
BRANCH 1 26
ATOM     26  CB  LEU D  11      16.259   0.549  59.123  1.00 47.69 LIG 0.04  C 
BRANCH 26 27
ATOM     27  CG  LEU D  11      17.074   0.585  60.422  1.00 48.05 LIG-0.02  C 
ATOM     28  CD1 LEU D  11      18.148   1.660  60.335  1.00 46.53 LIG 0.01  C 
ATOM     29  CD2 LEU D  11      16.213   0.781  61.647  1.00 50.43 LIG 0.01  C 
ENDBRANCH 26 27
ENDBRANCH 1 26
BRANCH 1 30
ATOM     30  N   LEU D  11      16.041   2.929  58.663  1.00 47.51 LIG-0.35  N 
ATOM     31  C   LEU D  10      16.182   4.089  58.021  1.00 47.80 LIG 0.24  C 
ATOM     32 O    LEU D  10      16.599   4.187  56.858  1.00 47.07 LIG-0.27  OA
ATOM     33 H    LEU D  11      15.701   2.863  59.450  1.00 47.51 LIG 0.16  HD
BRANCH 31 34
ATOM     34  CA  LEU D  10      15.799   5.330  58.816  1.00 47.63 LIG 0.18  C 
BRANCH 34 35
ATOM     35  CB  LEU D  10      14.345   5.265  59.273  1.00 47.29 LIG 0.04  C 
BRANCH 35 36
ATOM     36  CG  LEU D  10      14.104   4.306  60.444  1.00 46.92 LIG-0.02  C 
ATOM     37  CD2 LEU D  10      12.871   4.672  61.201  1.00 45.50 LIG 0.01  C 
ATOM     38  CD1 LEU D  10      15.292   4.264  61.403  1.00 46.83 LIG 0.01  C 
ENDBRANCH 35 36
ENDBRANCH 34 35
BRANCH 34 39
ATOM     39  N   LEU D  10      16.068   6.524  58.032  1.00 47.82 LIG-0.35  N 
ATOM     40 H    LEU D  10      15.408   6.801  57.555  1.00 47.82 LIG 0.16  HD
ATOM     41  C   ASP D   9      17.258   7.109  58.081  1.00 48.63 LIG 0.25  C 
ATOM     42 O    ASP D   9      18.191   6.686  58.760  1.00 48.10 LIG-0.27  OA
BRANCH 41 43
ATOM     43  CA  ASP D   9      17.422   8.343  57.234  1.00 49.27 LIG 0.28  C 
BRANCH 43 44
ATOM     44  N   ASP D   9      18.564   8.108  56.312  1.00 49.86 LIG-0.07  N 
ATOM     45 H2   ASP D   9      19.310   8.431  56.675  1.00 49.86 LIG 0.28  HD
ATOM     46 H3   ASP D   9      18.657   7.234  56.172  1.00 49.86 LIG 0.28  HD
ATOM     47 H1   ASP D   9      18.410   8.517  55.538  1.00 49.86 LIG 0.28  HD
ENDBRANCH 43 44
BRANCH 43 48
ATOM     48  CB  ASP D   9      16.139   8.575  56.449  1.00 50.02 LIG 0.15  C 
BRANCH 48 49
ATOM     49  CG  ASP D   9      16.040   7.706  55.230  1.00 50.84 LIG 0.17  C 
ATOM     50 OD1  ASP D   9      16.963   7.748  54.399  1.00 53.44 LIG-0.65  OA
ATOM     51 OD2  ASP D   9      15.085   6.923  55.027  1.00 53.75 LIG-0.65  OA
ENDBRANCH 48 49
ENDBRANCH 43 48
ENDBRANCH 41 43
ENDBRANCH 34 39
ENDBRANCH 31 34
ENDBRANCH 1 30
TORSDOF 20
ENDMDL
MODEL 73
USER: ADFR SOLUTION from run 77
USER: SCORE 16.099475 LL:  -5.044 LR: -12.166 RR:   0.000 FEB:  -6.200
USER: RMSD 5.746452
USER: SEED 76
USER: STATUS no improvement in best 4 clusters for 5 generations
USER: GENES 22
USER: genes 0 Translation |==|  0.48268 0.39914 0.42951
USER: genes 1 Rotation |==|  0.22738 0.45317 0.13002 0.69131
USER: genes 2 Torsion [N]-CA--C-[N] |==|  0.46151
USER: genes 3 Torsion [C]-N--CA-[CB] |==|  0.51192
USER: genes 4 Torsion [N]-CA--C-[N] |==|  0.38687
USER: genes 5 Torsion [C]-N--CA-[C] |==|  0.73879
USER: genes 6 Torsion [N]-CA--CB-[CG1] |==|  0.15117
USER: genes 7 Torsion [CA]-CB--CG1-[CD1] |==|  0.73568
USER: genes 8 Torsion [N]-CA--C-[OXT] |==|  0.20537
USER: genes 9 Torsion [N]-CA--CB-[CG] |==|  0.31756
USER: genes 10 Torsion [CA]-CB--CG-[ND1] |==|  0.25762
USER: genes 11 Torsion [C]-CA--CB-[CG] |==|  0.20412
USER: genes 12 Torsion [CA]-CB--CG-[CD2] |==|  0.55222
USER: genes 13 Torsion [C]-CA--N-[C] |==|  0.50000
USER: genes 14 Torsion [N]-C--CA-[N] |==|  0.39836
USER: genes 15 Torsion [C]-CA--CB-[CG] |==|  0.21797
USER: genes 16 Torsion [CA]-CB--CG-[CD2] |==|  0.07065
USER: genes 17 Torsion [C]-CA--N-[C] |==|  0.80592
USER: genes 18 Torsion [N]-C--CA-[N] |==|  0.02905
USER: genes 19 Torsion [C]-CA--N-[H2] |==|  0.21822
USER: genes 20 Torsion [C]-CA--CB-[CG] |==|  0.72176
USER: genes 21 Torsion [CA]-CB--CG-[OD1] |==|  0.59326
ROOT
ATOM      1  CA  LEU D  11      17.910   3.914  60.395  1.00 47.89 LIG 0.18  C 
ENDROOT
BRANCH 1 2
ATOM      2  C   LEU D  11      17.620   4.383  58.976  1.00 48.14 LIG 0.24  C 
ATOM      3 O    LEU D  11      18.070   5.441  58.557  1.00 47.13 LIG-0.27  OA
ATOM      4  N   HIS D  12      16.827   3.602  58.251  1.00 49.28 LIG-0.35  N 
ATOM      5 H    HIS D  12      16.507   2.851  58.520  1.00 49.28 LIG 0.16  HD
BRANCH 4 6
ATOM      6  CA  HIS D  12      16.436   3.987  56.899  1.00 50.49 LIG 0.18  C 
BRANCH 6 7
ATOM      7  C   HIS D  12      15.854   5.398  56.857  1.00 51.38 LIG 0.24  C 
ATOM      8  N   ILE D  13      16.238   6.121  55.818  1.00 53.16 LIG-0.34  N 
ATOM      9 H    ILE D  13      16.796   5.813  55.240  1.00 53.16 LIG 0.16  HD
ATOM     10 O    HIS D  12      15.089   5.795  57.724  1.00 51.57 LIG-0.27  OA
BRANCH 8 11
ATOM     11  CA  ILE D  13      15.806   7.490  55.490  1.00 55.12 LIG 0.19  C 
BRANCH 11 12
ATOM     12  CB  ILE D  13      16.994   8.476  55.196  1.00 55.01 LIG 0.01  C 
ATOM     13  CG2 ILE D  13      17.814   8.813  56.455  1.00 56.15 LIG 0.01  C 
BRANCH 12 14
ATOM     14  CG1 ILE D  13      17.895   7.901  54.099  1.00 55.50 LIG 0.00  C 
ATOM     15  CD1 ILE D  13      19.125   7.116  54.628  1.00 55.45 LIG 0.01  C 
ENDBRANCH 12 14
ENDBRANCH 11 12
BRANCH 11 16
ATOM     16  C   ILE D  13      14.628   7.682  54.530  1.00 55.63 LIG 0.20  C 
ATOM     17 OXT  ILE D  13      13.490   7.439  54.956  1.00 55.86 LIG-0.65  OA
ATOM     18 O    ILE D  13      14.802   8.092  53.379  1.00 56.94 LIG-0.65  OA
ENDBRANCH 11 16
ENDBRANCH 8 11
ENDBRANCH 6 7
BRANCH 6 19
ATOM     19  CB  HIS D  12      15.441   2.989  56.303  1.00 50.55 LIG 0.10  C 
BRANCH 19 20
ATOM     20  CG  HIS D  12      14.083   3.565  56.057  1.00 49.61 LIG 0.05  A 
ATOM     21 ND1  HIS D  12      13.542   4.139  54.956  1.00 49.92 LIG-0.25  NA
ATOM     22  CE1 HIS D  12      12.254   4.490  55.275  1.00 49.12 LIG 0.21  A 
ATOM     23  NE2 HIS D  12      12.003   4.122  56.518  1.00 48.62 LIG-0.36  N 
ATOM     24 HE2  HIS D  12      11.257   4.227  56.933  1.00 48.62 LIG 0.17  HD
ATOM     25  CD2 HIS D  12      13.092   3.565  57.014  1.00 48.49 LIG 0.12  A 
ENDBRANCH 19 20
ENDBRANCH 6 19
ENDBRANCH 4 6
ENDBRANCH 1 2
BRANCH 1 26
ATOM     26  CB  LEU D  11      16.644   4.116  61.220  1.00 47.69 LIG 0.04  C 
BRANCH 26 27
ATOM     27  CG  LEU D  11      15.454   3.171  61.009  1.00 48.05 LIG-0.02  C 
ATOM     28  CD1 LEU D  11      15.745   1.815  61.636  1.00 46.53 LIG 0.01  C 
ATOM     29  CD2 LEU D  11      14.157   3.740  61.532  1.00 50.43 LIG 0.01  C 
ENDBRANCH 26 27
ENDBRANCH 1 26
BRANCH 1 30
ATOM     30  N   LEU D  11      19.017   4.621  61.023  1.00 47.51 LIG-0.35  N 
ATOM     31  C   LEU D  10      19.431   4.361  62.264  1.00 47.80 LIG 0.24  C 
ATOM     32 O    LEU D  10      18.971   3.450  62.967  1.00 47.07 LIG-0.27  OA
ATOM     33 H    LEU D  11      19.377   5.220  60.521  1.00 47.51 LIG 0.16  HD
BRANCH 31 34
ATOM     34  CA  LEU D  10      20.529   5.274  62.795  1.00 47.63 LIG 0.18  C 
BRANCH 34 35
ATOM     35  CB  LEU D  10      21.912   4.692  62.517  1.00 47.29 LIG 0.04  C 
BRANCH 35 36
ATOM     36  CG  LEU D  10      22.392   4.892  61.075  1.00 46.92 LIG-0.02  C 
ATOM     37  CD2 LEU D  10      21.741   6.078  60.447  1.00 45.50 LIG 0.01  C 
ATOM     38  CD1 LEU D  10      22.137   3.658  60.212  1.00 46.83 LIG 0.01  C 
ENDBRANCH 35 36
ENDBRANCH 34 35
BRANCH 34 39
ATOM     39  N   LEU D  10      20.321   5.528  64.210  1.00 47.82 LIG-0.35  N 
ATOM     40 H    LEU D  10      20.897   5.160  64.733  1.00 47.82 LIG 0.16  HD
ATOM     41  C   ASP D   9      19.306   6.278  64.620  1.00 48.63 LIG 0.25  C 
ATOM     42 O    ASP D   9      18.487   6.781  63.854  1.00 48.10 LIG-0.27  OA
BRANCH 41 43
ATOM     43  CA  ASP D   9      19.192   6.480  66.108  1.00 49.27 LIG 0.28  C 
BRANCH 43 44
ATOM     44  N   ASP D   9      20.440   5.965  66.728  1.00 49.86 LIG-0.07  N 
ATOM     45 H2   ASP D   9      21.091   6.564  66.627  1.00 49.86 LIG 0.28  HD
ATOM     46 H3   ASP D   9      20.303   5.820  67.595  1.00 49.86 LIG 0.28  HD
ATOM     47 H1   ASP D   9      20.676   5.202  66.334  1.00 49.86 LIG 0.28  HD
ENDBRANCH 43 44
BRANCH 43 48
ATOM     48  CB  ASP D   9      19.026   7.966  66.391  1.00 50.02 LIG 0.15  C 
BRANCH 48 49
ATOM     49  CG  ASP D   9      20.305   8.619  66.824  1.00 50.84 LIG 0.17  C 
ATOM     50 OD1  ASP D   9      20.245   9.550  67.645  1.00 53.44 LIG-0.65  OA
ATOM     51 OD2  ASP D   9      21.430   8.252  66.415  1.00 53.75 LIG-0.65  OA
ENDBRANCH 48 49
ENDBRANCH 43 48
ENDBRANCH 41 43
ENDBRANCH 34 39
ENDBRANCH 31 34
ENDBRANCH 1 30
TORSDOF 20
ENDMDL
MODEL 74
USER: ADFR SOLUTION from run 14
USER: SCORE 15.562878 LL:  -5.233 LR: -12.172 RR:   0.000 FEB:  -6.206
USER: RMSD 9.869518
USER: SEED 834019
USER: STATUS no improvement in best 14 clusters for 5 generations
USER: GENES 22
USER: genes 0 Translation |==|  0.51060 0.43855 0.40642
USER: genes 1 Rotation |==|  0.74260 0.66949 0.10067 0.55437
USER: genes 2 Torsion [N]-CA--C-[N] |==|  0.76364
USER: genes 3 Torsion [C]-N--CA-[CB] |==|  0.21659
USER: genes 4 Torsion [N]-CA--C-[N] |==|  0.49599
USER: genes 5 Torsion [C]-N--CA-[C] |==|  0.63051
USER: genes 6 Torsion [N]-CA--CB-[CG1] |==|  0.01807
USER: genes 7 Torsion [CA]-CB--CG1-[CD1] |==|  0.60810
USER: genes 8 Torsion [N]-CA--C-[OXT] |==|  0.97930
USER: genes 9 Torsion [N]-CA--CB-[CG] |==|  0.04484
USER: genes 10 Torsion [CA]-CB--CG-[ND1] |==|  0.22381
USER: genes 11 Torsion [C]-CA--CB-[CG] |==|  0.47333
USER: genes 12 Torsion [CA]-CB--CG-[CD2] |==|  0.32361
USER: genes 13 Torsion [C]-CA--N-[C] |==|  0.70286
USER: genes 14 Torsion [N]-C--CA-[N] |==|  0.29502
USER: genes 15 Torsion [C]-CA--CB-[CG] |==|  0.25737
USER: genes 16 Torsion [CA]-CB--CG-[CD2] |==|  0.25658
USER: genes 17 Torsion [C]-CA--N-[C] |==|  0.78333
USER: genes 18 Torsion [N]-C--CA-[N] |==|  0.41732
USER: genes 19 Torsion [C]-CA--N-[H2] |==|  0.46659
USER: genes 20 Torsion [C]-CA--CB-[CG] |==|  0.64416
USER: genes 21 Torsion [CA]-CB--CG-[OD1] |==|  0.73442
ROOT
ATOM      1  CA  LEU D  11      18.748   5.097  59.703  1.00 47.89 LIG 0.18  C 
ENDROOT
BRANCH 1 2
ATOM      2  C   LEU D  11      19.764   5.291  60.820  1.00 48.14 LIG 0.24  C 
ATOM      3 O    LEU D  11      20.807   4.651  60.842  1.00 47.13 LIG-0.27  OA
ATOM      4  N   HIS D  12      19.431   6.156  61.772  1.00 49.28 LIG-0.35  N 
ATOM      5 H    HIS D  12      18.709   6.623  61.773  1.00 49.28 LIG 0.16  HD
BRANCH 4 6
ATOM      6  CA  HIS D  12      20.305   6.373  62.920  1.00 50.49 LIG 0.18  C 
BRANCH 6 7
ATOM      7  C   HIS D  12      19.546   6.959  64.108  1.00 51.38 LIG 0.24  C 
ATOM      8  N   ILE D  13      20.282   7.151  65.190  1.00 53.16 LIG-0.34  N 
ATOM      9 H    ILE D  13      21.112   6.927  65.212  1.00 53.16 LIG 0.16  HD
ATOM     10 O    HIS D  12      18.356   7.228  64.031  1.00 51.57 LIG-0.27  OA
BRANCH 8 11
ATOM     11  CA  ILE D  13      19.838   7.741  66.464  1.00 55.12 LIG 0.19  C 
BRANCH 11 12
ATOM     12  CB  ILE D  13      19.298   6.687  67.497  1.00 55.01 LIG 0.01  C 
ATOM     13  CG2 ILE D  13      17.816   6.907  67.855  1.00 56.15 LIG 0.01  C 
BRANCH 12 14
ATOM     14  CG1 ILE D  13      19.523   5.267  66.965  1.00 55.50 LIG 0.00  C 
ATOM     15  CD1 ILE D  13      18.359   4.283  67.259  1.00 55.45 LIG 0.01  C 
ENDBRANCH 12 14
ENDBRANCH 11 12
BRANCH 11 16
ATOM     16  C   ILE D  13      20.704   8.820  67.120  1.00 55.63 LIG 0.20  C 
ATOM     17 OXT  ILE D  13      21.815   9.050  66.622  1.00 55.86 LIG-0.65  OA
ATOM     18 O    ILE D  13      20.300   9.457  68.096  1.00 56.94 LIG-0.65  OA
ENDBRANCH 11 16
ENDBRANCH 8 11
ENDBRANCH 6 7
BRANCH 6 19
ATOM     19  CB  HIS D  12      21.487   7.273  62.554  1.00 50.55 LIG 0.10  C 
BRANCH 19 20
ATOM     20  CG  HIS D  12      21.300   8.026  61.275  1.00 49.61 LIG 0.05  A 
ATOM     21 ND1  HIS D  12      20.618   9.162  60.999  1.00 49.92 LIG-0.25  NA
ATOM     22  CE1 HIS D  12      20.780   9.415  59.659  1.00 49.12 LIG 0.21  A 
ATOM     23  NE2 HIS D  12      21.553   8.482  59.136  1.00 48.62 LIG-0.36  N 
ATOM     24 HE2  HIS D  12      21.803   8.439  58.314  1.00 48.62 LIG 0.17  HD
ATOM     25  CD2 HIS D  12      21.877   7.628  60.089  1.00 48.49 LIG 0.12  A 
ENDBRANCH 19 20
ENDBRANCH 6 19
ENDBRANCH 4 6
ENDBRANCH 1 2
BRANCH 1 26
ATOM     26  CB  LEU D  11      18.096   6.447  59.426  1.00 47.69 LIG 0.04  C 
BRANCH 26 27
ATOM     27  CG  LEU D  11      17.190   6.603  58.198  1.00 48.05 LIG-0.02  C 
ATOM     28  CD1 LEU D  11      17.263   5.355  57.331  1.00 46.53 LIG 0.01  C 
ATOM     29  CD2 LEU D  11      15.760   6.923  58.565  1.00 50.43 LIG 0.01  C 
ENDBRANCH 26 27
ENDBRANCH 1 26
BRANCH 1 30
ATOM     30  N   LEU D  11      17.720   4.116  60.019  1.00 47.51 LIG-0.35  N 
ATOM     31  C   LEU D  10      17.681   2.904  59.465  1.00 47.80 LIG 0.24  C 
ATOM     32 O    LEU D  10      18.549   2.470  58.694  1.00 47.07 LIG-0.27  OA
ATOM     33 H    LEU D  11      17.142   4.391  60.594  1.00 47.51 LIG 0.16  HD
BRANCH 31 34
ATOM     34  CA  LEU D  10      16.472   2.053  59.832  1.00 47.63 LIG 0.18  C 
BRANCH 34 35
ATOM     35  CB  LEU D  10      16.897   0.667  60.307  1.00 47.29 LIG 0.04  C 
BRANCH 35 36
ATOM     36  CG  LEU D  10      17.076   0.558  61.825  1.00 46.92 LIG-0.02  C 
ATOM     37  CD2 LEU D  10      15.819   0.099  62.487  1.00 45.50 LIG 0.01  C 
ATOM     38  CD1 LEU D  10      17.521   1.881  62.445  1.00 46.83 LIG 0.01  C 
ENDBRANCH 35 36
ENDBRANCH 34 35
BRANCH 34 39
ATOM     39  N   LEU D  10      15.555   1.983  58.707  1.00 47.82 LIG-0.35  N 
ATOM     40 H    LEU D  10      15.586   1.250  58.259  1.00 47.82 LIG 0.16  HD
ATOM     41  C   ASP D   9      14.747   3.000  58.431  1.00 48.63 LIG 0.25  C 
ATOM     42 O    ASP D   9      14.731   4.044  59.079  1.00 48.10 LIG-0.27  OA
BRANCH 41 43
ATOM     43  CA  ASP D   9      13.834   2.815  57.247  1.00 49.27 LIG 0.28  C 
BRANCH 43 44
ATOM     44  N   ASP D   9      12.602   3.605  57.502  1.00 49.86 LIG-0.07  N 
ATOM     45 H2   ASP D   9      12.123   3.657  56.754  1.00 49.86 LIG 0.28  HD
ATOM     46 H3   ASP D   9      12.120   3.208  58.136  1.00 49.86 LIG 0.28  HD
ATOM     47 H1   ASP D   9      12.824   4.425  57.769  1.00 49.86 LIG 0.28  HD
ENDBRANCH 43 44
BRANCH 43 48
ATOM     48  CB  ASP D   9      14.543   3.315  55.997  1.00 50.02 LIG 0.15  C 
BRANCH 48 49
ATOM     49  CG  ASP D   9      13.717   4.293  55.215  1.00 50.84 LIG 0.17  C 
ATOM     50 OD1  ASP D   9      13.040   3.867  54.263  1.00 53.44 LIG-0.65  OA
ATOM     51 OD2  ASP D   9      13.659   5.512  55.494  1.00 53.75 LIG-0.65  OA
ENDBRANCH 48 49
ENDBRANCH 43 48
ENDBRANCH 41 43
ENDBRANCH 34 39
ENDBRANCH 31 34
ENDBRANCH 1 30
TORSDOF 20
ENDMDL
MODEL 75
USER: ADFR SOLUTION from run 10
USER: SCORE 17.172502 LL:  -5.428 LR: -12.137 RR:   0.000 FEB:  -6.171
USER: RMSD 7.223071
USER: SEED 787794
USER: STATUS no improvement in best 7 clusters for 5 generations
USER: GENES 22
USER: genes 0 Translation |==|  0.49136 0.35326 0.46467
USER: genes 1 Rotation |==|  0.14999 0.36882 0.31481 0.77567
USER: genes 2 Torsion [N]-CA--C-[N] |==|  0.16699
USER: genes 3 Torsion [C]-N--CA-[CB] |==|  0.83602
USER: genes 4 Torsion [N]-CA--C-[N] |==|  0.35734
USER: genes 5 Torsion [C]-N--CA-[C] |==|  0.56172
USER: genes 6 Torsion [N]-CA--CB-[CG1] |==|  0.08444
USER: genes 7 Torsion [CA]-CB--CG1-[CD1] |==|  0.18451
USER: genes 8 Torsion [N]-CA--C-[OXT] |==|  0.56363
USER: genes 9 Torsion [N]-CA--CB-[CG] |==|  0.54799
USER: genes 10 Torsion [CA]-CB--CG-[ND1] |==|  0.58255
USER: genes 11 Torsion [C]-CA--CB-[CG] |==|  0.22199
USER: genes 12 Torsion [CA]-CB--CG-[CD2] |==|  0.74092
USER: genes 13 Torsion [C]-CA--N-[C] |==|  0.74444
USER: genes 14 Torsion [N]-C--CA-[N] |==|  0.90751
USER: genes 15 Torsion [C]-CA--CB-[CG] |==|  0.23692
USER: genes 16 Torsion [CA]-CB--CG-[CD2] |==|  0.11517
USER: genes 17 Torsion [C]-CA--N-[C] |==|  0.81458
USER: genes 18 Torsion [N]-C--CA-[N] |==|  0.70978
USER: genes 19 Torsion [C]-CA--N-[H2] |==|  0.66298
USER: genes 20 Torsion [C]-CA--CB-[CG] |==|  0.75841
USER: genes 21 Torsion [CA]-CB--CG-[OD1] |==|  0.83321
ROOT
ATOM      1  CA  LEU D  11      18.171   2.538  61.450  1.00 47.89 LIG 0.18  C 
ENDROOT
BRANCH 1 2
ATOM      2  C   LEU D  11      17.119   2.141  60.423  1.00 48.14 LIG 0.24  C 
ATOM      3 O    LEU D  11      16.019   1.733  60.774  1.00 47.13 LIG-0.27  OA
ATOM      4  N   HIS D  12      17.481   2.226  59.148  1.00 49.28 LIG-0.35  N 
ATOM      5 H    HIS D  12      18.244   2.517  58.879  1.00 49.28 LIG 0.16  HD
BRANCH 4 6
ATOM      6  CA  HIS D  12      16.571   1.813  58.086  1.00 50.49 LIG 0.18  C 
BRANCH 6 7
ATOM      7  C   HIS D  12      15.324   2.693  58.034  1.00 51.38 LIG 0.24  C 
ATOM      8  N   ILE D  13      15.050   3.188  56.838  1.00 53.16 LIG-0.34  N 
ATOM      9 H    ILE D  13      15.563   3.039  56.164  1.00 53.16 LIG 0.16  HD
ATOM     10 O    HIS D  12      14.649   2.898  59.032  1.00 51.57 LIG-0.27  OA
BRANCH 8 11
ATOM     11  CA  ILE D  13      13.894   4.026  56.476  1.00 55.12 LIG 0.19  C 
BRANCH 11 12
ATOM     12  CB  ILE D  13      13.897   5.439  57.162  1.00 55.01 LIG 0.01  C 
ATOM     13  CG2 ILE D  13      13.089   5.467  58.473  1.00 56.15 LIG 0.01  C 
BRANCH 12 14
ATOM     14  CG1 ILE D  13      15.337   5.905  57.402  1.00 55.50 LIG 0.00  C 
ATOM     15  CD1 ILE D  13      16.141   6.186  56.104  1.00 55.45 LIG 0.01  C 
ENDBRANCH 12 14
ENDBRANCH 11 12
BRANCH 11 16
ATOM     16  C   ILE D  13      13.453   4.082  55.010  1.00 55.63 LIG 0.20  C 
ATOM     17 OXT  ILE D  13      12.803   5.070  54.641  1.00 55.86 LIG-0.65  OA
ATOM     18 O    ILE D  13      13.757   3.188  54.217  1.00 56.94 LIG-0.65  OA
ENDBRANCH 11 16
ENDBRANCH 8 11
ENDBRANCH 6 7
BRANCH 6 19
ATOM     19  CB  HIS D  12      16.172   0.343  58.237  1.00 50.55 LIG 0.10  C 
BRANCH 19 20
ATOM     20  CG  HIS D  12      15.589  -0.254  56.995  1.00 49.61 LIG 0.05  A 
ATOM     21 ND1  HIS D  12      14.680  -1.242  56.821  1.00 49.92 LIG-0.25  NA
ATOM     22  CE1 HIS D  12      14.498  -1.391  55.469  1.00 49.12 LIG 0.21  A 
ATOM     23  NE2 HIS D  12      15.249  -0.510  54.835  1.00 48.62 LIG-0.36  N 
ATOM     24 HE2  HIS D  12      15.292  -0.406  53.982  1.00 48.62 LIG 0.17  HD
ATOM     25  CD2 HIS D  12      15.921   0.186  55.733  1.00 48.49 LIG 0.12  A 
ENDBRANCH 19 20
ENDBRANCH 6 19
ENDBRANCH 4 6
ENDBRANCH 1 2
BRANCH 1 26
ATOM     26  CB  LEU D  11      17.569   2.333  62.836  1.00 47.69 LIG 0.04  C 
BRANCH 26 27
ATOM     27  CG  LEU D  11      17.527   0.921  63.433  1.00 48.05 LIG-0.02  C 
ATOM     28  CD1 LEU D  11      17.805   0.976  64.928  1.00 46.53 LIG 0.01  C 
ATOM     29  CD2 LEU D  11      16.226   0.206  63.153  1.00 50.43 LIG 0.01  C 
ENDBRANCH 26 27
ENDBRANCH 1 26
BRANCH 1 30
ATOM     30  N   LEU D  11      18.621   3.915  61.315  1.00 47.51 LIG-0.35  N 
ATOM     31  C   LEU D  10      19.678   4.262  60.579  1.00 47.80 LIG 0.24  C 
ATOM     32 O    LEU D  10      20.325   3.466  59.884  1.00 47.07 LIG-0.27  OA
ATOM     33 H    LEU D  11      18.144   4.481  61.753  1.00 47.51 LIG 0.16  HD
BRANCH 31 34
ATOM     34  CA  LEU D  10      20.067   5.733  60.642  1.00 47.63 LIG 0.18  C 
BRANCH 34 35
ATOM     35  CB  LEU D  10      21.088   5.986  61.747  1.00 47.29 LIG 0.04  C 
BRANCH 35 36
ATOM     36  CG  LEU D  10      22.540   5.742  61.320  1.00 46.92 LIG-0.02  C 
ATOM     37  CD2 LEU D  10      22.798   6.271  59.949  1.00 45.50 LIG 0.01  C 
ATOM     38  CD1 LEU D  10      22.908   4.260  61.368  1.00 46.83 LIG 0.01  C 
ENDBRANCH 35 36
ENDBRANCH 34 35
BRANCH 34 39
ATOM     39  N   LEU D  10      18.879   6.554  60.804  1.00 47.82 LIG-0.35  N 
ATOM     40 H    LEU D  10      18.822   6.965  61.557  1.00 47.82 LIG 0.16  HD
ATOM     41  C   ASP D   9      17.978   6.634  59.833  1.00 48.63 LIG 0.25  C 
ATOM     42 O    ASP D   9      18.074   6.026  58.770  1.00 48.10 LIG-0.27  OA
BRANCH 41 43
ATOM     43  CA  ASP D   9      16.790   7.520  60.107  1.00 49.27 LIG 0.28  C 
BRANCH 43 44
ATOM     44  N   ASP D   9      15.632   6.639  60.406  1.00 49.86 LIG-0.07  N 
ATOM     45 H2   ASP D   9      14.978   6.801  59.825  1.00 49.86 LIG 0.28  HD
ATOM     46 H3   ASP D   9      15.882   5.787  60.341  1.00 49.86 LIG 0.28  HD
ATOM     47 H1   ASP D   9      15.341   6.800  61.231  1.00 49.86 LIG 0.28  HD
ENDBRANCH 43 44
BRANCH 43 48
ATOM     48  CB  ASP D   9      17.107   8.413  61.298  1.00 50.02 LIG 0.15  C 
BRANCH 48 49
ATOM     49  CG  ASP D   9      16.777   7.766  62.611  1.00 50.84 LIG 0.17  C 
ATOM     50 OD1  ASP D   9      15.600   7.429  62.824  1.00 53.44 LIG-0.65  OA
ATOM     51 OD2  ASP D   9      17.638   7.527  63.488  1.00 53.75 LIG-0.65  OA
ENDBRANCH 48 49
ENDBRANCH 43 48
ENDBRANCH 41 43
ENDBRANCH 34 39
ENDBRANCH 31 34
ENDBRANCH 1 30
TORSDOF 20
ENDMDL
