MODEL 1
USER: ADFR SOLUTION from run 121
USER: SCORE 11.664069 LL:  -0.901 LR: -10.763 RR:   0.000 FEB:  -7.780
USER: RMSD 5.674535
USER: SEED 120
USER: STATUS no improvement in best 22 clusters for 5 generations
USER: GENES 12
USER: genes 0 Translation |==|  0.44819 0.55075 0.40480
USER: genes 1 Rotation |==|  0.12488 0.36324 0.61812 0.77682
USER: genes 2 Torsion [C]-N--CA-[C] |==|  0.91403
USER: genes 3 Torsion [N]-CA--C-[O] |==|  0.25262
USER: genes 4 Torsion [N]-CA--CB-[CG] |==|  0.66127
USER: genes 5 Torsion [CA]-CB--CG-[CD] |==|  0.80246
USER: genes 6 Torsion [CB]-CG--CD-[CE] |==|  0.31744
USER: genes 7 Torsion [CG]-CD--CE-[NZ] |==|  0.02187
USER: genes 8 Torsion [CD]-CE--NZ-[HZ2] |==|  0.05547
USER: genes 9 Torsion [N]-C--CA-[N] |==|  0.06603
USER: genes 10 Torsion [C]-CA--N-[H1] |==|  0.20598
USER: genes 11 Torsion [C]-CA--CB-[CG1] |==|  0.44616
ROOT
ATOM      1  C   VAL E1321      35.976  41.142  -5.436  1.00100.00 LIG 0.25  C 
ATOM      2 O    VAL E1321      36.762  41.870  -5.990  1.00 26.63 LIG-0.27  OA
ATOM      3  N   LYS E1322      35.821  41.120  -4.110  1.00 27.49 LIG-0.34  N 
ATOM      4 H    LYS E1322      35.244  40.632  -3.698  1.00 27.49 LIG 0.16  HD
ENDROOT
BRANCH 3 5
ATOM      5  CA  LYS E1322      36.650  41.955  -3.235  1.00 83.53 LIG 0.18  C 
BRANCH 5 6
ATOM      6  C   LYS E1322      38.088  42.245  -3.746  1.00 46.63 LIG 0.20  C 
ATOM      7 O    LYS E1322      38.302  43.277  -4.454  1.00 43.95 LIG-0.65  OA
ATOM      8 OXT  LYS E1322      39.030  41.493  -3.331  1.00100.00 LIG-0.65  OA
ENDBRANCH 5 6
BRANCH 5 9
ATOM      9  CB  LYS E1322      36.608  41.460  -1.814  1.00 27.11 LIG 0.04  C 
BRANCH 9 10
ATOM     10  CG  LYS E1322      36.123  42.471  -0.801  1.00 36.61 LIG 0.00  C 
BRANCH 10 11
ATOM     11  CD  LYS E1322      37.171  43.557  -0.601  1.00 49.53 LIG 0.03  C 
BRANCH 11 12
ATOM     12  CE  LYS E1322      36.705  44.921  -1.077  1.00100.00 LIG 0.23  C 
BRANCH 12 13
ATOM     13  NZ  LYS E1322      35.280  44.935  -1.455  1.00 46.56 LIG-0.08  N 
ATOM     14 HZ1  LYS E1322      35.207  44.879  -2.341  1.00 46.56 LIG 0.27  HD
ATOM     15 HZ2  LYS E1322      34.867  44.242  -1.079  1.00 46.56 LIG 0.27  HD
ATOM     16 HZ3  LYS E1322      34.905  45.691  -1.174  1.00 46.56 LIG 0.27  HD
ENDBRANCH 12 13
ENDBRANCH 11 12
ENDBRANCH 10 11
ENDBRANCH 9 10
ENDBRANCH 5 9
ENDBRANCH 3 5
BRANCH 1 17
ATOM     17  CA  VAL E1321      35.042  40.290  -6.261  1.00 34.64 LIG 0.28  C 
BRANCH 17 18
ATOM     18  N   VAL E1321      33.779  39.993  -5.582  1.00 23.60 LIG-0.07  N 
ATOM     19 H1   VAL E1321      33.264  40.719  -5.580  1.00 23.60 LIG 0.28  HD
ATOM     20 H2   VAL E1321      33.360  39.335  -6.010  1.00 23.60 LIG 0.28  HD
ATOM     21 H3   VAL E1321      33.943  39.744  -4.743  1.00 23.60 LIG 0.28  HD
ENDBRANCH 17 18
BRANCH 17 22
ATOM     22  CB  VAL E1321      34.895  40.935  -7.618  1.00 31.80 LIG 0.02  C 
ATOM     23  CG1 VAL E1321      34.372  39.918  -8.655  1.00 29.70 LIG 0.01  C 
ATOM     24  CG2 VAL E1321      33.991  42.178  -7.526  1.00 23.28 LIG 0.01  C 
ENDBRANCH 17 22
ENDBRANCH 1 17
TORSDOF 10
ENDMDL
MODEL 2
USER: ADFR SOLUTION from run 130
USER: SCORE 11.694383 LL:  -1.227 LR: -10.467 RR:   0.000 FEB:  -7.484
USER: RMSD 2.458199
USER: SEED 129
USER: STATUS no improvement in best 11 clusters for 5 generations
USER: GENES 12
USER: genes 0 Translation |==|  0.48264 0.59434 0.49391
USER: genes 1 Rotation |==|  0.57376 0.68768 0.52461 0.95687
USER: genes 2 Torsion [C]-N--CA-[C] |==|  0.70494
USER: genes 3 Torsion [N]-CA--C-[O] |==|  0.74313
USER: genes 4 Torsion [N]-CA--CB-[CG] |==|  0.84611
USER: genes 5 Torsion [CA]-CB--CG-[CD] |==|  0.36969
USER: genes 6 Torsion [CB]-CG--CD-[CE] |==|  0.72216
USER: genes 7 Torsion [CG]-CD--CE-[NZ] |==|  0.30827
USER: genes 8 Torsion [CD]-CE--NZ-[HZ2] |==|  0.09335
USER: genes 9 Torsion [N]-C--CA-[N] |==|  0.89465
USER: genes 10 Torsion [C]-CA--N-[H1] |==|  0.27515
USER: genes 11 Torsion [C]-CA--CB-[CG1] |==|  0.24603
ROOT
ATOM      1  C   VAL E1321      37.009  42.450  -2.763  1.00100.00 LIG 0.25  C 
ATOM      2 O    VAL E1321      37.905  43.090  -3.256  1.00 26.63 LIG-0.27  OA
ATOM      3  N   LYS E1322      36.646  41.247  -3.214  1.00 27.49 LIG-0.34  N 
ATOM      4 H    LYS E1322      36.031  40.762  -2.857  1.00 27.49 LIG 0.16  HD
ENDROOT
BRANCH 3 5
ATOM      5  CA  LYS E1322      37.292  40.650  -4.387  1.00 83.53 LIG 0.18  C 
BRANCH 5 6
ATOM      6  C   LYS E1322      36.445  40.636  -5.689  1.00 46.63 LIG 0.20  C 
ATOM      7 O    LYS E1322      35.731  39.621  -5.957  1.00 43.95 LIG-0.65  OA
ATOM      8 OXT  LYS E1322      36.405  41.704  -6.385  1.00100.00 LIG-0.65  OA
ENDBRANCH 5 6
BRANCH 5 9
ATOM      9  CB  LYS E1322      37.896  39.313  -4.050  1.00 27.11 LIG 0.04  C 
BRANCH 9 10
ATOM     10  CG  LYS E1322      38.873  39.326  -2.898  1.00 36.61 LIG 0.00  C 
BRANCH 10 11
ATOM     11  CD  LYS E1322      38.567  38.184  -1.939  1.00 49.53 LIG 0.03  C 
BRANCH 11 12
ATOM     12  CE  LYS E1322      37.787  38.633  -0.716  1.00100.00 LIG 0.23  C 
BRANCH 12 13
ATOM     13  NZ  LYS E1322      36.405  38.120  -0.704  1.00 46.56 LIG-0.08  N 
ATOM     14 HZ1  LYS E1322      35.878  38.673  -1.161  1.00 46.56 LIG 0.27  HD
ATOM     15 HZ2  LYS E1322      36.385  37.313  -1.080  1.00 46.56 LIG 0.27  HD
ATOM     16 HZ3  LYS E1322      36.117  38.063   0.136  1.00 46.56 LIG 0.27  HD
ENDBRANCH 12 13
ENDBRANCH 11 12
ENDBRANCH 10 11
ENDBRANCH 9 10
ENDBRANCH 5 9
ENDBRANCH 3 5
BRANCH 1 17
ATOM     17  CA  VAL E1321      36.327  42.963  -1.518  1.00 34.64 LIG 0.28  C 
BRANCH 17 18
ATOM     18  N   VAL E1321      34.905  42.620  -1.455  1.00 23.60 LIG-0.07  N 
ATOM     19 H1   VAL E1321      34.793  41.907  -0.934  1.00 23.60 LIG 0.28  HD
ATOM     20 H2   VAL E1321      34.448  43.306  -1.120  1.00 23.60 LIG 0.28  HD
ATOM     21 H3   VAL E1321      34.606  42.437  -2.273  1.00 23.60 LIG 0.28  HD
ENDBRANCH 17 18
BRANCH 17 22
ATOM     22  CB  VAL E1321      37.138  42.520  -0.323  1.00 31.80 LIG 0.02  C 
ATOM     23  CG1 VAL E1321      38.230  43.557   0.013  1.00 29.70 LIG 0.01  C 
ATOM     24  CG2 VAL E1321      36.216  42.245   0.879  1.00 23.28 LIG 0.01  C 
ENDBRANCH 17 22
ENDBRANCH 1 17
TORSDOF 10
ENDMDL
MODEL 3
USER: ADFR SOLUTION from run 46
USER: SCORE 11.659618 LL:  -1.204 LR: -10.455 RR:   0.000 FEB:  -7.472
USER: RMSD 3.637028
USER: SEED 45
USER: STATUS no improvement in best 9 clusters for 5 generations
USER: GENES 12
USER: genes 0 Translation |==|  0.47732 0.58968 0.51504
USER: genes 1 Rotation |==|  0.62903 0.63101 0.55111 0.96214
USER: genes 2 Torsion [C]-N--CA-[C] |==|  0.81377
USER: genes 3 Torsion [N]-CA--C-[O] |==|  0.74988
USER: genes 4 Torsion [N]-CA--CB-[CG] |==|  0.61553
USER: genes 5 Torsion [CA]-CB--CG-[CD] |==|  0.59550
USER: genes 6 Torsion [CB]-CG--CD-[CE] |==|  0.45172
USER: genes 7 Torsion [CG]-CD--CE-[NZ] |==|  0.57549
USER: genes 8 Torsion [CD]-CE--NZ-[HZ2] |==|  0.89325
USER: genes 9 Torsion [N]-C--CA-[N] |==|  0.88257
USER: genes 10 Torsion [C]-CA--N-[H1] |==|  0.64573
USER: genes 11 Torsion [C]-CA--CB-[CG1] |==|  0.87945
ROOT
ATOM      1  C   VAL E1321      36.850  42.310  -2.129  1.00100.00 LIG 0.25  C 
ATOM      2 O    VAL E1321      37.828  43.008  -2.244  1.00 26.63 LIG-0.27  OA
ATOM      3  N   LYS E1322      36.603  41.272  -2.932  1.00 27.49 LIG-0.34  N 
ATOM      4 H    LYS E1322      35.928  40.745  -2.847  1.00 27.49 LIG 0.16  HD
ENDROOT
BRANCH 3 5
ATOM      5  CA  LYS E1322      37.495  40.950  -4.050  1.00 83.53 LIG 0.18  C 
BRANCH 5 6
ATOM      6  C   LYS E1322      37.530  41.988  -5.205  1.00 46.63 LIG 0.20  C 
ATOM      7 O    LYS E1322      36.718  41.870  -6.174  1.00 43.95 LIG-0.65  OA
ATOM      8 OXT  LYS E1322      38.299  42.996  -5.075  1.00100.00 LIG-0.65  OA
ENDBRANCH 5 6
BRANCH 5 9
ATOM      9  CB  LYS E1322      37.282  39.536  -4.521  1.00 27.11 LIG 0.04  C 
BRANCH 9 10
ATOM     10  CG  LYS E1322      38.546  38.776  -4.848  1.00 36.61 LIG 0.00  C 
BRANCH 10 11
ATOM     11  CD  LYS E1322      38.301  37.827  -6.013  1.00 49.53 LIG 0.03  C 
BRANCH 11 12
ATOM     12  CE  LYS E1322      39.586  37.349  -6.665  1.00100.00 LIG 0.23  C 
BRANCH 12 13
ATOM     13  NZ  LYS E1322      39.405  36.995  -8.085  1.00 46.56 LIG-0.08  N 
ATOM     14 HZ1  LYS E1322      40.057  36.446  -8.340  1.00 46.56 LIG 0.27  HD
ATOM     15 HZ2  LYS E1322      38.618  36.592  -8.192  1.00 46.56 LIG 0.27  HD
ATOM     16 HZ3  LYS E1322      39.429  37.735  -8.580  1.00 46.56 LIG 0.27  HD
ENDBRANCH 12 13
ENDBRANCH 11 12
ENDBRANCH 10 11
ENDBRANCH 9 10
ENDBRANCH 5 9
ENDBRANCH 3 5
BRANCH 1 17
ATOM     17  CA  VAL E1321      35.907  42.535  -0.971  1.00 34.64 LIG 0.28  C 
BRANCH 17 18
ATOM     18  N   VAL E1321      34.499  42.354  -1.328  1.00 23.60 LIG-0.07  N 
ATOM     19 H1   VAL E1321      34.035  43.072  -1.081  1.00 23.60 LIG 0.28  HD
ATOM     20 H2   VAL E1321      34.427  42.245  -2.209  1.00 23.60 LIG 0.28  HD
ATOM     21 H3   VAL E1321      34.177  41.635  -0.914  1.00 23.60 LIG 0.28  HD
ENDBRANCH 17 18
BRANCH 17 22
ATOM     22  CB  VAL E1321      36.380  41.691   0.188  1.00 31.80 LIG 0.02  C 
ATOM     23  CG1 VAL E1321      36.780  40.279  -0.288  1.00 29.70 LIG 0.01  C 
ATOM     24  CG2 VAL E1321      37.530  42.395   0.931  1.00 23.28 LIG 0.01  C 
ENDBRANCH 17 22
ENDBRANCH 1 17
TORSDOF 10
ENDMDL
MODEL 4
USER: ADFR SOLUTION from run 3
USER: SCORE 11.549269 LL:  -1.161 LR: -10.388 RR:   0.000 FEB:  -7.405
USER: RMSD 4.774819
USER: SEED 871273
USER: STATUS no improvement in best 13 clusters for 5 generations
USER: GENES 12
USER: genes 0 Translation |==|  0.44622 0.55852 0.40045
USER: genes 1 Rotation |==|  0.20490 0.52060 0.58437 0.89417
USER: genes 2 Torsion [C]-N--CA-[C] |==|  0.17806
USER: genes 3 Torsion [N]-CA--C-[O] |==|  0.38316
USER: genes 4 Torsion [N]-CA--CB-[CG] |==|  0.89109
USER: genes 5 Torsion [CA]-CB--CG-[CD] |==|  0.53993
USER: genes 6 Torsion [CB]-CG--CD-[CE] |==|  0.65963
USER: genes 7 Torsion [CG]-CD--CE-[NZ] |==|  0.38209
USER: genes 8 Torsion [CD]-CE--NZ-[HZ2] |==|  0.51404
USER: genes 9 Torsion [N]-C--CA-[N] |==|  0.21297
USER: genes 10 Torsion [C]-CA--N-[H1] |==|  0.60519
USER: genes 11 Torsion [C]-CA--CB-[CG1] |==|  0.26950
ROOT
ATOM      1  C   VAL E1321      35.917  41.376  -5.566  1.00100.00 LIG 0.25  C 
ATOM      2 O    VAL E1321      36.780  41.870  -6.249  1.00 26.63 LIG-0.27  OA
ATOM      3  N   LYS E1322      36.174  40.751  -4.414  1.00 27.49 LIG-0.34  N 
ATOM      4 H    LYS E1322      35.571  40.420  -3.898  1.00 27.49 LIG 0.16  HD
ENDROOT
BRANCH 3 5
ATOM      5  CA  LYS E1322      37.550  40.582  -3.935  1.00 83.53 LIG 0.18  C 
BRANCH 5 6
ATOM      6  C   LYS E1322      38.311  41.894  -3.597  1.00 46.63 LIG 0.20  C 
ATOM      7 O    LYS E1322      39.030  41.945  -2.552  1.00 43.95 LIG-0.65  OA
ATOM      8 OXT  LYS E1322      38.280  42.837  -4.454  1.00100.00 LIG-0.65  OA
ENDBRANCH 5 6
BRANCH 5 9
ATOM      9  CB  LYS E1322      38.325  39.653  -4.830  1.00 27.11 LIG 0.04  C 
BRANCH 9 10
ATOM     10  CG  LYS E1322      37.546  38.464  -5.342  1.00 36.61 LIG 0.00  C 
BRANCH 10 11
ATOM     11  CD  LYS E1322      38.496  37.427  -5.927  1.00 49.53 LIG 0.03  C 
BRANCH 11 12
ATOM     12  CE  LYS E1322      38.190  37.097  -7.377  1.00100.00 LIG 0.23  C 
BRANCH 12 13
ATOM     13  NZ  LYS E1322      39.405  36.995  -8.205  1.00 46.56 LIG-0.08  N 
ATOM     14 HZ1  LYS E1322      39.896  36.305  -7.929  1.00 46.56 LIG 0.27  HD
ATOM     15 HZ2  LYS E1322      39.175  36.874  -9.056  1.00 46.56 LIG 0.27  HD
ATOM     16 HZ3  LYS E1322      39.879  37.745  -8.130  1.00 46.56 LIG 0.27  HD
ENDBRANCH 12 13
ENDBRANCH 11 12
ENDBRANCH 10 11
ENDBRANCH 9 10
ENDBRANCH 5 9
ENDBRANCH 3 5
BRANCH 1 17
ATOM     17  CA  VAL E1321      34.469  41.550  -5.955  1.00 34.64 LIG 0.28  C 
BRANCH 17 18
ATOM     18  N   VAL E1321      33.796  42.620  -5.215  1.00 23.60 LIG-0.07  N 
ATOM     19 H1   VAL E1321      32.961  42.375  -5.031  1.00 23.60 LIG 0.28  HD
ATOM     20 H2   VAL E1321      34.233  42.776  -4.455  1.00 23.60 LIG 0.28  HD
ATOM     21 H3   VAL E1321      33.786  43.361  -5.708  1.00 23.60 LIG 0.28  HD
ENDBRANCH 17 18
BRANCH 17 22
ATOM     22  CB  VAL E1321      34.399  41.680  -7.458  1.00 31.80 LIG 0.02  C 
ATOM     23  CG1 VAL E1321      34.059  40.324  -8.110  1.00 29.70 LIG 0.01  C 
ATOM     24  CG2 VAL E1321      33.396  42.778  -7.856  1.00 23.28 LIG 0.01  C 
ENDBRANCH 17 22
ENDBRANCH 1 17
TORSDOF 10
ENDMDL
MODEL 5
USER: ADFR SOLUTION from run 106
USER: SCORE 11.512492 LL:  -1.187 LR: -10.326 RR:   0.000 FEB:  -7.343
USER: RMSD 5.097395
USER: SEED 105
USER: STATUS no improvement in best 20 clusters for 5 generations
USER: GENES 12
USER: genes 0 Translation |==|  0.46368 0.56800 0.43392
USER: genes 1 Rotation |==|  0.63912 0.75231 0.51397 0.90840
USER: genes 2 Torsion [C]-N--CA-[C] |==|  0.75701
USER: genes 3 Torsion [N]-CA--C-[O] |==|  0.73882
USER: genes 4 Torsion [N]-CA--CB-[CG] |==|  0.46030
USER: genes 5 Torsion [CA]-CB--CG-[CD] |==|  0.31669
USER: genes 6 Torsion [CB]-CG--CD-[CE] |==|  0.56035
USER: genes 7 Torsion [CG]-CD--CE-[NZ] |==|  0.43160
USER: genes 8 Torsion [CD]-CE--NZ-[HZ2] |==|  0.50588
USER: genes 9 Torsion [N]-C--CA-[N] |==|  0.90314
USER: genes 10 Torsion [C]-CA--N-[H1] |==|  0.32807
USER: genes 11 Torsion [C]-CA--CB-[CG1] |==|  0.58338
ROOT
ATOM      1  C   VAL E1321      36.440  41.660  -4.562  1.00100.00 LIG 0.25  C 
ATOM      2 O    VAL E1321      37.212  42.358  -5.172  1.00 26.63 LIG-0.27  OA
ATOM      3  N   LYS E1322      35.806  40.625  -5.119  1.00 27.49 LIG-0.34  N 
ATOM      4 H    LYS E1322      35.276  40.097  -4.694  1.00 27.49 LIG 0.16  HD
ENDROOT
BRANCH 3 5
ATOM      5  CA  LYS E1322      35.975  40.308  -6.541  1.00 83.53 LIG 0.18  C 
BRANCH 5 6
ATOM      6  C   LYS E1322      35.012  41.041  -7.514  1.00 46.63 LIG 0.20  C 
ATOM      7 O    LYS E1322      33.932  40.474  -7.868  1.00 43.95 LIG-0.65  OA
ATOM      8 OXT  LYS E1322      35.288  42.245  -7.830  1.00100.00 LIG-0.65  OA
ENDBRANCH 5 6
BRANCH 5 9
ATOM      9  CB  LYS E1322      36.030  38.820  -6.760  1.00 27.11 LIG 0.04  C 
BRANCH 9 10
ATOM     10  CG  LYS E1322      35.863  38.380  -8.196  1.00 36.61 LIG 0.00  C 
BRANCH 10 11
ATOM     11  CD  LYS E1322      37.151  37.745  -8.703  1.00 49.53 LIG 0.03  C 
BRANCH 11 12
ATOM     12  CE  LYS E1322      37.259  37.759 -10.217  1.00100.00 LIG 0.23  C 
BRANCH 12 13
ATOM     13  NZ  LYS E1322      38.655  37.704 -10.687  1.00 46.56 LIG-0.08  N 
ATOM     14 HZ1  LYS E1322      39.030  36.942 -10.419  1.00 46.56 LIG 0.27  HD
ATOM     15 HZ2  LYS E1322      38.671  37.745 -11.577  1.00 46.56 LIG 0.27  HD
ATOM     16 HZ3  LYS E1322      39.109  38.392 -10.351  1.00 46.56 LIG 0.27  HD
ENDBRANCH 12 13
ENDBRANCH 11 12
ENDBRANCH 10 11
ENDBRANCH 9 10
ENDBRANCH 5 9
ENDBRANCH 3 5
BRANCH 1 17
ATOM     17  CA  VAL E1321      36.249  41.879  -3.081  1.00 34.64 LIG 0.28  C 
BRANCH 17 18
ATOM     18  N   VAL E1321      34.905  41.533  -2.615  1.00 23.60 LIG-0.07  N 
ATOM     19 H1   VAL E1321      34.957  40.873  -2.020  1.00 23.60 LIG 0.28  HD
ATOM     20 H2   VAL E1321      34.530  42.245  -2.234  1.00 23.60 LIG 0.28  HD
ATOM     21 H3   VAL E1321      34.408  41.271  -3.305  1.00 23.60 LIG 0.28  HD
ENDBRANCH 17 18
BRANCH 17 22
ATOM     22  CB  VAL E1321      37.371  41.178  -2.355  1.00 31.80 LIG 0.02  C 
ATOM     23  CG1 VAL E1321      36.910  40.703  -0.961  1.00 29.70 LIG 0.01  C 
ATOM     24  CG2 VAL E1321      37.918  40.017  -3.206  1.00 23.28 LIG 0.01  C 
ENDBRANCH 17 22
ENDBRANCH 1 17
TORSDOF 10
ENDMDL
MODEL 6
USER: ADFR SOLUTION from run 54
USER: SCORE 11.344877 LL:  -1.060 LR: -10.285 RR:   0.000 FEB:  -7.302
USER: RMSD 4.350196
USER: SEED 53
USER: STATUS no improvement in best 14 clusters for 5 generations
USER: GENES 12
USER: genes 0 Translation |==|  0.43674 0.55911 0.39064
USER: genes 1 Rotation |==|  0.15881 0.53460 0.56924 0.85721
USER: genes 2 Torsion [C]-N--CA-[C] |==|  0.16598
USER: genes 3 Torsion [N]-CA--C-[O] |==|  0.87785
USER: genes 4 Torsion [N]-CA--CB-[CG] |==|  0.64431
USER: genes 5 Torsion [CA]-CB--CG-[CD] |==|  0.02076
USER: genes 6 Torsion [CB]-CG--CD-[CE] |==|  0.38991
USER: genes 7 Torsion [CG]-CD--CE-[NZ] |==|  0.67384
USER: genes 8 Torsion [CD]-CE--NZ-[HZ2] |==|  0.65763
USER: genes 9 Torsion [N]-C--CA-[N] |==|  0.17790
USER: genes 10 Torsion [C]-CA--N-[H1] |==|  0.06893
USER: genes 11 Torsion [C]-CA--CB-[CG1] |==|  0.33691
ROOT
ATOM      1  C   VAL E1321      35.632  41.393  -5.861  1.00100.00 LIG 0.25  C 
ATOM      2 O    VAL E1321      36.526  41.667  -6.624  1.00 26.63 LIG-0.27  OA
ATOM      3  N   LYS E1322      35.846  41.056  -4.586  1.00 27.49 LIG-0.34  N 
ATOM      4 H    LYS E1322      35.222  40.889  -4.019  1.00 27.49 LIG 0.16  HD
ENDROOT
BRANCH 3 5
ATOM      5  CA  LYS E1322      37.206  40.947  -4.050  1.00 83.53 LIG 0.18  C 
BRANCH 5 6
ATOM      6  C   LYS E1322      38.065  42.239  -4.119  1.00 46.63 LIG 0.20  C 
ATOM      7 O    LYS E1322      38.058  42.935  -5.181  1.00 43.95 LIG-0.65  OA
ATOM      8 OXT  LYS E1322      38.655  42.620  -3.055  1.00100.00 LIG-0.65  OA
ENDBRANCH 5 6
BRANCH 5 9
ATOM      9  CB  LYS E1322      37.907  39.732  -4.596  1.00 27.11 LIG 0.04  C 
BRANCH 9 10
ATOM     10  CG  LYS E1322      38.519  38.825  -3.554  1.00 36.61 LIG 0.00  C 
BRANCH 10 11
ATOM     11  CD  LYS E1322      38.111  39.280  -2.159  1.00 49.53 LIG 0.03  C 
BRANCH 11 12
ATOM     12  CE  LYS E1322      37.806  38.122  -1.226  1.00100.00 LIG 0.23  C 
BRANCH 12 13
ATOM     13  NZ  LYS E1322      36.406  38.120  -0.764  1.00 46.56 LIG-0.08  N 
ATOM     14 HZ1  LYS E1322      35.997  37.386  -1.056  1.00 46.56 LIG 0.27  HD
ATOM     15 HZ2  LYS E1322      36.388  38.135   0.126  1.00 46.56 LIG 0.27  HD
ATOM     16 HZ3  LYS E1322      35.988  38.839  -1.081  1.00 46.56 LIG 0.27  HD
ENDBRANCH 12 13
ENDBRANCH 11 12
ENDBRANCH 10 11
ENDBRANCH 9 10
ENDBRANCH 5 9
ENDBRANCH 3 5
BRANCH 1 17
ATOM     17  CA  VAL E1321      34.199  41.535  -6.313  1.00 34.64 LIG 0.28  C 
BRANCH 17 18
ATOM     18  N   VAL E1321      33.484  42.620  -5.638  1.00 23.60 LIG-0.07  N 
ATOM     19 H1   VAL E1321      34.068  43.229  -5.354  1.00 23.60 LIG 0.28  HD
ATOM     20 H2   VAL E1321      32.914  42.999  -6.206  1.00 23.60 LIG 0.28  HD
ATOM     21 H3   VAL E1321      33.036  42.293  -4.942  1.00 23.60 LIG 0.28  HD
ENDBRANCH 17 18
BRANCH 17 22
ATOM     22  CB  VAL E1321      34.188  41.612  -7.820  1.00 31.80 LIG 0.02  C 
ATOM     23  CG1 VAL E1321      33.336  40.474  -8.422  1.00 29.70 LIG 0.01  C 
ATOM     24  CG2 VAL E1321      33.705  42.998  -8.284  1.00 23.28 LIG 0.01  C 
ENDBRANCH 17 22
ENDBRANCH 1 17
TORSDOF 10
ENDMDL
MODEL 7
USER: ADFR SOLUTION from run 43
USER: SCORE 11.655452 LL:  -1.386 LR: -10.270 RR:   0.000 FEB:  -7.287
USER: RMSD 4.915112
USER: SEED 42
USER: STATUS no improvement in best 17 clusters for 5 generations
USER: GENES 12
USER: genes 0 Translation |==|  0.52739 0.50631 0.48504
USER: genes 1 Rotation |==|  0.93817 0.72374 0.52660 0.58510
USER: genes 2 Torsion [C]-N--CA-[C] |==|  0.20335
USER: genes 3 Torsion [N]-CA--C-[O] |==|  0.21123
USER: genes 4 Torsion [N]-CA--CB-[CG] |==|  0.67215
USER: genes 5 Torsion [CA]-CB--CG-[CD] |==|  0.25122
USER: genes 6 Torsion [CB]-CG--CD-[CE] |==|  0.82942
USER: genes 7 Torsion [CG]-CD--CE-[NZ] |==|  0.87897
USER: genes 8 Torsion [CD]-CE--NZ-[HZ2] |==|  0.46211
USER: genes 9 Torsion [N]-C--CA-[N] |==|  0.38004
USER: genes 10 Torsion [C]-CA--N-[H1] |==|  0.69786
USER: genes 11 Torsion [C]-CA--CB-[CG1] |==|  0.14662
ROOT
ATOM      1  C   VAL E1321      38.352  39.809  -3.029  1.00100.00 LIG 0.25  C 
ATOM      2 O    VAL E1321      39.405  40.397  -3.066  1.00 26.63 LIG-0.27  OA
ATOM      3  N   LYS E1322      37.177  40.420  -3.202  1.00 27.49 LIG-0.34  N 
ATOM      4 H    LYS E1322      36.418  40.015  -3.211  1.00 27.49 LIG 0.16  HD
ENDROOT
BRANCH 3 5
ATOM      5  CA  LYS E1322      37.098  41.871  -3.398  1.00 83.53 LIG 0.18  C 
BRANCH 5 6
ATOM      6  C   LYS E1322      37.570  42.391  -4.784  1.00 46.63 LIG 0.20  C 
ATOM      7 O    LYS E1322      36.816  42.244  -5.794  1.00 43.95 LIG-0.65  OA
ATOM      8 OXT  LYS E1322      38.655  43.059  -4.830  1.00100.00 LIG-0.65  OA
ENDBRANCH 5 6
BRANCH 5 9
ATOM      9  CB  LYS E1322      37.715  42.607  -2.239  1.00 27.11 LIG 0.04  C 
BRANCH 9 10
ATOM     10  CG  LYS E1322      36.767  43.498  -1.471  1.00 36.61 LIG 0.00  C 
BRANCH 10 11
ATOM     11  CD  LYS E1322      36.123  42.719  -0.332  1.00 49.53 LIG 0.03  C 
BRANCH 11 12
ATOM     12  CE  LYS E1322      35.300  41.538  -0.816  1.00100.00 LIG 0.23  C 
BRANCH 12 13
ATOM     13  NZ  LYS E1322      34.462  41.870  -1.982  1.00 46.56 LIG-0.08  N 
ATOM     14 HZ1  LYS E1322      34.947  42.317  -2.580  1.00 46.56 LIG 0.27  HD
ATOM     15 HZ2  LYS E1322      34.155  41.120  -2.350  1.00 46.56 LIG 0.27  HD
ATOM     16 HZ3  LYS E1322      33.776  42.374  -1.721  1.00 46.56 LIG 0.27  HD
ENDBRANCH 12 13
ENDBRANCH 11 12
ENDBRANCH 10 11
ENDBRANCH 9 10
ENDBRANCH 5 9
ENDBRANCH 3 5
BRANCH 1 17
ATOM     17  CA  VAL E1321      38.342  38.307  -2.889  1.00 34.64 LIG 0.28  C 
BRANCH 17 18
ATOM     18  N   VAL E1321      39.404  37.648  -3.651  1.00 23.60 LIG-0.07  N 
ATOM     19 H1   VAL E1321      39.050  37.218  -4.345  1.00 23.60 LIG 0.28  HD
ATOM     20 H2   VAL E1321      39.982  38.258  -3.944  1.00 23.60 LIG 0.28  HD
ATOM     21 H3   VAL E1321      39.829  37.066  -3.127  1.00 23.60 LIG 0.28  HD
ENDBRANCH 17 18
BRANCH 17 22
ATOM     22  CB  VAL E1321      38.320  37.974  -1.416  1.00 31.80 LIG 0.02  C 
ATOM     23  CG1 VAL E1321      37.165  38.709  -0.705  1.00 29.70 LIG 0.01  C 
ATOM     24  CG2 VAL E1321      38.242  36.449  -1.212  1.00 23.28 LIG 0.01  C 
ENDBRANCH 17 22
ENDBRANCH 1 17
TORSDOF 10
ENDMDL
MODEL 8
USER: ADFR SOLUTION from run 128
USER: SCORE 11.274546 LL:  -1.129 LR: -10.146 RR:   0.000 FEB:  -7.163
USER: RMSD 7.745195
USER: SEED 127
USER: STATUS no improvement in best 17 clusters for 5 generations
USER: GENES 12
USER: genes 0 Translation |==|  0.36078 0.58426 0.28781
USER: genes 1 Rotation |==|  0.61030 0.13282 0.63822 0.78966
USER: genes 2 Torsion [C]-N--CA-[C] |==|  0.81437
USER: genes 3 Torsion [N]-CA--C-[O] |==|  0.69530
USER: genes 4 Torsion [N]-CA--CB-[CG] |==|  0.87971
USER: genes 5 Torsion [CA]-CB--CG-[CD] |==|  0.34825
USER: genes 6 Torsion [CB]-CG--CD-[CE] |==|  0.22935
USER: genes 7 Torsion [CG]-CD--CE-[NZ] |==|  0.51339
USER: genes 8 Torsion [CD]-CE--NZ-[HZ2] |==|  0.54017
USER: genes 9 Torsion [N]-C--CA-[N] |==|  0.33838
USER: genes 10 Torsion [C]-CA--N-[H1] |==|  0.68728
USER: genes 11 Torsion [C]-CA--CB-[CG1] |==|  0.38170
ROOT
ATOM      1  C   VAL E1321      33.354  42.148  -8.946  1.00100.00 LIG 0.25  C 
ATOM      2 O    VAL E1321      32.686  42.404  -7.974  1.00 26.63 LIG-0.27  OA
ATOM      3  N   LYS E1322      34.435  41.365  -8.895  1.00 27.49 LIG-0.34  N 
ATOM      4 H    LYS E1322      34.905  41.145  -9.581  1.00 27.49 LIG 0.16  HD
ENDROOT
BRANCH 3 5
ATOM      5  CA  LYS E1322      34.908  40.808  -7.624  1.00 83.53 LIG 0.18  C 
BRANCH 5 6
ATOM      6  C   LYS E1322      35.454  41.838  -6.598  1.00 46.63 LIG 0.20  C 
ATOM      7 O    LYS E1322      36.698  41.870  -6.348  1.00 43.95 LIG-0.65  OA
ATOM      8 OXT  LYS E1322      34.640  42.701  -6.131  1.00100.00 LIG-0.65  OA
ENDBRANCH 5 6
BRANCH 5 9
ATOM      9  CB  LYS E1322      35.834  39.644  -7.855  1.00 27.11 LIG 0.04  C 
BRANCH 9 10
ATOM     10  CG  LYS E1322      35.385  38.673  -8.922  1.00 36.61 LIG 0.00  C 
BRANCH 10 11
ATOM     11  CD  LYS E1322      36.481  38.496  -9.964  1.00 49.53 LIG 0.03  C 
BRANCH 11 12
ATOM     12  CE  LYS E1322      37.539  37.492  -9.543  1.00100.00 LIG 0.23  C 
BRANCH 12 13
ATOM     13  NZ  LYS E1322      38.655  37.407 -10.503  1.00 46.56 LIG-0.08  N 
ATOM     14 HZ1  LYS E1322      39.172  38.127 -10.422  1.00 46.56 LIG 0.27  HD
ATOM     15 HZ2  LYS E1322      39.135  36.676 -10.336  1.00 46.56 LIG 0.27  HD
ATOM     16 HZ3  LYS E1322      38.332  37.366 -11.331  1.00 46.56 LIG 0.27  HD
ENDBRANCH 12 13
ENDBRANCH 11 12
ENDBRANCH 10 11
ENDBRANCH 9 10
ENDBRANCH 5 9
ENDBRANCH 3 5
BRANCH 1 17
ATOM     17  CA  VAL E1321      32.908  42.633 -10.304  1.00 34.64 LIG 0.28  C 
BRANCH 17 18
ATOM     18  N   VAL E1321      31.535  42.244 -10.635  1.00 23.60 LIG-0.07  N 
ATOM     19 H1   VAL E1321      31.545  41.660 -11.306  1.00 23.60 LIG 0.28  HD
ATOM     20 H2   VAL E1321      31.152  41.872  -9.923  1.00 23.60 LIG 0.28  HD
ATOM     21 H3   VAL E1321      31.073  42.965 -10.877  1.00 23.60 LIG 0.28  HD
ENDBRANCH 17 18
BRANCH 17 22
ATOM     22  CB  VAL E1321      33.184  44.115 -10.386  1.00 31.80 LIG 0.02  C 
ATOM     23  CG1 VAL E1321      33.780  44.487 -11.760  1.00 29.70 LIG 0.01  C 
ATOM     24  CG2 VAL E1321      31.905  44.916 -10.078  1.00 23.28 LIG 0.01  C 
ENDBRANCH 17 22
ENDBRANCH 1 17
TORSDOF 10
ENDMDL
MODEL 9
USER: ADFR SOLUTION from run 100
USER: SCORE 10.719006 LL:  -0.827 LR:  -9.892 RR:   0.000 FEB:  -6.909
USER: RMSD 4.631940
USER: SEED 99
USER: STATUS no improvement in best 20 clusters for 5 generations
USER: GENES 12
USER: genes 0 Translation |==|  0.48557 0.63155 0.50692
USER: genes 1 Rotation |==|  0.64592 0.58033 0.36985 0.95312
USER: genes 2 Torsion [C]-N--CA-[C] |==|  0.94805
USER: genes 3 Torsion [N]-CA--C-[O] |==|  0.76958
USER: genes 4 Torsion [N]-CA--CB-[CG] |==|  0.64295
USER: genes 5 Torsion [CA]-CB--CG-[CD] |==|  0.78340
USER: genes 6 Torsion [CB]-CG--CD-[CE] |==|  0.63188
USER: genes 7 Torsion [CG]-CD--CE-[NZ] |==|  0.35402
USER: genes 8 Torsion [CD]-CE--NZ-[HZ2] |==|  0.37774
USER: genes 9 Torsion [N]-C--CA-[N] |==|  0.92378
USER: genes 10 Torsion [C]-CA--N-[H1] |==|  0.26280
USER: genes 11 Torsion [C]-CA--CB-[CG1] |==|  0.86657
ROOT
ATOM      1  C   VAL E1321      37.097  43.567  -2.372  1.00100.00 LIG 0.25  C 
ATOM      2 O    VAL E1321      38.280  43.392  -2.534  1.00 26.63 LIG-0.27  OA
ATOM      3  N   LYS E1322      36.167  42.916  -3.077  1.00 27.49 LIG-0.34  N 
ATOM      4 H    LYS E1322      35.320  43.003  -2.956  1.00 27.49 LIG 0.16  HD
ENDROOT
BRANCH 3 5
ATOM      5  CA  LYS E1322      36.540  41.977  -4.140  1.00 83.53 LIG 0.18  C 
BRANCH 5 6
ATOM      6  C   LYS E1322      37.985  42.122  -4.690  1.00 46.63 LIG 0.20  C 
ATOM      7 O    LYS E1322      38.229  42.995  -5.580  1.00 43.95 LIG-0.65  OA
ATOM      8 OXT  LYS E1322      38.905  41.435  -4.136  1.00100.00 LIG-0.65  OA
ENDBRANCH 5 6
BRANCH 5 9
ATOM      9  CB  LYS E1322      35.490  41.935  -5.217  1.00 27.11 LIG 0.04  C 
BRANCH 9 10
ATOM     10  CG  LYS E1322      35.004  40.551  -5.580  1.00 36.61 LIG 0.00  C 
BRANCH 10 11
ATOM     11  CD  LYS E1322      36.021  39.857  -6.476  1.00 49.53 LIG 0.03  C 
BRANCH 11 12
ATOM     12  CE  LYS E1322      35.388  39.208  -7.694  1.00100.00 LIG 0.23  C 
BRANCH 12 13
ATOM     13  NZ  LYS E1322      36.030  39.620  -8.955  1.00 46.56 LIG-0.08  N 
ATOM     14 HZ1  LYS E1322      36.818  39.995  -8.779  1.00 46.56 LIG 0.27  HD
ATOM     15 HZ2  LYS E1322      36.150  38.907  -9.474  1.00 46.56 LIG 0.27  HD
ATOM     16 HZ3  LYS E1322      35.509  40.208  -9.375  1.00 46.56 LIG 0.27  HD
ENDBRANCH 12 13
ENDBRANCH 11 12
ENDBRANCH 10 11
ENDBRANCH 9 10
ENDBRANCH 5 9
ENDBRANCH 3 5
BRANCH 1 17
ATOM     17  CA  VAL E1321      36.623  44.472  -1.262  1.00 34.64 LIG 0.28  C 
BRANCH 17 18
ATOM     18  N   VAL E1321      35.280  45.010  -1.488  1.00 23.60 LIG-0.07  N 
ATOM     19 H1   VAL E1321      34.680  44.495  -1.080  1.00 23.60 LIG 0.28  HD
ATOM     20 H2   VAL E1321      35.232  45.836  -1.161  1.00 23.60 LIG 0.28  HD
ATOM     21 H3   VAL E1321      35.110  45.027  -2.362  1.00 23.60 LIG 0.28  HD
ENDBRANCH 17 18
BRANCH 17 22
ATOM     22  CB  VAL E1321      36.799  43.741   0.047  1.00 31.80 LIG 0.02  C 
ATOM     23  CG1 VAL E1321      36.230  42.309  -0.044  1.00 29.70 LIG 0.01  C 
ATOM     24  CG2 VAL E1321      38.280  43.745   0.469  1.00 23.28 LIG 0.01  C 
ENDBRANCH 17 22
ENDBRANCH 1 17
TORSDOF 10
ENDMDL
MODEL 10
USER: ADFR SOLUTION from run 160
USER: SCORE 12.093581 LL:  -2.248 LR:  -9.846 RR:   0.000 FEB:  -6.863
USER: RMSD 6.708974
USER: SEED 159
USER: STATUS no improvement in best 20 clusters for 5 generations
USER: GENES 12
USER: genes 0 Translation |==|  0.44360 0.58191 0.41826
USER: genes 1 Rotation |==|  0.73235 0.66331 0.32825 0.87396
USER: genes 2 Torsion [C]-N--CA-[C] |==|  0.68976
USER: genes 3 Torsion [N]-CA--C-[O] |==|  0.79571
USER: genes 4 Torsion [N]-CA--CB-[CG] |==|  0.51751
USER: genes 5 Torsion [CA]-CB--CG-[CD] |==|  0.73371
USER: genes 6 Torsion [CB]-CG--CD-[CE] |==|  0.31064
USER: genes 7 Torsion [CG]-CD--CE-[NZ] |==|  0.63160
USER: genes 8 Torsion [CD]-CE--NZ-[HZ2] |==|  0.13039
USER: genes 9 Torsion [N]-C--CA-[N] |==|  0.10976
USER: genes 10 Torsion [C]-CA--N-[H1] |==|  0.62979
USER: genes 11 Torsion [C]-CA--CB-[CG1] |==|  0.42338
ROOT
ATOM      1  C   VAL E1321      35.838  42.077  -5.032  1.00100.00 LIG 0.25  C 
ATOM      2 O    VAL E1321      36.857  41.870  -5.644  1.00 26.63 LIG-0.27  OA
ATOM      3  N   LYS E1322      34.627  41.947  -5.579  1.00 27.49 LIG-0.34  N 
ATOM      4 H    LYS E1322      33.888  42.059  -5.152  1.00 27.49 LIG 0.16  HD
ENDROOT
BRANCH 3 5
ATOM      5  CA  LYS E1322      34.467  41.590  -6.992  1.00 83.53 LIG 0.18  C 
BRANCH 5 6
ATOM      6  C   LYS E1322      33.888  42.703  -7.908  1.00 46.63 LIG 0.20  C 
ATOM      7 O    LYS E1322      32.655  42.995  -7.830  1.00 43.95 LIG-0.65  OA
ATOM      8 OXT  LYS E1322      34.706  43.370  -8.623  1.00100.00 LIG-0.65  OA
ENDBRANCH 5 6
BRANCH 5 9
ATOM      9  CB  LYS E1322      33.764  40.267  -7.140  1.00 27.11 LIG 0.04  C 
BRANCH 9 10
ATOM     10  CG  LYS E1322      33.685  39.741  -8.554  1.00 36.61 LIG 0.00  C 
BRANCH 10 11
ATOM     11  CD  LYS E1322      32.350  40.118  -9.180  1.00 49.53 LIG 0.03  C 
BRANCH 11 12
ATOM     12  CE  LYS E1322      32.489  41.131 -10.303  1.00100.00 LIG 0.23  C 
BRANCH 12 13
ATOM     13  NZ  LYS E1322      31.530  42.244 -10.187  1.00 46.56 LIG-0.08  N 
ATOM     14 HZ1  LYS E1322      30.714  41.957 -10.397  1.00 46.56 LIG 0.27  HD
ATOM     15 HZ2  LYS E1322      31.530  42.550  -9.351  1.00 46.56 LIG 0.27  HD
ATOM     16 HZ3  LYS E1322      31.766  42.898 -10.742  1.00 46.56 LIG 0.27  HD
ENDBRANCH 12 13
ENDBRANCH 11 12
ENDBRANCH 10 11
ENDBRANCH 9 10
ENDBRANCH 5 9
ENDBRANCH 3 5
BRANCH 1 17
ATOM     17  CA  VAL E1321      35.906  42.394  -3.558  1.00 34.64 LIG 0.28  C 
BRANCH 17 18
ATOM     18  N   VAL E1321      34.905  41.678  -2.766  1.00 23.60 LIG-0.07  N 
ATOM     19 H1   VAL E1321      34.506  42.245  -2.208  1.00 23.60 LIG 0.28  HD
ATOM     20 H2   VAL E1321      34.297  41.319  -3.308  1.00 23.60 LIG 0.28  HD
ATOM     21 H3   VAL E1321      35.302  41.033  -2.298  1.00 23.60 LIG 0.28  HD
ENDBRANCH 17 18
BRANCH 17 22
ATOM     22  CB  VAL E1321      37.332  42.199  -3.102  1.00 31.80 LIG 0.02  C 
ATOM     23  CG1 VAL E1321      37.651  43.103  -1.893  1.00 29.70 LIG 0.01  C 
ATOM     24  CG2 VAL E1321      37.599  40.713  -2.796  1.00 23.28 LIG 0.01  C 
ENDBRANCH 17 22
ENDBRANCH 1 17
TORSDOF 10
ENDMDL
MODEL 11
USER: ADFR SOLUTION from run 82
USER: SCORE 11.286556 LL:  -1.509 LR:  -9.777 RR:   0.000 FEB:  -6.794
USER: RMSD 11.913995
USER: SEED 81
USER: STATUS no improvement in best 11 clusters for 5 generations
USER: GENES 12
USER: genes 0 Translation |==|  0.31006 0.57324 0.19729
USER: genes 1 Rotation |==|  0.05984 0.50736 0.60335 0.71337
USER: genes 2 Torsion [C]-N--CA-[C] |==|  0.57780
USER: genes 3 Torsion [N]-CA--C-[O] |==|  0.42185
USER: genes 4 Torsion [N]-CA--CB-[CG] |==|  0.09723
USER: genes 5 Torsion [CA]-CB--CG-[CD] |==|  0.59847
USER: genes 6 Torsion [CB]-CG--CD-[CE] |==|  0.83372
USER: genes 7 Torsion [CG]-CD--CE-[NZ] |==|  0.64209
USER: genes 8 Torsion [CD]-CE--NZ-[HZ2] |==|  0.36623
USER: genes 9 Torsion [N]-C--CA-[N] |==|  0.95435
USER: genes 10 Torsion [C]-CA--N-[H1] |==|  0.31613
USER: genes 11 Torsion [C]-CA--CB-[CG1] |==|  0.48491
ROOT
ATOM      1  C   VAL E1321      31.832  41.817 -11.661  1.00100.00 LIG 0.25  C 
ATOM      2 O    VAL E1321      32.689  41.791 -12.510  1.00 26.63 LIG-0.27  OA
ATOM      3  N   LYS E1322      32.010  42.396 -10.471  1.00 27.49 LIG-0.34  N 
ATOM      4 H    LYS E1322      31.403  42.453  -9.865  1.00 27.49 LIG 0.16  HD
ENDROOT
BRANCH 3 5
ATOM      5  CA  LYS E1322      33.297  42.996 -10.105  1.00 83.53 LIG 0.18  C 
BRANCH 5 6
ATOM      6  C   LYS E1322      33.623  43.017  -8.586  1.00 46.63 LIG 0.20  C 
ATOM      7 O    LYS E1322      34.835  42.995  -8.208  1.00 43.95 LIG-0.65  OA
ATOM      8 OXT  LYS E1322      32.655  43.178  -7.772  1.00100.00 LIG-0.65  OA
ENDBRANCH 5 6
BRANCH 5 9
ATOM      9  CB  LYS E1322      33.484  44.330 -10.776  1.00 27.11 LIG 0.04  C 
BRANCH 9 10
ATOM     10  CG  LYS E1322      32.221  45.143 -10.941  1.00 36.61 LIG 0.00  C 
BRANCH 10 11
ATOM     11  CD  LYS E1322      32.264  45.918 -12.251  1.00 49.53 LIG 0.03  C 
BRANCH 11 12
ATOM     12  CE  LYS E1322      33.438  46.878 -12.330  1.00100.00 LIG 0.23  C 
BRANCH 12 13
ATOM     13  NZ  LYS E1322      33.030  48.244 -12.705  1.00 46.56 LIG-0.08  N 
ATOM     14 HZ1  LYS E1322      32.144  48.314 -12.655  1.00 46.56 LIG 0.27  HD
ATOM     15 HZ2  LYS E1322      33.405  48.829 -12.149  1.00 46.56 LIG 0.27  HD
ATOM     16 HZ3  LYS E1322      33.295  48.415 -13.538  1.00 46.56 LIG 0.27  HD
ENDBRANCH 12 13
ENDBRANCH 11 12
ENDBRANCH 10 11
ENDBRANCH 9 10
ENDBRANCH 5 9
ENDBRANCH 3 5
BRANCH 1 17
ATOM     17  CA  VAL E1321      30.458  41.275 -11.973  1.00 34.64 LIG 0.28  C 
BRANCH 17 18
ATOM     18  N   VAL E1321      29.615  41.120 -10.786  1.00 23.60 LIG-0.07  N 
ATOM     19 H1   VAL E1321      28.930  41.687 -10.832  1.00 23.60 LIG 0.28  HD
ATOM     20 H2   VAL E1321      29.306  40.286 -10.747  1.00 23.60 LIG 0.28  HD
ATOM     21 H3   VAL E1321      30.094  41.293 -10.056  1.00 23.60 LIG 0.28  HD
ENDBRANCH 17 18
BRANCH 17 22
ATOM     22  CB  VAL E1321      29.858  42.120 -13.070  1.00 31.80 LIG 0.02  C 
ATOM     23  CG1 VAL E1321      28.506  41.539 -13.534  1.00 29.70 LIG 0.01  C 
ATOM     24  CG2 VAL E1321      29.727  43.584 -12.608  1.00 23.28 LIG 0.01  C 
ENDBRANCH 17 22
ENDBRANCH 1 17
TORSDOF 10
ENDMDL
MODEL 12
USER: ADFR SOLUTION from run 101
USER: SCORE 10.921649 LL:  -1.162 LR:  -9.760 RR:   0.000 FEB:  -6.777
USER: RMSD 5.217028
USER: SEED 100
USER: STATUS no improvement in best 19 clusters for 5 generations
USER: GENES 12
USER: genes 0 Translation |==|  0.54021 0.50330 0.47173
USER: genes 1 Rotation |==|  0.93795 0.73871 0.50686 0.53424
USER: genes 2 Torsion [C]-N--CA-[C] |==|  0.19921
USER: genes 3 Torsion [N]-CA--C-[O] |==|  0.70267
USER: genes 4 Torsion [N]-CA--CB-[CG] |==|  0.70308
USER: genes 5 Torsion [CA]-CB--CG-[CD] |==|  0.15715
USER: genes 6 Torsion [CB]-CG--CD-[CE] |==|  0.69176
USER: genes 7 Torsion [CG]-CD--CE-[NZ] |==|  0.20101
USER: genes 8 Torsion [CD]-CE--NZ-[HZ2] |==|  0.07369
USER: genes 9 Torsion [N]-C--CA-[N] |==|  0.00103
USER: genes 10 Torsion [C]-CA--N-[H1] |==|  0.70366
USER: genes 11 Torsion [C]-CA--CB-[CG1] |==|  0.40405
ROOT
ATOM      1  C   VAL E1321      38.736  39.719  -3.428  1.00100.00 LIG 0.25  C 
ATOM      2 O    VAL E1321      39.744  40.370  -3.555  1.00 26.63 LIG-0.27  OA
ATOM      3  N   LYS E1322      37.526  40.273  -3.315  1.00 27.49 LIG-0.34  N 
ATOM      4 H    LYS E1322      36.793  39.827  -3.256  1.00 27.49 LIG 0.16  HD
ENDROOT
BRANCH 3 5
ATOM      5  CA  LYS E1322      37.360  41.730  -3.286  1.00 83.53 LIG 0.18  C 
BRANCH 5 6
ATOM      6  C   LYS E1322      37.601  42.464  -4.634  1.00 46.63 LIG 0.20  C 
ATOM      7 O    LYS E1322      38.655  43.154  -4.788  1.00 43.95 LIG-0.65  OA
ATOM      8 OXT  LYS E1322      36.780  42.245  -5.585  1.00100.00 LIG-0.65  OA
ENDBRANCH 5 6
BRANCH 5 9
ATOM      9  CB  LYS E1322      38.111  42.337  -2.131  1.00 27.11 LIG 0.04  C 
BRANCH 9 10
ATOM     10  CG  LYS E1322      37.245  42.819  -0.990  1.00 36.61 LIG 0.00  C 
BRANCH 10 11
ATOM     11  CD  LYS E1322      36.380  41.679  -0.471  1.00 49.53 LIG 0.03  C 
BRANCH 11 12
ATOM     12  CE  LYS E1322      34.905  41.870  -0.779  1.00100.00 LIG 0.23  C 
BRANCH 12 13
ATOM     13  NZ  LYS E1322      34.592  41.669  -2.205  1.00 46.56 LIG-0.08  N 
ATOM     14 HZ1  LYS E1322      34.615  42.453  -2.628  1.00 46.56 LIG 0.27  HD
ATOM     15 HZ2  LYS E1322      35.192  41.120  -2.566  1.00 46.56 LIG 0.27  HD
ATOM     16 HZ3  LYS E1322      33.780  41.314  -2.284  1.00 46.56 LIG 0.27  HD
ENDBRANCH 12 13
ENDBRANCH 11 12
ENDBRANCH 10 11
ENDBRANCH 9 10
ENDBRANCH 5 9
ENDBRANCH 3 5
BRANCH 1 17
ATOM     17  CA  VAL E1321      38.808  38.213  -3.505  1.00 34.64 LIG 0.28  C 
BRANCH 17 18
ATOM     18  N   VAL E1321      37.495  37.568  -3.450  1.00 23.60 LIG-0.07  N 
ATOM     19 H1   VAL E1321      37.385  37.183  -2.655  1.00 23.60 LIG 0.28  HD
ATOM     20 H2   VAL E1321      36.859  38.178  -3.573  1.00 23.60 LIG 0.28  HD
ATOM     21 H3   VAL E1321      37.440  36.950  -4.088  1.00 23.60 LIG 0.28  HD
ENDBRANCH 17 18
BRANCH 17 22
ATOM     22  CB  VAL E1321      39.645  37.845  -4.706  1.00 31.80 LIG 0.02  C 
ATOM     23  CG1 VAL E1321      40.466  36.567  -4.432  1.00 29.70 LIG 0.01  C 
ATOM     24  CG2 VAL E1321      38.756  37.700  -5.955  1.00 23.28 LIG 0.01  C 
ENDBRANCH 17 22
ENDBRANCH 1 17
TORSDOF 10
ENDMDL
MODEL 13
USER: ADFR SOLUTION from run 5
USER: SCORE 11.274134 LL:  -1.511 LR:  -9.763 RR:   0.000 FEB:  -6.780
USER: RMSD 4.490509
USER: SEED 833919
USER: STATUS no improvement in best 15 clusters for 5 generations
USER: GENES 12
USER: genes 0 Translation |==|  0.47840 0.59498 0.52095
USER: genes 1 Rotation |==|  0.61463 0.63550 0.55554 0.96413
USER: genes 2 Torsion [C]-N--CA-[C] |==|  0.86781
USER: genes 3 Torsion [N]-CA--C-[O] |==|  0.31479
USER: genes 4 Torsion [N]-CA--CB-[CG] |==|  0.28385
USER: genes 5 Torsion [CA]-CB--CG-[CD] |==|  0.75910
USER: genes 6 Torsion [CB]-CG--CD-[CE] |==|  0.32167
USER: genes 7 Torsion [CG]-CD--CE-[NZ] |==|  0.74402
USER: genes 8 Torsion [CD]-CE--NZ-[HZ2] |==|  0.18169
USER: genes 9 Torsion [N]-C--CA-[N] |==|  0.87530
USER: genes 10 Torsion [C]-CA--N-[H1] |==|  0.34282
USER: genes 11 Torsion [C]-CA--CB-[CG1] |==|  0.87622
ROOT
ATOM      1  C   VAL E1321      36.882  42.469  -1.951  1.00100.00 LIG 0.25  C 
ATOM      2 O    VAL E1321      37.834  43.193  -2.108  1.00 26.63 LIG-0.27  OA
ATOM      3  N   LYS E1322      36.669  41.382  -2.698  1.00 27.49 LIG-0.34  N 
ATOM      4 H    LYS E1322      36.014  40.837  -2.582  1.00 27.49 LIG 0.16  HD
ENDROOT
BRANCH 3 5
ATOM      5  CA  LYS E1322      37.569  41.033  -3.802  1.00 83.53 LIG 0.18  C 
BRANCH 5 6
ATOM      6  C   LYS E1322      37.928  42.193  -4.771  1.00 46.63 LIG 0.20  C 
ATOM      7 O    LYS E1322      39.123  42.620  -4.816  1.00 43.95 LIG-0.65  OA
ATOM      8 OXT  LYS E1322      37.027  42.595  -5.578  1.00100.00 LIG-0.65  OA
ENDBRANCH 5 6
BRANCH 5 9
ATOM      9  CB  LYS E1322      37.102  39.787  -4.506  1.00 27.11 LIG 0.04  C 
BRANCH 9 10
ATOM     10  CG  LYS E1322      36.395  40.024  -5.820  1.00 36.61 LIG 0.00  C 
BRANCH 10 11
ATOM     11  CD  LYS E1322      34.911  40.265  -5.580  1.00 49.53 LIG 0.03  C 
BRANCH 11 12
ATOM     12  CE  LYS E1322      34.468  41.661  -5.981  1.00100.00 LIG 0.23  C 
BRANCH 12 13
ATOM     13  NZ  LYS E1322      34.530  42.620  -4.863  1.00 46.56 LIG-0.08  N 
ATOM     14 HZ1  LYS E1322      34.060  42.306  -4.175  1.00 46.56 LIG 0.27  HD
ATOM     15 HZ2  LYS E1322      35.378  42.734  -4.616  1.00 46.56 LIG 0.27  HD
ATOM     16 HZ3  LYS E1322      34.190  43.401  -5.122  1.00 46.56 LIG 0.27  HD
ENDBRANCH 12 13
ENDBRANCH 11 12
ENDBRANCH 10 11
ENDBRANCH 9 10
ENDBRANCH 5 9
ENDBRANCH 3 5
BRANCH 1 17
ATOM     17  CA  VAL E1321      35.936  42.721  -0.803  1.00 34.64 LIG 0.28  C 
BRANCH 17 18
ATOM     18  N   VAL E1321      34.529  42.531  -1.160  1.00 23.60 LIG-0.07  N 
ATOM     19 H1   VAL E1321      34.163  41.928  -0.617  1.00 23.60 LIG 0.28  HD
ATOM     20 H2   VAL E1321      34.094  43.304  -1.080  1.00 23.60 LIG 0.28  HD
ATOM     21 H3   VAL E1321      34.471  42.246  -2.001  1.00 23.60 LIG 0.28  HD
ENDBRANCH 17 18
BRANCH 17 22
ATOM     22  CB  VAL E1321      36.405  41.906   0.378  1.00 31.80 LIG 0.02  C 
ATOM     23  CG1 VAL E1321      36.780  40.474  -0.059  1.00 29.70 LIG 0.01  C 
ATOM     24  CG2 VAL E1321      37.572  42.614   1.090  1.00 23.28 LIG 0.01  C 
ENDBRANCH 17 22
ENDBRANCH 1 17
TORSDOF 10
ENDMDL
MODEL 14
USER: ADFR SOLUTION from run 77
USER: SCORE 11.858537 LL:  -2.139 LR:  -9.719 RR:   0.000 FEB:  -6.736
USER: RMSD 9.862758
USER: SEED 76
USER: STATUS no improvement in best 19 clusters for 5 generations
USER: GENES 12
USER: genes 0 Translation |==|  0.31907 0.66188 0.21121
USER: genes 1 Rotation |==|  0.49050 0.09684 0.57049 0.78706
USER: genes 2 Torsion [C]-N--CA-[C] |==|  0.82434
USER: genes 3 Torsion [N]-CA--C-[O] |==|  0.32745
USER: genes 4 Torsion [N]-CA--CB-[CG] |==|  0.33207
USER: genes 5 Torsion [CA]-CB--CG-[CD] |==|  0.22113
USER: genes 6 Torsion [CB]-CG--CD-[CE] |==|  0.65063
USER: genes 7 Torsion [CG]-CD--CE-[NZ] |==|  0.35686
USER: genes 8 Torsion [CD]-CE--NZ-[HZ2] |==|  0.72212
USER: genes 9 Torsion [N]-C--CA-[N] |==|  0.42662
USER: genes 10 Torsion [C]-CA--N-[H1] |==|  0.57296
USER: genes 11 Torsion [C]-CA--CB-[CG1] |==|  0.42512
ROOT
ATOM      1  C   VAL E1321      32.102  44.477 -11.244  1.00100.00 LIG 0.25  C 
ATOM      2 O    VAL E1321      31.530  45.115 -10.395  1.00 26.63 LIG-0.27  OA
ATOM      3  N   LYS E1322      32.599  43.257 -11.020  1.00 27.49 LIG-0.34  N 
ATOM      4 H    LYS E1322      32.982  42.773 -11.620  1.00 27.49 LIG 0.16  HD
ENDROOT
BRANCH 3 5
ATOM      5  CA  LYS E1322      32.521  42.638  -9.693  1.00 83.53 LIG 0.18  C 
BRANCH 5 6
ATOM      6  C   LYS E1322      33.295  43.370  -8.562  1.00 46.63 LIG 0.20  C 
ATOM      7 O    LYS E1322      32.655  43.835  -7.569  1.00 43.95 LIG-0.65  OA
ATOM      8 OXT  LYS E1322      34.569  43.370  -8.617  1.00100.00 LIG-0.65  OA
ENDBRANCH 5 6
BRANCH 5 9
ATOM      9  CB  LYS E1322      32.817  41.164  -9.765  1.00 27.11 LIG 0.04  C 
BRANCH 9 10
ATOM     10  CG  LYS E1322      34.010  40.713  -8.956  1.00 36.61 LIG 0.00  C 
BRANCH 10 11
ATOM     11  CD  LYS E1322      33.628  40.577  -7.488  1.00 49.53 LIG 0.03  C 
BRANCH 11 12
ATOM     12  CE  LYS E1322      34.533  41.375  -6.566  1.00100.00 LIG 0.23  C 
BRANCH 12 13
ATOM     13  NZ  LYS E1322      33.780  42.244  -5.644  1.00 46.56 LIG-0.08  N 
ATOM     14 HZ1  LYS E1322      34.162  42.227  -4.840  1.00 46.56 LIG 0.27  HD
ATOM     15 HZ2  LYS E1322      33.781  43.078  -5.955  1.00 46.56 LIG 0.27  HD
ATOM     16 HZ3  LYS E1322      32.941  41.953  -5.580  1.00 46.56 LIG 0.27  HD
ENDBRANCH 12 13
ENDBRANCH 11 12
ENDBRANCH 10 11
ENDBRANCH 9 10
ENDBRANCH 5 9
ENDBRANCH 3 5
BRANCH 1 17
ATOM     17  CA  VAL E1321      32.179  45.012 -12.653  1.00 34.64 LIG 0.28  C 
BRANCH 17 18
ATOM     18  N   VAL E1321      31.136  45.995 -12.955  1.00 23.60 LIG-0.07  N 
ATOM     19 H1   VAL E1321      30.973  45.995 -13.830  1.00 23.60 LIG 0.28  HD
ATOM     20 H2   VAL E1321      30.392  45.784 -12.515  1.00 23.60 LIG 0.28  HD
ATOM     21 H3   VAL E1321      31.409  46.804 -12.705  1.00 23.60 LIG 0.28  HD
ENDBRANCH 17 18
BRANCH 17 22
ATOM     22  CB  VAL E1321      33.590  45.491 -12.896  1.00 31.80 LIG 0.02  C 
ATOM     23  CG1 VAL E1321      33.943  45.417 -14.397  1.00 29.70 LIG 0.01  C 
ATOM     24  CG2 VAL E1321      33.780  46.910 -12.330  1.00 23.28 LIG 0.01  C 
ENDBRANCH 17 22
ENDBRANCH 1 17
TORSDOF 10
ENDMDL
MODEL 15
USER: ADFR SOLUTION from run 33
USER: SCORE 10.807949 LL:  -1.098 LR:  -9.710 RR:   0.000 FEB:  -6.727
USER: RMSD 5.594634
USER: SEED 32
USER: STATUS no improvement in best 17 clusters for 5 generations
USER: GENES 12
USER: genes 0 Translation |==|  0.51510 0.52575 0.50286
USER: genes 1 Rotation |==|  0.91654 0.72521 0.46861 0.65744
USER: genes 2 Torsion [C]-N--CA-[C] |==|  0.16170
USER: genes 3 Torsion [N]-CA--C-[O] |==|  0.23770
USER: genes 4 Torsion [N]-CA--CB-[CG] |==|  0.93050
USER: genes 5 Torsion [CA]-CB--CG-[CD] |==|  0.51773
USER: genes 6 Torsion [CB]-CG--CD-[CE] |==|  0.09164
USER: genes 7 Torsion [CG]-CD--CE-[NZ] |==|  0.16360
USER: genes 8 Torsion [CD]-CE--NZ-[HZ2] |==|  0.17710
USER: genes 9 Torsion [N]-C--CA-[N] |==|  0.92313
USER: genes 10 Torsion [C]-CA--N-[H1] |==|  0.09946
USER: genes 11 Torsion [C]-CA--CB-[CG1] |==|  0.58429
ROOT
ATOM      1  C   VAL E1321      37.983  40.393  -2.494  1.00100.00 LIG 0.25  C 
ATOM      2 O    VAL E1321      39.029  40.901  -2.814  1.00 26.63 LIG-0.27  OA
ATOM      3  N   LYS E1322      36.797  40.925  -2.800  1.00 27.49 LIG-0.34  N 
ATOM      4 H    LYS E1322      36.040  40.563  -2.609  1.00 27.49 LIG 0.16  HD
ENDROOT
BRANCH 3 5
ATOM      5  CA  LYS E1322      36.701  42.206  -3.508  1.00 83.53 LIG 0.18  C 
BRANCH 5 6
ATOM      6  C   LYS E1322      37.403  42.266  -4.892  1.00 46.63 LIG 0.20  C 
ATOM      7 O    LYS E1322      36.780  41.870  -5.925  1.00 43.95 LIG-0.65  OA
ATOM      8 OXT  LYS E1322      38.547  42.827  -4.955  1.00100.00 LIG-0.65  OA
ENDBRANCH 5 6
BRANCH 5 9
ATOM      9  CB  LYS E1322      37.063  43.353  -2.602  1.00 27.11 LIG 0.04  C 
BRANCH 9 10
ATOM     10  CG  LYS E1322      36.865  43.089  -1.128  1.00 36.61 LIG 0.00  C 
BRANCH 10 11
ATOM     11  CD  LYS E1322      37.111  44.361  -0.329  1.00 49.53 LIG 0.03  C 
BRANCH 11 12
ATOM     12  CE  LYS E1322      36.705  45.617  -1.080  1.00100.00 LIG 0.23  C 
BRANCH 12 13
ATOM     13  NZ  LYS E1322      35.279  45.618  -1.455  1.00 46.56 LIG-0.08  N 
ATOM     14 HZ1  LYS E1322      35.098  44.891  -1.935  1.00 46.56 LIG 0.27  HD
ATOM     15 HZ2  LYS E1322      34.779  45.620  -0.719  1.00 46.56 LIG 0.27  HD
ATOM     16 HZ3  LYS E1322      35.100  46.344  -1.937  1.00 46.56 LIG 0.27  HD
ENDBRANCH 12 13
ENDBRANCH 11 12
ENDBRANCH 10 11
ENDBRANCH 9 10
ENDBRANCH 5 9
ENDBRANCH 3 5
BRANCH 1 17
ATOM     17  CA  VAL E1321      37.986  39.045  -1.813  1.00 34.64 LIG 0.28  C 
BRANCH 17 18
ATOM     18  N   VAL E1321      36.780  38.794  -1.023  1.00 23.60 LIG-0.07  N 
ATOM     19 H1   VAL E1321      36.076  39.154  -1.432  1.00 23.60 LIG 0.28  HD
ATOM     20 H2   VAL E1321      36.657  37.916  -0.940  1.00 23.60 LIG 0.28  HD
ATOM     21 H3   VAL E1321      36.871  39.158  -0.216  1.00 23.60 LIG 0.28  HD
ENDBRANCH 17 18
BRANCH 17 22
ATOM     22  CB  VAL E1321      38.292  37.995  -2.854  1.00 31.80 LIG 0.02  C 
ATOM     23  CG1 VAL E1321      37.612  36.656  -2.498  1.00 29.70 LIG 0.01  C 
ATOM     24  CG2 VAL E1321      37.886  38.493  -4.253  1.00 23.28 LIG 0.01  C 
ENDBRANCH 17 22
ENDBRANCH 1 17
TORSDOF 10
ENDMDL
MODEL 16
USER: ADFR SOLUTION from run 14
USER: SCORE 10.812786 LL:  -1.124 LR:  -9.689 RR:   0.000 FEB:  -6.706
USER: RMSD 11.136012
USER: SEED 754170
USER: STATUS no improvement in best 15 clusters for 5 generations
USER: GENES 12
USER: genes 0 Translation |==|  0.29963 0.53400 0.25160
USER: genes 1 Rotation |==|  0.00938 0.59017 0.53076 0.48533
USER: genes 2 Torsion [C]-N--CA-[C] |==|  0.65779
USER: genes 3 Torsion [N]-CA--C-[O] |==|  0.92881
USER: genes 4 Torsion [N]-CA--CB-[CG] |==|  0.26012
USER: genes 5 Torsion [CA]-CB--CG-[CD] |==|  0.78382
USER: genes 6 Torsion [CB]-CG--CD-[CE] |==|  0.80592
USER: genes 7 Torsion [CG]-CD--CE-[NZ] |==|  0.67664
USER: genes 8 Torsion [CD]-CE--NZ-[HZ2] |==|  0.71092
USER: genes 9 Torsion [N]-C--CA-[N] |==|  0.13764
USER: genes 10 Torsion [C]-CA--N-[H1] |==|  0.63310
USER: genes 11 Torsion [C]-CA--CB-[CG1] |==|  0.20561
ROOT
ATOM      1  C   VAL E1321      31.519  40.640 -10.032  1.00100.00 LIG 0.25  C 
ATOM      2 O    VAL E1321      32.352  39.798 -10.260  1.00 26.63 LIG-0.27  OA
ATOM      3  N   LYS E1322      31.824  41.926  -9.837  1.00 27.49 LIG-0.34  N 
ATOM      4 H    LYS E1322      31.243  42.546  -9.704  1.00 27.49 LIG 0.16  HD
ENDROOT
BRANCH 3 5
ATOM      5  CA  LYS E1322      33.218  42.382  -9.836  1.00 83.53 LIG 0.18  C 
BRANCH 5 6
ATOM      6  C   LYS E1322      33.684  43.119  -8.551  1.00 46.63 LIG 0.20  C 
ATOM      7 O    LYS E1322      32.828  43.716  -7.828  1.00 43.95 LIG-0.65  OA
ATOM      8 OXT  LYS E1322      34.905  42.995  -8.203  1.00100.00 LIG-0.65  OA
ENDBRANCH 5 6
BRANCH 5 9
ATOM      9  CB  LYS E1322      33.545  43.124 -11.104  1.00 27.11 LIG 0.04  C 
BRANCH 9 10
ATOM     10  CG  LYS E1322      33.380  44.623 -11.027  1.00 36.61 LIG 0.00  C 
BRANCH 10 11
ATOM     11  CD  LYS E1322      31.907  44.995 -11.128  1.00 49.53 LIG 0.03  C 
BRANCH 11 12
ATOM     12  CE  LYS E1322      31.331  44.752 -12.512  1.00100.00 LIG 0.23  C 
BRANCH 12 13
ATOM     13  NZ  LYS E1322      30.885  45.995 -13.167  1.00 46.56 LIG-0.08  N 
ATOM     14 HZ1  LYS E1322      31.154  45.997 -14.016  1.00 46.56 LIG 0.27  HD
ATOM     15 HZ2  LYS E1322      29.997  46.044 -13.138  1.00 46.56 LIG 0.27  HD
ATOM     16 HZ3  LYS E1322      31.234  46.696 -12.744  1.00 46.56 LIG 0.27  HD
ENDBRANCH 12 13
ENDBRANCH 11 12
ENDBRANCH 10 11
ENDBRANCH 9 10
ENDBRANCH 5 9
ENDBRANCH 3 5
BRANCH 1 17
ATOM     17  CA  VAL E1321      30.056  40.270 -10.070  1.00 34.64 LIG 0.28  C 
BRANCH 17 18
ATOM     18  N   VAL E1321      29.267  41.120 -10.964  1.00 23.60 LIG-0.07  N 
ATOM     19 H1   VAL E1321      28.533  41.394 -10.542  1.00 23.60 LIG 0.28  HD
ATOM     20 H2   VAL E1321      29.751  41.827 -11.205  1.00 23.60 LIG 0.28  HD
ATOM     21 H3   VAL E1321      29.038  40.657 -11.689  1.00 23.60 LIG 0.28  HD
ENDBRANCH 17 18
BRANCH 17 22
ATOM     22  CB  VAL E1321      29.955  38.790 -10.352  1.00 31.80 LIG 0.02  C 
ATOM     23  CG1 VAL E1321      30.345  37.966  -9.106  1.00 29.70 LIG 0.01  C 
ATOM     24  CG2 VAL E1321      28.544  38.435 -10.857  1.00 23.28 LIG 0.01  C 
ENDBRANCH 17 22
ENDBRANCH 1 17
TORSDOF 10
ENDMDL
MODEL 17
USER: ADFR SOLUTION from run 30
USER: SCORE 10.633225 LL:  -1.049 LR:  -9.585 RR:   0.000 FEB:  -6.602
USER: RMSD 5.539453
USER: SEED 29
USER: STATUS no improvement in best 13 clusters for 5 generations
USER: GENES 12
USER: genes 0 Translation |==|  0.44234 0.57960 0.41819
USER: genes 1 Rotation |==|  0.72857 0.68232 0.33351 0.86986
USER: genes 2 Torsion [C]-N--CA-[C] |==|  0.71854
USER: genes 3 Torsion [N]-CA--C-[O] |==|  0.28830
USER: genes 4 Torsion [N]-CA--CB-[CG] |==|  0.75551
USER: genes 5 Torsion [CA]-CB--CG-[CD] |==|  0.55475
USER: genes 6 Torsion [CB]-CG--CD-[CE] |==|  0.78754
USER: genes 7 Torsion [CG]-CD--CE-[NZ] |==|  0.72112
USER: genes 8 Torsion [CD]-CE--NZ-[HZ2] |==|  0.66778
USER: genes 9 Torsion [N]-C--CA-[N] |==|  0.08798
USER: genes 10 Torsion [C]-CA--N-[H1] |==|  0.64573
USER: genes 11 Torsion [C]-CA--CB-[CG1] |==|  0.43698
ROOT
ATOM      1  C   VAL E1321      35.800  42.008  -5.034  1.00100.00 LIG 0.25  C 
ATOM      2 O    VAL E1321      36.791  41.870  -5.709  1.00 26.63 LIG-0.27  OA
ATOM      3  N   LYS E1322      34.567  41.831  -5.515  1.00 27.49 LIG-0.34  N 
ATOM      4 H    LYS E1322      33.850  41.894  -5.044  1.00 27.49 LIG 0.16  HD
ENDROOT
BRANCH 3 5
ATOM      5  CA  LYS E1322      34.343  41.506  -6.927  1.00 83.53 LIG 0.18  C 
BRANCH 5 6
ATOM      6  C   LYS E1322      33.893  42.688  -7.828  1.00 46.63 LIG 0.20  C 
ATOM      7 O    LYS E1322      34.731  43.229  -8.613  1.00 43.95 LIG-0.65  OA
ATOM      8 OXT  LYS E1322      32.655  42.995  -7.832  1.00100.00 LIG-0.65  OA
ENDBRANCH 5 6
BRANCH 5 9
ATOM      9  CB  LYS E1322      33.480  40.281  -7.070  1.00 27.11 LIG 0.04  C 
BRANCH 9 10
ATOM     10  CG  LYS E1322      34.230  38.969  -7.079  1.00 36.61 LIG 0.00  C 
BRANCH 10 11
ATOM     11  CD  LYS E1322      33.369  37.877  -7.699  1.00 49.53 LIG 0.03  C 
BRANCH 11 12
ATOM     12  CE  LYS E1322      32.289  37.372  -6.759  1.00100.00 LIG 0.23  C 
BRANCH 12 13
ATOM     13  NZ  LYS E1322      32.649  36.098  -6.112  1.00 46.56 LIG-0.08  N 
ATOM     14 HZ1  LYS E1322      32.657  36.205  -5.228  1.00 46.56 LIG 0.27  HD
ATOM     15 HZ2  LYS E1322      32.052  35.475  -6.330  1.00 46.56 LIG 0.27  HD
ATOM     16 HZ3  LYS E1322      33.457  35.844  -6.387  1.00 46.56 LIG 0.27  HD
ENDBRANCH 12 13
ENDBRANCH 11 12
ENDBRANCH 10 11
ENDBRANCH 9 10
ENDBRANCH 5 9
ENDBRANCH 3 5
BRANCH 1 17
ATOM     17  CA  VAL E1321      35.939  42.287  -3.557  1.00 34.64 LIG 0.28  C 
BRANCH 17 18
ATOM     18  N   VAL E1321      34.905  41.640  -2.747  1.00 23.60 LIG-0.07  N 
ATOM     19 H1   VAL E1321      34.514  42.245  -2.225  1.00 23.60 LIG 0.28  HD
ATOM     20 H2   VAL E1321      34.296  41.272  -3.282  1.00 23.60 LIG 0.28  HD
ATOM     21 H3   VAL E1321      35.276  41.008  -2.242  1.00 23.60 LIG 0.28  HD
ENDBRANCH 17 18
BRANCH 17 22
ATOM     22  CB  VAL E1321      37.356  41.964  -3.150  1.00 31.80 LIG 0.02  C 
ATOM     23  CG1 VAL E1321      37.744  42.722  -1.863  1.00 29.70 LIG 0.01  C 
ATOM     24  CG2 VAL E1321      37.538  40.443  -2.999  1.00 23.28 LIG 0.01  C 
ENDBRANCH 17 22
ENDBRANCH 1 17
TORSDOF 10
ENDMDL
MODEL 18
USER: ADFR SOLUTION from run 68
USER: SCORE 10.616469 LL:  -1.034 LR:  -9.582 RR:   0.000 FEB:  -6.599
USER: RMSD 4.720002
USER: SEED 67
USER: STATUS no improvement in best 19 clusters for 5 generations
USER: GENES 12
USER: genes 0 Translation |==|  0.44114 0.53982 0.40421
USER: genes 1 Rotation |==|  0.03612 0.49181 0.43342 0.67410
USER: genes 2 Torsion [C]-N--CA-[C] |==|  0.12751
USER: genes 3 Torsion [N]-CA--C-[O] |==|  0.57287
USER: genes 4 Torsion [N]-CA--CB-[CG] |==|  0.65725
USER: genes 5 Torsion [CA]-CB--CG-[CD] |==|  0.56374
USER: genes 6 Torsion [CB]-CG--CD-[CE] |==|  0.94171
USER: genes 7 Torsion [CG]-CD--CE-[NZ] |==|  0.77281
USER: genes 8 Torsion [CD]-CE--NZ-[HZ2] |==|  0.51699
USER: genes 9 Torsion [N]-C--CA-[N] |==|  0.87446
USER: genes 10 Torsion [C]-CA--N-[H1] |==|  0.89016
USER: genes 11 Torsion [C]-CA--CB-[CG1] |==|  0.43236
ROOT
ATOM      1  C   VAL E1321      35.764  40.815  -5.454  1.00100.00 LIG 0.25  C 
ATOM      2 O    VAL E1321      36.917  40.481  -5.581  1.00 26.63 LIG-0.27  OA
ATOM      3  N   LYS E1322      35.349  41.623  -4.475  1.00 27.49 LIG-0.34  N 
ATOM      4 H    LYS E1322      34.538  41.897  -4.386  1.00 27.49 LIG 0.16  HD
ENDROOT
BRANCH 3 5
ATOM      5  CA  LYS E1322      36.277  42.114  -3.452  1.00 83.53 LIG 0.18  C 
BRANCH 5 6
ATOM      6  C   LYS E1322      37.638  42.648  -3.978  1.00 46.63 LIG 0.20  C 
ATOM      7 O    LYS E1322      38.654  42.620  -3.218  1.00 43.95 LIG-0.65  OA
ATOM      8 OXT  LYS E1322      37.710  42.988  -5.205  1.00100.00 LIG-0.65  OA
ENDBRANCH 5 6
BRANCH 5 9
ATOM      9  CB  LYS E1322      36.417  41.123  -2.328  1.00 27.11 LIG 0.04  C 
BRANCH 9 10
ATOM     10  CG  LYS E1322      36.092  41.666  -0.956  1.00 36.61 LIG 0.00  C 
BRANCH 10 11
ATOM     11  CD  LYS E1322      36.778  40.829   0.115  1.00 49.53 LIG 0.03  C 
BRANCH 11 12
ATOM     12  CE  LYS E1322      37.159  39.442  -0.373  1.00100.00 LIG 0.23  C 
BRANCH 12 13
ATOM     13  NZ  LYS E1322      36.030  38.495  -0.330  1.00 46.56 LIG-0.08  N 
ATOM     14 HZ1  LYS E1322      35.407  38.748  -0.914  1.00 46.56 LIG 0.27  HD
ATOM     15 HZ2  LYS E1322      36.319  37.680  -0.539  1.00 46.56 LIG 0.27  HD
ATOM     16 HZ3  LYS E1322      35.682  38.486   0.489  1.00 46.56 LIG 0.27  HD
ENDBRANCH 12 13
ENDBRANCH 11 12
ENDBRANCH 10 11
ENDBRANCH 9 10
ENDBRANCH 5 9
ENDBRANCH 3 5
BRANCH 1 17
ATOM     17  CA  VAL E1321      34.751  40.401  -6.493  1.00 34.64 LIG 0.28  C 
BRANCH 17 18
ATOM     18  N   VAL E1321      33.467  39.995  -5.919  1.00 23.60 LIG-0.07  N 
ATOM     19 H1   VAL E1321      33.608  39.524  -5.178  1.00 23.60 LIG 0.28  HD
ATOM     20 H2   VAL E1321      32.986  40.718  -5.723  1.00 23.60 LIG 0.28  HD
ATOM     21 H3   VAL E1321      33.023  39.495  -6.507  1.00 23.60 LIG 0.28  HD
ENDBRANCH 17 18
BRANCH 17 22
ATOM     22  CB  VAL E1321      34.663  41.500  -7.525  1.00 31.80 LIG 0.02  C 
ATOM     23  CG1 VAL E1321      34.159  40.947  -8.875  1.00 29.70 LIG 0.01  C 
ATOM     24  CG2 VAL E1321      33.780  42.651  -7.009  1.00 23.28 LIG 0.01  C 
ENDBRANCH 17 22
ENDBRANCH 1 17
TORSDOF 10
ENDMDL
MODEL 19
USER: ADFR SOLUTION from run 89
USER: SCORE 10.940574 LL:  -1.373 LR:  -9.567 RR:   0.000 FEB:  -6.584
USER: RMSD 10.864418
USER: SEED 88
USER: STATUS no improvement in best 11 clusters for 5 generations
USER: GENES 12
USER: genes 0 Translation |==|  0.31722 0.65890 0.20021
USER: genes 1 Rotation |==|  0.55535 0.08683 0.57984 0.76429
USER: genes 2 Torsion [C]-N--CA-[C] |==|  0.81233
USER: genes 3 Torsion [N]-CA--C-[O] |==|  0.79386
USER: genes 4 Torsion [N]-CA--CB-[CG] |==|  0.60021
USER: genes 5 Torsion [CA]-CB--CG-[CD] |==|  0.11556
USER: genes 6 Torsion [CB]-CG--CD-[CE] |==|  0.15989
USER: genes 7 Torsion [CG]-CD--CE-[NZ] |==|  0.64941
USER: genes 8 Torsion [CD]-CE--NZ-[HZ2] |==|  0.18299
USER: genes 9 Torsion [N]-C--CA-[N] |==|  0.45025
USER: genes 10 Torsion [C]-CA--N-[H1] |==|  0.60679
USER: genes 11 Torsion [C]-CA--CB-[CG1] |==|  0.41595
ROOT
ATOM      1  C   VAL E1321      32.047  44.387 -11.574  1.00100.00 LIG 0.25  C 
ATOM      2 O    VAL E1321      31.299  44.756 -10.702  1.00 26.63 LIG-0.27  OA
ATOM      3  N   LYS E1322      32.817  43.302 -11.455  1.00 27.49 LIG-0.34  N 
ATOM      4 H    LYS E1322      33.333  43.005 -12.076  1.00 27.49 LIG 0.16  HD
ENDROOT
BRANCH 3 5
ATOM      5  CA  LYS E1322      32.836  42.518 -10.217  1.00 83.53 LIG 0.18  C 
BRANCH 5 6
ATOM      6  C   LYS E1322      33.453  43.226  -8.980  1.00 46.63 LIG 0.20  C 
ATOM      7 O    LYS E1322      34.712  43.370  -8.908  1.00 43.95 LIG-0.65  OA
ATOM      8 OXT  LYS E1322      32.655  43.746  -8.132  1.00100.00 LIG-0.65  OA
ENDBRANCH 5 6
BRANCH 5 9
ATOM      9  CB  LYS E1322      33.392  41.140 -10.458  1.00 27.11 LIG 0.04  C 
BRANCH 9 10
ATOM     10  CG  LYS E1322      32.743  40.040  -9.651  1.00 36.61 LIG 0.00  C 
BRANCH 10 11
ATOM     11  CD  LYS E1322      31.234  40.241  -9.609  1.00 49.53 LIG 0.03  C 
BRANCH 11 12
ATOM     12  CE  LYS E1322      30.606  40.286 -10.991  1.00100.00 LIG 0.23  C 
BRANCH 12 13
ATOM     13  NZ  LYS E1322      29.791  41.495 -11.205  1.00 46.56 LIG-0.08  N 
ATOM     14 HZ1  LYS E1322      29.186  41.565 -10.555  1.00 46.56 LIG 0.27  HD
ATOM     15 HZ2  LYS E1322      30.318  42.213 -11.199  1.00 46.56 LIG 0.27  HD
ATOM     16 HZ3  LYS E1322      29.377  41.438 -11.991  1.00 46.56 LIG 0.27  HD
ENDBRANCH 12 13
ENDBRANCH 11 12
ENDBRANCH 10 11
ENDBRANCH 9 10
ENDBRANCH 5 9
ENDBRANCH 3 5
BRANCH 1 17
ATOM     17  CA  VAL E1321      32.050  45.102 -12.903  1.00 34.64 LIG 0.28  C 
BRANCH 17 18
ATOM     18  N   VAL E1321      30.904  45.995 -13.083  1.00 23.60 LIG-0.07  N 
ATOM     19 H1   VAL E1321      30.622  45.951 -13.926  1.00 23.60 LIG 0.28  HD
ATOM     20 H2   VAL E1321      30.246  45.747 -12.537  1.00 23.60 LIG 0.28  HD
ATOM     21 H3   VAL E1321      31.146  46.831 -12.894  1.00 23.60 LIG 0.28  HD
ENDBRANCH 17 18
BRANCH 17 22
ATOM     22  CB  VAL E1321      33.398  45.760 -13.077  1.00 31.80 LIG 0.02  C 
ATOM     23  CG1 VAL E1321      33.780  45.842 -14.570  1.00 29.70 LIG 0.01  C 
ATOM     24  CG2 VAL E1321      33.411  47.144 -12.404  1.00 23.28 LIG 0.01  C 
ENDBRANCH 17 22
ENDBRANCH 1 17
TORSDOF 10
ENDMDL
MODEL 20
USER: ADFR SOLUTION from run 56
USER: SCORE 10.801228 LL:  -1.260 LR:  -9.541 RR:   0.000 FEB:  -6.558
USER: RMSD 7.069881
USER: SEED 55
USER: STATUS no improvement in best 14 clusters for 5 generations
USER: GENES 12
USER: genes 0 Translation |==|  0.42692 0.57001 0.43609
USER: genes 1 Rotation |==|  0.74629 0.49782 0.17096 0.78472
USER: genes 2 Torsion [C]-N--CA-[C] |==|  0.87806
USER: genes 3 Torsion [N]-CA--C-[O] |==|  0.92010
USER: genes 4 Torsion [N]-CA--CB-[CG] |==|  0.51114
USER: genes 5 Torsion [CA]-CB--CG-[CD] |==|  0.73341
USER: genes 6 Torsion [CB]-CG--CD-[CE] |==|  0.58351
USER: genes 7 Torsion [CG]-CD--CE-[NZ] |==|  0.04558
USER: genes 8 Torsion [CD]-CE--NZ-[HZ2] |==|  0.43948
USER: genes 9 Torsion [N]-C--CA-[N] |==|  0.28607
USER: genes 10 Torsion [C]-CA--N-[H1] |==|  0.90678
USER: genes 11 Torsion [C]-CA--CB-[CG1] |==|  0.10446
ROOT
ATOM      1  C   VAL E1321      35.338  41.720  -4.497  1.00100.00 LIG 0.25  C 
ATOM      2 O    VAL E1321      35.744  40.644  -4.859  1.00 26.63 LIG-0.27  OA
ATOM      3  N   LYS E1322      34.531  42.478  -5.245  1.00 27.49 LIG-0.34  N 
ATOM      4 H    LYS E1322      34.206  43.233  -4.993  1.00 27.49 LIG 0.16  HD
ENDROOT
BRANCH 3 5
ATOM      5  CA  LYS E1322      34.132  42.060  -6.592  1.00 83.53 LIG 0.18  C 
BRANCH 5 6
ATOM      6  C   LYS E1322      35.266  41.481  -7.482  1.00 46.63 LIG 0.20  C 
ATOM      7 O    LYS E1322      36.461  41.870  -7.301  1.00 43.95 LIG-0.65  OA
ATOM      8 OXT  LYS E1322      34.968  40.538  -8.288  1.00100.00 LIG-0.65  OA
ENDBRANCH 5 6
BRANCH 5 9
ATOM      9  CB  LYS E1322      33.323  43.131  -7.274  1.00 27.11 LIG 0.04  C 
BRANCH 9 10
ATOM     10  CG  LYS E1322      32.784  42.754  -8.634  1.00 36.61 LIG 0.00  C 
BRANCH 10 11
ATOM     11  CD  LYS E1322      33.715  43.262  -9.727  1.00 49.53 LIG 0.03  C 
BRANCH 11 12
ATOM     12  CE  LYS E1322      32.986  43.591 -11.017  1.00100.00 LIG 0.23  C 
BRANCH 12 13
ATOM     13  NZ  LYS E1322      31.530  43.721 -10.830  1.00 46.56 LIG-0.08  N 
ATOM     14 HZ1  LYS E1322      31.365  44.123 -10.053  1.00 46.56 LIG 0.27  HD
ATOM     15 HZ2  LYS E1322      31.187  44.206 -11.493  1.00 46.56 LIG 0.27  HD
ATOM     16 HZ3  LYS E1322      31.157  42.913 -10.830  1.00 46.56 LIG 0.27  HD
ENDBRANCH 12 13
ENDBRANCH 11 12
ENDBRANCH 10 11
ENDBRANCH 9 10
ENDBRANCH 5 9
ENDBRANCH 3 5
BRANCH 1 17
ATOM     17  CA  VAL E1321      35.653  42.205  -3.103  1.00 34.64 LIG 0.28  C 
BRANCH 17 18
ATOM     18  N   VAL E1321      34.907  41.495  -2.062  1.00 23.60 LIG-0.07  N 
ATOM     19 H1   VAL E1321      34.102  41.274  -2.371  1.00 23.60 LIG 0.28  HD
ATOM     20 H2   VAL E1321      35.348  40.758  -1.830  1.00 23.60 LIG 0.28  HD
ATOM     21 H3   VAL E1321      34.816  42.022  -1.350  1.00 23.60 LIG 0.28  HD
ENDBRANCH 17 18
BRANCH 17 22
ATOM     22  CB  VAL E1321      37.152  42.188  -2.929  1.00 31.80 LIG 0.02  C 
ATOM     23  CG1 VAL E1321      37.861  42.620  -4.230  1.00 29.70 LIG 0.01  C 
ATOM     24  CG2 VAL E1321      37.564  43.066  -1.732  1.00 23.28 LIG 0.01  C 
ENDBRANCH 17 22
ENDBRANCH 1 17
TORSDOF 10
ENDMDL
MODEL 21
USER: ADFR SOLUTION from run 4
USER: SCORE 10.499921 LL:  -1.038 LR:  -9.462 RR:   0.000 FEB:  -6.479
USER: RMSD 7.743349
USER: SEED 66946
USER: STATUS no improvement in best 11 clusters for 5 generations
USER: GENES 12
USER: genes 0 Translation |==|  0.72706 0.48749 0.48239
USER: genes 1 Rotation |==|  0.68435 0.92030 0.67315 0.59686
USER: genes 2 Torsion [C]-N--CA-[C] |==|  0.81174
USER: genes 3 Torsion [N]-CA--C-[O] |==|  0.90496
USER: genes 4 Torsion [N]-CA--CB-[CG] |==|  0.96313
USER: genes 5 Torsion [CA]-CB--CG-[CD] |==|  0.82620
USER: genes 6 Torsion [CB]-CG--CD-[CE] |==|  0.35001
USER: genes 7 Torsion [CG]-CD--CE-[NZ] |==|  0.58051
USER: genes 8 Torsion [CD]-CE--NZ-[HZ2] |==|  0.98335
USER: genes 9 Torsion [N]-C--CA-[N] |==|  0.44366
USER: genes 10 Torsion [C]-CA--N-[H1] |==|  0.23539
USER: genes 11 Torsion [C]-CA--CB-[CG1] |==|  0.91086
ROOT
ATOM      1  C   VAL E1321      44.342  39.245  -3.108  1.00100.00 LIG 0.25  C 
ATOM      2 O    VAL E1321      43.940  40.370  -2.941  1.00 26.63 LIG-0.27  OA
ATOM      3  N   LYS E1322      43.682  38.343  -3.839  1.00 27.49 LIG-0.34  N 
ATOM      4 H    LYS E1322      43.966  37.546  -3.997  1.00 27.49 LIG 0.16  HD
ENDROOT
BRANCH 3 5
ATOM      5  CA  LYS E1322      42.385  38.660  -4.444  1.00 83.53 LIG 0.18  C 
BRANCH 5 6
ATOM      6  C   LYS E1322      41.210  38.868  -3.450  1.00 46.63 LIG 0.20  C 
ATOM      7 O    LYS E1322      41.170  38.185  -2.380  1.00 43.95 LIG-0.65  OA
ATOM      8 OXT  LYS E1322      40.387  39.812  -3.690  1.00100.00 LIG-0.65  OA
ENDBRANCH 5 6
BRANCH 5 9
ATOM      9  CB  LYS E1322      42.061  37.704  -5.562  1.00 27.11 LIG 0.04  C 
BRANCH 9 10
ATOM     10  CG  LYS E1322      43.219  36.857  -6.032  1.00 36.61 LIG 0.00  C 
BRANCH 10 11
ATOM     11  CD  LYS E1322      44.320  37.742  -6.601  1.00 49.53 LIG 0.03  C 
BRANCH 11 12
ATOM     12  CE  LYS E1322      45.671  37.493  -5.955  1.00100.00 LIG 0.23  C 
BRANCH 12 13
ATOM     13  NZ  LYS E1322      46.530  38.691  -5.955  1.00 46.56 LIG-0.08  N 
ATOM     14 HZ1  LYS E1322      47.313  38.495  -6.330  1.00 46.56 LIG 0.27  HD
ATOM     15 HZ2  LYS E1322      46.134  39.340  -6.417  1.00 46.56 LIG 0.27  HD
ATOM     16 HZ3  LYS E1322      46.661  38.961  -5.117  1.00 46.56 LIG 0.27  HD
ENDBRANCH 12 13
ENDBRANCH 11 12
ENDBRANCH 10 11
ENDBRANCH 9 10
ENDBRANCH 5 9
ENDBRANCH 3 5
BRANCH 1 17
ATOM     17  CA  VAL E1321      45.695  38.849  -2.569  1.00 34.64 LIG 0.28  C 
BRANCH 17 18
ATOM     18  N   VAL E1321      46.530  39.995  -2.205  1.00 23.60 LIG-0.07  N 
ATOM     19 H1   VAL E1321      46.330  40.258  -1.379  1.00 23.60 LIG 0.28  HD
ATOM     20 H2   VAL E1321      47.388  39.762  -2.242  1.00 23.60 LIG 0.28  HD
ATOM     21 H3   VAL E1321      46.381  40.664  -2.773  1.00 23.60 LIG 0.28  HD
ENDBRANCH 17 18
BRANCH 17 22
ATOM     22  CB  VAL E1321      45.483  37.844  -1.463  1.00 31.80 LIG 0.02  C 
ATOM     23  CG1 VAL E1321      44.160  38.120  -0.717  1.00 29.70 LIG 0.01  C 
ATOM     24  CG2 VAL E1321      45.539  36.410  -2.022  1.00 23.28 LIG 0.01  C 
ENDBRANCH 17 22
ENDBRANCH 1 17
TORSDOF 10
ENDMDL
MODEL 22
USER: ADFR SOLUTION from run 109
USER: SCORE 10.674877 LL:  -1.267 LR:  -9.408 RR:   0.000 FEB:  -6.425
USER: RMSD 5.844791
USER: SEED 108
USER: STATUS no improvement in best 19 clusters for 5 generations
USER: GENES 12
USER: genes 0 Translation |==|  0.45319 0.54010 0.38166
USER: genes 1 Rotation |==|  0.18315 0.27084 0.69053 0.74656
USER: genes 2 Torsion [C]-N--CA-[C] |==|  0.84475
USER: genes 3 Torsion [N]-CA--C-[O] |==|  0.69437
USER: genes 4 Torsion [N]-CA--CB-[CG] |==|  0.59294
USER: genes 5 Torsion [CA]-CB--CG-[CD] |==|  0.76362
USER: genes 6 Torsion [CB]-CG--CD-[CE] |==|  0.38611
USER: genes 7 Torsion [CG]-CD--CE-[NZ] |==|  0.01385
USER: genes 8 Torsion [CD]-CE--NZ-[HZ2] |==|  0.13729
USER: genes 9 Torsion [N]-C--CA-[N] |==|  0.51167
USER: genes 10 Torsion [C]-CA--N-[H1] |==|  0.17383
USER: genes 11 Torsion [C]-CA--CB-[CG1] |==|  0.55683
ROOT
ATOM      1  C   VAL E1321      36.126  40.823  -6.130  1.00100.00 LIG 0.25  C 
ATOM      2 O    VAL E1321      36.405  41.870  -6.661  1.00 26.63 LIG-0.27  OA
ATOM      3  N   LYS E1322      36.065  40.677  -4.804  1.00 27.49 LIG-0.34  N 
ATOM      4 H    LYS E1322      35.837  39.949  -4.407  1.00 27.49 LIG 0.16  HD
ENDROOT
BRANCH 3 5
ATOM      5  CA  LYS E1322      36.391  41.788  -3.904  1.00 83.53 LIG 0.18  C 
BRANCH 5 6
ATOM      6  C   LYS E1322      37.797  42.420  -4.096  1.00 46.63 LIG 0.20  C 
ATOM      7 O    LYS E1322      38.686  42.245  -3.206  1.00 43.95 LIG-0.65  OA
ATOM      8 OXT  LYS E1322      38.044  42.995  -5.206  1.00100.00 LIG-0.65  OA
ENDBRANCH 5 6
BRANCH 5 9
ATOM      9  CB  LYS E1322      36.083  41.433  -2.474  1.00 27.11 LIG 0.04  C 
BRANCH 9 10
ATOM     10  CG  LYS E1322      35.616  42.586  -1.617  1.00 36.61 LIG 0.00  C 
BRANCH 10 11
ATOM     11  CD  LYS E1322      36.814  43.341  -1.056  1.00 49.53 LIG 0.03  C 
BRANCH 11 12
ATOM     12  CE  LYS E1322      36.626  44.848  -1.080  1.00100.00 LIG 0.23  C 
BRANCH 12 13
ATOM     13  NZ  LYS E1322      35.280  45.245  -1.532  1.00 46.56 LIG-0.08  N 
ATOM     14 HZ1  LYS E1322      35.197  45.077  -2.402  1.00 46.56 LIG 0.27  HD
ATOM     15 HZ2  LYS E1322      34.667  44.783  -1.081  1.00 46.56 LIG 0.27  HD
ATOM     16 HZ3  LYS E1322      35.162  46.115  -1.386  1.00 46.56 LIG 0.27  HD
ENDBRANCH 12 13
ENDBRANCH 11 12
ENDBRANCH 10 11
ENDBRANCH 9 10
ENDBRANCH 5 9
ENDBRANCH 3 5
BRANCH 1 17
ATOM     17  CA  VAL E1321      35.721  39.643  -6.980  1.00 34.64 LIG 0.28  C 
BRANCH 17 18
ATOM     18  N   VAL E1321      35.915  39.868  -8.413  1.00 23.60 LIG-0.07  N 
ATOM     19 H1   VAL E1321      36.780  39.995  -8.580  1.00 23.60 LIG 0.28  HD
ATOM     20 H2   VAL E1321      35.627  39.159  -8.868  1.00 23.60 LIG 0.28  HD
ATOM     21 H3   VAL E1321      35.456  40.588  -8.666  1.00 23.60 LIG 0.28  HD
ENDBRANCH 17 18
BRANCH 17 22
ATOM     22  CB  VAL E1321      36.408  38.415  -6.434  1.00 31.80 LIG 0.02  C 
ATOM     23  CG1 VAL E1321      36.469  37.300  -7.499  1.00 29.70 LIG 0.01  C 
ATOM     24  CG2 VAL E1321      37.806  38.775  -5.899  1.00 23.28 LIG 0.01  C 
ENDBRANCH 17 22
ENDBRANCH 1 17
TORSDOF 10
ENDMDL
MODEL 23
USER: ADFR SOLUTION from run 126
USER: SCORE 11.019381 LL:  -1.665 LR:  -9.354 RR:   0.000 FEB:  -6.371
USER: RMSD 5.552651
USER: SEED 125
USER: STATUS no improvement in best 15 clusters for 5 generations
USER: GENES 12
USER: genes 0 Translation |==|  0.52601 0.45561 0.40253
USER: genes 1 Rotation |==|  0.52290 0.31760 0.96417 0.52750
USER: genes 2 Torsion [C]-N--CA-[C] |==|  0.64202
USER: genes 3 Torsion [N]-CA--C-[O] |==|  0.78504
USER: genes 4 Torsion [N]-CA--CB-[CG] |==|  0.37871
USER: genes 5 Torsion [CA]-CB--CG-[CD] |==|  0.37038
USER: genes 6 Torsion [CB]-CG--CD-[CE] |==|  0.72426
USER: genes 7 Torsion [CG]-CD--CE-[NZ] |==|  0.08754
USER: genes 8 Torsion [CD]-CE--NZ-[HZ2] |==|  0.41663
USER: genes 9 Torsion [N]-C--CA-[N] |==|  0.68268
USER: genes 10 Torsion [C]-CA--N-[H1] |==|  0.98064
USER: genes 11 Torsion [C]-CA--CB-[CG1] |==|  0.19909
ROOT
ATOM      1  C   VAL E1321      38.310  38.288  -5.504  1.00100.00 LIG 0.25  C 
ATOM      2 O    VAL E1321      37.165  37.918  -5.580  1.00 26.63 LIG-0.27  OA
ATOM      3  N   LYS E1322      38.669  39.405  -4.864  1.00 27.49 LIG-0.34  N 
ATOM      4 H    LYS E1322      39.482  39.670  -4.772  1.00 27.49 LIG 0.16  HD
ENDROOT
BRANCH 3 5
ATOM      5  CA  LYS E1322      37.666  40.284  -4.255  1.00 83.53 LIG 0.18  C 
BRANCH 5 6
ATOM      6  C   LYS E1322      37.766  41.787  -4.636  1.00 46.63 LIG 0.20  C 
ATOM      7 O    LYS E1322      38.655  42.510  -4.090  1.00 43.95 LIG-0.65  OA
ATOM      8 OXT  LYS E1322      37.022  42.212  -5.580  1.00100.00 LIG-0.65  OA
ENDBRANCH 5 6
BRANCH 5 9
ATOM      9  CB  LYS E1322      37.570  40.047  -2.771  1.00 27.11 LIG 0.04  C 
BRANCH 9 10
ATOM     10  CG  LYS E1322      37.493  41.299  -1.929  1.00 36.61 LIG 0.00  C 
BRANCH 10 11
ATOM     11  CD  LYS E1322      36.383  41.168  -0.895  1.00 49.53 LIG 0.03  C 
BRANCH 11 12
ATOM     12  CE  LYS E1322      35.102  41.870  -1.312  1.00100.00 LIG 0.23  C 
BRANCH 12 13
ATOM     13  NZ  LYS E1322      34.904  41.870  -2.773  1.00 46.56 LIG-0.08  N 
ATOM     14 HZ1  LYS E1322      35.280  41.143  -3.124  1.00 46.56 LIG 0.27  HD
ATOM     15 HZ2  LYS E1322      34.033  41.870  -2.954  1.00 46.56 LIG 0.27  HD
ATOM     16 HZ3  LYS E1322      35.280  42.597  -3.123  1.00 46.56 LIG 0.27  HD
ENDBRANCH 12 13
ENDBRANCH 11 12
ENDBRANCH 10 11
ENDBRANCH 9 10
ENDBRANCH 5 9
ENDBRANCH 3 5
BRANCH 1 17
ATOM     17  CA  VAL E1321      39.413  37.416  -6.054  1.00 34.64 LIG 0.28  C 
BRANCH 17 18
ATOM     18  N   VAL E1321      39.420  37.347  -7.517  1.00 23.60 LIG-0.07  N 
ATOM     19 H1   VAL E1321      38.699  37.759  -7.837  1.00 23.60 LIG 0.28  HD
ATOM     20 H2   VAL E1321      40.152  37.745  -7.830  1.00 23.60 LIG 0.28  HD
ATOM     21 H3   VAL E1321      39.413  36.495  -7.774  1.00 23.60 LIG 0.28  HD
ENDBRANCH 17 18
BRANCH 17 22
ATOM     22  CB  VAL E1321      40.716  37.863  -5.436  1.00 31.80 LIG 0.02  C 
ATOM     23  CG1 VAL E1321      40.783  37.461  -3.947  1.00 29.70 LIG 0.01  C 
ATOM     24  CG2 VAL E1321      41.908  37.307  -6.236  1.00 23.28 LIG 0.01  C 
ENDBRANCH 17 22
ENDBRANCH 1 17
TORSDOF 10
ENDMDL
MODEL 24
USER: ADFR SOLUTION from run 57
USER: SCORE 11.662937 LL:  -2.347 LR:  -9.316 RR:   0.000 FEB:  -6.333
USER: RMSD 5.370564
USER: SEED 56
USER: STATUS no improvement in best 13 clusters for 5 generations
USER: GENES 12
USER: genes 0 Translation |==|  0.45729 0.57332 0.49408
USER: genes 1 Rotation |==|  0.74704 0.54770 0.30544 0.88580
USER: genes 2 Torsion [C]-N--CA-[C] |==|  0.83005
USER: genes 3 Torsion [N]-CA--C-[O] |==|  0.56682
USER: genes 4 Torsion [N]-CA--CB-[CG] |==|  0.25189
USER: genes 5 Torsion [CA]-CB--CG-[CD] |==|  0.33008
USER: genes 6 Torsion [CB]-CG--CD-[CE] |==|  0.99958
USER: genes 7 Torsion [CG]-CD--CE-[NZ] |==|  0.71460
USER: genes 8 Torsion [CD]-CE--NZ-[HZ2] |==|  0.10861
USER: genes 9 Torsion [N]-C--CA-[N] |==|  0.04787
USER: genes 10 Torsion [C]-CA--N-[H1] |==|  0.01416
USER: genes 11 Torsion [C]-CA--CB-[CG1] |==|  0.47583
ROOT
ATOM      1  C   VAL E1321      36.249  41.820  -2.758  1.00100.00 LIG 0.25  C 
ATOM      2 O    VAL E1321      37.291  41.241  -2.942  1.00 26.63 LIG-0.27  OA
ATOM      3  N   LYS E1322      35.283  41.884  -3.678  1.00 27.49 LIG-0.34  N 
ATOM      4 H    LYS E1322      34.522  42.264  -3.556  1.00 27.49 LIG 0.16  HD
ENDROOT
BRANCH 3 5
ATOM      5  CA  LYS E1322      35.462  41.288  -5.007  1.00 83.53 LIG 0.18  C 
BRANCH 5 6
ATOM      6  C   LYS E1322      36.627  41.870  -5.854  1.00 46.63 LIG 0.20  C 
ATOM      7 O    LYS E1322      36.586  41.773  -7.120  1.00 43.95 LIG-0.65  OA
ATOM      8 OXT  LYS E1322      37.530  42.535  -5.248  1.00100.00 LIG-0.65  OA
ENDBRANCH 5 6
BRANCH 5 9
ATOM      9  CB  LYS E1322      34.155  41.222  -5.750  1.00 27.11 LIG 0.04  C 
BRANCH 9 10
ATOM     10  CG  LYS E1322      33.844  42.429  -6.603  1.00 36.61 LIG 0.00  C 
BRANCH 10 11
ATOM     11  CD  LYS E1322      33.722  42.021  -8.065  1.00 49.53 LIG 0.03  C 
BRANCH 11 12
ATOM     12  CE  LYS E1322      33.944  40.535  -8.283  1.00100.00 LIG 0.23  C 
BRANCH 12 13
ATOM     13  NZ  LYS E1322      35.280  40.235  -8.829  1.00 46.56 LIG-0.08  N 
ATOM     14 HZ1  LYS E1322      35.280  40.372  -9.709  1.00 46.56 LIG 0.27  HD
ATOM     15 HZ2  LYS E1322      35.883  40.766  -8.446  1.00 46.56 LIG 0.27  HD
ATOM     16 HZ3  LYS E1322      35.485  39.385  -8.661  1.00 46.56 LIG 0.27  HD
ENDBRANCH 12 13
ENDBRANCH 11 12
ENDBRANCH 10 11
ENDBRANCH 9 10
ENDBRANCH 5 9
ENDBRANCH 3 5
BRANCH 1 17
ATOM     17  CA  VAL E1321      35.957  42.412  -1.400  1.00 34.64 LIG 0.28  C 
BRANCH 17 18
ATOM     18  N   VAL E1321      34.528  42.620  -1.155  1.00 23.60 LIG-0.07  N 
ATOM     19 H1   VAL E1321      34.058  42.287  -1.834  1.00 23.60 LIG 0.28  HD
ATOM     20 H2   VAL E1321      34.293  42.207  -0.402  1.00 23.60 LIG 0.28  HD
ATOM     21 H3   VAL E1321      34.363  43.491  -1.080  1.00 23.60 LIG 0.28  HD
ENDBRANCH 17 18
BRANCH 17 22
ATOM     22  CB  VAL E1321      36.662  41.574  -0.362  1.00 31.80 LIG 0.02  C 
ATOM     23  CG1 VAL E1321      36.588  42.244   1.027  1.00 29.70 LIG 0.01  C 
ATOM     24  CG2 VAL E1321      36.086  40.146  -0.342  1.00 23.28 LIG 0.01  C 
ENDBRANCH 17 22
ENDBRANCH 1 17
TORSDOF 10
ENDMDL
MODEL 25
USER: ADFR SOLUTION from run 4
USER: SCORE 10.608954 LL:  -1.290 LR:  -9.319 RR:   0.000 FEB:  -6.336
USER: RMSD 7.010172
USER: SEED 66946
USER: STATUS no improvement in best 11 clusters for 5 generations
USER: GENES 12
USER: genes 0 Translation |==|  0.70827 0.48649 0.44279
USER: genes 1 Rotation |==|  0.70933 0.94735 0.55233 0.55759
USER: genes 2 Torsion [C]-N--CA-[C] |==|  0.81613
USER: genes 3 Torsion [N]-CA--C-[O] |==|  0.92666
USER: genes 4 Torsion [N]-CA--CB-[CG] |==|  0.59390
USER: genes 5 Torsion [CA]-CB--CG-[CD] |==|  0.35935
USER: genes 6 Torsion [CB]-CG--CD-[CE] |==|  0.46206
USER: genes 7 Torsion [CG]-CD--CE-[NZ] |==|  0.32618
USER: genes 8 Torsion [CD]-CE--NZ-[HZ2] |==|  0.18894
USER: genes 9 Torsion [N]-C--CA-[N] |==|  0.43345
USER: genes 10 Torsion [C]-CA--N-[H1] |==|  0.26375
USER: genes 11 Torsion [C]-CA--CB-[CG1] |==|  0.60603
ROOT
ATOM      1  C   VAL E1321      43.778  39.215  -4.296  1.00100.00 LIG 0.25  C 
ATOM      2 O    VAL E1321      43.481  40.377  -4.430  1.00 26.63 LIG-0.27  OA
ATOM      3  N   LYS E1322      42.883  38.226  -4.374  1.00 27.49 LIG-0.34  N 
ATOM      4 H    LYS E1322      43.079  37.391  -4.312  1.00 27.49 LIG 0.16  HD
ENDROOT
BRANCH 3 5
ATOM      5  CA  LYS E1322      41.459  38.507  -4.576  1.00 83.53 LIG 0.18  C 
BRANCH 5 6
ATOM      6  C   LYS E1322      40.745  39.245  -3.411  1.00 46.63 LIG 0.20  C 
ATOM      7 O    LYS E1322      41.193  39.124  -2.229  1.00 43.95 LIG-0.65  OA
ATOM      8 OXT  LYS E1322      39.799  40.048  -3.705  1.00100.00 LIG-0.65  OA
ENDBRANCH 5 6
BRANCH 5 9
ATOM      9  CB  LYS E1322      40.726  37.279  -5.046  1.00 27.11 LIG 0.04  C 
BRANCH 9 10
ATOM     10  CG  LYS E1322      39.585  37.543  -6.001  1.00 36.61 LIG 0.00  C 
BRANCH 10 11
ATOM     11  CD  LYS E1322      39.716  36.657  -7.232  1.00 49.53 LIG 0.03  C 
BRANCH 11 12
ATOM     12  CE  LYS E1322      38.452  36.622  -8.072  1.00100.00 LIG 0.23  C 
BRANCH 12 13
ATOM     13  NZ  LYS E1322      38.655  37.165  -9.427  1.00 46.56 LIG-0.08  N 
ATOM     14 HZ1  LYS E1322      39.031  37.970  -9.372  1.00 46.56 LIG 0.27  HD
ATOM     15 HZ2  LYS E1322      39.187  36.620  -9.888  1.00 46.56 LIG 0.27  HD
ATOM     16 HZ3  LYS E1322      37.870  37.232  -9.841  1.00 46.56 LIG 0.27  HD
ENDBRANCH 12 13
ENDBRANCH 11 12
ENDBRANCH 10 11
ENDBRANCH 9 10
ENDBRANCH 5 9
ENDBRANCH 3 5
BRANCH 1 17
ATOM     17  CA  VAL E1321      45.229  38.830  -4.140  1.00 34.64 LIG 0.28  C 
BRANCH 17 18
ATOM     18  N   VAL E1321      46.155  39.863  -4.610  1.00 23.60 LIG-0.07  N 
ATOM     19 H1   VAL E1321      46.407  40.370  -3.923  1.00 23.60 LIG 0.28  HD
ATOM     20 H2   VAL E1321      46.871  39.478  -4.972  1.00 23.60 LIG 0.28  HD
ATOM     21 H3   VAL E1321      45.751  40.370  -5.220  1.00 23.60 LIG 0.28  HD
ENDBRANCH 17 18
BRANCH 17 22
ATOM     22  CB  VAL E1321      45.446  38.387  -2.713  1.00 31.80 LIG 0.02  C 
ATOM     23  CG1 VAL E1321      46.816  38.869  -2.191  1.00 29.70 LIG 0.01  C 
ATOM     24  CG2 VAL E1321      44.288  38.870  -1.820  1.00 23.28 LIG 0.01  C 
ENDBRANCH 17 22
ENDBRANCH 1 17
TORSDOF 10
ENDMDL
MODEL 26
USER: ADFR SOLUTION from run 112
USER: SCORE 10.901787 LL:  -1.587 LR:  -9.315 RR:   0.000 FEB:  -6.332
USER: RMSD 11.114812
USER: SEED 111
USER: STATUS no improvement in best 11 clusters for 5 generations
USER: GENES 12
USER: genes 0 Translation |==|  0.33813 0.67511 0.20824
USER: genes 1 Rotation |==|  0.30148 0.48476 0.40728 0.94918
USER: genes 2 Torsion [C]-N--CA-[C] |==|  0.20732
USER: genes 3 Torsion [N]-CA--C-[O] |==|  0.17526
USER: genes 4 Torsion [N]-CA--CB-[CG] |==|  0.75262
USER: genes 5 Torsion [CA]-CB--CG-[CD] |==|  0.18884
USER: genes 6 Torsion [CB]-CG--CD-[CE] |==|  0.65714
USER: genes 7 Torsion [CG]-CD--CE-[NZ] |==|  0.22158
USER: genes 8 Torsion [CD]-CE--NZ-[HZ2] |==|  0.17951
USER: genes 9 Torsion [N]-C--CA-[N] |==|  0.44597
USER: genes 10 Torsion [C]-CA--N-[H1] |==|  0.66343
USER: genes 11 Torsion [C]-CA--CB-[CG1] |==|  0.86396
ROOT
ATOM      1  C   VAL E1321      32.674  44.873 -11.333  1.00100.00 LIG 0.25  C 
ATOM      2 O    VAL E1321      33.879  44.933 -11.345  1.00 26.63 LIG-0.27  OA
ATOM      3  N   LYS E1322      32.003  43.937 -10.657  1.00 27.49 LIG-0.34  N 
ATOM      4 H    LYS E1322      31.145  43.896 -10.610  1.00 27.49 LIG 0.16  HD
ENDROOT
BRANCH 3 5
ATOM      5  CA  LYS E1322      32.707  42.880  -9.924  1.00 83.53 LIG 0.18  C 
BRANCH 5 6
ATOM      6  C   LYS E1322      33.378  43.316  -8.592  1.00 46.63 LIG 0.20  C 
ATOM      7 O    LYS E1322      32.655  43.745  -7.641  1.00 43.95 LIG-0.65  OA
ATOM      8 OXT  LYS E1322      34.630  43.112  -8.463  1.00100.00 LIG-0.65  OA
ENDBRANCH 5 6
BRANCH 5 9
ATOM      9  CB  LYS E1322      33.626  42.111 -10.834  1.00 27.11 LIG 0.04  C 
BRANCH 9 10
ATOM     10  CG  LYS E1322      32.994  40.923 -11.523  1.00 36.61 LIG 0.00  C 
BRANCH 10 11
ATOM     11  CD  LYS E1322      31.956  41.394 -12.532  1.00 49.53 LIG 0.03  C 
BRANCH 11 12
ATOM     12  CE  LYS E1322      30.580  40.802 -12.282  1.00100.00 LIG 0.23  C 
BRANCH 12 13
ATOM     13  NZ  LYS E1322      29.850  41.495 -11.205  1.00 46.56 LIG-0.08  N 
ATOM     14 HZ1  LYS E1322      30.343  41.495 -10.464  1.00 46.56 LIG 0.27  HD
ATOM     15 HZ2  LYS E1322      29.685  42.334 -11.451  1.00 46.56 LIG 0.27  HD
ATOM     16 HZ3  LYS E1322      29.081  41.075 -11.049  1.00 46.56 LIG 0.27  HD
ENDBRANCH 12 13
ENDBRANCH 11 12
ENDBRANCH 10 11
ENDBRANCH 9 10
ENDBRANCH 5 9
ENDBRANCH 3 5
BRANCH 1 17
ATOM     17  CA  VAL E1321      31.868  45.953 -12.014  1.00 34.64 LIG 0.28  C 
BRANCH 17 18
ATOM     18  N   VAL E1321      32.653  47.148 -12.330  1.00 23.60 LIG-0.07  N 
ATOM     19 H1   VAL E1321      32.294  47.855 -11.927  1.00 23.60 LIG 0.28  HD
ATOM     20 H2   VAL E1321      33.489  47.038 -12.045  1.00 23.60 LIG 0.28  HD
ATOM     21 H3   VAL E1321      32.655  47.278 -13.211  1.00 23.60 LIG 0.28  HD
ENDBRANCH 17 18
BRANCH 17 22
ATOM     22  CB  VAL E1321      31.156  45.334 -13.192  1.00 31.80 LIG 0.02  C 
ATOM     23  CG1 VAL E1321      32.134  44.503 -14.049  1.00 29.70 LIG 0.01  C 
ATOM     24  CG2 VAL E1321      29.956  44.496 -12.714  1.00 23.28 LIG 0.01  C 
ENDBRANCH 17 22
ENDBRANCH 1 17
TORSDOF 10
ENDMDL
MODEL 27
USER: ADFR SOLUTION from run 84
USER: SCORE 11.216488 LL:  -1.911 LR:  -9.306 RR:   0.000 FEB:  -6.323
USER: RMSD 5.334591
USER: SEED 83
USER: STATUS no improvement in best 23 clusters for 5 generations
USER: GENES 12
USER: genes 0 Translation |==|  0.44552 0.57602 0.45237
USER: genes 1 Rotation |==|  0.66900 0.72713 0.43863 0.90754
USER: genes 2 Torsion [C]-N--CA-[C] |==|  0.87070
USER: genes 3 Torsion [N]-CA--C-[O] |==|  0.80365
USER: genes 4 Torsion [N]-CA--CB-[CG] |==|  0.58497
USER: genes 5 Torsion [CA]-CB--CG-[CD] |==|  0.73367
USER: genes 6 Torsion [CB]-CG--CD-[CE] |==|  0.32904
USER: genes 7 Torsion [CG]-CD--CE-[NZ] |==|  0.92212
USER: genes 8 Torsion [CD]-CE--NZ-[HZ2] |==|  0.82955
USER: genes 9 Torsion [N]-C--CA-[N] |==|  0.96704
USER: genes 10 Torsion [C]-CA--N-[H1] |==|  0.31336
USER: genes 11 Torsion [C]-CA--CB-[CG1] |==|  0.25020
ROOT
ATOM      1  C   VAL E1321      35.896  41.901  -4.009  1.00100.00 LIG 0.25  C 
ATOM      2 O    VAL E1321      36.845  42.274  -4.652  1.00 26.63 LIG-0.27  OA
ATOM      3  N   LYS E1322      34.947  41.107  -4.513  1.00 27.49 LIG-0.34  N 
ATOM      4 H    LYS E1322      34.280  40.805  -4.063  1.00 27.49 LIG 0.16  HD
ENDROOT
BRANCH 3 5
ATOM      5  CA  LYS E1322      34.981  40.683  -5.917  1.00 83.53 LIG 0.18  C 
BRANCH 5 6
ATOM      6  C   LYS E1322      35.264  41.805  -6.953  1.00 46.63 LIG 0.20  C 
ATOM      7 O    LYS E1322      34.375  42.683  -7.179  1.00 43.95 LIG-0.65  OA
ATOM      8 OXT  LYS E1322      36.434  41.870  -7.455  1.00100.00 LIG-0.65  OA
ENDBRANCH 5 6
BRANCH 5 9
ATOM      9  CB  LYS E1322      33.780  39.842  -6.257  1.00 27.11 LIG 0.04  C 
BRANCH 9 10
ATOM     10  CG  LYS E1322      34.013  38.799  -7.325  1.00 36.61 LIG 0.00  C 
BRANCH 10 11
ATOM     11  CD  LYS E1322      33.579  39.334  -8.683  1.00 49.53 LIG 0.03  C 
BRANCH 11 12
ATOM     12  CE  LYS E1322      34.722  39.410  -9.680  1.00100.00 LIG 0.23  C 
BRANCH 12 13
ATOM     13  NZ  LYS E1322      36.031  39.602  -9.030  1.00 46.56 LIG-0.08  N 
ATOM     14 HZ1  LYS E1322      36.671  39.620  -9.648  1.00 46.56 LIG 0.27  HD
ATOM     15 HZ2  LYS E1322      36.030  40.370  -8.581  1.00 46.56 LIG 0.27  HD
ATOM     16 HZ3  LYS E1322      36.183  38.930  -8.466  1.00 46.56 LIG 0.27  HD
ENDBRANCH 12 13
ENDBRANCH 11 12
ENDBRANCH 10 11
ENDBRANCH 9 10
ENDBRANCH 5 9
ENDBRANCH 3 5
BRANCH 1 17
ATOM     17  CA  VAL E1321      35.809  42.243  -2.541  1.00 34.64 LIG 0.28  C 
BRANCH 17 18
ATOM     18  N   VAL E1321      34.530  41.870  -1.935  1.00 23.60 LIG-0.07  N 
ATOM     19 H1   VAL E1321      34.659  41.215  -1.346  1.00 23.60 LIG 0.28  HD
ATOM     20 H2   VAL E1321      34.181  42.576  -1.520  1.00 23.60 LIG 0.28  HD
ATOM     21 H3   VAL E1321      33.970  41.592  -2.569  1.00 23.60 LIG 0.28  HD
ENDBRANCH 17 18
BRANCH 17 22
ATOM     22  CB  VAL E1321      37.026  41.671  -1.855  1.00 31.80 LIG 0.02  C 
ATOM     23  CG1 VAL E1321      38.183  42.692  -1.848  1.00 29.70 LIG 0.01  C 
ATOM     24  CG2 VAL E1321      36.668  41.199  -0.433  1.00 23.28 LIG 0.01  C 
ENDBRANCH 17 22
ENDBRANCH 1 17
TORSDOF 10
ENDMDL
MODEL 28
USER: ADFR SOLUTION from run 98
USER: SCORE 11.073566 LL:  -1.781 LR:  -9.292 RR:   0.000 FEB:  -6.309
USER: RMSD 5.667855
USER: SEED 97
USER: STATUS no improvement in best 15 clusters for 5 generations
USER: GENES 12
USER: genes 0 Translation |==|  0.53494 0.50097 0.45974
USER: genes 1 Rotation |==|  0.08686 0.22344 0.44709 0.50507
USER: genes 2 Torsion [C]-N--CA-[C] |==|  0.15633
USER: genes 3 Torsion [N]-CA--C-[O] |==|  0.66492
USER: genes 4 Torsion [N]-CA--CB-[CG] |==|  0.55808
USER: genes 5 Torsion [CA]-CB--CG-[CD] |==|  0.65373
USER: genes 6 Torsion [CB]-CG--CD-[CE] |==|  0.38652
USER: genes 7 Torsion [CG]-CD--CE-[NZ] |==|  0.02797
USER: genes 8 Torsion [CD]-CE--NZ-[HZ2] |==|  0.45324
USER: genes 9 Torsion [N]-C--CA-[N] |==|  0.34786
USER: genes 10 Torsion [C]-CA--N-[H1] |==|  0.00652
USER: genes 11 Torsion [C]-CA--CB-[CG1] |==|  0.80891
ROOT
ATOM      1  C   VAL E1321      38.578  39.649  -3.788  1.00100.00 LIG 0.25  C 
ATOM      2 O    VAL E1321      39.440  40.486  -3.678  1.00 26.63 LIG-0.27  OA
ATOM      3  N   LYS E1322      37.277  39.932  -3.681  1.00 27.49 LIG-0.34  N 
ATOM      4 H    LYS E1322      36.647  39.356  -3.787  1.00 27.49 LIG 0.16  HD
ENDROOT
BRANCH 3 5
ATOM      5  CA  LYS E1322      36.820  41.289  -3.367  1.00 83.53 LIG 0.18  C 
BRANCH 5 6
ATOM      6  C   LYS E1322      37.309  42.405  -4.331  1.00 46.63 LIG 0.20  C 
ATOM      7 O    LYS E1322      37.994  43.370  -3.871  1.00 43.95 LIG-0.65  OA
ATOM      8 OXT  LYS E1322      37.104  42.245  -5.580  1.00100.00 LIG-0.65  OA
ENDBRANCH 5 6
BRANCH 5 9
ATOM      9  CB  LYS E1322      37.043  41.613  -1.914  1.00 27.11 LIG 0.04  C 
BRANCH 9 10
ATOM     10  CG  LYS E1322      36.193  42.739  -1.374  1.00 36.61 LIG 0.00  C 
BRANCH 10 11
ATOM     11  CD  LYS E1322      37.078  43.813  -0.756  1.00 49.53 LIG 0.03  C 
BRANCH 11 12
ATOM     12  CE  LYS E1322      36.610  45.221  -1.080  1.00100.00 LIG 0.23  C 
BRANCH 12 13
ATOM     13  NZ  LYS E1322      35.280  45.245  -1.716  1.00 46.56 LIG-0.08  N 
ATOM     14 HZ1  LYS E1322      34.739  44.676  -1.296  1.00 46.56 LIG 0.27  HD
ATOM     15 HZ2  LYS E1322      34.942  46.067  -1.666  1.00 46.56 LIG 0.27  HD
ATOM     16 HZ3  LYS E1322      35.355  45.007  -2.571  1.00 46.56 LIG 0.27  HD
ENDBRANCH 12 13
ENDBRANCH 11 12
ENDBRANCH 10 11
ENDBRANCH 9 10
ENDBRANCH 5 9
ENDBRANCH 3 5
BRANCH 1 17
ATOM     17  CA  VAL E1321      38.955  38.237  -4.166  1.00 34.64 LIG 0.28  C 
BRANCH 17 18
ATOM     18  N   VAL E1321      39.824  38.167  -5.343  1.00 23.60 LIG-0.07  N 
ATOM     19 H1   VAL E1321      40.015  38.990  -5.622  1.00 23.60 LIG 0.28  HD
ATOM     20 H2   VAL E1321      40.579  37.745  -5.130  1.00 23.60 LIG 0.28  HD
ATOM     21 H3   VAL E1321      39.410  37.722  -5.993  1.00 23.60 LIG 0.28  HD
ENDBRANCH 17 18
BRANCH 17 22
ATOM     22  CB  VAL E1321      39.499  37.551  -2.936  1.00 31.80 LIG 0.02  C 
ATOM     23  CG1 VAL E1321      40.860  38.154  -2.528  1.00 29.70 LIG 0.01  C 
ATOM     24  CG2 VAL E1321      38.474  37.617  -1.789  1.00 23.28 LIG 0.01  C 
ENDBRANCH 17 22
ENDBRANCH 1 17
TORSDOF 10
ENDMDL
MODEL 29
USER: ADFR SOLUTION from run 69
USER: SCORE 10.864273 LL:  -1.603 LR:  -9.261 RR:   0.000 FEB:  -6.278
USER: RMSD 9.863688
USER: SEED 68
USER: STATUS no improvement in best 16 clusters for 5 generations
USER: GENES 12
USER: genes 0 Translation |==|  0.36949 0.59253 0.31885
USER: genes 1 Rotation |==|  0.54284 0.82941 0.84398 0.64604
USER: genes 2 Torsion [C]-N--CA-[C] |==|  0.57296
USER: genes 3 Torsion [N]-CA--C-[O] |==|  0.57407
USER: genes 4 Torsion [N]-CA--CB-[CG] |==|  0.69368
USER: genes 5 Torsion [CA]-CB--CG-[CD] |==|  0.65162
USER: genes 6 Torsion [CB]-CG--CD-[CE] |==|  0.25835
USER: genes 7 Torsion [CG]-CD--CE-[NZ] |==|  0.46550
USER: genes 8 Torsion [CD]-CE--NZ-[HZ2] |==|  0.44367
USER: genes 9 Torsion [N]-C--CA-[N] |==|  0.53161
USER: genes 10 Torsion [C]-CA--N-[H1] |==|  0.47217
USER: genes 11 Torsion [C]-CA--CB-[CG1] |==|  0.46987
ROOT
ATOM      1  C   VAL E1321      33.615  42.396  -8.014  1.00100.00 LIG 0.25  C 
ATOM      2 O    VAL E1321      32.655  43.105  -7.835  1.00 26.63 LIG-0.27  OA
ATOM      3  N   LYS E1322      34.009  42.005  -9.229  1.00 27.49 LIG-0.34  N 
ATOM      4 H    LYS E1322      34.707  41.526  -9.380  1.00 27.49 LIG 0.16  HD
ENDROOT
BRANCH 3 5
ATOM      5  CA  LYS E1322      33.253  42.380 -10.428  1.00 83.53 LIG 0.18  C 
BRANCH 5 6
ATOM      6  C   LYS E1322      33.387  41.415 -11.639  1.00 46.63 LIG 0.20  C 
ATOM      7 O    LYS E1322      33.224  41.864 -12.815  1.00 43.95 LIG-0.65  OA
ATOM      8 OXT  LYS E1322      33.779  40.224 -11.409  1.00100.00 LIG-0.65  OA
ENDBRANCH 5 6
BRANCH 5 9
ATOM      9  CB  LYS E1322      33.484  43.824 -10.785  1.00 27.11 LIG 0.04  C 
BRANCH 9 10
ATOM     10  CG  LYS E1322      32.294  44.731 -10.573  1.00 36.61 LIG 0.00  C 
BRANCH 10 11
ATOM     11  CD  LYS E1322      31.970  45.479 -11.859  1.00 49.53 LIG 0.03  C 
BRANCH 11 12
ATOM     12  CE  LYS E1322      30.932  44.769 -12.709  1.00100.00 LIG 0.23  C 
BRANCH 12 13
ATOM     13  NZ  LYS E1322      30.407  45.620 -13.793  1.00 46.56 LIG-0.08  N 
ATOM     14 HZ1  LYS E1322      31.071  46.098 -14.144  1.00 46.56 LIG 0.27  HD
ATOM     15 HZ2  LYS E1322      30.045  45.107 -14.424  1.00 46.56 LIG 0.27  HD
ATOM     16 HZ3  LYS E1322      29.787  46.169 -13.465  1.00 46.56 LIG 0.27  HD
ENDBRANCH 12 13
ENDBRANCH 11 12
ENDBRANCH 10 11
ENDBRANCH 9 10
ENDBRANCH 5 9
ENDBRANCH 3 5
BRANCH 1 17
ATOM     17  CA  VAL E1321      34.484  42.009  -6.842  1.00 34.64 LIG 0.28  C 
BRANCH 17 18
ATOM     18  N   VAL E1321      33.846  42.246  -5.546  1.00 23.60 LIG-0.07  N 
ATOM     19 H1   VAL E1321      34.332  41.872  -4.902  1.00 23.60 LIG 0.28  HD
ATOM     20 H2   VAL E1321      33.785  43.122  -5.400  1.00 23.60 LIG 0.28  HD
ATOM     21 H3   VAL E1321      33.030  41.890  -5.546  1.00 23.60 LIG 0.28  HD
ENDBRANCH 17 18
BRANCH 17 22
ATOM     22  CB  VAL E1321      34.964  40.595  -7.062  1.00 31.80 LIG 0.02  C 
ATOM     23  CG1 VAL E1321      36.067  40.226  -6.048  1.00 29.70 LIG 0.01  C 
ATOM     24  CG2 VAL E1321      33.780  39.611  -7.006  1.00 23.28 LIG 0.01  C 
ENDBRANCH 17 22
ENDBRANCH 1 17
TORSDOF 10
ENDMDL
MODEL 30
USER: ADFR SOLUTION from run 107
USER: SCORE 10.473280 LL:  -1.211 LR:  -9.263 RR:   0.000 FEB:  -6.280
USER: RMSD 3.428315
USER: SEED 106
USER: STATUS no improvement in best 14 clusters for 5 generations
USER: GENES 12
USER: genes 0 Translation |==|  0.49058 0.56865 0.47000
USER: genes 1 Rotation |==|  0.45352 0.62178 0.51615 0.98244
USER: genes 2 Torsion [C]-N--CA-[C] |==|  0.12204
USER: genes 3 Torsion [N]-CA--C-[O] |==|  0.08679
USER: genes 4 Torsion [N]-CA--CB-[CG] |==|  0.61064
USER: genes 5 Torsion [CA]-CB--CG-[CD] |==|  0.43388
USER: genes 6 Torsion [CB]-CG--CD-[CE] |==|  0.38821
USER: genes 7 Torsion [CG]-CD--CE-[NZ] |==|  0.89688
USER: genes 8 Torsion [CD]-CE--NZ-[HZ2] |==|  0.13839
USER: genes 9 Torsion [N]-C--CA-[N] |==|  0.93723
USER: genes 10 Torsion [C]-CA--N-[H1] |==|  0.14809
USER: genes 11 Torsion [C]-CA--CB-[CG1] |==|  0.36579
ROOT
ATOM      1  C   VAL E1321      37.247  41.679  -3.480  1.00100.00 LIG 0.25  C 
ATOM      2 O    VAL E1321      38.230  42.193  -3.955  1.00 26.63 LIG-0.27  OA
ATOM      3  N   LYS E1322      37.083  40.356  -3.416  1.00 27.49 LIG-0.34  N 
ATOM      4 H    LYS E1322      36.405  39.970  -3.053  1.00 27.49 LIG 0.16  HD
ENDROOT
BRANCH 3 5
ATOM      5  CA  LYS E1322      38.081  39.440  -3.976  1.00 83.53 LIG 0.18  C 
BRANCH 5 6
ATOM      6  C   LYS E1322      39.564  39.789  -3.671  1.00 46.63 LIG 0.20  C 
ATOM      7 O    LYS E1322      39.855  40.370  -2.580  1.00 43.95 LIG-0.65  OA
ATOM      8 OXT  LYS E1322      40.453  39.368  -4.481  1.00100.00 LIG-0.65  OA
ENDBRANCH 5 6
BRANCH 5 9
ATOM      9  CB  LYS E1322      37.816  39.177  -5.435  1.00 27.11 LIG 0.04  C 
BRANCH 9 10
ATOM     10  CG  LYS E1322      38.036  37.749  -5.876  1.00 36.61 LIG 0.00  C 
BRANCH 10 11
ATOM     11  CD  LYS E1322      37.219  37.455  -7.127  1.00 49.53 LIG 0.03  C 
BRANCH 11 12
ATOM     12  CE  LYS E1322      37.971  36.608  -8.138  1.00100.00 LIG 0.23  C 
BRANCH 12 13
ATOM     13  NZ  LYS E1322      39.405  36.944  -8.205  1.00 46.56 LIG-0.08  N 
ATOM     14 HZ1  LYS E1322      39.505  37.745  -8.580  1.00 46.56 LIG 0.27  HD
ATOM     15 HZ2  LYS E1322      39.746  36.956  -7.383  1.00 46.56 LIG 0.27  HD
ATOM     16 HZ3  LYS E1322      39.830  36.333  -8.693  1.00 46.56 LIG 0.27  HD
ENDBRANCH 12 13
ENDBRANCH 11 12
ENDBRANCH 10 11
ENDBRANCH 9 10
ENDBRANCH 5 9
ENDBRANCH 3 5
BRANCH 1 17
ATOM     17  CA  VAL E1321      36.196  42.545  -2.829  1.00 34.64 LIG 0.28  C 
BRANCH 17 18
ATOM     18  N   VAL E1321      34.905  41.870  -2.678  1.00 23.60 LIG-0.07  N 
ATOM     19 H1   VAL E1321      35.022  41.096  -2.255  1.00 23.60 LIG 0.28  HD
ATOM     20 H2   VAL E1321      34.354  42.385  -2.205  1.00 23.60 LIG 0.28  HD
ATOM     21 H3   VAL E1321      34.552  41.718  -3.481  1.00 23.60 LIG 0.28  HD
ENDBRANCH 17 18
BRANCH 17 22
ATOM     22  CB  VAL E1321      36.773  43.101  -1.550  1.00 31.80 LIG 0.02  C 
ATOM     23  CG1 VAL E1321      36.529  44.622  -1.455  1.00 29.70 LIG 0.01  C 
ATOM     24  CG2 VAL E1321      36.202  42.351  -0.333  1.00 23.28 LIG 0.01  C 
ENDBRANCH 17 22
ENDBRANCH 1 17
TORSDOF 10
ENDMDL
MODEL 31
USER: ADFR SOLUTION from run 17
USER: SCORE 11.324325 LL:  -2.086 LR:  -9.239 RR:   0.000 FEB:  -6.256
USER: RMSD 5.144093
USER: SEED 16
USER: STATUS no improvement in best 14 clusters for 5 generations
USER: GENES 12
USER: genes 0 Translation |==|  0.45480 0.57643 0.41171
USER: genes 1 Rotation |==|  0.06701 0.53374 0.54129 0.74429
USER: genes 2 Torsion [C]-N--CA-[C] |==|  0.74860
USER: genes 3 Torsion [N]-CA--C-[O] |==|  0.87768
USER: genes 4 Torsion [N]-CA--CB-[CG] |==|  0.11481
USER: genes 5 Torsion [CA]-CB--CG-[CD] |==|  0.18259
USER: genes 6 Torsion [CB]-CG--CD-[CE] |==|  0.65355
USER: genes 7 Torsion [CG]-CD--CE-[NZ] |==|  0.23119
USER: genes 8 Torsion [CD]-CE--NZ-[HZ2] |==|  0.01869
USER: genes 9 Torsion [N]-C--CA-[N] |==|  0.07987
USER: genes 10 Torsion [C]-CA--N-[H1] |==|  0.25816
USER: genes 11 Torsion [C]-CA--CB-[CG1] |==|  0.26888
ROOT
ATOM      1  C   VAL E1321      36.174  41.913  -5.229  1.00100.00 LIG 0.25  C 
ATOM      2 O    VAL E1321      37.143  41.754  -5.930  1.00 26.63 LIG-0.27  OA
ATOM      3  N   LYS E1322      36.257  42.344  -3.967  1.00 27.49 LIG-0.34  N 
ATOM      4 H    LYS E1322      35.578  42.493  -3.461  1.00 27.49 LIG 0.16  HD
ENDROOT
BRANCH 3 5
ATOM      5  CA  LYS E1322      37.557  42.601  -3.338  1.00 83.53 LIG 0.18  C 
BRANCH 5 6
ATOM      6  C   LYS E1322      38.192  41.397  -2.589  1.00 46.63 LIG 0.20  C 
ATOM      7 O    LYS E1322      37.467  40.678  -1.836  1.00 43.95 LIG-0.65  OA
ATOM      8 OXT  LYS E1322      39.404  41.104  -2.856  1.00100.00 LIG-0.65  OA
ENDBRANCH 5 6
BRANCH 5 9
ATOM      9  CB  LYS E1322      37.521  43.864  -2.521  1.00 27.11 LIG 0.04  C 
BRANCH 9 10
ATOM     10  CG  LYS E1322      36.264  44.063  -1.707  1.00 36.61 LIG 0.00  C 
BRANCH 10 11
ATOM     11  CD  LYS E1322      36.162  42.993  -0.630  1.00 49.53 LIG 0.03  C 
BRANCH 11 12
ATOM     12  CE  LYS E1322      34.858  42.217  -0.689  1.00100.00 LIG 0.23  C 
BRANCH 12 13
ATOM     13  NZ  LYS E1322      34.894  41.120  -1.673  1.00 46.56 LIG-0.08  N 
ATOM     14 HZ1  LYS E1322      34.329  41.298  -2.338  1.00 46.56 LIG 0.27  HD
ATOM     15 HZ2  LYS E1322      35.719  41.040  -1.998  1.00 46.56 LIG 0.27  HD
ATOM     16 HZ3  LYS E1322      34.656  40.359  -1.277  1.00 46.56 LIG 0.27  HD
ENDBRANCH 12 13
ENDBRANCH 11 12
ENDBRANCH 10 11
ENDBRANCH 9 10
ENDBRANCH 5 9
ENDBRANCH 3 5
BRANCH 1 17
ATOM     17  CA  VAL E1321      34.794  41.726  -5.811  1.00 34.64 LIG 0.28  C 
BRANCH 17 18
ATOM     18  N   VAL E1321      33.793  42.620  -5.225  1.00 23.60 LIG-0.07  N 
ATOM     19 H1   VAL E1321      33.730  43.359  -5.718  1.00 23.60 LIG 0.28  HD
ATOM     20 H2   VAL E1321      33.004  42.209  -5.204  1.00 23.60 LIG 0.28  HD
ATOM     21 H3   VAL E1321      34.037  42.836  -4.397  1.00 23.60 LIG 0.28  HD
ENDBRANCH 17 18
BRANCH 17 22
ATOM     22  CB  VAL E1321      34.907  41.801  -7.315  1.00 31.80 LIG 0.02  C 
ATOM     23  CG1 VAL E1321      34.994  40.389  -7.930  1.00 29.70 LIG 0.01  C 
ATOM     24  CG2 VAL E1321      33.736  42.612  -7.901  1.00 23.28 LIG 0.01  C 
ENDBRANCH 17 22
ENDBRANCH 1 17
TORSDOF 10
ENDMDL
MODEL 32
USER: ADFR SOLUTION from run 49
USER: SCORE 10.405691 LL:  -1.169 LR:  -9.237 RR:   0.000 FEB:  -6.254
USER: RMSD 4.931215
USER: SEED 48
USER: STATUS no improvement in best 11 clusters for 5 generations
USER: GENES 12
USER: genes 0 Translation |==|  0.52895 0.50112 0.50123
USER: genes 1 Rotation |==|  0.81641 0.70895 0.53391 0.82415
USER: genes 2 Torsion [C]-N--CA-[C] |==|  0.80876
USER: genes 3 Torsion [N]-CA--C-[O] |==|  0.15932
USER: genes 4 Torsion [N]-CA--CB-[CG] |==|  0.81719
USER: genes 5 Torsion [CA]-CB--CG-[CD] |==|  0.57344
USER: genes 6 Torsion [CB]-CG--CD-[CE] |==|  0.44894
USER: genes 7 Torsion [CG]-CD--CE-[NZ] |==|  0.74064
USER: genes 8 Torsion [CD]-CE--NZ-[HZ2] |==|  0.85135
USER: genes 9 Torsion [N]-C--CA-[N] |==|  0.86447
USER: genes 10 Torsion [C]-CA--N-[H1] |==|  0.71649
USER: genes 11 Torsion [C]-CA--CB-[CG1] |==|  0.37864
ROOT
ATOM      1  C   VAL E1321      38.398  39.654  -2.543  1.00100.00 LIG 0.25  C 
ATOM      2 O    VAL E1321      39.405  40.310  -2.649  1.00 26.63 LIG-0.27  OA
ATOM      3  N   LYS E1322      37.527  39.500  -3.543  1.00 27.49 LIG-0.34  N 
ATOM      4 H    LYS E1322      36.821  39.011  -3.499  1.00 27.49 LIG 0.16  HD
ENDROOT
BRANCH 3 5
ATOM      5  CA  LYS E1322      37.723  40.175  -4.830  1.00 83.53 LIG 0.18  C 
BRANCH 5 6
ATOM      6  C   LYS E1322      37.558  41.720  -4.812  1.00 46.63 LIG 0.20  C 
ATOM      7 O    LYS E1322      38.280  42.415  -4.033  1.00 43.95 LIG-0.65  OA
ATOM      8 OXT  LYS E1322      36.780  42.245  -5.675  1.00100.00 LIG-0.65  OA
ENDBRANCH 5 6
BRANCH 5 9
ATOM      9  CB  LYS E1322      36.934  39.501  -5.921  1.00 27.11 LIG 0.04  C 
BRANCH 9 10
ATOM     10  CG  LYS E1322      37.379  38.097  -6.255  1.00 36.61 LIG 0.00  C 
BRANCH 10 11
ATOM     11  CD  LYS E1322      37.021  37.762  -7.697  1.00 49.53 LIG 0.03  C 
BRANCH 11 12
ATOM     12  CE  LYS E1322      37.805  36.581  -8.240  1.00100.00 LIG 0.23  C 
BRANCH 12 13
ATOM     13  NZ  LYS E1322      39.030  36.990  -8.950  1.00 46.56 LIG-0.08  N 
ATOM     14 HZ1  LYS E1322      39.406  36.278  -9.330  1.00 46.56 LIG 0.27  HD
ATOM     15 HZ2  LYS E1322      38.824  37.587  -9.577  1.00 46.56 LIG 0.27  HD
ATOM     16 HZ3  LYS E1322      39.601  37.353  -8.371  1.00 46.56 LIG 0.27  HD
ENDBRANCH 12 13
ENDBRANCH 11 12
ENDBRANCH 10 11
ENDBRANCH 9 10
ENDBRANCH 5 9
ENDBRANCH 3 5
BRANCH 1 17
ATOM     17  CA  VAL E1321      38.145  38.878  -1.273  1.00 34.64 LIG 0.28  C 
BRANCH 17 18
ATOM     18  N   VAL E1321      36.770  38.998  -0.787  1.00 23.60 LIG-0.07  N 
ATOM     19 H1   VAL E1321      36.743  39.574  -0.109  1.00 23.60 LIG 0.28  HD
ATOM     20 H2   VAL E1321      36.246  39.290  -1.445  1.00 23.60 LIG 0.28  HD
ATOM     21 H3   VAL E1321      36.481  38.202  -0.511  1.00 23.60 LIG 0.28  HD
ENDBRANCH 17 18
BRANCH 17 22
ATOM     22  CB  VAL E1321      38.619  37.461  -1.488  1.00 31.80 LIG 0.02  C 
ATOM     23  CG1 VAL E1321      39.405  36.953  -0.260  1.00 29.70 LIG 0.01  C 
ATOM     24  CG2 VAL E1321      37.431  36.543  -1.829  1.00 23.28 LIG 0.01  C 
ENDBRANCH 17 22
ENDBRANCH 1 17
TORSDOF 10
ENDMDL
MODEL 33
USER: ADFR SOLUTION from run 9
USER: SCORE 10.168606 LL:  -1.043 LR:  -9.126 RR:   0.000 FEB:  -6.143
USER: RMSD 1.947480
USER: SEED 513813
USER: STATUS no improvement in best 15 clusters for 5 generations
USER: GENES 12
USER: genes 0 Translation |==|  0.49390 0.57702 0.50872
USER: genes 1 Rotation |==|  0.43595 0.48221 0.50959 0.99547
USER: genes 2 Torsion [C]-N--CA-[C] |==|  0.86191
USER: genes 3 Torsion [N]-CA--C-[O] |==|  0.98347
USER: genes 4 Torsion [N]-CA--CB-[CG] |==|  0.72289
USER: genes 5 Torsion [CA]-CB--CG-[CD] |==|  0.70082
USER: genes 6 Torsion [CB]-CG--CD-[CE] |==|  0.69655
USER: genes 7 Torsion [CG]-CD--CE-[NZ] |==|  0.96809
USER: genes 8 Torsion [CD]-CE--NZ-[HZ2] |==|  0.83007
USER: genes 9 Torsion [N]-C--CA-[N] |==|  0.95395
USER: genes 10 Torsion [C]-CA--N-[H1] |==|  0.36264
USER: genes 11 Torsion [C]-CA--CB-[CG1] |==|  0.88813
ROOT
ATOM      1  C   VAL E1321      37.347  41.931  -2.318  1.00100.00 LIG 0.25  C 
ATOM      2 O    VAL E1321      38.418  42.479  -2.227  1.00 26.63 LIG-0.27  OA
ATOM      3  N   LYS E1322      37.208  40.603  -2.271  1.00 27.49 LIG-0.34  N 
ATOM      4 H    LYS E1322      36.452  40.194  -2.303  1.00 27.49 LIG 0.16  HD
ENDROOT
BRANCH 3 5
ATOM      5  CA  LYS E1322      38.375  39.723  -2.156  1.00 83.53 LIG 0.18  C 
BRANCH 5 6
ATOM      6  C   LYS E1322      39.526  39.995  -3.163  1.00 46.63 LIG 0.20  C 
ATOM      7 O    LYS E1322      39.361  40.857  -4.080  1.00 43.95 LIG-0.65  OA
ATOM      8 OXT  LYS E1322      40.646  39.423  -2.955  1.00100.00 LIG-0.65  OA
ENDBRANCH 5 6
BRANCH 5 9
ATOM      9  CB  LYS E1322      37.958  38.277  -2.100  1.00 27.11 LIG 0.04  C 
BRANCH 9 10
ATOM     10  CG  LYS E1322      37.929  37.676  -0.714  1.00 36.61 LIG 0.00  C 
BRANCH 10 11
ATOM     11  CD  LYS E1322      39.090  36.707  -0.538  1.00 49.53 LIG 0.03  C 
BRANCH 11 12
ATOM     12  CE  LYS E1322      38.645  35.256  -0.484  1.00100.00 LIG 0.23  C 
BRANCH 12 13
ATOM     13  NZ  LYS E1322      37.185  35.115  -0.341  1.00 46.56 LIG-0.08  N 
ATOM     14 HZ1  LYS E1322      36.969  34.251  -0.331  1.00 46.56 LIG 0.27  HD
ATOM     15 HZ2  LYS E1322      36.923  35.495   0.420  1.00 46.56 LIG 0.27  HD
ATOM     16 HZ3  LYS E1322      36.780  35.514  -1.026  1.00 46.56 LIG 0.27  HD
ENDBRANCH 12 13
ENDBRANCH 11 12
ENDBRANCH 10 11
ENDBRANCH 9 10
ENDBRANCH 5 9
ENDBRANCH 3 5
BRANCH 1 17
ATOM     17  CA  VAL E1321      36.088  42.761  -2.382  1.00 34.64 LIG 0.28  C 
BRANCH 17 18
ATOM     18  N   VAL E1321      34.905  41.989  -2.767  1.00 23.60 LIG-0.07  N 
ATOM     19 H1   VAL E1321      34.243  42.153  -2.195  1.00 23.60 LIG 0.28  HD
ATOM     20 H2   VAL E1321      34.652  42.222  -3.588  1.00 23.60 LIG 0.28  HD
ATOM     21 H3   VAL E1321      35.099  41.120  -2.752  1.00 23.60 LIG 0.28  HD
ENDBRANCH 17 18
BRANCH 17 22
ATOM     22  CB  VAL E1321      35.956  43.513  -1.080  1.00 31.80 LIG 0.02  C 
ATOM     23  CG1 VAL E1321      36.357  42.620   0.113  1.00 29.70 LIG 0.01  C 
ATOM     24  CG2 VAL E1321      36.780  44.814  -1.126  1.00 23.28 LIG 0.01  C 
ENDBRANCH 17 22
ENDBRANCH 1 17
TORSDOF 10
ENDMDL
MODEL 34
USER: ADFR SOLUTION from run 62
USER: SCORE 11.099701 LL:  -2.020 LR:  -9.079 RR:   0.000 FEB:  -6.096
USER: RMSD 9.107576
USER: SEED 61
USER: STATUS no improvement in best 12 clusters for 5 generations
USER: GENES 12
USER: genes 0 Translation |==|  0.32734 0.58379 0.22152
USER: genes 1 Rotation |==|  0.14275 0.47918 0.46386 0.84732
USER: genes 2 Torsion [C]-N--CA-[C] |==|  0.20643
USER: genes 3 Torsion [N]-CA--C-[O] |==|  0.19266
USER: genes 4 Torsion [N]-CA--CB-[CG] |==|  0.50581
USER: genes 5 Torsion [CA]-CB--CG-[CD] |==|  0.09253
USER: genes 6 Torsion [CB]-CG--CD-[CE] |==|  0.66455
USER: genes 7 Torsion [CG]-CD--CE-[NZ] |==|  0.34761
USER: genes 8 Torsion [CD]-CE--NZ-[HZ2] |==|  0.76198
USER: genes 9 Torsion [N]-C--CA-[N] |==|  0.94569
USER: genes 10 Torsion [C]-CA--N-[H1] |==|  0.99803
USER: genes 11 Torsion [C]-CA--CB-[CG1] |==|  0.57648
ROOT
ATOM      1  C   VAL E1321      32.350  42.134 -10.935  1.00100.00 LIG 0.25  C 
ATOM      2 O    VAL E1321      33.517  42.219 -11.231  1.00 26.63 LIG-0.27  OA
ATOM      3  N   LYS E1322      31.936  41.904  -9.686  1.00 27.49 LIG-0.34  N 
ATOM      4 H    LYS E1322      31.110  41.870  -9.449  1.00 27.49 LIG 0.16  HD
ENDROOT
BRANCH 3 5
ATOM      5  CA  LYS E1322      32.894  41.687  -8.597  1.00 83.53 LIG 0.18  C 
BRANCH 5 6
ATOM      6  C   LYS E1322      33.638  42.953  -8.091  1.00 46.63 LIG 0.20  C 
ATOM      7 O    LYS E1322      32.992  43.842  -7.455  1.00 43.95 LIG-0.65  OA
ATOM      8 OXT  LYS E1322      34.904  42.995  -8.231  1.00100.00 LIG-0.65  OA
ENDBRANCH 5 6
BRANCH 5 9
ATOM      9  CB  LYS E1322      33.814  40.536  -8.907  1.00 27.11 LIG 0.04  C 
BRANCH 9 10
ATOM     10  CG  LYS E1322      34.807  40.202  -7.820  1.00 36.61 LIG 0.00  C 
BRANCH 10 11
ATOM     11  CD  LYS E1322      34.197  40.473  -6.451  1.00 49.53 LIG 0.03  C 
BRANCH 11 12
ATOM     12  CE  LYS E1322      34.985  41.490  -5.644  1.00100.00 LIG 0.23  C 
BRANCH 12 13
ATOM     13  NZ  LYS E1322      34.155  42.620  -5.190  1.00 46.56 LIG-0.08  N 
ATOM     14 HZ1  LYS E1322      34.511  42.974  -4.454  1.00 46.56 LIG 0.27  HD
ATOM     15 HZ2  LYS E1322      34.120  43.238  -5.829  1.00 46.56 LIG 0.27  HD
ATOM     16 HZ3  LYS E1322      33.332  42.331  -5.011  1.00 46.56 LIG 0.27  HD
ENDBRANCH 12 13
ENDBRANCH 11 12
ENDBRANCH 10 11
ENDBRANCH 9 10
ENDBRANCH 5 9
ENDBRANCH 3 5
BRANCH 1 17
ATOM     17  CA  VAL E1321      31.295  42.399 -11.981  1.00 34.64 LIG 0.28  C 
BRANCH 17 18
ATOM     18  N   VAL E1321      29.964  41.931 -11.591  1.00 23.60 LIG-0.07  N 
ATOM     19 H1   VAL E1321      30.006  41.550 -10.788  1.00 23.60 LIG 0.28  HD
ATOM     20 H2   VAL E1321      29.402  42.620 -11.563  1.00 23.60 LIG 0.28  HD
ATOM     21 H3   VAL E1321      29.672  41.336 -12.186  1.00 23.60 LIG 0.28  HD
ENDBRANCH 17 18
BRANCH 17 22
ATOM     22  CB  VAL E1321      31.366  43.859 -12.358  1.00 31.80 LIG 0.02  C 
ATOM     23  CG1 VAL E1321      29.993  44.369 -12.843  1.00 29.70 LIG 0.01  C 
ATOM     24  CG2 VAL E1321      31.905  44.692 -11.180  1.00 23.28 LIG 0.01  C 
ENDBRANCH 17 22
ENDBRANCH 1 17
TORSDOF 10
ENDMDL
MODEL 35
USER: ADFR SOLUTION from run 104
USER: SCORE 10.617533 LL:  -1.560 LR:  -9.058 RR:   0.000 FEB:  -6.075
USER: RMSD 5.124669
USER: SEED 103
USER: STATUS no improvement in best 16 clusters for 5 generations
USER: GENES 12
USER: genes 0 Translation |==|  0.43181 0.54895 0.38460
USER: genes 1 Rotation |==|  0.39709 0.25102 0.74195 0.84479
USER: genes 2 Torsion [C]-N--CA-[C] |==|  0.84052
USER: genes 3 Torsion [N]-CA--C-[O] |==|  0.99954
USER: genes 4 Torsion [N]-CA--CB-[CG] |==|  0.62073
USER: genes 5 Torsion [CA]-CB--CG-[CD] |==|  0.96170
USER: genes 6 Torsion [CB]-CG--CD-[CE] |==|  0.28938
USER: genes 7 Torsion [CG]-CD--CE-[NZ] |==|  0.70599
USER: genes 8 Torsion [CD]-CE--NZ-[HZ2] |==|  0.62757
USER: genes 9 Torsion [N]-C--CA-[N] |==|  0.75723
USER: genes 10 Torsion [C]-CA--N-[H1] |==|  0.37526
USER: genes 11 Torsion [C]-CA--CB-[CG1] |==|  0.33424
ROOT
ATOM      1  C   VAL E1321      35.484  41.089  -6.042  1.00100.00 LIG 0.25  C 
ATOM      2 O    VAL E1321      35.174  42.231  -5.809  1.00 26.63 LIG-0.27  OA
ATOM      3  N   LYS E1322      36.321  40.394  -5.267  1.00 27.49 LIG-0.34  N 
ATOM      4 H    LYS E1322      36.531  39.570  -5.398  1.00 27.49 LIG 0.16  HD
ENDROOT
BRANCH 3 5
ATOM      5  CA  LYS E1322      36.961  41.010  -4.100  1.00 83.53 LIG 0.18  C 
BRANCH 5 6
ATOM      6  C   LYS E1322      37.808  42.280  -4.388  1.00 46.63 LIG 0.20  C 
ATOM      7 O    LYS E1322      37.905  42.708  -5.580  1.00 43.95 LIG-0.65  OA
ATOM      8 OXT  LYS E1322      38.280  42.920  -3.391  1.00100.00 LIG-0.65  OA
ENDBRANCH 5 6
BRANCH 5 9
ATOM      9  CB  LYS E1322      37.687  39.981  -3.275  1.00 27.11 LIG 0.04  C 
BRANCH 9 10
ATOM     10  CG  LYS E1322      37.493  40.109  -1.782  1.00 36.61 LIG 0.00  C 
BRANCH 10 11
ATOM     11  CD  LYS E1322      36.876  41.460  -1.447  1.00 49.53 LIG 0.03  C 
BRANCH 11 12
ATOM     12  CE  LYS E1322      35.401  41.366  -1.099  1.00100.00 LIG 0.23  C 
BRANCH 12 13
ATOM     13  NZ  LYS E1322      34.531  41.870  -2.177  1.00 46.56 LIG-0.08  N 
ATOM     14 HZ1  LYS E1322      34.141  41.184  -2.589  1.00 46.56 LIG 0.27  HD
ATOM     15 HZ2  LYS E1322      33.906  42.401  -1.830  1.00 46.56 LIG 0.27  HD
ATOM     16 HZ3  LYS E1322      35.019  42.330  -2.762  1.00 46.56 LIG 0.27  HD
ENDBRANCH 12 13
ENDBRANCH 11 12
ENDBRANCH 10 11
ENDBRANCH 9 10
ENDBRANCH 5 9
ENDBRANCH 3 5
BRANCH 1 17
ATOM     17  CA  VAL E1321      34.830  40.358  -7.190  1.00 34.64 LIG 0.28  C 
BRANCH 17 18
ATOM     18  N   VAL E1321      35.633  40.368  -8.414  1.00 23.60 LIG-0.07  N 
ATOM     19 H1   VAL E1321      35.640  39.553  -8.772  1.00 23.60 LIG 0.28  HD
ATOM     20 H2   VAL E1321      35.281  40.944  -8.995  1.00 23.60 LIG 0.28  HD
ATOM     21 H3   VAL E1321      36.466  40.614  -8.221  1.00 23.60 LIG 0.28  HD
ENDBRANCH 17 18
BRANCH 17 22
ATOM     22  CB  VAL E1321      34.432  38.985  -6.705  1.00 31.80 LIG 0.02  C 
ATOM     23  CG1 VAL E1321      32.909  38.776  -6.838  1.00 29.70 LIG 0.01  C 
ATOM     24  CG2 VAL E1321      35.228  37.900  -7.453  1.00 23.28 LIG 0.01  C 
ENDBRANCH 17 22
ENDBRANCH 1 17
TORSDOF 10
ENDMDL
MODEL 36
USER: ADFR SOLUTION from run 24
USER: SCORE 10.416191 LL:  -1.380 LR:  -9.036 RR:   0.000 FEB:  -6.053
USER: RMSD 10.328451
USER: SEED 23
USER: STATUS no improvement in best 12 clusters for 5 generations
USER: GENES 12
USER: genes 0 Translation |==|  0.33125 0.65643 0.20677
USER: genes 1 Rotation |==|  0.30131 0.43646 0.43906 0.95030
USER: genes 2 Torsion [C]-N--CA-[C] |==|  0.16795
USER: genes 3 Torsion [N]-CA--C-[O] |==|  0.67197
USER: genes 4 Torsion [N]-CA--CB-[CG] |==|  0.58351
USER: genes 5 Torsion [CA]-CB--CG-[CD] |==|  0.40985
USER: genes 6 Torsion [CB]-CG--CD-[CE] |==|  0.40789
USER: genes 7 Torsion [CG]-CD--CE-[NZ] |==|  0.60595
USER: genes 8 Torsion [CD]-CE--NZ-[HZ2] |==|  0.59269
USER: genes 9 Torsion [N]-C--CA-[N] |==|  0.47830
USER: genes 10 Torsion [C]-CA--N-[H1] |==|  0.99035
USER: genes 11 Torsion [C]-CA--CB-[CG1] |==|  0.89432
ROOT
ATOM      1  C   VAL E1321      32.468  44.313 -11.377  1.00100.00 LIG 0.25  C 
ATOM      2 O    VAL E1321      33.632  44.603 -11.250  1.00 26.63 LIG-0.27  OA
ATOM      3  N   LYS E1322      31.905  43.283 -10.739  1.00 27.49 LIG-0.34  N 
ATOM      4 H    LYS E1322      31.071  43.079 -10.792  1.00 27.49 LIG 0.16  HD
ENDROOT
BRANCH 3 5
ATOM      5  CA  LYS E1322      32.697  42.402  -9.876  1.00 83.53 LIG 0.18  C 
BRANCH 5 6
ATOM      6  C   LYS E1322      33.389  43.088  -8.666  1.00 46.63 LIG 0.20  C 
ATOM      7 O    LYS E1322      34.656  43.077  -8.583  1.00 43.95 LIG-0.65  OA
ATOM      8 OXT  LYS E1322      32.656  43.745  -7.856  1.00100.00 LIG-0.65  OA
ENDBRANCH 5 6
BRANCH 5 9
ATOM      9  CB  LYS E1322      33.628  41.542 -10.689  1.00 27.11 LIG 0.04  C 
BRANCH 9 10
ATOM     10  CG  LYS E1322      33.940  40.192 -10.085  1.00 36.61 LIG 0.00  C 
BRANCH 10 11
ATOM     11  CD  LYS E1322      34.153  39.162 -11.186  1.00 49.53 LIG 0.03  C 
BRANCH 11 12
ATOM     12  CE  LYS E1322      35.180  38.107 -10.815  1.00100.00 LIG 0.23  C 
BRANCH 12 13
ATOM     13  NZ  LYS E1322      36.030  37.717 -11.955  1.00 46.56 LIG-0.08  N 
ATOM     14 HZ1  LYS E1322      36.772  38.209 -11.955  1.00 46.56 LIG 0.27  HD
ATOM     15 HZ2  LYS E1322      36.245  36.856 -11.884  1.00 46.56 LIG 0.27  HD
ATOM     16 HZ3  LYS E1322      35.586  37.850 -12.715  1.00 46.56 LIG 0.27  HD
ENDBRANCH 12 13
ENDBRANCH 11 12
ENDBRANCH 10 11
ENDBRANCH 9 10
ENDBRANCH 5 9
ENDBRANCH 3 5
BRANCH 1 17
ATOM     17  CA  VAL E1321      31.565  45.199 -12.201  1.00 34.64 LIG 0.28  C 
BRANCH 17 18
ATOM     18  N   VAL E1321      32.237  46.396 -12.710  1.00 23.60 LIG-0.07  N 
ATOM     19 H1   VAL E1321      33.071  46.424 -12.399  1.00 23.60 LIG 0.28  HD
ATOM     20 H2   VAL E1321      32.255  46.372 -13.600  1.00 23.60 LIG 0.28  HD
ATOM     21 H3   VAL E1321      31.797  47.121 -12.442  1.00 23.60 LIG 0.28  HD
ENDBRANCH 17 18
BRANCH 17 22
ATOM     22  CB  VAL E1321      30.909  44.344 -13.259  1.00 31.80 LIG 0.02  C 
ATOM     23  CG1 VAL E1321      31.897  43.292 -13.805  1.00 29.70 LIG 0.01  C 
ATOM     24  CG2 VAL E1321      29.627  43.695 -12.705  1.00 23.28 LIG 0.01  C 
ENDBRANCH 17 22
ENDBRANCH 1 17
TORSDOF 10
ENDMDL
MODEL 37
USER: ADFR SOLUTION from run 52
USER: SCORE 11.076821 LL:  -2.067 LR:  -9.010 RR:   0.000 FEB:  -6.027
USER: RMSD 5.359567
USER: SEED 51
USER: STATUS no improvement in best 12 clusters for 5 generations
USER: GENES 12
USER: genes 0 Translation |==|  0.49345 0.50424 0.53633
USER: genes 1 Rotation |==|  0.61043 0.57592 0.95145 0.66802
USER: genes 2 Torsion [C]-N--CA-[C] |==|  0.59991
USER: genes 3 Torsion [N]-CA--C-[O] |==|  0.80450
USER: genes 4 Torsion [N]-CA--CB-[CG] |==|  0.70965
USER: genes 5 Torsion [CA]-CB--CG-[CD] |==|  0.88874
USER: genes 6 Torsion [CB]-CG--CD-[CE] |==|  0.27467
USER: genes 7 Torsion [CG]-CD--CE-[NZ] |==|  0.69811
USER: genes 8 Torsion [CD]-CE--NZ-[HZ2] |==|  0.26431
USER: genes 9 Torsion [N]-C--CA-[N] |==|  0.56037
USER: genes 10 Torsion [C]-CA--N-[H1] |==|  0.41839
USER: genes 11 Torsion [C]-CA--CB-[CG1] |==|  0.31895
ROOT
ATOM      1  C   VAL E1321      37.334  39.747  -1.490  1.00100.00 LIG 0.25  C 
ATOM      2 O    VAL E1321      36.406  40.160  -0.838  1.00 26.63 LIG-0.27  OA
ATOM      3  N   LYS E1322      38.025  40.519  -2.333  1.00 27.49 LIG-0.34  N 
ATOM      4 H    LYS E1322      38.707  40.252  -2.784  1.00 27.49 LIG 0.16  HD
ENDROOT
BRANCH 3 5
ATOM      5  CA  LYS E1322      37.654  41.920  -2.556  1.00 83.53 LIG 0.18  C 
BRANCH 5 6
ATOM      6  C   LYS E1322      37.846  42.446  -4.005  1.00 46.63 LIG 0.20  C 
ATOM      7 O    LYS E1322      39.020  42.618  -4.455  1.00 43.95 LIG-0.65  OA
ATOM      8 OXT  LYS E1322      36.808  42.572  -4.734  1.00100.00 LIG-0.65  OA
ENDBRANCH 5 6
BRANCH 5 9
ATOM      9  CB  LYS E1322      38.263  42.813  -1.508  1.00 27.11 LIG 0.04  C 
BRANCH 9 10
ATOM     10  CG  LYS E1322      37.302  43.303  -0.450  1.00 36.61 LIG 0.00  C 
BRANCH 10 11
ATOM     11  CD  LYS E1322      35.962  43.657  -1.082  1.00 49.53 LIG 0.03  C 
BRANCH 11 12
ATOM     12  CE  LYS E1322      34.929  42.555  -0.932  1.00100.00 LIG 0.23  C 
BRANCH 12 13
ATOM     13  NZ  LYS E1322      34.640  41.870  -2.205  1.00 46.56 LIG-0.08  N 
ATOM     14 HZ1  LYS E1322      34.824  42.415  -2.885  1.00 46.56 LIG 0.27  HD
ATOM     15 HZ2  LYS E1322      35.142  41.137  -2.268  1.00 46.56 LIG 0.27  HD
ATOM     16 HZ3  LYS E1322      33.780  41.643  -2.232  1.00 46.56 LIG 0.27  HD
ENDBRANCH 12 13
ENDBRANCH 11 12
ENDBRANCH 10 11
ENDBRANCH 9 10
ENDBRANCH 5 9
ENDBRANCH 3 5
BRANCH 1 17
ATOM     17  CA  VAL E1321      37.819  38.333  -1.283  1.00 34.64 LIG 0.28  C 
BRANCH 17 18
ATOM     18  N   VAL E1321      36.780  37.433  -0.780  1.00 23.60 LIG-0.07  N 
ATOM     19 H1   VAL E1321      36.941  36.605  -1.063  1.00 23.60 LIG 0.28  HD
ATOM     20 H2   VAL E1321      36.780  37.447   0.110  1.00 23.60 LIG 0.28  HD
ATOM     21 H3   VAL E1321      35.985  37.699  -1.080  1.00 23.60 LIG 0.28  HD
ENDBRANCH 17 18
BRANCH 17 22
ATOM     22  CB  VAL E1321      38.490  37.877  -2.556  1.00 31.80 LIG 0.02  C 
ATOM     23  CG1 VAL E1321      39.996  37.632  -2.326  1.00 29.70 LIG 0.01  C 
ATOM     24  CG2 VAL E1321      37.784  36.629  -3.117  1.00 23.28 LIG 0.01  C 
ENDBRANCH 17 22
ENDBRANCH 1 17
TORSDOF 10
ENDMDL
MODEL 38
USER: ADFR SOLUTION from run 120
USER: SCORE 10.350582 LL:  -1.340 LR:  -9.010 RR:   0.000 FEB:  -6.027
USER: RMSD 9.831095
USER: SEED 119
USER: STATUS no improvement in best 16 clusters for 5 generations
USER: GENES 12
USER: genes 0 Translation |==|  0.38330 0.52395 0.29573
USER: genes 1 Rotation |==|  0.57123 0.55481 0.98482 0.58287
USER: genes 2 Torsion [C]-N--CA-[C] |==|  0.18175
USER: genes 3 Torsion [N]-CA--C-[O] |==|  0.08688
USER: genes 4 Torsion [N]-CA--CB-[CG] |==|  0.68923
USER: genes 5 Torsion [CA]-CB--CG-[CD] |==|  0.74304
USER: genes 6 Torsion [CB]-CG--CD-[CE] |==|  0.63247
USER: genes 7 Torsion [CG]-CD--CE-[NZ] |==|  0.60950
USER: genes 8 Torsion [CD]-CE--NZ-[HZ2] |==|  0.73512
USER: genes 9 Torsion [N]-C--CA-[N] |==|  0.96227
USER: genes 10 Torsion [C]-CA--N-[H1] |==|  0.57436
USER: genes 11 Torsion [C]-CA--CB-[CG1] |==|  0.55651
ROOT
ATOM      1  C   VAL E1321      34.029  40.338  -8.708  1.00100.00 LIG 0.25  C 
ATOM      2 O    VAL E1321      32.943  40.312  -8.184  1.00 26.63 LIG-0.27  OA
ATOM      3  N   LYS E1322      34.496  41.411  -9.352  1.00 27.49 LIG-0.34  N 
ATOM      4 H    LYS E1322      35.278  41.462  -9.705  1.00 27.49 LIG 0.16  HD
ENDROOT
BRANCH 3 5
ATOM      5  CA  LYS E1322      33.677  42.618  -9.506  1.00 83.53 LIG 0.18  C 
BRANCH 5 6
ATOM      6  C   LYS E1322      33.332  43.371  -8.191  1.00 46.63 LIG 0.20  C 
ATOM      7 O    LYS E1322      34.155  43.345  -7.224  1.00 43.95 LIG-0.65  OA
ATOM      8 OXT  LYS E1322      32.280  44.091  -8.176  1.00100.00 LIG-0.65  OA
ENDBRANCH 5 6
BRANCH 5 9
ATOM      9  CB  LYS E1322      32.478  42.352 -10.376  1.00 27.11 LIG 0.04  C 
BRANCH 9 10
ATOM     10  CG  LYS E1322      32.494  43.049 -11.716  1.00 36.61 LIG 0.00  C 
BRANCH 10 11
ATOM     11  CD  LYS E1322      31.777  44.389 -11.618  1.00 49.53 LIG 0.03  C 
BRANCH 11 12
ATOM     12  CE  LYS E1322      30.780  44.607 -12.743  1.00100.00 LIG 0.23  C 
BRANCH 12 13
ATOM     13  NZ  LYS E1322      30.780  45.995 -13.240  1.00 46.56 LIG-0.08  N 
ATOM     14 HZ1  LYS E1322      30.635  45.996 -14.118  1.00 46.56 LIG 0.27  HD
ATOM     15 HZ2  LYS E1322      30.137  46.456 -12.832  1.00 46.56 LIG 0.27  HD
ATOM     16 HZ3  LYS E1322      31.569  46.371 -13.069  1.00 46.56 LIG 0.27  HD
ENDBRANCH 12 13
ENDBRANCH 11 12
ENDBRANCH 10 11
ENDBRANCH 9 10
ENDBRANCH 5 9
ENDBRANCH 3 5
BRANCH 1 17
ATOM     17  CA  VAL E1321      34.960  39.161  -8.552  1.00 34.64 LIG 0.28  C 
BRANCH 17 18
ATOM     18  N   VAL E1321      36.147  39.245  -9.405  1.00 23.60 LIG-0.07  N 
ATOM     19 H1   VAL E1321      36.446  38.425  -9.581  1.00 23.60 LIG 0.28  HD
ATOM     20 H2   VAL E1321      35.937  39.653 -10.167  1.00 23.60 LIG 0.28  HD
ATOM     21 H3   VAL E1321      36.782  39.708  -8.987  1.00 23.60 LIG 0.28  HD
ENDBRANCH 17 18
BRANCH 17 22
ATOM     22  CB  VAL E1321      35.250  38.985  -7.080  1.00 31.80 LIG 0.02  C 
ATOM     23  CG1 VAL E1321      36.543  38.170  -6.869  1.00 29.70 LIG 0.01  C 
ATOM     24  CG2 VAL E1321      35.313  40.354  -6.379  1.00 23.28 LIG 0.01  C 
ENDBRANCH 17 22
ENDBRANCH 1 17
TORSDOF 10
ENDMDL
MODEL 39
USER: ADFR SOLUTION from run 116
USER: SCORE 10.256856 LL:  -1.284 LR:  -8.973 RR:   0.000 FEB:  -5.990
USER: RMSD 5.750275
USER: SEED 115
USER: STATUS no improvement in best 18 clusters for 5 generations
USER: GENES 12
USER: genes 0 Translation |==|  0.52215 0.49145 0.49857
USER: genes 1 Rotation |==|  0.88851 0.65294 0.33645 0.72118
USER: genes 2 Torsion [C]-N--CA-[C] |==|  0.77532
USER: genes 3 Torsion [N]-CA--C-[O] |==|  0.03039
USER: genes 4 Torsion [N]-CA--CB-[CG] |==|  0.66700
USER: genes 5 Torsion [CA]-CB--CG-[CD] |==|  0.67350
USER: genes 6 Torsion [CB]-CG--CD-[CE] |==|  0.77877
USER: genes 7 Torsion [CG]-CD--CE-[NZ] |==|  0.20221
USER: genes 8 Torsion [CD]-CE--NZ-[HZ2] |==|  0.38195
USER: genes 9 Torsion [N]-C--CA-[N] |==|  0.02250
USER: genes 10 Torsion [C]-CA--N-[H1] |==|  0.34413
USER: genes 11 Torsion [C]-CA--CB-[CG1] |==|  0.41561
ROOT
ATOM      1  C   VAL E1321      38.195  39.364  -2.623  1.00100.00 LIG 0.25  C 
ATOM      2 O    VAL E1321      39.182  39.238  -3.305  1.00 26.63 LIG-0.27  OA
ATOM      3  N   LYS E1322      37.155  40.119  -2.988  1.00 27.49 LIG-0.34  N 
ATOM      4 H    LYS E1322      36.430  40.197  -2.532  1.00 27.49 LIG 0.16  HD
ENDROOT
BRANCH 3 5
ATOM      5  CA  LYS E1322      37.180  40.891  -4.234  1.00 83.53 LIG 0.18  C 
BRANCH 5 6
ATOM      6  C   LYS E1322      37.938  42.246  -4.172  1.00 46.63 LIG 0.20  C 
ATOM      7 O    LYS E1322      38.655  42.513  -3.159  1.00 43.95 LIG-0.65  OA
ATOM      8 OXT  LYS E1322      37.907  42.993  -5.205  1.00100.00 LIG-0.65  OA
ENDBRANCH 5 6
BRANCH 5 9
ATOM      9  CB  LYS E1322      35.801  41.003  -4.829  1.00 27.11 LIG 0.04  C 
BRANCH 9 10
ATOM     10  CG  LYS E1322      35.655  40.418  -6.213  1.00 36.61 LIG 0.00  C 
BRANCH 10 11
ATOM     11  CD  LYS E1322      35.276  41.508  -7.206  1.00 49.53 LIG 0.03  C 
BRANCH 11 12
ATOM     12  CE  LYS E1322      33.799  41.858  -7.162  1.00100.00 LIG 0.23  C 
BRANCH 12 13
ATOM     13  NZ  LYS E1322      33.431  42.620  -5.955  1.00 46.56 LIG-0.08  N 
ATOM     14 HZ1  LYS E1322      34.165  42.962  -5.584  1.00 46.56 LIG 0.27  HD
ATOM     15 HZ2  LYS E1322      32.877  43.280  -6.177  1.00 46.56 LIG 0.27  HD
ATOM     16 HZ3  LYS E1322      33.030  42.079  -5.373  1.00 46.56 LIG 0.27  HD
ENDBRANCH 12 13
ENDBRANCH 11 12
ENDBRANCH 10 11
ENDBRANCH 9 10
ENDBRANCH 5 9
ENDBRANCH 3 5
BRANCH 1 17
ATOM     17  CA  VAL E1321      38.060  38.561  -1.352  1.00 34.64 LIG 0.28  C 
BRANCH 17 18
ATOM     18  N   VAL E1321      36.708  38.588  -0.791  1.00 23.60 LIG-0.07  N 
ATOM     19 H1   VAL E1321      36.407  37.756  -0.699  1.00 23.60 LIG 0.28  HD
ATOM     20 H2   VAL E1321      36.724  38.986   0.005  1.00 23.60 LIG 0.28  HD
ATOM     21 H3   VAL E1321      36.168  39.039  -1.337  1.00 23.60 LIG 0.28  HD
ENDBRANCH 17 18
BRANCH 17 22
ATOM     22  CB  VAL E1321      38.610  37.179  -1.610  1.00 31.80 LIG 0.02  C 
ATOM     23  CG1 VAL E1321      39.207  36.576  -0.321  1.00 29.70 LIG 0.01  C 
ATOM     24  CG2 VAL E1321      37.523  36.274  -2.219  1.00 23.28 LIG 0.01  C 
ENDBRANCH 17 22
ENDBRANCH 1 17
TORSDOF 10
ENDMDL
MODEL 40
USER: ADFR SOLUTION from run 153
USER: SCORE 10.185422 LL:  -1.226 LR:  -8.959 RR:   0.000 FEB:  -5.976
USER: RMSD 10.604398
USER: SEED 152
USER: STATUS no improvement in best 8 clusters for 5 generations
USER: GENES 12
USER: genes 0 Translation |==|  0.32210 0.65958 0.19927
USER: genes 1 Rotation |==|  0.55450 0.09601 0.57187 0.78045
USER: genes 2 Torsion [C]-N--CA-[C] |==|  0.84351
USER: genes 3 Torsion [N]-CA--C-[O] |==|  0.27943
USER: genes 4 Torsion [N]-CA--CB-[CG] |==|  0.76743
USER: genes 5 Torsion [CA]-CB--CG-[CD] |==|  0.40009
USER: genes 6 Torsion [CB]-CG--CD-[CE] |==|  0.21263
USER: genes 7 Torsion [CG]-CD--CE-[NZ] |==|  0.51844
USER: genes 8 Torsion [CD]-CE--NZ-[HZ2] |==|  0.10696
USER: genes 9 Torsion [N]-C--CA-[N] |==|  0.43953
USER: genes 10 Torsion [C]-CA--N-[H1] |==|  0.40097
USER: genes 11 Torsion [C]-CA--CB-[CG1] |==|  0.40901
ROOT
ATOM      1  C   VAL E1321      32.193  44.407 -11.602  1.00100.00 LIG 0.25  C 
ATOM      2 O    VAL E1321      31.523  44.784 -10.672  1.00 26.63 LIG-0.27  OA
ATOM      3  N   LYS E1322      32.941  43.302 -11.554  1.00 27.49 LIG-0.34  N 
ATOM      4 H    LYS E1322      33.401  43.000 -12.215  1.00 27.49 LIG 0.16  HD
ENDROOT
BRANCH 3 5
ATOM      5  CA  LYS E1322      33.033  42.502 -10.329  1.00 83.53 LIG 0.18  C 
BRANCH 5 6
ATOM      6  C   LYS E1322      33.510  43.262  -9.061  1.00 46.63 LIG 0.20  C 
ATOM      7 O    LYS E1322      32.655  43.644  -8.204  1.00 43.95 LIG-0.65  OA
ATOM      8 OXT  LYS E1322      34.766  43.369  -8.869  1.00100.00 LIG-0.65  OA
ENDBRANCH 5 6
BRANCH 5 9
ATOM      9  CB  LYS E1322      33.781  41.219 -10.575  1.00 27.11 LIG 0.04  C 
BRANCH 9 10
ATOM     10  CG  LYS E1322      32.948  40.093 -11.141  1.00 36.61 LIG 0.00  C 
BRANCH 10 11
ATOM     11  CD  LYS E1322      33.773  39.273 -12.123  1.00 49.53 LIG 0.03  C 
BRANCH 11 12
ATOM     12  CE  LYS E1322      34.752  38.339 -11.435  1.00100.00 LIG 0.23  C 
BRANCH 12 13
ATOM     13  NZ  LYS E1322      35.655  37.663 -12.384  1.00 46.56 LIG-0.08  N 
ATOM     14 HZ1  LYS E1322      35.239  36.962 -12.742  1.00 46.56 LIG 0.27  HD
ATOM     15 HZ2  LYS E1322      35.888  38.231 -13.029  1.00 46.56 LIG 0.27  HD
ATOM     16 HZ3  LYS E1322      36.385  37.387 -11.955  1.00 46.56 LIG 0.27  HD
ENDBRANCH 12 13
ENDBRANCH 11 12
ENDBRANCH 10 11
ENDBRANCH 9 10
ENDBRANCH 5 9
ENDBRANCH 3 5
BRANCH 1 17
ATOM     17  CA  VAL E1321      32.115  45.139 -12.920  1.00 34.64 LIG 0.28  C 
BRANCH 17 18
ATOM     18  N   VAL E1321      30.933  45.995 -13.038  1.00 23.60 LIG-0.07  N 
ATOM     19 H1   VAL E1321      31.143  46.730 -13.494  1.00 23.60 LIG 0.28  HD
ATOM     20 H2   VAL E1321      30.289  45.555 -13.465  1.00 23.60 LIG 0.28  HD
ATOM     21 H3   VAL E1321      30.649  46.222 -12.225  1.00 23.60 LIG 0.28  HD
ENDBRANCH 17 18
BRANCH 17 22
ATOM     22  CB  VAL E1321      33.432  45.843 -13.143  1.00 31.80 LIG 0.02  C 
ATOM     23  CG1 VAL E1321      33.775  45.901 -14.647  1.00 29.70 LIG 0.01  C 
ATOM     24  CG2 VAL E1321      33.406  47.244 -12.505  1.00 23.28 LIG 0.01  C 
ENDBRANCH 17 22
ENDBRANCH 1 17
TORSDOF 10
ENDMDL
MODEL 41
USER: ADFR SOLUTION from run 84
USER: SCORE 10.202431 LL:  -1.253 LR:  -8.949 RR:   0.000 FEB:  -5.966
USER: RMSD 4.711161
USER: SEED 83
USER: STATUS no improvement in best 23 clusters for 5 generations
USER: GENES 12
USER: genes 0 Translation |==|  0.45972 0.54118 0.38610
USER: genes 1 Rotation |==|  0.15685 0.27936 0.66118 0.73998
USER: genes 2 Torsion [C]-N--CA-[C] |==|  0.83552
USER: genes 3 Torsion [N]-CA--C-[O] |==|  0.81662
USER: genes 4 Torsion [N]-CA--CB-[CG] |==|  0.37478
USER: genes 5 Torsion [CA]-CB--CG-[CD] |==|  0.59608
USER: genes 6 Torsion [CB]-CG--CD-[CE] |==|  0.20786
USER: genes 7 Torsion [CG]-CD--CE-[NZ] |==|  0.65873
USER: genes 8 Torsion [CD]-CE--NZ-[HZ2] |==|  0.12161
USER: genes 9 Torsion [N]-C--CA-[N] |==|  0.47066
USER: genes 10 Torsion [C]-CA--N-[H1] |==|  0.53836
USER: genes 11 Torsion [C]-CA--CB-[CG1] |==|  0.60721
ROOT
ATOM      1  C   VAL E1321      36.322  40.855  -5.997  1.00100.00 LIG 0.25  C 
ATOM      2 O    VAL E1321      36.779  41.844  -6.515  1.00 26.63 LIG-0.27  OA
ATOM      3  N   LYS E1322      36.101  40.763  -4.683  1.00 27.49 LIG-0.34  N 
ATOM      4 H    LYS E1322      35.748  40.080  -4.299  1.00 27.49 LIG 0.16  HD
ENDROOT
BRANCH 3 5
ATOM      5  CA  LYS E1322      36.458  41.858  -3.776  1.00 83.53 LIG 0.18  C 
BRANCH 5 6
ATOM      6  C   LYS E1322      37.958  42.263  -3.765  1.00 46.63 LIG 0.20  C 
ATOM      7 O    LYS E1322      38.822  41.440  -3.330  1.00 43.95 LIG-0.65  OA
ATOM      8 OXT  LYS E1322      38.280  43.370  -4.310  1.00100.00 LIG-0.65  OA
ENDBRANCH 5 6
BRANCH 5 9
ATOM      9  CB  LYS E1322      35.889  41.630  -2.401  1.00 27.11 LIG 0.04  C 
BRANCH 9 10
ATOM     10  CG  LYS E1322      36.848  41.889  -1.263  1.00 36.61 LIG 0.00  C 
BRANCH 10 11
ATOM     11  CD  LYS E1322      36.586  40.914  -0.123  1.00 49.53 LIG 0.03  C 
BRANCH 11 12
ATOM     12  CE  LYS E1322      37.092  39.513  -0.417  1.00100.00 LIG 0.23  C 
BRANCH 12 13
ATOM     13  NZ  LYS E1322      36.030  38.495  -0.330  1.00 46.56 LIG-0.08  N 
ATOM     14 HZ1  LYS E1322      35.850  38.326   0.526  1.00 46.56 LIG 0.27  HD
ATOM     15 HZ2  LYS E1322      35.296  38.796  -0.733  1.00 46.56 LIG 0.27  HD
ATOM     16 HZ3  LYS E1322      36.302  37.747  -0.729  1.00 46.56 LIG 0.27  HD
ENDBRANCH 12 13
ENDBRANCH 11 12
ENDBRANCH 10 11
ENDBRANCH 9 10
ENDBRANCH 5 9
ENDBRANCH 3 5
BRANCH 1 17
ATOM     17  CA  VAL E1321      35.873  39.702  -6.861  1.00 34.64 LIG 0.28  C 
BRANCH 17 18
ATOM     18  N   VAL E1321      35.932  39.996  -8.294  1.00 23.60 LIG-0.07  N 
ATOM     19 H1   VAL E1321      35.478  39.376  -8.744  1.00 23.60 LIG 0.28  HD
ATOM     20 H2   VAL E1321      35.573  40.795  -8.449  1.00 23.60 LIG 0.28  HD
ATOM     21 H3   VAL E1321      36.780  39.995  -8.563  1.00 23.60 LIG 0.28  HD
ENDBRANCH 17 18
BRANCH 17 22
ATOM     22  CB  VAL E1321      36.639  38.472  -6.435  1.00 31.80 LIG 0.02  C 
ATOM     23  CG1 VAL E1321      37.024  37.614  -7.659  1.00 29.70 LIG 0.01  C 
ATOM     24  CG2 VAL E1321      37.871  38.869  -5.602  1.00 23.28 LIG 0.01  C 
ENDBRANCH 17 22
ENDBRANCH 1 17
TORSDOF 10
ENDMDL
MODEL 42
USER: ADFR SOLUTION from run 1
USER: SCORE 10.378018 LL:  -1.447 LR:  -8.931 RR:   0.000 FEB:  -5.948
USER: RMSD 7.974228
USER: SEED 215595
USER: STATUS no improvement in best 14 clusters for 5 generations
USER: GENES 12
USER: genes 0 Translation |==|  0.34210 0.53778 0.28217
USER: genes 1 Rotation |==|  0.18753 0.52923 0.62516 0.86857
USER: genes 2 Torsion [C]-N--CA-[C] |==|  0.19773
USER: genes 3 Torsion [N]-CA--C-[O] |==|  0.97762
USER: genes 4 Torsion [N]-CA--CB-[CG] |==|  0.73861
USER: genes 5 Torsion [CA]-CB--CG-[CD] |==|  0.59470
USER: genes 6 Torsion [CB]-CG--CD-[CE] |==|  0.82764
USER: genes 7 Torsion [CG]-CD--CE-[NZ] |==|  0.45695
USER: genes 8 Torsion [CD]-CE--NZ-[HZ2] |==|  0.84132
USER: genes 9 Torsion [N]-C--CA-[N] |==|  0.46119
USER: genes 10 Torsion [C]-CA--N-[H1] |==|  0.84849
USER: genes 11 Torsion [C]-CA--CB-[CG1] |==|  0.55644
ROOT
ATOM      1  C   VAL E1321      32.793  40.753  -9.115  1.00100.00 LIG 0.25  C 
ATOM      2 O    VAL E1321      33.503  41.262  -9.947  1.00 26.63 LIG-0.27  OA
ATOM      3  N   LYS E1322      33.255  40.309  -7.943  1.00 27.49 LIG-0.34  N 
ATOM      4 H    LYS E1322      32.761  39.972  -7.325  1.00 27.49 LIG 0.16  HD
ENDROOT
BRANCH 3 5
ATOM      5  CA  LYS E1322      34.684  40.367  -7.621  1.00 83.53 LIG 0.18  C 
BRANCH 5 6
ATOM      6  C   LYS E1322      35.257  41.786  -7.352  1.00 46.63 LIG 0.20  C 
ATOM      7 O    LYS E1322      34.530  42.804  -7.570  1.00 43.95 LIG-0.65  OA
ATOM      8 OXT  LYS E1322      36.405  41.870  -6.803  1.00100.00 LIG-0.65  OA
ENDBRANCH 5 6
BRANCH 5 9
ATOM      9  CB  LYS E1322      35.495  39.572  -8.609  1.00 27.11 LIG 0.04  C 
BRANCH 9 10
ATOM     10  CG  LYS E1322      35.789  38.149  -8.194  1.00 36.61 LIG 0.00  C 
BRANCH 10 11
ATOM     11  CD  LYS E1322      37.161  37.728  -8.701  1.00 49.53 LIG 0.03  C 
BRANCH 11 12
ATOM     12  CE  LYS E1322      37.261  37.744 -10.216  1.00100.00 LIG 0.23  C 
BRANCH 12 13
ATOM     13  NZ  LYS E1322      38.655  37.697 -10.694  1.00 46.56 LIG-0.08  N 
ATOM     14 HZ1  LYS E1322      38.667  37.750 -11.582  1.00 46.56 LIG 0.27  HD
ATOM     15 HZ2  LYS E1322      39.110  38.380 -10.350  1.00 46.56 LIG 0.27  HD
ATOM     16 HZ3  LYS E1322      39.031  36.932 -10.438  1.00 46.56 LIG 0.27  HD
ENDBRANCH 12 13
ENDBRANCH 11 12
ENDBRANCH 10 11
ENDBRANCH 9 10
ENDBRANCH 5 9
ENDBRANCH 3 5
BRANCH 1 17
ATOM     17  CA  VAL E1321      31.301  40.703  -9.339  1.00 34.64 LIG 0.28  C 
BRANCH 17 18
ATOM     18  N   VAL E1321      30.863  41.495 -10.490  1.00 23.60 LIG-0.07  N 
ATOM     19 H1   VAL E1321      31.155  42.331 -10.405  1.00 23.60 LIG 0.28  HD
ATOM     20 H2   VAL E1321      31.192  41.141 -11.237  1.00 23.60 LIG 0.28  HD
ATOM     21 H3   VAL E1321      29.973  41.495 -10.530  1.00 23.60 LIG 0.28  HD
ENDBRANCH 17 18
BRANCH 17 22
ATOM     22  CB  VAL E1321      30.881  39.254  -9.371  1.00 31.80 LIG 0.02  C 
ATOM     23  CG1 VAL E1321      29.519  39.093 -10.080  1.00 29.70 LIG 0.01  C 
ATOM     24  CG2 VAL E1321      31.975  38.392 -10.027  1.00 23.28 LIG 0.01  C 
ENDBRANCH 17 22
ENDBRANCH 1 17
TORSDOF 10
ENDMDL
MODEL 43
USER: ADFR SOLUTION from run 29
USER: SCORE 9.853615 LL:  -0.950 LR:  -8.903 RR:   0.000 FEB:  -5.920
USER: RMSD 6.495565
USER: SEED 28
USER: STATUS no improvement in best 9 clusters for 5 generations
USER: GENES 12
USER: genes 0 Translation |==|  0.45491 0.57086 0.46562
USER: genes 1 Rotation |==|  0.71704 0.53313 0.20011 0.83446
USER: genes 2 Torsion [C]-N--CA-[C] |==|  0.90405
USER: genes 3 Torsion [N]-CA--C-[O] |==|  0.34748
USER: genes 4 Torsion [N]-CA--CB-[CG] |==|  0.43266
USER: genes 5 Torsion [CA]-CB--CG-[CD] |==|  0.45528
USER: genes 6 Torsion [CB]-CG--CD-[CE] |==|  0.35219
USER: genes 7 Torsion [CG]-CD--CE-[NZ] |==|  0.43829
USER: genes 8 Torsion [CD]-CE--NZ-[HZ2] |==|  0.53616
USER: genes 9 Torsion [N]-C--CA-[N] |==|  0.92723
USER: genes 10 Torsion [C]-CA--N-[H1] |==|  0.31505
USER: genes 11 Torsion [C]-CA--CB-[CG1] |==|  0.38576
ROOT
ATOM      1  C   VAL E1321      36.177  41.746  -3.611  1.00100.00 LIG 0.25  C 
ATOM      2 O    VAL E1321      36.822  40.785  -3.953  1.00 26.63 LIG-0.27  OA
ATOM      3  N   LYS E1322      35.134  42.202  -4.309  1.00 27.49 LIG-0.34  N 
ATOM      4 H    LYS E1322      34.643  42.865  -4.067  1.00 27.49 LIG 0.16  HD
ENDROOT
BRANCH 3 5
ATOM      5  CA  LYS E1322      34.741  41.581  -5.578  1.00 83.53 LIG 0.18  C 
BRANCH 5 6
ATOM      6  C   LYS E1322      35.905  41.038  -6.452  1.00 46.63 LIG 0.20  C 
ATOM      7 O    LYS E1322      35.889  39.826  -6.828  1.00 43.95 LIG-0.65  OA
ATOM      8 OXT  LYS E1322      36.780  41.870  -6.861  1.00100.00 LIG-0.65  OA
ENDBRANCH 5 6
BRANCH 5 9
ATOM      9  CB  LYS E1322      33.782  42.460  -6.337  1.00 27.11 LIG 0.04  C 
BRANCH 9 10
ATOM     10  CG  LYS E1322      33.757  42.235  -7.830  1.00 36.61 LIG 0.00  C 
BRANCH 10 11
ATOM     11  CD  LYS E1322      32.509  42.865  -8.434  1.00 49.53 LIG 0.03  C 
BRANCH 11 12
ATOM     12  CE  LYS E1322      32.821  43.809  -9.582  1.00100.00 LIG 0.23  C 
BRANCH 12 13
ATOM     13  NZ  LYS E1322      31.671  44.006 -10.483  1.00 46.56 LIG-0.08  N 
ATOM     14 HZ1  LYS E1322      31.062  44.516 -10.081  1.00 46.56 LIG 0.27  HD
ATOM     15 HZ2  LYS E1322      31.944  44.404 -11.231  1.00 46.56 LIG 0.27  HD
ATOM     16 HZ3  LYS E1322      31.311  43.216 -10.683  1.00 46.56 LIG 0.27  HD
ENDBRANCH 12 13
ENDBRANCH 11 12
ENDBRANCH 10 11
ENDBRANCH 9 10
ENDBRANCH 5 9
ENDBRANCH 3 5
BRANCH 1 17
ATOM     17  CA  VAL E1321      36.476  42.412  -2.290  1.00 34.64 LIG 0.28  C 
BRANCH 17 18
ATOM     18  N   VAL E1321      36.006  43.797  -2.221  1.00 23.60 LIG-0.07  N 
ATOM     19 H1   VAL E1321      35.352  43.860  -1.621  1.00 23.60 LIG 0.28  HD
ATOM     20 H2   VAL E1321      36.679  44.327  -1.982  1.00 23.60 LIG 0.28  HD
ATOM     21 H3   VAL E1321      35.701  44.047  -3.019  1.00 23.60 LIG 0.28  HD
ENDBRANCH 17 18
BRANCH 17 22
ATOM     22  CB  VAL E1321      35.966  41.515  -1.188  1.00 31.80 LIG 0.02  C 
ATOM     23  CG1 VAL E1321      36.967  41.465  -0.014  1.00 29.70 LIG 0.01  C 
ATOM     24  CG2 VAL E1321      34.567  41.969  -0.731  1.00 23.28 LIG 0.01  C 
ENDBRANCH 17 22
ENDBRANCH 1 17
TORSDOF 10
ENDMDL
MODEL 44
USER: ADFR SOLUTION from run 13
USER: SCORE 10.268026 LL:  -1.376 LR:  -8.892 RR:   0.000 FEB:  -5.909
USER: RMSD 10.126721
USER: SEED 869710
USER: STATUS no improvement in best 18 clusters for 5 generations
USER: GENES 12
USER: genes 0 Translation |==|  0.32042 0.65828 0.19944
USER: genes 1 Rotation |==|  0.27234 0.46637 0.50150 0.94389
USER: genes 2 Torsion [C]-N--CA-[C] |==|  0.73193
USER: genes 3 Torsion [N]-CA--C-[O] |==|  0.58053
USER: genes 4 Torsion [N]-CA--CB-[CG] |==|  0.61633
USER: genes 5 Torsion [CA]-CB--CG-[CD] |==|  0.74176
USER: genes 6 Torsion [CB]-CG--CD-[CE] |==|  0.60602
USER: genes 7 Torsion [CG]-CD--CE-[NZ] |==|  0.05844
USER: genes 8 Torsion [CD]-CE--NZ-[HZ2] |==|  0.85599
USER: genes 9 Torsion [N]-C--CA-[N] |==|  0.42749
USER: genes 10 Torsion [C]-CA--N-[H1] |==|  0.58158
USER: genes 11 Torsion [C]-CA--CB-[CG1] |==|  0.19829
ROOT
ATOM      1  C   VAL E1321      32.143  44.368 -11.597  1.00100.00 LIG 0.25  C 
ATOM      2 O    VAL E1321      33.241  44.838 -11.770  1.00 26.63 LIG-0.27  OA
ATOM      3  N   LYS E1322      31.908  43.374 -10.737  1.00 27.49 LIG-0.34  N 
ATOM      4 H    LYS E1322      31.129  43.046 -10.576  1.00 27.49 LIG 0.16  HD
ENDROOT
BRANCH 3 5
ATOM      5  CA  LYS E1322      33.001  42.753  -9.981  1.00 83.53 LIG 0.18  C 
BRANCH 5 6
ATOM      6  C   LYS E1322      33.579  41.443 -10.585  1.00 46.63 LIG 0.20  C 
ATOM      7 O    LYS E1322      34.080  40.569  -9.813  1.00 43.95 LIG-0.65  OA
ATOM      8 OXT  LYS E1322      33.417  41.242 -11.834  1.00100.00 LIG-0.65  OA
ENDBRANCH 5 6
BRANCH 5 9
ATOM      9  CB  LYS E1322      32.650  42.635  -8.521  1.00 27.11 LIG 0.04  C 
BRANCH 9 10
ATOM     10  CG  LYS E1322      33.770  42.978  -7.567  1.00 36.61 LIG 0.00  C 
BRANCH 10 11
ATOM     11  CD  LYS E1322      34.538  41.719  -7.187  1.00 49.53 LIG 0.03  C 
BRANCH 11 12
ATOM     12  CE  LYS E1322      34.968  41.708  -5.730  1.00100.00 LIG 0.23  C 
BRANCH 12 13
ATOM     13  NZ  LYS E1322      34.166  42.620  -4.895  1.00 46.56 LIG-0.08  N 
ATOM     14 HZ1  LYS E1322      34.525  42.671  -4.081  1.00 46.56 LIG 0.27  HD
ATOM     15 HZ2  LYS E1322      34.155  43.429  -5.265  1.00 46.56 LIG 0.27  HD
ATOM     16 HZ3  LYS E1322      33.334  42.311  -4.833  1.00 46.56 LIG 0.27  HD
ENDBRANCH 12 13
ENDBRANCH 11 12
ENDBRANCH 10 11
ENDBRANCH 9 10
ENDBRANCH 5 9
ENDBRANCH 3 5
BRANCH 1 17
ATOM     17  CA  VAL E1321      30.952  44.984 -12.291  1.00 34.64 LIG 0.28  C 
BRANCH 17 18
ATOM     18  N   VAL E1321      31.177  46.370 -12.705  1.00 23.60 LIG-0.07  N 
ATOM     19 H1   VAL E1321      30.404  46.810 -12.704  1.00 23.60 LIG 0.28  HD
ATOM     20 H2   VAL E1321      31.742  46.761 -12.140  1.00 23.60 LIG 0.28  HD
ATOM     21 H3   VAL E1321      31.523  46.383 -13.525  1.00 23.60 LIG 0.28  HD
ENDBRANCH 17 18
BRANCH 17 22
ATOM     22  CB  VAL E1321      30.523  44.053 -13.400  1.00 31.80 LIG 0.02  C 
ATOM     23  CG1 VAL E1321      29.869  42.779 -12.825  1.00 29.70 LIG 0.01  C 
ATOM     24  CG2 VAL E1321      29.591  44.785 -14.384  1.00 23.28 LIG 0.01  C 
ENDBRANCH 17 22
ENDBRANCH 1 17
TORSDOF 10
ENDMDL
MODEL 45
USER: ADFR SOLUTION from run 71
USER: SCORE 11.452410 LL:  -2.569 LR:  -8.884 RR:   0.000 FEB:  -5.901
USER: RMSD 2.921085
USER: SEED 70
USER: STATUS no improvement in best 19 clusters for 5 generations
USER: GENES 12
USER: genes 0 Translation |==|  0.48173 0.56830 0.44316
USER: genes 1 Rotation |==|  0.42295 0.73197 0.56215 0.93173
USER: genes 2 Torsion [C]-N--CA-[C] |==|  0.73614
USER: genes 3 Torsion [N]-CA--C-[O] |==|  0.56283
USER: genes 4 Torsion [N]-CA--CB-[CG] |==|  0.60866
USER: genes 5 Torsion [CA]-CB--CG-[CD] |==|  0.69553
USER: genes 6 Torsion [CB]-CG--CD-[CE] |==|  0.36363
USER: genes 7 Torsion [CG]-CD--CE-[NZ] |==|  0.74413
USER: genes 8 Torsion [CD]-CE--NZ-[HZ2] |==|  0.65441
USER: genes 9 Torsion [N]-C--CA-[N] |==|  0.86021
USER: genes 10 Torsion [C]-CA--N-[H1] |==|  0.52570
USER: genes 11 Torsion [C]-CA--CB-[CG1] |==|  0.36789
ROOT
ATOM      1  C   VAL E1321      36.982  41.669  -4.285  1.00100.00 LIG 0.25  C 
ATOM      2 O    VAL E1321      37.515  42.242  -5.203  1.00 26.63 LIG-0.27  OA
ATOM      3  N   LYS E1322      37.124  40.359  -4.070  1.00 27.49 LIG-0.34  N 
ATOM      4 H    LYS E1322      36.778  39.937  -3.405  1.00 27.49 LIG 0.16  HD
ENDROOT
BRANCH 3 5
ATOM      5  CA  LYS E1322      37.907  39.521  -4.984  1.00 83.53 LIG 0.18  C 
BRANCH 5 6
ATOM      6  C   LYS E1322      37.096  38.790  -6.090  1.00 46.63 LIG 0.20  C 
ATOM      7 O    LYS E1322      37.578  37.748  -6.631  1.00 43.95 LIG-0.65  OA
ATOM      8 OXT  LYS E1322      35.912  39.200  -6.329  1.00100.00 LIG-0.65  OA
ENDBRANCH 5 6
BRANCH 5 9
ATOM      9  CB  LYS E1322      38.837  38.613  -4.225  1.00 27.11 LIG 0.04  C 
BRANCH 9 10
ATOM     10  CG  LYS E1322      40.200  38.431  -4.848  1.00 36.61 LIG 0.00  C 
BRANCH 10 11
ATOM     11  CD  LYS E1322      40.339  37.020  -5.403  1.00 49.53 LIG 0.03  C 
BRANCH 11 12
ATOM     12  CE  LYS E1322      40.862  36.995  -6.829  1.00100.00 LIG 0.23  C 
BRANCH 12 13
ATOM     13  NZ  LYS E1322      39.780  36.995  -7.830  1.00 46.56 LIG-0.08  N 
ATOM     14 HZ1  LYS E1322      39.817  37.745  -8.308  1.00 46.56 LIG 0.27  HD
ATOM     15 HZ2  LYS E1322      39.876  36.294  -8.371  1.00 46.56 LIG 0.27  HD
ATOM     16 HZ3  LYS E1322      38.993  36.944  -7.417  1.00 46.56 LIG 0.27  HD
ENDBRANCH 12 13
ENDBRANCH 11 12
ENDBRANCH 10 11
ENDBRANCH 9 10
ENDBRANCH 5 9
ENDBRANCH 3 5
BRANCH 1 17
ATOM     17  CA  VAL E1321      36.204  42.462  -3.263  1.00 34.64 LIG 0.28  C 
BRANCH 17 18
ATOM     18  N   VAL E1321      34.906  41.870  -2.938  1.00 23.60 LIG-0.07  N 
ATOM     19 H1   VAL E1321      34.436  42.438  -2.440  1.00 23.60 LIG 0.28  HD
ATOM     20 H2   VAL E1321      34.461  41.698  -3.689  1.00 23.60 LIG 0.28  HD
ATOM     21 H3   VAL E1321      35.029  41.113  -2.486  1.00 23.60 LIG 0.28  HD
ENDBRANCH 17 18
BRANCH 17 22
ATOM     22  CB  VAL E1321      37.104  42.705  -2.076  1.00 31.80 LIG 0.02  C 
ATOM     23  CG1 VAL E1321      37.055  44.186  -1.644  1.00 29.70 LIG 0.01  C 
ATOM     24  CG2 VAL E1321      36.735  41.758  -0.920  1.00 23.28 LIG 0.01  C 
ENDBRANCH 17 22
ENDBRANCH 1 17
TORSDOF 10
ENDMDL
MODEL 46
USER: ADFR SOLUTION from run 124
USER: SCORE 10.434497 LL:  -1.605 LR:  -8.829 RR:   0.000 FEB:  -5.846
USER: RMSD 5.528088
USER: SEED 123
USER: STATUS no improvement in best 16 clusters for 5 generations
USER: GENES 12
USER: genes 0 Translation |==|  0.50057 0.47622 0.40499
USER: genes 1 Rotation |==|  0.44186 0.26172 0.91816 0.62243
USER: genes 2 Torsion [C]-N--CA-[C] |==|  0.76534
USER: genes 3 Torsion [N]-CA--C-[O] |==|  0.17504
USER: genes 4 Torsion [N]-CA--CB-[CG] |==|  0.74499
USER: genes 5 Torsion [CA]-CB--CG-[CD] |==|  0.72111
USER: genes 6 Torsion [CB]-CG--CD-[CE] |==|  0.09628
USER: genes 7 Torsion [CG]-CD--CE-[NZ] |==|  0.19374
USER: genes 8 Torsion [CD]-CE--NZ-[HZ2] |==|  0.17290
USER: genes 9 Torsion [N]-C--CA-[N] |==|  0.18220
USER: genes 10 Torsion [C]-CA--N-[H1] |==|  0.17944
USER: genes 11 Torsion [C]-CA--CB-[CG1] |==|  0.39612
ROOT
ATOM      1  C   VAL E1321      37.547  38.907  -5.430  1.00100.00 LIG 0.25  C 
ATOM      2 O    VAL E1321      36.405  39.168  -5.718  1.00 26.63 LIG-0.27  OA
ATOM      3  N   LYS E1322      38.221  39.560  -4.480  1.00 27.49 LIG-0.34  N 
ATOM      4 H    LYS E1322      39.024  39.369  -4.239  1.00 27.49 LIG 0.16  HD
ENDROOT
BRANCH 3 5
ATOM      5  CA  LYS E1322      37.616  40.685  -3.759  1.00 83.53 LIG 0.18  C 
BRANCH 5 6
ATOM      6  C   LYS E1322      37.723  42.068  -4.458  1.00 46.63 LIG 0.20  C 
ATOM      7 O    LYS E1322      37.155  42.245  -5.580  1.00 43.95 LIG-0.65  OA
ATOM      8 OXT  LYS E1322      38.280  43.018  -3.816  1.00100.00 LIG-0.65  OA
ENDBRANCH 5 6
BRANCH 5 9
ATOM      9  CB  LYS E1322      38.058  40.705  -2.320  1.00 27.11 LIG 0.04  C 
BRANCH 9 10
ATOM     10  CG  LYS E1322      37.155  39.959  -1.366  1.00 36.61 LIG 0.00  C 
BRANCH 10 11
ATOM     11  CD  LYS E1322      36.252  40.937  -0.626  1.00 49.53 LIG 0.03  C 
BRANCH 11 12
ATOM     12  CE  LYS E1322      35.837  42.121  -1.483  1.00100.00 LIG 0.23  C 
BRANCH 12 13
ATOM     13  NZ  LYS E1322      34.905  41.743  -2.560  1.00 46.56 LIG-0.08  N 
ATOM     14 HZ1  LYS E1322      35.281  41.120  -3.074  1.00 46.56 LIG 0.27  HD
ATOM     15 HZ2  LYS E1322      34.155  41.421  -2.205  1.00 46.56 LIG 0.27  HD
ATOM     16 HZ3  LYS E1322      34.715  42.459  -3.054  1.00 46.56 LIG 0.27  HD
ENDBRANCH 12 13
ENDBRANCH 11 12
ENDBRANCH 10 11
ENDBRANCH 9 10
ENDBRANCH 5 9
ENDBRANCH 3 5
BRANCH 1 17
ATOM     17  CA  VAL E1321      38.228  37.728  -6.082  1.00 34.64 LIG 0.28  C 
BRANCH 17 18
ATOM     18  N   VAL E1321      38.460  36.613  -5.162  1.00 23.60 LIG-0.07  N 
ATOM     19 H1   VAL E1321      37.679  36.284  -4.890  1.00 23.60 LIG 0.28  HD
ATOM     20 H2   VAL E1321      38.921  35.975  -5.578  1.00 23.60 LIG 0.28  HD
ATOM     21 H3   VAL E1321      38.922  36.900  -4.457  1.00 23.60 LIG 0.28  HD
ENDBRANCH 17 18
BRANCH 17 22
ATOM     22  CB  VAL E1321      37.455  37.369  -7.328  1.00 31.80 LIG 0.02  C 
ATOM     23  CG1 VAL E1321      38.409  36.934  -8.460  1.00 29.70 LIG 0.01  C 
ATOM     24  CG2 VAL E1321      36.403  36.289  -7.014  1.00 23.28 LIG 0.01  C 
ENDBRANCH 17 22
ENDBRANCH 1 17
TORSDOF 10
ENDMDL
