MODEL 1
USER: ADFR SOLUTION from run 105
USER: SCORE 16.872934 LL:  -3.430 LR: -15.952 RR:   0.000 FEB: -10.284
USER: RMSD 8.204209
USER: SEED 104
USER: STATUS no improvement in best 3 clusters for 5 generations
USER: GENES 21
USER: genes 0 Translation |==|  0.51397 0.58014 0.50778
USER: genes 1 Rotation |==|  0.60784 0.80464 0.80987 0.72260
USER: genes 2 Torsion [N]-C--CA-[N] |==|  0.81939
USER: genes 3 Torsion [C]-CA--CB-[CG] |==|  0.34046
USER: genes 4 Torsion [CA]-CB--CG-[CD1] |==|  0.68967
USER: genes 5 Torsion [C]-CA--N-[C] |==|  0.59718
USER: genes 6 Torsion [N]-C--CA-[N] |==|  0.76111
USER: genes 7 Torsion [C]-CA--N-[C] |==|  0.66148
USER: genes 8 Torsion [N]-C--CA-[N] |==|  0.54647
USER: genes 9 Torsion [C]-CA--CB-[CG1] |==|  0.48183
USER: genes 10 Torsion [C]-CA--N-[H3] |==|  0.22646
USER: genes 11 Torsion [C]-N--CA-[CB] |==|  0.38463
USER: genes 12 Torsion [N]-CA--CB-[CG] |==|  0.44762
USER: genes 13 Torsion [CA]-CB--CG-[CD] |==|  0.49997
USER: genes 14 Torsion [CB]-CG--CD-[NE] |==|  0.12244
USER: genes 15 Torsion [CG]-CD--NE-[HE] |==|  0.77248
USER: genes 16 Torsion [N]-CA--C-[N] |==|  0.91483
USER: genes 17 Torsion [C]-N--CA-[CB] |==|  0.24458
USER: genes 18 Torsion [N]-CA--CB-[OG] |==|  0.08991
USER: genes 19 Torsion [CA]-CB--OG-[HG] |==|  0.01211
USER: genes 20 Torsion [N]-CA--C-[O] |==|  0.93398
ROOT
ATOM      1  C   PHE B   3      12.999  15.844   4.474  0.50 54.14 LIG 0.24  C 
ATOM      2 O    PHE B   3      12.355  16.451   5.339  0.50 54.24 LIG-0.27  OA
ATOM      3  N   ARG B   4      13.223  14.519   4.473  0.50 53.92 LIG-0.35  N 
ATOM      4 H    ARG B   4      13.701  14.150   3.861  0.50 53.92 LIG 0.16  HD
ENDROOT
BRANCH 1 5
ATOM      5  CA  PHE B   3      13.814  16.559   3.377  0.50 54.27 LIG 0.18  C 
BRANCH 5 6
ATOM      6  CB  PHE B   3      13.280  15.658   2.258  0.50 54.22 LIG 0.07  C 
BRANCH 6 7
ATOM      7  CG  PHE B   3      12.580  16.303   1.098  0.50 54.33 LIG-0.06  A 
ATOM      8  CD1 PHE B   3      11.230  16.177   0.826  0.50 54.51 LIG 0.01  A 
ATOM      9  CE1 PHE B   3      10.670  16.893  -0.246  0.50 54.50 LIG 0.00  A 
ATOM     10  CZ  PHE B   3      11.463  17.747  -1.009  0.50 54.39 LIG 0.00  A 
ATOM     11  CE2 PHE B   3      12.793  17.887  -0.710  0.50 54.37 LIG 0.00  A 
ATOM     12  CD2 PHE B   3      13.333  17.183   0.332  0.50 54.38 LIG 0.01  A 
ENDBRANCH 6 7
ENDBRANCH 5 6
BRANCH 5 13
ATOM     13  N   PHE B   3      15.311  16.532   3.516  0.50 54.44 LIG-0.35  N 
ATOM     14  C   ALA B   2      16.091  17.565   3.141  0.50 54.50 LIG 0.24  C 
ATOM     15 O    ALA B   2      15.703  18.672   2.903  0.50 54.60 LIG-0.27  OA
ATOM     16 H    PHE B   3      15.618  15.804   3.853  0.50 54.44 LIG 0.16  HD
BRANCH 14 17
ATOM     17  CA  ALA B   2      17.664  17.493   3.290  0.50 54.51 LIG 0.17  C 
ATOM     18  CB  ALA B   2      18.220  16.167   2.744  0.50 54.51 LIG 0.04  C 
BRANCH 17 19
ATOM     19  N   ALA B   2      18.307  17.875   4.581  0.50 54.51 LIG-0.35  N 
ATOM     20  C   VAL B   1      19.229  18.849   4.680  0.50 54.58 LIG 0.25  C 
ATOM     21 O    VAL B   1      19.756  19.370   3.691  0.50 54.60 LIG-0.27  OA
ATOM     22 H    ALA B   2      18.034  17.414   5.253  0.50 54.51 LIG 0.16  HD
BRANCH 20 23
ATOM     23  CA  VAL B   1      19.680  19.244   6.117  0.50 54.68 LIG 0.28  C 
BRANCH 23 24
ATOM     24  CB  VAL B   1      18.548  19.198   7.226  0.50 54.64 LIG 0.02  C 
ATOM     25  CG1 VAL B   1      19.128  19.444   8.610  0.50 54.60 LIG 0.01  C 
ATOM     26  CG2 VAL B   1      17.454  20.190   6.975  0.50 55.61 LIG 0.01  C 
ENDBRANCH 23 24
BRANCH 23 27
ATOM     27  N   VAL B   1      20.370  20.564   6.114  0.50 54.62 LIG-0.07  N 
ATOM     28 H1   VAL B   1      20.881  20.634   6.840  0.50 54.62 LIG 0.28  HD
ATOM     29 H2   VAL B   1      20.878  20.632   5.387  0.50 54.62 LIG 0.28  HD
ATOM     30 H3   VAL B   1      19.765  21.216   6.115  0.50 54.62 LIG 0.28  HD
ENDBRANCH 23 27
ENDBRANCH 20 23
ENDBRANCH 17 19
ENDBRANCH 14 17
ENDBRANCH 5 13
ENDBRANCH 1 5
BRANCH 3 31
ATOM     31  CA  ARG B   4      12.729  13.535   5.444  0.50 53.70 LIG 0.18  C 
BRANCH 31 32
ATOM     32  CB  ARG B   4      12.274  12.277   4.740  0.50 53.42 LIG 0.04  C 
BRANCH 32 33
ATOM     33  CG  ARG B   4      12.181  11.105   5.617  0.50 52.08 LIG 0.02  C 
BRANCH 33 34
ATOM     34  CD  ARG B   4      11.736  10.012   4.773  0.50 49.49 LIG 0.14  C 
BRANCH 34 35
ATOM     35  NE  ARG B   4      12.373   9.899   3.490  0.50 47.76 LIG-0.23  N 
ATOM     36 HE   ARG B   4      12.107  10.387   2.834  0.50 47.76 LIG 0.18  HD
ATOM     37  CZ  ARG B   4      13.359   9.054   3.314  0.50 46.12 LIG 0.67  C 
ATOM     38  NH1 ARG B   4      13.740   8.316   4.351  0.50 45.18 LIG-0.23  N 
ATOM     39  NH2 ARG B   4      13.960   8.939   2.145  0.50 44.70 LIG-0.23  N 
ATOM     40 11HH ARG B   4      13.342   8.401   5.109  0.50 45.18 LIG 0.17  HD
ATOM     41 12HH ARG B   4      14.384   7.752   4.264  0.50 45.18 LIG 0.17  HD
ATOM     42 21HH ARG B   4      13.705   9.424   1.482  0.50 44.70 LIG 0.17  HD
ATOM     43 22HH ARG B   4      14.606   8.379   2.046  0.50 44.70 LIG 0.17  HD
ENDBRANCH 34 35
ENDBRANCH 33 34
ENDBRANCH 32 33
ENDBRANCH 31 32
BRANCH 31 44
ATOM     44  C   ARG B   4      13.827  12.987   6.345  0.50 54.09 LIG 0.24  C 
ATOM     45 O    ARG B   4      13.635  12.711   7.525  0.50 54.04 LIG-0.27  OA
ATOM     46  N   SER B   5      15.010  12.952   5.740  0.50 54.63 LIG-0.35  N 
ATOM     47 H    SER B   5      15.083  13.154   4.907  0.50 54.63 LIG 0.16  HD
BRANCH 46 48
ATOM     48  CA  SER B   5      16.312  12.594   6.320  0.50 55.09 LIG 0.18  C 
BRANCH 48 49
ATOM     49  CB  SER B   5      16.523  11.085   6.213  0.50 55.14 LIG 0.20  C 
BRANCH 49 50
ATOM     50 OG   SER B   5      15.897  10.585   5.043  0.50 55.40 LIG-0.40  OA
ATOM     51 HG   SER B   5      15.579  11.225   4.600  0.50 55.40 LIG 0.21  HD
ENDBRANCH 49 50
ENDBRANCH 48 49
BRANCH 48 52
ATOM     52  C   SER B   5      17.611  13.277   5.910  0.50 55.23 LIG 0.31  A 
ATOM     53 OXT  SER B   5      17.923  13.896   4.896  0.50 55.49 LIG-0.19  OA
ATOM     54 O    SER B   5      17.578  13.785   4.791  0.50 55.48 LIG-0.19  OA
ENDBRANCH 48 52
ENDBRANCH 46 48
ENDBRANCH 31 44
ENDBRANCH 3 31
TORSDOF 19
ENDMDL
MODEL 2
USER: ADFR SOLUTION from run 84
USER: SCORE 17.314690 LL:  -2.935 LR: -15.920 RR:   0.000 FEB: -10.252
USER: RMSD 3.513304
USER: SEED 83
USER: STATUS no improvement in best 5 clusters for 5 generations
USER: GENES 21
USER: genes 0 Translation |==|  0.53246 0.60217 0.47530
USER: genes 1 Rotation |==|  0.62627 0.74752 0.77992 0.80730
USER: genes 2 Torsion [N]-C--CA-[N] |==|  0.80216
USER: genes 3 Torsion [C]-CA--CB-[CG] |==|  0.18079
USER: genes 4 Torsion [CA]-CB--CG-[CD1] |==|  0.21522
USER: genes 5 Torsion [C]-CA--N-[C] |==|  0.57838
USER: genes 6 Torsion [N]-C--CA-[N] |==|  0.65000
USER: genes 7 Torsion [C]-CA--N-[C] |==|  0.13879
USER: genes 8 Torsion [N]-C--CA-[N] |==|  0.28233
USER: genes 9 Torsion [C]-CA--CB-[CG1] |==|  0.82785
USER: genes 10 Torsion [C]-CA--N-[H3] |==|  0.53235
USER: genes 11 Torsion [C]-N--CA-[CB] |==|  0.81958
USER: genes 12 Torsion [N]-CA--CB-[CG] |==|  0.69642
USER: genes 13 Torsion [CA]-CB--CG-[CD] |==|  0.88280
USER: genes 14 Torsion [CB]-CG--CD-[NE] |==|  0.35921
USER: genes 15 Torsion [CG]-CD--NE-[HE] |==|  0.14664
USER: genes 16 Torsion [N]-CA--C-[N] |==|  0.37224
USER: genes 17 Torsion [C]-N--CA-[CB] |==|  0.90620
USER: genes 18 Torsion [N]-CA--CB-[OG] |==|  0.52908
USER: genes 19 Torsion [CA]-CB--OG-[HG] |==|  0.49720
USER: genes 20 Torsion [N]-CA--C-[O] |==|  0.06324
ROOT
ATOM      1  C   PHE B   3      13.554  16.505   3.499  0.50 54.14 LIG 0.24  C 
ATOM      2 O    PHE B   3      12.974  17.312   4.236  0.50 54.24 LIG-0.27  OA
ATOM      3  N   ARG B   4      13.299  15.186   3.457  0.50 53.92 LIG-0.35  N 
ATOM      4 H    ARG B   4      13.750  14.664   2.944  0.50 53.92 LIG 0.16  HD
ENDROOT
BRANCH 1 5
ATOM      5  CA  PHE B   3      14.800  16.871   2.668  0.50 54.27 LIG 0.18  C 
BRANCH 5 6
ATOM      6  CB  PHE B   3      14.343  16.061   1.449  0.50 54.22 LIG 0.07  C 
BRANCH 6 7
ATOM      7  CG  PHE B   3      13.101  16.500   0.729  0.50 54.33 LIG-0.06  A 
ATOM      8  CD1 PHE B   3      13.038  17.566  -0.150  0.50 54.51 LIG 0.01  A 
ATOM      9  CE1 PHE B   3      11.835  17.834  -0.827  0.50 54.50 LIG 0.00  A 
ATOM     10  CZ  PHE B   3      10.725  17.014  -0.637  0.50 54.39 LIG 0.00  A 
ATOM     11  CE2 PHE B   3      10.810  15.942   0.214  0.50 54.37 LIG 0.00  A 
ATOM     12  CD2 PHE B   3      11.983  15.690   0.873  0.50 54.38 LIG 0.01  A 
ENDBRANCH 6 7
ENDBRANCH 5 6
BRANCH 5 13
ATOM     13  N   PHE B   3      16.133  16.442   3.216  0.50 54.44 LIG-0.35  N 
ATOM     14  C   ALA B   2      17.272  17.112   2.955  0.50 54.50 LIG 0.24  C 
ATOM     15 O    ALA B   2      17.334  18.215   2.495  0.50 54.60 LIG-0.27  OA
ATOM     16 H    PHE B   3      16.099  15.737   3.706  0.50 54.44 LIG 0.16  HD
BRANCH 14 17
ATOM     17  CA  ALA B   2      18.657  16.622   3.540  0.50 54.51 LIG 0.17  C 
ATOM     18  CB  ALA B   2      18.521  15.256   4.234  0.50 54.51 LIG 0.04  C 
BRANCH 17 19
ATOM     19  N   ALA B   2      19.508  17.561   4.326  0.50 54.51 LIG-0.35  N 
ATOM     20  C   VAL B   1      19.036  18.296   5.349  0.50 54.58 LIG 0.25  C 
ATOM     21 O    VAL B   1      17.830  18.399   5.594  0.50 54.60 LIG-0.27  OA
ATOM     22 H    ALA B   2      20.326  17.589   4.064  0.50 54.51 LIG 0.16  HD
BRANCH 20 23
ATOM     23  CA  VAL B   1      20.083  19.098   6.178  0.50 54.68 LIG 0.28  C 
BRANCH 23 24
ATOM     24  CB  VAL B   1      19.980  18.936   7.750  0.50 54.64 LIG 0.02  C 
ATOM     25  CG1 VAL B   1      18.641  19.440   8.266  0.50 54.60 LIG 0.01  C 
ATOM     26  CG2 VAL B   1      20.169  17.518   8.198  0.50 55.61 LIG 0.01  C 
ENDBRANCH 23 24
BRANCH 23 27
ATOM     27  N   VAL B   1      20.080  20.536   5.788  0.50 54.62 LIG-0.07  N 
ATOM     28 H1   VAL B   1      20.114  20.604   4.902  0.50 54.62 LIG 0.28  HD
ATOM     29 H2   VAL B   1      19.337  20.924   6.087  0.50 54.62 LIG 0.28  HD
ATOM     30 H3   VAL B   1      20.789  20.941   6.143  0.50 54.62 LIG 0.28  HD
ENDBRANCH 23 27
ENDBRANCH 20 23
ENDBRANCH 17 19
ENDBRANCH 14 17
ENDBRANCH 5 13
ENDBRANCH 1 5
BRANCH 3 31
ATOM     31  CA  ARG B   4      12.281  14.454   4.220  0.50 53.70 LIG 0.18  C 
BRANCH 31 32
ATOM     32  CB  ARG B   4      12.587  14.508   5.700  0.50 53.42 LIG 0.04  C 
BRANCH 32 33
ATOM     33  CG  ARG B   4      13.030  13.227   6.261  0.50 52.08 LIG 0.02  C 
BRANCH 33 34
ATOM     34  CD  ARG B   4      12.169  12.218   5.673  0.50 49.49 LIG 0.14  C 
BRANCH 34 35
ATOM     35  NE  ARG B   4      12.828  11.087   5.080  0.50 47.76 LIG-0.23  N 
ATOM     36 HE   ARG B   4      13.403  10.639   5.535  0.50 47.76 LIG 0.18  HD
ATOM     37  CZ  ARG B   4      12.555  10.736   3.847  0.50 46.12 LIG 0.67  C 
ATOM     38  NH1 ARG B   4      11.661  11.454   3.177  0.50 45.18 LIG-0.23  N 
ATOM     39  NH2 ARG B   4      13.145   9.697   3.287  0.50 44.70 LIG-0.23  N 
ATOM     40 11HH ARG B   4      11.281  12.128   3.554  0.50 45.18 LIG 0.17  HD
ATOM     41 12HH ARG B   4      11.463  11.247   2.366  0.50 45.18 LIG 0.17  HD
ATOM     42 21HH ARG B   4      13.721   9.238   3.732  0.50 44.70 LIG 0.17  HD
ATOM     43 22HH ARG B   4      12.955   9.480   2.477  0.50 44.70 LIG 0.17  HD
ENDBRANCH 34 35
ENDBRANCH 33 34
ENDBRANCH 32 33
ENDBRANCH 31 32
BRANCH 31 44
ATOM     44  C   ARG B   4      10.914  15.122   4.178  0.50 54.09 LIG 0.24  C 
ATOM     45 O    ARG B   4      10.751  16.309   4.443  0.50 54.04 LIG-0.27  OA
ATOM     46  N   SER B   5       9.934  14.258   3.934  0.50 54.63 LIG-0.35  N 
ATOM     47 H    SER B   5      10.109  13.436   3.750  0.50 54.63 LIG 0.16  HD
BRANCH 46 48
ATOM     48  CA  SER B   5       8.486  14.510   3.931  0.50 55.09 LIG 0.18  C 
BRANCH 48 49
ATOM     49  CB  SER B   5       8.146  15.563   4.983  0.50 55.14 LIG 0.20  C 
BRANCH 49 50
ATOM     50 OG   SER B   5       6.741  15.643   5.160  0.50 55.40 LIG-0.40  OA
ATOM     51 HG   SER B   5       6.565  16.214   5.750  0.50 55.40 LIG 0.21  HD
ENDBRANCH 49 50
ENDBRANCH 48 49
BRANCH 48 52
ATOM     52  C   SER B   5       7.713  14.853   2.662  0.50 55.23 LIG 0.31  A 
ATOM     53 OXT  SER B   5       7.943  14.619   1.478  0.50 55.49 LIG-0.19  OA
ATOM     54 O    SER B   5       8.262  14.481   1.626  0.50 55.48 LIG-0.19  OA
ENDBRANCH 48 52
ENDBRANCH 46 48
ENDBRANCH 31 44
ENDBRANCH 3 31
TORSDOF 19
ENDMDL
MODEL 3
USER: ADFR SOLUTION from run 79
USER: SCORE 16.309381 LL:  -2.656 LR: -15.844 RR:   0.000 FEB: -10.176
USER: RMSD 1.886307
USER: SEED 78
USER: STATUS no improvement in best 15 clusters for 5 generations
USER: GENES 21
USER: genes 0 Translation |==|  0.51998 0.59882 0.46774
USER: genes 1 Rotation |==|  0.58890 0.71784 0.79478 0.82825
USER: genes 2 Torsion [N]-C--CA-[N] |==|  0.81476
USER: genes 3 Torsion [C]-CA--CB-[CG] |==|  0.16366
USER: genes 4 Torsion [CA]-CB--CG-[CD1] |==|  0.73565
USER: genes 5 Torsion [C]-CA--N-[C] |==|  0.45911
USER: genes 6 Torsion [N]-C--CA-[N] |==|  0.79444
USER: genes 7 Torsion [C]-CA--N-[C] |==|  0.85074
USER: genes 8 Torsion [N]-C--CA-[N] |==|  0.53117
USER: genes 9 Torsion [C]-CA--CB-[CG1] |==|  0.21541
USER: genes 10 Torsion [C]-CA--N-[H3] |==|  0.21187
USER: genes 11 Torsion [C]-N--CA-[CB] |==|  0.79339
USER: genes 12 Torsion [N]-CA--CB-[CG] |==|  0.90937
USER: genes 13 Torsion [CA]-CB--CG-[CD] |==|  0.70336
USER: genes 14 Torsion [CB]-CG--CD-[NE] |==|  0.58214
USER: genes 15 Torsion [CG]-CD--NE-[HE] |==|  0.25827
USER: genes 16 Torsion [N]-CA--C-[N] |==|  0.33662
USER: genes 17 Torsion [C]-N--CA-[CB] |==|  0.53796
USER: genes 18 Torsion [N]-CA--CB-[OG] |==|  0.68610
USER: genes 19 Torsion [CA]-CB--OG-[HG] |==|  0.52413
USER: genes 20 Torsion [N]-CA--C-[O] |==|  0.45463
ROOT
ATOM      1  C   PHE B   3      13.179  16.405   3.272  0.50 54.14 LIG 0.24  C 
ATOM      2 O    PHE B   3      12.431  17.201   3.854  0.50 54.24 LIG-0.27  OA
ATOM      3  N   ARG B   4      12.981  15.077   3.204  0.50 53.92 LIG-0.35  N 
ATOM      4 H    ARG B   4      13.547  14.564   2.810  0.50 53.92 LIG 0.16  HD
ENDROOT
BRANCH 1 5
ATOM      5  CA  PHE B   3      14.561  16.803   2.716  0.50 54.27 LIG 0.18  C 
BRANCH 5 6
ATOM      6  CB  PHE B   3      14.350  16.059   1.393  0.50 54.22 LIG 0.07  C 
BRANCH 6 7
ATOM      7  CG  PHE B   3      13.182  16.450   0.536  0.50 54.33 LIG-0.06  A 
ATOM      8  CD1 PHE B   3      11.950  15.821   0.551  0.50 54.51 LIG 0.01  A 
ATOM      9  CE1 PHE B   3      10.904  16.327  -0.241  0.50 54.50 LIG 0.00  A 
ATOM     10  CZ  PHE B   3      11.099  17.472  -1.010  0.50 54.39 LIG 0.00  A 
ATOM     11  CE2 PHE B   3      12.314  18.104  -0.993  0.50 54.37 LIG 0.00  A 
ATOM     12  CD2 PHE B   3      13.329  17.603  -0.223  0.50 54.38 LIG 0.01  A 
ENDBRANCH 6 7
ENDBRANCH 5 6
BRANCH 5 13
ATOM     13  N   PHE B   3      15.765  16.338   3.489  0.50 54.44 LIG-0.35  N 
ATOM     14  C   ALA B   2      17.009  16.362   2.974  0.50 54.50 LIG 0.24  C 
ATOM     15 O    ALA B   2      17.337  16.960   1.990  0.50 54.60 LIG-0.27  OA
ATOM     16 H    PHE B   3      15.585  16.058   4.282  0.50 54.44 LIG 0.16  HD
BRANCH 14 17
ATOM     17  CA  ALA B   2      18.248  15.851   3.813  0.50 54.51 LIG 0.17  C 
ATOM     18  CB  ALA B   2      18.081  14.377   4.220  0.50 54.51 LIG 0.04  C 
BRANCH 17 19
ATOM     19  N   ALA B   2      18.780  16.679   4.934  0.50 54.51 LIG-0.35  N 
ATOM     20  C   VAL B   1      19.140  17.966   4.787  0.50 54.58 LIG 0.25  C 
ATOM     21 O    VAL B   1      19.242  18.507   3.681  0.50 54.60 LIG-0.27  OA
ATOM     22 H    ALA B   2      18.835  16.256   5.680  0.50 54.51 LIG 0.16  HD
BRANCH 20 23
ATOM     23  CA  VAL B   1      19.514  18.743   6.085  0.50 54.68 LIG 0.28  C 
BRANCH 23 24
ATOM     24  CB  VAL B   1      18.587  18.465   7.339  0.50 54.64 LIG 0.02  C 
ATOM     25  CG1 VAL B   1      18.929  17.133   7.988  0.50 54.60 LIG 0.01  C 
ATOM     26  CG2 VAL B   1      18.674  19.546   8.372  0.50 55.61 LIG 0.01  C 
ENDBRANCH 23 24
BRANCH 23 27
ATOM     27  N   VAL B   1      19.627  20.203   5.817  0.50 54.62 LIG-0.07  N 
ATOM     28 H1   VAL B   1      20.061  20.596   6.487  0.50 54.62 LIG 0.28  HD
ATOM     29 H2   VAL B   1      20.074  20.333   5.058  0.50 54.62 LIG 0.28  HD
ATOM     30 H3   VAL B   1      18.813  20.556   5.745  0.50 54.62 LIG 0.28  HD
ENDBRANCH 23 27
ENDBRANCH 20 23
ENDBRANCH 17 19
ENDBRANCH 14 17
ENDBRANCH 5 13
ENDBRANCH 1 5
BRANCH 3 31
ATOM     31  CA  ARG B   4      11.848  14.320   3.749  0.50 53.70 LIG 0.18  C 
BRANCH 31 32
ATOM     32  CB  ARG B   4      11.959  14.209   5.254  0.50 53.42 LIG 0.04  C 
BRANCH 32 33
ATOM     33  CG  ARG B   4      13.340  14.143   5.745  0.50 52.08 LIG 0.02  C 
BRANCH 33 34
ATOM     34  CD  ARG B   4      13.546  12.768   6.160  0.50 49.49 LIG 0.14  C 
BRANCH 34 35
ATOM     35  NE  ARG B   4      14.487  12.560   7.226  0.50 47.76 LIG-0.23  N 
ATOM     36 HE   ARG B   4      14.212  12.528   8.040  0.50 47.76 LIG 0.18  HD
ATOM     37  CZ  ARG B   4      15.763  12.420   6.964  0.50 46.12 LIG 0.67  C 
ATOM     38  NH1 ARG B   4      16.149  12.478   5.694  0.50 45.18 LIG-0.23  N 
ATOM     39  NH2 ARG B   4      16.641  12.223   7.928  0.50 44.70 LIG-0.23  N 
ATOM     40 11HH ARG B   4      15.567  12.604   5.073  0.50 45.18 LIG 0.17  HD
ATOM     41 12HH ARG B   4      16.980  12.389   5.492  0.50 45.18 LIG 0.17  HD
ATOM     42 21HH ARG B   4      16.379  12.185   8.747  0.50 44.70 LIG 0.17  HD
ATOM     43 22HH ARG B   4      17.476  12.133   7.739  0.50 44.70 LIG 0.17  HD
ENDBRANCH 34 35
ENDBRANCH 33 34
ENDBRANCH 32 33
ENDBRANCH 31 32
BRANCH 31 44
ATOM     44  C   ARG B   4      10.521  15.051   3.606  0.50 54.09 LIG 0.24  C 
ATOM     45 O    ARG B   4      10.291  16.117   4.170  0.50 54.04 LIG-0.27  OA
ATOM     46  N   SER B   5       9.632  14.357   2.903  0.50 54.63 LIG-0.35  N 
ATOM     47 H    SER B   5       9.852  13.616   2.526  0.50 54.63 LIG 0.16  HD
BRANCH 46 48
ATOM     48  CA  SER B   5       8.222  14.686   2.652  0.50 55.09 LIG 0.18  C 
BRANCH 48 49
ATOM     49  CB  SER B   5       7.501  13.460   2.095  0.50 55.14 LIG 0.20  C 
BRANCH 49 50
ATOM     50 OG   SER B   5       7.112  13.692   0.750  0.50 55.40 LIG-0.40  OA
ATOM     51 HG   SER B   5       6.615  13.065   0.491  0.50 55.40 LIG 0.21  HD
ENDBRANCH 49 50
ENDBRANCH 48 49
BRANCH 48 52
ATOM     52  C   SER B   5       7.322  15.314   3.711  0.50 55.23 LIG 0.31  A 
ATOM     53 OXT  SER B   5       6.227  15.864   3.629  0.50 55.49 LIG-0.19  OA
ATOM     54 O    SER B   5       6.291  15.809   3.260  0.50 55.48 LIG-0.19  OA
ENDBRANCH 48 52
ENDBRANCH 46 48
ENDBRANCH 31 44
ENDBRANCH 3 31
TORSDOF 19
ENDMDL
MODEL 4
USER: ADFR SOLUTION from run 156
USER: SCORE 17.599222 LL:  -2.450 LR: -15.839 RR:   0.000 FEB: -10.171
USER: RMSD 7.543141
USER: SEED 155
USER: STATUS no improvement in best 4 clusters for 5 generations
USER: GENES 21
USER: genes 0 Translation |==|  0.62822 0.55992 0.45143
USER: genes 1 Rotation |==|  0.13662 0.70500 0.38683 0.75124
USER: genes 2 Torsion [N]-C--CA-[N] |==|  0.93106
USER: genes 3 Torsion [C]-CA--CB-[CG] |==|  0.36553
USER: genes 4 Torsion [CA]-CB--CG-[CD1] |==|  0.00102
USER: genes 5 Torsion [C]-CA--N-[C] |==|  0.79065
USER: genes 6 Torsion [N]-C--CA-[N] |==|  0.19109
USER: genes 7 Torsion [C]-CA--N-[C] |==|  0.78458
USER: genes 8 Torsion [N]-C--CA-[N] |==|  0.07323
USER: genes 9 Torsion [C]-CA--CB-[CG1] |==|  0.22064
USER: genes 10 Torsion [C]-CA--N-[H3] |==|  0.46123
USER: genes 11 Torsion [C]-N--CA-[CB] |==|  0.57886
USER: genes 12 Torsion [N]-CA--CB-[CG] |==|  0.67118
USER: genes 13 Torsion [CA]-CB--CG-[CD] |==|  0.12111
USER: genes 14 Torsion [CB]-CG--CD-[NE] |==|  0.72980
USER: genes 15 Torsion [CG]-CD--NE-[HE] |==|  0.85671
USER: genes 16 Torsion [N]-CA--C-[N] |==|  0.51466
USER: genes 17 Torsion [C]-N--CA-[CB] |==|  0.36796
USER: genes 18 Torsion [N]-CA--CB-[OG] |==|  0.93659
USER: genes 19 Torsion [CA]-CB--OG-[HG] |==|  0.67010
USER: genes 20 Torsion [N]-CA--C-[O] |==|  0.78919
ROOT
ATOM      1  C   PHE B   3      16.427  15.238   2.783  0.50 54.14 LIG 0.24  C 
ATOM      2 O    PHE B   3      16.325  14.562   1.751  0.50 54.24 LIG-0.27  OA
ATOM      3  N   ARG B   4      15.429  15.952   3.332  0.50 53.92 LIG-0.35  N 
ATOM      4 H    ARG B   4      15.560  16.427   4.036  0.50 53.92 LIG 0.16  HD
ENDROOT
BRANCH 1 5
ATOM      5  CA  PHE B   3      17.776  15.519   3.474  0.50 54.27 LIG 0.18  C 
BRANCH 5 6
ATOM      6  CB  PHE B   3      17.642  14.332   4.434  0.50 54.22 LIG 0.07  C 
BRANCH 6 7
ATOM      7  CG  PHE B   3      18.810  13.403   4.583  0.50 54.33 LIG-0.06  A 
ATOM      8  CD1 PHE B   3      20.016  13.542   3.918  0.50 54.51 LIG 0.01  A 
ATOM      9  CE1 PHE B   3      21.068  12.653   4.199  0.50 54.50 LIG 0.00  A 
ATOM     10  CZ  PHE B   3      20.908  11.659   5.161  0.50 54.39 LIG 0.00  A 
ATOM     11  CE2 PHE B   3      19.720  11.550   5.835  0.50 54.37 LIG 0.00  A 
ATOM     12  CD2 PHE B   3      18.698  12.416   5.553  0.50 54.38 LIG 0.01  A 
ENDBRANCH 6 7
ENDBRANCH 5 6
BRANCH 5 13
ATOM     13  N   PHE B   3      17.921  16.846   4.166  0.50 54.44 LIG-0.35  N 
ATOM     14  C   ALA B   2      18.107  17.998   3.492  0.50 54.50 LIG 0.24  C 
ATOM     15 O    ALA B   2      17.933  18.145   2.317  0.50 54.60 LIG-0.27  OA
ATOM     16 H    PHE B   3      17.875  16.800   5.023  0.50 54.44 LIG 0.16  HD
BRANCH 14 17
ATOM     17  CA  ALA B   2      18.270  19.372   4.257  0.50 54.51 LIG 0.17  C 
ATOM     18  CB  ALA B   2      17.924  20.564   3.349  0.50 54.51 LIG 0.04  C 
BRANCH 17 19
ATOM     19  N   ALA B   2      19.492  19.631   5.072  0.50 54.51 LIG-0.35  N 
ATOM     20  C   VAL B   1      19.683  19.105   6.295  0.50 54.58 LIG 0.25  C 
ATOM     21 O    VAL B   1      18.785  18.530   6.919  0.50 54.60 LIG-0.27  OA
ATOM     22 H    ALA B   2      20.063  20.146   4.686  0.50 54.51 LIG 0.16  HD
BRANCH 20 23
ATOM     23  CA  VAL B   1      21.080  19.329   6.945  0.50 54.68 LIG 0.28  C 
BRANCH 23 24
ATOM     24  CB  VAL B   1      21.108  19.308   8.529  0.50 54.64 LIG 0.02  C 
ATOM     25  CG1 VAL B   1      21.092  17.883   9.058  0.50 54.60 LIG 0.01  C 
ATOM     26  CG2 VAL B   1      22.298  20.022   9.095  0.50 55.61 LIG 0.01  C 
ENDBRANCH 23 24
BRANCH 23 27
ATOM     27  N   VAL B   1      21.721  20.565   6.416  0.50 54.62 LIG-0.07  N 
ATOM     28 H1   VAL B   1      22.008  20.420   5.586  0.50 54.62 LIG 0.28  HD
ATOM     29 H2   VAL B   1      21.128  21.229   6.412  0.50 54.62 LIG 0.28  HD
ATOM     30 H3   VAL B   1      22.411  20.787   6.933  0.50 54.62 LIG 0.28  HD
ENDBRANCH 23 27
ENDBRANCH 20 23
ENDBRANCH 17 19
ENDBRANCH 14 17
ENDBRANCH 5 13
ENDBRANCH 1 5
BRANCH 3 31
ATOM     31  CA  ARG B   4      14.042  16.045   2.863  0.50 53.70 LIG 0.18  C 
BRANCH 31 32
ATOM     32  CB  ARG B   4      13.439  17.377   3.249  0.50 53.42 LIG 0.04  C 
BRANCH 32 33
ATOM     33  CG  ARG B   4      12.279  17.269   4.140  0.50 52.08 LIG 0.02  C 
BRANCH 33 34
ATOM     34  CD  ARG B   4      12.637  16.275   5.135  0.50 49.49 LIG 0.14  C 
BRANCH 34 35
ATOM     35  NE  ARG B   4      12.162  14.939   4.899  0.50 47.76 LIG-0.23  N 
ATOM     36 HE   ARG B   4      11.329  14.803   4.733  0.50 47.76 LIG 0.18  HD
ATOM     37  CZ  ARG B   4      12.992  13.927   4.936  0.50 46.12 LIG 0.67  C 
ATOM     38  NH1 ARG B   4      14.270  14.178   5.198  0.50 45.18 LIG-0.23  N 
ATOM     39  NH2 ARG B   4      12.576  12.694   4.717  0.50 44.70 LIG-0.23  N 
ATOM     40 11HH ARG B   4      14.531  14.986   5.336  0.50 45.18 LIG 0.17  HD
ATOM     41 12HH ARG B   4      14.838  13.532   5.229  0.50 45.18 LIG 0.17  HD
ATOM     42 21HH ARG B   4      11.747  12.545   4.546  0.50 44.70 LIG 0.17  HD
ATOM     43 22HH ARG B   4      13.135  12.040   4.745  0.50 44.70 LIG 0.17  HD
ENDBRANCH 34 35
ENDBRANCH 33 34
ENDBRANCH 32 33
ENDBRANCH 31 32
BRANCH 31 44
ATOM     44  C   ARG B   4      13.930  16.100   1.346  0.50 54.09 LIG 0.24  C 
ATOM     45 O    ARG B   4      14.912  16.065   0.610  0.50 54.04 LIG-0.27  OA
ATOM     46  N   SER B   5      12.681  16.296   0.936  0.50 54.63 LIG-0.35  N 
ATOM     47 H    SER B   5      12.031  16.307   1.499  0.50 54.63 LIG 0.16  HD
BRANCH 46 48
ATOM     48  CA  SER B   5      12.204  16.513  -0.437  0.50 55.09 LIG 0.18  C 
BRANCH 48 49
ATOM     49  CB  SER B   5      11.002  15.612  -0.711  0.50 55.14 LIG 0.20  C 
BRANCH 49 50
ATOM     50 OG   SER B   5      11.012  14.501   0.170  0.50 55.40 LIG-0.40  OA
ATOM     51 HG   SER B   5      11.069  13.790  -0.275  0.50 55.40 LIG 0.21  HD
ENDBRANCH 49 50
ENDBRANCH 48 49
BRANCH 48 52
ATOM     52  C   SER B   5      11.883  17.898  -0.987  0.50 55.23 LIG 0.31  A 
ATOM     53 OXT  SER B   5      10.938  18.657  -0.786  0.50 55.49 LIG-0.19  OA
ATOM     54 O    SER B   5      10.816  18.361  -0.585  0.50 55.48 LIG-0.19  OA
ENDBRANCH 48 52
ENDBRANCH 46 48
ENDBRANCH 31 44
ENDBRANCH 3 31
TORSDOF 19
ENDMDL
MODEL 5
USER: ADFR SOLUTION from run 42
USER: SCORE 17.006485 LL:  -3.229 LR: -15.766 RR:   0.000 FEB: -10.098
USER: RMSD 8.511926
USER: SEED 41
USER: STATUS no improvement in best 3 clusters for 5 generations
USER: GENES 21
USER: genes 0 Translation |==|  0.43901 0.48348 0.53164
USER: genes 1 Rotation |==|  0.63865 0.08548 0.32734 0.67069
USER: genes 2 Torsion [N]-C--CA-[N] |==|  0.39433
USER: genes 3 Torsion [C]-CA--CB-[CG] |==|  0.30875
USER: genes 4 Torsion [CA]-CB--CG-[CD1] |==|  0.90095
USER: genes 5 Torsion [C]-CA--N-[C] |==|  0.79244
USER: genes 6 Torsion [N]-C--CA-[N] |==|  0.32377
USER: genes 7 Torsion [C]-CA--N-[C] |==|  0.76586
USER: genes 8 Torsion [N]-C--CA-[N] |==|  0.57219
USER: genes 9 Torsion [C]-CA--CB-[CG1] |==|  0.52536
USER: genes 10 Torsion [C]-CA--N-[H3] |==|  0.70225
USER: genes 11 Torsion [C]-N--CA-[CB] |==|  0.35068
USER: genes 12 Torsion [N]-CA--CB-[CG] |==|  0.78654
USER: genes 13 Torsion [CA]-CB--CG-[CD] |==|  0.32036
USER: genes 14 Torsion [CB]-CG--CD-[NE] |==|  0.86079
USER: genes 15 Torsion [CG]-CD--NE-[HE] |==|  0.05494
USER: genes 16 Torsion [N]-CA--C-[N] |==|  0.80537
USER: genes 17 Torsion [C]-N--CA-[CB] |==|  0.33156
USER: genes 18 Torsion [N]-CA--CB-[OG] |==|  0.20997
USER: genes 19 Torsion [CA]-CB--OG-[HG] |==|  0.40683
USER: genes 20 Torsion [N]-CA--C-[O] |==|  0.73985
ROOT
ATOM      1  C   PHE B   3      10.750  12.944   5.189  0.50 54.14 LIG 0.24  C 
ATOM      2 O    PHE B   3      10.176  13.185   6.259  0.50 54.24 LIG-0.27  OA
ATOM      3  N   ARG B   4      11.966  13.407   4.851  0.50 53.92 LIG-0.35  N 
ATOM      4 H    ARG B   4      12.309  13.231   4.082  0.50 53.92 LIG 0.16  HD
ENDROOT
BRANCH 1 5
ATOM      5  CA  PHE B   3      10.058  12.243   4.003  0.50 54.27 LIG 0.18  C 
BRANCH 5 6
ATOM      6  CB  PHE B   3       9.209  13.468   3.650  0.50 54.22 LIG 0.07  C 
BRANCH 6 7
ATOM      7  CG  PHE B   3       9.506  14.194   2.370  0.50 54.33 LIG-0.06  A 
ATOM      8  CD1 PHE B   3      10.772  14.366   1.840  0.50 54.51 LIG 0.01  A 
ATOM      9  CE1 PHE B   3      10.920  14.997   0.592  0.50 54.50 LIG 0.00  A 
ATOM     10  CZ  PHE B   3       9.798  15.417  -0.118  0.50 54.39 LIG 0.00  A 
ATOM     11  CE2 PHE B   3       8.548  15.214   0.404  0.50 54.37 LIG 0.00  A 
ATOM     12  CD2 PHE B   3       8.411  14.603   1.621  0.50 54.38 LIG 0.01  A 
ENDBRANCH 6 7
ENDBRANCH 5 6
BRANCH 5 13
ATOM     13  N   PHE B   3       9.251  11.014   4.317  0.50 54.44 LIG-0.35  N 
ATOM     14  C   ALA B   2       9.820   9.828   4.608  0.50 54.50 LIG 0.24  C 
ATOM     15 O    ALA B   2      10.972   9.667   4.892  0.50 54.60 LIG-0.27  OA
ATOM     16 H    PHE B   3       8.400  11.139   4.294  0.50 54.44 LIG 0.16  HD
BRANCH 14 17
ATOM     17  CA  ALA B   2       8.936   8.555   4.920  0.50 54.51 LIG 0.17  C 
ATOM     18  CB  ALA B   2       9.029   8.156   6.402  0.50 54.51 LIG 0.04  C 
BRANCH 17 19
ATOM     19  N   ALA B   2       9.000   7.366   4.020  0.50 54.51 LIG-0.35  N 
ATOM     20  C   VAL B   1       8.274   7.261   2.893  0.50 54.58 LIG 0.25  C 
ATOM     21 O    VAL B   1       7.360   8.044   2.614  0.50 54.60 LIG-0.27  OA
ATOM     22 H    ALA B   2       9.543   6.757   4.290  0.50 54.51 LIG 0.16  HD
BRANCH 20 23
ATOM     23  CA  VAL B   1       8.577   6.039   1.975  0.50 54.68 LIG 0.28  C 
BRANCH 23 24
ATOM     24  CB  VAL B   1      10.046   5.454   2.080  0.50 54.64 LIG 0.02  C 
ATOM     25  CG1 VAL B   1      10.302   4.421   0.993  0.50 54.60 LIG 0.01  C 
ATOM     26  CG2 VAL B   1      11.099   6.517   1.996  0.50 55.61 LIG 0.01  C 
ENDBRANCH 23 24
BRANCH 23 27
ATOM     27  N   VAL B   1       8.220   6.336   0.560  0.50 54.62 LIG-0.07  N 
ATOM     28 H1   VAL B   1       8.074   7.208   0.467  0.50 54.62 LIG 0.28  HD
ATOM     29 H2   VAL B   1       8.888   6.088   0.027  0.50 54.62 LIG 0.28  HD
ATOM     30 H3   VAL B   1       7.483   5.888   0.340  0.50 54.62 LIG 0.28  HD
ENDBRANCH 23 27
ENDBRANCH 20 23
ENDBRANCH 17 19
ENDBRANCH 14 17
ENDBRANCH 5 13
ENDBRANCH 1 5
BRANCH 3 31
ATOM     31  CA  ARG B   4      12.861  14.233   5.670  0.50 53.70 LIG 0.18  C 
BRANCH 31 32
ATOM     32  CB  ARG B   4      14.226  13.591   5.777  0.50 53.42 LIG 0.04  C 
BRANCH 32 33
ATOM     33  CG  ARG B   4      14.282  12.464   6.713  0.50 52.08 LIG 0.02  C 
BRANCH 33 34
ATOM     34  CD  ARG B   4      14.577  11.294   5.907  0.50 49.49 LIG 0.14  C 
BRANCH 34 35
ATOM     35  NE  ARG B   4      13.754  11.097   4.746  0.50 47.76 LIG-0.23  N 
ATOM     36 HE   ARG B   4      13.312  11.758   4.416  0.50 47.76 LIG 0.18  HD
ATOM     37  CZ  ARG B   4      13.672   9.915   4.187  0.50 46.12 LIG 0.67  C 
ATOM     38  NH1 ARG B   4      14.367   8.920   4.727  0.50 45.18 LIG-0.23  N 
ATOM     39  NH2 ARG B   4      12.925   9.716   3.117  0.50 44.70 LIG-0.23  N 
ATOM     40 11HH ARG B   4      14.852   9.062   5.423  0.50 45.18 LIG 0.17  HD
ATOM     41 12HH ARG B   4      14.331   8.133   4.381  0.50 45.18 LIG 0.17  HD
ATOM     42 21HH ARG B   4      12.481  10.369   2.776  0.50 44.70 LIG 0.17  HD
ATOM     43 22HH ARG B   4      12.882   8.934   2.762  0.50 44.70 LIG 0.17  HD
ENDBRANCH 34 35
ENDBRANCH 33 34
ENDBRANCH 32 33
ENDBRANCH 31 32
BRANCH 31 44
ATOM     44  C   ARG B   4      13.210  15.561   5.014  0.50 54.09 LIG 0.24  C 
ATOM     45 O    ARG B   4      12.718  16.626   5.376  0.50 54.04 LIG-0.27  OA
ATOM     46  N   SER B   5      14.006  15.412   3.959  0.50 54.63 LIG-0.35  N 
ATOM     47 H    SER B   5      14.324  14.640   3.755  0.50 54.63 LIG 0.16  HD
BRANCH 46 48
ATOM     48  CA  SER B   5      14.459  16.444   3.017  0.50 55.09 LIG 0.18  C 
BRANCH 48 49
ATOM     49  CB  SER B   5      15.983  16.539   3.054  0.50 55.14 LIG 0.20  C 
BRANCH 49 50
ATOM     50 OG   SER B   5      16.559  15.443   2.362  0.50 55.40 LIG-0.40  OA
ATOM     51 HG   SER B   5      17.271  15.690   1.990  0.50 55.40 LIG 0.21  HD
ENDBRANCH 49 50
ENDBRANCH 48 49
BRANCH 48 52
ATOM     52  C   SER B   5      14.027  16.471   1.555  0.50 55.23 LIG 0.31  A 
ATOM     53 OXT  SER B   5      14.535  15.991   0.545  0.50 55.49 LIG-0.19  OA
ATOM     54 O    SER B   5      14.806  15.902   0.793  0.50 55.48 LIG-0.19  OA
ENDBRANCH 48 52
ENDBRANCH 46 48
ENDBRANCH 31 44
ENDBRANCH 3 31
TORSDOF 19
ENDMDL
MODEL 6
USER: ADFR SOLUTION from run 17
USER: SCORE 16.349458 LL:  -3.717 LR: -15.678 RR:   0.000 FEB: -10.010
USER: RMSD 6.952283
USER: SEED 16
USER: STATUS no improvement in best 1 clusters for 5 generations
USER: GENES 21
USER: genes 0 Translation |==|  0.49795 0.57976 0.43531
USER: genes 1 Rotation |==|  0.42820 0.03371 0.65315 0.56297
USER: genes 2 Torsion [N]-C--CA-[N] |==|  0.04728
USER: genes 3 Torsion [C]-CA--CB-[CG] |==|  0.40684
USER: genes 4 Torsion [CA]-CB--CG-[CD1] |==|  0.90875
USER: genes 5 Torsion [C]-CA--N-[C] |==|  0.42115
USER: genes 6 Torsion [N]-C--CA-[N] |==|  0.03415
USER: genes 7 Torsion [C]-CA--N-[C] |==|  0.13890
USER: genes 8 Torsion [N]-C--CA-[N] |==|  0.42837
USER: genes 9 Torsion [C]-CA--CB-[CG1] |==|  0.52456
USER: genes 10 Torsion [C]-CA--N-[H3] |==|  0.48320
USER: genes 11 Torsion [C]-N--CA-[CB] |==|  0.19680
USER: genes 12 Torsion [N]-CA--CB-[CG] |==|  0.64319
USER: genes 13 Torsion [CA]-CB--CG-[CD] |==|  0.75827
USER: genes 14 Torsion [CB]-CG--CD-[NE] |==|  0.79556
USER: genes 15 Torsion [CG]-CD--NE-[HE] |==|  0.09824
USER: genes 16 Torsion [N]-CA--C-[N] |==|  0.46481
USER: genes 17 Torsion [C]-N--CA-[CB] |==|  0.39201
USER: genes 18 Torsion [N]-CA--CB-[OG] |==|  0.91715
USER: genes 19 Torsion [CA]-CB--OG-[HG] |==|  0.86429
USER: genes 20 Torsion [N]-CA--C-[O] |==|  0.01509
ROOT
ATOM      1  C   PHE B   3      12.519  15.833   2.299  0.50 54.14 LIG 0.24  C 
ATOM      2 O    PHE B   3      12.196  16.895   1.753  0.50 54.24 LIG-0.27  OA
ATOM      3  N   ARG B   4      13.760  15.531   2.716  0.50 53.92 LIG-0.35  N 
ATOM      4 H    ARG B   4      13.937  14.766   3.066  0.50 53.92 LIG 0.16  HD
ENDROOT
BRANCH 1 5
ATOM      5  CA  PHE B   3      11.576  14.616   2.393  0.50 54.27 LIG 0.18  C 
BRANCH 5 6
ATOM      6  CB  PHE B   3      10.426  15.432   2.994  0.50 54.22 LIG 0.07  C 
BRANCH 6 7
ATOM      7  CG  PHE B   3       9.020  15.045   2.642  0.50 54.33 LIG-0.06  A 
ATOM      8  CD1 PHE B   3       8.632  14.512   1.425  0.50 54.51 LIG 0.01  A 
ATOM      9  CE1 PHE B   3       7.297  14.113   1.238  0.50 54.50 LIG 0.00  A 
ATOM     10  CZ  PHE B   3       6.379  14.225   2.280  0.50 54.39 LIG 0.00  A 
ATOM     11  CE2 PHE B   3       6.783  14.726   3.490  0.50 54.37 LIG 0.00  A 
ATOM     12  CD2 PHE B   3       8.083  15.117   3.664  0.50 54.38 LIG 0.01  A 
ENDBRANCH 6 7
ENDBRANCH 5 6
BRANCH 5 13
ATOM     13  N   PHE B   3      12.026  13.472   3.260  0.50 54.44 LIG-0.35  N 
ATOM     14  C   ALA B   2      11.159  12.647   3.878  0.50 54.50 LIG 0.24  C 
ATOM     15 O    ALA B   2       9.992  12.561   3.627  0.50 54.60 LIG-0.27  OA
ATOM     16 H    PHE B   3      12.880  13.396   3.322  0.50 54.44 LIG 0.16  HD
BRANCH 14 17
ATOM     17  CA  ALA B   2      11.672  11.464   4.792  0.50 54.51 LIG 0.17  C 
ATOM     18  CB  ALA B   2      10.725  11.221   5.980  0.50 54.51 LIG 0.04  C 
BRANCH 17 19
ATOM     19  N   ALA B   2      13.105  11.408   5.204  0.50 54.51 LIG-0.35  N 
ATOM     20  C   VAL B   1      13.753  12.456   5.743  0.50 54.58 LIG 0.25  C 
ATOM     21 O    VAL B   1      13.278  13.596   5.760  0.50 54.60 LIG-0.27  OA
ATOM     22 H    ALA B   2      13.475  10.645   5.065  0.50 54.51 LIG 0.16  HD
BRANCH 20 23
ATOM     23  CA  VAL B   1      15.192  12.191   6.276  0.50 54.68 LIG 0.28  C 
BRANCH 23 24
ATOM     24  CB  VAL B   1      15.277  11.478   7.689  0.50 54.64 LIG 0.02  C 
ATOM     25  CG1 VAL B   1      16.705  11.463   8.210  0.50 54.60 LIG 0.01  C 
ATOM     26  CG2 VAL B   1      14.392  12.119   8.714  0.50 55.61 LIG 0.01  C 
ENDBRANCH 23 24
BRANCH 23 27
ATOM     27  N   VAL B   1      16.004  13.440   6.260  0.50 54.62 LIG-0.07  N 
ATOM     28 H1   VAL B   1      16.135  13.699   5.419  0.50 54.62 LIG 0.28  HD
ATOM     29 H2   VAL B   1      15.573  14.081   6.704  0.50 54.62 LIG 0.28  HD
ATOM     30 H3   VAL B   1      16.790  13.289   6.649  0.50 54.62 LIG 0.28  HD
ENDBRANCH 23 27
ENDBRANCH 20 23
ENDBRANCH 17 19
ENDBRANCH 14 17
ENDBRANCH 5 13
ENDBRANCH 1 5
BRANCH 3 31
ATOM     31  CA  ARG B   4      14.950  16.389   2.654  0.50 53.70 LIG 0.18  C 
BRANCH 31 32
ATOM     32  CB  ARG B   4      14.838  17.524   3.647  0.50 53.42 LIG 0.04  C 
BRANCH 32 33
ATOM     33  CG  ARG B   4      15.073  18.849   3.064  0.50 52.08 LIG 0.02  C 
BRANCH 33 34
ATOM     34  CD  ARG B   4      16.507  19.060   3.126  0.50 49.49 LIG 0.14  C 
BRANCH 34 35
ATOM     35  NE  ARG B   4      17.053  19.340   4.426  0.50 47.76 LIG-0.23  N 
ATOM     36 HE   ARG B   4      16.719  18.961   5.122  0.50 47.76 LIG 0.18  HD
ATOM     37  CZ  ARG B   4      18.057  20.172   4.556  0.50 46.12 LIG 0.67  C 
ATOM     38  NH1 ARG B   4      18.544  20.738   3.458  0.50 45.18 LIG-0.23  N 
ATOM     39  NH2 ARG B   4      18.575  20.437   5.740  0.50 44.70 LIG-0.23  N 
ATOM     40 11HH ARG B   4      18.200  20.556   2.691  0.50 45.18 LIG 0.17  HD
ATOM     41 12HH ARG B   4      19.203  21.289   3.513  0.50 45.18 LIG 0.17  HD
ATOM     42 21HH ARG B   4      18.252  20.062   6.444  0.50 44.70 LIG 0.17  HD
ATOM     43 22HH ARG B   4      19.235  20.985   5.808  0.50 44.70 LIG 0.17  HD
ENDBRANCH 34 35
ENDBRANCH 33 34
ENDBRANCH 32 33
ENDBRANCH 31 32
BRANCH 31 44
ATOM     44  C   ARG B   4      16.211  15.692   3.144  0.50 54.09 LIG 0.24  C 
ATOM     45 O    ARG B   4      16.178  14.674   3.830  0.50 54.04 LIG-0.27  OA
ATOM     46  N   SER B   5      17.315  16.365   2.839  0.50 54.63 LIG-0.35  N 
ATOM     47 H    SER B   5      17.277  17.072   2.350  0.50 54.63 LIG 0.16  HD
BRANCH 46 48
ATOM     48  CA  SER B   5      18.697  16.065   3.239  0.50 55.09 LIG 0.18  C 
BRANCH 48 49
ATOM     49  CB  SER B   5      19.642  16.352   2.074  0.50 55.14 LIG 0.20  C 
BRANCH 49 50
ATOM     50 OG   SER B   5      18.973  16.149   0.840  0.50 55.40 LIG-0.40  OA
ATOM     51 HG   SER B   5      18.580  15.407   0.853  0.50 55.40 LIG 0.21  HD
ENDBRANCH 49 50
ENDBRANCH 48 49
BRANCH 48 52
ATOM     52  C   SER B   5      19.330  16.635   4.503  0.50 55.23 LIG 0.31  A 
ATOM     53 OXT  SER B   5      18.857  17.290   5.429  0.50 55.49 LIG-0.19  OA
ATOM     54 O    SER B   5      18.551  17.276   5.206  0.50 55.48 LIG-0.19  OA
ENDBRANCH 48 52
ENDBRANCH 46 48
ENDBRANCH 31 44
ENDBRANCH 3 31
TORSDOF 19
ENDMDL
MODEL 7
USER: ADFR SOLUTION from run 52
USER: SCORE 15.567482 LL:  -3.410 LR: -15.655 RR:   0.000 FEB:  -9.988
USER: RMSD 9.106575
USER: SEED 51
USER: STATUS no improvement in best 4 clusters for 5 generations
USER: GENES 21
USER: genes 0 Translation |==|  0.57778 0.58385 0.43151
USER: genes 1 Rotation |==|  0.24627 0.26157 0.85866 0.51161
USER: genes 2 Torsion [N]-C--CA-[N] |==|  0.49933
USER: genes 3 Torsion [C]-CA--CB-[CG] |==|  0.51340
USER: genes 4 Torsion [CA]-CB--CG-[CD1] |==|  0.96298
USER: genes 5 Torsion [C]-CA--N-[C] |==|  0.22644
USER: genes 6 Torsion [N]-C--CA-[N] |==|  0.65349
USER: genes 7 Torsion [C]-CA--N-[C] |==|  0.14879
USER: genes 8 Torsion [N]-C--CA-[N] |==|  0.12537
USER: genes 9 Torsion [C]-CA--CB-[CG1] |==|  0.82339
USER: genes 10 Torsion [C]-CA--N-[H3] |==|  0.65135
USER: genes 11 Torsion [C]-N--CA-[CB] |==|  0.29392
USER: genes 12 Torsion [N]-CA--CB-[CG] |==|  0.90290
USER: genes 13 Torsion [CA]-CB--CG-[CD] |==|  0.34257
USER: genes 14 Torsion [CB]-CG--CD-[NE] |==|  0.20095
USER: genes 15 Torsion [CG]-CD--NE-[HE] |==|  0.03537
USER: genes 16 Torsion [N]-CA--C-[N] |==|  0.10074
USER: genes 17 Torsion [C]-N--CA-[CB] |==|  0.42424
USER: genes 18 Torsion [N]-CA--CB-[OG] |==|  0.95517
USER: genes 19 Torsion [CA]-CB--OG-[HG] |==|  0.88092
USER: genes 20 Torsion [N]-CA--C-[O] |==|  0.29537
ROOT
ATOM      1  C   PHE B   3      14.913  15.956   2.185  0.50 54.14 LIG 0.24  C 
ATOM      2 O    PHE B   3      15.150  15.690   1.000  0.50 54.24 LIG-0.27  OA
ATOM      3  N   ARG B   4      15.803  15.847   3.187  0.50 53.92 LIG-0.35  N 
ATOM      4 H    ARG B   4      15.579  16.018   3.999  0.50 53.92 LIG 0.16  HD
ENDROOT
BRANCH 1 5
ATOM      5  CA  PHE B   3      13.496  16.254   2.713  0.50 54.27 LIG 0.18  C 
BRANCH 5 6
ATOM      6  CB  PHE B   3      13.415  14.951   3.514  0.50 54.22 LIG 0.07  C 
BRANCH 6 7
ATOM      7  CG  PHE B   3      12.125  14.620   4.206  0.50 54.33 LIG-0.06  A 
ATOM      8  CD1 PHE B   3      11.086  15.512   4.400  0.50 54.51 LIG 0.01  A 
ATOM      9  CE1 PHE B   3       9.892  15.066   4.993  0.50 54.50 LIG 0.00  A 
ATOM     10  CZ  PHE B   3       9.745  13.729   5.354  0.50 54.39 LIG 0.00  A 
ATOM     11  CE2 PHE B   3      10.770  12.848   5.128  0.50 54.37 LIG 0.00  A 
ATOM     12  CD2 PHE B   3      11.932  13.290   4.555  0.50 54.38 LIG 0.01  A 
ENDBRANCH 6 7
ENDBRANCH 5 6
BRANCH 5 13
ATOM     13  N   PHE B   3      12.406  16.406   1.688  0.50 54.44 LIG-0.35  N 
ATOM     14  C   ALA B   2      11.783  15.348   1.132  0.50 54.50 LIG 0.24  C 
ATOM     15 O    ALA B   2      11.830  14.225   1.545  0.50 54.60 LIG-0.27  OA
ATOM     16 H    PHE B   3      12.222  17.222   1.491  0.50 54.44 LIG 0.16  HD
BRANCH 14 17
ATOM     17  CA  ALA B   2      10.652  15.548   0.046  0.50 54.51 LIG 0.17  C 
ATOM     18  CB  ALA B   2      10.554  17.017  -0.398  0.50 54.51 LIG 0.04  C 
BRANCH 17 19
ATOM     19  N   ALA B   2       9.306  14.940   0.253  0.50 54.51 LIG-0.35  N 
ATOM     20  C   VAL B   1       8.574  15.139   1.364  0.50 54.58 LIG 0.25  C 
ATOM     21 O    VAL B   1       9.035  15.676   2.376  0.50 54.60 LIG-0.27  OA
ATOM     22 H    ALA B   2       9.042  14.451  -0.403  0.50 54.51 LIG 0.16  HD
BRANCH 20 23
ATOM     23  CA  VAL B   1       7.122  14.576   1.358  0.50 54.68 LIG 0.28  C 
BRANCH 23 24
ATOM     24  CB  VAL B   1       6.350  14.663   2.739  0.50 54.64 LIG 0.02  C 
ATOM     25  CG1 VAL B   1       7.031  13.815   3.801  0.50 54.60 LIG 0.01  C 
ATOM     26  CG2 VAL B   1       6.227  16.068   3.245  0.50 55.61 LIG 0.01  C 
ENDBRANCH 23 24
BRANCH 23 27
ATOM     27  N   VAL B   1       7.090  13.190   0.815  0.50 54.62 LIG-0.07  N 
ATOM     28 H1   VAL B   1       7.899  12.968   0.519  0.50 54.62 LIG 0.28  HD
ATOM     29 H2   VAL B   1       6.844  12.625   1.457  0.50 54.62 LIG 0.28  HD
ATOM     30 H3   VAL B   1       6.508  13.147   0.143  0.50 54.62 LIG 0.28  HD
ENDBRANCH 23 27
ENDBRANCH 20 23
ENDBRANCH 17 19
ENDBRANCH 14 17
ENDBRANCH 5 13
ENDBRANCH 1 5
BRANCH 3 31
ATOM     31  CA  ARG B   4      17.211  15.445   3.084  0.50 53.70 LIG 0.18  C 
BRANCH 31 32
ATOM     32  CB  ARG B   4      18.118  16.644   3.252  0.50 53.42 LIG 0.04  C 
BRANCH 32 33
ATOM     33  CG  ARG B   4      17.574  17.884   2.688  0.50 52.08 LIG 0.02  C 
BRANCH 33 34
ATOM     34  CD  ARG B   4      17.548  18.838   3.781  0.50 49.49 LIG 0.14  C 
BRANCH 34 35
ATOM     35  NE  ARG B   4      18.821  19.351   4.208  0.50 47.76 LIG-0.23  N 
ATOM     36 HE   ARG B   4      19.519  19.222   3.724  0.50 47.76 LIG 0.18  HD
ATOM     37  CZ  ARG B   4      18.922  20.014   5.334  0.50 46.12 LIG 0.67  C 
ATOM     38  NH1 ARG B   4      17.820  20.190   6.055  0.50 45.18 LIG-0.23  N 
ATOM     39  NH2 ARG B   4      20.080  20.496   5.740  0.50 44.70 LIG-0.23  N 
ATOM     40 11HH ARG B   4      17.070  19.873   5.779  0.50 45.18 LIG 0.17  HD
ATOM     41 12HH ARG B   4      17.857  20.621   6.798  0.50 45.18 LIG 0.17  HD
ATOM     42 21HH ARG B   4      20.786  20.378   5.263  0.50 44.70 LIG 0.17  HD
ATOM     43 22HH ARG B   4      20.129  20.930   6.482  0.50 44.70 LIG 0.17  HD
ENDBRANCH 34 35
ENDBRANCH 33 34
ENDBRANCH 32 33
ENDBRANCH 31 32
BRANCH 31 44
ATOM     44  C   ARG B   4      17.665  14.569   4.243  0.50 54.09 LIG 0.24  C 
ATOM     45 O    ARG B   4      18.817  14.579   4.666  0.50 54.04 LIG-0.27  OA
ATOM     46  N   SER B   5      16.713  13.736   4.653  0.50 54.63 LIG-0.35  N 
ATOM     47 H    SER B   5      15.920  13.778   4.321  0.50 54.63 LIG 0.16  HD
BRANCH 46 48
ATOM     48  CA  SER B   5      16.815  12.674   5.663  0.50 55.09 LIG 0.18  C 
BRANCH 48 49
ATOM     49  CB  SER B   5      15.447  12.438   6.299  0.50 55.14 LIG 0.20  C 
BRANCH 49 50
ATOM     50 OG   SER B   5      14.583  13.527   6.019  0.50 55.40 LIG-0.40  OA
ATOM     51 HG   SER B   5      15.002  14.249   6.112  0.50 55.40 LIG 0.21  HD
ENDBRANCH 49 50
ENDBRANCH 48 49
BRANCH 48 52
ATOM     52  C   SER B   5      17.432  11.311   5.365  0.50 55.23 LIG 0.31  A 
ATOM     53 OXT  SER B   5      18.496  10.804   5.711  0.50 55.49 LIG-0.19  OA
ATOM     54 O    SER B   5      18.545  11.148   5.860  0.50 55.48 LIG-0.19  OA
ENDBRANCH 48 52
ENDBRANCH 46 48
ENDBRANCH 31 44
ENDBRANCH 3 31
TORSDOF 19
ENDMDL
MODEL 8
USER: ADFR SOLUTION from run 51
USER: SCORE 16.818286 LL:  -3.387 LR: -15.437 RR:   0.000 FEB:  -9.769
USER: RMSD 7.817563
USER: SEED 50
USER: STATUS no improvement in best 9 clusters for 5 generations
USER: GENES 21
USER: genes 0 Translation |==|  0.53825 0.60848 0.47319
USER: genes 1 Rotation |==|  0.48095 0.80780 0.74283 0.80972
USER: genes 2 Torsion [N]-C--CA-[N] |==|  0.89384
USER: genes 3 Torsion [C]-CA--CB-[CG] |==|  0.16317
USER: genes 4 Torsion [CA]-CB--CG-[CD1] |==|  0.71336
USER: genes 5 Torsion [C]-CA--N-[C] |==|  0.58454
USER: genes 6 Torsion [N]-C--CA-[N] |==|  0.66384
USER: genes 7 Torsion [C]-CA--N-[C] |==|  0.12883
USER: genes 8 Torsion [N]-C--CA-[N] |==|  0.28135
USER: genes 9 Torsion [C]-CA--CB-[CG1] |==|  0.50074
USER: genes 10 Torsion [C]-CA--N-[H3] |==|  0.16904
USER: genes 11 Torsion [C]-N--CA-[CB] |==|  0.18889
USER: genes 12 Torsion [N]-CA--CB-[CG] |==|  0.76289
USER: genes 13 Torsion [CA]-CB--CG-[CD] |==|  0.52902
USER: genes 14 Torsion [CB]-CG--CD-[NE] |==|  0.19067
USER: genes 15 Torsion [CG]-CD--NE-[HE] |==|  0.76311
USER: genes 16 Torsion [N]-CA--C-[N] |==|  0.12365
USER: genes 17 Torsion [C]-N--CA-[CB] |==|  0.42367
USER: genes 18 Torsion [N]-CA--CB-[OG] |==|  0.92078
USER: genes 19 Torsion [CA]-CB--OG-[HG] |==|  0.92947
USER: genes 20 Torsion [N]-CA--C-[O] |==|  0.03693
ROOT
ATOM      1  C   PHE B   3      13.728  16.694   3.436  0.50 54.14 LIG 0.24  C 
ATOM      2 O    PHE B   3      12.859  17.567   3.559  0.50 54.24 LIG-0.27  OA
ATOM      3  N   ARG B   4      13.753  15.537   4.118  0.50 53.92 LIG-0.35  N 
ATOM      4 H    ARG B   4      14.396  14.975   4.014  0.50 53.92 LIG 0.16  HD
ENDROOT
BRANCH 1 5
ATOM      5  CA  PHE B   3      15.022  16.906   2.625  0.50 54.27 LIG 0.18  C 
BRANCH 5 6
ATOM      6  CB  PHE B   3      14.566  15.997   1.479  0.50 54.22 LIG 0.07  C 
BRANCH 6 7
ATOM      7  CG  PHE B   3      13.296  16.344   0.758  0.50 54.33 LIG-0.06  A 
ATOM      8  CD1 PHE B   3      12.086  15.701   0.945  0.50 54.51 LIG 0.01  A 
ATOM      9  CE1 PHE B   3      10.943  16.167   0.271  0.50 54.50 LIG 0.00  A 
ATOM     10  CZ  PHE B   3      11.024  17.285  -0.555  0.50 54.39 LIG 0.00  A 
ATOM     11  CE2 PHE B   3      12.223  17.932  -0.708  0.50 54.37 LIG 0.00  A 
ATOM     12  CD2 PHE B   3      13.332  17.471  -0.053  0.50 54.38 LIG 0.01  A 
ENDBRANCH 6 7
ENDBRANCH 5 6
BRANCH 5 13
ATOM     13  N   PHE B   3      16.308  16.469   3.272  0.50 54.44 LIG-0.35  N 
ATOM     14  C   ALA B   2      17.485  17.077   3.025  0.50 54.50 LIG 0.24  C 
ATOM     15 O    ALA B   2      17.613  18.141   2.493  0.50 54.60 LIG-0.27  OA
ATOM     16 H    PHE B   3      16.221  15.802   3.807  0.50 54.44 LIG 0.16  HD
BRANCH 14 17
ATOM     17  CA  ALA B   2      18.818  16.579   3.714  0.50 54.51 LIG 0.17  C 
ATOM     18  CB  ALA B   2      18.624  15.211   4.389  0.50 54.51 LIG 0.04  C 
BRANCH 17 19
ATOM     19  N   ALA B   2      19.608  17.513   4.568  0.50 54.51 LIG-0.35  N 
ATOM     20  C   VAL B   1      19.049  18.297   5.508  0.50 54.58 LIG 0.25  C 
ATOM     21 O    VAL B   1      17.827  18.451   5.606  0.50 54.60 LIG-0.27  OA
ATOM     22 H    ALA B   2      20.452  17.502   4.404  0.50 54.51 LIG 0.16  HD
BRANCH 20 23
ATOM     23  CA  VAL B   1      20.023  19.088   6.431  0.50 54.68 LIG 0.28  C 
BRANCH 23 24
ATOM     24  CB  VAL B   1      19.725  18.987   7.984  0.50 54.64 LIG 0.02  C 
ATOM     25  CG1 VAL B   1      20.728  19.800   8.787  0.50 54.60 LIG 0.01  C 
ATOM     26  CG2 VAL B   1      18.341  19.440   8.337  0.50 55.61 LIG 0.01  C 
ENDBRANCH 23 24
BRANCH 23 27
ATOM     27  N   VAL B   1      20.129  20.509   5.999  0.50 54.62 LIG-0.07  N 
ATOM     28 H1   VAL B   1      20.697  20.940   6.531  0.50 54.62 LIG 0.28  HD
ATOM     29 H2   VAL B   1      20.424  20.544   5.160  0.50 54.62 LIG 0.28  HD
ATOM     30 H3   VAL B   1      19.328  20.895   6.047  0.50 54.62 LIG 0.28  HD
ENDBRANCH 23 27
ENDBRANCH 20 23
ENDBRANCH 17 19
ENDBRANCH 14 17
ENDBRANCH 5 13
ENDBRANCH 1 5
BRANCH 3 31
ATOM     31  CA  ARG B   4      12.764  15.058   5.091  0.50 53.70 LIG 0.18  C 
BRANCH 31 32
ATOM     32  CB  ARG B   4      11.454  14.742   4.404  0.50 53.42 LIG 0.04  C 
BRANCH 32 33
ATOM     33  CG  ARG B   4      10.574  15.904   4.241  0.50 52.08 LIG 0.02  C 
BRANCH 33 34
ATOM     34  CD  ARG B   4       9.295  15.374   3.806  0.50 49.49 LIG 0.14  C 
BRANCH 34 35
ATOM     35  NE  ARG B   4       8.563  14.604   4.775  0.50 47.76 LIG-0.23  N 
ATOM     36 HE   ARG B   4       8.727  13.765   4.868  0.50 47.76 LIG 0.18  HD
ATOM     37  CZ  ARG B   4       7.647  15.175   5.517  0.50 46.12 LIG 0.67  C 
ATOM     38  NH1 ARG B   4       7.422  16.472   5.342  0.50 45.18 LIG-0.23  N 
ATOM     39  NH2 ARG B   4       6.969  14.486   6.415  0.50 44.70 LIG-0.23  N 
ATOM     40 11HH ARG B   4       7.872  16.912   4.756  0.50 45.18 LIG 0.17  HD
ATOM     41 12HH ARG B   4       6.826  16.873   5.816  0.50 45.18 LIG 0.17  HD
ATOM     42 21HH ARG B   4       7.125  13.647   6.521  0.50 44.70 LIG 0.17  HD
ATOM     43 22HH ARG B   4       6.371  14.876   6.895  0.50 44.70 LIG 0.17  HD
ENDBRANCH 34 35
ENDBRANCH 33 34
ENDBRANCH 32 33
ENDBRANCH 31 32
BRANCH 31 44
ATOM     44  C   ARG B   4      13.120  13.701   5.682  0.50 54.09 LIG 0.24  C 
ATOM     45 O    ARG B   4      12.279  12.835   5.898  0.50 54.04 LIG-0.27  OA
ATOM     46  N   SER B   5      14.402  13.618   6.026  0.50 54.63 LIG-0.35  N 
ATOM     47 H    SER B   5      14.947  14.258   5.844  0.50 54.63 LIG 0.16  HD
BRANCH 46 48
ATOM     48  CA  SER B   5      15.081  12.517   6.722  0.50 55.09 LIG 0.18  C 
BRANCH 48 49
ATOM     49  CB  SER B   5      16.556  12.493   6.329  0.50 55.14 LIG 0.20  C 
BRANCH 49 50
ATOM     50 OG   SER B   5      16.722  13.021   5.023  0.50 55.40 LIG-0.40  OA
ATOM     51 HG   SER B   5      16.010  12.924   4.588  0.50 55.40 LIG 0.21  HD
ENDBRANCH 49 50
ENDBRANCH 48 49
BRANCH 48 52
ATOM     52  C   SER B   5      14.998  12.322   8.232  0.50 55.23 LIG 0.31  A 
ATOM     53 OXT  SER B   5      14.245  12.800   9.077  0.50 55.49 LIG-0.19  OA
ATOM     54 O    SER B   5      14.123  12.994   8.775  0.50 55.48 LIG-0.19  OA
ENDBRANCH 48 52
ENDBRANCH 46 48
ENDBRANCH 31 44
ENDBRANCH 3 31
TORSDOF 19
ENDMDL
MODEL 9
USER: ADFR SOLUTION from run 50
USER: SCORE 17.012732 LL:  -3.248 LR: -15.291 RR:   0.000 FEB:  -9.623
USER: RMSD 5.883153
USER: SEED 49
USER: STATUS no improvement in best 7 clusters for 5 generations
USER: GENES 21
USER: genes 0 Translation |==|  0.60598 0.57125 0.44515
USER: genes 1 Rotation |==|  0.15693 0.68199 0.52771 0.81371
USER: genes 2 Torsion [N]-C--CA-[N] |==|  0.43499
USER: genes 3 Torsion [C]-CA--CB-[CG] |==|  0.46081
USER: genes 4 Torsion [CA]-CB--CG-[CD1] |==|  0.32971
USER: genes 5 Torsion [C]-CA--N-[C] |==|  0.53900
USER: genes 6 Torsion [N]-C--CA-[N] |==|  0.29901
USER: genes 7 Torsion [C]-CA--N-[C] |==|  0.87985
USER: genes 8 Torsion [N]-C--CA-[N] |==|  0.08841
USER: genes 9 Torsion [C]-CA--CB-[CG1] |==|  0.19576
USER: genes 10 Torsion [C]-CA--N-[H3] |==|  0.00124
USER: genes 11 Torsion [C]-N--CA-[CB] |==|  0.51667
USER: genes 12 Torsion [N]-CA--CB-[CG] |==|  0.75086
USER: genes 13 Torsion [CA]-CB--CG-[CD] |==|  0.76849
USER: genes 14 Torsion [CB]-CG--CD-[NE] |==|  0.37621
USER: genes 15 Torsion [CG]-CD--NE-[HE] |==|  0.17880
USER: genes 16 Torsion [N]-CA--C-[N] |==|  0.30139
USER: genes 17 Torsion [C]-N--CA-[CB] |==|  0.27117
USER: genes 18 Torsion [N]-CA--CB-[OG] |==|  0.01593
USER: genes 19 Torsion [CA]-CB--OG-[HG] |==|  0.27924
USER: genes 20 Torsion [N]-CA--C-[O] |==|  0.24144
ROOT
ATOM      1  C   PHE B   3      15.759  15.578   2.595  0.50 54.14 LIG 0.24  C 
ATOM      2 O    PHE B   3      15.551  15.349   1.396  0.50 54.24 LIG-0.27  OA
ATOM      3  N   ARG B   4      14.816  15.569   3.552  0.50 53.92 LIG-0.35  N 
ATOM      4 H    ARG B   4      15.009  15.761   4.367  0.50 53.92 LIG 0.16  HD
ENDROOT
BRANCH 1 5
ATOM      5  CA  PHE B   3      17.105  16.110   3.127  0.50 54.27 LIG 0.18  C 
BRANCH 5 6
ATOM      6  CB  PHE B   3      16.720  17.577   2.909  0.50 54.22 LIG 0.07  C 
BRANCH 6 7
ATOM      7  CG  PHE B   3      17.560  18.637   3.560  0.50 54.33 LIG-0.06  A 
ATOM      8  CD1 PHE B   3      18.265  19.611   2.876  0.50 54.51 LIG 0.01  A 
ATOM      9  CE1 PHE B   3      18.955  20.601   3.598  0.50 54.50 LIG 0.00  A 
ATOM     10  CZ  PHE B   3      18.903  20.619   4.990  0.50 54.39 LIG 0.00  A 
ATOM     11  CE2 PHE B   3      18.176  19.666   5.655  0.50 54.37 LIG 0.00  A 
ATOM     12  CD2 PHE B   3      17.510  18.702   4.946  0.50 54.38 LIG 0.01  A 
ENDBRANCH 6 7
ENDBRANCH 5 6
BRANCH 5 13
ATOM     13  N   PHE B   3      18.344  15.690   2.386  0.50 54.44 LIG-0.35  N 
ATOM     14  C   ALA B   2      19.581  15.849   2.895  0.50 54.50 LIG 0.24  C 
ATOM     15 O    ALA B   2      19.829  16.093   4.040  0.50 54.60 LIG-0.27  OA
ATOM     16 H    PHE B   3      18.189  15.342   1.615  0.50 54.44 LIG 0.16  HD
BRANCH 14 17
ATOM     17  CA  ALA B   2      20.860  15.407   2.078  0.50 54.51 LIG 0.17  C 
ATOM     18  CB  ALA B   2      21.656  14.322   2.824  0.50 54.51 LIG 0.04  C 
BRANCH 17 19
ATOM     19  N   ALA B   2      21.756  16.440   1.481  0.50 54.51 LIG-0.35  N 
ATOM     20  C   VAL B   1      21.294  17.527   0.839  0.50 54.58 LIG 0.25  C 
ATOM     21 O    VAL B   1      20.107  17.660   0.523  0.50 54.60 LIG-0.27  OA
ATOM     22 H    ALA B   2      22.593  16.274   1.586  0.50 54.51 LIG 0.16  HD
BRANCH 20 23
ATOM     23  CA  VAL B   1      22.348  18.596   0.422  0.50 54.68 LIG 0.28  C 
BRANCH 23 24
ATOM     24  CB  VAL B   1      21.903  19.578  -0.739  0.50 54.64 LIG 0.02  C 
ATOM     25  CG1 VAL B   1      20.830  20.543  -0.259  0.50 54.60 LIG 0.01  C 
ATOM     26  CG2 VAL B   1      23.048  20.365  -1.300  0.50 55.61 LIG 0.01  C 
ENDBRANCH 23 24
BRANCH 23 27
ATOM     27  N   VAL B   1      23.657  17.959   0.109  0.50 54.62 LIG-0.07  N 
ATOM     28 H1   VAL B   1      23.883  18.141  -0.732  0.50 54.62 LIG 0.28  HD
ATOM     29 H2   VAL B   1      24.281  18.276   0.659  0.50 54.62 LIG 0.28  HD
ATOM     30 H3   VAL B   1      23.591  17.077   0.214  0.50 54.62 LIG 0.28  HD
ENDBRANCH 23 27
ENDBRANCH 20 23
ENDBRANCH 17 19
ENDBRANCH 14 17
ENDBRANCH 5 13
ENDBRANCH 1 5
BRANCH 3 31
ATOM     31  CA  ARG B   4      13.392  15.252   3.391  0.50 53.70 LIG 0.18  C 
BRANCH 31 32
ATOM     32  CB  ARG B   4      12.644  15.499   4.682  0.50 53.42 LIG 0.04  C 
BRANCH 32 33
ATOM     33  CG  ARG B   4      12.594  14.335   5.572  0.50 52.08 LIG 0.02  C 
BRANCH 33 34
ATOM     34  CD  ARG B   4      11.487  13.523   5.101  0.50 49.49 LIG 0.14  C 
BRANCH 34 35
ATOM     35  NE  ARG B   4      11.729  12.110   5.006  0.50 47.76 LIG-0.23  N 
ATOM     36 HE   ARG B   4      11.891  11.654   5.717  0.50 47.76 LIG 0.18  HD
ATOM     37  CZ  ARG B   4      11.706  11.512   3.840  0.50 46.12 LIG 0.67  C 
ATOM     38  NH1 ARG B   4      11.455  12.251   2.765  0.50 45.18 LIG-0.23  N 
ATOM     39  NH2 ARG B   4      11.920  10.215   3.734  0.50 44.70 LIG-0.23  N 
ATOM     40 11HH ARG B   4      11.314  13.096   2.847  0.50 45.18 LIG 0.17  HD
ATOM     41 12HH ARG B   4      11.433  11.885   1.987  0.50 45.18 LIG 0.17  HD
ATOM     42 21HH ARG B   4      12.080   9.746   4.438  0.50 44.70 LIG 0.17  HD
ATOM     43 22HH ARG B   4      11.901   9.837   2.961  0.50 44.70 LIG 0.17  HD
ENDBRANCH 34 35
ENDBRANCH 33 34
ENDBRANCH 32 33
ENDBRANCH 31 32
BRANCH 31 44
ATOM     44  C   ARG B   4      12.674  16.208   2.448  0.50 54.09 LIG 0.24  C 
ATOM     45 O    ARG B   4      12.347  17.343   2.782  0.50 54.04 LIG-0.27  OA
ATOM     46  N   SER B   5      12.358  15.637   1.290  0.50 54.63 LIG-0.35  N 
ATOM     47 H    SER B   5      12.619  14.838   1.109  0.50 54.63 LIG 0.16  HD
BRANCH 46 48
ATOM     48  CA  SER B   5      11.571  16.206   0.187  0.50 55.09 LIG 0.18  C 
BRANCH 48 49
ATOM     49  CB  SER B   5      12.510  16.764  -0.879  0.50 55.14 LIG 0.20  C 
BRANCH 49 50
ATOM     50 OG   SER B   5      13.856  16.454  -0.557  0.50 55.40 LIG-0.40  OA
ATOM     51 HG   SER B   5      14.108  15.794  -1.013  0.50 55.40 LIG 0.21  HD
ENDBRANCH 49 50
ENDBRANCH 48 49
BRANCH 48 52
ATOM     52  C   SER B   5      10.469  15.428  -0.524  0.50 55.23 LIG 0.31  A 
ATOM     53 OXT  SER B   5       9.268  15.313  -0.287  0.50 55.49 LIG-0.19  OA
ATOM     54 O    SER B   5       9.367  15.516   0.016  0.50 55.48 LIG-0.19  OA
ENDBRANCH 48 52
ENDBRANCH 46 48
ENDBRANCH 31 44
ENDBRANCH 3 31
TORSDOF 19
ENDMDL
MODEL 10
USER: ADFR SOLUTION from run 6
USER: SCORE 16.919616 LL:  -3.729 LR: -15.015 RR:   0.000 FEB:  -9.347
USER: RMSD 10.142451
USER: SEED 347171
USER: STATUS no improvement in best 8 clusters for 5 generations
USER: GENES 21
USER: genes 0 Translation |==|  0.60800 0.62082 0.46281
USER: genes 1 Rotation |==|  0.35106 0.03539 0.57626 0.57835
USER: genes 2 Torsion [N]-C--CA-[N] |==|  0.21260
USER: genes 3 Torsion [C]-CA--CB-[CG] |==|  0.44355
USER: genes 4 Torsion [CA]-CB--CG-[CD1] |==|  0.16826
USER: genes 5 Torsion [C]-CA--N-[C] |==|  0.52847
USER: genes 6 Torsion [N]-C--CA-[N] |==|  0.36161
USER: genes 7 Torsion [C]-CA--N-[C] |==|  0.88477
USER: genes 8 Torsion [N]-C--CA-[N] |==|  0.33258
USER: genes 9 Torsion [C]-CA--CB-[CG1] |==|  0.13472
USER: genes 10 Torsion [C]-CA--N-[H3] |==|  0.83768
USER: genes 11 Torsion [C]-N--CA-[CB] |==|  0.49444
USER: genes 12 Torsion [N]-CA--CB-[CG] |==|  0.66052
USER: genes 13 Torsion [CA]-CB--CG-[CD] |==|  0.01436
USER: genes 14 Torsion [CB]-CG--CD-[NE] |==|  0.73283
USER: genes 15 Torsion [CG]-CD--NE-[HE] |==|  0.99342
USER: genes 16 Torsion [N]-CA--C-[N] |==|  0.36818
USER: genes 17 Torsion [C]-N--CA-[CB] |==|  0.68863
USER: genes 18 Torsion [N]-CA--CB-[OG] |==|  0.83930
USER: genes 19 Torsion [CA]-CB--OG-[HG] |==|  0.88468
USER: genes 20 Torsion [N]-CA--C-[O] |==|  0.45821
ROOT
ATOM      1  C   PHE B   3      15.820  17.064   3.124  0.50 54.14 LIG 0.24  C 
ATOM      2 O    PHE B   3      15.933  18.269   2.865  0.50 54.24 LIG-0.27  OA
ATOM      3  N   ARG B   4      16.833  16.261   3.490  0.50 53.92 LIG-0.35  N 
ATOM      4 H    ARG B   4      16.705  15.423   3.633  0.50 53.92 LIG 0.16  HD
ENDROOT
BRANCH 1 5
ATOM      5  CA  PHE B   3      14.527  16.266   2.863  0.50 54.27 LIG 0.18  C 
BRANCH 5 6
ATOM      6  CB  PHE B   3      13.849  17.423   2.121  0.50 54.22 LIG 0.07  C 
BRANCH 6 7
ATOM      7  CG  PHE B   3      12.701  17.106   1.207  0.50 54.33 LIG-0.06  A 
ATOM      8  CD1 PHE B   3      11.518  16.511   1.608  0.50 54.51 LIG 0.01  A 
ATOM      9  CE1 PHE B   3      10.481  16.335   0.676  0.50 54.50 LIG 0.00  A 
ATOM     10  CZ  PHE B   3      10.632  16.785  -0.634  0.50 54.39 LIG 0.00  A 
ATOM     11  CE2 PHE B   3      11.797  17.400  -1.011  0.50 54.37 LIG 0.00  A 
ATOM     12  CD2 PHE B   3      12.804  17.564  -0.099  0.50 54.38 LIG 0.01  A 
ENDBRANCH 6 7
ENDBRANCH 5 6
BRANCH 5 13
ATOM     13  N   PHE B   3      13.766  15.790   4.070  0.50 54.44 LIG-0.35  N 
ATOM     14  C   ALA B   2      12.742  14.920   3.983  0.50 54.50 LIG 0.24  C 
ATOM     15 O    ALA B   2      12.484  14.252   3.024  0.50 54.60 LIG-0.27  OA
ATOM     16 H    PHE B   3      14.044  16.123   4.812  0.50 54.44 LIG 0.16  HD
BRANCH 14 17
ATOM     17  CA  ALA B   2      11.957  14.454   5.274  0.50 54.51 LIG 0.17  C 
ATOM     18  CB  ALA B   2      12.492  13.112   5.802  0.50 54.51 LIG 0.04  C 
BRANCH 17 19
ATOM     19  N   ALA B   2      10.467  14.506   5.299  0.50 54.51 LIG-0.35  N 
ATOM     20  C   VAL B   1       9.761  15.532   4.792  0.50 54.58 LIG 0.25  C 
ATOM     21 O    VAL B   1      10.287  16.594   4.444  0.50 54.60 LIG-0.27  OA
ATOM     22 H    ALA B   2      10.103  13.820   5.667  0.50 54.51 LIG 0.16  HD
BRANCH 20 23
ATOM     23  CA  VAL B   1       8.213  15.361   4.740  0.50 54.68 LIG 0.28  C 
BRANCH 23 24
ATOM     24  CB  VAL B   1       7.585  15.264   3.289  0.50 54.64 LIG 0.02  C 
ATOM     25  CG1 VAL B   1       8.341  14.261   2.431  0.50 54.60 LIG 0.01  C 
ATOM     26  CG2 VAL B   1       6.135  14.888   3.311  0.50 55.61 LIG 0.01  C 
ENDBRANCH 23 24
BRANCH 23 27
ATOM     27  N   VAL B   1       7.535  16.414   5.546  0.50 54.62 LIG-0.07  N 
ATOM     28 H1   VAL B   1       7.727  17.215   5.211  0.50 54.62 LIG 0.28  HD
ATOM     29 H2   VAL B   1       6.654  16.286   5.522  0.50 54.62 LIG 0.28  HD
ATOM     30 H3   VAL B   1       7.817  16.371   6.389  0.50 54.62 LIG 0.28  HD
ENDBRANCH 23 27
ENDBRANCH 20 23
ENDBRANCH 17 19
ENDBRANCH 14 17
ENDBRANCH 5 13
ENDBRANCH 1 5
BRANCH 3 31
ATOM     31  CA  ARG B   4      18.236  16.639   3.695  0.50 53.70 LIG 0.18  C 
BRANCH 31 32
ATOM     32  CB  ARG B   4      19.047  15.446   4.150  0.50 53.42 LIG 0.04  C 
BRANCH 32 33
ATOM     33  CG  ARG B   4      19.723  15.643   5.436  0.50 52.08 LIG 0.02  C 
BRANCH 33 34
ATOM     34  CD  ARG B   4      19.274  16.932   5.926  0.50 49.49 LIG 0.14  C 
BRANCH 34 35
ATOM     35  NE  ARG B   4      20.134  18.051   5.653  0.50 47.76 LIG-0.23  N 
ATOM     36 HE   ARG B   4      20.882  17.928   5.248  0.50 47.76 LIG 0.18  HD
ATOM     37  CZ  ARG B   4      19.783  19.259   6.020  0.50 46.12 LIG 0.67  C 
ATOM     38  NH1 ARG B   4      18.621  19.408   6.645  0.50 45.18 LIG-0.23  N 
ATOM     39  NH2 ARG B   4      20.557  20.299   5.773  0.50 44.70 LIG-0.23  N 
ATOM     40 11HH ARG B   4      18.124  18.723   6.798  0.50 45.18 LIG 0.17  HD
ATOM     41 12HH ARG B   4      18.366  20.190   6.898  0.50 45.18 LIG 0.17  HD
ATOM     42 21HH ARG B   4      21.306  20.190   5.365  0.50 44.70 LIG 0.17  HD
ATOM     43 22HH ARG B   4      20.312  21.086   6.020  0.50 44.70 LIG 0.17  HD
ENDBRANCH 34 35
ENDBRANCH 33 34
ENDBRANCH 32 33
ENDBRANCH 31 32
BRANCH 31 44
ATOM     44  C   ARG B   4      18.949  17.003   2.401  0.50 54.09 LIG 0.24  C 
ATOM     45 O    ARG B   4      18.955  16.263   1.421  0.50 54.04 LIG-0.27  OA
ATOM     46  N   SER B   5      19.636  18.137   2.500  0.50 54.63 LIG-0.35  N 
ATOM     47 H    SER B   5      19.590  18.617   3.212  0.50 54.63 LIG 0.16  HD
BRANCH 46 48
ATOM     48  CA  SER B   5      20.530  18.742   1.503  0.50 55.09 LIG 0.18  C 
BRANCH 48 49
ATOM     49  CB  SER B   5      21.969  18.696   2.011  0.50 55.14 LIG 0.20  C 
BRANCH 49 50
ATOM     50 OG   SER B   5      22.072  19.370   3.254  0.50 55.40 LIG-0.40  OA
ATOM     51 HG   SER B   5      21.615  20.075   3.229  0.50 55.40 LIG 0.21  HD
ENDBRANCH 49 50
ENDBRANCH 48 49
BRANCH 48 52
ATOM     52  C   SER B   5      20.538  18.318   0.039  0.50 55.23 LIG 0.31  A 
ATOM     53 OXT  SER B   5      21.037  18.835  -0.958  0.50 55.49 LIG-0.19  OA
ATOM     54 O    SER B   5      21.119  19.105  -0.706  0.50 55.48 LIG-0.19  OA
ENDBRANCH 48 52
ENDBRANCH 46 48
ENDBRANCH 31 44
ENDBRANCH 3 31
TORSDOF 19
ENDMDL
MODEL 11
USER: ADFR SOLUTION from run 115
USER: SCORE 16.483050 LL:  -4.496 LR: -14.987 RR:   0.000 FEB:  -9.319
USER: RMSD 10.108171
USER: SEED 114
USER: STATUS no improvement in best 2 clusters for 5 generations
USER: GENES 21
USER: genes 0 Translation |==|  0.61825 0.63164 0.45000
USER: genes 1 Rotation |==|  0.61046 0.43160 0.06027 0.69941
USER: genes 2 Torsion [N]-C--CA-[N] |==|  0.25168
USER: genes 3 Torsion [C]-CA--CB-[CG] |==|  0.55603
USER: genes 4 Torsion [CA]-CB--CG-[CD1] |==|  0.41032
USER: genes 5 Torsion [C]-CA--N-[C] |==|  0.12322
USER: genes 6 Torsion [N]-C--CA-[N] |==|  0.72222
USER: genes 7 Torsion [C]-CA--N-[C] |==|  0.14264
USER: genes 8 Torsion [N]-C--CA-[N] |==|  0.94216
USER: genes 9 Torsion [C]-CA--CB-[CG1] |==|  0.96613
USER: genes 10 Torsion [C]-CA--N-[H3] |==|  0.20363
USER: genes 11 Torsion [C]-N--CA-[CB] |==|  0.72853
USER: genes 12 Torsion [N]-CA--CB-[CG] |==|  0.97412
USER: genes 13 Torsion [CA]-CB--CG-[CD] |==|  0.44060
USER: genes 14 Torsion [CB]-CG--CD-[NE] |==|  0.18166
USER: genes 15 Torsion [CG]-CD--NE-[HE] |==|  0.16730
USER: genes 16 Torsion [N]-CA--C-[N] |==|  0.75290
USER: genes 17 Torsion [C]-N--CA-[CB] |==|  0.17335
USER: genes 18 Torsion [N]-CA--CB-[OG] |==|  0.77086
USER: genes 19 Torsion [CA]-CB--OG-[HG] |==|  0.12683
USER: genes 20 Torsion [N]-CA--C-[O] |==|  0.96819
ROOT
ATOM      1  C   PHE B   3      16.127  17.389   2.740  0.50 54.14 LIG 0.24  C 
ATOM      2 O    PHE B   3      16.503  16.238   2.998  0.50 54.24 LIG-0.27  OA
ATOM      3  N   ARG B   4      16.947  18.423   2.481  0.50 53.92 LIG-0.35  N 
ATOM      4 H    ARG B   4      16.634  19.210   2.334  0.50 53.92 LIG 0.16  HD
ENDROOT
BRANCH 1 5
ATOM      5  CA  PHE B   3      14.662  17.847   2.882  0.50 54.27 LIG 0.18  C 
BRANCH 5 6
ATOM      6  CB  PHE B   3      14.305  16.722   3.860  0.50 54.22 LIG 0.07  C 
BRANCH 6 7
ATOM      7  CG  PHE B   3      12.859  16.358   4.028  0.50 54.33 LIG-0.06  A 
ATOM      8  CD1 PHE B   3      12.395  15.085   4.306  0.50 54.51 LIG 0.01  A 
ATOM      9  CE1 PHE B   3      11.021  14.880   4.522  0.50 54.50 LIG 0.00  A 
ATOM     10  CZ  PHE B   3      10.138  15.956   4.486  0.50 54.39 LIG 0.00  A 
ATOM     11  CE2 PHE B   3      10.613  17.218   4.240  0.50 54.37 LIG 0.00  A 
ATOM     12  CD2 PHE B   3      11.951  17.410   4.027  0.50 54.38 LIG 0.01  A 
ENDBRANCH 6 7
ENDBRANCH 5 6
BRANCH 5 13
ATOM     13  N   PHE B   3      13.827  17.852   1.632  0.50 54.44 LIG-0.35  N 
ATOM     14  C   ALA B   2      13.842  16.836   0.747  0.50 54.50 LIG 0.24  C 
ATOM     15 O    ALA B   2      14.296  15.748   0.954  0.50 54.60 LIG-0.27  OA
ATOM     16 H    PHE B   3      13.345  18.557   1.536  0.50 54.44 LIG 0.16  HD
BRANCH 14 17
ATOM     17  CA  ALA B   2      12.960  16.885  -0.564  0.50 54.51 LIG 0.17  C 
ATOM     18  CB  ALA B   2      12.824  18.322  -1.096  0.50 54.51 LIG 0.04  C 
BRANCH 17 19
ATOM     19  N   ALA B   2      11.663  16.149  -0.618  0.50 54.51 LIG-0.35  N 
ATOM     20  C   VAL B   1      10.711  16.274   0.323  0.50 54.58 LIG 0.25  C 
ATOM     21 O    VAL B   1      10.907  16.851   1.397  0.50 54.60 LIG-0.27  OA
ATOM     22 H    ALA B   2      11.583  15.639  -1.305  0.50 54.51 LIG 0.16  HD
BRANCH 20 23
ATOM     23  CA  VAL B   1       9.348  15.574   0.040  0.50 54.68 LIG 0.28  C 
BRANCH 23 24
ATOM     24  CB  VAL B   1       9.063  14.265   0.886  0.50 54.64 LIG 0.02  C 
ATOM     25  CG1 VAL B   1      10.319  13.790   1.600  0.50 54.60 LIG 0.01  C 
ATOM     26  CG2 VAL B   1       7.974  14.457   1.897  0.50 55.61 LIG 0.01  C 
ENDBRANCH 23 24
BRANCH 23 27
ATOM     27  N   VAL B   1       9.177  15.315  -1.417  0.50 54.62 LIG-0.07  N 
ATOM     28 H1   VAL B   1       8.330  15.096  -1.582  0.50 54.62 LIG 0.28  HD
ATOM     29 H2   VAL B   1       9.389  16.047  -1.876  0.50 54.62 LIG 0.28  HD
ATOM     30 H3   VAL B   1       9.708  14.646  -1.665  0.50 54.62 LIG 0.28  HD
ENDBRANCH 23 27
ENDBRANCH 20 23
ENDBRANCH 17 19
ENDBRANCH 14 17
ENDBRANCH 5 13
ENDBRANCH 1 5
BRANCH 3 31
ATOM     31  CA  ARG B   4      18.412  18.397   2.408  0.50 53.70 LIG 0.18  C 
BRANCH 31 32
ATOM     32  CB  ARG B   4      19.017  18.859   3.716  0.50 53.42 LIG 0.04  C 
BRANCH 32 33
ATOM     33  CG  ARG B   4      18.041  19.422   4.655  0.50 52.08 LIG 0.02  C 
BRANCH 33 34
ATOM     34  CD  ARG B   4      18.653  19.326   5.967  0.50 49.49 LIG 0.14  C 
BRANCH 34 35
ATOM     35  NE  ARG B   4      19.831  20.120   6.179  0.50 47.76 LIG-0.23  N 
ATOM     36 HE   ARG B   4      19.790  20.976   6.104  0.50 47.76 LIG 0.18  HD
ATOM     37  CZ  ARG B   4      20.969  19.547   6.486  0.50 46.12 LIG 0.67  C 
ATOM     38  NH1 ARG B   4      20.992  18.223   6.591  0.50 45.18 LIG-0.23  N 
ATOM     39  NH2 ARG B   4      22.059  20.261   6.690  0.50 44.70 LIG-0.23  N 
ATOM     40 11HH ARG B   4      20.273  17.769   6.458  0.50 45.18 LIG 0.17  HD
ATOM     41 12HH ARG B   4      21.725  17.820   6.791  0.50 45.18 LIG 0.17  HD
ATOM     42 21HH ARG B   4      22.031  21.118   6.622  0.50 44.70 LIG 0.17  HD
ATOM     43 22HH ARG B   4      22.799  19.869   6.892  0.50 44.70 LIG 0.17  HD
ENDBRANCH 34 35
ENDBRANCH 33 34
ENDBRANCH 32 33
ENDBRANCH 31 32
BRANCH 31 44
ATOM     44  C   ARG B   4      18.976  16.987   2.306  0.50 54.09 LIG 0.24  C 
ATOM     45 O    ARG B   4      19.103  16.403   1.234  0.50 54.04 LIG-0.27  OA
ATOM     46  N   SER B   5      19.204  16.443   3.498  0.50 54.63 LIG-0.35  N 
ATOM     47 H    SER B   5      19.101  16.904   4.217  0.50 54.63 LIG 0.16  HD
BRANCH 46 48
ATOM     48  CA  SER B   5      19.637  15.072   3.798  0.50 55.09 LIG 0.18  C 
BRANCH 48 49
ATOM     49  CB  SER B   5      21.014  14.823   3.188  0.50 55.14 LIG 0.20  C 
BRANCH 49 50
ATOM     50 OG   SER B   5      20.888  14.483   1.817  0.50 55.40 LIG-0.40  OA
ATOM     51 HG   SER B   5      20.350  15.011   1.446  0.50 55.40 LIG 0.21  HD
ENDBRANCH 49 50
ENDBRANCH 48 49
BRANCH 48 52
ATOM     52  C   SER B   5      19.643  14.501   5.212  0.50 55.23 LIG 0.31  A 
ATOM     53 OXT  SER B   5      19.480  15.033   6.307  0.50 55.49 LIG-0.19  OA
ATOM     54 O    SER B   5      19.473  15.344   6.091  0.50 55.48 LIG-0.19  OA
ENDBRANCH 48 52
ENDBRANCH 46 48
ENDBRANCH 31 44
ENDBRANCH 3 31
TORSDOF 19
ENDMDL
MODEL 12
USER: ADFR SOLUTION from run 130
USER: SCORE 16.113897 LL:  -3.792 LR: -14.946 RR:   0.000 FEB:  -9.278
USER: RMSD 8.351621
USER: SEED 129
USER: STATUS no improvement in best 6 clusters for 5 generations
USER: GENES 21
USER: genes 0 Translation |==|  0.51692 0.46249 0.56518
USER: genes 1 Rotation |==|  0.25064 0.26336 0.13743 0.51904
USER: genes 2 Torsion [N]-C--CA-[N] |==|  0.88377
USER: genes 3 Torsion [C]-CA--CB-[CG] |==|  0.65703
USER: genes 4 Torsion [CA]-CB--CG-[CD1] |==|  0.19100
USER: genes 5 Torsion [C]-CA--N-[C] |==|  0.50830
USER: genes 6 Torsion [N]-C--CA-[N] |==|  0.38117
USER: genes 7 Torsion [C]-CA--N-[C] |==|  0.64114
USER: genes 8 Torsion [N]-C--CA-[N] |==|  0.32077
USER: genes 9 Torsion [C]-CA--CB-[CG1] |==|  0.00553
USER: genes 10 Torsion [C]-CA--N-[H3] |==|  0.47754
USER: genes 11 Torsion [C]-N--CA-[CB] |==|  0.52858
USER: genes 12 Torsion [N]-CA--CB-[CG] |==|  0.43853
USER: genes 13 Torsion [CA]-CB--CG-[CD] |==|  0.43360
USER: genes 14 Torsion [CB]-CG--CD-[NE] |==|  0.14516
USER: genes 15 Torsion [CG]-CD--NE-[HE] |==|  0.81501
USER: genes 16 Torsion [N]-CA--C-[N] |==|  0.87290
USER: genes 17 Torsion [C]-N--CA-[CB] |==|  0.66106
USER: genes 18 Torsion [N]-CA--CB-[OG] |==|  0.93168
USER: genes 19 Torsion [CA]-CB--OG-[HG] |==|  0.47517
USER: genes 20 Torsion [N]-CA--C-[O] |==|  0.22540
ROOT
ATOM      1  C   PHE B   3      13.088  12.315   6.196  0.50 54.14 LIG 0.24  C 
ATOM      2 O    PHE B   3      13.344  11.932   7.344  0.50 54.24 LIG-0.27  OA
ATOM      3  N   ARG B   4      13.165  11.544   5.097  0.50 53.92 LIG-0.35  N 
ATOM      4 H    ARG B   4      13.001  11.867   4.317  0.50 53.92 LIG 0.16  HD
ENDROOT
BRANCH 1 5
ATOM      5  CA  PHE B   3      12.840  13.794   5.837  0.50 54.27 LIG 0.18  C 
BRANCH 5 6
ATOM      6  CB  PHE B   3      11.352  13.574   5.545  0.50 54.22 LIG 0.07  C 
BRANCH 6 7
ATOM      7  CG  PHE B   3      10.828  13.963   4.193  0.50 54.33 LIG-0.06  A 
ATOM      8  CD1 PHE B   3      11.146  13.319   3.011  0.50 54.51 LIG 0.01  A 
ATOM      9  CE1 PHE B   3      10.530  13.725   1.814  0.50 54.50 LIG 0.00  A 
ATOM     10  CZ  PHE B   3       9.585  14.748   1.824  0.50 54.39 LIG 0.00  A 
ATOM     11  CE2 PHE B   3       9.255  15.357   3.006  0.50 54.37 LIG 0.00  A 
ATOM     12  CD2 PHE B   3       9.862  14.961   4.167  0.50 54.38 LIG 0.01  A 
ENDBRANCH 6 7
ENDBRANCH 5 6
BRANCH 5 13
ATOM     13  N   PHE B   3      13.612  14.349   4.673  0.50 54.44 LIG-0.35  N 
ATOM     14  C   ALA B   2      13.528  15.641   4.298  0.50 54.50 LIG 0.24  C 
ATOM     15 O    ALA B   2      13.059  16.521   4.959  0.50 54.60 LIG-0.27  OA
ATOM     16 H    PHE B   3      14.107  13.771   4.273  0.50 54.44 LIG 0.16  HD
BRANCH 14 17
ATOM     17  CA  ALA B   2      14.346  16.184   3.059  0.50 54.51 LIG 0.17  C 
ATOM     18  CB  ALA B   2      15.738  16.685   3.480  0.50 54.51 LIG 0.04  C 
BRANCH 17 19
ATOM     19  N   ALA B   2      13.695  17.108   2.085  0.50 54.51 LIG-0.35  N 
ATOM     20  C   VAL B   1      13.716  16.905   0.755  0.50 54.58 LIG 0.25  C 
ATOM     21 O    VAL B   1      14.434  16.052   0.224  0.50 54.60 LIG-0.27  OA
ATOM     22 H    ALA B   2      13.306  17.781   2.453  0.50 54.51 LIG 0.16  HD
BRANCH 20 23
ATOM     23  CA  VAL B   1      12.849  17.863  -0.114  0.50 54.68 LIG 0.28  C 
BRANCH 23 24
ATOM     24  CB  VAL B   1      11.676  17.174  -0.927  0.50 54.64 LIG 0.02  C 
ATOM     25  CG1 VAL B   1      11.613  15.682  -0.639  0.50 54.60 LIG 0.01  C 
ATOM     26  CG2 VAL B   1      10.338  17.781  -0.635  0.50 55.61 LIG 0.01  C 
ENDBRANCH 23 24
BRANCH 23 27
ATOM     27  N   VAL B   1      13.705  18.689  -1.010  0.50 54.62 LIG-0.07  N 
ATOM     28 H1   VAL B   1      14.181  19.261  -0.522  0.50 54.62 LIG 0.28  HD
ATOM     29 H2   VAL B   1      14.256  18.160  -1.467  0.50 54.62 LIG 0.28  HD
ATOM     30 H3   VAL B   1      13.191  19.142  -1.578  0.50 54.62 LIG 0.28  HD
ENDBRANCH 23 27
ENDBRANCH 20 23
ENDBRANCH 17 19
ENDBRANCH 14 17
ENDBRANCH 5 13
ENDBRANCH 1 5
BRANCH 3 31
ATOM     31  CA  ARG B   4      13.515  10.121   5.034  0.50 53.70 LIG 0.18  C 
BRANCH 31 32
ATOM     32  CB  ARG B   4      13.733   9.691   3.600  0.50 53.42 LIG 0.04  C 
BRANCH 32 33
ATOM     33  CG  ARG B   4      14.558   8.486   3.461  0.50 52.08 LIG 0.02  C 
BRANCH 33 34
ATOM     34  CD  ARG B   4      14.199   7.907   2.179  0.50 49.49 LIG 0.14  C 
BRANCH 34 35
ATOM     35  NE  ARG B   4      14.254   8.788   1.045  0.50 47.76 LIG-0.23  N 
ATOM     36 HE   ARG B   4      13.704   9.447   0.988  0.50 47.76 LIG 0.18  HD
ATOM     37  CZ  ARG B   4      15.138   8.593   0.098  0.50 46.12 LIG 0.67  C 
ATOM     38  NH1 ARG B   4      15.968   7.563   0.223  0.50 45.18 LIG-0.23  N 
ATOM     39  NH2 ARG B   4      15.206   9.394  -0.947  0.50 44.70 LIG-0.23  N 
ATOM     40 11HH ARG B   4      15.916   7.049   0.911  0.50 45.18 LIG 0.17  HD
ATOM     41 12HH ARG B   4      16.558   7.411  -0.384  0.50 45.18 LIG 0.17  HD
ATOM     42 21HH ARG B   4      14.665  10.059  -1.016  0.50 44.70 LIG 0.17  HD
ATOM     43 22HH ARG B   4      15.793   9.252  -1.561  0.50 44.70 LIG 0.17  HD
ENDBRANCH 34 35
ENDBRANCH 33 34
ENDBRANCH 32 33
ENDBRANCH 31 32
BRANCH 31 44
ATOM     44  C   ARG B   4      14.876   9.817   5.643  0.50 54.09 LIG 0.24  C 
ATOM     45 O    ARG B   4      15.043   8.935   6.481  0.50 54.04 LIG-0.27  OA
ATOM     46  N   SER B   5      15.812  10.674   5.247  0.50 54.63 LIG-0.35  N 
ATOM     47 H    SER B   5      15.638  11.270   4.652  0.50 54.63 LIG 0.16  HD
BRANCH 46 48
ATOM     48  CA  SER B   5      17.206  10.766   5.704  0.50 55.09 LIG 0.18  C 
BRANCH 48 49
ATOM     49  CB  SER B   5      17.469  12.161   6.268  0.50 55.14 LIG 0.20  C 
BRANCH 49 50
ATOM     50 OG   SER B   5      16.563  13.095   5.704  0.50 55.40 LIG-0.40  OA
ATOM     51 HG   SER B   5      16.633  13.830   6.106  0.50 55.40 LIG 0.21  HD
ENDBRANCH 49 50
ENDBRANCH 48 49
BRANCH 48 52
ATOM     52  C   SER B   5      17.827   9.753   6.659  0.50 55.23 LIG 0.31  A 
ATOM     53 OXT  SER B   5      18.326   8.647   6.464  0.50 55.49 LIG-0.19  OA
ATOM     54 O    SER B   5      18.206   8.718   6.112  0.50 55.48 LIG-0.19  OA
ENDBRANCH 48 52
ENDBRANCH 46 48
ENDBRANCH 31 44
ENDBRANCH 3 31
TORSDOF 19
ENDMDL
MODEL 13
USER: ADFR SOLUTION from run 54
USER: SCORE 16.809524 LL:  -2.991 LR: -14.872 RR:   0.000 FEB:  -9.204
USER: RMSD 9.680870
USER: SEED 53
USER: STATUS no improvement in best 9 clusters for 5 generations
USER: GENES 21
USER: genes 0 Translation |==|  0.60602 0.58463 0.45064
USER: genes 1 Rotation |==|  0.27288 0.09021 0.67459 0.50256
USER: genes 2 Torsion [N]-C--CA-[N] |==|  0.14315
USER: genes 3 Torsion [C]-CA--CB-[CG] |==|  0.44642
USER: genes 4 Torsion [CA]-CB--CG-[CD1] |==|  0.03604
USER: genes 5 Torsion [C]-CA--N-[C] |==|  0.56112
USER: genes 6 Torsion [N]-C--CA-[N] |==|  0.36284
USER: genes 7 Torsion [C]-CA--N-[C] |==|  0.84933
USER: genes 8 Torsion [N]-C--CA-[N] |==|  0.33082
USER: genes 9 Torsion [C]-CA--CB-[CG1] |==|  0.13763
USER: genes 10 Torsion [C]-CA--N-[H3] |==|  0.54961
USER: genes 11 Torsion [C]-N--CA-[CB] |==|  0.66122
USER: genes 12 Torsion [N]-CA--CB-[CG] |==|  0.68850
USER: genes 13 Torsion [CA]-CB--CG-[CD] |==|  0.32812
USER: genes 14 Torsion [CB]-CG--CD-[NE] |==|  0.87209
USER: genes 15 Torsion [CG]-CD--NE-[HE] |==|  0.17388
USER: genes 16 Torsion [N]-CA--C-[N] |==|  0.28576
USER: genes 17 Torsion [C]-N--CA-[CB] |==|  0.43268
USER: genes 18 Torsion [N]-CA--CB-[OG] |==|  0.83600
USER: genes 19 Torsion [CA]-CB--OG-[HG] |==|  0.62563
USER: genes 20 Torsion [N]-CA--C-[O] |==|  0.40333
ROOT
ATOM      1  C   PHE B   3      15.761  15.979   2.759  0.50 54.14 LIG 0.24  C 
ATOM      2 O    PHE B   3      16.237  16.812   1.978  0.50 54.24 LIG-0.27  OA
ATOM      3  N   ARG B   4      16.461  15.321   3.699  0.50 53.92 LIG-0.35  N 
ATOM      4 H    ARG B   4      16.087  14.730   4.199  0.50 53.92 LIG 0.16  HD
ENDROOT
BRANCH 1 5
ATOM      5  CA  PHE B   3      14.328  15.425   2.626  0.50 54.27 LIG 0.18  C 
BRANCH 5 6
ATOM      6  CB  PHE B   3      13.870  16.563   1.708  0.50 54.22 LIG 0.07  C 
BRANCH 6 7
ATOM      7  CG  PHE B   3      12.642  16.352   0.871  0.50 54.33 LIG-0.06  A 
ATOM      8  CD1 PHE B   3      11.742  15.316   1.044  0.50 54.51 LIG 0.01  A 
ATOM      9  CE1 PHE B   3      10.583  15.265   0.249  0.50 54.50 LIG 0.00  A 
ATOM     10  CZ  PHE B   3      10.329  16.268  -0.683  0.50 54.39 LIG 0.00  A 
ATOM     11  CE2 PHE B   3      11.213  17.306  -0.823  0.50 54.37 LIG 0.00  A 
ATOM     12  CD2 PHE B   3      12.341  17.346  -0.050  0.50 54.38 LIG 0.01  A 
ENDBRANCH 6 7
ENDBRANCH 5 6
BRANCH 5 13
ATOM     13  N   PHE B   3      13.525  15.305   3.891  0.50 54.44 LIG-0.35  N 
ATOM     14  C   ALA B   2      12.474  14.470   4.005  0.50 54.50 LIG 0.24  C 
ATOM     15 O    ALA B   2      12.215  13.579   3.248  0.50 54.60 LIG-0.27  OA
ATOM     16 H    PHE B   3      13.797  15.814   4.528  0.50 54.44 LIG 0.16  HD
BRANCH 14 17
ATOM     17  CA  ALA B   2      11.645  14.382   5.349  0.50 54.51 LIG 0.17  C 
ATOM     18  CB  ALA B   2      12.129  13.220   6.233  0.50 54.51 LIG 0.04  C 
BRANCH 17 19
ATOM     19  N   ALA B   2      10.156  14.469   5.313  0.50 54.51 LIG-0.35  N 
ATOM     20  C   VAL B   1       9.496  15.485   4.730  0.50 54.58 LIG 0.25  C 
ATOM     21 O    VAL B   1      10.060  16.517   4.352  0.50 54.60 LIG-0.27  OA
ATOM     22 H    ALA B   2       9.762  13.810   5.699  0.50 54.51 LIG 0.16  HD
BRANCH 20 23
ATOM     23  CA  VAL B   1       7.948  15.347   4.625  0.50 54.68 LIG 0.28  C 
BRANCH 23 24
ATOM     24  CB  VAL B   1       7.372  15.209   3.155  0.50 54.64 LIG 0.02  C 
ATOM     25  CG1 VAL B   1       8.118  14.140   2.373  0.50 54.60 LIG 0.01  C 
ATOM     26  CG2 VAL B   1       5.908  14.890   3.136  0.50 55.61 LIG 0.01  C 
ENDBRANCH 23 24
BRANCH 23 27
ATOM     27  N   VAL B   1       7.264  16.444   5.365  0.50 54.62 LIG-0.07  N 
ATOM     28 H1   VAL B   1       7.677  16.580   6.142  0.50 54.62 LIG 0.28  HD
ATOM     29 H2   VAL B   1       7.290  17.190   4.881  0.50 54.62 LIG 0.28  HD
ATOM     30 H3   VAL B   1       6.417  16.217   5.516  0.50 54.62 LIG 0.28  HD
ENDBRANCH 23 27
ENDBRANCH 20 23
ENDBRANCH 17 19
ENDBRANCH 14 17
ENDBRANCH 5 13
ENDBRANCH 1 5
BRANCH 3 31
ATOM     31  CA  ARG B   4      17.885  15.479   4.017  0.50 53.70 LIG 0.18  C 
BRANCH 31 32
ATOM     32  CB  ARG B   4      18.612  14.161   3.865  0.50 53.42 LIG 0.04  C 
BRANCH 32 33
ATOM     33  CG  ARG B   4      19.095  13.600   5.131  0.50 52.08 LIG 0.02  C 
BRANCH 33 34
ATOM     34  CD  ARG B   4      18.410  12.330   5.287  0.50 49.49 LIG 0.14  C 
BRANCH 34 35
ATOM     35  NE  ARG B   4      16.996  12.333   5.031  0.50 47.76 LIG-0.23  N 
ATOM     36 HE   ARG B   4      16.703  12.530   4.247  0.50 47.76 LIG 0.18  HD
ATOM     37  CZ  ARG B   4      16.151  12.039   5.988  0.50 46.12 LIG 0.67  C 
ATOM     38  NH1 ARG B   4      16.643  11.742   7.185  0.50 45.18 LIG-0.23  N 
ATOM     39  NH2 ARG B   4      14.850  12.032   5.771  0.50 44.70 LIG-0.23  N 
ATOM     40 11HH ARG B   4      17.493  11.748   7.314  0.50 45.18 LIG 0.17  HD
ATOM     41 12HH ARG B   4      16.111  11.545   7.832  0.50 45.18 LIG 0.17  HD
ATOM     42 21HH ARG B   4      14.543  12.223   4.990  0.50 44.70 LIG 0.17  HD
ATOM     43 22HH ARG B   4      14.308  11.836   6.410  0.50 44.70 LIG 0.17  HD
ENDBRANCH 34 35
ENDBRANCH 33 34
ENDBRANCH 32 33
ENDBRANCH 31 32
BRANCH 31 44
ATOM     44  C   ARG B   4      18.627  16.342   3.006  0.50 54.09 LIG 0.24  C 
ATOM     45 O    ARG B   4      19.046  15.898   1.941  0.50 54.04 LIG-0.27  OA
ATOM     46  N   SER B   5      18.853  17.572   3.457  0.50 54.63 LIG-0.35  N 
ATOM     47 H    SER B   5      18.530  17.829   4.212  0.50 54.63 LIG 0.16  HD
BRANCH 46 48
ATOM     48  CA  SER B   5      19.631  18.641   2.816  0.50 55.09 LIG 0.18  C 
BRANCH 48 49
ATOM     49  CB  SER B   5      19.157  19.999   3.330  0.50 55.14 LIG 0.20  C 
BRANCH 49 50
ATOM     50 OG   SER B   5      17.777  20.173   3.050  0.50 55.40 LIG-0.40  OA
ATOM     51 HG   SER B   5      17.650  20.944   2.740  0.50 55.40 LIG 0.21  HD
ENDBRANCH 49 50
ENDBRANCH 48 49
BRANCH 48 52
ATOM     52  C   SER B   5      21.155  18.655   2.801  0.50 55.23 LIG 0.31  A 
ATOM     53 OXT  SER B   5      21.960  19.065   1.968  0.50 55.49 LIG-0.19  OA
ATOM     54 O    SER B   5      21.641  19.124   1.773  0.50 55.48 LIG-0.19  OA
ENDBRANCH 48 52
ENDBRANCH 46 48
ENDBRANCH 31 44
ENDBRANCH 3 31
TORSDOF 19
ENDMDL
MODEL 14
USER: ADFR SOLUTION from run 106
USER: SCORE 15.932866 LL:  -2.798 LR: -14.795 RR:   0.000 FEB:  -9.128
USER: RMSD 12.009460
USER: SEED 105
USER: STATUS no improvement in best 4 clusters for 5 generations
USER: GENES 21
USER: genes 0 Translation |==|  0.66902 0.67877 0.52421
USER: genes 1 Rotation |==|  0.59158 0.98439 0.54422 0.57092
USER: genes 2 Torsion [N]-C--CA-[N] |==|  0.38069
USER: genes 3 Torsion [C]-CA--CB-[CG] |==|  0.26297
USER: genes 4 Torsion [CA]-CB--CG-[CD1] |==|  0.06268
USER: genes 5 Torsion [C]-CA--N-[C] |==|  0.52804
USER: genes 6 Torsion [N]-C--CA-[N] |==|  0.48478
USER: genes 7 Torsion [C]-CA--N-[C] |==|  0.27124
USER: genes 8 Torsion [N]-C--CA-[N] |==|  0.48049
USER: genes 9 Torsion [C]-CA--CB-[CG1] |==|  0.76001
USER: genes 10 Torsion [C]-CA--N-[H3] |==|  0.00425
USER: genes 11 Torsion [C]-N--CA-[CB] |==|  0.83219
USER: genes 12 Torsion [N]-CA--CB-[CG] |==|  0.81893
USER: genes 13 Torsion [CA]-CB--CG-[CD] |==|  0.63833
USER: genes 14 Torsion [CB]-CG--CD-[NE] |==|  0.86239
USER: genes 15 Torsion [CG]-CD--NE-[HE] |==|  0.15905
USER: genes 16 Torsion [N]-CA--C-[N] |==|  0.41597
USER: genes 17 Torsion [C]-N--CA-[CB] |==|  0.79845
USER: genes 18 Torsion [N]-CA--CB-[OG] |==|  0.83502
USER: genes 19 Torsion [CA]-CB--OG-[HG] |==|  0.31111
USER: genes 20 Torsion [N]-CA--C-[O] |==|  0.71813
ROOT
ATOM      1  C   PHE B   3      17.651  18.803   4.966  0.50 54.14 LIG 0.24  C 
ATOM      2 O    PHE B   3      17.476  20.021   5.104  0.50 54.24 LIG-0.27  OA
ATOM      3  N   ARG B   4      18.461  18.054   5.734  0.50 53.92 LIG-0.35  N 
ATOM      4 H    ARG B   4      18.567  17.215   5.579  0.50 53.92 LIG 0.16  HD
ENDROOT
BRANCH 1 5
ATOM      5  CA  PHE B   3      17.116  18.009   3.758  0.50 54.27 LIG 0.18  C 
BRANCH 5 6
ATOM      6  CB  PHE B   3      18.063  18.694   2.767  0.50 54.22 LIG 0.07  C 
BRANCH 6 7
ATOM      7  CG  PHE B   3      19.363  18.018   2.443  0.50 54.33 LIG-0.06  A 
ATOM      8  CD1 PHE B   3      19.605  16.664   2.592  0.50 54.51 LIG 0.01  A 
ATOM      9  CE1 PHE B   3      20.838  16.131   2.180  0.50 54.50 LIG 0.00  A 
ATOM     10  CZ  PHE B   3      21.798  16.955   1.597  0.50 54.39 LIG 0.00  A 
ATOM     11  CE2 PHE B   3      21.536  18.289   1.426  0.50 54.37 LIG 0.00  A 
ATOM     12  CD2 PHE B   3      20.334  18.802   1.834  0.50 54.38 LIG 0.01  A 
ENDBRANCH 6 7
ENDBRANCH 5 6
BRANCH 5 13
ATOM     13  N   PHE B   3      15.660  18.178   3.423  0.50 54.44 LIG-0.35  N 
ATOM     14  C   ALA B   2      15.028  17.397   2.525  0.50 54.50 LIG 0.24  C 
ATOM     15 O    ALA B   2      15.449  16.363   2.093  0.50 54.60 LIG-0.27  OA
ATOM     16 H    PHE B   3      15.274  18.814   3.854  0.50 54.44 LIG 0.16  HD
BRANCH 14 17
ATOM     17  CA  ALA B   2      13.499  17.616   2.190  0.50 54.51 LIG 0.17  C 
ATOM     18  CB  ALA B   2      12.642  17.643   3.467  0.50 54.51 LIG 0.04  C 
BRANCH 17 19
ATOM     19  N   ALA B   2      12.853  16.820   1.105  0.50 54.51 LIG-0.35  N 
ATOM     20  C   VAL B   1      12.130  15.711   1.341  0.50 54.58 LIG 0.25  C 
ATOM     21 O    VAL B   1      12.105  15.155   2.444  0.50 54.60 LIG-0.27  OA
ATOM     22 H    ALA B   2      12.987  17.137   0.317  0.50 54.51 LIG 0.16  HD
BRANCH 20 23
ATOM     23  CA  VAL B   1      11.381  15.090   0.125  0.50 54.68 LIG 0.28  C 
BRANCH 23 24
ATOM     24  CB  VAL B   1      10.326  16.037  -0.583  0.50 54.64 LIG 0.02  C 
ATOM     25  CG1 VAL B   1       8.969  15.952   0.098  0.50 54.60 LIG 0.01  C 
ATOM     26  CG2 VAL B   1      10.764  17.470  -0.612  0.50 55.61 LIG 0.01  C 
ENDBRANCH 23 24
BRANCH 23 27
ATOM     27  N   VAL B   1      10.765  13.785   0.490  0.50 54.62 LIG-0.07  N 
ATOM     28 H1   VAL B   1       9.886  13.821   0.353  0.50 54.62 LIG 0.28  HD
ATOM     29 H2   VAL B   1      11.116  13.139  -0.012  0.50 54.62 LIG 0.28  HD
ATOM     30 H3   VAL B   1      10.923  13.611   1.348  0.50 54.62 LIG 0.28  HD
ENDBRANCH 23 27
ENDBRANCH 20 23
ENDBRANCH 17 19
ENDBRANCH 14 17
ENDBRANCH 5 13
ENDBRANCH 1 5
BRANCH 3 31
ATOM     31  CA  ARG B   4      19.251  18.498   6.888  0.50 53.70 LIG 0.18  C 
BRANCH 31 32
ATOM     32  CB  ARG B   4      20.238  19.567   6.475  0.50 53.42 LIG 0.04  C 
BRANCH 32 33
ATOM     33  CG  ARG B   4      21.270  19.095   5.545  0.50 52.08 LIG 0.02  C 
BRANCH 33 34
ATOM     34  CD  ARG B   4      22.536  19.535   6.103  0.50 49.49 LIG 0.14  C 
BRANCH 34 35
ATOM     35  NE  ARG B   4      22.616  20.917   6.487  0.50 47.76 LIG-0.23  N 
ATOM     36 HE   ARG B   4      22.057  21.237   7.056  0.50 47.76 LIG 0.18  HD
ATOM     37  CZ  ARG B   4      23.538  21.693   5.972  0.50 46.12 LIG 0.67  C 
ATOM     38  NH1 ARG B   4      24.381  21.162   5.094  0.50 45.18 LIG-0.23  N 
ATOM     39  NH2 ARG B   4      23.631  22.963   6.316  0.50 44.70 LIG-0.23  N 
ATOM     40 11HH ARG B   4      24.312  20.332   4.879  0.50 45.18 LIG 0.17  HD
ATOM     41 12HH ARG B   4      24.996  21.648   4.739  0.50 45.18 LIG 0.17  HD
ATOM     42 21HH ARG B   4      23.080  23.295   6.887  0.50 44.70 LIG 0.17  HD
ATOM     43 22HH ARG B   4      24.242  23.460   5.968  0.50 44.70 LIG 0.17  HD
ENDBRANCH 34 35
ENDBRANCH 33 34
ENDBRANCH 32 33
ENDBRANCH 31 32
BRANCH 31 44
ATOM     44  C   ARG B   4      18.422  19.247   7.921  0.50 54.09 LIG 0.24  C 
ATOM     45 O    ARG B   4      17.492  19.987   7.612  0.50 54.04 LIG-0.27  OA
ATOM     46  N   SER B   5      18.888  19.092   9.157  0.50 54.63 LIG-0.35  N 
ATOM     47 H    SER B   5      19.542  18.555   9.314  0.50 54.63 LIG 0.16  HD
BRANCH 46 48
ATOM     48  CA  SER B   5      18.423  19.745  10.388  0.50 55.09 LIG 0.18  C 
BRANCH 48 49
ATOM     49  CB  SER B   5      18.852  21.210  10.384  0.50 55.14 LIG 0.20  C 
BRANCH 49 50
ATOM     50 OG   SER B   5      20.265  21.307  10.301  0.50 55.40 LIG-0.40  OA
ATOM     51 HG   SER B   5      20.480  21.633   9.557  0.50 55.40 LIG 0.21  HD
ENDBRANCH 49 50
ENDBRANCH 48 49
BRANCH 48 52
ATOM     52  C   SER B   5      16.973  19.685  10.854  0.50 55.23 LIG 0.31  A 
ATOM     53 OXT  SER B   5      16.052  20.493  10.761  0.50 55.49 LIG-0.19  OA
ATOM     54 O    SER B   5      16.329  20.706  10.616  0.50 55.48 LIG-0.19  OA
ENDBRANCH 48 52
ENDBRANCH 46 48
ENDBRANCH 31 44
ENDBRANCH 3 31
TORSDOF 19
ENDMDL
MODEL 15
USER: ADFR SOLUTION from run 24
USER: SCORE 16.178397 LL:  -3.353 LR: -14.716 RR:   0.000 FEB:  -9.049
USER: RMSD 7.298362
USER: SEED 23
USER: STATUS no improvement in best 9 clusters for 5 generations
USER: GENES 21
USER: genes 0 Translation |==|  0.51571 0.59087 0.48965
USER: genes 1 Rotation |==|  0.50537 0.80863 0.77709 0.77918
USER: genes 2 Torsion [N]-C--CA-[N] |==|  0.87706
USER: genes 3 Torsion [C]-CA--CB-[CG] |==|  0.25020
USER: genes 4 Torsion [CA]-CB--CG-[CD1] |==|  0.70853
USER: genes 5 Torsion [C]-CA--N-[C] |==|  0.60912
USER: genes 6 Torsion [N]-C--CA-[N] |==|  0.68984
USER: genes 7 Torsion [C]-CA--N-[C] |==|  0.63995
USER: genes 8 Torsion [N]-C--CA-[N] |==|  0.72659
USER: genes 9 Torsion [C]-CA--CB-[CG1] |==|  0.44200
USER: genes 10 Torsion [C]-CA--N-[H3] |==|  0.26613
USER: genes 11 Torsion [C]-N--CA-[CB] |==|  0.22222
USER: genes 12 Torsion [N]-CA--CB-[CG] |==|  0.02071
USER: genes 13 Torsion [CA]-CB--CG-[CD] |==|  0.64289
USER: genes 14 Torsion [CB]-CG--CD-[NE] |==|  0.70567
USER: genes 15 Torsion [CG]-CD--NE-[HE] |==|  0.08506
USER: genes 16 Torsion [N]-CA--C-[N] |==|  0.82406
USER: genes 17 Torsion [C]-N--CA-[CB] |==|  0.45654
USER: genes 18 Torsion [N]-CA--CB-[OG] |==|  0.92807
USER: genes 19 Torsion [CA]-CB--OG-[HG] |==|  0.33151
USER: genes 20 Torsion [N]-CA--C-[O] |==|  0.98413
ROOT
ATOM      1  C   PHE B   3      13.051  16.166   3.929  0.50 54.14 LIG 0.24  C 
ATOM      2 O    PHE B   3      12.144  16.931   4.283  0.50 54.24 LIG-0.27  OA
ATOM      3  N   ARG B   4      13.255  14.936   4.431  0.50 53.92 LIG-0.35  N 
ATOM      4 H    ARG B   4      13.918  14.455   4.169  0.50 53.92 LIG 0.16  HD
ENDROOT
BRANCH 1 5
ATOM      5  CA  PHE B   3      14.205  16.602   3.004  0.50 54.27 LIG 0.18  C 
BRANCH 5 6
ATOM      6  CB  PHE B   3      13.757  15.691   1.856  0.50 54.22 LIG 0.07  C 
BRANCH 6 7
ATOM      7  CG  PHE B   3      12.797  16.244   0.843  0.50 54.33 LIG-0.06  A 
ATOM      8  CD1 PHE B   3      11.452  15.926   0.779  0.50 54.51 LIG 0.01  A 
ATOM      9  CE1 PHE B   3      10.633  16.568  -0.166  0.50 54.50 LIG 0.00  A 
ATOM     10  CZ  PHE B   3      11.166  17.539  -1.010  0.50 54.39 LIG 0.00  A 
ATOM     11  CE2 PHE B   3      12.494  17.868  -0.916  0.50 54.37 LIG 0.00  A 
ATOM     12  CD2 PHE B   3      13.286  17.235   0.003  0.50 54.38 LIG 0.01  A 
ENDBRANCH 6 7
ENDBRANCH 5 6
BRANCH 5 13
ATOM     13  N   PHE B   3      15.603  16.328   3.486  0.50 54.44 LIG-0.35  N 
ATOM     14  C   ALA B   2      16.615  17.200   3.305  0.50 54.50 LIG 0.24  C 
ATOM     15 O    ALA B   2      16.488  18.347   2.988  0.50 54.60 LIG-0.27  OA
ATOM     16 H    PHE B   3      15.694  15.571   3.883  0.50 54.44 LIG 0.16  HD
BRANCH 14 17
ATOM     17  CA  ALA B   2      18.075  16.869   3.814  0.50 54.51 LIG 0.17  C 
ATOM     18  CB  ALA B   2      18.277  15.355   3.994  0.50 54.51 LIG 0.04  C 
BRANCH 17 19
ATOM     19  N   ALA B   2      18.663  17.646   4.943  0.50 54.51 LIG-0.35  N 
ATOM     20  C   VAL B   1      19.882  18.212   4.887  0.50 54.58 LIG 0.25  C 
ATOM     21 O    VAL B   1      20.685  17.973   3.980  0.50 54.60 LIG-0.27  OA
ATOM     22 H    ALA B   2      18.151  17.697   5.632  0.50 54.51 LIG 0.16  HD
BRANCH 20 23
ATOM     23  CA  VAL B   1      20.284  19.131   6.079  0.50 54.68 LIG 0.28  C 
BRANCH 23 24
ATOM     24  CB  VAL B   1      19.624  18.770   7.473  0.50 54.64 LIG 0.02  C 
ATOM     25  CG1 VAL B   1      20.427  19.351   8.626  0.50 54.60 LIG 0.01  C 
ATOM     26  CG2 VAL B   1      18.207  19.246   7.582  0.50 55.61 LIG 0.01  C 
ENDBRANCH 23 24
BRANCH 23 27
ATOM     27  N   VAL B   1      20.067  20.565   5.741  0.50 54.62 LIG-0.07  N 
ATOM     28 H1   VAL B   1      20.707  21.059   6.114  0.50 54.62 LIG 0.28  HD
ATOM     29 H2   VAL B   1      20.091  20.669   4.857  0.50 54.62 LIG 0.28  HD
ATOM     30 H3   VAL B   1      19.274  20.827   6.049  0.50 54.62 LIG 0.28  HD
ENDBRANCH 23 27
ENDBRANCH 20 23
ENDBRANCH 17 19
ENDBRANCH 14 17
ENDBRANCH 5 13
ENDBRANCH 1 5
BRANCH 3 31
ATOM     31  CA  ARG B   4      12.445  14.243   5.439  0.50 53.70 LIG 0.18  C 
BRANCH 31 32
ATOM     32  CB  ARG B   4      11.208  13.644   4.806  0.50 53.42 LIG 0.04  C 
BRANCH 32 33
ATOM     33  CG  ARG B   4      11.187  13.735   3.342  0.50 52.08 LIG 0.02  C 
BRANCH 33 34
ATOM     34  CD  ARG B   4       9.906  14.326   3.001  0.50 49.49 LIG 0.14  C 
BRANCH 34 35
ATOM     35  NE  ARG B   4       8.923  13.437   2.445  0.50 47.76 LIG-0.23  N 
ATOM     36 HE   ARG B   4       8.917  12.608   2.674  0.50 47.76 LIG 0.18  HD
ATOM     37  CZ  ARG B   4       8.037  13.883   1.589  0.50 46.12 LIG 0.67  C 
ATOM     38  NH1 ARG B   4       8.082  15.169   1.259  0.50 45.18 LIG-0.23  N 
ATOM     39  NH2 ARG B   4       7.124  13.083   1.072  0.50 44.70 LIG-0.23  N 
ATOM     40 11HH ARG B   4       8.680  15.681   1.605  0.50 45.18 LIG 0.17  HD
ATOM     41 12HH ARG B   4       7.512  15.489   0.699  0.50 45.18 LIG 0.17  HD
ATOM     42 21HH ARG B   4       7.105  12.253   1.295  0.50 44.70 LIG 0.17  HD
ATOM     43 22HH ARG B   4       6.549  13.393   0.512  0.50 44.70 LIG 0.17  HD
ENDBRANCH 34 35
ENDBRANCH 33 34
ENDBRANCH 32 33
ENDBRANCH 31 32
BRANCH 31 44
ATOM     44  C   ARG B   4      13.123  12.999   5.994  0.50 54.09 LIG 0.24  C 
ATOM     45 O    ARG B   4      13.525  12.926   7.151  0.50 54.04 LIG-0.27  OA
ATOM     46  N   SER B   5      13.319  12.070   5.063  0.50 54.63 LIG-0.35  N 
ATOM     47 H    SER B   5      13.010  12.174   4.267  0.50 54.63 LIG 0.16  HD
BRANCH 46 48
ATOM     48  CA  SER B   5      14.037  10.795   5.196  0.50 55.09 LIG 0.18  C 
BRANCH 48 49
ATOM     49  CB  SER B   5      13.688   9.885   4.020  0.50 55.14 LIG 0.20  C 
BRANCH 49 50
ATOM     50 OG   SER B   5      12.412  10.223   3.501  0.50 55.40 LIG-0.40  OA
ATOM     51 HG   SER B   5      12.489  10.458   2.698  0.50 55.40 LIG 0.21  HD
ENDBRANCH 49 50
ENDBRANCH 48 49
BRANCH 48 52
ATOM     52  C   SER B   5      15.544  10.717   5.414  0.50 55.23 LIG 0.31  A 
ATOM     53 OXT  SER B   5      16.409  11.589   5.451  0.50 55.49 LIG-0.19  OA
ATOM     54 O    SER B   5      16.113  11.806   5.357  0.50 55.48 LIG-0.19  OA
ENDBRANCH 48 52
ENDBRANCH 46 48
ENDBRANCH 31 44
ENDBRANCH 3 31
TORSDOF 19
ENDMDL
MODEL 16
USER: ADFR SOLUTION from run 56
USER: SCORE 15.335178 LL:  -3.405 LR: -14.642 RR:   0.000 FEB:  -8.974
USER: RMSD 7.239803
USER: SEED 55
USER: STATUS no improvement in best 11 clusters for 5 generations
USER: GENES 21
USER: genes 0 Translation |==|  0.49310 0.57544 0.49720
USER: genes 1 Rotation |==|  0.90714 0.58621 0.72393 0.66329
USER: genes 2 Torsion [N]-C--CA-[N] |==|  0.57661
USER: genes 3 Torsion [C]-CA--CB-[CG] |==|  0.34238
USER: genes 4 Torsion [CA]-CB--CG-[CD1] |==|  0.19209
USER: genes 5 Torsion [C]-CA--N-[C] |==|  0.33598
USER: genes 6 Torsion [N]-C--CA-[N] |==|  0.86709
USER: genes 7 Torsion [C]-CA--N-[C] |==|  0.71391
USER: genes 8 Torsion [N]-C--CA-[N] |==|  0.44846
USER: genes 9 Torsion [C]-CA--CB-[CG1] |==|  0.96221
USER: genes 10 Torsion [C]-CA--N-[H3] |==|  0.60606
USER: genes 11 Torsion [C]-N--CA-[CB] |==|  0.61707
USER: genes 12 Torsion [N]-CA--CB-[CG] |==|  0.69852
USER: genes 13 Torsion [CA]-CB--CG-[CD] |==|  0.96029
USER: genes 14 Torsion [CB]-CG--CD-[NE] |==|  0.77968
USER: genes 15 Torsion [CG]-CD--NE-[HE] |==|  0.94640
USER: genes 16 Torsion [N]-CA--C-[N] |==|  0.86216
USER: genes 17 Torsion [C]-N--CA-[CB] |==|  0.37826
USER: genes 18 Torsion [N]-CA--CB-[OG] |==|  0.99362
USER: genes 19 Torsion [CA]-CB--OG-[HG] |==|  0.49647
USER: genes 20 Torsion [N]-CA--C-[O] |==|  0.92533
ROOT
ATOM      1  C   PHE B   3      12.373  15.703   4.156  0.50 54.14 LIG 0.24  C 
ATOM      2 O    PHE B   3      12.644  15.260   5.279  0.50 54.24 LIG-0.27  OA
ATOM      3  N   ARG B   4      11.256  15.413   3.467  0.50 53.92 LIG-0.35  N 
ATOM      4 H    ARG B   4      11.129  15.727   2.676  0.50 53.92 LIG 0.16  HD
ENDROOT
BRANCH 1 5
ATOM      5  CA  PHE B   3      13.382  16.493   3.298  0.50 54.27 LIG 0.18  C 
BRANCH 5 6
ATOM      6  CB  PHE B   3      12.981  15.783   2.001  0.50 54.22 LIG 0.07  C 
BRANCH 6 7
ATOM      7  CG  PHE B   3      12.516  16.621   0.846  0.50 54.33 LIG-0.06  A 
ATOM      8  CD1 PHE B   3      13.327  17.468   0.113  0.50 54.51 LIG 0.01  A 
ATOM      9  CE1 PHE B   3      12.797  18.144  -1.000  0.50 54.50 LIG 0.00  A 
ATOM     10  CZ  PHE B   3      11.472  17.938  -1.379  0.50 54.39 LIG 0.00  A 
ATOM     11  CE2 PHE B   3      10.687  17.072  -0.663  0.50 54.37 LIG 0.00  A 
ATOM     12  CD2 PHE B   3      11.209  16.421   0.422  0.50 54.38 LIG 0.01  A 
ENDBRANCH 6 7
ENDBRANCH 5 6
BRANCH 5 13
ATOM     13  N   PHE B   3      14.836  16.343   3.648  0.50 54.44 LIG-0.35  N 
ATOM     14  C   ALA B   2      15.748  15.881   2.771  0.50 54.50 LIG 0.24  C 
ATOM     15 O    ALA B   2      15.580  15.781   1.590  0.50 54.60 LIG-0.27  OA
ATOM     16 H    PHE B   3      15.028  16.576   4.453  0.50 54.44 LIG 0.16  HD
BRANCH 14 17
ATOM     17  CA  ALA B   2      17.267  15.724   3.182  0.50 54.51 LIG 0.17  C 
ATOM     18  CB  ALA B   2      17.526  14.371   3.866  0.50 54.51 LIG 0.04  C 
BRANCH 17 19
ATOM     19  N   ALA B   2      17.969  16.841   3.877  0.50 54.51 LIG-0.35  N 
ATOM     20  C   VAL B   1      18.832  17.665   3.255  0.50 54.58 LIG 0.25  C 
ATOM     21 O    VAL B   1      19.259  17.445   2.117  0.50 54.60 LIG-0.27  OA
ATOM     22 H    ALA B   2      17.771  16.909   4.711  0.50 54.51 LIG 0.16  HD
BRANCH 20 23
ATOM     23  CA  VAL B   1      19.352  18.884   4.073  0.50 54.68 LIG 0.28  C 
BRANCH 23 24
ATOM     24  CB  VAL B   1      18.290  20.029   4.343  0.50 54.64 LIG 0.02  C 
ATOM     25  CG1 VAL B   1      17.062  19.855   3.462  0.50 54.60 LIG 0.01  C 
ATOM     26  CG2 VAL B   1      17.855  20.087   5.775  0.50 55.61 LIG 0.01  C 
ENDBRANCH 23 24
BRANCH 23 27
ATOM     27  N   VAL B   1      20.594  19.440   3.468  0.50 54.62 LIG-0.07  N 
ATOM     28 H1   VAL B   1      20.984  18.818   2.965  0.50 54.62 LIG 0.28  HD
ATOM     29 H2   VAL B   1      20.389  20.144   2.963  0.50 54.62 LIG 0.28  HD
ATOM     30 H3   VAL B   1      21.152  19.691   4.114  0.50 54.62 LIG 0.28  HD
ENDBRANCH 23 27
ENDBRANCH 20 23
ENDBRANCH 17 19
ENDBRANCH 14 17
ENDBRANCH 5 13
ENDBRANCH 1 5
BRANCH 3 31
ATOM     31  CA  ARG B   4      10.136  14.571   3.905  0.50 53.70 LIG 0.18  C 
BRANCH 31 32
ATOM     32  CB  ARG B   4       9.672  13.677   2.777  0.50 53.42 LIG 0.04  C 
BRANCH 32 33
ATOM     33  CG  ARG B   4       8.371  14.055   2.215  0.50 52.08 LIG 0.02  C 
BRANCH 33 34
ATOM     34  CD  ARG B   4       7.785  14.983   3.165  0.50 49.49 LIG 0.14  C 
BRANCH 34 35
ATOM     35  NE  ARG B   4       7.176  14.400   4.330  0.50 47.76 LIG-0.23  N 
ATOM     36 HE   ARG B   4       6.950  13.571   4.326  0.50 47.76 LIG 0.18  HD
ATOM     37  CZ  ARG B   4       6.964  15.128   5.399  0.50 46.12 LIG 0.67  C 
ATOM     38  NH1 ARG B   4       7.327  16.406   5.365  0.50 45.18 LIG-0.23  N 
ATOM     39  NH2 ARG B   4       6.412  14.610   6.479  0.50 44.70 LIG-0.23  N 
ATOM     40 11HH ARG B   4       7.689  16.732   4.656  0.50 45.18 LIG 0.17  HD
ATOM     41 12HH ARG B   4       7.199  16.907   6.052  0.50 45.18 LIG 0.17  HD
ATOM     42 21HH ARG B   4       6.183  13.781   6.489  0.50 44.70 LIG 0.17  HD
ATOM     43 22HH ARG B   4       6.280  15.102   7.172  0.50 44.70 LIG 0.17  HD
ENDBRANCH 34 35
ENDBRANCH 33 34
ENDBRANCH 32 33
ENDBRANCH 31 32
BRANCH 31 44
ATOM     44  C   ARG B   4      10.542  13.541   4.950  0.50 54.09 LIG 0.24  C 
ATOM     45 O    ARG B   4       9.979  13.447   6.036  0.50 54.04 LIG-0.27  OA
ATOM     46  N   SER B   5      11.620  12.852   4.592  0.50 54.63 LIG-0.35  N 
ATOM     47 H    SER B   5      11.970  12.958   3.813  0.50 54.63 LIG 0.16  HD
BRANCH 46 48
ATOM     48  CA  SER B   5      12.364  11.861   5.382  0.50 55.09 LIG 0.18  C 
BRANCH 48 49
ATOM     49  CB  SER B   5      12.700  10.655   4.508  0.50 55.14 LIG 0.20  C 
BRANCH 49 50
ATOM     50 OG   SER B   5      12.152  10.823   3.211  0.50 55.40 LIG-0.40  OA
ATOM     51 HG   SER B   5      12.356  10.163   2.732  0.50 55.40 LIG 0.21  HD
ENDBRANCH 49 50
ENDBRANCH 48 49
BRANCH 48 52
ATOM     52  C   SER B   5      13.610  12.216   6.185  0.50 55.23 LIG 0.31  A 
ATOM     53 OXT  SER B   5      14.438  13.115   6.053  0.50 55.49 LIG-0.19  OA
ATOM     54 O    SER B   5      14.232  13.181   5.743  0.50 55.48 LIG-0.19  OA
ENDBRANCH 48 52
ENDBRANCH 46 48
ENDBRANCH 31 44
ENDBRANCH 3 31
TORSDOF 19
ENDMDL
MODEL 17
USER: ADFR SOLUTION from run 69
USER: SCORE 16.525118 LL:  -3.415 LR: -14.521 RR:   0.000 FEB:  -8.853
USER: RMSD 5.702024
USER: SEED 68
USER: STATUS no improvement in best 5 clusters for 5 generations
USER: GENES 21
USER: genes 0 Translation |==|  0.42821 0.49176 0.48762
USER: genes 1 Rotation |==|  0.54564 0.21689 0.58403 0.90088
USER: genes 2 Torsion [N]-C--CA-[N] |==|  0.14402
USER: genes 3 Torsion [C]-CA--CB-[CG] |==|  0.27641
USER: genes 4 Torsion [CA]-CB--CG-[CD1] |==|  0.90765
USER: genes 5 Torsion [C]-CA--N-[C] |==|  0.15800
USER: genes 6 Torsion [N]-C--CA-[N] |==|  0.16926
USER: genes 7 Torsion [C]-CA--N-[C] |==|  0.55119
USER: genes 8 Torsion [N]-C--CA-[N] |==|  0.04049
USER: genes 9 Torsion [C]-CA--CB-[CG1] |==|  0.35249
USER: genes 10 Torsion [C]-CA--N-[H3] |==|  0.50477
USER: genes 11 Torsion [C]-N--CA-[CB] |==|  0.80492
USER: genes 12 Torsion [N]-CA--CB-[CG] |==|  0.91295
USER: genes 13 Torsion [CA]-CB--CG-[CD] |==|  0.37211
USER: genes 14 Torsion [CB]-CG--CD-[NE] |==|  0.80709
USER: genes 15 Torsion [CG]-CD--NE-[HE] |==|  0.94158
USER: genes 16 Torsion [N]-CA--C-[N] |==|  0.13994
USER: genes 17 Torsion [C]-N--CA-[CB] |==|  0.81287
USER: genes 18 Torsion [N]-CA--CB-[OG] |==|  0.79864
USER: genes 19 Torsion [CA]-CB--OG-[HG] |==|  0.31438
USER: genes 20 Torsion [N]-CA--C-[O] |==|  0.05606
ROOT
ATOM      1  C   PHE B   3      10.426  13.193   3.869  0.50 54.14 LIG 0.24  C 
ATOM      2 O    PHE B   3      10.230  14.313   4.357  0.50 54.24 LIG-0.27  OA
ATOM      3  N   ARG B   4      10.654  12.954   2.565  0.50 53.92 LIG-0.35  N 
ATOM      4 H    ARG B   4      10.758  12.152   2.273  0.50 53.92 LIG 0.16  HD
ENDROOT
BRANCH 1 5
ATOM      5  CA  PHE B   3      10.232  11.885   4.661  0.50 54.27 LIG 0.18  C 
BRANCH 5 6
ATOM      6  CB  PHE B   3      10.259  12.592   6.021  0.50 54.22 LIG 0.07  C 
BRANCH 6 7
ATOM      7  CG  PHE B   3       8.951  12.885   6.695  0.50 54.33 LIG-0.06  A 
ATOM      8  CD1 PHE B   3       7.776  13.194   6.032  0.50 54.51 LIG 0.01  A 
ATOM      9  CE1 PHE B   3       6.592  13.373   6.768  0.50 54.50 LIG 0.00  A 
ATOM     10  CZ  PHE B   3       6.595  13.209   8.152  0.50 54.39 LIG 0.00  A 
ATOM     11  CE2 PHE B   3       7.759  12.873   8.794  0.50 54.37 LIG 0.00  A 
ATOM     12  CD2 PHE B   3       8.909  12.706   8.071  0.50 54.38 LIG 0.01  A 
ENDBRANCH 6 7
ENDBRANCH 5 6
BRANCH 5 13
ATOM     13  N   PHE B   3      11.293  10.831   4.504  0.50 54.44 LIG-0.35  N 
ATOM     14  C   ALA B   2      12.593  11.066   4.770  0.50 54.50 LIG 0.24  C 
ATOM     15 O    ALA B   2      13.012  12.009   5.377  0.50 54.60 LIG-0.27  OA
ATOM     16 H    PHE B   3      10.995  10.072   4.230  0.50 54.44 LIG 0.16  HD
BRANCH 14 17
ATOM     17  CA  ALA B   2      13.681   9.935   4.579  0.50 54.51 LIG 0.17  C 
ATOM     18  CB  ALA B   2      15.005  10.308   5.267  0.50 54.51 LIG 0.04  C 
BRANCH 17 19
ATOM     19  N   ALA B   2      13.905   9.338   3.231  0.50 54.51 LIG-0.35  N 
ATOM     20  C   VAL B   1      14.526   8.160   3.045  0.50 54.58 LIG 0.25  C 
ATOM     21 O    VAL B   1      15.129   7.575   3.951  0.50 54.60 LIG-0.27  OA
ATOM     22 H    ALA B   2      13.600   9.817   2.585  0.50 54.51 LIG 0.16  HD
BRANCH 20 23
ATOM     23  CA  VAL B   1      14.531   7.590   1.595  0.50 54.68 LIG 0.28  C 
BRANCH 23 24
ATOM     24  CB  VAL B   1      15.868   6.865   1.151  0.50 54.64 LIG 0.02  C 
ATOM     25  CG1 VAL B   1      15.584   5.470   0.619  0.50 54.60 LIG 0.01  C 
ATOM     26  CG2 VAL B   1      16.625   7.636   0.111  0.50 55.61 LIG 0.01  C 
ENDBRANCH 23 24
BRANCH 23 27
ATOM     27  N   VAL B   1      14.139   8.637   0.611  0.50 54.62 LIG-0.07  N 
ATOM     28 H1   VAL B   1      13.330   8.947   0.814  0.50 54.62 LIG 0.28  HD
ATOM     29 H2   VAL B   1      14.727   9.304   0.636  0.50 54.62 LIG 0.28  HD
ATOM     30 H3   VAL B   1      14.124   8.286  -0.206  0.50 54.62 LIG 0.28  HD
ENDBRANCH 23 27
ENDBRANCH 20 23
ENDBRANCH 17 19
ENDBRANCH 14 17
ENDBRANCH 5 13
ENDBRANCH 1 5
BRANCH 3 31
ATOM     31  CA  ARG B   4      10.758  13.944   1.487  0.50 53.70 LIG 0.18  C 
BRANCH 31 32
ATOM     32  CB  ARG B   4       9.407  14.561   1.201  0.50 53.42 LIG 0.04  C 
BRANCH 32 33
ATOM     33  CG  ARG B   4       8.278  13.655   1.436  0.50 52.08 LIG 0.02  C 
BRANCH 33 34
ATOM     34  CD  ARG B   4       7.301  14.426   2.182  0.50 49.49 LIG 0.14  C 
BRANCH 34 35
ATOM     35  NE  ARG B   4       7.653  14.761   3.535  0.50 47.76 LIG-0.23  N 
ATOM     36 HE   ARG B   4       8.252  14.302   3.948  0.50 47.76 LIG 0.18  HD
ATOM     37  CZ  ARG B   4       7.066  15.762   4.141  0.50 46.12 LIG 0.67  C 
ATOM     38  NH1 ARG B   4       6.145  16.445   3.470  0.50 45.18 LIG-0.23  N 
ATOM     39  NH2 ARG B   4       7.379  16.089   5.381  0.50 44.70 LIG-0.23  N 
ATOM     40 11HH ARG B   4       5.951  16.225   2.662  0.50 45.18 LIG 0.17  HD
ATOM     41 12HH ARG B   4       5.743  17.107   3.844  0.50 45.18 LIG 0.17  HD
ATOM     42 21HH ARG B   4       7.979  15.640   5.804  0.50 44.70 LIG 0.17  HD
ATOM     43 22HH ARG B   4       6.984  16.749   5.765  0.50 44.70 LIG 0.17  HD
ENDBRANCH 34 35
ENDBRANCH 33 34
ENDBRANCH 32 33
ENDBRANCH 31 32
BRANCH 31 44
ATOM     44  C   ARG B   4      11.565  15.172   1.885  0.50 54.09 LIG 0.24  C 
ATOM     45 O    ARG B   4      11.193  16.315   1.635  0.50 54.04 LIG-0.27  OA
ATOM     46  N   SER B   5      12.739  14.857   2.422  0.50 54.63 LIG-0.35  N 
ATOM     47 H    SER B   5      12.944  14.036   2.577  0.50 54.63 LIG 0.16  HD
BRANCH 46 48
ATOM     48  CA  SER B   5      13.824  15.764   2.820  0.50 55.09 LIG 0.18  C 
BRANCH 48 49
ATOM     49  CB  SER B   5      14.429  16.416   1.578  0.50 55.14 LIG 0.20  C 
BRANCH 49 50
ATOM     50 OG   SER B   5      15.199  15.469   0.854  0.50 55.40 LIG-0.40  OA
ATOM     51 HG   SER B   5      14.830  15.315   0.115  0.50 55.40 LIG 0.21  HD
ENDBRANCH 49 50
ENDBRANCH 48 49
BRANCH 48 52
ATOM     52  C   SER B   5      13.644  16.850   3.874  0.50 55.23 LIG 0.31  A 
ATOM     53 OXT  SER B   5      12.829  16.976   4.786  0.50 55.49 LIG-0.19  OA
ATOM     54 O    SER B   5      12.687  16.664   4.625  0.50 55.48 LIG-0.19  OA
ENDBRANCH 48 52
ENDBRANCH 46 48
ENDBRANCH 31 44
ENDBRANCH 3 31
TORSDOF 19
ENDMDL
MODEL 18
USER: ADFR SOLUTION from run 141
USER: SCORE 14.248386 LL:  -3.179 LR: -14.397 RR:   0.000 FEB:  -8.729
USER: RMSD 7.973863
USER: SEED 140
USER: STATUS no improvement in best 4 clusters for 5 generations
USER: GENES 21
USER: genes 0 Translation |==|  0.49866 0.59028 0.51730
USER: genes 1 Rotation |==|  0.38767 0.69656 0.88155 0.73057
USER: genes 2 Torsion [N]-C--CA-[N] |==|  0.08638
USER: genes 3 Torsion [C]-CA--CB-[CG] |==|  0.80572
USER: genes 4 Torsion [CA]-CB--CG-[CD1] |==|  0.27202
USER: genes 5 Torsion [C]-CA--N-[C] |==|  0.42721
USER: genes 6 Torsion [N]-C--CA-[N] |==|  0.68328
USER: genes 7 Torsion [C]-CA--N-[C] |==|  0.21231
USER: genes 8 Torsion [N]-C--CA-[N] |==|  0.29337
USER: genes 9 Torsion [C]-CA--CB-[CG1] |==|  0.22289
USER: genes 10 Torsion [C]-CA--N-[H3] |==|  0.72385
USER: genes 11 Torsion [C]-N--CA-[CB] |==|  0.17884
USER: genes 12 Torsion [N]-CA--CB-[CG] |==|  0.69365
USER: genes 13 Torsion [CA]-CB--CG-[CD] |==|  0.62599
USER: genes 14 Torsion [CB]-CG--CD-[NE] |==|  0.14779
USER: genes 15 Torsion [CG]-CD--NE-[HE] |==|  0.20274
USER: genes 16 Torsion [N]-CA--C-[N] |==|  0.00012
USER: genes 17 Torsion [C]-N--CA-[CB] |==|  0.41875
USER: genes 18 Torsion [N]-CA--CB-[OG] |==|  0.28975
USER: genes 19 Torsion [CA]-CB--OG-[HG] |==|  0.82693
USER: genes 20 Torsion [N]-CA--C-[O] |==|  0.82641
ROOT
ATOM      1  C   PHE B   3      12.540  16.148   4.759  0.50 54.14 LIG 0.24  C 
ATOM      2 O    PHE B   3      11.302  16.137   4.752  0.50 54.24 LIG-0.27  OA
ATOM      3  N   ARG B   4      13.314  15.129   5.170  0.50 53.92 LIG-0.35  N 
ATOM      4 H    ARG B   4      14.170  15.199   5.180  0.50 53.92 LIG 0.16  HD
ENDROOT
BRANCH 1 5
ATOM      5  CA  PHE B   3      13.370  17.419   4.488  0.50 54.27 LIG 0.18  C 
BRANCH 5 6
ATOM      6  CB  PHE B   3      12.414  17.928   3.404  0.50 54.22 LIG 0.07  C 
BRANCH 6 7
ATOM      7  CG  PHE B   3      12.360  17.189   2.099  0.50 54.33 LIG-0.06  A 
ATOM      8  CD1 PHE B   3      11.408  16.241   1.771  0.50 54.51 LIG 0.01  A 
ATOM      9  CE1 PHE B   3      11.412  15.671   0.485  0.50 54.50 LIG 0.00  A 
ATOM     10  CZ  PHE B   3      12.349  16.082  -0.460  0.50 54.39 LIG 0.00  A 
ATOM     11  CE2 PHE B   3      13.268  17.045  -0.133  0.50 54.37 LIG 0.00  A 
ATOM     12  CD2 PHE B   3      13.261  17.592   1.121  0.50 54.38 LIG 0.01  A 
ENDBRANCH 6 7
ENDBRANCH 5 6
BRANCH 5 13
ATOM     13  N   PHE B   3      14.781  17.220   4.008  0.50 54.44 LIG-0.35  N 
ATOM     14  C   ALA B   2      15.430  18.138   3.265  0.50 54.50 LIG 0.24  C 
ATOM     15 O    ALA B   2      15.084  19.274   3.117  0.50 54.60 LIG-0.27  OA
ATOM     16 H    PHE B   3      15.130  16.472   4.249  0.50 54.44 LIG 0.16  HD
BRANCH 14 17
ATOM     17  CA  ALA B   2      16.909  17.885   2.768  0.50 54.51 LIG 0.17  C 
ATOM     18  CB  ALA B   2      17.267  16.390   2.809  0.50 54.51 LIG 0.04  C 
BRANCH 17 19
ATOM     19  N   ALA B   2      18.022  18.736   3.279  0.50 54.51 LIG-0.35  N 
ATOM     20  C   VAL B   1      18.555  18.588   4.505  0.50 54.58 LIG 0.25  C 
ATOM     21 O    VAL B   1      18.042  17.872   5.371  0.50 54.60 LIG-0.27  OA
ATOM     22 H    ALA B   2      18.291  19.330   2.718  0.50 54.51 LIG 0.16  HD
BRANCH 20 23
ATOM     23  CA  VAL B   1      19.821  19.436   4.828  0.50 54.68 LIG 0.28  C 
BRANCH 23 24
ATOM     24  CB  VAL B   1      21.070  18.623   5.366  0.50 54.64 LIG 0.02  C 
ATOM     25  CG1 VAL B   1      21.826  17.964   4.224  0.50 54.60 LIG 0.01  C 
ATOM     26  CG2 VAL B   1      22.020  19.476   6.149  0.50 55.61 LIG 0.01  C 
ENDBRANCH 23 24
BRANCH 23 27
ATOM     27  N   VAL B   1      19.486  20.565   5.740  0.50 54.62 LIG-0.07  N 
ATOM     28 H1   VAL B   1      18.724  20.388   6.164  0.50 54.62 LIG 0.28  HD
ATOM     29 H2   VAL B   1      20.139  20.670   6.335  0.50 54.62 LIG 0.28  HD
ATOM     30 H3   VAL B   1      19.393  21.313   5.266  0.50 54.62 LIG 0.28  HD
ENDBRANCH 23 27
ENDBRANCH 20 23
ENDBRANCH 17 19
ENDBRANCH 14 17
ENDBRANCH 5 13
ENDBRANCH 1 5
BRANCH 3 31
ATOM     31  CA  ARG B   4      12.869  13.812   5.641  0.50 53.70 LIG 0.18  C 
BRANCH 31 32
ATOM     32  CB  ARG B   4      12.175  13.057   4.529  0.50 53.42 LIG 0.04  C 
BRANCH 32 33
ATOM     33  CG  ARG B   4      10.731  12.899   4.729  0.50 52.08 LIG 0.02  C 
BRANCH 33 34
ATOM     34  CD  ARG B   4      10.437  11.513   4.415  0.50 49.49 LIG 0.14  C 
BRANCH 34 35
ATOM     35  NE  ARG B   4      11.220  10.525   5.106  0.50 47.76 LIG-0.23  N 
ATOM     36 HE   ARG B   4      11.077  10.372   5.940  0.50 47.76 LIG 0.18  HD
ATOM     37  CZ  ARG B   4      12.149   9.855   4.470  0.50 46.12 LIG 0.67  C 
ATOM     38  NH1 ARG B   4      12.340  10.122   3.182  0.50 45.18 LIG-0.23  N 
ATOM     39  NH2 ARG B   4      12.873   8.941   5.085  0.50 44.70 LIG-0.23  N 
ATOM     40 11HH ARG B   4      11.859  10.719   2.791  0.50 45.18 LIG 0.17  HD
ATOM     41 12HH ARG B   4      12.943   9.698   2.740  0.50 45.18 LIG 0.17  HD
ATOM     42 21HH ARG B   4      12.739   8.775   5.919  0.50 44.70 LIG 0.17  HD
ATOM     43 22HH ARG B   4      13.480   8.510   4.653  0.50 44.70 LIG 0.17  HD
ENDBRANCH 34 35
ENDBRANCH 33 34
ENDBRANCH 32 33
ENDBRANCH 31 32
BRANCH 31 44
ATOM     44  C   ARG B   4      14.025  12.873   5.957  0.50 54.09 LIG 0.24  C 
ATOM     45 O    ARG B   4      13.856  11.761   6.448  0.50 54.04 LIG-0.27  OA
ATOM     46  N   SER B   5      15.210  13.437   5.742  0.50 54.63 LIG-0.35  N 
ATOM     47 H    SER B   5      15.266  14.220   5.391  0.50 54.63 LIG 0.16  HD
BRANCH 46 48
ATOM     48  CA  SER B   5      16.539  12.885   6.037  0.50 55.09 LIG 0.18  C 
BRANCH 48 49
ATOM     49  CB  SER B   5      17.558  13.446   5.047  0.50 55.14 LIG 0.20  C 
BRANCH 49 50
ATOM     50 OG   SER B   5      18.355  14.437   5.673  0.50 55.40 LIG-0.40  OA
ATOM     51 HG   SER B   5      17.867  15.077   5.917  0.50 55.40 LIG 0.21  HD
ENDBRANCH 49 50
ENDBRANCH 48 49
BRANCH 48 52
ATOM     52  C   SER B   5      17.163  12.937   7.427  0.50 55.23 LIG 0.31  A 
ATOM     53 OXT  SER B   5      17.467  13.883   8.150  0.50 55.49 LIG-0.19  OA
ATOM     54 O    SER B   5      17.360  14.078   7.843  0.50 55.48 LIG-0.19  OA
ENDBRANCH 48 52
ENDBRANCH 46 48
ENDBRANCH 31 44
ENDBRANCH 3 31
TORSDOF 19
ENDMDL
MODEL 19
USER: ADFR SOLUTION from run 20
USER: SCORE 15.836404 LL:  -3.287 LR: -14.389 RR:   0.000 FEB:  -8.722
USER: RMSD 7.532215
USER: SEED 19
USER: STATUS no improvement in best 8 clusters for 5 generations
USER: GENES 21
USER: genes 0 Translation |==|  0.54604 0.60203 0.48438
USER: genes 1 Rotation |==|  0.99425 0.51205 0.55291 0.55265
USER: genes 2 Torsion [N]-C--CA-[N] |==|  0.40318
USER: genes 3 Torsion [C]-CA--CB-[CG] |==|  0.26013
USER: genes 4 Torsion [CA]-CB--CG-[CD1] |==|  0.23984
USER: genes 5 Torsion [C]-CA--N-[C] |==|  0.17935
USER: genes 6 Torsion [N]-C--CA-[N] |==|  0.17839
USER: genes 7 Torsion [C]-CA--N-[C] |==|  0.58613
USER: genes 8 Torsion [N]-C--CA-[N] |==|  0.55534
USER: genes 9 Torsion [C]-CA--CB-[CG1] |==|  0.89731
USER: genes 10 Torsion [C]-CA--N-[H3] |==|  0.58134
USER: genes 11 Torsion [C]-N--CA-[CB] |==|  0.56669
USER: genes 12 Torsion [N]-CA--CB-[CG] |==|  0.42655
USER: genes 13 Torsion [CA]-CB--CG-[CD] |==|  0.46943
USER: genes 14 Torsion [CB]-CG--CD-[NE] |==|  0.67439
USER: genes 15 Torsion [CG]-CD--NE-[HE] |==|  0.32595
USER: genes 16 Torsion [N]-CA--C-[N] |==|  0.39289
USER: genes 17 Torsion [C]-N--CA-[CB] |==|  0.62698
USER: genes 18 Torsion [N]-CA--CB-[OG] |==|  0.99262
USER: genes 19 Torsion [CA]-CB--OG-[HG] |==|  0.66853
USER: genes 20 Torsion [N]-CA--C-[O] |==|  0.19032
ROOT
ATOM      1  C   PHE B   3      13.961  16.501   3.771  0.50 54.14 LIG 0.24  C 
ATOM      2 O    PHE B   3      14.552  15.485   4.160  0.50 54.24 LIG-0.27  OA
ATOM      3  N   ARG B   4      12.668  16.775   4.014  0.50 53.92 LIG-0.35  N 
ATOM      4 H    ARG B   4      12.298  17.484   3.698  0.50 53.92 LIG 0.16  HD
ENDROOT
BRANCH 1 5
ATOM      5  CA  PHE B   3      14.577  17.502   2.774  0.50 54.27 LIG 0.18  C 
BRANCH 5 6
ATOM      6  CB  PHE B   3      14.343  16.589   1.565  0.50 54.22 LIG 0.07  C 
BRANCH 6 7
ATOM      7  CG  PHE B   3      13.083  16.771   0.771  0.50 54.33 LIG-0.06  A 
ATOM      8  CD1 PHE B   3      12.932  17.669  -0.270  0.50 54.51 LIG 0.01  A 
ATOM      9  CE1 PHE B   3      11.728  17.695  -0.994  0.50 54.50 LIG 0.00  A 
ATOM     10  CZ  PHE B   3      10.705  16.801  -0.685  0.50 54.39 LIG 0.00  A 
ATOM     11  CE2 PHE B   3      10.878  15.894   0.328  0.50 54.37 LIG 0.00  A 
ATOM     12  CD2 PHE B   3      12.052  15.878   1.032  0.50 54.38 LIG 0.01  A 
ENDBRANCH 6 7
ENDBRANCH 5 6
BRANCH 5 13
ATOM     13  N   PHE B   3      16.020  17.872   2.985  0.50 54.44 LIG-0.35  N 
ATOM     14  C   ALA B   2      17.020  16.977   2.872  0.50 54.50 LIG 0.24  C 
ATOM     15 O    ALA B   2      16.926  15.896   2.366  0.50 54.60 LIG-0.27  OA
ATOM     16 H    PHE B   3      16.143  18.699   3.183  0.50 54.44 LIG 0.16  HD
BRANCH 14 17
ATOM     17  CA  ALA B   2      18.524  17.402   3.116  0.50 54.51 LIG 0.17  C 
ATOM     18  CB  ALA B   2      19.501  16.373   2.522  0.50 54.51 LIG 0.04  C 
BRANCH 17 19
ATOM     19  N   ALA B   2      18.957  17.865   4.466  0.50 54.51 LIG-0.35  N 
ATOM     20  C   VAL B   1      19.938  18.766   4.652  0.50 54.58 LIG 0.25  C 
ATOM     21 O    VAL B   1      20.685  19.135   3.740  0.50 54.60 LIG-0.27  OA
ATOM     22 H    ALA B   2      18.522  17.502   5.112  0.50 54.51 LIG 0.16  HD
BRANCH 20 23
ATOM     23  CA  VAL B   1      20.158  19.273   6.108  0.50 54.68 LIG 0.28  C 
BRANCH 23 24
ATOM     24  CB  VAL B   1      18.854  19.362   7.005  0.50 54.64 LIG 0.02  C 
ATOM     25  CG1 VAL B   1      17.656  19.816   6.186  0.50 54.60 LIG 0.01  C 
ATOM     26  CG2 VAL B   1      18.522  18.061   7.670  0.50 55.61 LIG 0.01  C 
ENDBRANCH 23 24
BRANCH 23 27
ATOM     27  N   VAL B   1      20.899  20.565   6.115  0.50 54.62 LIG-0.07  N 
ATOM     28 H1   VAL B   1      21.447  20.597   5.415  0.50 54.62 LIG 0.28  HD
ATOM     29 H2   VAL B   1      20.321  21.240   6.070  0.50 54.62 LIG 0.28  HD
ATOM     30 H3   VAL B   1      21.374  20.631   6.865  0.50 54.62 LIG 0.28  HD
ENDBRANCH 23 27
ENDBRANCH 20 23
ENDBRANCH 17 19
ENDBRANCH 14 17
ENDBRANCH 5 13
ENDBRANCH 1 5
BRANCH 3 31
ATOM     31  CA  ARG B   4      11.725  15.975   4.804  0.50 53.70 LIG 0.18  C 
BRANCH 31 32
ATOM     32  CB  ARG B   4      10.301  16.262   4.380  0.50 53.42 LIG 0.04  C 
BRANCH 32 33
ATOM     33  CG  ARG B   4       9.373  15.153   4.624  0.50 52.08 LIG 0.02  C 
BRANCH 33 34
ATOM     34  CD  ARG B   4       8.044  15.695   4.412  0.50 49.49 LIG 0.14  C 
BRANCH 34 35
ATOM     35  NE  ARG B   4       7.169  15.699   5.552  0.50 47.76 LIG-0.23  N 
ATOM     36 HE   ARG B   4       6.880  16.445   5.868  0.50 47.76 LIG 0.18  HD
ATOM     37  CZ  ARG B   4       6.809  14.571   6.113  0.50 46.12 LIG 0.67  C 
ATOM     38  NH1 ARG B   4       7.278  13.440   5.597  0.50 45.18 LIG-0.23  N 
ATOM     39  NH2 ARG B   4       6.002  14.554   7.156  0.50 44.70 LIG-0.23  N 
ATOM     40 11HH ARG B   4       7.801  13.463   4.914  0.50 45.18 LIG 0.17  HD
ATOM     41 12HH ARG B   4       7.059  12.685   5.945  0.50 45.18 LIG 0.17  HD
ATOM     42 21HH ARG B   4       5.703  15.293   7.480  0.50 44.70 LIG 0.17  HD
ATOM     43 22HH ARG B   4       5.775  13.805   7.513  0.50 44.70 LIG 0.17  HD
ENDBRANCH 34 35
ENDBRANCH 33 34
ENDBRANCH 32 33
ENDBRANCH 31 32
BRANCH 31 44
ATOM     44  C   ARG B   4      11.822  14.484   4.513  0.50 54.09 LIG 0.24  C 
ATOM     45 O    ARG B   4      11.919  14.039   3.373  0.50 54.04 LIG-0.27  OA
ATOM     46  N   SER B   5      11.683  13.743   5.608  0.50 54.63 LIG-0.35  N 
ATOM     47 H    SER B   5      11.624  14.112   6.383  0.50 54.63 LIG 0.16  HD
BRANCH 46 48
ATOM     48  CA  SER B   5      11.609  12.279   5.705  0.50 55.09 LIG 0.18  C 
BRANCH 48 49
ATOM     49  CB  SER B   5      10.465  11.884   6.637  0.50 55.14 LIG 0.20  C 
BRANCH 49 50
ATOM     50 OG   SER B   5       9.853  13.043   7.179  0.50 55.40 LIG-0.40  OA
ATOM     51 HG   SER B   5       9.924  13.031   8.016  0.50 55.40 LIG 0.21  HD
ENDBRANCH 49 50
ENDBRANCH 48 49
BRANCH 48 52
ATOM     52  C   SER B   5      11.545  11.375   4.479  0.50 55.23 LIG 0.31  A 
ATOM     53 OXT  SER B   5      12.383  11.097   3.625  0.50 55.49 LIG-0.19  OA
ATOM     54 O    SER B   5      12.582  11.355   3.818  0.50 55.48 LIG-0.19  OA
ENDBRANCH 48 52
ENDBRANCH 46 48
ENDBRANCH 31 44
ENDBRANCH 3 31
TORSDOF 19
ENDMDL
MODEL 20
USER: ADFR SOLUTION from run 91
USER: SCORE 15.843698 LL:  -2.879 LR: -14.390 RR:   0.000 FEB:  -8.723
USER: RMSD 6.625297
USER: SEED 90
USER: STATUS no improvement in best 8 clusters for 5 generations
USER: GENES 21
USER: genes 0 Translation |==|  0.46023 0.50983 0.46473
USER: genes 1 Rotation |==|  0.61247 0.91658 0.31795 0.67512
USER: genes 2 Torsion [N]-C--CA-[N] |==|  0.82336
USER: genes 3 Torsion [C]-CA--CB-[CG] |==|  0.21451
USER: genes 4 Torsion [CA]-CB--CG-[CD1] |==|  0.63700
USER: genes 5 Torsion [C]-CA--N-[C] |==|  0.20675
USER: genes 6 Torsion [N]-C--CA-[N] |==|  0.06240
USER: genes 7 Torsion [C]-CA--N-[C] |==|  0.70556
USER: genes 8 Torsion [N]-C--CA-[N] |==|  0.83073
USER: genes 9 Torsion [C]-CA--CB-[CG1] |==|  0.15604
USER: genes 10 Torsion [C]-CA--N-[H3] |==|  0.93341
USER: genes 11 Torsion [C]-N--CA-[CB] |==|  0.57538
USER: genes 12 Torsion [N]-CA--CB-[CG] |==|  0.97258
USER: genes 13 Torsion [CA]-CB--CG-[CD] |==|  0.36496
USER: genes 14 Torsion [CB]-CG--CD-[NE] |==|  0.85734
USER: genes 15 Torsion [CG]-CD--NE-[HE] |==|  0.83239
USER: genes 16 Torsion [N]-CA--C-[N] |==|  0.26343
USER: genes 17 Torsion [C]-N--CA-[CB] |==|  0.26616
USER: genes 18 Torsion [N]-CA--CB-[OG] |==|  0.74317
USER: genes 19 Torsion [CA]-CB--OG-[HG] |==|  0.45355
USER: genes 20 Torsion [N]-CA--C-[O] |==|  0.37526
ROOT
ATOM      1  C   PHE B   3      11.387  13.735   3.182  0.50 54.14 LIG 0.24  C 
ATOM      2 O    PHE B   3      11.675  14.525   2.274  0.50 54.24 LIG-0.27  OA
ATOM      3  N   ARG B   4      11.773  13.866   4.463  0.50 53.92 LIG-0.35  N 
ATOM      4 H    ARG B   4      11.568  13.273   5.051  0.50 53.92 LIG 0.16  HD
ENDROOT
BRANCH 1 5
ATOM      5  CA  PHE B   3      10.711  12.372   2.928  0.50 54.27 LIG 0.18  C 
BRANCH 5 6
ATOM      6  CB  PHE B   3       9.667  12.576   4.031  0.50 54.22 LIG 0.07  C 
BRANCH 6 7
ATOM      7  CG  PHE B   3       8.506  13.484   3.752  0.50 54.33 LIG-0.06  A 
ATOM      8  CD1 PHE B   3       8.083  14.501   4.589  0.50 54.51 LIG 0.01  A 
ATOM      9  CE1 PHE B   3       7.030  15.340   4.184  0.50 54.50 LIG 0.00  A 
ATOM     10  CZ  PHE B   3       6.437  15.166   2.935  0.50 54.39 LIG 0.00  A 
ATOM     11  CE2 PHE B   3       6.885  14.175   2.102  0.50 54.37 LIG 0.00  A 
ATOM     12  CD2 PHE B   3       7.908  13.359   2.505  0.50 54.38 LIG 0.01  A 
ENDBRANCH 6 7
ENDBRANCH 5 6
BRANCH 5 13
ATOM     13  N   PHE B   3      11.562  11.146   3.116  0.50 54.44 LIG-0.35  N 
ATOM     14  C   ALA B   2      11.908  10.685   4.334  0.50 54.50 LIG 0.24  C 
ATOM     15 O    ALA B   2      11.403  11.018   5.367  0.50 54.60 LIG-0.27  OA
ATOM     16 H    PHE B   3      11.803  10.772   2.381  0.50 54.44 LIG 0.16  HD
BRANCH 14 17
ATOM     17  CA  ALA B   2      12.816   9.400   4.490  0.50 54.51 LIG 0.17  C 
ATOM     18  CB  ALA B   2      13.558   9.398   5.837  0.50 54.51 LIG 0.04  C 
BRANCH 17 19
ATOM     19  N   ALA B   2      13.701   8.973   3.367  0.50 54.51 LIG-0.35  N 
ATOM     20  C   VAL B   1      13.434   7.909   2.588  0.50 54.58 LIG 0.25  C 
ATOM     21 O    VAL B   1      12.549   7.092   2.858  0.50 54.60 LIG-0.27  OA
ATOM     22 H    ALA B   2      14.395   9.470   3.266  0.50 54.51 LIG 0.16  HD
BRANCH 20 23
ATOM     23  CA  VAL B   1      14.361   7.694   1.355  0.50 54.68 LIG 0.28  C 
BRANCH 23 24
ATOM     24  CB  VAL B   1      15.867   7.329   1.687  0.50 54.64 LIG 0.02  C 
ATOM     25  CG1 VAL B   1      15.948   6.091   2.566  0.50 54.60 LIG 0.01  C 
ATOM     26  CG2 VAL B   1      16.691   7.105   0.456  0.50 55.61 LIG 0.01  C 
ENDBRANCH 23 24
BRANCH 23 27
ATOM     27  N   VAL B   1      14.286   8.854   0.424  0.50 54.62 LIG-0.07  N 
ATOM     28 H1   VAL B   1      14.956   9.414   0.593  0.50 54.62 LIG 0.28  HD
ATOM     29 H2   VAL B   1      14.345   8.566  -0.416  0.50 54.62 LIG 0.28  HD
ATOM     30 H3   VAL B   1      13.511   9.277   0.539  0.50 54.62 LIG 0.28  HD
ENDBRANCH 23 27
ENDBRANCH 20 23
ENDBRANCH 17 19
ENDBRANCH 14 17
ENDBRANCH 5 13
ENDBRANCH 1 5
BRANCH 3 31
ATOM     31  CA  ARG B   4      12.556  14.962   5.046  0.50 53.70 LIG 0.18  C 
BRANCH 31 32
ATOM     32  CB  ARG B   4      13.329  14.478   6.252  0.50 53.42 LIG 0.04  C 
BRANCH 32 33
ATOM     33  CG  ARG B   4      12.955  13.131   6.697  0.50 52.08 LIG 0.02  C 
BRANCH 33 34
ATOM     34  CD  ARG B   4      14.203  12.410   6.867  0.50 49.49 LIG 0.14  C 
BRANCH 34 35
ATOM     35  NE  ARG B   4      15.115  12.445   5.756  0.50 47.76 LIG-0.23  N 
ATOM     36 HE   ARG B   4      14.873  12.130   4.993  0.50 47.76 LIG 0.18  HD
ATOM     37  CZ  ARG B   4      16.314  12.953   5.901  0.50 46.12 LIG 0.67  C 
ATOM     38  NH1 ARG B   4      16.650  13.427   7.096  0.50 45.18 LIG-0.23  N 
ATOM     39  NH2 ARG B   4      17.162  12.999   4.893  0.50 44.70 LIG-0.23  N 
ATOM     40 11HH ARG B   4      16.087  13.394   7.746  0.50 45.18 LIG 0.17  HD
ATOM     41 12HH ARG B   4      17.431  13.766   7.220  0.50 45.18 LIG 0.17  HD
ATOM     42 21HH ARG B   4      16.932  12.691   4.123  0.50 44.70 LIG 0.17  HD
ATOM     43 22HH ARG B   4      17.946  13.336   5.004  0.50 44.70 LIG 0.17  HD
ENDBRANCH 34 35
ENDBRANCH 33 34
ENDBRANCH 32 33
ENDBRANCH 31 32
BRANCH 31 44
ATOM     44  C   ARG B   4      13.687  15.430   4.141  0.50 54.09 LIG 0.24  C 
ATOM     45 O    ARG B   4      14.815  14.948   4.191  0.50 54.04 LIG-0.27  OA
ATOM     46  N   SER B   5      13.339  16.471   3.390  0.50 54.63 LIG-0.35  N 
ATOM     47 H    SER B   5      12.530  16.763   3.394  0.50 54.63 LIG 0.16  HD
BRANCH 46 48
ATOM     48  CA  SER B   5      14.189  17.258   2.486  0.50 55.09 LIG 0.18  C 
BRANCH 48 49
ATOM     49  CB  SER B   5      14.047  16.731   1.060  0.50 55.14 LIG 0.20  C 
BRANCH 49 50
ATOM     50 OG   SER B   5      15.044  15.758   0.796  0.50 55.40 LIG-0.40  OA
ATOM     51 HG   SER B   5      14.830  15.315   0.115  0.50 55.40 LIG 0.21  HD
ENDBRANCH 49 50
ENDBRANCH 48 49
BRANCH 48 52
ATOM     52  C   SER B   5      14.140  18.780   2.428  0.50 55.23 LIG 0.31  A 
ATOM     53 OXT  SER B   5      15.032  19.624   2.370  0.50 55.49 LIG-0.19  OA
ATOM     54 O    SER B   5      15.248  19.315   2.408  0.50 55.48 LIG-0.19  OA
ENDBRANCH 48 52
ENDBRANCH 46 48
ENDBRANCH 31 44
ENDBRANCH 3 31
TORSDOF 19
ENDMDL
MODEL 21
USER: ADFR SOLUTION from run 70
USER: SCORE 15.120065 LL:  -3.198 LR: -14.343 RR:   0.000 FEB:  -8.675
USER: RMSD 9.107801
USER: SEED 69
USER: STATUS no improvement in best 15 clusters for 5 generations
USER: GENES 21
USER: genes 0 Translation |==|  0.57391 0.59123 0.43689
USER: genes 1 Rotation |==|  0.61328 0.77751 0.14613 0.68689
USER: genes 2 Torsion [N]-C--CA-[N] |==|  0.88750
USER: genes 3 Torsion [C]-CA--CB-[CG] |==|  0.26225
USER: genes 4 Torsion [CA]-CB--CG-[CD1] |==|  0.72725
USER: genes 5 Torsion [C]-CA--N-[C] |==|  0.52808
USER: genes 6 Torsion [N]-C--CA-[N] |==|  0.44375
USER: genes 7 Torsion [C]-CA--N-[C] |==|  0.19071
USER: genes 8 Torsion [N]-C--CA-[N] |==|  0.83403
USER: genes 9 Torsion [C]-CA--CB-[CG1] |==|  0.76563
USER: genes 10 Torsion [C]-CA--N-[H3] |==|  0.82350
USER: genes 11 Torsion [C]-N--CA-[CB] |==|  0.56238
USER: genes 12 Torsion [N]-CA--CB-[CG] |==|  0.59103
USER: genes 13 Torsion [CA]-CB--CG-[CD] |==|  0.54811
USER: genes 14 Torsion [CB]-CG--CD-[NE] |==|  0.32547
USER: genes 15 Torsion [CG]-CD--NE-[HE] |==|  0.01525
USER: genes 16 Torsion [N]-CA--C-[N] |==|  0.47433
USER: genes 17 Torsion [C]-N--CA-[CB] |==|  0.55039
USER: genes 18 Torsion [N]-CA--CB-[OG] |==|  0.17379
USER: genes 19 Torsion [CA]-CB--OG-[HG] |==|  0.51780
USER: genes 20 Torsion [N]-CA--C-[O] |==|  0.18985
ROOT
ATOM      1  C   PHE B   3      14.797  16.177   2.347  0.50 54.14 LIG 0.24  C 
ATOM      2 O    PHE B   3      15.283  15.937   1.234  0.50 54.24 LIG-0.27  OA
ATOM      3  N   ARG B   4      15.288  17.074   3.220  0.50 53.92 LIG-0.35  N 
ATOM      4 H    ARG B   4      14.927  17.183   3.992  0.50 53.92 LIG 0.16  HD
ENDROOT
BRANCH 1 5
ATOM      5  CA  PHE B   3      13.674  15.328   2.974  0.50 54.27 LIG 0.18  C 
BRANCH 5 6
ATOM      6  CB  PHE B   3      12.621  16.429   2.815  0.50 54.22 LIG 0.07  C 
BRANCH 6 7
ATOM      7  CG  PHE B   3      11.751  16.410   1.592  0.50 54.33 LIG-0.06  A 
ATOM      8  CD1 PHE B   3      11.971  17.173   0.459  0.50 54.51 LIG 0.01  A 
ATOM      9  CE1 PHE B   3      11.133  17.011  -0.658  0.50 54.50 LIG 0.00  A 
ATOM     10  CZ  PHE B   3      10.108  16.068  -0.635  0.50 54.39 LIG 0.00  A 
ATOM     11  CE2 PHE B   3       9.920  15.297   0.482  0.50 54.37 LIG 0.00  A 
ATOM     12  CD2 PHE B   3      10.736  15.462   1.568  0.50 54.38 LIG 0.01  A 
ENDBRANCH 6 7
ENDBRANCH 5 6
BRANCH 5 13
ATOM     13  N   PHE B   3      13.874  14.880   4.396  0.50 54.44 LIG-0.35  N 
ATOM     14  C   ALA B   2      13.071  13.976   4.990  0.50 54.50 LIG 0.24  C 
ATOM     15 O    ALA B   2      12.298  13.261   4.421  0.50 54.60 LIG-0.27  OA
ATOM     16 H    PHE B   3      14.542  15.252   4.789  0.50 54.44 LIG 0.16  HD
BRANCH 14 17
ATOM     17  CA  ALA B   2      13.305  13.541   6.492  0.50 54.51 LIG 0.17  C 
ATOM     18  CB  ALA B   2      14.623  12.763   6.652  0.50 54.51 LIG 0.04  C 
BRANCH 17 19
ATOM     19  N   ALA B   2      12.195  12.918   7.269  0.50 54.51 LIG-0.35  N 
ATOM     20  C   VAL B   1      11.711  11.692   7.000  0.50 54.58 LIG 0.25  C 
ATOM     21 O    VAL B   1      12.010  11.068   5.977  0.50 54.60 LIG-0.27  OA
ATOM     22 H    ALA B   2      11.894  13.414   7.903  0.50 54.51 LIG 0.16  HD
BRANCH 20 23
ATOM     23  CA  VAL B   1      10.671  11.113   8.004  0.50 54.68 LIG 0.28  C 
BRANCH 23 24
ATOM     24  CB  VAL B   1       9.270  11.852   8.040  0.50 54.64 LIG 0.02  C 
ATOM     25  CG1 VAL B   1       9.314  13.065   8.956  0.50 54.60 LIG 0.01  C 
ATOM     26  CG2 VAL B   1       8.812  12.287   6.681  0.50 55.61 LIG 0.01  C 
ENDBRANCH 23 24
BRANCH 23 27
ATOM     27  N   VAL B   1      11.253  11.007   9.371  0.50 54.62 LIG-0.07  N 
ATOM     28 H1   VAL B   1      11.549  11.805   9.631  0.50 54.62 LIG 0.28  HD
ATOM     29 H2   VAL B   1      10.629  10.723   9.939  0.50 54.62 LIG 0.28  HD
ATOM     30 H3   VAL B   1      11.930  10.429   9.362  0.50 54.62 LIG 0.28  HD
ENDBRANCH 23 27
ENDBRANCH 20 23
ENDBRANCH 17 19
ENDBRANCH 14 17
ENDBRANCH 5 13
ENDBRANCH 1 5
BRANCH 3 31
ATOM     31  CA  ARG B   4      16.440  17.962   3.026  0.50 53.70 LIG 0.18  C 
BRANCH 31 32
ATOM     32  CB  ARG B   4      17.002  18.400   4.360  0.50 53.42 LIG 0.04  C 
BRANCH 32 33
ATOM     33  CG  ARG B   4      17.568  19.753   4.351  0.50 52.08 LIG 0.02  C 
BRANCH 33 34
ATOM     34  CD  ARG B   4      18.406  19.839   5.533  0.50 49.49 LIG 0.14  C 
BRANCH 34 35
ATOM     35  NE  ARG B   4      19.809  20.053   5.304  0.50 47.76 LIG-0.23  N 
ATOM     36 HE   ARG B   4      20.097  20.192   4.506  0.50 47.76 LIG 0.18  HD
ATOM     37  CZ  ARG B   4      20.652  20.035   6.307  0.50 46.12 LIG 0.67  C 
ATOM     38  NH1 ARG B   4      20.169  19.815   7.524  0.50 45.18 LIG-0.23  N 
ATOM     39  NH2 ARG B   4      21.942  20.234   6.117  0.50 44.70 LIG-0.23  N 
ATOM     40 11HH ARG B   4      19.325  19.689   7.636  0.50 45.18 LIG 0.17  HD
ATOM     41 12HH ARG B   4      20.700  19.798   8.201  0.50 45.18 LIG 0.17  HD
ATOM     42 21HH ARG B   4      22.243  20.378   5.324  0.50 44.70 LIG 0.17  HD
ATOM     43 22HH ARG B   4      22.483  20.220   6.786  0.50 44.70 LIG 0.17  HD
ENDBRANCH 34 35
ENDBRANCH 33 34
ENDBRANCH 32 33
ENDBRANCH 31 32
BRANCH 31 44
ATOM     44  C   ARG B   4      17.641  17.252   2.419  0.50 54.09 LIG 0.24  C 
ATOM     45 O    ARG B   4      17.727  16.029   2.365  0.50 54.04 LIG-0.27  OA
ATOM     46  N   SER B   5      18.606  18.096   2.067  0.50 54.63 LIG-0.35  N 
ATOM     47 H    SER B   5      18.487  18.946   2.123  0.50 54.63 LIG 0.16  HD
BRANCH 46 48
ATOM     48  CA  SER B   5      19.946  17.776   1.557  0.50 55.09 LIG 0.18  C 
BRANCH 48 49
ATOM     49  CB  SER B   5      20.857  18.992   1.708  0.50 55.14 LIG 0.20  C 
BRANCH 49 50
ATOM     50 OG   SER B   5      21.005  19.324   3.079  0.50 55.40 LIG-0.40  OA
ATOM     51 HG   SER B   5      21.434  20.044   3.148  0.50 55.40 LIG 0.21  HD
ENDBRANCH 49 50
ENDBRANCH 48 49
BRANCH 48 52
ATOM     52  C   SER B   5      20.728  16.549   2.011  0.50 55.23 LIG 0.31  A 
ATOM     53 OXT  SER B   5      20.556  15.349   1.806  0.50 55.49 LIG-0.19  OA
ATOM     54 O    SER B   5      20.244  15.481   1.638  0.50 55.48 LIG-0.19  OA
ENDBRANCH 48 52
ENDBRANCH 46 48
ENDBRANCH 31 44
ENDBRANCH 3 31
TORSDOF 19
ENDMDL
MODEL 22
USER: ADFR SOLUTION from run 142
USER: SCORE 16.988815 LL:  -3.407 LR: -14.245 RR:   0.000 FEB:  -8.578
USER: RMSD 7.831770
USER: SEED 141
USER: STATUS no improvement in best 6 clusters for 5 generations
USER: GENES 21
USER: genes 0 Translation |==|  0.46402 0.43325 0.50932
USER: genes 1 Rotation |==|  0.37836 0.57568 0.97886 0.51300
USER: genes 2 Torsion [N]-C--CA-[N] |==|  0.10318
USER: genes 3 Torsion [C]-CA--CB-[CG] |==|  0.50934
USER: genes 4 Torsion [CA]-CB--CG-[CD1] |==|  0.89087
USER: genes 5 Torsion [C]-CA--N-[C] |==|  0.73885
USER: genes 6 Torsion [N]-C--CA-[N] |==|  0.02313
USER: genes 7 Torsion [C]-CA--N-[C] |==|  0.71667
USER: genes 8 Torsion [N]-C--CA-[N] |==|  0.41518
USER: genes 9 Torsion [C]-CA--CB-[CG1] |==|  0.05768
USER: genes 10 Torsion [C]-CA--N-[H3] |==|  0.83982
USER: genes 11 Torsion [C]-N--CA-[CB] |==|  0.84164
USER: genes 12 Torsion [N]-CA--CB-[CG] |==|  0.74718
USER: genes 13 Torsion [CA]-CB--CG-[CD] |==|  0.11060
USER: genes 14 Torsion [CB]-CG--CD-[NE] |==|  0.61532
USER: genes 15 Torsion [CG]-CD--NE-[HE] |==|  0.87328
USER: genes 16 Torsion [N]-CA--C-[N] |==|  0.35344
USER: genes 17 Torsion [C]-N--CA-[CB] |==|  0.90716
USER: genes 18 Torsion [N]-CA--CB-[OG] |==|  0.84018
USER: genes 19 Torsion [CA]-CB--OG-[HG] |==|  0.36443
USER: genes 20 Torsion [N]-CA--C-[O] |==|  0.18318
ROOT
ATOM      1  C   PHE B   3      11.501  11.438   4.520  0.50 54.14 LIG 0.24  C 
ATOM      2 O    PHE B   3      10.868  10.373   4.513  0.50 54.24 LIG-0.27  OA
ATOM      3  N   ARG B   4      12.841  11.532   4.544  0.50 53.92 LIG-0.35  N 
ATOM      4 H    ARG B   4      13.231  12.298   4.575  0.50 53.92 LIG 0.16  HD
ENDROOT
BRANCH 1 5
ATOM      5  CA  PHE B   3      10.830  12.813   4.709  0.50 54.27 LIG 0.18  C 
BRANCH 5 6
ATOM      6  CB  PHE B   3       9.533  12.383   4.014  0.50 54.22 LIG 0.07  C 
BRANCH 6 7
ATOM      7  CG  PHE B   3       8.455  13.410   3.823  0.50 54.33 LIG-0.06  A 
ATOM      8  CD1 PHE B   3       8.113  14.373   4.755  0.50 54.51 LIG 0.01  A 
ATOM      9  CE1 PHE B   3       7.138  15.333   4.433  0.50 54.50 LIG 0.00  A 
ATOM     10  CZ  PHE B   3       6.544  15.333   3.173  0.50 54.39 LIG 0.00  A 
ATOM     11  CE2 PHE B   3       6.913  14.393   2.247  0.50 54.37 LIG 0.00  A 
ATOM     12  CD2 PHE B   3       7.860  13.458   2.569  0.50 54.38 LIG 0.01  A 
ENDBRANCH 6 7
ENDBRANCH 5 6
BRANCH 5 13
ATOM     13  N   PHE B   3      11.503  13.992   4.064  0.50 54.44 LIG-0.35  N 
ATOM     14  C   ALA B   2      12.379  14.776   4.723  0.50 54.50 LIG 0.24  C 
ATOM     15 O    ALA B   2      12.902  14.501   5.764  0.50 54.60 LIG-0.27  OA
ATOM     16 H    PHE B   3      11.278  14.118   3.244  0.50 54.44 LIG 0.16  HD
BRANCH 14 17
ATOM     17  CA  ALA B   2      13.056  16.016   4.014  0.50 54.51 LIG 0.17  C 
ATOM     18  CB  ALA B   2      13.193  17.207   4.977  0.50 54.51 LIG 0.04  C 
BRANCH 17 19
ATOM     19  N   ALA B   2      12.593  16.445   2.663  0.50 54.51 LIG-0.35  N 
ATOM     20  C   VAL B   1      13.263  16.158   1.533  0.50 54.58 LIG 0.25  C 
ATOM     21 O    VAL B   1      14.406  15.690   1.538  0.50 54.60 LIG-0.27  OA
ATOM     22 H    ALA B   2      11.858  16.892   2.674  0.50 54.51 LIG 0.16  HD
BRANCH 20 23
ATOM     23  CA  VAL B   1      12.565  16.526   0.190  0.50 54.68 LIG 0.28  C 
BRANCH 23 24
ATOM     24  CB  VAL B   1      11.516  15.468  -0.348  0.50 54.64 LIG 0.02  C 
ATOM     25  CG1 VAL B   1      11.027  14.564   0.773  0.50 54.60 LIG 0.01  C 
ATOM     26  CG2 VAL B   1      10.332  16.110  -1.004  0.50 55.61 LIG 0.01  C 
ENDBRANCH 23 24
BRANCH 23 27
ATOM     27  N   VAL B   1      13.569  16.861  -0.857  0.50 54.62 LIG-0.07  N 
ATOM     28 H1   VAL B   1      14.080  16.150  -1.018  0.50 54.62 LIG 0.28  HD
ATOM     29 H2   VAL B   1      13.151  17.101  -1.605  0.50 54.62 LIG 0.28  HD
ATOM     30 H3   VAL B   1      14.080  17.534  -0.576  0.50 54.62 LIG 0.28  HD
ENDBRANCH 23 27
ENDBRANCH 20 23
ENDBRANCH 17 19
ENDBRANCH 14 17
ENDBRANCH 5 13
ENDBRANCH 1 5
BRANCH 3 31
ATOM     31  CA  ARG B   4      13.809  10.429   4.524  0.50 53.70 LIG 0.18  C 
BRANCH 31 32
ATOM     32  CB  ARG B   4      13.560   9.484   5.678  0.50 53.42 LIG 0.04  C 
BRANCH 32 33
ATOM     33  CG  ARG B   4      14.314   9.816   6.891  0.50 52.08 LIG 0.02  C 
BRANCH 33 34
ATOM     34  CD  ARG B   4      14.280  11.264   6.994  0.50 49.49 LIG 0.14  C 
BRANCH 34 35
ATOM     35  NE  ARG B   4      15.505  11.902   7.390  0.50 47.76 LIG-0.23  N 
ATOM     36 HE   ARG B   4      15.959  11.587   8.049  0.50 47.76 LIG 0.18  HD
ATOM     37  CZ  ARG B   4      15.934  12.963   6.751  0.50 46.12 LIG 0.67  C 
ATOM     38  NH1 ARG B   4      15.203  13.420   5.740  0.50 45.18 LIG-0.23  N 
ATOM     39  NH2 ARG B   4      17.059  13.560   7.096  0.50 44.70 LIG-0.23  N 
ATOM     40 11HH ARG B   4      14.473  13.021   5.522  0.50 45.18 LIG 0.17  HD
ATOM     41 12HH ARG B   4      15.460  14.115   5.303  0.50 45.18 LIG 0.17  HD
ATOM     42 21HH ARG B   4      17.524  13.253   7.751  0.50 44.70 LIG 0.17  HD
ATOM     43 22HH ARG B   4      17.326  14.255   6.666  0.50 44.70 LIG 0.17  HD
ENDBRANCH 34 35
ENDBRANCH 33 34
ENDBRANCH 32 33
ENDBRANCH 31 32
BRANCH 31 44
ATOM     44  C   ARG B   4      13.622   9.497   3.335  0.50 54.09 LIG 0.24  C 
ATOM     45 O    ARG B   4      12.567   8.908   3.118  0.50 54.04 LIG-0.27  OA
ATOM     46  N   SER B   5      14.745   9.321   2.646  0.50 54.63 LIG-0.35  N 
ATOM     47 H    SER B   5      15.455   9.766   2.843  0.50 54.63 LIG 0.16  HD
BRANCH 46 48
ATOM     48  CA  SER B   5      14.978   8.413   1.515  0.50 55.09 LIG 0.18  C 
BRANCH 48 49
ATOM     49  CB  SER B   5      14.141   7.148   1.690  0.50 55.14 LIG 0.20  C 
BRANCH 49 50
ATOM     50 OG   SER B   5      14.458   6.519   2.921  0.50 55.40 LIG-0.40  OA
ATOM     51 HG   SER B   5      13.749   6.338   3.334  0.50 55.40 LIG 0.21  HD
ENDBRANCH 49 50
ENDBRANCH 48 49
BRANCH 48 52
ATOM     52  C   SER B   5      14.850   8.859   0.062  0.50 55.23 LIG 0.31  A 
ATOM     53 OXT  SER B   5      15.517   9.638  -0.614  0.50 55.49 LIG-0.19  OA
ATOM     54 O    SER B   5      15.689   9.690  -0.281  0.50 55.48 LIG-0.19  OA
ENDBRANCH 48 52
ENDBRANCH 46 48
ENDBRANCH 31 44
ENDBRANCH 3 31
TORSDOF 19
ENDMDL
MODEL 23
USER: ADFR SOLUTION from run 65
USER: SCORE 16.169332 LL:  -3.021 LR: -14.239 RR:   0.000 FEB:  -8.572
USER: RMSD 9.267789
USER: SEED 64
USER: STATUS no improvement in best 10 clusters for 5 generations
USER: GENES 21
USER: genes 0 Translation |==|  0.31644 0.52665 0.57558
USER: genes 1 Rotation |==|  0.13049 0.73133 0.69021 0.65418
USER: genes 2 Torsion [N]-C--CA-[N] |==|  0.31707
USER: genes 3 Torsion [C]-CA--CB-[CG] |==|  0.73727
USER: genes 4 Torsion [CA]-CB--CG-[CD1] |==|  0.30849
USER: genes 5 Torsion [C]-CA--N-[C] |==|  0.50891
USER: genes 6 Torsion [N]-C--CA-[N] |==|  0.37264
USER: genes 7 Torsion [C]-CA--N-[C] |==|  0.77465
USER: genes 8 Torsion [N]-C--CA-[N] |==|  0.54828
USER: genes 9 Torsion [C]-CA--CB-[CG1] |==|  0.35352
USER: genes 10 Torsion [C]-CA--N-[H3] |==|  0.71559
USER: genes 11 Torsion [C]-N--CA-[CB] |==|  0.12878
USER: genes 12 Torsion [N]-CA--CB-[CG] |==|  0.62515
USER: genes 13 Torsion [CA]-CB--CG-[CD] |==|  0.58391
USER: genes 14 Torsion [CB]-CG--CD-[NE] |==|  0.99751
USER: genes 15 Torsion [CG]-CD--NE-[HE] |==|  0.79471
USER: genes 16 Torsion [N]-CA--C-[N] |==|  0.13777
USER: genes 17 Torsion [C]-N--CA-[CB] |==|  0.31340
USER: genes 18 Torsion [N]-CA--CB-[OG] |==|  0.24345
USER: genes 19 Torsion [CA]-CB--OG-[HG] |==|  0.20993
USER: genes 20 Torsion [N]-CA--C-[O] |==|  0.84629
ROOT
ATOM      1  C   PHE B   3       7.073  14.239   6.507  0.50 54.14 LIG 0.24  C 
ATOM      2 O    PHE B   3       6.248  13.530   5.918  0.50 54.24 LIG-0.27  OA
ATOM      3  N   ARG B   4       7.121  14.414   7.839  0.50 53.92 LIG-0.35  N 
ATOM      4 H    ARG B   4       7.699  14.941   8.197  0.50 53.92 LIG 0.16  HD
ENDROOT
BRANCH 1 5
ATOM      5  CA  PHE B   3       8.040  15.190   5.774  0.50 54.27 LIG 0.18  C 
BRANCH 5 6
ATOM      6  CB  PHE B   3       6.951  15.737   4.845  0.50 54.22 LIG 0.07  C 
BRANCH 6 7
ATOM      7  CG  PHE B   3       6.785  15.106   3.494  0.50 54.33 LIG-0.06  A 
ATOM      8  CD1 PHE B   3       5.697  14.342   3.111  0.50 54.51 LIG 0.01  A 
ATOM      9  CE1 PHE B   3       5.614  13.867   1.791  0.50 54.50 LIG 0.00  A 
ATOM     10  CZ  PHE B   3       6.605  14.190   0.867  0.50 54.39 LIG 0.00  A 
ATOM     11  CE2 PHE B   3       7.662  14.973   1.250  0.50 54.37 LIG 0.00  A 
ATOM     12  CD2 PHE B   3       7.739  15.428   2.538  0.50 54.38 LIG 0.01  A 
ENDBRANCH 6 7
ENDBRANCH 5 6
BRANCH 5 13
ATOM     13  N   PHE B   3       9.195  14.558   5.047  0.50 54.44 LIG-0.35  N 
ATOM     14  C   ALA B   2      10.143  15.284   4.423  0.50 54.50 LIG 0.24  C 
ATOM     15 O    ALA B   2      10.323  16.457   4.573  0.50 54.60 LIG-0.27  OA
ATOM     16 H    PHE B   3       9.193  13.698   5.068  0.50 54.44 LIG 0.16  HD
BRANCH 14 17
ATOM     17  CA  ALA B   2      11.334  14.581   3.658  0.50 54.51 LIG 0.17  C 
ATOM     18  CB  ALA B   2      12.559  14.401   4.570  0.50 54.51 LIG 0.04  C 
BRANCH 17 19
ATOM     19  N   ALA B   2      11.722  15.046   2.294  0.50 54.51 LIG-0.35  N 
ATOM     20  C   VAL B   1      11.070  14.671   1.179  0.50 54.58 LIG 0.25  C 
ATOM     21 O    VAL B   1      10.229  13.767   1.173  0.50 54.60 LIG-0.27  OA
ATOM     22 H    ALA B   2      12.399  15.576   2.289  0.50 54.51 LIG 0.16  HD
BRANCH 20 23
ATOM     23  CA  VAL B   1      11.486  15.375  -0.147  0.50 54.68 LIG 0.28  C 
BRANCH 23 24
ATOM     24  CB  VAL B   1      11.895  16.900  -0.012  0.50 54.64 LIG 0.02  C 
ATOM     25  CG1 VAL B   1      13.258  17.157  -0.635  0.50 54.60 LIG 0.01  C 
ATOM     26  CG2 VAL B   1      10.894  17.824  -0.635  0.50 55.61 LIG 0.01  C 
ENDBRANCH 23 24
BRANCH 23 27
ATOM     27  N   VAL B   1      10.443  15.193  -1.195  0.50 54.62 LIG-0.07  N 
ATOM     28 H1   VAL B   1       9.678  14.945  -0.814  0.50 54.62 LIG 0.28  HD
ATOM     29 H2   VAL B   1      10.323  15.960  -1.630  0.50 54.62 LIG 0.28  HD
ATOM     30 H3   VAL B   1      10.705  14.565  -1.768  0.50 54.62 LIG 0.28  HD
ENDBRANCH 23 27
ENDBRANCH 20 23
ENDBRANCH 17 19
ENDBRANCH 14 17
ENDBRANCH 5 13
ENDBRANCH 1 5
BRANCH 3 31
ATOM     31  CA  ARG B   4       6.260  13.786   8.848  0.50 53.70 LIG 0.18  C 
BRANCH 31 32
ATOM     32  CB  ARG B   4       6.131  12.302   8.585  0.50 53.42 LIG 0.04  C 
BRANCH 32 33
ATOM     33  CG  ARG B   4       4.758  11.797   8.693  0.50 52.08 LIG 0.02  C 
BRANCH 33 34
ATOM     34  CD  ARG B   4       4.876  10.420   9.136  0.50 49.49 LIG 0.14  C 
BRANCH 34 35
ATOM     35  NE  ARG B   4       6.212   9.925   9.325  0.50 47.76 LIG-0.23  N 
ATOM     36 HE   ARG B   4       6.702   9.743   8.642  0.50 47.76 LIG 0.18  HD
ATOM     37  CZ  ARG B   4       6.688   9.750  10.533  0.50 46.12 LIG 0.67  C 
ATOM     38  NH1 ARG B   4       5.899  10.041  11.562  0.50 45.18 LIG-0.23  N 
ATOM     39  NH2 ARG B   4       7.913   9.301  10.726  0.50 44.70 LIG-0.23  N 
ATOM     40 11HH ARG B   4       5.103  10.336  11.423  0.50 45.18 LIG 0.17  HD
ATOM     41 12HH ARG B   4       6.185   9.935  12.366  0.50 45.18 LIG 0.17  HD
ATOM     42 21HH ARG B   4       8.415   9.118  10.052  0.50 44.70 LIG 0.17  HD
ATOM     43 22HH ARG B   4       8.210   9.192  11.526  0.50 44.70 LIG 0.17  HD
ENDBRANCH 34 35
ENDBRANCH 33 34
ENDBRANCH 32 33
ENDBRANCH 31 32
BRANCH 31 44
ATOM     44  C   ARG B   4       6.878  13.786  10.239  0.50 54.09 LIG 0.24  C 
ATOM     45 O    ARG B   4       6.857  12.800  10.970  0.50 54.04 LIG-0.27  OA
ATOM     46  N   SER B   5       7.331  14.984  10.594  0.50 54.63 LIG-0.35  N 
ATOM     47 H    SER B   5       7.324  15.639  10.036  0.50 54.63 LIG 0.16  HD
BRANCH 46 48
ATOM     48  CA  SER B   5       7.885  15.393  11.892  0.50 55.09 LIG 0.18  C 
BRANCH 48 49
ATOM     49  CB  SER B   5       9.369  15.715  11.738  0.50 55.14 LIG 0.20  C 
BRANCH 49 50
ATOM     50 OG   SER B   5       9.540  17.073  11.365  0.50 55.40 LIG-0.40  OA
ATOM     51 HG   SER B   5       9.411  17.565  12.034  0.50 55.40 LIG 0.21  HD
ENDBRANCH 49 50
ENDBRANCH 48 49
BRANCH 48 52
ATOM     52  C   SER B   5       7.257  16.488  12.746  0.50 55.23 LIG 0.31  A 
ATOM     53 OXT  SER B   5       6.955  17.651  12.490  0.50 55.49 LIG-0.19  OA
ATOM     54 O    SER B   5       7.122  17.562  12.162  0.50 55.48 LIG-0.19  OA
ENDBRANCH 48 52
ENDBRANCH 46 48
ENDBRANCH 31 44
ENDBRANCH 3 31
TORSDOF 19
ENDMDL
MODEL 24
USER: ADFR SOLUTION from run 85
USER: SCORE 15.051306 LL:  -3.112 LR: -14.073 RR:   0.000 FEB:  -8.405
USER: RMSD 8.718304
USER: SEED 84
USER: STATUS no improvement in best 6 clusters for 5 generations
USER: GENES 21
USER: genes 0 Translation |==|  0.58065 0.57460 0.43519
USER: genes 1 Rotation |==|  0.67135 0.81880 0.15729 0.53943
USER: genes 2 Torsion [N]-C--CA-[N] |==|  0.97228
USER: genes 3 Torsion [C]-CA--CB-[CG] |==|  0.25140
USER: genes 4 Torsion [CA]-CB--CG-[CD1] |==|  0.69509
USER: genes 5 Torsion [C]-CA--N-[C] |==|  0.59036
USER: genes 6 Torsion [N]-C--CA-[N] |==|  0.47142
USER: genes 7 Torsion [C]-CA--N-[C] |==|  0.55484
USER: genes 8 Torsion [N]-C--CA-[N] |==|  0.42718
USER: genes 9 Torsion [C]-CA--CB-[CG1] |==|  0.79295
USER: genes 10 Torsion [C]-CA--N-[H3] |==|  0.89804
USER: genes 11 Torsion [C]-N--CA-[CB] |==|  0.25299
USER: genes 12 Torsion [N]-CA--CB-[CG] |==|  0.00873
USER: genes 13 Torsion [CA]-CB--CG-[CD] |==|  0.47703
USER: genes 14 Torsion [CB]-CG--CD-[NE] |==|  0.80538
USER: genes 15 Torsion [CG]-CD--NE-[HE] |==|  0.79071
USER: genes 16 Torsion [N]-CA--C-[N] |==|  0.22516
USER: genes 17 Torsion [C]-N--CA-[CB] |==|  0.27820
USER: genes 18 Torsion [N]-CA--CB-[OG] |==|  0.97179
USER: genes 19 Torsion [CA]-CB--OG-[HG] |==|  0.80725
USER: genes 20 Torsion [N]-CA--C-[O] |==|  0.00117
ROOT
ATOM      1  C   PHE B   3      14.999  15.678   2.296  0.50 54.14 LIG 0.24  C 
ATOM      2 O    PHE B   3      15.167  15.715   1.070  0.50 54.24 LIG-0.27  OA
ATOM      3  N   ARG B   4      15.971  15.853   3.208  0.50 53.92 LIG-0.35  N 
ATOM      4 H    ARG B   4      15.806  15.790   4.049  0.50 53.92 LIG 0.16  HD
ENDROOT
BRANCH 1 5
ATOM      5  CA  PHE B   3      13.681  15.218   2.950  0.50 54.27 LIG 0.18  C 
BRANCH 5 6
ATOM      6  CB  PHE B   3      12.980  16.559   2.704  0.50 54.22 LIG 0.07  C 
BRANCH 6 7
ATOM      7  CG  PHE B   3      12.217  16.737   1.424  0.50 54.33 LIG-0.06  A 
ATOM      8  CD1 PHE B   3      12.607  17.564   0.385  0.50 54.51 LIG 0.01  A 
ATOM      9  CE1 PHE B   3      11.851  17.589  -0.800  0.50 54.50 LIG 0.00  A 
ATOM     10  CZ  PHE B   3      10.736  16.766  -0.939  0.50 54.39 LIG 0.00  A 
ATOM     11  CE2 PHE B   3      10.378  15.929   0.086  0.50 54.37 LIG 0.00  A 
ATOM     12  CD2 PHE B   3      11.115  15.912   1.239  0.50 54.38 LIG 0.01  A 
ENDBRANCH 6 7
ENDBRANCH 5 6
BRANCH 5 13
ATOM     13  N   PHE B   3      13.743  14.823   4.399  0.50 54.44 LIG-0.35  N 
ATOM     14  C   ALA B   2      12.955  13.863   4.922  0.50 54.50 LIG 0.24  C 
ATOM     15 O    ALA B   2      12.323  13.068   4.288  0.50 54.60 LIG-0.27  OA
ATOM     16 H    PHE B   3      14.323  15.263   4.857  0.50 54.44 LIG 0.16  HD
BRANCH 14 17
ATOM     17  CA  ALA B   2      13.040  13.485   6.455  0.50 54.51 LIG 0.17  C 
ATOM     18  CB  ALA B   2      14.466  13.066   6.851  0.50 54.51 LIG 0.04  C 
BRANCH 17 19
ATOM     19  N   ALA B   2      12.010  12.592   7.060  0.50 54.51 LIG-0.35  N 
ATOM     20  C   VAL B   1      11.780  12.530   8.384  0.50 54.58 LIG 0.25  C 
ATOM     21 O    VAL B   1      12.527  13.057   9.215  0.50 54.60 LIG-0.27  OA
ATOM     22 H    ALA B   2      11.579  12.121   6.484  0.50 54.51 LIG 0.16  HD
BRANCH 20 23
ATOM     23  CA  VAL B   1      10.560  11.679   8.845  0.50 54.68 LIG 0.28  C 
BRANCH 23 24
ATOM     24  CB  VAL B   1       9.144  12.374   8.691  0.50 54.64 LIG 0.02  C 
ATOM     25  CG1 VAL B   1       8.939  13.439   9.757  0.50 54.60 LIG 0.01  C 
ATOM     26  CG2 VAL B   1       8.950  12.996   7.341  0.50 55.61 LIG 0.01  C 
ENDBRANCH 23 24
BRANCH 23 27
ATOM     27  N   VAL B   1      10.758  11.173  10.231  0.50 54.62 LIG-0.07  N 
ATOM     28 H1   VAL B   1      10.521  11.802  10.814  0.50 54.62 LIG 0.28  HD
ATOM     29 H2   VAL B   1      10.256  10.448  10.357  0.50 54.62 LIG 0.28  HD
ATOM     30 H3   VAL B   1      11.614  10.965  10.352  0.50 54.62 LIG 0.28  HD
ENDBRANCH 23 27
ENDBRANCH 20 23
ENDBRANCH 17 19
ENDBRANCH 14 17
ENDBRANCH 5 13
ENDBRANCH 1 5
BRANCH 3 31
ATOM     31  CA  ARG B   4      17.383  16.160   2.952  0.50 53.70 LIG 0.18  C 
BRANCH 31 32
ATOM     32  CB  ARG B   4      17.605  17.656   2.932  0.50 53.42 LIG 0.04  C 
BRANCH 32 33
ATOM     33  CG  ARG B   4      16.404  18.440   3.239  0.50 52.08 LIG 0.02  C 
BRANCH 33 34
ATOM     34  CD  ARG B   4      16.850  19.814   3.368  0.50 49.49 LIG 0.14  C 
BRANCH 34 35
ATOM     35  NE  ARG B   4      17.648  20.118   4.525  0.50 47.76 LIG-0.23  N 
ATOM     36 HE   ARG B   4      17.275  20.188   5.296  0.50 47.76 LIG 0.18  HD
ATOM     37  CZ  ARG B   4      18.941  20.289   4.409  0.50 46.12 LIG 0.67  C 
ATOM     38  NH1 ARG B   4      19.480  20.175   3.200  0.50 45.18 LIG-0.23  N 
ATOM     39  NH2 ARG B   4      19.691  20.564   5.459  0.50 44.70 LIG-0.23  N 
ATOM     40 11HH ARG B   4      18.982  19.993   2.522  0.50 45.18 LIG 0.17  HD
ATOM     41 12HH ARG B   4      20.327  20.283   3.094  0.50 45.18 LIG 0.17  HD
ATOM     42 21HH ARG B   4      19.331  20.633   6.238  0.50 44.70 LIG 0.17  HD
ATOM     43 22HH ARG B   4      20.539  20.673   5.366  0.50 44.70 LIG 0.17  HD
ENDBRANCH 34 35
ENDBRANCH 33 34
ENDBRANCH 32 33
ENDBRANCH 31 32
BRANCH 31 44
ATOM     44  C   ARG B   4      18.298  15.743   4.095  0.50 54.09 LIG 0.24  C 
ATOM     45 O    ARG B   4      18.774  16.550   4.888  0.50 54.04 LIG-0.27  OA
ATOM     46  N   SER B   5      18.596  14.448   4.059  0.50 54.63 LIG-0.35  N 
ATOM     47 H    SER B   5      18.227  13.928   3.481  0.50 54.63 LIG 0.16  HD
BRANCH 46 48
ATOM     48  CA  SER B   5      19.530  13.711   4.922  0.50 55.09 LIG 0.18  C 
BRANCH 48 49
ATOM     49  CB  SER B   5      18.752  12.973   6.009  0.50 55.14 LIG 0.20  C 
BRANCH 49 50
ATOM     50 OG   SER B   5      17.398  13.395   6.013  0.50 55.40 LIG-0.40  OA
ATOM     51 HG   SER B   5      17.353  14.189   6.287  0.50 55.40 LIG 0.21  HD
ENDBRANCH 49 50
ENDBRANCH 48 49
BRANCH 48 52
ATOM     52  C   SER B   5      20.581  12.754   4.369  0.50 55.23 LIG 0.31  A 
ATOM     53 OXT  SER B   5      20.876  12.443   3.218  0.50 55.49 LIG-0.19  OA
ATOM     54 O    SER B   5      20.578  12.663   3.143  0.50 55.48 LIG-0.19  OA
ENDBRANCH 48 52
ENDBRANCH 46 48
ENDBRANCH 31 44
ENDBRANCH 3 31
TORSDOF 19
ENDMDL
