MODEL 1
USER: ADFR SOLUTION from run 155
USER: SCORE 17.301160 LL:  -2.308 LR: -15.247 RR:   0.000 FEB: -10.773
USER: RMSD 7.863896
USER: SEED 154
USER: STATUS no improvement in best 3 clusters for 5 generations
USER: GENES 17
USER: genes 0 Translation |==|  0.49631 0.54039 0.32473
USER: genes 1 Rotation |==|  0.91406 0.31354 0.55986 0.70052
USER: genes 2 Torsion [N]-C--CA-[N] |==|  0.40323
USER: genes 3 Torsion [C]-CA--CB-[CG] |==|  0.44947
USER: genes 4 Torsion [CA]-CB--CG-[OD2] |==|  0.40691
USER: genes 5 Torsion [C]-CA--N-[C] |==|  0.56667
USER: genes 6 Torsion [N]-C--CA-[N] |==|  0.78398
USER: genes 7 Torsion [C]-CA--N-[H2] |==|  0.76361
USER: genes 8 Torsion [C]-CA--CB-[CG] |==|  0.12260
USER: genes 9 Torsion [CA]-CB--CG-[CD2] |==|  0.73159
USER: genes 10 Torsion [N]-CA--C-[O] |==|  0.84870
USER: genes 11 Torsion [C]-N--CA-[CB] |==|  0.79879
USER: genes 12 Torsion [N]-CA--C-[O] |==|  0.12135
USER: genes 13 Torsion [N]-CA--CB-[CG] |==|  0.68209
USER: genes 14 Torsion [CA]-CB--CG-[CD] |==|  0.48264
USER: genes 15 Torsion [CB]-CG--CD-[NE] |==|  0.62569
USER: genes 16 Torsion [CG]-CD--NE-[HE] |==|  0.59840
ROOT
ATOM      1  C   ASP R  39      16.239 -12.998  17.772  1.00 39.81 LIG 0.24  C 
ATOM      2 O    ASP R  39      14.973 -13.024  17.530  1.00 39.68 LIG-0.27  OA
ATOM      3  N   PRO R  40      16.855 -13.083  18.914  1.00 39.27 LIG-0.34  N 
ATOM      4  CA  PRO R  40      16.003 -13.324  20.162  1.00 39.34 LIG 0.18  A 
ATOM      5  CB  PRO R  40      16.995 -13.605  21.258  1.00 38.99 LIG 0.04  A 
ATOM      6  CG  PRO R  40      18.381 -13.485  20.676  1.00 38.95 LIG 0.02  A 
ATOM      7  CD  PRO R  40      18.288 -13.083  19.202  1.00 38.89 LIG 0.13  A 
ENDROOT
BRANCH 1 8
ATOM      8  CA  ASP R  39      17.125 -12.744  16.550  1.00 40.71 LIG 0.19  C 
BRANCH 8 9
ATOM      9  CB  ASP R  39      17.239 -11.232  16.188  1.00 43.11 LIG 0.15  C 
BRANCH 9 10
ATOM     10  CG  ASP R  39      18.430 -10.915  15.284  1.00 44.48 LIG 0.17  C 
ATOM     11 OD2  ASP R  39      18.468 -10.032  14.401  1.00 43.91 LIG-0.65  OA
ATOM     12 OD1  ASP R  39      19.383 -11.752  15.530  1.00 46.24 LIG-0.65  OA
ENDBRANCH 9 10
ENDBRANCH 8 9
BRANCH 8 13
ATOM     13  N   ASP R  39      16.505 -13.474  15.472  1.00 41.53 LIG-0.34  N 
ATOM     14 H    ASP R  39      15.666 -13.602  15.611  1.00 41.53 LIG 0.16  HD
ATOM     15  C   LEU R  38      17.078 -13.908  14.408  1.00 42.61 LIG 0.25  C 
ATOM     16 O    LEU R  38      18.316 -13.785  14.238  1.00 42.97 LIG-0.27  OA
BRANCH 15 17
ATOM     17  CA  LEU R  38      16.142 -14.719  13.480  1.00 43.36 LIG 0.28  C 
BRANCH 17 18
ATOM     18  N   LEU R  38      15.975 -16.066  14.030  1.00 44.18 LIG-0.07  N 
ATOM     19 H1   LEU R  38      15.203 -16.409  13.747  1.00 44.18 LIG 0.28  HD
ATOM     20 H2   LEU R  38      16.646 -16.584  13.757  1.00 44.18 LIG 0.28  HD
ATOM     21 H3   LEU R  38      15.975 -16.026  14.918  1.00 44.18 LIG 0.28  HD
ENDBRANCH 17 18
BRANCH 17 22
ATOM     22  CB  LEU R  38      14.708 -14.149  13.207  1.00 42.68 LIG 0.05  C 
BRANCH 22 23
ATOM     23  CG  LEU R  38      14.556 -12.661  12.905  1.00 43.59 LIG-0.02  C 
ATOM     24  CD2 LEU R  38      14.176 -11.923  14.216  1.00 43.82 LIG 0.01  C 
ATOM     25  CD1 LEU R  38      13.555 -12.335  11.778  1.00 42.78 LIG 0.01  C 
ENDBRANCH 22 23
ENDBRANCH 17 22
ENDBRANCH 15 17
ENDBRANCH 8 13
ENDBRANCH 1 8
BRANCH 4 26
ATOM     26  C   PRO R  40      15.036 -12.154  20.212  1.00 39.48 LIG 0.24  C 
ATOM     27 O    PRO R  40      15.485 -10.946  20.188  1.00 40.12 LIG-0.27  OA
ATOM     28  N   ARG R  41      13.714 -12.346  20.192  1.00 39.52 LIG-0.35  N 
ATOM     29 H    ARG R  41      13.378 -13.138  20.184  1.00 39.52 LIG 0.16  HD
BRANCH 28 30
ATOM     30  CA  ARG R  41      12.661 -11.290  20.179  1.00 39.38 LIG 0.13  C 
BRANCH 30 31
ATOM     31  C   ARG R  41      12.774 -10.168  19.109  1.00 39.99 LIG 0.20  C 
ATOM     32 O    ARG R  41      13.082 -10.460  17.864  1.00 39.75 LIG-0.22  OA
ENDBRANCH 30 31
BRANCH 30 33
ATOM     33  CB  ARG R  41      12.574 -10.601  21.578  1.00 38.11 LIG 0.03  C 
BRANCH 33 34
ATOM     34  CG  ARG R  41      11.173 -10.945  22.182  1.00 35.63 LIG 0.02  C 
BRANCH 34 35
ATOM     35  CD  ARG R  41      11.103 -10.450  23.545  1.00 36.53 LIG 0.14  C 
BRANCH 35 36
ATOM     36  NE  ARG R  41      10.537 -11.335  24.643  1.00 36.92 LIG-0.23  N 
ATOM     37 HE   ARG R  41      10.080 -10.975  25.276  1.00 36.92 LIG 0.18  HD
ATOM     38  CZ  ARG R  41      10.736 -12.706  24.653  1.00 37.60 LIG 0.67  C 
ATOM     39  NH2 ARG R  41       9.975 -13.460  25.537  1.00 37.55 LIG-0.23  N 
ATOM     40  NH1 ARG R  41      11.502 -13.381  23.734  1.00 34.72 LIG-0.23  N 
ATOM     41 21HH ARG R  41       9.406 -13.073  26.053  1.00 37.55 LIG 0.17  HD
ATOM     42 22HH ARG R  41      10.074 -14.314  25.569  1.00 37.55 LIG 0.17  HD
ATOM     43 11HH ARG R  41      11.895 -12.950  23.102  1.00 34.72 LIG 0.17  HD
ATOM     44 12HH ARG R  41      11.589 -14.236  23.792  1.00 34.72 LIG 0.17  HD
ENDBRANCH 35 36
ENDBRANCH 34 35
ENDBRANCH 33 34
ENDBRANCH 30 33
ENDBRANCH 28 30
ENDBRANCH 4 26
TORSDOF 15
ENDMDL
MODEL 2
USER: ADFR SOLUTION from run 24
USER: SCORE 17.764551 LL:  -2.710 LR: -15.244 RR:   0.000 FEB: -10.770
USER: RMSD 1.291939
USER: SEED 23
USER: STATUS 1 or 2 clusters left
USER: GENES 17
USER: genes 0 Translation |==|  0.51311 0.49155 0.47358
USER: genes 1 Rotation |==|  0.51704 0.51005 0.52829 0.99881
USER: genes 2 Torsion [N]-C--CA-[N] |==|  0.30560
USER: genes 3 Torsion [C]-CA--CB-[CG] |==|  0.62600
USER: genes 4 Torsion [CA]-CB--CG-[OD2] |==|  0.92529
USER: genes 5 Torsion [C]-CA--N-[C] |==|  0.78057
USER: genes 6 Torsion [N]-C--CA-[N] |==|  0.13786
USER: genes 7 Torsion [C]-CA--N-[H2] |==|  0.15886
USER: genes 8 Torsion [C]-CA--CB-[CG] |==|  0.13941
USER: genes 9 Torsion [CA]-CB--CG-[CD2] |==|  0.64831
USER: genes 10 Torsion [N]-CA--C-[O] |==|  0.84855
USER: genes 11 Torsion [C]-N--CA-[CB] |==|  0.52937
USER: genes 12 Torsion [N]-CA--C-[O] |==|  0.59272
USER: genes 13 Torsion [N]-CA--CB-[CG] |==|  0.63691
USER: genes 14 Torsion [CA]-CB--CG-[CD] |==|  0.26013
USER: genes 15 Torsion [CB]-CG--CD-[NE] |==|  0.61757
USER: genes 16 Torsion [CG]-CD--NE-[HE] |==|  0.11527
ROOT
ATOM      1  C   ASP R  39      16.743 -14.463  22.238  1.00 39.81 LIG 0.24  C 
ATOM      2 O    ASP R  39      15.693 -13.828  22.631  1.00 39.68 LIG-0.27  OA
ATOM      3  N   PRO R  40      17.714 -14.047  21.480  1.00 39.27 LIG-0.34  N 
ATOM      4  CA  PRO R  40      17.687 -12.584  21.032  1.00 39.34 LIG 0.18  A 
ATOM      5  CB  PRO R  40      19.026 -12.353  20.386  1.00 38.99 LIG 0.04  A 
ATOM      6  CG  PRO R  40      19.790 -13.653  20.415  1.00 38.95 LIG 0.02  A 
ATOM      7  CD  PRO R  40      18.924 -14.745  21.047  1.00 38.89 LIG 0.13  A 
ENDROOT
BRANCH 1 8
ATOM      8  CA  ASP R  39      16.801 -15.935  22.653  1.00 40.71 LIG 0.19  C 
BRANCH 8 9
ATOM      9  CB  ASP R  39      15.464 -16.693  22.387  1.00 43.11 LIG 0.15  C 
BRANCH 9 10
ATOM     10  CG  ASP R  39      15.023 -17.569  23.559  1.00 44.48 LIG 0.17  C 
ATOM     11 OD2  ASP R  39      15.774 -18.087  24.413  1.00 43.91 LIG-0.65  OA
ATOM     12 OD1  ASP R  39      13.745 -17.747  23.497  1.00 46.24 LIG-0.65  OA
ENDBRANCH 9 10
ENDBRANCH 8 9
BRANCH 8 13
ATOM     13  N   ASP R  39      17.100 -15.921  24.063  1.00 41.53 LIG-0.34  N 
ATOM     14 H    ASP R  39      16.397 -16.055  24.542  1.00 41.53 LIG 0.16  HD
ATOM     15  C   LEU R  38      18.250 -15.738  24.604  1.00 42.61 LIG 0.25  C 
ATOM     16 O    LEU R  38      19.262 -15.472  23.909  1.00 42.97 LIG-0.27  OA
BRANCH 15 17
ATOM     17  CA  LEU R  38      18.217 -15.710  26.151  1.00 43.36 LIG 0.28  C 
BRANCH 17 18
ATOM     18  N   LEU R  38      17.476 -16.878  26.634  1.00 44.18 LIG-0.07  N 
ATOM     19 H1   LEU R  38      16.633 -16.833  26.350  1.00 44.18 LIG 0.28  HD
ATOM     20 H2   LEU R  38      17.855 -17.620  26.322  1.00 44.18 LIG 0.28  HD
ATOM     21 H3   LEU R  38      17.489 -16.890  27.524  1.00 44.18 LIG 0.28  HD
ENDBRANCH 17 18
BRANCH 17 22
ATOM     22  CB  LEU R  38      19.587 -15.684  26.911  1.00 42.68 LIG 0.05  C 
BRANCH 22 23
ATOM     23  CG  LEU R  38      20.636 -14.654  26.499  1.00 43.59 LIG-0.02  C 
ATOM     24  CD2 LEU R  38      21.968 -15.392  26.201  1.00 43.82 LIG 0.01  C 
ATOM     25  CD1 LEU R  38      20.850 -13.517  27.519  1.00 42.78 LIG 0.01  C 
ENDBRANCH 22 23
ENDBRANCH 17 22
ENDBRANCH 15 17
ENDBRANCH 8 13
ENDBRANCH 1 8
BRANCH 4 26
ATOM     26  C   PRO R  40      16.376 -12.425  20.282  1.00 39.48 LIG 0.24  C 
ATOM     27 O    PRO R  40      16.098 -13.211  19.298  1.00 40.12 LIG-0.27  OA
ATOM     28  N   ARG R  41      15.456 -11.540  20.673  1.00 39.52 LIG-0.35  N 
ATOM     29 H    ARG R  41      15.596 -11.014  21.339  1.00 39.52 LIG 0.16  HD
BRANCH 28 30
ATOM     30  CA  ARG R  41      14.112 -11.324  20.063  1.00 39.38 LIG 0.13  C 
BRANCH 30 31
ATOM     31  C   ARG R  41      14.025 -11.241  18.514  1.00 39.99 LIG 0.20  C 
ATOM     32 O    ARG R  41      13.139 -10.460  17.934  1.00 39.75 LIG-0.22  OA
ENDBRANCH 30 31
BRANCH 30 33
ATOM     33  CB  ARG R  41      13.462 -10.027  20.643  1.00 38.11 LIG 0.03  C 
BRANCH 33 34
ATOM     34  CG  ARG R  41      12.008 -10.392  21.088  1.00 35.63 LIG 0.02  C 
BRANCH 34 35
ATOM     35  CD  ARG R  41      12.012 -10.747  22.497  1.00 36.53 LIG 0.14  C 
BRANCH 35 36
ATOM     36  NE  ARG R  41      11.201 -11.938  22.978  1.00 36.92 LIG-0.23  N 
ATOM     37 HE   ARG R  41      11.196 -12.658  22.508  1.00 36.92 LIG 0.18  HD
ATOM     38  CZ  ARG R  41      10.470 -11.899  24.154  1.00 37.60 LIG 0.67  C 
ATOM     39  NH2 ARG R  41       9.975 -13.100  24.645  1.00 37.55 LIG-0.23  N 
ATOM     40  NH1 ARG R  41      10.350 -10.785  24.951  1.00 34.72 LIG-0.23  N 
ATOM     41 21HH ARG R  41      10.127 -13.832  24.222  1.00 37.55 LIG 0.17  HD
ATOM     42 22HH ARG R  41       9.517 -13.110  25.373  1.00 37.55 LIG 0.17  HD
ATOM     43 11HH ARG R  41      10.744 -10.053  24.729  1.00 34.72 LIG 0.17  HD
ATOM     44 12HH ARG R  41       9.881 -10.821  25.672  1.00 34.72 LIG 0.17  HD
ENDBRANCH 35 36
ENDBRANCH 34 35
ENDBRANCH 33 34
ENDBRANCH 30 33
ENDBRANCH 28 30
ENDBRANCH 4 26
TORSDOF 15
ENDMDL
MODEL 3
USER: ADFR SOLUTION from run 138
USER: SCORE 17.598070 LL:  -2.494 LR: -15.149 RR:   0.000 FEB: -10.674
USER: RMSD 8.196736
USER: SEED 137
USER: STATUS no improvement in best 5 clusters for 5 generations
USER: GENES 17
USER: genes 0 Translation |==|  0.41875 0.52166 0.44523
USER: genes 1 Rotation |==|  0.73601 0.38151 0.12107 0.69150
USER: genes 2 Torsion [N]-C--CA-[N] |==|  0.41111
USER: genes 3 Torsion [C]-CA--CB-[CG] |==|  0.36386
USER: genes 4 Torsion [CA]-CB--CG-[OD2] |==|  0.79339
USER: genes 5 Torsion [C]-CA--N-[C] |==|  0.83888
USER: genes 6 Torsion [N]-C--CA-[N] |==|  0.50495
USER: genes 7 Torsion [C]-CA--N-[H2] |==|  0.06777
USER: genes 8 Torsion [C]-CA--CB-[CG] |==|  0.23873
USER: genes 9 Torsion [CA]-CB--CG-[CD2] |==|  0.73997
USER: genes 10 Torsion [N]-CA--C-[O] |==|  0.26648
USER: genes 11 Torsion [C]-N--CA-[CB] |==|  0.23029
USER: genes 12 Torsion [N]-CA--C-[O] |==|  0.63668
USER: genes 13 Torsion [N]-CA--CB-[CG] |==|  0.68758
USER: genes 14 Torsion [CA]-CB--CG-[CD] |==|  0.57486
USER: genes 15 Torsion [CB]-CG--CD-[NE] |==|  0.05426
USER: genes 16 Torsion [CG]-CD--NE-[HE] |==|  0.00935
ROOT
ATOM      1  C   ASP R  39      13.913 -13.560  21.387  1.00 39.81 LIG 0.24  C 
ATOM      2 O    ASP R  39      14.173 -13.230  22.605  1.00 39.68 LIG-0.27  OA
ATOM      3  N   PRO R  40      14.395 -14.543  20.686  1.00 39.27 LIG-0.34  N 
ATOM      4  CA  PRO R  40      15.349 -15.512  21.387  1.00 39.34 LIG 0.18  A 
ATOM      5  CB  PRO R  40      15.540 -16.640  20.410  1.00 38.99 LIG 0.04  A 
ATOM      6  CG  PRO R  40      14.759 -16.316  19.162  1.00 38.95 LIG 0.02  A 
ATOM      7  CD  PRO R  40      14.090 -14.947  19.314  1.00 38.89 LIG 0.13  A 
ENDROOT
BRANCH 1 8
ATOM      8  CA  ASP R  39      12.973 -12.607  20.646  1.00 40.71 LIG 0.19  C 
BRANCH 8 9
ATOM      9  CB  ASP R  39      13.718 -11.393  20.010  1.00 43.11 LIG 0.15  C 
BRANCH 9 10
ATOM     10  CG  ASP R  39      13.349 -11.156  18.547  1.00 44.48 LIG 0.17  C 
ATOM     11 OD2  ASP R  39      13.725 -11.844  17.573  1.00 43.91 LIG-0.65  OA
ATOM     12 OD1  ASP R  39      12.633 -10.085  18.459  1.00 46.24 LIG-0.65  OA
ENDBRANCH 9 10
ENDBRANCH 8 9
BRANCH 8 13
ATOM     13  N   ASP R  39      12.030 -12.154  21.638  1.00 41.53 LIG-0.34  N 
ATOM     14 H    ASP R  39      12.033 -11.297  21.718  1.00 41.53 LIG 0.16  HD
ATOM     15  C   LEU R  38      11.251 -12.886  22.349  1.00 42.61 LIG 0.25  C 
ATOM     16 O    LEU R  38      11.296 -14.140  22.285  1.00 42.97 LIG-0.27  OA
BRANCH 15 17
ATOM     17  CA  LEU R  38      10.410 -12.092  23.377  1.00 43.36 LIG 0.28  C 
BRANCH 17 18
ATOM     18  N   LEU R  38       9.596 -13.029  24.155  1.00 44.18 LIG-0.07  N 
ATOM     19 H1   LEU R  38       8.783 -13.085  23.796  1.00 44.18 LIG 0.28  HD
ATOM     20 H2   LEU R  38       9.980 -13.832  24.148  1.00 44.18 LIG 0.28  HD
ATOM     21 H3   LEU R  38       9.531 -12.740  24.994  1.00 44.18 LIG 0.28  HD
ENDBRANCH 17 18
BRANCH 17 22
ATOM     22  CB  LEU R  38      11.173 -11.182  24.400  1.00 42.68 LIG 0.05  C 
BRANCH 22 23
ATOM     23  CG  LEU R  38      11.536  -9.758  23.986  1.00 43.59 LIG-0.02  C 
ATOM     24  CD2 LEU R  38      12.975  -9.760  23.405  1.00 43.82 LIG 0.01  C 
ATOM     25  CD1 LEU R  38      11.396  -8.710  25.109  1.00 42.78 LIG 0.01  C 
ENDBRANCH 22 23
ENDBRANCH 17 22
ENDBRANCH 15 17
ENDBRANCH 8 13
ENDBRANCH 1 8
BRANCH 4 26
ATOM     26  C   PRO R  40      16.499 -14.649  21.878  1.00 39.48 LIG 0.24  C 
ATOM     27 O    PRO R  40      16.502 -14.210  23.090  1.00 40.12 LIG-0.27  OA
ATOM     28  N   ARG R  41      17.560 -14.404  21.106  1.00 39.52 LIG-0.35  N 
ATOM     29 H    ARG R  41      17.604 -14.699  20.299  1.00 39.52 LIG 0.16  HD
BRANCH 28 30
ATOM     30  CA  ARG R  41      18.775 -13.624  21.483  1.00 39.38 LIG 0.13  C 
BRANCH 30 31
ATOM     31  C   ARG R  41      19.568 -12.924  20.345  1.00 39.99 LIG 0.20  C 
ATOM     32 O    ARG R  41      20.873 -13.064  20.254  1.00 39.75 LIG-0.22  OA
ENDBRANCH 30 31
BRANCH 30 33
ATOM     33  CB  ARG R  41      19.775 -14.534  22.265  1.00 38.11 LIG 0.03  C 
BRANCH 33 34
ATOM     34  CG  ARG R  41      19.834 -14.007  23.736  1.00 35.63 LIG 0.02  C 
BRANCH 34 35
ATOM     35  CD  ARG R  41      21.124 -14.340  24.313  1.00 36.53 LIG 0.14  C 
BRANCH 35 36
ATOM     36  NE  ARG R  41      22.295 -14.674  23.405  1.00 36.92 LIG-0.23  N 
ATOM     37 HE   ARG R  41      22.192 -14.619  22.552  1.00 36.92 LIG 0.18  HD
ATOM     38  CZ  ARG R  41      23.525 -15.064  23.909  1.00 37.60 LIG 0.67  C 
ATOM     39  NH2 ARG R  41      24.600 -15.097  23.030  1.00 37.55 LIG-0.23  N 
ATOM     40  NH1 ARG R  41      23.787 -15.250  25.245  1.00 34.72 LIG-0.23  N 
ATOM     41 21HH ARG R  41      24.488 -14.881  22.205  1.00 37.55 LIG 0.17  HD
ATOM     42 22HH ARG R  41      25.377 -15.335  23.311  1.00 37.55 LIG 0.17  HD
ATOM     43 11HH ARG R  41      23.166 -15.124  25.827  1.00 34.72 LIG 0.17  HD
ATOM     44 12HH ARG R  41      24.573 -15.493  25.499  1.00 34.72 LIG 0.17  HD
ENDBRANCH 35 36
ENDBRANCH 34 35
ENDBRANCH 33 34
ENDBRANCH 30 33
ENDBRANCH 28 30
ENDBRANCH 4 26
TORSDOF 15
ENDMDL
MODEL 4
USER: ADFR SOLUTION from run 106
USER: SCORE 16.413950 LL:  -2.234 LR: -15.141 RR:   0.000 FEB: -10.666
USER: RMSD 7.093325
USER: SEED 105
USER: STATUS no improvement in best 5 clusters for 5 generations
USER: GENES 17
USER: genes 0 Translation |==|  0.43690 0.53255 0.46176
USER: genes 1 Rotation |==|  0.38223 0.35369 0.43182 0.95834
USER: genes 2 Torsion [N]-C--CA-[N] |==|  0.40996
USER: genes 3 Torsion [C]-CA--CB-[CG] |==|  0.39718
USER: genes 4 Torsion [CA]-CB--CG-[OD2] |==|  0.89487
USER: genes 5 Torsion [C]-CA--N-[C] |==|  0.22346
USER: genes 6 Torsion [N]-C--CA-[N] |==|  0.77048
USER: genes 7 Torsion [C]-CA--N-[H2] |==|  0.03699
USER: genes 8 Torsion [C]-CA--CB-[CG] |==|  0.21081
USER: genes 9 Torsion [CA]-CB--CG-[CD2] |==|  0.81430
USER: genes 10 Torsion [N]-CA--C-[O] |==|  0.91048
USER: genes 11 Torsion [C]-N--CA-[CB] |==|  0.85185
USER: genes 12 Torsion [N]-CA--C-[O] |==|  0.23029
USER: genes 13 Torsion [N]-CA--CB-[CG] |==|  0.58609
USER: genes 14 Torsion [CA]-CB--CG-[CD] |==|  0.74568
USER: genes 15 Torsion [CB]-CG--CD-[NE] |==|  0.42445
USER: genes 16 Torsion [CG]-CD--NE-[HE] |==|  0.90784
ROOT
ATOM      1  C   ASP R  39      14.457 -13.234  21.883  1.00 39.81 LIG 0.24  C 
ATOM      2 O    ASP R  39      13.835 -12.307  21.237  1.00 39.68 LIG-0.27  OA
ATOM      3  N   PRO R  40      15.726 -13.515  21.887  1.00 39.27 LIG-0.34  N 
ATOM      4  CA  PRO R  40      16.658 -12.599  21.090  1.00 39.34 LIG 0.18  A 
ATOM      5  CB  PRO R  40      18.046 -13.032  21.476  1.00 38.99 LIG 0.04  A 
ATOM      6  CG  PRO R  40      17.927 -14.192  22.430  1.00 38.95 LIG 0.02  A 
ATOM      7  CD  PRO R  40      16.451 -14.542  22.634  1.00 38.89 LIG 0.13  A 
ENDROOT
BRANCH 1 8
ATOM      8  CA  ASP R  39      13.558 -14.180  22.681  1.00 40.71 LIG 0.19  C 
BRANCH 8 9
ATOM      9  CB  ASP R  39      12.987 -15.347  21.817  1.00 43.11 LIG 0.15  C 
BRANCH 9 10
ATOM     10  CG  ASP R  39      12.896 -16.671  22.574  1.00 44.48 LIG 0.17  C 
ATOM     11 OD2  ASP R  39      13.725 -17.101  23.405  1.00 43.91 LIG-0.65  OA
ATOM     12 OD1  ASP R  39      11.853 -17.317  22.172  1.00 46.24 LIG-0.65  OA
ENDBRANCH 9 10
ENDBRANCH 8 9
BRANCH 8 13
ATOM     13  N   ASP R  39      12.487 -13.355  23.183  1.00 41.53 LIG-0.34  N 
ATOM     14 H    ASP R  39      12.614 -13.128  24.003  1.00 41.53 LIG 0.16  HD
ATOM     15  C   LEU R  38      11.445 -12.972  22.538  1.00 42.61 LIG 0.25  C 
ATOM     16 O    LEU R  38      11.224 -13.362  21.365  1.00 42.97 LIG-0.27  OA
BRANCH 15 17
ATOM     17  CA  LEU R  38      10.448 -12.152  23.391  1.00 43.36 LIG 0.28  C 
BRANCH 17 18
ATOM     18  N   LEU R  38       9.600 -13.073  24.152  1.00 44.18 LIG-0.07  N 
ATOM     19 H1   LEU R  38       8.783 -13.085  23.798  1.00 44.18 LIG 0.28  HD
ATOM     20 H2   LEU R  38       9.949 -13.891  24.122  1.00 44.18 LIG 0.28  HD
ATOM     21 H3   LEU R  38       9.553 -12.802  24.998  1.00 44.18 LIG 0.28  HD
ENDBRANCH 17 18
BRANCH 17 22
ATOM     22  CB  LEU R  38      11.035 -11.115  24.409  1.00 42.68 LIG 0.05  C 
BRANCH 22 23
ATOM     23  CG  LEU R  38      11.583  -9.794  23.877  1.00 43.59 LIG-0.02  C 
ATOM     24  CD2 LEU R  38      12.850 -10.085  23.030  1.00 43.82 LIG 0.01  C 
ATOM     25  CD1 LEU R  38      11.875  -8.738  24.963  1.00 42.78 LIG 0.01  C 
ENDBRANCH 22 23
ENDBRANCH 17 22
ENDBRANCH 15 17
ENDBRANCH 8 13
ENDBRANCH 1 8
BRANCH 4 26
ATOM     26  C   PRO R  40      16.147 -12.662  19.661  1.00 39.48 LIG 0.24  C 
ATOM     27 O    PRO R  40      15.609 -13.747  19.217  1.00 40.12 LIG-0.27  OA
ATOM     28  N   ARG R  41      16.161 -11.585  18.872  1.00 39.52 LIG-0.35  N 
ATOM     29 H    ARG R  41      16.491 -10.838  19.141  1.00 39.52 LIG 0.16  HD
BRANCH 28 30
ATOM     30  CA  ARG R  41      15.640 -11.497  17.477  1.00 39.38 LIG 0.13  C 
BRANCH 30 31
ATOM     31  C   ARG R  41      14.100 -11.546  17.275  1.00 39.99 LIG 0.20  C 
ATOM     32 O    ARG R  41      13.371 -10.460  17.415  1.00 39.75 LIG-0.22  OA
ENDBRANCH 30 31
BRANCH 30 33
ATOM     33  CB  ARG R  41      16.268 -12.624  16.597  1.00 38.11 LIG 0.03  C 
BRANCH 33 34
ATOM     34  CG  ARG R  41      16.372 -12.073  15.137  1.00 35.63 LIG 0.02  C 
BRANCH 34 35
ATOM     35  CD  ARG R  41      15.167 -12.422  14.406  1.00 36.53 LIG 0.14  C 
BRANCH 35 36
ATOM     36  NE  ARG R  41      14.707 -11.552  13.248  1.00 36.92 LIG-0.23  N 
ATOM     37 HE   ARG R  41      14.849 -10.704  13.280  1.00 36.92 LIG 0.18  HD
ATOM     38  CZ  ARG R  41      14.065 -12.083  12.142  1.00 37.60 LIG 0.67  C 
ATOM     39  NH2 ARG R  41      13.914 -11.266  11.030  1.00 37.55 LIG-0.23  N 
ATOM     40  NH1 ARG R  41      13.725 -13.409  12.010  1.00 34.72 LIG-0.23  N 
ATOM     41 21HH ARG R  41      14.214 -10.460  11.045  1.00 37.55 LIG 0.17  HD
ATOM     42 22HH ARG R  41      13.520 -11.565  10.327  1.00 37.55 LIG 0.17  HD
ATOM     43 11HH ARG R  41      13.911 -13.965  12.640  1.00 34.72 LIG 0.17  HD
ATOM     44 12HH ARG R  41      13.326 -13.681  11.298  1.00 34.72 LIG 0.17  HD
ENDBRANCH 35 36
ENDBRANCH 34 35
ENDBRANCH 33 34
ENDBRANCH 30 33
ENDBRANCH 28 30
ENDBRANCH 4 26
TORSDOF 15
ENDMDL
MODEL 5
USER: ADFR SOLUTION from run 60
USER: SCORE 16.697450 LL:  -2.359 LR: -14.487 RR:   0.000 FEB: -10.013
USER: RMSD 7.508823
USER: SEED 59
USER: STATUS no improvement in best 6 clusters for 5 generations
USER: GENES 17
USER: genes 0 Translation |==|  0.41879 0.51991 0.44612
USER: genes 1 Rotation |==|  0.74860 0.38250 0.12394 0.68158
USER: genes 2 Torsion [N]-C--CA-[N] |==|  0.41574
USER: genes 3 Torsion [C]-CA--CB-[CG] |==|  0.48137
USER: genes 4 Torsion [CA]-CB--CG-[OD2] |==|  0.71119
USER: genes 5 Torsion [C]-CA--N-[C] |==|  0.84740
USER: genes 6 Torsion [N]-C--CA-[N] |==|  0.50566
USER: genes 7 Torsion [C]-CA--N-[H2] |==|  0.72767
USER: genes 8 Torsion [C]-CA--CB-[CG] |==|  0.23692
USER: genes 9 Torsion [CA]-CB--CG-[CD2] |==|  0.73615
USER: genes 10 Torsion [N]-CA--C-[O] |==|  0.24668
USER: genes 11 Torsion [C]-N--CA-[CB] |==|  0.25771
USER: genes 12 Torsion [N]-CA--C-[O] |==|  0.78581
USER: genes 13 Torsion [N]-CA--CB-[CG] |==|  0.84198
USER: genes 14 Torsion [CA]-CB--CG-[CD] |==|  0.68783
USER: genes 15 Torsion [CB]-CG--CD-[NE] |==|  0.58929
USER: genes 16 Torsion [CG]-CD--NE-[HE] |==|  0.34636
ROOT
ATOM      1  C   ASP R  39      13.914 -13.613  21.413  1.00 39.81 LIG 0.24  C 
ATOM      2 O    ASP R  39      14.115 -13.333  22.655  1.00 39.68 LIG-0.27  OA
ATOM      3  N   PRO R  40      14.421 -14.575  20.701  1.00 39.27 LIG-0.34  N 
ATOM      4  CA  PRO R  40      15.327 -15.582  21.412  1.00 39.34 LIG 0.18  A 
ATOM      5  CB  PRO R  40      15.556 -16.674  20.403  1.00 38.99 LIG 0.04  A 
ATOM      6  CG  PRO R  40      14.844 -16.292  19.130  1.00 38.95 LIG 0.02  A 
ATOM      7  CD  PRO R  40      14.183 -14.923  19.301  1.00 38.89 LIG 0.13  A 
ENDROOT
BRANCH 1 8
ATOM      8  CA  ASP R  39      13.024 -12.620  20.663  1.00 40.71 LIG 0.19  C 
BRANCH 8 9
ATOM      9  CB  ASP R  39      13.821 -11.413  20.078  1.00 43.11 LIG 0.15  C 
BRANCH 9 10
ATOM     10  CG  ASP R  39      12.974 -10.502  19.191  1.00 44.48 LIG 0.17  C 
ATOM     11 OD2  ASP R  39      13.001 -10.460  17.942  1.00 43.91 LIG-0.65  OA
ATOM     12 OD1  ASP R  39      12.261  -9.727  19.938  1.00 46.24 LIG-0.65  OA
ENDBRANCH 9 10
ENDBRANCH 8 9
BRANCH 8 13
ATOM     13  N   ASP R  39      12.060 -12.163  21.633  1.00 41.53 LIG-0.34  N 
ATOM     14 H    ASP R  39      12.054 -11.305  21.701  1.00 41.53 LIG 0.16  HD
ATOM     15  C   LEU R  38      11.278 -12.893  22.342  1.00 42.61 LIG 0.25  C 
ATOM     16 O    LEU R  38      11.337 -14.147  22.297  1.00 42.97 LIG-0.27  OA
BRANCH 15 17
ATOM     17  CA  LEU R  38      10.412 -12.093  23.345  1.00 43.36 LIG 0.28  C 
BRANCH 17 18
ATOM     18  N   LEU R  38       9.600 -13.027  24.127  1.00 44.18 LIG-0.07  N 
ATOM     19 H1   LEU R  38       9.549 -12.743  24.970  1.00 44.18 LIG 0.28  HD
ATOM     20 H2   LEU R  38       8.783 -13.074  23.780  1.00 44.18 LIG 0.28  HD
ATOM     21 H3   LEU R  38       9.976 -13.834  24.109  1.00 44.18 LIG 0.28  HD
ENDBRANCH 17 18
BRANCH 17 22
ATOM     22  CB  LEU R  38      11.149 -11.155  24.362  1.00 42.68 LIG 0.05  C 
BRANCH 22 23
ATOM     23  CG  LEU R  38      11.513  -9.739  23.924  1.00 43.59 LIG-0.02  C 
ATOM     24  CD2 LEU R  38      12.975  -9.739  23.405  1.00 43.82 LIG 0.01  C 
ATOM     25  CD1 LEU R  38      11.311  -8.662  25.010  1.00 42.78 LIG 0.01  C 
ENDBRANCH 22 23
ENDBRANCH 17 22
ENDBRANCH 15 17
ENDBRANCH 8 13
ENDBRANCH 1 8
BRANCH 4 26
ATOM     26  C   PRO R  40      16.459 -14.753  21.994  1.00 39.48 LIG 0.24  C 
ATOM     27 O    PRO R  40      16.344 -14.244  23.173  1.00 40.12 LIG-0.27  OA
ATOM     28  N   ARG R  41      17.617 -14.608  21.345  1.00 39.52 LIG-0.35  N 
ATOM     29 H    ARG R  41      17.739 -14.952  20.566  1.00 39.52 LIG 0.16  HD
BRANCH 28 30
ATOM     30  CA  ARG R  41      18.822 -13.873  21.827  1.00 39.38 LIG 0.13  C 
BRANCH 30 31
ATOM     31  C   ARG R  41      19.656 -13.085  20.779  1.00 39.99 LIG 0.20  C 
ATOM     32 O    ARG R  41      20.475 -13.715  19.965  1.00 39.75 LIG-0.22  OA
ENDBRANCH 30 31
BRANCH 30 33
ATOM     33  CB  ARG R  41      19.791 -14.853  22.561  1.00 38.11 LIG 0.03  C 
BRANCH 33 34
ATOM     34  CG  ARG R  41      18.987 -15.523  23.723  1.00 35.63 LIG 0.02  C 
BRANCH 34 35
ATOM     35  CD  ARG R  41      19.514 -15.069  24.997  1.00 36.53 LIG 0.14  C 
BRANCH 35 36
ATOM     36  NE  ARG R  41      19.490 -15.997  26.199  1.00 36.92 LIG-0.23  N 
ATOM     37 HE   ARG R  41      20.225 -16.164  26.614  1.00 36.92 LIG 0.18  HD
ATOM     38  CZ  ARG R  41      18.319 -16.584  26.648  1.00 37.60 LIG 0.67  C 
ATOM     39  NH2 ARG R  41      18.343 -17.202  27.891  1.00 37.55 LIG-0.23  N 
ATOM     40  NH1 ARG R  41      17.100 -16.446  26.028  1.00 34.72 LIG-0.23  N 
ATOM     41 21HH ARG R  41      19.068 -17.211  28.352  1.00 37.55 LIG 0.17  HD
ATOM     42 22HH ARG R  41      17.632 -17.576  28.199  1.00 37.55 LIG 0.17  HD
ATOM     43 11HH ARG R  41      17.032 -15.970  25.314  1.00 34.72 LIG 0.17  HD
ATOM     44 12HH ARG R  41      16.405 -16.835  26.353  1.00 34.72 LIG 0.17  HD
ENDBRANCH 35 36
ENDBRANCH 34 35
ENDBRANCH 33 34
ENDBRANCH 30 33
ENDBRANCH 28 30
ENDBRANCH 4 26
TORSDOF 15
ENDMDL
MODEL 6
USER: ADFR SOLUTION from run 84
USER: SCORE 16.712121 LL:  -2.459 LR: -14.439 RR:   0.000 FEB:  -9.965
USER: RMSD 7.531124
USER: SEED 83
USER: STATUS 1 or 2 clusters left
USER: GENES 17
USER: genes 0 Translation |==|  0.48423 0.50871 0.36724
USER: genes 1 Rotation |==|  0.98640 0.52329 0.49705 0.61343
USER: genes 2 Torsion [N]-C--CA-[N] |==|  0.32084
USER: genes 3 Torsion [C]-CA--CB-[CG] |==|  0.49019
USER: genes 4 Torsion [CA]-CB--CG-[OD2] |==|  0.60513
USER: genes 5 Torsion [C]-CA--N-[C] |==|  0.70116
USER: genes 6 Torsion [N]-C--CA-[N] |==|  0.86049
USER: genes 7 Torsion [C]-CA--N-[H2] |==|  0.74051
USER: genes 8 Torsion [C]-CA--CB-[CG] |==|  0.10751
USER: genes 9 Torsion [CA]-CB--CG-[CD2] |==|  0.59950
USER: genes 10 Torsion [N]-CA--C-[O] |==|  0.76050
USER: genes 11 Torsion [C]-N--CA-[CB] |==|  0.27630
USER: genes 12 Torsion [N]-CA--C-[O] |==|  0.16872
USER: genes 13 Torsion [N]-CA--CB-[CG] |==|  0.79829
USER: genes 14 Torsion [CA]-CB--CG-[CD] |==|  0.67648
USER: genes 15 Torsion [CB]-CG--CD-[NE] |==|  0.09045
USER: genes 16 Torsion [CG]-CD--NE-[HE] |==|  0.93163
ROOT
ATOM      1  C   ASP R  39      15.877 -13.949  19.047  1.00 39.81 LIG 0.24  C 
ATOM      2 O    ASP R  39      14.972 -14.862  19.148  1.00 39.68 LIG-0.27  OA
ATOM      3  N   PRO R  40      16.928 -13.754  19.788  1.00 39.27 LIG-0.34  N 
ATOM      4  CA  PRO R  40      17.210 -14.770  20.897  1.00 39.34 LIG 0.18  A 
ATOM      5  CB  PRO R  40      18.581 -14.414  21.406  1.00 38.99 LIG 0.04  A 
ATOM      6  CG  PRO R  40      19.060 -13.202  20.649  1.00 38.95 LIG 0.02  A 
ATOM      7  CD  PRO R  40      17.976 -12.743  19.671  1.00 38.89 LIG 0.13  A 
ENDROOT
BRANCH 1 8
ATOM      8  CA  ASP R  39      15.622 -12.905  17.958  1.00 40.71 LIG 0.19  C 
BRANCH 8 9
ATOM      9  CB  ASP R  39      14.208 -12.254  18.060  1.00 43.11 LIG 0.15  C 
BRANCH 9 10
ATOM     10  CG  ASP R  39      13.976 -11.150  17.030  1.00 44.48 LIG 0.17  C 
ATOM     11 OD2  ASP R  39      13.350 -10.085  17.222  1.00 43.91 LIG-0.65  OA
ATOM     12 OD1  ASP R  39      14.475 -11.516  15.897  1.00 46.24 LIG-0.65  OA
ENDBRANCH 9 10
ENDBRANCH 8 9
BRANCH 8 13
ATOM     13  N   ASP R  39      15.761 -13.614  16.710  1.00 41.53 LIG-0.34  N 
ATOM     14 H    ASP R  39      15.097 -14.143  16.566  1.00 41.53 LIG 0.16  HD
ATOM     15  C   LEU R  38      16.729 -13.515  15.873  1.00 42.61 LIG 0.25  C 
ATOM     16 O    LEU R  38      17.731 -12.799  16.117  1.00 42.97 LIG-0.27  OA
BRANCH 15 17
ATOM     17  CA  LEU R  38      16.609 -14.472  14.662  1.00 43.36 LIG 0.28  C 
BRANCH 17 18
ATOM     18  N   LEU R  38      16.350 -15.828  15.148  1.00 44.18 LIG-0.07  N 
ATOM     19 H1   LEU R  38      15.827 -16.257  14.569  1.00 44.18 LIG 0.28  HD
ATOM     20 H2   LEU R  38      17.120 -16.266  15.233  1.00 44.18 LIG 0.28  HD
ATOM     21 H3   LEU R  38      15.945 -15.788  15.939  1.00 44.18 LIG 0.28  HD
ENDBRANCH 17 18
BRANCH 17 22
ATOM     22  CB  LEU R  38      15.519 -14.151  13.582  1.00 42.68 LIG 0.05  C 
BRANCH 22 23
ATOM     23  CG  LEU R  38      15.272 -12.694  13.199  1.00 43.59 LIG-0.02  C 
ATOM     24  CD2 LEU R  38      13.757 -12.503  12.920  1.00 43.82 LIG 0.01  C 
ATOM     25  CD1 LEU R  38      16.120 -12.191  12.013  1.00 42.78 LIG 0.01  C 
ENDBRANCH 22 23
ENDBRANCH 17 22
ENDBRANCH 15 17
ENDBRANCH 8 13
ENDBRANCH 1 8
BRANCH 4 26
ATOM     26  C   PRO R  40      15.975 -14.744  21.781  1.00 39.48 LIG 0.24  C 
ATOM     27 O    PRO R  40      15.882 -13.877  22.731  1.00 40.12 LIG-0.27  OA
ATOM     28  N   ARG R  41      14.935 -15.546  21.542  1.00 39.52 LIG-0.35  N 
ATOM     29 H    ARG R  41      14.952 -16.122  20.903  1.00 39.52 LIG 0.16  HD
BRANCH 28 30
ATOM     30  CA  ARG R  41      13.647 -15.582  22.294  1.00 39.38 LIG 0.13  C 
BRANCH 30 31
ATOM     31  C   ARG R  41      13.054 -16.973  22.648  1.00 39.99 LIG 0.20  C 
ATOM     32 O    ARG R  41      13.725 -17.814  23.405  1.00 39.75 LIG-0.22  OA
ENDBRANCH 30 31
BRANCH 30 33
ATOM     33  CB  ARG R  41      12.550 -14.785  21.517  1.00 38.11 LIG 0.03  C 
BRANCH 33 34
ATOM     34  CG  ARG R  41      12.890 -13.265  21.659  1.00 35.63 LIG 0.02  C 
BRANCH 34 35
ATOM     35  CD  ARG R  41      11.823 -12.600  22.386  1.00 36.53 LIG 0.14  C 
BRANCH 35 36
ATOM     36  NE  ARG R  41      11.062 -13.352  23.464  1.00 36.92 LIG-0.23  N 
ATOM     37 HE   ARG R  41      11.028 -14.211  23.431  1.00 36.92 LIG 0.18  HD
ATOM     38  CZ  ARG R  41      10.420 -12.695  24.501  1.00 37.60 LIG 0.67  C 
ATOM     39  NH2 ARG R  41       9.975 -13.460  25.571  1.00 37.55 LIG-0.23  N 
ATOM     40  NH1 ARG R  41      10.350 -11.328  24.622  1.00 34.72 LIG-0.23  N 
ATOM     41 21HH ARG R  41      10.101 -14.310  25.573  1.00 37.55 LIG 0.17  HD
ATOM     42 22HH ARG R  41       9.573 -13.083  26.231  1.00 37.55 LIG 0.17  HD
ATOM     43 11HH ARG R  41      10.719 -10.824  24.030  1.00 34.72 LIG 0.17  HD
ATOM     44 12HH ARG R  41       9.937 -10.976  25.289  1.00 34.72 LIG 0.17  HD
ENDBRANCH 35 36
ENDBRANCH 34 35
ENDBRANCH 33 34
ENDBRANCH 30 33
ENDBRANCH 28 30
ENDBRANCH 4 26
TORSDOF 15
ENDMDL
MODEL 7
USER: ADFR SOLUTION from run 102
USER: SCORE 15.994534 LL:  -1.678 LR: -14.379 RR:   0.000 FEB:  -9.904
USER: RMSD 10.029273
USER: SEED 101
USER: STATUS no improvement in best 8 clusters for 5 generations
USER: GENES 17
USER: genes 0 Translation |==|  0.49714 0.56266 0.24846
USER: genes 1 Rotation |==|  0.40963 0.49919 0.99141 0.51867
USER: genes 2 Torsion [N]-C--CA-[N] |==|  0.35081
USER: genes 3 Torsion [C]-CA--CB-[CG] |==|  0.07080
USER: genes 4 Torsion [CA]-CB--CG-[OD2] |==|  0.24363
USER: genes 5 Torsion [C]-CA--N-[C] |==|  0.79451
USER: genes 6 Torsion [N]-C--CA-[N] |==|  0.09480
USER: genes 7 Torsion [C]-CA--N-[H2] |==|  0.25208
USER: genes 8 Torsion [C]-CA--CB-[CG] |==|  0.45258
USER: genes 9 Torsion [CA]-CB--CG-[CD2] |==|  0.66708
USER: genes 10 Torsion [N]-CA--C-[O] |==|  0.98125
USER: genes 11 Torsion [C]-N--CA-[CB] |==|  0.52174
USER: genes 12 Torsion [N]-CA--C-[O] |==|  0.38275
USER: genes 13 Torsion [N]-CA--CB-[CG] |==|  0.68292
USER: genes 14 Torsion [CA]-CB--CG-[CD] |==|  0.30351
USER: genes 15 Torsion [CB]-CG--CD-[NE] |==|  0.00155
USER: genes 16 Torsion [CG]-CD--NE-[HE] |==|  0.24819
ROOT
ATOM      1  C   ASP R  39      16.264 -12.330  15.484  1.00 39.81 LIG 0.24  C 
ATOM      2 O    ASP R  39      17.017 -13.173  16.105  1.00 39.68 LIG-0.27  OA
ATOM      3  N   PRO R  40      15.541 -12.511  14.419  1.00 39.27 LIG-0.34  N 
ATOM      4  CA  PRO R  40      15.485 -13.923  13.831  1.00 39.34 LIG 0.18  A 
ATOM      5  CB  PRO R  40      14.411 -13.861  12.780  1.00 38.99 LIG 0.04  A 
ATOM      6  CG  PRO R  40      13.891 -12.448  12.725  1.00 38.95 LIG 0.02  A 
ATOM      7  CD  PRO R  40      14.662 -11.576  13.719  1.00 38.89 LIG 0.13  A 
ENDROOT
BRANCH 1 8
ATOM      8  CA  ASP R  39      16.304 -10.902  16.032  1.00 40.71 LIG 0.19  C 
BRANCH 8 9
ATOM      9  CB  ASP R  39      17.713 -10.244  15.908  1.00 43.11 LIG 0.15  C 
BRANCH 9 10
ATOM     10  CG  ASP R  39      18.558 -10.833  14.780  1.00 44.48 LIG 0.17  C 
ATOM     11 OD2  ASP R  39      18.558 -10.457  13.588  1.00 43.91 LIG-0.65  OA
ATOM     12 OD1  ASP R  39      19.234 -11.835  15.236  1.00 46.24 LIG-0.65  OA
ENDBRANCH 9 10
ENDBRANCH 8 9
BRANCH 8 13
ATOM     13  N   ASP R  39      15.922 -11.016  17.418  1.00 41.53 LIG-0.34  N 
ATOM     14 H    ASP R  39      16.595 -10.918  17.946  1.00 41.53 LIG 0.16  HD
ATOM     15  C   LEU R  38      14.742 -11.234  17.875  1.00 42.61 LIG 0.25  C 
ATOM     16 O    LEU R  38      13.774 -11.448  17.105  1.00 42.97 LIG-0.27  OA
BRANCH 15 17
ATOM     17  CA  LEU R  38      14.683 -11.372  19.415  1.00 43.36 LIG 0.28  C 
BRANCH 17 18
ATOM     18  N   LEU R  38      15.681 -10.482  20.013  1.00 44.18 LIG-0.07  N 
ATOM     19 H1   LEU R  38      16.363 -10.380  19.450  1.00 44.18 LIG 0.28  HD
ATOM     20 H2   LEU R  38      15.311  -9.690  20.178  1.00 44.18 LIG 0.28  HD
ATOM     21 H3   LEU R  38      15.975 -10.835  20.775  1.00 44.18 LIG 0.28  HD
ENDBRANCH 17 18
BRANCH 17 22
ATOM     22  CB  LEU R  38      13.317 -11.080  20.124  1.00 42.68 LIG 0.05  C 
BRANCH 22 23
ATOM     23  CG  LEU R  38      13.110 -11.576  21.553  1.00 43.59 LIG-0.02  C 
ATOM     24  CD2 LEU R  38      11.902 -12.549  21.572  1.00 43.82 LIG 0.01  C 
ATOM     25  CD1 LEU R  38      12.935 -10.457  22.600  1.00 42.78 LIG 0.01  C 
ENDBRANCH 22 23
ENDBRANCH 17 22
ENDBRANCH 15 17
ENDBRANCH 8 13
ENDBRANCH 1 8
BRANCH 4 26
ATOM     26  C   PRO R  40      16.927 -14.275  13.511  1.00 39.48 LIG 0.24  C 
ATOM     27 O    PRO R  40      17.850 -13.382  13.632  1.00 40.12 LIG-0.27  OA
ATOM     28  N   ARG R  41      17.281 -15.521  13.186  1.00 39.52 LIG-0.35  N 
ATOM     29 H    ARG R  41      16.697 -16.148  13.118  1.00 39.52 LIG 0.16  HD
BRANCH 28 30
ATOM     30  CA  ARG R  41      18.663 -16.010  12.905  1.00 39.38 LIG 0.13  C 
BRANCH 30 31
ATOM     31  C   ARG R  41      19.537 -15.183  11.922  1.00 39.99 LIG 0.20  C 
ATOM     32 O    ARG R  41      20.807 -14.960  12.181  1.00 39.75 LIG-0.22  OA
ENDBRANCH 30 31
BRANCH 30 33
ATOM     33  CB  ARG R  41      18.615 -17.478  12.374  1.00 38.11 LIG 0.03  C 
BRANCH 33 34
ATOM     34  CG  ARG R  41      19.304 -18.385  13.445  1.00 35.63 LIG 0.02  C 
BRANCH 34 35
ATOM     35  CD  ARG R  41      18.299 -19.201  14.103  1.00 36.53 LIG 0.14  C 
BRANCH 35 36
ATOM     36  NE  ARG R  41      16.842 -19.085  13.688  1.00 36.92 LIG-0.23  N 
ATOM     37 HE   ARG R  41      16.546 -19.586  13.055  1.00 36.92 LIG 0.18  HD
ATOM     38  CZ  ARG R  41      15.976 -18.194  14.300  1.00 37.60 LIG 0.67  C 
ATOM     39  NH2 ARG R  41      14.619 -18.335  14.041  1.00 37.55 LIG-0.23  N 
ATOM     40  NH1 ARG R  41      16.350 -17.299  15.273  1.00 34.72 LIG-0.23  N 
ATOM     41 21HH ARG R  41      14.344 -18.958  13.517  1.00 37.55 LIG 0.17  HD
ATOM     42 22HH ARG R  41      14.054 -17.798  14.406  1.00 37.55 LIG 0.17  HD
ATOM     43 11HH ARG R  41      17.168 -17.268  15.538  1.00 34.72 LIG 0.17  HD
ATOM     44 12HH ARG R  41      15.766 -16.769  15.617  1.00 34.72 LIG 0.17  HD
ENDBRANCH 35 36
ENDBRANCH 34 35
ENDBRANCH 33 34
ENDBRANCH 30 33
ENDBRANCH 28 30
ENDBRANCH 4 26
TORSDOF 15
ENDMDL
MODEL 8
USER: ADFR SOLUTION from run 108
USER: SCORE 15.385823 LL:  -2.153 LR: -14.286 RR:   0.000 FEB:  -9.812
USER: RMSD 4.072951
USER: SEED 107
USER: STATUS no improvement in best 2 clusters for 5 generations
USER: GENES 17
USER: genes 0 Translation |==|  0.58578 0.48578 0.46344
USER: genes 1 Rotation |==|  0.54624 0.76513 0.69368 0.87424
USER: genes 2 Torsion [N]-C--CA-[N] |==|  0.36417
USER: genes 3 Torsion [C]-CA--CB-[CG] |==|  0.53530
USER: genes 4 Torsion [CA]-CB--CG-[OD2] |==|  0.37093
USER: genes 5 Torsion [C]-CA--N-[C] |==|  0.21689
USER: genes 6 Torsion [N]-C--CA-[N] |==|  0.93799
USER: genes 7 Torsion [C]-CA--N-[H2] |==|  0.12723
USER: genes 8 Torsion [C]-CA--CB-[CG] |==|  0.10648
USER: genes 9 Torsion [CA]-CB--CG-[CD2] |==|  0.15343
USER: genes 10 Torsion [N]-CA--C-[O] |==|  0.24023
USER: genes 11 Torsion [C]-N--CA-[CB] |==|  0.45480
USER: genes 12 Torsion [N]-CA--C-[O] |==|  0.48518
USER: genes 13 Torsion [N]-CA--CB-[CG] |==|  0.74160
USER: genes 14 Torsion [CA]-CB--CG-[CD] |==|  0.96102
USER: genes 15 Torsion [CB]-CG--CD-[NE] |==|  0.43781
USER: genes 16 Torsion [CG]-CD--NE-[HE] |==|  0.77027
ROOT
ATOM      1  C   ASP R  39      18.923 -14.637  21.933  1.00 39.81 LIG 0.24  C 
ATOM      2 O    ASP R  39      18.678 -14.692  23.197  1.00 39.68 LIG-0.27  OA
ATOM      3  N   PRO R  40      18.305 -13.962  21.010  1.00 39.27 LIG-0.34  N 
ATOM      4  CA  PRO R  40      17.170 -13.034  21.449  1.00 39.34 LIG 0.18  A 
ATOM      5  CB  PRO R  40      16.825 -12.239  20.220  1.00 38.99 LIG 0.04  A 
ATOM      6  CG  PRO R  40      17.697 -12.722  19.089  1.00 38.95 LIG 0.02  A 
ATOM      7  CD  PRO R  40      18.587 -13.867  19.578  1.00 38.89 LIG 0.13  A 
ENDROOT
BRANCH 1 8
ATOM      8  CA  ASP R  39      20.042 -15.563  21.451  1.00 40.71 LIG 0.19  C 
BRANCH 8 9
ATOM      9  CB  ASP R  39      19.663 -17.073  21.550  1.00 43.11 LIG 0.15  C 
BRANCH 9 10
ATOM     10  CG  ASP R  39      20.858 -18.008  21.369  1.00 44.48 LIG 0.17  C 
ATOM     11 OD2  ASP R  39      21.137 -18.992  22.088  1.00 43.91 LIG-0.65  OA
ATOM     12 OD1  ASP R  39      21.583 -17.585  20.387  1.00 46.24 LIG-0.65  OA
ENDBRANCH 9 10
ENDBRANCH 8 9
BRANCH 8 13
ATOM     13  N   ASP R  39      21.170 -15.271  22.300  1.00 41.53 LIG-0.34  N 
ATOM     14 H    ASP R  39      21.748 -14.770  21.906  1.00 41.53 LIG 0.16  HD
ATOM     15  C   LEU R  38      21.351 -15.677  23.505  1.00 42.61 LIG 0.25  C 
ATOM     16 O    LEU R  38      20.544 -16.465  24.056  1.00 42.97 LIG-0.27  OA
BRANCH 15 17
ATOM     17  CA  LEU R  38      22.706 -15.244  24.115  1.00 43.36 LIG 0.28  C 
BRANCH 17 18
ATOM     18  N   LEU R  38      23.646 -14.950  23.030  1.00 44.18 LIG-0.07  N 
ATOM     19 H1   LEU R  38      23.920 -15.712  22.660  1.00 44.18 LIG 0.28  HD
ATOM     20 H2   LEU R  38      23.242 -14.450  22.415  1.00 44.18 LIG 0.28  HD
ATOM     21 H3   LEU R  38      24.347 -14.509  23.356  1.00 44.18 LIG 0.28  HD
ENDBRANCH 17 18
BRANCH 17 22
ATOM     22  CB  LEU R  38      22.713 -14.009  25.080  1.00 42.68 LIG 0.05  C 
BRANCH 22 23
ATOM     23  CG  LEU R  38      21.550 -13.832  26.053  1.00 43.59 LIG-0.02  C 
ATOM     24  CD2 LEU R  38      21.408 -15.124  26.900  1.00 43.82 LIG 0.01  C 
ATOM     25  CD1 LEU R  38      20.210 -13.460  25.385  1.00 42.78 LIG 0.01  C 
ENDBRANCH 22 23
ENDBRANCH 17 22
ENDBRANCH 15 17
ENDBRANCH 8 13
ENDBRANCH 1 8
BRANCH 4 26
ATOM     26  C   PRO R  40      16.171 -13.936  22.151  1.00 39.48 LIG 0.24  C 
ATOM     27 O    PRO R  40      16.308 -14.196  23.407  1.00 40.12 LIG-0.27  OA
ATOM     28  N   ARG R  41      15.093 -14.403  21.516  1.00 39.52 LIG-0.35  N 
ATOM     29 H    ARG R  41      14.955 -14.232  20.684  1.00 39.52 LIG 0.16  HD
BRANCH 28 30
ATOM     30  CA  ARG R  41      14.010 -15.246  22.100  1.00 39.38 LIG 0.13  C 
BRANCH 30 31
ATOM     31  C   ARG R  41      14.341 -16.730  22.418  1.00 39.99 LIG 0.20  C 
ATOM     32 O    ARG R  41      13.463 -17.496  23.030  1.00 39.75 LIG-0.22  OA
ENDBRANCH 30 31
BRANCH 30 33
ATOM     33  CB  ARG R  41      12.756 -15.231  21.169  1.00 38.11 LIG 0.03  C 
BRANCH 33 34
ATOM     34  CG  ARG R  41      11.814 -14.088  21.671  1.00 35.63 LIG 0.02  C 
BRANCH 34 35
ATOM     35  CD  ARG R  41      12.240 -13.662  22.993  1.00 36.53 LIG 0.14  C 
BRANCH 35 36
ATOM     36  NE  ARG R  41      11.862 -12.280  23.499  1.00 36.92 LIG-0.23  N 
ATOM     37 HE   ARG R  41      12.339 -11.604  23.264  1.00 36.92 LIG 0.18  HD
ATOM     38  CZ  ARG R  41      10.771 -12.077  24.327  1.00 37.60 LIG 0.67  C 
ATOM     39  NH2 ARG R  41      10.349 -10.769  24.528  1.00 37.55 LIG-0.23  N 
ATOM     40  NH1 ARG R  41       9.977 -13.085  24.819  1.00 34.72 LIG-0.23  N 
ATOM     41 21HH ARG R  41      10.763 -10.120  24.144  1.00 37.55 LIG 0.17  HD
ATOM     42 22HH ARG R  41       9.674 -10.608  25.036  1.00 37.55 LIG 0.17  HD
ATOM     43 11HH ARG R  41      10.147 -13.903  24.616  1.00 34.72 LIG 0.17  HD
ATOM     44 12HH ARG R  41       9.312 -12.897  25.331  1.00 34.72 LIG 0.17  HD
ENDBRANCH 35 36
ENDBRANCH 34 35
ENDBRANCH 33 34
ENDBRANCH 30 33
ENDBRANCH 28 30
ENDBRANCH 4 26
TORSDOF 15
ENDMDL
MODEL 9
USER: ADFR SOLUTION from run 150
USER: SCORE 17.035554 LL:  -2.962 LR: -14.267 RR:   0.000 FEB:  -9.793
USER: RMSD 6.960235
USER: SEED 149
USER: STATUS no improvement in best 20 clusters for 5 generations
USER: GENES 17
USER: genes 0 Translation |==|  0.38722 0.53298 0.42442
USER: genes 1 Rotation |==|  0.39868 0.20817 0.76698 0.78860
USER: genes 2 Torsion [N]-C--CA-[N] |==|  0.15555
USER: genes 3 Torsion [C]-CA--CB-[CG] |==|  0.36310
USER: genes 4 Torsion [CA]-CB--CG-[OD2] |==|  0.39708
USER: genes 5 Torsion [C]-CA--N-[C] |==|  0.14637
USER: genes 6 Torsion [N]-C--CA-[N] |==|  0.77203
USER: genes 7 Torsion [C]-CA--N-[H2] |==|  0.16874
USER: genes 8 Torsion [C]-CA--CB-[CG] |==|  0.24146
USER: genes 9 Torsion [CA]-CB--CG-[CD2] |==|  0.61795
USER: genes 10 Torsion [N]-CA--C-[O] |==|  0.36955
USER: genes 11 Torsion [C]-N--CA-[CB] |==|  0.79729
USER: genes 12 Torsion [N]-CA--C-[O] |==|  0.08700
USER: genes 13 Torsion [N]-CA--CB-[CG] |==|  0.84634
USER: genes 14 Torsion [CA]-CB--CG-[CD] |==|  0.42296
USER: genes 15 Torsion [CB]-CG--CD-[NE] |==|  0.05459
USER: genes 16 Torsion [CG]-CD--NE-[HE] |==|  0.82504
ROOT
ATOM      1  C   ASP R  39      12.967 -13.221  20.763  1.00 39.81 LIG 0.24  C 
ATOM      2 O    ASP R  39      12.649 -13.909  19.720  1.00 39.68 LIG-0.27  OA
ATOM      3  N   PRO R  40      13.269 -11.959  20.848  1.00 39.27 LIG-0.34  N 
ATOM      4  CA  PRO R  40      13.173 -11.120  19.571  1.00 39.34 LIG 0.18  A 
ATOM      5  CB  PRO R  40      13.348  -9.698  20.031  1.00 38.99 LIG 0.04  A 
ATOM      6  CG  PRO R  40      13.584  -9.713  21.520  1.00 38.95 LIG 0.02  A 
ATOM      7  CD  PRO R  40      13.604 -11.158  22.024  1.00 38.89 LIG 0.13  A 
ENDROOT
BRANCH 1 8
ATOM      8  CA  ASP R  39      13.087 -14.027  22.057  1.00 40.71 LIG 0.19  C 
BRANCH 8 9
ATOM      9  CB  ASP R  39      12.626 -15.508  21.894  1.00 43.11 LIG 0.15  C 
BRANCH 9 10
ATOM     10  CG  ASP R  39      13.631 -16.518  22.446  1.00 44.48 LIG 0.17  C 
ATOM     11 OD2  ASP R  39      13.354 -17.583  23.038  1.00 43.91 LIG-0.65  OA
ATOM     12 OD1  ASP R  39      14.828 -16.068  22.263  1.00 46.24 LIG-0.65  OA
ENDBRANCH 9 10
ENDBRANCH 8 9
BRANCH 8 13
ATOM     13  N   ASP R  39      12.251 -13.342  23.012  1.00 41.53 LIG-0.34  N 
ATOM     14 H    ASP R  39      12.675 -13.160  23.738  1.00 41.53 LIG 0.16  HD
ATOM     15  C   LEU R  38      11.018 -13.016  22.859  1.00 42.61 LIG 0.25  C 
ATOM     16 O    LEU R  38      10.379 -13.346  21.830  1.00 42.97 LIG-0.27  OA
BRANCH 15 17
ATOM     17  CA  LEU R  38      10.387 -12.353  24.107  1.00 43.36 LIG 0.28  C 
BRANCH 17 18
ATOM     18  N   LEU R  38       9.975 -13.398  25.047  1.00 44.18 LIG-0.07  N 
ATOM     19 H1   LEU R  38       9.386 -13.937  24.652  1.00 44.18 LIG 0.28  HD
ATOM     20 H2   LEU R  38      10.687 -13.870  25.297  1.00 44.18 LIG 0.28  HD
ATOM     21 H3   LEU R  38       9.602 -13.024  25.762  1.00 44.18 LIG 0.28  HD
ENDBRANCH 17 18
BRANCH 17 22
ATOM     22  CB  LEU R  38      11.258 -11.326  24.909  1.00 42.68 LIG 0.05  C 
BRANCH 22 23
ATOM     23  CG  LEU R  38      11.253  -9.863  24.475  1.00 43.59 LIG-0.02  C 
ATOM     24  CD2 LEU R  38      12.707  -9.323  24.530  1.00 43.82 LIG 0.01  C 
ATOM     25  CD1 LEU R  38      10.297  -8.959  25.280  1.00 42.78 LIG 0.01  C 
ENDBRANCH 22 23
ENDBRANCH 17 22
ENDBRANCH 15 17
ENDBRANCH 8 13
ENDBRANCH 1 8
BRANCH 4 26
ATOM     26  C   PRO R  40      14.120 -11.786  18.589  1.00 39.48 LIG 0.24  C 
ATOM     27 O    PRO R  40      13.735 -12.019  17.380  1.00 40.12 LIG-0.27  OA
ATOM     28  N   ARG R  41      15.384 -12.061  18.921  1.00 39.52 LIG-0.35  N 
ATOM     29 H    ARG R  41      15.684 -11.899  19.711  1.00 39.52 LIG 0.16  HD
BRANCH 28 30
ATOM     30  CA  ARG R  41      16.428 -12.658  18.038  1.00 39.38 LIG 0.13  C 
BRANCH 30 31
ATOM     31  C   ARG R  41      16.656 -12.008  16.646  1.00 39.99 LIG 0.20  C 
ATOM     32 O    ARG R  41      16.468 -10.717  16.471  1.00 39.75 LIG-0.22  OA
ENDBRANCH 30 31
BRANCH 30 33
ATOM     33  CB  ARG R  41      16.133 -14.174  17.809  1.00 38.11 LIG 0.03  C 
BRANCH 33 34
ATOM     34  CG  ARG R  41      16.028 -14.848  19.216  1.00 35.63 LIG 0.02  C 
BRANCH 34 35
ATOM     35  CD  ARG R  41      15.155 -16.005  19.131  1.00 36.53 LIG 0.14  C 
BRANCH 35 36
ATOM     36  NE  ARG R  41      14.877 -16.644  17.780  1.00 36.92 LIG-0.23  N 
ATOM     37 HE   ARG R  41      14.474 -16.183  17.175  1.00 36.92 LIG 0.18  HD
ATOM     38  CZ  ARG R  41      15.255 -17.945  17.493  1.00 37.60 LIG 0.67  C 
ATOM     39  NH2 ARG R  41      15.196 -18.356  16.168  1.00 37.55 LIG-0.23  N 
ATOM     40  NH1 ARG R  41      15.844 -18.794  18.399  1.00 34.72 LIG-0.23  N 
ATOM     41 21HH ARG R  41      14.932 -17.808  15.560  1.00 37.55 LIG 0.17  HD
ATOM     42 22HH ARG R  41      15.424 -19.158  15.956  1.00 37.55 LIG 0.17  HD
ATOM     43 11HH ARG R  41      15.999 -18.527  19.202  1.00 34.72 LIG 0.17  HD
ATOM     44 12HH ARG R  41      16.057 -19.594  18.163  1.00 34.72 LIG 0.17  HD
ENDBRANCH 35 36
ENDBRANCH 34 35
ENDBRANCH 33 34
ENDBRANCH 30 33
ENDBRANCH 28 30
ENDBRANCH 4 26
TORSDOF 15
ENDMDL
MODEL 10
USER: ADFR SOLUTION from run 108
USER: SCORE 16.371353 LL:  -2.389 LR: -14.272 RR:   0.000 FEB:  -9.798
USER: RMSD 7.428372
USER: SEED 107
USER: STATUS no improvement in best 2 clusters for 5 generations
USER: GENES 17
USER: genes 0 Translation |==|  0.41623 0.53864 0.40706
USER: genes 1 Rotation |==|  0.37754 0.26179 0.44783 0.91897
USER: genes 2 Torsion [N]-C--CA-[N] |==|  0.30391
USER: genes 3 Torsion [C]-CA--CB-[CG] |==|  0.41527
USER: genes 4 Torsion [CA]-CB--CG-[OD2] |==|  0.55432
USER: genes 5 Torsion [C]-CA--N-[C] |==|  0.65981
USER: genes 6 Torsion [N]-C--CA-[N] |==|  0.35913
USER: genes 7 Torsion [C]-CA--N-[H2] |==|  0.35460
USER: genes 8 Torsion [C]-CA--CB-[CG] |==|  0.25981
USER: genes 9 Torsion [CA]-CB--CG-[CD2] |==|  0.82505
USER: genes 10 Torsion [N]-CA--C-[O] |==|  0.94495
USER: genes 11 Torsion [C]-N--CA-[CB] |==|  0.32784
USER: genes 12 Torsion [N]-CA--C-[O] |==|  0.29874
USER: genes 13 Torsion [N]-CA--CB-[CG] |==|  0.70209
USER: genes 14 Torsion [CA]-CB--CG-[CD] |==|  0.77991
USER: genes 15 Torsion [CB]-CG--CD-[NE] |==|  0.56764
USER: genes 16 Torsion [CG]-CD--NE-[HE] |==|  0.84861
ROOT
ATOM      1  C   ASP R  39      13.837 -13.051  20.242  1.00 39.81 LIG 0.24  C 
ATOM      2 O    ASP R  39      13.410 -12.288  19.294  1.00 39.68 LIG-0.27  OA
ATOM      3  N   PRO R  40      15.037 -13.152  20.731  1.00 39.27 LIG-0.34  N 
ATOM      4  CA  PRO R  40      16.106 -12.200  20.189  1.00 39.34 LIG 0.18  A 
ATOM      5  CB  PRO R  40      17.291 -12.396  21.095  1.00 38.99 LIG 0.04  A 
ATOM      6  CG  PRO R  40      16.940 -13.461  22.102  1.00 38.95 LIG 0.02  A 
ATOM      7  CD  PRO R  40      15.531 -13.990  21.822  1.00 38.89 LIG 0.13  A 
ENDROOT
BRANCH 1 8
ATOM      8  CA  ASP R  39      12.801 -14.029  20.800  1.00 40.71 LIG 0.19  C 
BRANCH 8 9
ATOM      9  CB  ASP R  39      12.005 -14.772  19.683  1.00 43.11 LIG 0.15  C 
BRANCH 9 10
ATOM     10  CG  ASP R  39      11.557 -16.175  20.092  1.00 44.48 LIG 0.17  C 
ATOM     11 OD2  ASP R  39      11.222 -17.095  19.316  1.00 43.91 LIG-0.65  OA
ATOM     12 OD1  ASP R  39      11.516 -16.247  21.381  1.00 46.24 LIG-0.65  OA
ENDBRANCH 9 10
ENDBRANCH 8 9
BRANCH 8 13
ATOM     13  N   ASP R  39      11.911 -13.225  21.601  1.00 41.53 LIG-0.34  N 
ATOM     14 H    ASP R  39      11.551 -12.592  21.144  1.00 41.53 LIG 0.16  HD
ATOM     15  C   LEU R  38      11.646 -13.383  22.847  1.00 42.61 LIG 0.25  C 
ATOM     16 O    LEU R  38      12.225 -14.262  23.532  1.00 42.97 LIG-0.27  OA
BRANCH 15 17
ATOM     17  CA  LEU R  38      10.702 -12.302  23.428  1.00 43.36 LIG 0.28  C 
BRANCH 17 18
ATOM     18  N   LEU R  38       9.601 -12.960  24.135  1.00 44.18 LIG-0.07  N 
ATOM     19 H1   LEU R  38       9.757 -13.835  24.181  1.00 44.18 LIG 0.28  HD
ATOM     20 H2   LEU R  38       9.535 -12.627  24.957  1.00 44.18 LIG 0.28  HD
ATOM     21 H3   LEU R  38       8.839 -12.817  23.696  1.00 44.18 LIG 0.28  HD
ENDBRANCH 17 18
BRANCH 17 22
ATOM     22  CB  LEU R  38      11.316 -11.245  24.409  1.00 42.68 LIG 0.05  C 
BRANCH 22 23
ATOM     23  CG  LEU R  38      11.808  -9.916  23.840  1.00 43.59 LIG-0.02  C 
ATOM     24  CD2 LEU R  38      12.975 -10.197  22.858  1.00 43.82 LIG 0.01  C 
ATOM     25  CD1 LEU R  38      12.219  -8.878  24.905  1.00 42.78 LIG 0.01  C 
ENDBRANCH 22 23
ENDBRANCH 17 22
ENDBRANCH 15 17
ENDBRANCH 8 13
ENDBRANCH 1 8
BRANCH 4 26
ATOM     26  C   PRO R  40      16.160 -12.474  18.697  1.00 39.48 LIG 0.24  C 
ATOM     27 O    PRO R  40      15.697 -13.583  18.229  1.00 40.12 LIG-0.27  OA
ATOM     28  N   ARG R  41      16.598 -11.550  17.838  1.00 39.52 LIG-0.35  N 
ATOM     29 H    ARG R  41      16.893 -10.790  18.111  1.00 39.52 LIG 0.16  HD
BRANCH 28 30
ATOM     30  CA  ARG R  41      16.650 -11.670  16.351  1.00 39.38 LIG 0.13  C 
BRANCH 30 31
ATOM     31  C   ARG R  41      18.042 -11.590  15.667  1.00 39.99 LIG 0.20  C 
ATOM     32 O    ARG R  41      18.599 -12.667  15.156  1.00 39.75 LIG-0.22  OA
ENDBRANCH 30 31
BRANCH 30 33
ATOM     33  CB  ARG R  41      15.738 -10.585  15.694  1.00 38.11 LIG 0.03  C 
BRANCH 33 34
ATOM     34  CG  ARG R  41      14.475 -11.315  15.131  1.00 35.63 LIG 0.02  C 
BRANCH 34 35
ATOM     35  CD  ARG R  41      14.809 -11.946  13.866  1.00 36.53 LIG 0.14  C 
BRANCH 35 36
ATOM     36  NE  ARG R  41      13.714 -12.232  12.852  1.00 36.92 LIG-0.23  N 
ATOM     37 HE   ARG R  41      13.029 -12.691  13.096  1.00 36.92 LIG 0.18  HD
ATOM     38  CZ  ARG R  41      13.788 -11.777  11.547  1.00 37.60 LIG 0.67  C 
ATOM     39  NH2 ARG R  41      12.640 -11.860  10.770  1.00 37.55 LIG-0.23  N 
ATOM     40  NH1 ARG R  41      14.861 -11.094  11.027  1.00 34.72 LIG-0.23  N 
ATOM     41 21HH ARG R  41      11.918 -12.186  11.104  1.00 37.55 LIG 0.17  HD
ATOM     42 22HH ARG R  41      12.651 -11.585   9.955  1.00 37.55 LIG 0.17  HD
ATOM     43 11HH ARG R  41      15.544 -10.926  11.522  1.00 34.72 LIG 0.17  HD
ATOM     44 12HH ARG R  41      14.850 -10.835  10.207  1.00 34.72 LIG 0.17  HD
ENDBRANCH 35 36
ENDBRANCH 34 35
ENDBRANCH 33 34
ENDBRANCH 30 33
ENDBRANCH 28 30
ENDBRANCH 4 26
TORSDOF 15
ENDMDL
MODEL 11
USER: ADFR SOLUTION from run 86
USER: SCORE 18.268641 LL:  -4.438 LR: -14.169 RR:   0.000 FEB:  -9.694
USER: RMSD 7.580648
USER: SEED 85
USER: STATUS no improvement in best 9 clusters for 5 generations
USER: GENES 17
USER: genes 0 Translation |==|  0.42533 0.56465 0.44345
USER: genes 1 Rotation |==|  0.49309 0.28336 0.17045 0.80727
USER: genes 2 Torsion [N]-C--CA-[N] |==|  0.25421
USER: genes 3 Torsion [C]-CA--CB-[CG] |==|  0.19930
USER: genes 4 Torsion [CA]-CB--CG-[OD2] |==|  0.48676
USER: genes 5 Torsion [C]-CA--N-[C] |==|  0.71841
USER: genes 6 Torsion [N]-C--CA-[N] |==|  0.56053
USER: genes 7 Torsion [C]-CA--N-[H2] |==|  0.17721
USER: genes 8 Torsion [C]-CA--CB-[CG] |==|  0.22210
USER: genes 9 Torsion [CA]-CB--CG-[CD2] |==|  0.66293
USER: genes 10 Torsion [N]-CA--C-[O] |==|  0.28675
USER: genes 11 Torsion [C]-N--CA-[CB] |==|  0.80235
USER: genes 12 Torsion [N]-CA--C-[O] |==|  0.40372
USER: genes 13 Torsion [N]-CA--CB-[CG] |==|  0.65134
USER: genes 14 Torsion [CA]-CB--CG-[CD] |==|  0.31706
USER: genes 15 Torsion [CB]-CG--CD-[NE] |==|  0.17131
USER: genes 16 Torsion [CG]-CD--NE-[HE] |==|  0.76047
ROOT
ATOM      1  C   ASP R  39      14.110 -12.270  21.333  1.00 39.81 LIG 0.24  C 
ATOM      2 O    ASP R  39      14.831 -11.205  21.411  1.00 39.68 LIG-0.27  OA
ATOM      3  N   PRO R  40      14.443 -13.502  21.583  1.00 39.27 LIG-0.34  N 
ATOM      4  CA  PRO R  40      15.854 -13.761  22.117  1.00 39.34 LIG 0.18  A 
ATOM      5  CB  PRO R  40      15.853 -15.210  22.521  1.00 38.99 LIG 0.04  A 
ATOM      6  CG  PRO R  40      14.501 -15.788  22.189  1.00 38.95 LIG 0.02  A 
ATOM      7  CD  PRO R  40      13.631 -14.717  21.527  1.00 38.89 LIG 0.13  A 
ENDROOT
BRANCH 1 8
ATOM      8  CA  ASP R  39      12.696 -12.056  20.788  1.00 40.71 LIG 0.19  C 
BRANCH 8 9
ATOM      9  CB  ASP R  39      12.600 -10.843  19.812  1.00 43.11 LIG 0.15  C 
BRANCH 9 10
ATOM     10  CG  ASP R  39      13.266 -11.101  18.461  1.00 44.48 LIG 0.17  C 
ATOM     11 OD2  ASP R  39      13.258 -10.330  17.478  1.00 43.91 LIG-0.65  OA
ATOM     12 OD1  ASP R  39      13.792 -12.281  18.467  1.00 46.24 LIG-0.65  OA
ENDBRANCH 9 10
ENDBRANCH 8 9
BRANCH 8 13
ATOM     13  N   ASP R  39      11.870 -11.833  21.949  1.00 41.53 LIG-0.34  N 
ATOM     14 H    ASP R  39      11.948 -11.031  22.250  1.00 41.53 LIG 0.16  HD
ATOM     15  C   LEU R  38      11.092 -12.684  22.514  1.00 42.61 LIG 0.25  C 
ATOM     16 O    LEU R  38      11.032 -13.875  22.119  1.00 42.97 LIG-0.27  OA
BRANCH 15 17
ATOM     17  CA  LEU R  38      10.398 -12.148  23.789  1.00 43.36 LIG 0.28  C 
BRANCH 17 18
ATOM     18  N   LEU R  38       9.979 -13.281  24.617  1.00 44.18 LIG-0.07  N 
ATOM     19 H1   LEU R  38       9.454 -13.820  24.140  1.00 44.18 LIG 0.28  HD
ATOM     20 H2   LEU R  38      10.697 -13.731  24.890  1.00 44.18 LIG 0.28  HD
ATOM     21 H3   LEU R  38       9.531 -12.982  25.325  1.00 44.18 LIG 0.28  HD
ENDBRANCH 17 18
BRANCH 17 22
ATOM     22  CB  LEU R  38      11.211 -11.176  24.711  1.00 42.68 LIG 0.05  C 
BRANCH 22 23
ATOM     23  CG  LEU R  38      11.316  -9.706  24.315  1.00 43.59 LIG-0.02  C 
ATOM     24  CD2 LEU R  38      12.815  -9.340  24.153  1.00 43.82 LIG 0.01  C 
ATOM     25  CD1 LEU R  38      10.610  -8.731  25.280  1.00 42.78 LIG 0.01  C 
ENDBRANCH 22 23
ENDBRANCH 17 22
ENDBRANCH 15 17
ENDBRANCH 8 13
ENDBRANCH 1 8
BRANCH 4 26
ATOM     26  C   PRO R  40      16.787 -13.205  21.055  1.00 39.48 LIG 0.24  C 
ATOM     27 O    PRO R  40      17.373 -12.072  21.242  1.00 40.12 LIG-0.27  OA
ATOM     28  N   ARG R  41      17.086 -13.908  19.960  1.00 39.52 LIG-0.35  N 
ATOM     29 H    ARG R  41      16.733 -14.677  19.812  1.00 39.52 LIG 0.16  HD
BRANCH 28 30
ATOM     30  CA  ARG R  41      18.027 -13.505  18.874  1.00 39.38 LIG 0.13  C 
BRANCH 30 31
ATOM     31  C   ARG R  41      19.463 -13.077  19.282  1.00 39.99 LIG 0.20  C 
ATOM     32 O    ARG R  41      20.490 -13.355  18.507  1.00 39.75 LIG-0.22  OA
ENDBRANCH 30 31
BRANCH 30 33
ATOM     33  CB  ARG R  41      17.409 -12.344  18.032  1.00 38.11 LIG 0.03  C 
BRANCH 33 34
ATOM     34  CG  ARG R  41      17.418 -12.795  16.535  1.00 35.63 LIG 0.02  C 
BRANCH 34 35
ATOM     35  CD  ARG R  41      16.051 -12.947  16.070  1.00 36.53 LIG 0.14  C 
BRANCH 35 36
ATOM     36  NE  ARG R  41      15.119 -11.747  16.058  1.00 36.92 LIG-0.23  N 
ATOM     37 HE   ARG R  41      14.680 -11.551  16.771  1.00 36.92 LIG 0.18  HD
ATOM     38  CZ  ARG R  41      14.957 -10.957  14.932  1.00 37.60 LIG 0.67  C 
ATOM     39  NH2 ARG R  41      14.296  -9.745  15.084  1.00 37.55 LIG-0.23  N 
ATOM     40  NH1 ARG R  41      15.553 -11.211  13.720  1.00 34.72 LIG-0.23  N 
ATOM     41 21HH ARG R  41      14.004  -9.509  15.858  1.00 37.55 LIG 0.17  HD
ATOM     42 22HH ARG R  41      14.179  -9.231  14.405  1.00 37.55 LIG 0.17  HD
ATOM     43 11HH ARG R  41      16.064 -11.896  13.627  1.00 34.72 LIG 0.17  HD
ATOM     44 12HH ARG R  41      15.415 -10.683  13.054  1.00 34.72 LIG 0.17  HD
ENDBRANCH 35 36
ENDBRANCH 34 35
ENDBRANCH 33 34
ENDBRANCH 30 33
ENDBRANCH 28 30
ENDBRANCH 4 26
TORSDOF 15
ENDMDL
MODEL 12
USER: ADFR SOLUTION from run 64
USER: SCORE 16.441274 LL:  -2.658 LR: -14.065 RR:   0.000 FEB:  -9.590
USER: RMSD 8.020179
USER: SEED 63
USER: STATUS no improvement in best 5 clusters for 5 generations
USER: GENES 17
USER: genes 0 Translation |==|  0.48458 0.55635 0.32177
USER: genes 1 Rotation |==|  0.94872 0.33353 0.49849 0.64471
USER: genes 2 Torsion [N]-C--CA-[N] |==|  0.31149
USER: genes 3 Torsion [C]-CA--CB-[CG] |==|  0.80979
USER: genes 4 Torsion [CA]-CB--CG-[OD2] |==|  0.85427
USER: genes 5 Torsion [C]-CA--N-[C] |==|  0.65861
USER: genes 6 Torsion [N]-C--CA-[N] |==|  0.90653
USER: genes 7 Torsion [C]-CA--N-[H2] |==|  0.85494
USER: genes 8 Torsion [C]-CA--CB-[CG] |==|  0.93519
USER: genes 9 Torsion [CA]-CB--CG-[CD2] |==|  0.62245
USER: genes 10 Torsion [N]-CA--C-[O] |==|  0.78773
USER: genes 11 Torsion [C]-N--CA-[CB] |==|  0.84822
USER: genes 12 Torsion [N]-CA--C-[O] |==|  0.16796
USER: genes 13 Torsion [N]-CA--CB-[CG] |==|  0.68515
USER: genes 14 Torsion [CA]-CB--CG-[CD] |==|  0.53046
USER: genes 15 Torsion [CB]-CG--CD-[NE] |==|  0.28645
USER: genes 16 Torsion [CG]-CD--NE-[HE] |==|  0.18605
ROOT
ATOM      1  C   ASP R  39      15.887 -12.520  17.683  1.00 39.81 LIG 0.24  C 
ATOM      2 O    ASP R  39      14.600 -12.560  17.650  1.00 39.68 LIG-0.27  OA
ATOM      3  N   PRO R  40      16.693 -12.913  18.625  1.00 39.27 LIG-0.34  N 
ATOM      4  CA  PRO R  40      16.075 -13.593  19.848  1.00 39.34 LIG 0.18  A 
ATOM      5  CB  PRO R  40      17.247 -14.130  20.624  1.00 38.99 LIG 0.04  A 
ATOM      6  CG  PRO R  40      18.508 -13.734  19.900  1.00 38.95 LIG 0.02  A 
ATOM      7  CD  PRO R  40      18.154 -12.899  18.667  1.00 38.89 LIG 0.13  A 
ENDROOT
BRANCH 1 8
ATOM      8  CA  ASP R  39      16.543 -11.832  16.484  1.00 40.71 LIG 0.19  C 
BRANCH 8 9
ATOM      9  CB  ASP R  39      15.908 -10.446  16.157  1.00 43.11 LIG 0.15  C 
BRANCH 9 10
ATOM     10  CG  ASP R  39      14.480 -10.546  15.624  1.00 44.48 LIG 0.17  C 
ATOM     11 OD2  ASP R  39      14.100 -11.254  14.667  1.00 43.91 LIG-0.65  OA
ATOM     12 OD1  ASP R  39      13.725  -9.728  16.280  1.00 46.24 LIG-0.65  OA
ENDBRANCH 9 10
ENDBRANCH 8 9
BRANCH 8 13
ATOM     13  N   ASP R  39      16.362 -12.741  15.378  1.00 41.53 LIG-0.34  N 
ATOM     14 H    ASP R  39      15.532 -12.923  15.245  1.00 41.53 LIG 0.16  HD
ATOM     15  C   LEU R  38      17.284 -13.251  14.644  1.00 42.61 LIG 0.25  C 
ATOM     16 O    LEU R  38      18.498 -13.042  14.883  1.00 42.97 LIG-0.27  OA
BRANCH 15 17
ATOM     17  CA  LEU R  38      16.758 -14.249  13.584  1.00 43.36 LIG 0.28  C 
BRANCH 17 18
ATOM     18  N   LEU R  38      15.600 -14.960  14.130  1.00 44.18 LIG-0.07  N 
ATOM     19 H1   LEU R  38      15.362 -15.612  13.573  1.00 44.18 LIG 0.28  HD
ATOM     20 H2   LEU R  38      15.811 -15.308  14.921  1.00 44.18 LIG 0.28  HD
ATOM     21 H3   LEU R  38      14.922 -14.392  14.229  1.00 44.18 LIG 0.28  HD
ENDBRANCH 17 18
BRANCH 17 22
ATOM     22  CB  LEU R  38      16.334 -13.678  12.187  1.00 42.68 LIG 0.05  C 
BRANCH 22 23
ATOM     23  CG  LEU R  38      15.938 -12.207  12.087  1.00 43.59 LIG-0.02  C 
ATOM     24  CD2 LEU R  38      14.660 -12.094  11.213  1.00 43.82 LIG 0.01  C 
ATOM     25  CD1 LEU R  38      17.051 -11.279  11.559  1.00 42.78 LIG 0.01  C 
ENDBRANCH 22 23
ENDBRANCH 17 22
ENDBRANCH 15 17
ENDBRANCH 8 13
ENDBRANCH 1 8
BRANCH 4 26
ATOM     26  C   PRO R  40      15.110 -12.571  20.423  1.00 39.48 LIG 0.24  C 
ATOM     27 O    PRO R  40      15.559 -11.570  21.100  1.00 40.12 LIG-0.27  OA
ATOM     28  N   ARG R  41      13.800 -12.636  20.170  1.00 39.52 LIG-0.35  N 
ATOM     29 H    ARG R  41      13.466 -13.276  19.703  1.00 39.52 LIG 0.16  HD
BRANCH 28 30
ATOM     30  CA  ARG R  41      12.757 -11.670  20.623  1.00 39.38 LIG 0.13  C 
BRANCH 30 31
ATOM     31  C   ARG R  41      12.767 -10.248  19.998  1.00 39.99 LIG 0.20  C 
ATOM     32 O    ARG R  41      12.615 -10.085  18.701  1.00 39.75 LIG-0.22  OA
ENDBRANCH 30 31
BRANCH 30 33
ATOM     33  CB  ARG R  41      12.816 -11.505  22.175  1.00 38.11 LIG 0.03  C 
BRANCH 33 34
ATOM     34  CG  ARG R  41      11.494 -12.102  22.759  1.00 35.63 LIG 0.02  C 
BRANCH 34 35
ATOM     35  CD  ARG R  41      11.383 -11.742  24.161  1.00 36.53 LIG 0.14  C 
BRANCH 35 36
ATOM     36  NE  ARG R  41      10.438 -10.630  24.584  1.00 36.92 LIG-0.23  N 
ATOM     37 HE   ARG R  41       9.590 -10.746  24.498  1.00 36.92 LIG 0.18  HD
ATOM     38  CZ  ARG R  41      10.902  -9.433  25.103  1.00 37.60 LIG 0.67  C 
ATOM     39  NH2 ARG R  41       9.975  -8.586  25.697  1.00 37.55 LIG-0.23  N 
ATOM     40  NH1 ARG R  41      12.232  -9.108  25.225  1.00 34.72 LIG-0.23  N 
ATOM     41 21HH ARG R  41       9.146  -8.813  25.732  1.00 37.55 LIG 0.17  HD
ATOM     42 22HH ARG R  41      10.230  -7.835  26.030  1.00 37.55 LIG 0.17  HD
ATOM     43 11HH ARG R  41      12.835  -9.665  24.969  1.00 34.72 LIG 0.17  HD
ATOM     44 12HH ARG R  41      12.460  -8.347  25.556  1.00 34.72 LIG 0.17  HD
ENDBRANCH 35 36
ENDBRANCH 34 35
ENDBRANCH 33 34
ENDBRANCH 30 33
ENDBRANCH 28 30
ENDBRANCH 4 26
TORSDOF 15
ENDMDL
MODEL 13
USER: ADFR SOLUTION from run 150
USER: SCORE 16.558560 LL:  -2.928 LR: -13.980 RR:   0.000 FEB:  -9.506
USER: RMSD 7.549397
USER: SEED 149
USER: STATUS no improvement in best 20 clusters for 5 generations
USER: GENES 17
USER: genes 0 Translation |==|  0.38261 0.53317 0.43010
USER: genes 1 Rotation |==|  0.39102 0.23512 0.77280 0.80585
USER: genes 2 Torsion [N]-C--CA-[N] |==|  0.17222
USER: genes 3 Torsion [C]-CA--CB-[CG] |==|  0.34927
USER: genes 4 Torsion [CA]-CB--CG-[OD2] |==|  0.38687
USER: genes 5 Torsion [C]-CA--N-[C] |==|  0.13233
USER: genes 6 Torsion [N]-C--CA-[N] |==|  0.77941
USER: genes 7 Torsion [C]-CA--N-[H2] |==|  0.10530
USER: genes 8 Torsion [C]-CA--CB-[CG] |==|  0.23399
USER: genes 9 Torsion [CA]-CB--CG-[CD2] |==|  0.62207
USER: genes 10 Torsion [N]-CA--C-[O] |==|  0.46614
USER: genes 11 Torsion [C]-N--CA-[CB] |==|  0.26912
USER: genes 12 Torsion [N]-CA--C-[O] |==|  0.36566
USER: genes 13 Torsion [N]-CA--CB-[CG] |==|  0.67650
USER: genes 14 Torsion [CA]-CB--CG-[CD] |==|  0.99345
USER: genes 15 Torsion [CB]-CG--CD-[NE] |==|  0.78812
USER: genes 16 Torsion [CG]-CD--NE-[HE] |==|  0.22700
ROOT
ATOM      1  C   ASP R  39      12.828 -13.215  20.933  1.00 39.81 LIG 0.24  C 
ATOM      2 O    ASP R  39      12.375 -13.954  19.979  1.00 39.68 LIG-0.27  OA
ATOM      3  N   PRO R  40      13.212 -11.973  20.893  1.00 39.27 LIG-0.34  N 
ATOM      4  CA  PRO R  40      13.048 -11.223  19.569  1.00 39.34 LIG 0.18  A 
ATOM      5  CB  PRO R  40      13.349  -9.787  19.900  1.00 38.99 LIG 0.04  A 
ATOM      6  CG  PRO R  40      13.721  -9.711  21.358  1.00 38.95 LIG 0.02  A 
ATOM      7  CD  PRO R  40      13.702 -11.114  21.969  1.00 38.89 LIG 0.13  A 
ENDROOT
BRANCH 1 8
ATOM      8  CA  ASP R  39      13.020 -13.933  22.271  1.00 40.71 LIG 0.19  C 
BRANCH 8 9
ATOM      9  CB  ASP R  39      12.596 -15.433  22.221  1.00 43.11 LIG 0.15  C 
BRANCH 9 10
ATOM     10  CG  ASP R  39      13.695 -16.388  22.683  1.00 44.48 LIG 0.17  C 
ATOM     11 OD2  ASP R  39      13.537 -17.400  23.398  1.00 43.91 LIG-0.65  OA
ATOM     12 OD1  ASP R  39      14.838 -15.949  22.271  1.00 46.24 LIG-0.65  OA
ENDBRANCH 9 10
ENDBRANCH 8 9
BRANCH 8 13
ATOM     13  N   ASP R  39      12.202 -13.209  23.212  1.00 41.53 LIG-0.34  N 
ATOM     14 H    ASP R  39      12.628 -13.030  23.937  1.00 41.53 LIG 0.16  HD
ATOM     15  C   LEU R  38      10.981 -12.847  23.049  1.00 42.61 LIG 0.25  C 
ATOM     16 O    LEU R  38      10.336 -13.171  22.021  1.00 42.97 LIG-0.27  OA
BRANCH 15 17
ATOM     17  CA  LEU R  38      10.365 -12.148  24.285  1.00 43.36 LIG 0.28  C 
BRANCH 17 18
ATOM     18  N   LEU R  38       9.975 -13.164  25.264  1.00 44.18 LIG-0.07  N 
ATOM     19 H1   LEU R  38       9.180 -13.500  25.044  1.00 44.18 LIG 0.28  HD
ATOM     20 H2   LEU R  38      10.580 -13.816  25.273  1.00 44.18 LIG 0.28  HD
ATOM     21 H3   LEU R  38       9.927 -12.795  26.073  1.00 44.18 LIG 0.28  HD
ENDBRANCH 17 18
BRANCH 17 22
ATOM     22  CB  LEU R  38      11.242 -11.090  25.039  1.00 42.68 LIG 0.05  C 
BRANCH 22 23
ATOM     23  CG  LEU R  38      11.270  -9.655  24.520  1.00 43.59 LIG-0.02  C 
ATOM     24  CD2 LEU R  38      12.736  -9.150  24.531  1.00 43.82 LIG 0.01  C 
ATOM     25  CD1 LEU R  38      10.344  -8.682  25.280  1.00 42.78 LIG 0.01  C 
ENDBRANCH 22 23
ENDBRANCH 17 22
ENDBRANCH 15 17
ENDBRANCH 8 13
ENDBRANCH 1 8
BRANCH 4 26
ATOM     26  C   PRO R  40      13.858 -12.020  18.561  1.00 39.48 LIG 0.24  C 
ATOM     27 O    PRO R  40      13.734 -11.779  17.300  1.00 40.12 LIG-0.27  OA
ATOM     28  N   ARG R  41      14.770 -12.913  18.955  1.00 39.52 LIG-0.35  N 
ATOM     29 H    ARG R  41      14.898 -13.084  19.788  1.00 39.52 LIG 0.16  HD
BRANCH 28 30
ATOM     30  CA  ARG R  41      15.668 -13.716  18.075  1.00 39.38 LIG 0.13  C 
BRANCH 30 31
ATOM     31  C   ARG R  41      15.906 -15.205  18.450  1.00 39.99 LIG 0.20  C 
ATOM     32 O    ARG R  41      15.794 -16.150  17.542  1.00 39.75 LIG-0.22  OA
ENDBRANCH 30 31
BRANCH 30 33
ATOM     33  CB  ARG R  41      17.066 -13.028  17.963  1.00 38.11 LIG 0.03  C 
BRANCH 33 34
ATOM     34  CG  ARG R  41      17.267 -12.622  16.466  1.00 35.63 LIG 0.02  C 
BRANCH 34 35
ATOM     35  CD  ARG R  41      16.125 -13.067  15.689  1.00 36.53 LIG 0.14  C 
BRANCH 35 36
ATOM     36  NE  ARG R  41      15.988 -14.535  15.320  1.00 36.92 LIG-0.23  N 
ATOM     37 HE   ARG R  41      15.664 -15.083  15.898  1.00 36.92 LIG 0.18  HD
ATOM     38  CZ  ARG R  41      16.370 -15.016  14.078  1.00 37.60 LIG 0.67  C 
ATOM     39  NH2 ARG R  41      15.975 -16.303  13.736  1.00 37.55 LIG-0.23  N 
ATOM     40  NH1 ARG R  41      16.959 -14.249  13.102  1.00 34.72 LIG-0.23  N 
ATOM     41 21HH ARG R  41      15.510 -16.770  14.289  1.00 37.55 LIG 0.17  HD
ATOM     42 22HH ARG R  41      16.195 -16.631  12.973  1.00 37.55 LIG 0.17  HD
ATOM     43 11HH ARG R  41      17.113 -13.415  13.244  1.00 34.72 LIG 0.17  HD
ATOM     44 12HH ARG R  41      17.175 -14.604  12.348  1.00 34.72 LIG 0.17  HD
ENDBRANCH 35 36
ENDBRANCH 34 35
ENDBRANCH 33 34
ENDBRANCH 30 33
ENDBRANCH 28 30
ENDBRANCH 4 26
TORSDOF 15
ENDMDL
MODEL 14
USER: ADFR SOLUTION from run 94
USER: SCORE 16.796691 LL:  -2.892 LR: -13.950 RR:   0.000 FEB:  -9.476
USER: RMSD 8.251313
USER: SEED 93
USER: STATUS no improvement in best 11 clusters for 5 generations
USER: GENES 17
USER: genes 0 Translation |==|  0.35723 0.48650 0.47094
USER: genes 1 Rotation |==|  0.69810 0.34057 0.07189 0.54538
USER: genes 2 Torsion [N]-C--CA-[N] |==|  0.42655
USER: genes 3 Torsion [C]-CA--CB-[CG] |==|  0.42037
USER: genes 4 Torsion [CA]-CB--CG-[OD2] |==|  0.66305
USER: genes 5 Torsion [C]-CA--N-[C] |==|  0.82775
USER: genes 6 Torsion [N]-C--CA-[N] |==|  0.63172
USER: genes 7 Torsion [C]-CA--N-[H2] |==|  0.24636
USER: genes 8 Torsion [C]-CA--CB-[CG] |==|  0.22714
USER: genes 9 Torsion [CA]-CB--CG-[CD2] |==|  0.70447
USER: genes 10 Torsion [N]-CA--C-[O] |==|  0.40588
USER: genes 11 Torsion [C]-N--CA-[CB] |==|  0.37170
USER: genes 12 Torsion [N]-CA--C-[O] |==|  0.98082
USER: genes 13 Torsion [N]-CA--CB-[CG] |==|  0.05773
USER: genes 14 Torsion [CA]-CB--CG-[CD] |==|  0.66909
USER: genes 15 Torsion [CB]-CG--CD-[NE] |==|  0.56727
USER: genes 16 Torsion [CG]-CD--NE-[HE] |==|  0.93044
ROOT
ATOM      1  C   ASP R  39      12.067 -14.615  22.158  1.00 39.81 LIG 0.24  C 
ATOM      2 O    ASP R  39      12.426 -14.674  23.395  1.00 39.68 LIG-0.27  OA
ATOM      3  N   PRO R  40      11.892 -15.586  21.311  1.00 39.27 LIG-0.34  N 
ATOM      4  CA  PRO R  40      12.049 -17.017  21.831  1.00 39.34 LIG 0.18  A 
ATOM      5  CB  PRO R  40      11.565 -17.890  20.706  1.00 38.99 LIG 0.04  A 
ATOM      6  CG  PRO R  40      11.181 -16.999  19.553  1.00 38.95 LIG 0.02  A 
ATOM      7  CD  PRO R  40      11.458 -15.538  19.916  1.00 38.89 LIG 0.13  A 
ENDROOT
BRANCH 1 8
ATOM      8  CA  ASP R  39      11.913 -13.200  21.597  1.00 40.71 LIG 0.19  C 
BRANCH 8 9
ATOM      9  CB  ASP R  39      13.229 -12.653  20.963  1.00 43.11 LIG 0.15  C 
BRANCH 9 10
ATOM     10  CG  ASP R  39      12.986 -11.643  19.843  1.00 44.48 LIG 0.17  C 
ATOM     11 OD2  ASP R  39      13.377 -11.749  18.660  1.00 43.91 LIG-0.65  OA
ATOM     12 OD1  ASP R  39      12.362 -10.619  20.323  1.00 46.24 LIG-0.65  OA
ENDBRANCH 9 10
ENDBRANCH 8 9
BRANCH 8 13
ATOM     13  N   ASP R  39      11.519 -12.385  22.720  1.00 41.53 LIG-0.34  N 
ATOM     14 H    ASP R  39      12.097 -11.772  22.891  1.00 41.53 LIG 0.16  HD
ATOM     15  C   LEU R  38      10.450 -12.508  23.420  1.00 42.61 LIG 0.25  C 
ATOM     16 O    LEU R  38       9.641 -13.446  23.216  1.00 42.97 LIG-0.27  OA
BRANCH 15 17
ATOM     17  CA  LEU R  38      10.361 -11.516  24.605  1.00 43.36 LIG 0.28  C 
BRANCH 17 18
ATOM     18  N   LEU R  38       9.975 -12.248  25.813  1.00 44.18 LIG-0.07  N 
ATOM     19 H1   LEU R  38       9.454 -12.935  25.590  1.00 44.18 LIG 0.28  HD
ATOM     20 H2   LEU R  38      10.705 -12.550  26.223  1.00 44.18 LIG 0.28  HD
ATOM     21 H3   LEU R  38       9.531 -11.705  26.361  1.00 44.18 LIG 0.28  HD
ENDBRANCH 17 18
BRANCH 17 22
ATOM     22  CB  LEU R  38      11.640 -10.681  24.958  1.00 42.68 LIG 0.05  C 
BRANCH 22 23
ATOM     23  CG  LEU R  38      11.939  -9.421  24.151  1.00 43.59 LIG-0.02  C 
ATOM     24  CD2 LEU R  38      13.129  -9.710  23.199  1.00 43.82 LIG 0.01  C 
ATOM     25  CD1 LEU R  38      12.206  -8.164  25.004  1.00 42.78 LIG 0.01  C 
ENDBRANCH 22 23
ENDBRANCH 17 22
ENDBRANCH 15 17
ENDBRANCH 8 13
ENDBRANCH 1 8
BRANCH 4 26
ATOM     26  C   PRO R  40      13.467 -17.087  22.371  1.00 39.48 LIG 0.24  C 
ATOM     27 O    PRO R  40      13.729 -17.823  23.398  1.00 40.12 LIG-0.27  OA
ATOM     28  N   ARG R  41      14.476 -16.469  21.753  1.00 39.52 LIG-0.35  N 
ATOM     29 H    ARG R  41      14.344 -15.988  21.053  1.00 39.52 LIG 0.16  HD
BRANCH 28 30
ATOM     30  CA  ARG R  41      15.916 -16.503  22.144  1.00 39.38 LIG 0.13  C 
BRANCH 30 31
ATOM     31  C   ARG R  41      16.494 -15.265  22.883  1.00 39.99 LIG 0.20  C 
ATOM     32 O    ARG R  41      15.772 -14.175  23.030  1.00 39.75 LIG-0.22  OA
ENDBRANCH 30 31
BRANCH 30 33
ATOM     33  CB  ARG R  41      16.807 -16.763  20.888  1.00 38.11 LIG 0.03  C 
BRANCH 33 34
ATOM     34  CG  ARG R  41      15.966 -16.370  19.630  1.00 35.63 LIG 0.02  C 
BRANCH 34 35
ATOM     35  CD  ARG R  41      15.798 -17.536  18.781  1.00 36.53 LIG 0.14  C 
BRANCH 35 36
ATOM     36  NE  ARG R  41      15.529 -17.358  17.296  1.00 36.92 LIG-0.23  N 
ATOM     37 HE   ARG R  41      15.164 -16.629  17.022  1.00 36.92 LIG 0.18  HD
ATOM     38  CZ  ARG R  41      15.854 -18.335  16.371  1.00 37.60 LIG 0.67  C 
ATOM     39  NH2 ARG R  41      15.814 -17.988  15.027  1.00 37.55 LIG-0.23  N 
ATOM     40  NH1 ARG R  41      16.378 -19.563  16.697  1.00 34.72 LIG-0.23  N 
ATOM     41 21HH ARG R  41      15.593 -17.191  14.795  1.00 37.55 LIG 0.17  HD
ATOM     42 22HH ARG R  41      16.011 -18.572  14.426  1.00 37.55 LIG 0.17  HD
ATOM     43 11HH ARG R  41      16.522 -19.764  17.521  1.00 34.72 LIG 0.17  HD
ATOM     44 12HH ARG R  41      16.561 -20.131  16.077  1.00 34.72 LIG 0.17  HD
ENDBRANCH 35 36
ENDBRANCH 34 35
ENDBRANCH 33 34
ENDBRANCH 30 33
ENDBRANCH 28 30
ENDBRANCH 4 26
TORSDOF 15
ENDMDL
MODEL 15
USER: ADFR SOLUTION from run 148
USER: SCORE 16.225973 LL:  -2.489 LR: -13.931 RR:   0.000 FEB:  -9.456
USER: RMSD 8.363266
USER: SEED 147
USER: STATUS no improvement in best 7 clusters for 5 generations
USER: GENES 17
USER: genes 0 Translation |==|  0.42374 0.49096 0.46540
USER: genes 1 Rotation |==|  0.61872 0.28516 0.09262 0.65424
USER: genes 2 Torsion [N]-C--CA-[N] |==|  0.32223
USER: genes 3 Torsion [C]-CA--CB-[CG] |==|  0.49493
USER: genes 4 Torsion [CA]-CB--CG-[OD2] |==|  0.70988
USER: genes 5 Torsion [C]-CA--N-[C] |==|  0.81422
USER: genes 6 Torsion [N]-C--CA-[N] |==|  0.54325
USER: genes 7 Torsion [C]-CA--N-[H2] |==|  0.38963
USER: genes 8 Torsion [C]-CA--CB-[CG] |==|  0.26806
USER: genes 9 Torsion [CA]-CB--CG-[CD2] |==|  0.75012
USER: genes 10 Torsion [N]-CA--C-[O] |==|  0.85564
USER: genes 11 Torsion [C]-N--CA-[CB] |==|  0.17654
USER: genes 12 Torsion [N]-CA--C-[O] |==|  0.95834
USER: genes 13 Torsion [N]-CA--CB-[CG] |==|  0.59633
USER: genes 14 Torsion [CA]-CB--CG-[CD] |==|  0.77574
USER: genes 15 Torsion [CB]-CG--CD-[NE] |==|  0.46634
USER: genes 16 Torsion [CG]-CD--NE-[HE] |==|  0.04484
ROOT
ATOM      1  C   ASP R  39      14.062 -14.481  21.992  1.00 39.81 LIG 0.24  C 
ATOM      2 O    ASP R  39      14.781 -13.959  22.925  1.00 39.68 LIG-0.27  OA
ATOM      3  N   PRO R  40      13.896 -15.736  21.695  1.00 39.27 LIG-0.34  N 
ATOM      4  CA  PRO R  40      14.566 -16.774  22.598  1.00 39.34 LIG 0.18  A 
ATOM      5  CB  PRO R  40      14.007 -18.095  22.148  1.00 38.99 LIG 0.04  A 
ATOM      6  CG  PRO R  40      13.076 -17.840  20.989  1.00 38.95 LIG 0.02  A 
ATOM      7  CD  PRO R  40      13.064 -16.346  20.658  1.00 38.89 LIG 0.13  A 
ENDROOT
BRANCH 1 8
ATOM      8  CA  ASP R  39      13.387 -13.476  21.057  1.00 40.71 LIG 0.19  C 
BRANCH 8 9
ATOM      9  CB  ASP R  39      14.389 -12.450  20.444  1.00 43.11 LIG 0.15  C 
BRANCH 9 10
ATOM     10  CG  ASP R  39      13.731 -11.469  19.474  1.00 44.48 LIG 0.17  C 
ATOM     11 OD2  ASP R  39      13.814 -11.500  18.228  1.00 43.91 LIG-0.65  OA
ATOM     12 OD1  ASP R  39      13.122 -10.551  20.149  1.00 46.24 LIG-0.65  OA
ENDBRANCH 9 10
ENDBRANCH 8 9
BRANCH 8 13
ATOM     13  N   ASP R  39      12.408 -12.798  21.871  1.00 41.53 LIG-0.34  N 
ATOM     14 H    ASP R  39      12.605 -11.968  21.986  1.00 41.53 LIG 0.16  HD
ATOM     15  C   LEU R  38      11.351 -13.310  22.388  1.00 42.61 LIG 0.25  C 
ATOM     16 O    LEU R  38      11.100 -14.536  22.280  1.00 42.97 LIG-0.27  OA
BRANCH 15 17
ATOM     17  CA  LEU R  38      10.546 -12.326  23.271  1.00 43.36 LIG 0.28  C 
BRANCH 17 18
ATOM     18  N   LEU R  38       9.600 -13.085  24.092  1.00 44.18 LIG-0.07  N 
ATOM     19 H1   LEU R  38       9.866 -13.933  24.145  1.00 44.18 LIG 0.28  HD
ATOM     20 H2   LEU R  38       9.567 -12.733  24.909  1.00 44.18 LIG 0.28  HD
ATOM     21 H3   LEU R  38       8.791 -13.051  23.723  1.00 44.18 LIG 0.28  HD
ENDBRANCH 17 18
BRANCH 17 22
ATOM     22  CB  LEU R  38      11.346 -11.386  24.236  1.00 42.68 LIG 0.05  C 
BRANCH 22 23
ATOM     23  CG  LEU R  38      11.665  -9.965  23.778  1.00 43.59 LIG-0.02  C 
ATOM     24  CD2 LEU R  38      13.031  -9.974  23.041  1.00 43.82 LIG 0.01  C 
ATOM     25  CD1 LEU R  38      11.653  -8.912  24.905  1.00 42.78 LIG 0.01  C 
ENDBRANCH 22 23
ENDBRANCH 17 22
ENDBRANCH 15 17
ENDBRANCH 8 13
ENDBRANCH 1 8
BRANCH 4 26
ATOM     26  C   PRO R  40      16.049 -16.448  22.541  1.00 39.48 LIG 0.24  C 
ATOM     27 O    PRO R  40      16.638 -16.327  21.400  1.00 40.12 LIG-0.27  OA
ATOM     28  N   ARG R  41      16.746 -16.196  23.651  1.00 39.52 LIG-0.35  N 
ATOM     29 H    ARG R  41      16.382 -16.244  24.428  1.00 39.52 LIG 0.16  HD
BRANCH 28 30
ATOM     30  CA  ARG R  41      18.185 -15.810  23.730  1.00 39.38 LIG 0.13  C 
BRANCH 30 31
ATOM     31  C   ARG R  41      18.837 -15.734  25.138  1.00 39.99 LIG 0.20  C 
ATOM     32 O    ARG R  41      18.091 -15.710  26.221  1.00 39.75 LIG-0.22  OA
ENDBRANCH 30 31
BRANCH 30 33
ATOM     33  CB  ARG R  41      18.411 -14.433  23.030  1.00 38.11 LIG 0.03  C 
BRANCH 33 34
ATOM     34  CG  ARG R  41      19.822 -14.477  22.356  1.00 35.63 LIG 0.02  C 
BRANCH 34 35
ATOM     35  CD  ARG R  41      20.840 -14.212  23.356  1.00 36.53 LIG 0.14  C 
BRANCH 35 36
ATOM     36  NE  ARG R  41      22.303 -14.466  23.031  1.00 36.92 LIG-0.23  N 
ATOM     37 HE   ARG R  41      22.538 -14.562  22.209  1.00 36.92 LIG 0.18  HD
ATOM     38  CZ  ARG R  41      23.269 -14.549  24.019  1.00 37.60 LIG 0.67  C 
ATOM     39  NH2 ARG R  41      24.600 -14.524  23.623  1.00 37.55 LIG-0.23  N 
ATOM     40  NH1 ARG R  41      23.003 -14.479  25.366  1.00 34.72 LIG-0.23  N 
ATOM     41 21HH ARG R  41      24.799 -14.459  22.789  1.00 37.55 LIG 0.17  HD
ATOM     42 22HH ARG R  41      25.225 -14.573  24.212  1.00 37.55 LIG 0.17  HD
ATOM     43 11HH ARG R  41      22.194 -14.378  25.640  1.00 34.72 LIG 0.17  HD
ATOM     44 12HH ARG R  41      23.646 -14.537  25.935  1.00 34.72 LIG 0.17  HD
ENDBRANCH 35 36
ENDBRANCH 34 35
ENDBRANCH 33 34
ENDBRANCH 30 33
ENDBRANCH 28 30
ENDBRANCH 4 26
TORSDOF 15
ENDMDL
MODEL 16
USER: ADFR SOLUTION from run 78
USER: SCORE 15.745232 LL:  -2.485 LR: -13.909 RR:   0.000 FEB:  -9.434
USER: RMSD 8.094877
USER: SEED 77
USER: STATUS no improvement in best 6 clusters for 5 generations
USER: GENES 17
USER: genes 0 Translation |==|  0.39060 0.49897 0.40969
USER: genes 1 Rotation |==|  0.01188 0.41516 0.45283 0.54807
USER: genes 2 Torsion [N]-C--CA-[N] |==|  0.82277
USER: genes 3 Torsion [C]-CA--CB-[CG] |==|  0.35593
USER: genes 4 Torsion [CA]-CB--CG-[OD2] |==|  0.23330
USER: genes 5 Torsion [C]-CA--N-[C] |==|  0.87219
USER: genes 6 Torsion [N]-C--CA-[N] |==|  0.54126
USER: genes 7 Torsion [C]-CA--N-[H2] |==|  0.21144
USER: genes 8 Torsion [C]-CA--CB-[CG] |==|  0.24310
USER: genes 9 Torsion [CA]-CB--CG-[CD2] |==|  0.72805
USER: genes 10 Torsion [N]-CA--C-[O] |==|  0.79018
USER: genes 11 Torsion [C]-N--CA-[CB] |==|  0.33430
USER: genes 12 Torsion [N]-CA--C-[O] |==|  0.30295
USER: genes 13 Torsion [N]-CA--CB-[CG] |==|  0.15205
USER: genes 14 Torsion [CA]-CB--CG-[CD] |==|  0.52931
USER: genes 15 Torsion [CB]-CG--CD-[NE] |==|  0.49051
USER: genes 16 Torsion [CG]-CD--NE-[HE] |==|  0.76076
ROOT
ATOM      1  C   ASP R  39      13.068 -14.241  20.321  1.00 39.81 LIG 0.24  C 
ATOM      2 O    ASP R  39      12.475 -15.198  19.694  1.00 39.68 LIG-0.27  OA
ATOM      3  N   PRO R  40      14.004 -14.310  21.220  1.00 39.27 LIG-0.34  N 
ATOM      4  CA  PRO R  40      14.563 -15.695  21.557  1.00 39.34 LIG 0.18  A 
ATOM      5  CB  PRO R  40      15.759 -15.426  22.429  1.00 38.99 LIG 0.04  A 
ATOM      6  CG  PRO R  40      15.865 -13.936  22.632  1.00 38.95 LIG 0.02  A 
ATOM      7  CD  PRO R  40      14.706 -13.235  21.920  1.00 38.89 LIG 0.13  A 
ENDROOT
BRANCH 1 8
ATOM      8  CA  ASP R  39      12.527 -12.841  20.023  1.00 40.71 LIG 0.19  C 
BRANCH 8 9
ATOM      9  CB  ASP R  39      13.641 -11.842  19.581  1.00 43.11 LIG 0.15  C 
BRANCH 9 10
ATOM     10  CG  ASP R  39      13.318 -11.115  18.276  1.00 44.48 LIG 0.17  C 
ATOM     11 OD2  ASP R  39      12.620 -10.085  18.162  1.00 43.91 LIG-0.65  OA
ATOM     12 OD1  ASP R  39      13.830 -11.771  17.288  1.00 46.24 LIG-0.65  OA
ENDBRANCH 9 10
ENDBRANCH 8 9
BRANCH 8 13
ATOM     13  N   ASP R  39      11.915 -12.400  21.251  1.00 41.53 LIG-0.34  N 
ATOM     14 H    ASP R  39      12.139 -11.593  21.451  1.00 41.53 LIG 0.16  HD
ATOM     15  C   LEU R  38      11.123 -13.077  22.002  1.00 42.61 LIG 0.25  C 
ATOM     16 O    LEU R  38      10.852 -14.277  21.749  1.00 42.97 LIG-0.27  OA
BRANCH 15 17
ATOM     17  CA  LEU R  38      10.697 -12.335  23.292  1.00 43.36 LIG 0.28  C 
BRANCH 17 18
ATOM     18  N   LEU R  38      10.105 -13.298  24.223  1.00 44.18 LIG-0.07  N 
ATOM     19 H1   LEU R  38       9.551 -13.838  23.780  1.00 44.18 LIG 0.28  HD
ATOM     20 H2   LEU R  38      10.750 -13.781  24.601  1.00 44.18 LIG 0.28  HD
ATOM     21 H3   LEU R  38       9.653 -12.863  24.853  1.00 44.18 LIG 0.28  HD
ENDBRANCH 17 18
BRANCH 17 22
ATOM     22  CB  LEU R  38      11.798 -11.546  24.080  1.00 42.68 LIG 0.05  C 
BRANCH 22 23
ATOM     23  CG  LEU R  38      12.082 -10.098  23.690  1.00 43.59 LIG-0.02  C 
ATOM     24  CD2 LEU R  38      13.321 -10.067  22.757  1.00 43.82 LIG 0.01  C 
ATOM     25  CD1 LEU R  38      12.266  -9.138  24.884  1.00 42.78 LIG 0.01  C 
ENDBRANCH 22 23
ENDBRANCH 17 22
ENDBRANCH 15 17
ENDBRANCH 8 13
ENDBRANCH 1 8
BRANCH 4 26
ATOM     26  C   PRO R  40      13.366 -16.499  22.032  1.00 39.48 LIG 0.24  C 
ATOM     27 O    PRO R  40      12.880 -16.296  23.209  1.00 40.12 LIG-0.27  OA
ATOM     28  N   ARG R  41      12.742 -17.359  21.222  1.00 39.52 LIG-0.35  N 
ATOM     29 H    ARG R  41      13.024 -17.503  20.422  1.00 39.52 LIG 0.16  HD
BRANCH 28 30
ATOM     30  CA  ARG R  41      11.528 -18.164  21.542  1.00 39.38 LIG 0.13  C 
BRANCH 30 31
ATOM     31  C   ARG R  41      11.673 -19.711  21.567  1.00 39.99 LIG 0.20  C 
ATOM     32 O    ARG R  41      11.625 -20.370  22.705  1.00 39.75 LIG-0.22  OA
ENDBRANCH 30 31
BRANCH 30 33
ATOM     33  CB  ARG R  41      10.374 -17.814  20.550  1.00 38.11 LIG 0.03  C 
BRANCH 33 34
ATOM     34  CG  ARG R  41      10.925 -18.019  19.101  1.00 35.63 LIG 0.02  C 
BRANCH 34 35
ATOM     35  CD  ARG R  41       9.979 -17.471  18.146  1.00 36.53 LIG 0.14  C 
BRANCH 35 36
ATOM     36  NE  ARG R  41      10.314 -17.473  16.664  1.00 36.92 LIG-0.23  N 
ATOM     37 HE   ARG R  41      10.771 -16.821  16.337  1.00 36.92 LIG 0.18  HD
ATOM     38  CZ  ARG R  41       9.908 -18.496  15.823  1.00 37.60 LIG 0.67  C 
ATOM     39  NH2 ARG R  41      10.472 -18.549  14.554  1.00 37.55 LIG-0.23  N 
ATOM     40  NH1 ARG R  41       9.121 -19.552  16.216  1.00 34.72 LIG-0.23  N 
ATOM     41 21HH ARG R  41      11.051 -17.960  14.317  1.00 37.55 LIG 0.17  HD
ATOM     42 22HH ARG R  41      10.241 -19.172  14.007  1.00 37.55 LIG 0.17  HD
ATOM     43 11HH ARG R  41       8.850 -19.606  17.030  1.00 34.72 LIG 0.17  HD
ATOM     44 12HH ARG R  41       8.900 -20.158  15.647  1.00 34.72 LIG 0.17  HD
ENDBRANCH 35 36
ENDBRANCH 34 35
ENDBRANCH 33 34
ENDBRANCH 30 33
ENDBRANCH 28 30
ENDBRANCH 4 26
TORSDOF 15
ENDMDL
MODEL 17
USER: ADFR SOLUTION from run 102
USER: SCORE 16.330932 LL:  -2.465 LR: -13.915 RR:   0.000 FEB:  -9.440
USER: RMSD 8.856666
USER: SEED 101
USER: STATUS no improvement in best 8 clusters for 5 generations
USER: GENES 17
USER: genes 0 Translation |==|  0.50652 0.53686 0.25700
USER: genes 1 Rotation |==|  0.93928 0.41770 0.51992 0.72331
USER: genes 2 Torsion [N]-C--CA-[N] |==|  0.44692
USER: genes 3 Torsion [C]-CA--CB-[CG] |==|  0.40088
USER: genes 4 Torsion [CA]-CB--CG-[OD2] |==|  0.61197
USER: genes 5 Torsion [C]-CA--N-[C] |==|  0.80644
USER: genes 6 Torsion [N]-C--CA-[N] |==|  0.60245
USER: genes 7 Torsion [C]-CA--N-[H2] |==|  0.33840
USER: genes 8 Torsion [C]-CA--CB-[CG] |==|  0.21517
USER: genes 9 Torsion [CA]-CB--CG-[CD2] |==|  0.03445
USER: genes 10 Torsion [N]-CA--C-[O] |==|  0.83545
USER: genes 11 Torsion [C]-N--CA-[CB] |==|  0.74748
USER: genes 12 Torsion [N]-CA--C-[O] |==|  0.60410
USER: genes 13 Torsion [N]-CA--CB-[CG] |==|  0.62741
USER: genes 14 Torsion [CA]-CB--CG-[CD] |==|  0.52155
USER: genes 15 Torsion [CB]-CG--CD-[NE] |==|  0.60126
USER: genes 16 Torsion [CG]-CD--NE-[HE] |==|  0.08287
ROOT
ATOM      1  C   ASP R  39      16.545 -13.104  15.740  1.00 39.81 LIG 0.24  C 
ATOM      2 O    ASP R  39      15.343 -13.521  15.943  1.00 39.68 LIG-0.27  OA
ATOM      3  N   PRO R  40      17.500 -12.914  16.602  1.00 39.27 LIG-0.34  N 
ATOM      4  CA  PRO R  40      17.227 -13.298  18.058  1.00 39.34 LIG 0.18  A 
ATOM      5  CB  PRO R  40      18.563 -13.187  18.742  1.00 38.99 LIG 0.04  A 
ATOM      6  CG  PRO R  40      19.571 -12.710  17.728  1.00 38.95 LIG 0.02  A 
ATOM      7  CD  PRO R  40      18.876 -12.469  16.386  1.00 38.89 LIG 0.13  A 
ENDROOT
BRANCH 1 8
ATOM      8  CA  ASP R  39      16.854 -12.696  14.298  1.00 40.71 LIG 0.19  C 
BRANCH 8 9
ATOM      9  CB  ASP R  39      16.744 -11.158  14.066  1.00 43.11 LIG 0.15  C 
BRANCH 9 10
ATOM     10  CG  ASP R  39      17.775 -10.621  13.075  1.00 44.48 LIG 0.17  C 
ATOM     11 OD2  ASP R  39      18.407  -9.547  13.180  1.00 43.91 LIG-0.65  OA
ATOM     12 OD1  ASP R  39      17.850 -11.423  12.066  1.00 46.24 LIG-0.65  OA
ENDBRANCH 9 10
ENDBRANCH 8 9
BRANCH 8 13
ATOM     13  N   ASP R  39      15.887 -13.397  13.489  1.00 41.53 LIG-0.34  N 
ATOM     14 H    ASP R  39      15.309 -12.861  13.143  1.00 41.53 LIG 0.16  HD
ATOM     15  C   LEU R  38      15.839 -14.661  13.271  1.00 42.61 LIG 0.25  C 
ATOM     16 O    LEU R  38      16.638 -15.450  13.833  1.00 42.97 LIG-0.27  OA
BRANCH 15 17
ATOM     17  CA  LEU R  38      14.628 -15.103  12.414  1.00 43.36 LIG 0.28  C 
BRANCH 17 18
ATOM     18  N   LEU R  38      14.141 -16.394  12.905  1.00 44.18 LIG-0.07  N 
ATOM     19 H1   LEU R  38      14.623 -16.645  13.610  1.00 44.18 LIG 0.28  HD
ATOM     20 H2   LEU R  38      13.287 -16.318  13.142  1.00 44.18 LIG 0.28  HD
ATOM     21 H3   LEU R  38      14.216 -17.004  12.262  1.00 44.18 LIG 0.28  HD
ENDBRANCH 17 18
BRANCH 17 22
ATOM     22  CB  LEU R  38      13.394 -14.140  12.339  1.00 42.68 LIG 0.05  C 
BRANCH 22 23
ATOM     23  CG  LEU R  38      13.476 -12.911  11.437  1.00 43.59 LIG-0.02  C 
ATOM     24  CD2 LEU R  38      14.716 -13.052  10.515  1.00 43.82 LIG 0.01  C 
ATOM     25  CD1 LEU R  38      13.497 -11.565  12.189  1.00 42.78 LIG 0.01  C 
ENDBRANCH 22 23
ENDBRANCH 17 22
ENDBRANCH 15 17
ENDBRANCH 8 13
ENDBRANCH 1 8
BRANCH 4 26
ATOM     26  C   PRO R  40      16.025 -12.465  18.467  1.00 39.48 LIG 0.24  C 
ATOM     27 O    PRO R  40      16.084 -11.178  18.413  1.00 40.12 LIG-0.27  OA
ATOM     28  N   ARG R  41      14.866 -13.039  18.802  1.00 39.52 LIG-0.35  N 
ATOM     29 H    ARG R  41      14.782 -13.894  18.827  1.00 39.52 LIG 0.16  HD
BRANCH 28 30
ATOM     30  CA  ARG R  41      13.599 -12.340  19.166  1.00 39.38 LIG 0.13  C 
BRANCH 30 31
ATOM     31  C   ARG R  41      13.297 -10.982  18.474  1.00 39.99 LIG 0.20  C 
ATOM     32 O    ARG R  41      12.724 -10.004  19.142  1.00 39.75 LIG-0.22  OA
ENDBRANCH 30 31
BRANCH 30 33
ATOM     33  CB  ARG R  41      13.539 -12.108  20.709  1.00 38.11 LIG 0.03  C 
BRANCH 33 34
ATOM     34  CG  ARG R  41      12.110 -12.524  21.189  1.00 35.63 LIG 0.02  C 
BRANCH 34 35
ATOM     35  CD  ARG R  41      11.945 -12.154  22.583  1.00 36.53 LIG 0.14  C 
BRANCH 35 36
ATOM     36  NE  ARG R  41      11.151 -13.055  23.515  1.00 36.92 LIG-0.23  N 
ATOM     37 HE   ARG R  41      11.136 -13.901  23.365  1.00 36.92 LIG 0.18  HD
ATOM     38  CZ  ARG R  41      10.452 -12.552  24.599  1.00 37.60 LIG 0.67  C 
ATOM     39  NH2 ARG R  41       9.975 -13.460  25.536  1.00 37.55 LIG-0.23  N 
ATOM     40  NH1 ARG R  41      10.350 -11.214  24.899  1.00 34.72 LIG-0.23  N 
ATOM     41 21HH ARG R  41      10.118 -14.301  25.430  1.00 37.55 LIG 0.17  HD
ATOM     42 22HH ARG R  41       9.537 -13.180  26.221  1.00 37.55 LIG 0.17  HD
ATOM     43 11HH ARG R  41      10.735 -10.631  24.397  1.00 34.72 LIG 0.17  HD
ATOM     44 12HH ARG R  41       9.901 -10.961  25.588  1.00 34.72 LIG 0.17  HD
ENDBRANCH 35 36
ENDBRANCH 34 35
ENDBRANCH 33 34
ENDBRANCH 30 33
ENDBRANCH 28 30
ENDBRANCH 4 26
TORSDOF 15
ENDMDL
MODEL 18
USER: ADFR SOLUTION from run 106
USER: SCORE 16.080244 LL:  -2.379 LR: -13.888 RR:   0.000 FEB:  -9.414
USER: RMSD 7.196248
USER: SEED 105
USER: STATUS no improvement in best 5 clusters for 5 generations
USER: GENES 17
USER: genes 0 Translation |==|  0.43144 0.54139 0.43276
USER: genes 1 Rotation |==|  0.37603 0.32375 0.45853 0.94927
USER: genes 2 Torsion [N]-C--CA-[N] |==|  0.40680
USER: genes 3 Torsion [C]-CA--CB-[CG] |==|  0.46462
USER: genes 4 Torsion [CA]-CB--CG-[OD2] |==|  0.85155
USER: genes 5 Torsion [C]-CA--N-[C] |==|  0.58472
USER: genes 6 Torsion [N]-C--CA-[N] |==|  0.43007
USER: genes 7 Torsion [C]-CA--N-[H2] |==|  0.28752
USER: genes 8 Torsion [C]-CA--CB-[CG] |==|  0.05990
USER: genes 9 Torsion [CA]-CB--CG-[CD2] |==|  0.52944
USER: genes 10 Torsion [N]-CA--C-[O] |==|  0.94681
USER: genes 11 Torsion [C]-N--CA-[CB] |==|  0.89606
USER: genes 12 Torsion [N]-CA--C-[O] |==|  0.01693
USER: genes 13 Torsion [N]-CA--CB-[CG] |==|  0.65484
USER: genes 14 Torsion [CA]-CB--CG-[CD] |==|  0.55403
USER: genes 15 Torsion [CB]-CG--CD-[NE] |==|  0.95724
USER: genes 16 Torsion [CG]-CD--NE-[HE] |==|  0.09746
ROOT
ATOM      1  C   ASP R  39      14.293 -12.968  21.013  1.00 39.81 LIG 0.24  C 
ATOM      2 O    ASP R  39      13.638 -12.171  20.240  1.00 39.68 LIG-0.27  OA
ATOM      3  N   PRO R  40      15.579 -13.098  21.152  1.00 39.27 LIG-0.34  N 
ATOM      4  CA  PRO R  40      16.477 -12.140  20.364  1.00 39.34 LIG 0.18  A 
ATOM      5  CB  PRO R  40      17.861 -12.378  20.904  1.00 38.99 LIG 0.04  A 
ATOM      6  CG  PRO R  40      17.778 -13.471  21.939  1.00 38.95 LIG 0.02  A 
ATOM      7  CD  PRO R  40      16.337 -13.976  22.042  1.00 38.89 LIG 0.13  A 
ENDROOT
BRANCH 1 8
ATOM      8  CA  ASP R  39      13.431 -13.952  21.806  1.00 40.71 LIG 0.19  C 
BRANCH 8 9
ATOM      9  CB  ASP R  39      13.054 -15.225  20.987  1.00 43.11 LIG 0.15  C 
BRANCH 9 10
ATOM     10  CG  ASP R  39      12.466 -16.344  21.846  1.00 44.48 LIG 0.17  C 
ATOM     11 OD2  ASP R  39      12.987 -16.836  22.869  1.00 43.91 LIG-0.65  OA
ATOM     12 OD1  ASP R  39      11.364 -16.754  21.310  1.00 46.24 LIG-0.65  OA
ENDBRANCH 9 10
ENDBRANCH 8 9
BRANCH 8 13
ATOM     13  N   ASP R  39      12.245 -13.216  22.166  1.00 41.53 LIG-0.34  N 
ATOM     14 H    ASP R  39      12.048 -12.617  21.580  1.00 41.53 LIG 0.16  HD
ATOM     15  C   LEU R  38      11.525 -13.383  23.215  1.00 42.61 LIG 0.25  C 
ATOM     16 O    LEU R  38      11.851 -14.207  24.105  1.00 42.97 LIG-0.27  OA
BRANCH 15 17
ATOM     17  CA  LEU R  38      10.355 -12.376  23.339  1.00 43.36 LIG 0.28  C 
BRANCH 17 18
ATOM     18  N   LEU R  38       9.295 -12.974  24.155  1.00 44.18 LIG-0.07  N 
ATOM     19 H1   LEU R  38       9.423 -13.853  24.210  1.00 44.18 LIG 0.28  HD
ATOM     20 H2   LEU R  38       9.314 -12.620  24.971  1.00 44.18 LIG 0.28  HD
ATOM     21 H3   LEU R  38       8.505 -12.811  23.780  1.00 44.18 LIG 0.28  HD
ENDBRANCH 17 18
BRANCH 17 22
ATOM     22  CB  LEU R  38      10.667 -10.965  23.946  1.00 42.68 LIG 0.05  C 
BRANCH 22 23
ATOM     23  CG  LEU R  38      12.106 -10.457  23.921  1.00 43.59 LIG-0.02  C 
ATOM     24  CD2 LEU R  38      12.200  -9.185  24.804  1.00 43.82 LIG 0.01  C 
ATOM     25  CD1 LEU R  38      12.666 -10.192  22.508  1.00 42.78 LIG 0.01  C 
ENDBRANCH 22 23
ENDBRANCH 17 22
ENDBRANCH 15 17
ENDBRANCH 8 13
ENDBRANCH 1 8
BRANCH 4 26
ATOM     26  C   PRO R  40      16.115 -12.367  18.907  1.00 39.48 LIG 0.24  C 
ATOM     27 O    PRO R  40      15.510 -13.450  18.555  1.00 40.12 LIG-0.27  OA
ATOM     28  N   ARG R  41      16.332 -11.427  17.984  1.00 39.52 LIG-0.35  N 
ATOM     29 H    ARG R  41      16.713 -10.682  18.186  1.00 39.52 LIG 0.16  HD
BRANCH 28 30
ATOM     30  CA  ARG R  41      15.974 -11.499  16.538  1.00 39.38 LIG 0.13  C 
BRANCH 30 31
ATOM     31  C   ARG R  41      14.542 -11.060  16.124  1.00 39.99 LIG 0.20  C 
ATOM     32 O    ARG R  41      13.723 -10.530  17.006  1.00 39.75 LIG-0.22  OA
ENDBRANCH 30 31
BRANCH 30 33
ATOM     33  CB  ARG R  41      16.198 -12.948  16.001  1.00 38.11 LIG 0.03  C 
BRANCH 33 34
ATOM     34  CG  ARG R  41      17.166 -12.849  14.777  1.00 35.63 LIG 0.02  C 
BRANCH 34 35
ATOM     35  CD  ARG R  41      17.049 -14.053  13.974  1.00 36.53 LIG 0.14  C 
BRANCH 35 36
ATOM     36  NE  ARG R  41      16.372 -15.284  14.552  1.00 36.92 LIG-0.23  N 
ATOM     37 HE   ARG R  41      15.705 -15.183  15.086  1.00 36.92 LIG 0.18  HD
ATOM     38  CZ  ARG R  41      16.797 -16.566  14.244  1.00 37.60 LIG 0.67  C 
ATOM     39  NH2 ARG R  41      15.970 -17.623  14.604  1.00 37.55 LIG-0.23  N 
ATOM     40  NH1 ARG R  41      17.889 -16.849  13.458  1.00 34.72 LIG-0.23  N 
ATOM     41 21HH ARG R  41      15.225 -17.468  15.003  1.00 37.55 LIG 0.17  HD
ATOM     42 22HH ARG R  41      16.205 -18.431  14.427  1.00 37.55 LIG 0.17  HD
ATOM     43 11HH ARG R  41      18.356 -16.209  13.124  1.00 34.72 LIG 0.17  HD
ATOM     44 12HH ARG R  41      18.105 -17.667  13.301  1.00 34.72 LIG 0.17  HD
ENDBRANCH 35 36
ENDBRANCH 34 35
ENDBRANCH 33 34
ENDBRANCH 30 33
ENDBRANCH 28 30
ENDBRANCH 4 26
TORSDOF 15
ENDMDL
MODEL 19
USER: ADFR SOLUTION from run 95
USER: SCORE 16.430766 LL:  -2.717 LR: -13.891 RR:   0.000 FEB:  -9.417
USER: RMSD 7.508343
USER: SEED 94
USER: STATUS no improvement in best 7 clusters for 5 generations
USER: GENES 17
USER: genes 0 Translation |==|  0.42830 0.56703 0.43989
USER: genes 1 Rotation |==|  0.53317 0.30433 0.16058 0.80888
USER: genes 2 Torsion [N]-C--CA-[N] |==|  0.28389
USER: genes 3 Torsion [C]-CA--CB-[CG] |==|  0.21249
USER: genes 4 Torsion [CA]-CB--CG-[OD2] |==|  0.48617
USER: genes 5 Torsion [C]-CA--N-[C] |==|  0.74747
USER: genes 6 Torsion [N]-C--CA-[N] |==|  0.46809
USER: genes 7 Torsion [C]-CA--N-[H2] |==|  0.10001
USER: genes 8 Torsion [C]-CA--CB-[CG] |==|  0.24765
USER: genes 9 Torsion [CA]-CB--CG-[CD2] |==|  0.17064
USER: genes 10 Torsion [N]-CA--C-[O] |==|  0.31566
USER: genes 11 Torsion [C]-N--CA-[CB] |==|  0.26458
USER: genes 12 Torsion [N]-CA--C-[O] |==|  0.55905
USER: genes 13 Torsion [N]-CA--CB-[CG] |==|  0.80476
USER: genes 14 Torsion [CA]-CB--CG-[CD] |==|  0.28779
USER: genes 15 Torsion [CB]-CG--CD-[NE] |==|  0.60434
USER: genes 16 Torsion [CG]-CD--NE-[HE] |==|  0.21385
ROOT
ATOM      1  C   ASP R  39      14.199 -12.199  21.227  1.00 39.81 LIG 0.24  C 
ATOM      2 O    ASP R  39      14.859 -11.132  21.523  1.00 39.68 LIG-0.27  OA
ATOM      3  N   PRO R  40      14.584 -13.440  21.283  1.00 39.27 LIG-0.34  N 
ATOM      4  CA  PRO R  40      15.979 -13.724  21.843  1.00 39.34 LIG 0.18  A 
ATOM      5  CB  PRO R  40      16.036 -15.219  21.996  1.00 38.99 LIG 0.04  A 
ATOM      6  CG  PRO R  40      14.733 -15.791  21.496  1.00 38.95 LIG 0.02  A 
ATOM      7  CD  PRO R  40      13.841 -14.661  20.977  1.00 38.89 LIG 0.13  A 
ENDROOT
BRANCH 1 8
ATOM      8  CA  ASP R  39      12.804 -11.956  20.648  1.00 40.71 LIG 0.19  C 
BRANCH 8 9
ATOM      9  CB  ASP R  39      12.756 -10.742  19.670  1.00 43.11 LIG 0.15  C 
BRANCH 9 10
ATOM     10  CG  ASP R  39      13.346 -11.050  18.294  1.00 44.48 LIG 0.17  C 
ATOM     11 OD2  ASP R  39      13.350 -10.284  17.308  1.00 43.91 LIG-0.65  OA
ATOM     12 OD1  ASP R  39      13.790 -12.263  18.287  1.00 46.24 LIG-0.65  OA
ENDBRANCH 9 10
ENDBRANCH 8 9
BRANCH 8 13
ATOM     13  N   ASP R  39      11.954 -11.717  21.789  1.00 41.53 LIG-0.34  N 
ATOM     14 H    ASP R  39      11.931 -10.884  22.002  1.00 41.53 LIG 0.16  HD
ATOM     15  C   LEU R  38      11.288 -12.594  22.448  1.00 42.61 LIG 0.25  C 
ATOM     16 O    LEU R  38      11.378 -13.817  22.182  1.00 42.97 LIG-0.27  OA
BRANCH 15 17
ATOM     17  CA  LEU R  38      10.530 -12.016  23.668  1.00 43.36 LIG 0.28  C 
BRANCH 17 18
ATOM     18  N   LEU R  38       9.600 -13.028  24.175  1.00 44.18 LIG-0.07  N 
ATOM     19 H1   LEU R  38       8.843 -12.996  23.707  1.00 44.18 LIG 0.28  HD
ATOM     20 H2   LEU R  38       9.965 -13.835  24.093  1.00 44.18 LIG 0.28  HD
ATOM     21 H3   LEU R  38       9.426 -12.868  25.033  1.00 44.18 LIG 0.28  HD
ENDBRANCH 17 18
BRANCH 17 22
ATOM     22  CB  LEU R  38      11.379 -11.516  24.887  1.00 42.68 LIG 0.05  C 
BRANCH 22 23
ATOM     23  CG  LEU R  38      11.850 -10.064  24.905  1.00 43.59 LIG-0.02  C 
ATOM     24  CD2 LEU R  38      10.607  -9.136  24.905  1.00 43.82 LIG 0.01  C 
ATOM     25  CD1 LEU R  38      12.818  -9.691  23.763  1.00 42.78 LIG 0.01  C 
ENDBRANCH 22 23
ENDBRANCH 17 22
ENDBRANCH 15 17
ENDBRANCH 8 13
ENDBRANCH 1 8
BRANCH 4 26
ATOM     26  C   PRO R  40      16.931 -12.955  20.944  1.00 39.48 LIG 0.24  C 
ATOM     27 O    PRO R  40      17.602 -11.960  21.418  1.00 40.12 LIG-0.27  OA
ATOM     28  N   ARG R  41      17.160 -13.339  19.686  1.00 39.52 LIG-0.35  N 
ATOM     29 H    ARG R  41      16.748 -14.012  19.343  1.00 39.52 LIG 0.16  HD
BRANCH 28 30
ATOM     30  CA  ARG R  41      18.107 -12.710  18.721  1.00 39.38 LIG 0.13  C 
BRANCH 30 31
ATOM     31  C   ARG R  41      17.659 -12.597  17.237  1.00 39.99 LIG 0.20  C 
ATOM     32 O    ARG R  41      18.549 -12.453  16.279  1.00 39.75 LIG-0.22  OA
ENDBRANCH 30 31
BRANCH 30 33
ATOM     33  CB  ARG R  41      19.476 -13.462  18.745  1.00 38.11 LIG 0.03  C 
BRANCH 33 34
ATOM     34  CG  ARG R  41      20.162 -13.138  20.112  1.00 35.63 LIG 0.02  C 
BRANCH 34 35
ATOM     35  CD  ARG R  41      20.033 -14.282  20.997  1.00 36.53 LIG 0.14  C 
BRANCH 35 36
ATOM     36  NE  ARG R  41      19.791 -14.066  22.481  1.00 36.92 LIG-0.23  N 
ATOM     37 HE   ARG R  41      19.003 -13.847  22.748  1.00 36.92 LIG 0.18  HD
ATOM     38  CZ  ARG R  41      20.802 -14.210  23.417  1.00 37.60 LIG 0.67  C 
ATOM     39  NH2 ARG R  41      20.438 -14.249  24.757  1.00 37.55 LIG-0.23  N 
ATOM     40  NH1 ARG R  41      22.110 -14.490  23.102  1.00 34.72 LIG-0.23  N 
ATOM     41 21HH ARG R  41      19.610 -14.183  24.979  1.00 37.55 LIG 0.17  HD
ATOM     42 22HH ARG R  41      21.042 -14.337  25.363  1.00 37.55 LIG 0.17  HD
ATOM     43 11HH ARG R  41      22.343 -14.586  22.280  1.00 34.72 LIG 0.17  HD
ATOM     44 12HH ARG R  41      22.695 -14.568  23.728  1.00 34.72 LIG 0.17  HD
ENDBRANCH 35 36
ENDBRANCH 34 35
ENDBRANCH 33 34
ENDBRANCH 30 33
ENDBRANCH 28 30
ENDBRANCH 4 26
TORSDOF 15
ENDMDL
MODEL 20
USER: ADFR SOLUTION from run 109
USER: SCORE 15.826288 LL:  -2.341 LR: -13.860 RR:   0.000 FEB:  -9.386
USER: RMSD 10.050643
USER: SEED 108
USER: STATUS no improvement in best 6 clusters for 5 generations
USER: GENES 17
USER: genes 0 Translation |==|  0.48961 0.53066 0.22189
USER: genes 1 Rotation |==|  0.84946 0.65183 0.54983 0.81991
USER: genes 2 Torsion [N]-C--CA-[N] |==|  0.84450
USER: genes 3 Torsion [C]-CA--CB-[CG] |==|  0.69726
USER: genes 4 Torsion [CA]-CB--CG-[OD2] |==|  0.32618
USER: genes 5 Torsion [C]-CA--N-[C] |==|  0.73732
USER: genes 6 Torsion [N]-C--CA-[N] |==|  0.07082
USER: genes 7 Torsion [C]-CA--N-[H2] |==|  0.52149
USER: genes 8 Torsion [C]-CA--CB-[CG] |==|  0.21781
USER: genes 9 Torsion [CA]-CB--CG-[CD2] |==|  0.75108
USER: genes 10 Torsion [N]-CA--C-[O] |==|  0.93882
USER: genes 11 Torsion [C]-N--CA-[CB] |==|  0.50250
USER: genes 12 Torsion [N]-CA--C-[O] |==|  0.10290
USER: genes 13 Torsion [N]-CA--CB-[CG] |==|  0.39048
USER: genes 14 Torsion [CA]-CB--CG-[CD] |==|  0.29859
USER: genes 15 Torsion [CB]-CG--CD-[NE] |==|  0.43492
USER: genes 16 Torsion [CG]-CD--NE-[HE] |==|  0.01754
ROOT
ATOM      1  C   ASP R  39      16.038 -13.290  14.687  1.00 39.81 LIG 0.24  C 
ATOM      2 O    ASP R  39      15.646 -14.084  15.623  1.00 39.68 LIG-0.27  OA
ATOM      3  N   PRO R  40      16.549 -12.099  14.787  1.00 39.27 LIG-0.34  N 
ATOM      4  CA  PRO R  40      16.808 -11.555  16.194  1.00 39.34 LIG 0.18  A 
ATOM      5  CB  PRO R  40      17.599 -10.293  15.979  1.00 38.99 LIG 0.04  A 
ATOM      6  CG  PRO R  40      17.754 -10.085  14.494  1.00 38.95 LIG 0.02  A 
ATOM      7  CD  PRO R  40      17.024 -11.197  13.739  1.00 38.89 LIG 0.13  A 
ENDROOT
BRANCH 1 8
ATOM      8  CA  ASP R  39      15.782 -13.792  13.264  1.00 40.71 LIG 0.19  C 
BRANCH 8 9
ATOM      9  CB  ASP R  39      17.094 -13.969  12.438  1.00 43.11 LIG 0.15  C 
BRANCH 9 10
ATOM     10  CG  ASP R  39      17.258 -12.924  11.335  1.00 44.48 LIG 0.17  C 
ATOM     11 OD2  ASP R  39      18.175 -12.079  11.254  1.00 43.91 LIG-0.65  OA
ATOM     12 OD1  ASP R  39      16.258 -13.006  10.522  1.00 46.24 LIG-0.65  OA
ENDBRANCH 9 10
ENDBRANCH 8 9
BRANCH 8 13
ATOM     13  N   ASP R  39      14.935 -12.796  12.656  1.00 41.53 LIG-0.34  N 
ATOM     14 H    ASP R  39      15.391 -12.149  12.320  1.00 41.53 LIG 0.16  HD
ATOM     15  C   LEU R  38      13.653 -12.815  12.589  1.00 42.61 LIG 0.25  C 
ATOM     16 O    LEU R  38      12.984 -13.722  13.142  1.00 42.97 LIG-0.27  OA
BRANCH 15 17
ATOM     17  CA  LEU R  38      13.042 -11.553  11.931  1.00 43.36 LIG 0.28  C 
BRANCH 17 18
ATOM     18  N   LEU R  38      14.032 -10.959  11.030  1.00 44.18 LIG-0.07  N 
ATOM     19 H1   LEU R  38      14.170 -11.503  10.339  1.00 44.18 LIG 0.28  HD
ATOM     20 H2   LEU R  38      13.732 -10.175  10.735  1.00 44.18 LIG 0.28  HD
ATOM     21 H3   LEU R  38      14.797 -10.836  11.468  1.00 44.18 LIG 0.28  HD
ENDBRANCH 17 18
BRANCH 17 22
ATOM     22  CB  LEU R  38      11.716 -11.724  11.115  1.00 42.68 LIG 0.05  C 
BRANCH 22 23
ATOM     23  CG  LEU R  38      10.397 -11.838  11.874  1.00 43.59 LIG-0.02  C 
ATOM     24  CD2 LEU R  38      10.127 -13.335  12.182  1.00 43.82 LIG 0.01  C 
ATOM     25  CD1 LEU R  38       9.190 -11.195  11.160  1.00 42.78 LIG 0.01  C 
ENDBRANCH 22 23
ENDBRANCH 17 22
ENDBRANCH 15 17
ENDBRANCH 8 13
ENDBRANCH 1 8
BRANCH 4 26
ATOM     26  C   PRO R  40      15.452 -11.567  16.878  1.00 39.48 LIG 0.24  C 
ATOM     27 O    PRO R  40      14.374 -11.566  16.171  1.00 40.12 LIG-0.27  OA
ATOM     28  N   ARG R  41      15.347 -11.667  18.206  1.00 39.52 LIG-0.35  N 
ATOM     29 H    ARG R  41      16.044 -11.693  18.709  1.00 39.52 LIG 0.16  HD
BRANCH 28 30
ATOM     30  CA  ARG R  41      14.083 -11.746  18.995  1.00 39.38 LIG 0.13  C 
BRANCH 30 31
ATOM     31  C   ARG R  41      13.036 -10.615  18.800  1.00 39.99 LIG 0.20  C 
ATOM     32 O    ARG R  41      12.837 -10.085  17.612  1.00 39.75 LIG-0.22  OA
ENDBRANCH 30 31
BRANCH 30 33
ATOM     33  CB  ARG R  41      14.408 -11.831  20.520  1.00 38.11 LIG 0.03  C 
BRANCH 33 34
ATOM     34  CG  ARG R  41      13.355 -10.953  21.272  1.00 35.63 LIG 0.02  C 
BRANCH 34 35
ATOM     35  CD  ARG R  41      12.422 -11.817  21.972  1.00 36.53 LIG 0.14  C 
BRANCH 35 36
ATOM     36  NE  ARG R  41      11.654 -11.286  23.171  1.00 36.92 LIG-0.23  N 
ATOM     37 HE   ARG R  41      11.719 -10.452  23.373  1.00 36.92 LIG 0.18  HD
ATOM     38  CZ  ARG R  41      10.851 -12.104  23.948  1.00 37.60 LIG 0.67  C 
ATOM     39  NH2 ARG R  41       9.994 -11.494  24.854  1.00 37.55 LIG-0.23  N 
ATOM     40  NH1 ARG R  41      10.723 -13.460  23.762  1.00 34.72 LIG-0.23  N 
ATOM     41 21HH ARG R  41       9.975 -10.637  24.917  1.00 37.55 LIG 0.17  HD
ATOM     42 22HH ARG R  41       9.482 -11.974  25.351  1.00 37.55 LIG 0.17  HD
ATOM     43 11HH ARG R  41      11.157 -13.850  23.130  1.00 34.72 LIG 0.17  HD
ATOM     44 12HH ARG R  41      10.208 -13.918  24.277  1.00 34.72 LIG 0.17  HD
ENDBRANCH 35 36
ENDBRANCH 34 35
ENDBRANCH 33 34
ENDBRANCH 30 33
ENDBRANCH 28 30
ENDBRANCH 4 26
TORSDOF 15
ENDMDL
MODEL 21
USER: ADFR SOLUTION from run 32
USER: SCORE 15.549002 LL:  -2.448 LR: -13.811 RR:   0.000 FEB:  -9.336
USER: RMSD 6.728274
USER: SEED 31
USER: STATUS no improvement in best 8 clusters for 5 generations
USER: GENES 17
USER: genes 0 Translation |==|  0.49625 0.54395 0.36556
USER: genes 1 Rotation |==|  0.63079 0.88820 0.66625 0.73357
USER: genes 2 Torsion [N]-C--CA-[N] |==|  0.81111
USER: genes 3 Torsion [C]-CA--CB-[CG] |==|  0.29358
USER: genes 4 Torsion [CA]-CB--CG-[OD2] |==|  0.39485
USER: genes 5 Torsion [C]-CA--N-[C] |==|  0.84355
USER: genes 6 Torsion [N]-C--CA-[N] |==|  0.21181
USER: genes 7 Torsion [C]-CA--N-[H2] |==|  0.89199
USER: genes 8 Torsion [C]-CA--CB-[CG] |==|  0.30552
USER: genes 9 Torsion [CA]-CB--CG-[CD2] |==|  0.22000
USER: genes 10 Torsion [N]-CA--C-[O] |==|  0.25283
USER: genes 11 Torsion [C]-N--CA-[CB] |==|  0.46369
USER: genes 12 Torsion [N]-CA--C-[O] |==|  0.58905
USER: genes 13 Torsion [N]-CA--CB-[CG] |==|  0.70864
USER: genes 14 Torsion [CA]-CB--CG-[CD] |==|  0.18642
USER: genes 15 Torsion [CB]-CG--CD-[NE] |==|  0.40416
USER: genes 16 Torsion [CG]-CD--NE-[HE] |==|  0.87627
ROOT
ATOM      1  C   ASP R  39      16.237 -12.892  18.997  1.00 39.81 LIG 0.24  C 
ATOM      2 O    ASP R  39      17.005 -13.017  20.025  1.00 39.68 LIG-0.27  OA
ATOM      3  N   PRO R  40      15.152 -12.187  18.868  1.00 39.27 LIG-0.34  N 
ATOM      4  CA  PRO R  40      14.733 -11.310  20.050  1.00 39.34 LIG 0.18  A 
ATOM      5  CB  PRO R  40      13.608 -10.463  19.521  1.00 38.99 LIG 0.04  A 
ATOM      6  CG  PRO R  40      13.350 -10.866  18.092  1.00 38.95 LIG 0.02  A 
ATOM      7  CD  PRO R  40      14.287 -12.012  17.703  1.00 38.89 LIG 0.13  A 
ENDROOT
BRANCH 1 8
ATOM      8  CA  ASP R  39      16.615 -13.764  17.798  1.00 40.71 LIG 0.19  C 
BRANCH 8 9
ATOM      9  CB  ASP R  39      16.669 -12.966  16.459  1.00 43.11 LIG 0.15  C 
BRANCH 9 10
ATOM     10  CG  ASP R  39      18.092 -12.702  15.970  1.00 44.48 LIG 0.17  C 
ATOM     11 OD2  ASP R  39      18.476 -12.722  14.781  1.00 43.91 LIG-0.65  OA
ATOM     12 OD1  ASP R  39      18.863 -12.516  16.989  1.00 46.24 LIG-0.65  OA
ENDBRANCH 9 10
ENDBRANCH 8 9
BRANCH 8 13
ATOM     13  N   ASP R  39      15.598 -14.785  17.735  1.00 41.53 LIG-0.34  N 
ATOM     14 H    ASP R  39      15.206 -14.800  16.969  1.00 41.53 LIG 0.16  HD
ATOM     15  C   LEU R  38      15.270 -15.602  18.669  1.00 42.61 LIG 0.25  C 
ATOM     16 O    LEU R  38      15.791 -15.532  19.809  1.00 42.97 LIG-0.27  OA
BRANCH 15 17
ATOM     17  CA  LEU R  38      14.085 -16.528  18.302  1.00 43.36 LIG 0.28  C 
BRANCH 17 18
ATOM     18  N   LEU R  38      14.563 -17.580  17.402  1.00 44.18 LIG-0.07  N 
ATOM     19 H1   LEU R  38      13.875 -17.921  16.951  1.00 44.18 LIG 0.28  HD
ATOM     20 H2   LEU R  38      15.152 -17.237  16.830  1.00 44.18 LIG 0.28  HD
ATOM     21 H3   LEU R  38      14.953 -18.223  17.877  1.00 44.18 LIG 0.28  HD
ENDBRANCH 17 18
BRANCH 17 22
ATOM     22  CB  LEU R  38      13.318 -17.234  19.473  1.00 42.68 LIG 0.05  C 
BRANCH 22 23
ATOM     23  CG  LEU R  38      11.894 -16.787  19.791  1.00 43.59 LIG-0.02  C 
ATOM     24  CD2 LEU R  38      10.928 -17.435  18.765  1.00 43.82 LIG 0.01  C 
ATOM     25  CD1 LEU R  38      11.700 -15.257  19.843  1.00 42.78 LIG 0.01  C 
ENDBRANCH 22 23
ENDBRANCH 17 22
ENDBRANCH 15 17
ENDBRANCH 8 13
ENDBRANCH 1 8
BRANCH 4 26
ATOM     26  C   PRO R  40      14.559 -12.271  21.213  1.00 39.48 LIG 0.24  C 
ATOM     27 O    PRO R  40      15.553 -12.523  21.995  1.00 40.12 LIG-0.27  OA
ATOM     28  N   ARG R  41      13.368 -12.801  21.503  1.00 39.52 LIG-0.35  N 
ATOM     29 H    ARG R  41      12.676 -12.638  21.018  1.00 39.52 LIG 0.16  HD
BRANCH 28 30
ATOM     30  CA  ARG R  41      13.050 -13.708  22.644  1.00 39.38 LIG 0.13  C 
BRANCH 30 31
ATOM     31  C   ARG R  41      13.635 -15.147  22.609  1.00 39.99 LIG 0.20  C 
ATOM     32 O    ARG R  41      12.975 -16.151  23.145  1.00 39.75 LIG-0.22  OA
ENDBRANCH 30 31
BRANCH 30 33
ATOM     33  CB  ARG R  41      11.502 -13.831  22.816  1.00 38.11 LIG 0.03  C 
BRANCH 33 34
ATOM     34  CG  ARG R  41      11.102 -12.978  24.064  1.00 35.63 LIG 0.02  C 
BRANCH 34 35
ATOM     35  CD  ARG R  41      11.327 -11.573  23.777  1.00 36.53 LIG 0.14  C 
BRANCH 35 36
ATOM     36  NE  ARG R  41      10.393 -10.524  24.358  1.00 36.92 LIG-0.23  N 
ATOM     37 HE   ARG R  41       9.544 -10.659  24.332  1.00 36.92 LIG 0.18  HD
ATOM     38  CZ  ARG R  41      10.870  -9.356  24.930  1.00 37.60 LIG 0.67  C 
ATOM     39  NH2 ARG R  41       9.975  -8.585  25.661  1.00 37.55 LIG-0.23  N 
ATOM     40  NH1 ARG R  41      12.197  -9.002  24.970  1.00 34.72 LIG-0.23  N 
ATOM     41 21HH ARG R  41       9.158  -8.838  25.744  1.00 37.55 LIG 0.17  HD
ATOM     42 22HH ARG R  41      10.239  -7.854  26.029  1.00 37.55 LIG 0.17  HD
ATOM     43 11HH ARG R  41      12.791  -9.520  24.624  1.00 34.72 LIG 0.17  HD
ATOM     44 12HH ARG R  41      12.434  -8.262  25.340  1.00 34.72 LIG 0.17  HD
ENDBRANCH 35 36
ENDBRANCH 34 35
ENDBRANCH 33 34
ENDBRANCH 30 33
ENDBRANCH 28 30
ENDBRANCH 4 26
TORSDOF 15
ENDMDL
MODEL 22
USER: ADFR SOLUTION from run 65
USER: SCORE 17.021237 LL:  -3.258 LR: -13.769 RR:   0.000 FEB:  -9.294
USER: RMSD 7.439862
USER: SEED 64
USER: STATUS no improvement in best 10 clusters for 5 generations
USER: GENES 17
USER: genes 0 Translation |==|  0.41764 0.51965 0.44846
USER: genes 1 Rotation |==|  0.69080 0.34990 0.10795 0.69330
USER: genes 2 Torsion [N]-C--CA-[N] |==|  0.37492
USER: genes 3 Torsion [C]-CA--CB-[CG] |==|  0.37154
USER: genes 4 Torsion [CA]-CB--CG-[OD2] |==|  0.78803
USER: genes 5 Torsion [C]-CA--N-[C] |==|  0.84444
USER: genes 6 Torsion [N]-C--CA-[N] |==|  0.50120
USER: genes 7 Torsion [C]-CA--N-[H2] |==|  0.06702
USER: genes 8 Torsion [C]-CA--CB-[CG] |==|  0.23061
USER: genes 9 Torsion [CA]-CB--CG-[CD2] |==|  0.74246
USER: genes 10 Torsion [N]-CA--C-[O] |==|  0.28058
USER: genes 11 Torsion [C]-N--CA-[CB] |==|  0.51133
USER: genes 12 Torsion [N]-CA--C-[O] |==|  0.95801
USER: genes 13 Torsion [N]-CA--CB-[CG] |==|  0.23417
USER: genes 14 Torsion [CA]-CB--CG-[CD] |==|  0.84802
USER: genes 15 Torsion [CB]-CG--CD-[NE] |==|  0.63167
USER: genes 16 Torsion [CG]-CD--NE-[HE] |==|  0.82634
ROOT
ATOM      1  C   ASP R  39      13.879 -13.621  21.484  1.00 39.81 LIG 0.24  C 
ATOM      2 O    ASP R  39      14.322 -13.149  22.598  1.00 39.68 LIG-0.27  OA
ATOM      3  N   PRO R  40      14.163 -14.749  20.904  1.00 39.27 LIG-0.34  N 
ATOM      4  CA  PRO R  40      15.087 -15.716  21.649  1.00 39.34 LIG 0.18  A 
ATOM      5  CB  PRO R  40      15.033 -16.991  20.852  1.00 38.99 LIG 0.04  A 
ATOM      6  CG  PRO R  40      14.143 -16.760  19.658  1.00 38.95 LIG 0.02  A 
ATOM      7  CD  PRO R  40      13.649 -15.311  19.656  1.00 38.89 LIG 0.13  A 
ENDROOT
BRANCH 1 8
ATOM      8  CA  ASP R  39      12.963 -12.677  20.701  1.00 40.71 LIG 0.19  C 
BRANCH 8 9
ATOM      9  CB  ASP R  39      13.730 -11.478  20.063  1.00 43.11 LIG 0.15  C 
BRANCH 9 10
ATOM     10  CG  ASP R  39      13.350 -11.225  18.605  1.00 44.48 LIG 0.17  C 
ATOM     11 OD2  ASP R  39      13.725 -11.897  17.620  1.00 43.91 LIG-0.65  OA
ATOM     12 OD1  ASP R  39      12.624 -10.160  18.535  1.00 46.24 LIG-0.65  OA
ENDBRANCH 9 10
ENDBRANCH 8 9
BRANCH 8 13
ATOM     13  N   ASP R  39      11.997 -12.202  21.661  1.00 41.53 LIG-0.34  N 
ATOM     14 H    ASP R  39      11.983 -11.343  21.704  1.00 41.53 LIG 0.16  HD
ATOM     15  C   LEU R  38      11.222 -12.920  22.390  1.00 42.61 LIG 0.25  C 
ATOM     16 O    LEU R  38      11.292 -14.173  22.379  1.00 42.97 LIG-0.27  OA
BRANCH 15 17
ATOM     17  CA  LEU R  38      10.350 -12.100  23.373  1.00 43.36 LIG 0.28  C 
BRANCH 17 18
ATOM     18  N   LEU R  38       9.520 -13.018  24.155  1.00 44.18 LIG-0.07  N 
ATOM     19 H1   LEU R  38       8.716 -13.085  23.779  1.00 44.18 LIG 0.28  HD
ATOM     20 H2   LEU R  38       9.904 -13.820  24.178  1.00 44.18 LIG 0.28  HD
ATOM     21 H3   LEU R  38       9.434 -12.707  24.984  1.00 44.18 LIG 0.28  HD
ENDBRANCH 17 18
BRANCH 17 22
ATOM     22  CB  LEU R  38      11.083 -11.158  24.389  1.00 42.68 LIG 0.05  C 
BRANCH 22 23
ATOM     23  CG  LEU R  38      11.512  -9.769  23.923  1.00 43.59 LIG-0.02  C 
ATOM     24  CD2 LEU R  38      12.973  -9.847  23.405  1.00 43.82 LIG 0.01  C 
ATOM     25  CD1 LEU R  38      11.361  -8.662  24.986  1.00 42.78 LIG 0.01  C 
ENDBRANCH 22 23
ENDBRANCH 17 22
ENDBRANCH 15 17
ENDBRANCH 8 13
ENDBRANCH 1 8
BRANCH 4 26
ATOM     26  C   PRO R  40      16.374 -14.941  21.870  1.00 39.48 LIG 0.24  C 
ATOM     27 O    PRO R  40      16.618 -14.413  23.021  1.00 40.12 LIG-0.27  OA
ATOM     28  N   ARG R  41      17.309 -14.865  20.920  1.00 39.52 LIG-0.35  N 
ATOM     29 H    ARG R  41      17.192 -15.224  20.147  1.00 39.52 LIG 0.16  HD
BRANCH 28 30
ATOM     30  CA  ARG R  41      18.635 -14.188  21.027  1.00 39.38 LIG 0.13  C 
BRANCH 30 31
ATOM     31  C   ARG R  41      18.656 -12.712  21.510  1.00 39.99 LIG 0.20  C 
ATOM     32 O    ARG R  41      17.551 -11.997  21.530  1.00 39.75 LIG-0.22  OA
ENDBRANCH 30 31
BRANCH 30 33
ATOM     33  CB  ARG R  41      19.379 -14.246  19.655  1.00 38.11 LIG 0.03  C 
BRANCH 33 34
ATOM     34  CG  ARG R  41      18.862 -13.050  18.791  1.00 35.63 LIG 0.02  C 
BRANCH 34 35
ATOM     35  CD  ARG R  41      17.413 -13.111  18.705  1.00 36.53 LIG 0.14  C 
BRANCH 35 36
ATOM     36  NE  ARG R  41      16.730 -12.953  17.357  1.00 36.92 LIG-0.23  N 
ATOM     37 HE   ARG R  41      16.817 -12.212  16.928  1.00 36.92 LIG 0.18  HD
ATOM     38  CZ  ARG R  41      15.969 -13.966  16.798  1.00 37.60 LIG 0.67  C 
ATOM     39  NH2 ARG R  41      15.601 -13.835  15.465  1.00 37.55 LIG-0.23  N 
ATOM     40  NH1 ARG R  41      15.705 -15.164  17.418  1.00 34.72 LIG-0.23  N 
ATOM     41 21HH ARG R  41      15.845 -13.142  15.018  1.00 37.55 LIG 0.17  HD
ATOM     42 22HH ARG R  41      15.129 -14.447  15.088  1.00 37.55 LIG 0.17  HD
ATOM     43 11HH ARG R  41      16.019 -15.320  18.203  1.00 34.72 LIG 0.17  HD
ATOM     44 12HH ARG R  41      15.225 -15.757  17.020  1.00 34.72 LIG 0.17  HD
ENDBRANCH 35 36
ENDBRANCH 34 35
ENDBRANCH 33 34
ENDBRANCH 30 33
ENDBRANCH 28 30
ENDBRANCH 4 26
TORSDOF 15
ENDMDL
MODEL 23
USER: ADFR SOLUTION from run 76
USER: SCORE 16.474870 LL:  -2.921 LR: -13.775 RR:   0.000 FEB:  -9.300
USER: RMSD 7.390035
USER: SEED 75
USER: STATUS no improvement in best 1 clusters for 5 generations
USER: GENES 17
USER: genes 0 Translation |==|  0.47562 0.54486 0.38277
USER: genes 1 Rotation |==|  0.99935 0.48397 0.48210 0.50864
USER: genes 2 Torsion [N]-C--CA-[N] |==|  0.36606
USER: genes 3 Torsion [C]-CA--CB-[CG] |==|  0.73003
USER: genes 4 Torsion [CA]-CB--CG-[OD2] |==|  0.88485
USER: genes 5 Torsion [C]-CA--N-[C] |==|  0.61763
USER: genes 6 Torsion [N]-C--CA-[N] |==|  0.36365
USER: genes 7 Torsion [C]-CA--N-[H2] |==|  0.81691
USER: genes 8 Torsion [C]-CA--CB-[CG] |==|  0.90117
USER: genes 9 Torsion [CA]-CB--CG-[CD2] |==|  0.20773
USER: genes 10 Torsion [N]-CA--C-[O] |==|  0.77598
USER: genes 11 Torsion [C]-N--CA-[CB] |==|  0.32602
USER: genes 12 Torsion [N]-CA--C-[O] |==|  0.18085
USER: genes 13 Torsion [N]-CA--CB-[CG] |==|  0.82710
USER: genes 14 Torsion [CA]-CB--CG-[CD] |==|  0.71737
USER: genes 15 Torsion [CB]-CG--CD-[NE] |==|  0.03616
USER: genes 16 Torsion [CG]-CD--NE-[HE] |==|  0.98278
ROOT
ATOM      1  C   ASP R  39      15.619 -12.864  19.513  1.00 39.81 LIG 0.24  C 
ATOM      2 O    ASP R  39      14.568 -13.583  19.308  1.00 39.68 LIG-0.27  OA
ATOM      3  N   PRO R  40      16.691 -13.158  20.187  1.00 39.27 LIG-0.34  N 
ATOM      4  CA  PRO R  40      16.796 -14.569  20.771  1.00 39.34 LIG 0.18  A 
ATOM      5  CB  PRO R  40      18.210 -14.674  21.273  1.00 38.99 LIG 0.04  A 
ATOM      6  CG  PRO R  40      18.892 -13.351  21.032  1.00 38.95 LIG 0.02  A 
ATOM      7  CD  PRO R  40      17.900 -12.367  20.406  1.00 38.89 LIG 0.13  A 
ENDROOT
BRANCH 1 8
ATOM      8  CA  ASP R  39      15.546 -11.440  18.958  1.00 40.71 LIG 0.19  C 
BRANCH 8 9
ATOM      9  CB  ASP R  39      14.517 -10.545  19.716  1.00 43.11 LIG 0.15  C 
BRANCH 9 10
ATOM     10  CG  ASP R  39      13.161 -10.460  19.017  1.00 44.48 LIG 0.17  C 
ATOM     11 OD2  ASP R  39      12.973 -10.341  17.787  1.00 43.91 LIG-0.65  OA
ATOM     12 OD1  ASP R  39      12.225 -10.466  19.908  1.00 46.24 LIG-0.65  OA
ENDBRANCH 9 10
ENDBRANCH 8 9
BRANCH 8 13
ATOM     13  N   ASP R  39      15.161 -11.589  17.576  1.00 41.53 LIG-0.34  N 
ATOM     14 H    ASP R  39      14.543 -12.180  17.477  1.00 41.53 LIG 0.16  HD
ATOM     15  C   LEU R  38      15.641 -10.951  16.571  1.00 42.61 LIG 0.25  C 
ATOM     16 O    LEU R  38      16.592 -10.142  16.706  1.00 42.97 LIG-0.27  OA
BRANCH 15 17
ATOM     17  CA  LEU R  38      15.060 -11.400  15.209  1.00 43.36 LIG 0.28  C 
BRANCH 17 18
ATOM     18  N   LEU R  38      14.642 -10.216  14.454  1.00 44.18 LIG-0.07  N 
ATOM     19 H1   LEU R  38      14.387 -10.460  13.637  1.00 44.18 LIG 0.28  HD
ATOM     20 H2   LEU R  38      13.962  -9.823  14.872  1.00 44.18 LIG 0.28  HD
ATOM     21 H3   LEU R  38      15.322  -9.646  14.395  1.00 44.18 LIG 0.28  HD
ENDBRANCH 17 18
BRANCH 17 22
ATOM     22  CB  LEU R  38      15.979 -12.249  14.265  1.00 42.68 LIG 0.05  C 
BRANCH 22 23
ATOM     23  CG  LEU R  38      17.475 -11.947  14.232  1.00 43.59 LIG-0.02  C 
ATOM     24  CD2 LEU R  38      18.124 -12.502  15.528  1.00 43.82 LIG 0.01  C 
ATOM     25  CD1 LEU R  38      17.822 -10.457  14.035  1.00 42.78 LIG 0.01  C 
ENDBRANCH 22 23
ENDBRANCH 17 22
ENDBRANCH 15 17
ENDBRANCH 8 13
ENDBRANCH 1 8
BRANCH 4 26
ATOM     26  C   PRO R  40      15.589 -14.711  21.682  1.00 39.48 LIG 0.24  C 
ATOM     27 O    PRO R  40      15.617 -14.210  22.869  1.00 40.12 LIG-0.27  OA
ATOM     28  N   ARG R  41      14.457 -15.272  21.250  1.00 39.52 LIG-0.35  N 
ATOM     29 H    ARG R  41      14.394 -15.597  20.456  1.00 39.52 LIG 0.16  HD
BRANCH 28 30
ATOM     30  CA  ARG R  41      13.187 -15.422  22.019  1.00 39.38 LIG 0.13  C 
BRANCH 30 31
ATOM     31  C   ARG R  41      12.665 -16.861  22.280  1.00 39.99 LIG 0.20  C 
ATOM     32 O    ARG R  41      13.349 -17.696  23.032  1.00 39.75 LIG-0.22  OA
ENDBRANCH 30 31
BRANCH 30 33
ATOM     33  CB  ARG R  41      12.041 -14.621  21.324  1.00 38.11 LIG 0.03  C 
BRANCH 33 34
ATOM     34  CG  ARG R  41      12.450 -13.112  21.337  1.00 35.63 LIG 0.02  C 
BRANCH 34 35
ATOM     35  CD  ARG R  41      11.727 -12.428  22.395  1.00 36.53 LIG 0.14  C 
BRANCH 35 36
ATOM     36  NE  ARG R  41      10.991 -13.236  23.451  1.00 36.92 LIG-0.23  N 
ATOM     37 HE   ARG R  41      10.943 -14.090  23.366  1.00 36.92 LIG 0.18  HD
ATOM     38  CZ  ARG R  41      10.395 -12.636  24.548  1.00 37.60 LIG 0.67  C 
ATOM     39  NH2 ARG R  41       9.975 -13.460  25.584  1.00 37.55 LIG-0.23  N 
ATOM     40  NH1 ARG R  41      10.350 -11.278  24.755  1.00 34.72 LIG-0.23  N 
ATOM     41 21HH ARG R  41      10.088 -14.311  25.529  1.00 37.55 LIG 0.17  HD
ATOM     42 22HH ARG R  41       9.601 -13.119  26.280  1.00 37.55 LIG 0.17  HD
ATOM     43 11HH ARG R  41      10.706 -10.744  24.182  1.00 34.72 LIG 0.17  HD
ATOM     44 12HH ARG R  41       9.965 -10.963  25.457  1.00 34.72 LIG 0.17  HD
ENDBRANCH 35 36
ENDBRANCH 34 35
ENDBRANCH 33 34
ENDBRANCH 30 33
ENDBRANCH 28 30
ENDBRANCH 4 26
TORSDOF 15
ENDMDL
MODEL 24
USER: ADFR SOLUTION from run 28
USER: SCORE 15.810056 LL:  -2.254 LR: -13.665 RR:   0.000 FEB:  -9.190
USER: RMSD 8.284009
USER: SEED 27
USER: STATUS searching
USER: GENES 17
USER: genes 0 Translation |==|  0.39899 0.51754 0.46149
USER: genes 1 Rotation |==|  0.54967 0.29654 0.07566 0.66146
USER: genes 2 Torsion [N]-C--CA-[N] |==|  0.33395
USER: genes 3 Torsion [C]-CA--CB-[CG] |==|  0.54164
USER: genes 4 Torsion [CA]-CB--CG-[OD2] |==|  0.12003
USER: genes 5 Torsion [C]-CA--N-[C] |==|  0.81158
USER: genes 6 Torsion [N]-C--CA-[N] |==|  0.56856
USER: genes 7 Torsion [C]-CA--N-[H2] |==|  0.22062
USER: genes 8 Torsion [C]-CA--CB-[CG] |==|  0.48228
USER: genes 9 Torsion [CA]-CB--CG-[CD2] |==|  0.96160
USER: genes 10 Torsion [N]-CA--C-[O] |==|  0.83337
USER: genes 11 Torsion [C]-N--CA-[CB] |==|  0.47658
USER: genes 12 Torsion [N]-CA--C-[O] |==|  0.36404
USER: genes 13 Torsion [N]-CA--CB-[CG] |==|  0.21362
USER: genes 14 Torsion [CA]-CB--CG-[CD] |==|  0.54801
USER: genes 15 Torsion [CB]-CG--CD-[NE] |==|  0.66805
USER: genes 16 Torsion [CG]-CD--NE-[HE] |==|  0.85451
ROOT
ATOM      1  C   ASP R  39      13.320 -13.684  21.875  1.00 39.81 LIG 0.24  C 
ATOM      2 O    ASP R  39      14.310 -13.231  22.564  1.00 39.68 LIG-0.27  OA
ATOM      3  N   PRO R  40      12.954 -14.916  21.682  1.00 39.27 LIG-0.34  N 
ATOM      4  CA  PRO R  40      13.733 -16.010  22.417  1.00 39.34 LIG 0.18  A 
ATOM      5  CB  PRO R  40      12.944 -17.269  22.183  1.00 38.99 LIG 0.04  A 
ATOM      6  CG  PRO R  40      11.769 -16.928  21.301  1.00 38.95 LIG 0.02  A 
ATOM      7  CD  PRO R  40      11.820 -15.445  20.927  1.00 38.89 LIG 0.13  A 
ENDROOT
BRANCH 1 8
ATOM      8  CA  ASP R  39      12.525 -12.622  21.112  1.00 40.71 LIG 0.19  C 
BRANCH 8 9
ATOM      9  CB  ASP R  39      13.410 -11.786  20.137  1.00 43.11 LIG 0.15  C 
BRANCH 9 10
ATOM     10  CG  ASP R  39      12.728 -10.508  19.648  1.00 44.48 LIG 0.17  C 
ATOM     11 OD2  ASP R  39      12.069  -9.712  20.350  1.00 43.91 LIG-0.65  OA
ATOM     12 OD1  ASP R  39      12.885 -10.407  18.370  1.00 46.24 LIG-0.65  OA
ENDBRANCH 9 10
ENDBRANCH 8 9
BRANCH 8 13
ATOM     13  N   ASP R  39      11.953 -11.772  22.127  1.00 41.53 LIG-0.34  N 
ATOM     14 H    ASP R  39      12.295 -10.983  22.115  1.00 41.53 LIG 0.16  HD
ATOM     15  C   LEU R  38      11.043 -12.092  22.974  1.00 42.61 LIG 0.25  C 
ATOM     16 O    LEU R  38      10.595 -13.263  23.039  1.00 42.97 LIG-0.27  OA
BRANCH 15 17
ATOM     17  CA  LEU R  38      10.701 -10.966  23.980  1.00 43.36 LIG 0.28  C 
BRANCH 17 18
ATOM     18  N   LEU R  38      10.149 -11.564  25.197  1.00 44.18 LIG-0.07  N 
ATOM     19 H1   LEU R  38       9.600 -12.231  24.978  1.00 44.18 LIG 0.28  HD
ATOM     20 H2   LEU R  38      10.812 -11.879  25.700  1.00 44.18 LIG 0.28  HD
ATOM     21 H3   LEU R  38       9.698 -10.948  25.654  1.00 44.18 LIG 0.28  HD
ENDBRANCH 17 18
BRANCH 17 22
ATOM     22  CB  LEU R  38      11.856 -10.002  24.420  1.00 42.68 LIG 0.05  C 
BRANCH 22 23
ATOM     23  CG  LEU R  38      11.513  -8.798  25.293  1.00 43.59 LIG-0.02  C 
ATOM     24  CD2 LEU R  38       9.975  -8.595  25.280  1.00 43.82 LIG 0.01  C 
ATOM     25  CD1 LEU R  38      12.246  -7.497  24.905  1.00 42.78 LIG 0.01  C 
ENDBRANCH 22 23
ENDBRANCH 17 22
ENDBRANCH 15 17
ENDBRANCH 8 13
ENDBRANCH 1 8
BRANCH 4 26
ATOM     26  C   PRO R  40      15.172 -15.847  21.958  1.00 39.48 LIG 0.24  C 
ATOM     27 O    PRO R  40      15.465 -15.957  20.708  1.00 40.12 LIG-0.27  OA
ATOM     28  N   ARG R  41      16.137 -15.501  22.814  1.00 39.52 LIG-0.35  N 
ATOM     29 H    ARG R  41      15.975 -15.396  23.652  1.00 39.52 LIG 0.16  HD
BRANCH 28 30
ATOM     30  CA  ARG R  41      17.572 -15.254  22.486  1.00 39.38 LIG 0.13  C 
BRANCH 30 31
ATOM     31  C   ARG R  41      18.410 -16.452  21.959  1.00 39.99 LIG 0.20  C 
ATOM     32 O    ARG R  41      19.150 -16.327  20.879  1.00 39.75 LIG-0.22  OA
ENDBRANCH 30 31
BRANCH 30 33
ATOM     33  CB  ARG R  41      18.313 -14.669  23.730  1.00 38.11 LIG 0.03  C 
BRANCH 33 34
ATOM     34  CG  ARG R  41      18.579 -15.854  24.715  1.00 35.63 LIG 0.02  C 
BRANCH 34 35
ATOM     35  CD  ARG R  41      18.884 -15.324  26.032  1.00 36.53 LIG 0.14  C 
BRANCH 35 36
ATOM     36  NE  ARG R  41      20.227 -15.625  26.676  1.00 36.92 LIG-0.23  N 
ATOM     37 HE   ARG R  41      20.488 -16.443  26.734  1.00 36.92 LIG 0.18  HD
ATOM     38  CZ  ARG R  41      21.044 -14.622  27.170  1.00 37.60 LIG 0.67  C 
ATOM     39  NH2 ARG R  41      22.350 -14.959  27.501  1.00 37.55 LIG-0.23  N 
ATOM     40  NH1 ARG R  41      20.704 -13.291  27.192  1.00 34.72 LIG-0.23  N 
ATOM     41 21HH ARG R  41      22.625 -15.767  27.396  1.00 37.55 LIG 0.17  HD
ATOM     42 22HH ARG R  41      22.883 -14.360  27.811  1.00 37.55 LIG 0.17  HD
ATOM     43 11HH ARG R  41      19.942 -13.037  26.885  1.00 34.72 LIG 0.17  HD
ATOM     44 12HH ARG R  41      21.254 -12.712  27.512  1.00 34.72 LIG 0.17  HD
ENDBRANCH 35 36
ENDBRANCH 34 35
ENDBRANCH 33 34
ENDBRANCH 30 33
ENDBRANCH 28 30
ENDBRANCH 4 26
TORSDOF 15
ENDMDL
MODEL 25
USER: ADFR SOLUTION from run 114
USER: SCORE 17.144402 LL:  -3.789 LR: -13.664 RR:   0.000 FEB:  -9.189
USER: RMSD 6.625908
USER: SEED 113
USER: STATUS no improvement in best 13 clusters for 5 generations
USER: GENES 17
USER: genes 0 Translation |==|  0.38337 0.53385 0.42880
USER: genes 1 Rotation |==|  0.39194 0.22292 0.76498 0.80222
USER: genes 2 Torsion [N]-C--CA-[N] |==|  0.16520
USER: genes 3 Torsion [C]-CA--CB-[CG] |==|  0.37044
USER: genes 4 Torsion [CA]-CB--CG-[OD2] |==|  0.45103
USER: genes 5 Torsion [C]-CA--N-[C] |==|  0.13112
USER: genes 6 Torsion [N]-C--CA-[N] |==|  0.78878
USER: genes 7 Torsion [C]-CA--N-[H2] |==|  0.10493
USER: genes 8 Torsion [C]-CA--CB-[CG] |==|  0.23314
USER: genes 9 Torsion [CA]-CB--CG-[CD2] |==|  0.62215
USER: genes 10 Torsion [N]-CA--C-[O] |==|  0.42855
USER: genes 11 Torsion [C]-N--CA-[CB] |==|  0.37325
USER: genes 12 Torsion [N]-CA--C-[O] |==|  0.89420
USER: genes 13 Torsion [N]-CA--CB-[CG] |==|  0.05440
USER: genes 14 Torsion [CA]-CB--CG-[CD] |==|  0.36483
USER: genes 15 Torsion [CB]-CG--CD-[NE] |==|  0.61523
USER: genes 16 Torsion [CG]-CD--NE-[HE] |==|  0.69952
ROOT
ATOM      1  C   ASP R  39      12.851 -13.194  20.894  1.00 39.81 LIG 0.24  C 
ATOM      2 O    ASP R  39      12.440 -13.892  19.891  1.00 39.68 LIG-0.27  OA
ATOM      3  N   PRO R  40      13.233 -11.952  20.923  1.00 39.27 LIG-0.34  N 
ATOM      4  CA  PRO R  40      13.124 -11.147  19.626  1.00 39.34 LIG 0.18  A 
ATOM      5  CB  PRO R  40      13.407  -9.726  20.029  1.00 38.99 LIG 0.04  A 
ATOM      6  CG  PRO R  40      13.717  -9.711  21.504  1.00 38.95 LIG 0.02  A 
ATOM      7  CD  PRO R  40      13.675 -11.139  22.054  1.00 38.89 LIG 0.13  A 
ENDROOT
BRANCH 1 8
ATOM      8  CA  ASP R  39      12.988 -13.968  22.207  1.00 40.71 LIG 0.19  C 
BRANCH 8 9
ATOM      9  CB  ASP R  39      12.510 -15.448  22.092  1.00 43.11 LIG 0.15  C 
BRANCH 9 10
ATOM     10  CG  ASP R  39      13.487 -16.448  22.709  1.00 44.48 LIG 0.17  C 
ATOM     11 OD2  ASP R  39      13.226 -17.628  23.030  1.00 43.91 LIG-0.65  OA
ATOM     12 OD1  ASP R  39      14.620 -15.863  22.911  1.00 46.24 LIG-0.65  OA
ENDBRANCH 9 10
ENDBRANCH 8 9
BRANCH 8 13
ATOM     13  N   ASP R  39      12.176 -13.250  23.158  1.00 41.53 LIG-0.34  N 
ATOM     14 H    ASP R  39      12.591 -13.119  23.901  1.00 41.53 LIG 0.16  HD
ATOM     15  C   LEU R  38      10.976 -12.830  22.982  1.00 42.61 LIG 0.25  C 
ATOM     16 O    LEU R  38      10.344 -13.084  21.927  1.00 42.97 LIG-0.27  OA
BRANCH 15 17
ATOM     17  CA  LEU R  38      10.358 -12.157  24.232  1.00 43.36 LIG 0.28  C 
BRANCH 17 18
ATOM     18  N   LEU R  38       9.975 -13.193  25.193  1.00 44.18 LIG-0.07  N 
ATOM     19 H1   LEU R  38       9.181 -13.528  24.968  1.00 44.18 LIG 0.28  HD
ATOM     20 H2   LEU R  38      10.583 -13.843  25.187  1.00 44.18 LIG 0.28  HD
ATOM     21 H3   LEU R  38       9.928 -12.840  26.008  1.00 44.18 LIG 0.28  HD
ENDBRANCH 17 18
BRANCH 17 22
ATOM     22  CB  LEU R  38      11.231 -11.109  25.004  1.00 42.68 LIG 0.05  C 
BRANCH 22 23
ATOM     23  CG  LEU R  38      11.255  -9.666  24.507  1.00 43.59 LIG-0.02  C 
ATOM     24  CD2 LEU R  38      12.720  -9.157  24.528  1.00 43.82 LIG 0.01  C 
ATOM     25  CD1 LEU R  38      10.326  -8.707  25.280  1.00 42.78 LIG 0.01  C 
ENDBRANCH 22 23
ENDBRANCH 17 22
ENDBRANCH 15 17
ENDBRANCH 8 13
ENDBRANCH 1 8
BRANCH 4 26
ATOM     26  C   PRO R  40      13.978 -11.900  18.620  1.00 39.48 LIG 0.24  C 
ATOM     27 O    PRO R  40      13.727 -11.799  17.359  1.00 40.12 LIG-0.27  OA
ATOM     28  N   ARG R  41      15.046 -12.601  19.006  1.00 39.52 LIG-0.35  N 
ATOM     29 H    ARG R  41      15.258 -12.673  19.836  1.00 39.52 LIG 0.16  HD
BRANCH 28 30
ATOM     30  CA  ARG R  41      15.997 -13.336  18.121  1.00 39.38 LIG 0.13  C 
BRANCH 30 31
ATOM     31  C   ARG R  41      15.844 -14.879  18.017  1.00 39.99 LIG 0.20  C 
ATOM     32 O    ARG R  41      15.529 -15.593  19.076  1.00 39.75 LIG-0.22  OA
ENDBRANCH 30 31
BRANCH 30 33
ATOM     33  CB  ARG R  41      17.469 -13.035  18.547  1.00 38.11 LIG 0.03  C 
BRANCH 33 34
ATOM     34  CG  ARG R  41      17.429 -12.500  20.016  1.00 35.63 LIG 0.02  C 
BRANCH 34 35
ATOM     35  CD  ARG R  41      18.413 -13.211  20.813  1.00 36.53 LIG 0.14  C 
BRANCH 35 36
ATOM     36  NE  ARG R  41      18.064 -13.655  22.224  1.00 36.92 LIG-0.23  N 
ATOM     37 HE   ARG R  41      18.424 -13.249  22.891  1.00 36.92 LIG 0.18  HD
ATOM     38  CZ  ARG R  41      17.181 -14.694  22.467  1.00 37.60 LIG 0.67  C 
ATOM     39  NH2 ARG R  41      16.725 -14.860  23.769  1.00 37.55 LIG-0.23  N 
ATOM     40  NH1 ARG R  41      16.597 -15.457  21.485  1.00 34.72 LIG-0.23  N 
ATOM     41 21HH ARG R  41      16.992 -14.328  24.389  1.00 37.55 LIG 0.17  HD
ATOM     42 22HH ARG R  41      16.176 -15.496  23.954  1.00 37.55 LIG 0.17  HD
ATOM     43 11HH ARG R  41      16.774 -15.301  20.657  1.00 34.72 LIG 0.17  HD
ATOM     44 12HH ARG R  41      16.056 -16.091  21.697  1.00 34.72 LIG 0.17  HD
ENDBRANCH 35 36
ENDBRANCH 34 35
ENDBRANCH 33 34
ENDBRANCH 30 33
ENDBRANCH 28 30
ENDBRANCH 4 26
TORSDOF 15
ENDMDL
MODEL 26
USER: ADFR SOLUTION from run 145
USER: SCORE 16.643656 LL:  -3.111 LR: -13.648 RR:   0.000 FEB:  -9.173
USER: RMSD 7.667023
USER: SEED 144
USER: STATUS no improvement in best 3 clusters for 5 generations
USER: GENES 17
USER: genes 0 Translation |==|  0.50734 0.52001 0.32939
USER: genes 1 Rotation |==|  0.97707 0.46330 0.55267 0.63520
USER: genes 2 Torsion [N]-C--CA-[N] |==|  0.41477
USER: genes 3 Torsion [C]-CA--CB-[CG] |==|  0.79910
USER: genes 4 Torsion [CA]-CB--CG-[OD2] |==|  0.26126
USER: genes 5 Torsion [C]-CA--N-[C] |==|  0.65325
USER: genes 6 Torsion [N]-C--CA-[N] |==|  0.81950
USER: genes 7 Torsion [C]-CA--N-[H2] |==|  0.73574
USER: genes 8 Torsion [C]-CA--CB-[CG] |==|  0.10582
USER: genes 9 Torsion [CA]-CB--CG-[CD2] |==|  0.51536
USER: genes 10 Torsion [N]-CA--C-[O] |==|  0.42526
USER: genes 11 Torsion [C]-N--CA-[CB] |==|  0.48349
USER: genes 12 Torsion [N]-CA--C-[O] |==|  0.02934
USER: genes 13 Torsion [N]-CA--CB-[CG] |==|  0.49767
USER: genes 14 Torsion [CA]-CB--CG-[CD] |==|  0.16407
USER: genes 15 Torsion [CB]-CG--CD-[NE] |==|  0.70135
USER: genes 16 Torsion [CG]-CD--NE-[HE] |==|  0.12252
ROOT
ATOM      1  C   ASP R  39      16.570 -13.610  17.912  1.00 39.81 LIG 0.24  C 
ATOM      2 O    ASP R  39      15.515 -14.343  17.810  1.00 39.68 LIG-0.27  OA
ATOM      3  N   PRO R  40      17.406 -13.515  18.903  1.00 39.27 LIG-0.34  N 
ATOM      4  CA  PRO R  40      17.189 -14.437  20.104  1.00 39.34 LIG 0.18  A 
ATOM      5  CB  PRO R  40      18.419 -14.261  20.952  1.00 38.99 LIG 0.04  A 
ATOM      6  CG  PRO R  40      19.302 -13.235  20.290  1.00 38.95 LIG 0.02  A 
ATOM      7  CD  PRO R  40      18.621 -12.710  19.024  1.00 38.89 LIG 0.13  A 
ENDROOT
BRANCH 1 8
ATOM      8  CA  ASP R  39      16.814 -12.661  16.736  1.00 40.71 LIG 0.19  C 
BRANCH 8 9
ATOM      9  CB  ASP R  39      16.062 -11.303  16.886  1.00 43.11 LIG 0.15  C 
BRANCH 9 10
ATOM     10  CG  ASP R  39      14.552 -11.423  16.682  1.00 44.48 LIG 0.17  C 
ATOM     11 OD2  ASP R  39      13.700 -11.585  17.581  1.00 43.91 LIG-0.65  OA
ATOM     12 OD1  ASP R  39      14.293 -11.394  15.417  1.00 46.24 LIG-0.65  OA
ENDBRANCH 9 10
ENDBRANCH 8 9
BRANCH 8 13
ATOM     13  N   ASP R  39      16.344 -13.370  15.571  1.00 41.53 LIG-0.34  N 
ATOM     14 H    ASP R  39      15.527 -13.624  15.658  1.00 41.53 LIG 0.16  HD
ATOM     15  C   LEU R  38      17.012 -13.623  14.504  1.00 42.61 LIG 0.25  C 
ATOM     16 O    LEU R  38      18.225 -13.316  14.406  1.00 42.97 LIG-0.27  OA
BRANCH 15 17
ATOM     17  CA  LEU R  38      16.235 -14.469  13.466  1.00 43.36 LIG 0.28  C 
BRANCH 17 18
ATOM     18  N   LEU R  38      15.975 -15.796  14.030  1.00 44.18 LIG-0.07  N 
ATOM     19 H1   LEU R  38      15.182 -16.088  13.749  1.00 44.18 LIG 0.28  HD
ATOM     20 H2   LEU R  38      16.610 -16.361  13.766  1.00 44.18 LIG 0.28  HD
ATOM     21 H3   LEU R  38      15.975 -15.746  14.918  1.00 44.18 LIG 0.28  HD
ENDBRANCH 17 18
BRANCH 17 22
ATOM     22  CB  LEU R  38      14.867 -13.911  12.944  1.00 42.68 LIG 0.05  C 
BRANCH 22 23
ATOM     23  CG  LEU R  38      14.732 -12.411  12.700  1.00 43.59 LIG-0.02  C 
ATOM     24  CD2 LEU R  38      13.259 -12.098  12.326  1.00 43.82 LIG 0.01  C 
ATOM     25  CD1 LEU R  38      15.702 -11.844  11.644  1.00 42.78 LIG 0.01  C 
ENDBRANCH 22 23
ENDBRANCH 17 22
ENDBRANCH 15 17
ENDBRANCH 8 13
ENDBRANCH 1 8
BRANCH 4 26
ATOM     26  C   PRO R  40      15.793 -14.111  20.606  1.00 39.48 LIG 0.24  C 
ATOM     27 O    PRO R  40      15.109 -15.005  21.234  1.00 40.12 LIG-0.27  OA
ATOM     28  N   ARG R  41      15.284 -12.882  20.490  1.00 39.52 LIG-0.35  N 
ATOM     29 H    ARG R  41      15.720 -12.253  20.097  1.00 39.52 LIG 0.16  HD
BRANCH 28 30
ATOM     30  CA  ARG R  41      13.957 -12.416  20.988  1.00 39.38 LIG 0.13  C 
BRANCH 30 31
ATOM     31  C   ARG R  41      12.687 -13.089  20.399  1.00 39.99 LIG 0.20  C 
ATOM     32 O    ARG R  41      12.786 -14.168  19.653  1.00 39.75 LIG-0.22  OA
ENDBRANCH 30 31
BRANCH 30 33
ATOM     33  CB  ARG R  41      13.816 -10.875  20.778  1.00 38.11 LIG 0.03  C 
BRANCH 33 34
ATOM     34  CG  ARG R  41      12.401 -10.460  21.299  1.00 35.63 LIG 0.02  C 
BRANCH 34 35
ATOM     35  CD  ARG R  41      12.283 -10.816  22.702  1.00 36.53 LIG 0.14  C 
BRANCH 35 36
ATOM     36  NE  ARG R  41      11.403 -11.984  23.113  1.00 36.92 LIG-0.23  N 
ATOM     37 HE   ARG R  41      11.440 -12.715  22.661  1.00 36.92 LIG 0.18  HD
ATOM     38  CZ  ARG R  41      10.542 -11.906  24.196  1.00 37.60 LIG 0.67  C 
ATOM     39  NH2 ARG R  41       9.975 -13.088  24.654  1.00 37.55 LIG-0.23  N 
ATOM     40  NH1 ARG R  41      10.350 -10.772  24.949  1.00 34.72 LIG-0.23  N 
ATOM     41 21HH ARG R  41      10.162 -13.833  24.267  1.00 37.55 LIG 0.17  HD
ATOM     42 22HH ARG R  41       9.436 -13.074  25.325  1.00 37.55 LIG 0.17  HD
ATOM     43 11HH ARG R  41      10.778 -10.051  24.757  1.00 34.72 LIG 0.17  HD
ATOM     44 12HH ARG R  41       9.801 -10.784  25.611  1.00 34.72 LIG 0.17  HD
ENDBRANCH 35 36
ENDBRANCH 34 35
ENDBRANCH 33 34
ENDBRANCH 30 33
ENDBRANCH 28 30
ENDBRANCH 4 26
TORSDOF 15
ENDMDL
MODEL 27
USER: ADFR SOLUTION from run 13
USER: SCORE 16.137583 LL:  -2.769 LR: -13.636 RR:   0.000 FEB:  -9.162
USER: RMSD 8.453057
USER: SEED 604075
USER: STATUS no improvement in best 4 clusters for 5 generations
USER: GENES 17
USER: genes 0 Translation |==|  0.35664 0.42839 0.46235
USER: genes 1 Rotation |==|  0.35552 0.64338 0.94567 0.59972
USER: genes 2 Torsion [N]-C--CA-[N] |==|  0.31289
USER: genes 3 Torsion [C]-CA--CB-[CG] |==|  0.51083
USER: genes 4 Torsion [CA]-CB--CG-[OD2] |==|  0.95913
USER: genes 5 Torsion [C]-CA--N-[C] |==|  0.63846
USER: genes 6 Torsion [N]-C--CA-[N] |==|  0.92143
USER: genes 7 Torsion [C]-CA--N-[H2] |==|  0.51288
USER: genes 8 Torsion [C]-CA--CB-[CG] |==|  0.19482
USER: genes 9 Torsion [CA]-CB--CG-[CD2] |==|  0.78960
USER: genes 10 Torsion [N]-CA--C-[O] |==|  0.88512
USER: genes 11 Torsion [C]-N--CA-[CB] |==|  0.12302
USER: genes 12 Torsion [N]-CA--C-[O] |==|  0.14144
USER: genes 13 Torsion [N]-CA--CB-[CG] |==|  0.25130
USER: genes 14 Torsion [CA]-CB--CG-[CD] |==|  0.47623
USER: genes 15 Torsion [CB]-CG--CD-[NE] |==|  0.27750
USER: genes 16 Torsion [CG]-CD--NE-[HE] |==|  0.22120
ROOT
ATOM      1  C   ASP R  39      12.049 -16.358  21.900  1.00 39.81 LIG 0.24  C 
ATOM      2 O    ASP R  39      12.265 -16.941  23.030  1.00 39.68 LIG-0.27  OA
ATOM      3  N   PRO R  40      11.432 -16.815  20.851  1.00 39.27 LIG-0.34  N 
ATOM      4  CA  PRO R  40      10.791 -18.201  20.952  1.00 39.34 LIG 0.18  A 
ATOM      5  CB  PRO R  40       9.975 -18.341  19.696  1.00 38.99 LIG 0.04  A 
ATOM      6  CG  PRO R  40      10.171 -17.096  18.869  1.00 38.95 LIG 0.02  A 
ATOM      7  CD  PRO R  40      11.155 -16.159  19.574  1.00 38.89 LIG 0.13  A 
ENDROOT
BRANCH 1 8
ATOM      8  CA  ASP R  39      12.687 -14.975  21.754  1.00 40.71 LIG 0.19  C 
BRANCH 8 9
ATOM      9  CB  ASP R  39      14.196 -14.959  22.148  1.00 43.11 LIG 0.15  C 
BRANCH 9 10
ATOM     10  CG  ASP R  39      14.819 -13.564  22.096  1.00 44.48 LIG 0.17  C 
ATOM     11 OD2  ASP R  39      14.325 -12.559  21.543  1.00 43.91 LIG-0.65  OA
ATOM     12 OD1  ASP R  39      15.979 -13.597  22.663  1.00 46.24 LIG-0.65  OA
ENDBRANCH 9 10
ENDBRANCH 8 9
BRANCH 8 13
ATOM     13  N   ASP R  39      11.930 -14.113  22.627  1.00 41.53 LIG-0.34  N 
ATOM     14 H    ASP R  39      11.848 -14.446  23.416  1.00 41.53 LIG 0.16  HD
ATOM     15  C   LEU R  38      11.416 -12.975  22.327  1.00 42.61 LIG 0.25  C 
ATOM     16 O    LEU R  38      11.475 -12.521  21.158  1.00 42.97 LIG-0.27  OA
BRANCH 15 17
ATOM     17  CA  LEU R  38      10.600 -12.334  23.476  1.00 43.36 LIG 0.28  C 
BRANCH 17 18
ATOM     18  N   LEU R  38      10.056 -13.397  24.325  1.00 44.18 LIG-0.07  N 
ATOM     19 H1   LEU R  38      10.725 -13.835  24.717  1.00 44.18 LIG 0.28  HD
ATOM     20 H2   LEU R  38       9.531 -13.039  24.948  1.00 44.18 LIG 0.28  HD
ATOM     21 H3   LEU R  38       9.583 -13.962  23.828  1.00 44.18 LIG 0.28  HD
ENDBRANCH 17 18
BRANCH 17 22
ATOM     22  CB  LEU R  38      11.334 -11.318  24.417  1.00 42.68 LIG 0.05  C 
BRANCH 22 23
ATOM     23  CG  LEU R  38      11.730  -9.955  23.857  1.00 43.59 LIG-0.02  C 
ATOM     24  CD2 LEU R  38      12.974 -10.132  22.948  1.00 43.82 LIG 0.01  C 
ATOM     25  CD1 LEU R  38      11.977  -8.871  24.927  1.00 42.78 LIG 0.01  C 
ENDBRANCH 22 23
ENDBRANCH 17 22
ENDBRANCH 15 17
ENDBRANCH 8 13
ENDBRANCH 1 8
BRANCH 4 26
ATOM     26  C   PRO R  40      11.934 -19.140  21.297  1.00 39.48 LIG 0.24  C 
ATOM     27 O    PRO R  40      13.078 -19.002  20.718  1.00 40.12 LIG-0.27  OA
ATOM     28  N   ARG R  41      11.810 -20.060  22.257  1.00 39.52 LIG-0.35  N 
ATOM     29 H    ARG R  41      11.069 -20.166  22.681  1.00 39.52 LIG 0.16  HD
BRANCH 28 30
ATOM     30  CA  ARG R  41      12.866 -21.001  22.730  1.00 39.38 LIG 0.13  C 
BRANCH 30 31
ATOM     31  C   ARG R  41      12.597 -21.791  24.041  1.00 39.99 LIG 0.20  C 
ATOM     32 O    ARG R  41      11.475 -22.460  24.201  1.00 39.75 LIG-0.22  OA
ENDBRANCH 30 31
BRANCH 30 33
ATOM     33  CB  ARG R  41      14.221 -20.244  22.905  1.00 38.11 LIG 0.03  C 
BRANCH 33 34
ATOM     34  CG  ARG R  41      14.275 -19.716  24.375  1.00 35.63 LIG 0.02  C 
BRANCH 34 35
ATOM     35  CD  ARG R  41      15.598 -19.183  24.645  1.00 36.53 LIG 0.14  C 
BRANCH 35 36
ATOM     36  NE  ARG R  41      15.834 -17.683  24.591  1.00 36.92 LIG-0.23  N 
ATOM     37 HE   ARG R  41      15.601 -17.199  25.263  1.00 36.92 LIG 0.18  HD
ATOM     38  CZ  ARG R  41      16.413 -17.072  23.492  1.00 37.60 LIG 0.67  C 
ATOM     39  NH2 ARG R  41      16.824 -15.752  23.630  1.00 37.55 LIG-0.23  N 
ATOM     40  NH1 ARG R  41      16.764 -17.731  22.338  1.00 34.72 LIG-0.23  N 
ATOM     41 21HH ARG R  41      16.714 -15.344  24.379  1.00 37.55 LIG 0.17  HD
ATOM     42 22HH ARG R  41      17.187 -15.343  22.966  1.00 37.55 LIG 0.17  HD
ATOM     43 11HH ARG R  41      16.626 -18.577  22.268  1.00 34.72 LIG 0.17  HD
ATOM     44 12HH ARG R  41      17.121 -17.297  21.687  1.00 34.72 LIG 0.17  HD
ENDBRANCH 35 36
ENDBRANCH 34 35
ENDBRANCH 33 34
ENDBRANCH 30 33
ENDBRANCH 28 30
ENDBRANCH 4 26
TORSDOF 15
ENDMDL
MODEL 28
USER: ADFR SOLUTION from run 142
USER: SCORE 16.268350 LL:  -2.827 LR: -13.567 RR:   0.000 FEB:  -9.093
USER: RMSD 3.455294
USER: SEED 141
USER: STATUS no improvement in best 7 clusters for 5 generations
USER: GENES 17
USER: genes 0 Translation |==|  0.46460 0.51847 0.45076
USER: genes 1 Rotation |==|  0.51995 0.75664 0.52951 0.92763
USER: genes 2 Torsion [N]-C--CA-[N] |==|  0.42492
USER: genes 3 Torsion [C]-CA--CB-[CG] |==|  0.65966
USER: genes 4 Torsion [CA]-CB--CG-[OD2] |==|  0.88830
USER: genes 5 Torsion [C]-CA--N-[C] |==|  0.73424
USER: genes 6 Torsion [N]-C--CA-[N] |==|  0.11761
USER: genes 7 Torsion [C]-CA--N-[H2] |==|  0.63443
USER: genes 8 Torsion [C]-CA--CB-[CG] |==|  0.30406
USER: genes 9 Torsion [CA]-CB--CG-[CD2] |==|  0.58634
USER: genes 10 Torsion [N]-CA--C-[O] |==|  0.82683
USER: genes 11 Torsion [C]-N--CA-[CB] |==|  0.16378
USER: genes 12 Torsion [N]-CA--C-[O] |==|  0.01456
USER: genes 13 Torsion [N]-CA--CB-[CG] |==|  0.47770
USER: genes 14 Torsion [CA]-CB--CG-[CD] |==|  0.63743
USER: genes 15 Torsion [CB]-CG--CD-[NE] |==|  0.67667
USER: genes 16 Torsion [CG]-CD--NE-[HE] |==|  0.00086
ROOT
ATOM      1  C   ASP R  39      15.288 -13.656  21.553  1.00 39.81 LIG 0.24  C 
ATOM      2 O    ASP R  39      15.051 -13.031  22.655  1.00 39.68 LIG-0.27  OA
ATOM      3  N   PRO R  40      15.104 -13.254  20.330  1.00 39.27 LIG-0.34  N 
ATOM      4  CA  PRO R  40      14.611 -11.820  20.121  1.00 39.34 LIG 0.18  A 
ATOM      5  CB  PRO R  40      14.723 -11.586  18.640  1.00 38.99 LIG 0.04  A 
ATOM      6  CG  PRO R  40      15.219 -12.858  18.001  1.00 38.95 LIG 0.02  A 
ATOM      7  CD  PRO R  40      15.393 -13.939  19.071  1.00 38.89 LIG 0.13  A 
ENDROOT
BRANCH 1 8
ATOM      8  CA  ASP R  39      15.768 -15.099  21.719  1.00 40.71 LIG 0.19  C 
BRANCH 8 9
ATOM      9  CB  ASP R  39      14.596 -16.128  21.756  1.00 43.11 LIG 0.15  C 
BRANCH 9 10
ATOM     10  CG  ASP R  39      14.576 -16.974  23.028  1.00 44.48 LIG 0.17  C 
ATOM     11 OD2  ASP R  39      15.573 -17.456  23.607  1.00 43.91 LIG-0.65  OA
ATOM     12 OD1  ASP R  39      13.350 -17.174  23.384  1.00 46.24 LIG-0.65  OA
ENDBRANCH 9 10
ENDBRANCH 8 9
BRANCH 8 13
ATOM     13  N   ASP R  39      16.494 -15.118  22.965  1.00 41.53 LIG-0.34  N 
ATOM     14 H    ASP R  39      15.970 -15.224  23.640  1.00 41.53 LIG 0.16  HD
ATOM     15  C   LEU R  38      17.763 -14.997  23.118  1.00 42.61 LIG 0.25  C 
ATOM     16 O    LEU R  38      18.518 -14.771  22.141  1.00 42.97 LIG-0.27  OA
BRANCH 15 17
ATOM     17  CA  LEU R  38      18.217 -14.988  24.598  1.00 43.36 LIG 0.28  C 
BRANCH 17 18
ATOM     18  N   LEU R  38      17.475 -16.015  25.332  1.00 44.18 LIG-0.07  N 
ATOM     19 H1   LEU R  38      18.020 -16.690  25.531  1.00 44.18 LIG 0.28  HD
ATOM     20 H2   LEU R  38      17.147 -15.666  26.082  1.00 44.18 LIG 0.28  HD
ATOM     21 H3   LEU R  38      16.805 -16.314  24.828  1.00 44.18 LIG 0.28  HD
ENDBRANCH 17 18
BRANCH 17 22
ATOM     22  CB  LEU R  38      19.739 -15.213  24.897  1.00 42.68 LIG 0.05  C 
BRANCH 22 23
ATOM     23  CG  LEU R  38      20.568 -14.037  25.406  1.00 43.59 LIG-0.02  C 
ATOM     24  CD2 LEU R  38      22.026 -14.201  24.902  1.00 43.82 LIG 0.01  C 
ATOM     25  CD1 LEU R  38      20.531 -13.842  26.936  1.00 42.78 LIG 0.01  C 
ENDBRANCH 22 23
ENDBRANCH 17 22
ENDBRANCH 15 17
ENDBRANCH 8 13
ENDBRANCH 1 8
BRANCH 4 26
ATOM     26  C   PRO R  40      13.291 -11.744  20.867  1.00 39.48 LIG 0.24  C 
ATOM     27 O    PRO R  40      12.304 -12.491  20.507  1.00 40.12 LIG-0.27  OA
ATOM     28  N   ARG R  41      13.150 -10.979  21.952  1.00 39.52 LIG-0.35  N 
ATOM     29 H    ARG R  41      13.794 -10.484  22.236  1.00 39.52 LIG 0.16  HD
BRANCH 28 30
ATOM     30  CA  ARG R  41      11.932 -10.857  22.805  1.00 39.38 LIG 0.13  C 
BRANCH 30 31
ATOM     31  C   ARG R  41      11.975  -9.850  23.988  1.00 39.99 LIG 0.20  C 
ATOM     32 O    ARG R  41      13.014  -9.061  24.158  1.00 39.75 LIG-0.22  OA
ENDBRANCH 30 31
BRANCH 30 33
ATOM     33  CB  ARG R  41      11.543 -12.253  23.387  1.00 38.11 LIG 0.03  C 
BRANCH 33 34
ATOM     34  CG  ARG R  41      10.397 -12.023  24.426  1.00 35.63 LIG 0.02  C 
BRANCH 34 35
ATOM     35  CD  ARG R  41      10.725 -12.710  25.663  1.00 36.53 LIG 0.14  C 
BRANCH 35 36
ATOM     36  NE  ARG R  41       9.844 -13.847  26.151  1.00 36.92 LIG-0.23  N 
ATOM     37 HE   ARG R  41       9.159 -14.076  25.684  1.00 36.92 LIG 0.18  HD
ATOM     38  CZ  ARG R  41      10.113 -14.528  27.327  1.00 37.60 LIG 0.67  C 
ATOM     39  NH2 ARG R  41       9.417 -15.707  27.562  1.00 37.55 LIG-0.23  N 
ATOM     40  NH1 ARG R  41      11.137 -14.210  28.186  1.00 34.72 LIG-0.23  N 
ATOM     41 21HH ARG R  41       8.843 -15.989  26.987  1.00 37.55 LIG 0.17  HD
ATOM     42 22HH ARG R  41       9.560 -16.154  28.283  1.00 37.55 LIG 0.17  HD
ATOM     43 11HH ARG R  41      11.659 -13.551  28.007  1.00 34.72 LIG 0.17  HD
ATOM     44 12HH ARG R  41      11.255 -14.670  28.904  1.00 34.72 LIG 0.17  HD
ENDBRANCH 35 36
ENDBRANCH 34 35
ENDBRANCH 33 34
ENDBRANCH 30 33
ENDBRANCH 28 30
ENDBRANCH 4 26
TORSDOF 15
ENDMDL
MODEL 29
USER: ADFR SOLUTION from run 26
USER: SCORE 15.984641 LL:  -2.501 LR: -13.555 RR:   0.000 FEB:  -9.081
USER: RMSD 10.596816
USER: SEED 25
USER: STATUS no improvement in best 8 clusters for 5 generations
USER: GENES 17
USER: genes 0 Translation |==|  0.48304 0.56543 0.24822
USER: genes 1 Rotation |==|  0.42720 0.50093 0.99132 0.55749
USER: genes 2 Torsion [N]-C--CA-[N] |==|  0.34879
USER: genes 3 Torsion [C]-CA--CB-[CG] |==|  0.06542
USER: genes 4 Torsion [CA]-CB--CG-[OD2] |==|  0.22390
USER: genes 5 Torsion [C]-CA--N-[C] |==|  0.82969
USER: genes 6 Torsion [N]-C--CA-[N] |==|  0.07261
USER: genes 7 Torsion [C]-CA--N-[H2] |==|  0.58314
USER: genes 8 Torsion [C]-CA--CB-[CG] |==|  0.42945
USER: genes 9 Torsion [CA]-CB--CG-[CD2] |==|  0.77529
USER: genes 10 Torsion [N]-CA--C-[O] |==|  0.25863
USER: genes 11 Torsion [C]-N--CA-[CB] |==|  0.59383
USER: genes 12 Torsion [N]-CA--C-[O] |==|  0.56978
USER: genes 13 Torsion [N]-CA--CB-[CG] |==|  0.02349
USER: genes 14 Torsion [CA]-CB--CG-[CD] |==|  0.65574
USER: genes 15 Torsion [CB]-CG--CD-[NE] |==|  0.33965
USER: genes 16 Torsion [CG]-CD--NE-[HE] |==|  0.24036
ROOT
ATOM      1  C   ASP R  39      15.841 -12.247  15.476  1.00 39.81 LIG 0.24  C 
ATOM      2 O    ASP R  39      16.495 -13.212  16.026  1.00 39.68 LIG-0.27  OA
ATOM      3  N   PRO R  40      15.028 -12.285  14.463  1.00 39.27 LIG-0.34  N 
ATOM      4  CA  PRO R  40      14.717 -13.654  13.855  1.00 39.34 LIG 0.18  A 
ATOM      5  CB  PRO R  40      13.596 -13.399  12.884  1.00 38.99 LIG 0.04  A 
ATOM      6  CG  PRO R  40      13.297 -11.921  12.892  1.00 38.95 LIG 0.02  A 
ATOM      7  CD  PRO R  40      14.259 -11.206  13.844  1.00 38.89 LIG 0.13  A 
ENDROOT
BRANCH 1 8
ATOM      8  CA  ASP R  39      16.137 -10.858  16.047  1.00 40.71 LIG 0.19  C 
BRANCH 8 9
ATOM      9  CB  ASP R  39      17.623 -10.427  15.851  1.00 43.11 LIG 0.15  C 
BRANCH 9 10
ATOM     10  CG  ASP R  39      18.314 -11.146  14.693  1.00 44.48 LIG 0.17  C 
ATOM     11 OD2  ASP R  39      18.216 -10.853  13.482  1.00 43.91 LIG-0.65  OA
ATOM     12 OD1  ASP R  39      18.973 -12.156  15.155  1.00 46.24 LIG-0.65  OA
ENDBRANCH 9 10
ENDBRANCH 8 9
BRANCH 8 13
ATOM     13  N   ASP R  39      15.820 -10.948  17.451  1.00 41.53 LIG-0.34  N 
ATOM     14 H    ASP R  39      16.508 -10.796  17.946  1.00 41.53 LIG 0.16  HD
ATOM     15  C   LEU R  38      14.674 -11.215  17.964  1.00 42.61 LIG 0.25  C 
ATOM     16 O    LEU R  38      13.689 -11.506  17.243  1.00 42.97 LIG-0.27  OA
BRANCH 15 17
ATOM     17  CA  LEU R  38      14.687 -11.307  19.510  1.00 43.36 LIG 0.28  C 
BRANCH 17 18
ATOM     18  N   LEU R  38      15.786 -10.488  20.027  1.00 44.18 LIG-0.07  N 
ATOM     19 H1   LEU R  38      15.495  -9.659  20.174  1.00 44.18 LIG 0.28  HD
ATOM     20 H2   LEU R  38      16.083 -10.837  20.789  1.00 44.18 LIG 0.28  HD
ATOM     21 H3   LEU R  38      16.447 -10.468  19.433  1.00 44.18 LIG 0.28  HD
ENDBRANCH 17 18
BRANCH 17 22
ATOM     22  CB  LEU R  38      13.390 -10.881  20.278  1.00 42.68 LIG 0.05  C 
BRANCH 22 23
ATOM     23  CG  LEU R  38      13.127 -11.475  21.660  1.00 43.59 LIG-0.02  C 
ATOM     24  CD2 LEU R  38      12.517 -12.890  21.485  1.00 43.82 LIG 0.01  C 
ATOM     25  CD1 LEU R  38      12.245 -10.602  22.575  1.00 42.78 LIG 0.01  C 
ENDBRANCH 22 23
ENDBRANCH 17 22
ENDBRANCH 15 17
ENDBRANCH 8 13
ENDBRANCH 1 8
BRANCH 4 26
ATOM     26  C   PRO R  40      16.062 -14.212  13.426  1.00 39.48 LIG 0.24  C 
ATOM     27 O    PRO R  40      16.729 -14.972  14.226  1.00 40.12 LIG-0.27  OA
ATOM     28  N   ARG R  41      16.538 -14.005  12.195  1.00 39.52 LIG-0.35  N 
ATOM     29 H    ARG R  41      16.111 -13.522  11.626  1.00 39.52 LIG 0.16  HD
BRANCH 28 30
ATOM     30  CA  ARG R  41      17.811 -14.540  11.631  1.00 39.38 LIG 0.13  C 
BRANCH 30 31
ATOM     31  C   ARG R  41      18.926 -14.959  12.629  1.00 39.99 LIG 0.20  C 
ATOM     32 O    ARG R  41      20.188 -14.964  12.260  1.00 39.75 LIG-0.22  OA
ENDBRANCH 30 31
BRANCH 30 33
ATOM     33  CB  ARG R  41      18.432 -13.509  10.635  1.00 38.11 LIG 0.03  C 
BRANCH 33 34
ATOM     34  CG  ARG R  41      17.603 -12.189  10.753  1.00 35.63 LIG 0.02  C 
BRANCH 34 35
ATOM     35  CD  ARG R  41      17.094 -11.824   9.443  1.00 36.53 LIG 0.14  C 
BRANCH 35 36
ATOM     36  NE  ARG R  41      15.598 -11.662   9.232  1.00 36.92 LIG-0.23  N 
ATOM     37 HE   ARG R  41      15.232 -10.901   9.400  1.00 36.92 LIG 0.18  HD
ATOM     38  CZ  ARG R  41      14.806 -12.703   8.778  1.00 37.60 LIG 0.67  C 
ATOM     39  NH2 ARG R  41      13.513 -12.398   8.370  1.00 37.55 LIG-0.23  N 
ATOM     40  NH1 ARG R  41      15.266 -13.976   8.541  1.00 34.72 LIG-0.23  N 
ATOM     41 21HH ARG R  41      13.231 -11.587   8.406  1.00 37.55 LIG 0.17  HD
ATOM     42 22HH ARG R  41      12.995 -13.022   8.083  1.00 37.55 LIG 0.17  HD
ATOM     43 11HH ARG R  41      16.094 -14.166   8.676  1.00 34.72 LIG 0.17  HD
ATOM     44 12HH ARG R  41      14.725 -14.583   8.259  1.00 34.72 LIG 0.17  HD
ENDBRANCH 35 36
ENDBRANCH 34 35
ENDBRANCH 33 34
ENDBRANCH 30 33
ENDBRANCH 28 30
ENDBRANCH 4 26
TORSDOF 15
ENDMDL
MODEL 30
USER: ADFR SOLUTION from run 43
USER: SCORE 16.270736 LL:  -2.791 LR: -13.543 RR:   0.000 FEB:  -9.069
USER: RMSD 2.550284
USER: SEED 42
USER: STATUS no improvement in best 8 clusters for 5 generations
USER: GENES 17
USER: genes 0 Translation |==|  0.49500 0.50764 0.45217
USER: genes 1 Rotation |==|  0.52152 0.71952 0.46237 0.94714
USER: genes 2 Torsion [N]-C--CA-[N] |==|  0.43583
USER: genes 3 Torsion [C]-CA--CB-[CG] |==|  0.61414
USER: genes 4 Torsion [CA]-CB--CG-[OD2] |==|  0.93690
USER: genes 5 Torsion [C]-CA--N-[C] |==|  0.76667
USER: genes 6 Torsion [N]-C--CA-[N] |==|  0.14028
USER: genes 7 Torsion [C]-CA--N-[H2] |==|  0.30063
USER: genes 8 Torsion [C]-CA--CB-[CG] |==|  0.22164
USER: genes 9 Torsion [CA]-CB--CG-[CD2] |==|  0.69693
USER: genes 10 Torsion [N]-CA--C-[O] |==|  0.45488
USER: genes 11 Torsion [C]-N--CA-[CB] |==|  0.62634
USER: genes 12 Torsion [N]-CA--C-[O] |==|  0.84700
USER: genes 13 Torsion [N]-CA--CB-[CG] |==|  0.45771
USER: genes 14 Torsion [CA]-CB--CG-[CD] |==|  0.71683
USER: genes 15 Torsion [CB]-CG--CD-[NE] |==|  0.43760
USER: genes 16 Torsion [CG]-CD--NE-[HE] |==|  0.13440
ROOT
ATOM      1  C   ASP R  39      16.200 -13.981  21.595  1.00 39.81 LIG 0.24  C 
ATOM      2 O    ASP R  39      15.977 -13.166  22.568  1.00 39.68 LIG-0.27  OA
ATOM      3  N   PRO R  40      16.294 -13.728  20.323  1.00 39.27 LIG-0.34  N 
ATOM      4  CA  PRO R  40      16.209 -12.265  19.883  1.00 39.34 LIG 0.18  A 
ATOM      5  CB  PRO R  40      16.580 -12.279  18.425  1.00 38.99 LIG 0.04  A 
ATOM      6  CG  PRO R  40      16.826 -13.710  18.018  1.00 38.95 LIG 0.02  A 
ATOM      7  CD  PRO R  40      16.573 -14.635  19.211  1.00 38.89 LIG 0.13  A 
ENDROOT
BRANCH 1 8
ATOM      8  CA  ASP R  39      16.276 -15.456  21.993  1.00 40.71 LIG 0.19  C 
BRANCH 8 9
ATOM      9  CB  ASP R  39      14.910 -16.195  21.846  1.00 43.11 LIG 0.15  C 
BRANCH 9 10
ATOM     10  CG  ASP R  39      14.615 -17.154  22.999  1.00 44.48 LIG 0.17  C 
ATOM     11 OD2  ASP R  39      15.461 -17.675  23.757  1.00 43.91 LIG-0.65  OA
ATOM     12 OD1  ASP R  39      13.347 -17.398  23.032  1.00 46.24 LIG-0.65  OA
ENDBRANCH 9 10
ENDBRANCH 8 9
BRANCH 8 13
ATOM     13  N   ASP R  39      16.703 -15.458  23.370  1.00 41.53 LIG-0.34  N 
ATOM     14 H    ASP R  39      16.038 -15.518  23.913  1.00 41.53 LIG 0.16  HD
ATOM     15  C   LEU R  38      17.911 -15.383  23.800  1.00 42.61 LIG 0.25  C 
ATOM     16 O    LEU R  38      18.875 -15.224  23.012  1.00 42.97 LIG-0.27  OA
BRANCH 15 17
ATOM     17  CA  LEU R  38      18.024 -15.337  25.343  1.00 43.36 LIG 0.28  C 
BRANCH 17 18
ATOM     18  N   LEU R  38      17.238 -16.434  25.912  1.00 44.18 LIG-0.07  N 
ATOM     19 H1   LEU R  38      16.725 -16.792  25.278  1.00 44.18 LIG 0.28  HD
ATOM     20 H2   LEU R  38      17.786 -17.055  26.237  1.00 44.18 LIG 0.28  HD
ATOM     21 H3   LEU R  38      16.724 -16.122  26.568  1.00 44.18 LIG 0.28  HD
ENDBRANCH 17 18
BRANCH 17 22
ATOM     22  CB  LEU R  38      19.456 -15.417  25.975  1.00 42.68 LIG 0.05  C 
BRANCH 22 23
ATOM     23  CG  LEU R  38      20.315 -14.156  26.007  1.00 43.59 LIG-0.02  C 
ATOM     24  CD2 LEU R  38      21.476 -14.318  24.992  1.00 43.82 LIG 0.01  C 
ATOM     25  CD1 LEU R  38      20.850 -13.782  27.404  1.00 42.78 LIG 0.01  C 
ENDBRANCH 22 23
ENDBRANCH 17 22
ENDBRANCH 15 17
ENDBRANCH 8 13
ENDBRANCH 1 8
BRANCH 4 26
ATOM     26  C   PRO R  40      14.859 -11.779  20.382  1.00 39.48 LIG 0.24  C 
ATOM     27 O    PRO R  40      14.614 -10.515  20.448  1.00 40.12 LIG-0.27  OA
ATOM     28  N   ARG R  41      13.879 -12.637  20.674  1.00 39.52 LIG-0.35  N 
ATOM     29 H    ARG R  41      13.998 -13.487  20.620  1.00 39.52 LIG 0.16  HD
BRANCH 28 30
ATOM     30  CA  ARG R  41      12.496 -12.293  21.116  1.00 39.38 LIG 0.13  C 
BRANCH 30 31
ATOM     31  C   ARG R  41      12.208 -10.816  21.504  1.00 39.99 LIG 0.20  C 
ATOM     32 O    ARG R  41      12.934 -10.210  22.418  1.00 39.75 LIG-0.22  OA
ENDBRANCH 30 31
BRANCH 30 33
ATOM     33  CB  ARG R  41      12.081 -13.189  22.326  1.00 38.11 LIG 0.03  C 
BRANCH 33 34
ATOM     34  CG  ARG R  41      10.822 -12.533  22.982  1.00 35.63 LIG 0.02  C 
BRANCH 34 35
ATOM     35  CD  ARG R  41      11.222 -11.820  24.182  1.00 36.53 LIG 0.14  C 
BRANCH 35 36
ATOM     36  NE  ARG R  41      10.347 -10.701  24.722  1.00 36.92 LIG-0.23  N 
ATOM     37 HE   ARG R  41       9.502 -10.836  24.812  1.00 36.92 LIG 0.18  HD
ATOM     38  CZ  ARG R  41      10.871  -9.468  25.076  1.00 37.60 LIG 0.67  C 
ATOM     39  NH2 ARG R  41      10.055  -8.604  25.795  1.00 37.55 LIG-0.23  N 
ATOM     40  NH1 ARG R  41      12.189  -9.115  24.915  1.00 34.72 LIG-0.23  N 
ATOM     41 21HH ARG R  41       9.256  -8.842  26.004  1.00 37.55 LIG 0.17  HD
ATOM     42 22HH ARG R  41      10.350  -7.831  26.030  1.00 37.55 LIG 0.17  HD
ATOM     43 11HH ARG R  41      12.746  -9.676  24.576  1.00 34.72 LIG 0.17  HD
ATOM     44 12HH ARG R  41      12.457  -8.333  25.154  1.00 34.72 LIG 0.17  HD
ENDBRANCH 35 36
ENDBRANCH 34 35
ENDBRANCH 33 34
ENDBRANCH 30 33
ENDBRANCH 28 30
ENDBRANCH 4 26
TORSDOF 15
ENDMDL
MODEL 31
USER: ADFR SOLUTION from run 142
USER: SCORE 15.431693 LL:  -2.269 LR: -13.498 RR:   0.000 FEB:  -9.023
USER: RMSD 7.753228
USER: SEED 141
USER: STATUS no improvement in best 7 clusters for 5 generations
USER: GENES 17
USER: genes 0 Translation |==|  0.49831 0.52530 0.31863
USER: genes 1 Rotation |==|  0.94146 0.46712 0.44886 0.72676
USER: genes 2 Torsion [N]-C--CA-[N] |==|  0.27783
USER: genes 3 Torsion [C]-CA--CB-[CG] |==|  0.24661
USER: genes 4 Torsion [CA]-CB--CG-[OD2] |==|  0.13797
USER: genes 5 Torsion [C]-CA--N-[C] |==|  0.66463
USER: genes 6 Torsion [N]-C--CA-[N] |==|  0.11362
USER: genes 7 Torsion [C]-CA--N-[H2] |==|  0.69161
USER: genes 8 Torsion [C]-CA--CB-[CG] |==|  0.11716
USER: genes 9 Torsion [CA]-CB--CG-[CD2] |==|  0.64742
USER: genes 10 Torsion [N]-CA--C-[O] |==|  0.80734
USER: genes 11 Torsion [C]-N--CA-[CB] |==|  0.18119
USER: genes 12 Torsion [N]-CA--C-[O] |==|  0.12861
USER: genes 13 Torsion [N]-CA--CB-[CG] |==|  0.59373
USER: genes 14 Torsion [CA]-CB--CG-[CD] |==|  0.70435
USER: genes 15 Torsion [CB]-CG--CD-[NE] |==|  0.33987
USER: genes 16 Torsion [CG]-CD--NE-[HE] |==|  0.18218
ROOT
ATOM      1  C   ASP R  39      16.299 -13.451  17.589  1.00 39.81 LIG 0.24  C 
ATOM      2 O    ASP R  39      15.253 -13.934  18.166  1.00 39.68 LIG-0.27  OA
ATOM      3  N   PRO R  40      17.480 -13.231  18.088  1.00 39.27 LIG-0.34  N 
ATOM      4  CA  PRO R  40      17.728 -13.660  19.536  1.00 39.34 LIG 0.18  A 
ATOM      5  CB  PRO R  40      19.210 -13.495  19.737  1.00 38.99 LIG 0.04  A 
ATOM      6  CG  PRO R  40      19.797 -12.944  18.463  1.00 38.95 LIG 0.02  A 
ATOM      7  CD  PRO R  40      18.683 -12.710  17.441  1.00 38.89 LIG 0.13  A 
ENDROOT
BRANCH 1 8
ATOM      8  CA  ASP R  39      16.087 -12.996  16.144  1.00 40.71 LIG 0.19  C 
BRANCH 8 9
ATOM      9  CB  ASP R  39      14.690 -12.343  15.912  1.00 43.11 LIG 0.15  C 
BRANCH 9 10
ATOM     10  CG  ASP R  39      14.676 -10.837  16.169  1.00 44.48 LIG 0.17  C 
ATOM     11 OD2  ASP R  39      15.486 -10.005  15.708  1.00 43.91 LIG-0.65  OA
ATOM     12 OD1  ASP R  39      13.725 -10.558  16.997  1.00 46.24 LIG-0.65  OA
ENDBRANCH 9 10
ENDBRANCH 8 9
BRANCH 8 13
ATOM     13  N   ASP R  39      16.224 -14.189  15.345  1.00 41.53 LIG-0.34  N 
ATOM     14 H    ASP R  39      15.651 -14.791  15.566  1.00 41.53 LIG 0.16  HD
ATOM     15  C   LEU R  38      17.075 -14.391  14.405  1.00 42.61 LIG 0.25  C 
ATOM     16 O    LEU R  38      17.958 -13.541  14.130  1.00 42.97 LIG-0.27  OA
BRANCH 15 17
ATOM     17  CA  LEU R  38      17.005 -15.810  13.791  1.00 43.36 LIG 0.28  C 
BRANCH 17 18
ATOM     18  N   LEU R  38      15.600 -16.199  13.647  1.00 44.18 LIG-0.07  N 
ATOM     19 H1   LEU R  38      15.454 -16.482  12.816  1.00 44.18 LIG 0.28  HD
ATOM     20 H2   LEU R  38      15.412 -16.853  14.220  1.00 44.18 LIG 0.28  HD
ATOM     21 H3   LEU R  38      15.079 -15.498  13.818  1.00 44.18 LIG 0.28  HD
ENDBRANCH 17 18
BRANCH 17 22
ATOM     22  CB  LEU R  38      17.694 -16.042  12.403  1.00 42.68 LIG 0.05  C 
BRANCH 22 23
ATOM     23  CG  LEU R  38      19.064 -15.418  12.152  1.00 43.59 LIG-0.02  C 
ATOM     24  CD2 LEU R  38      19.002 -14.594  10.838  1.00 43.82 LIG 0.01  C 
ATOM     25  CD1 LEU R  38      20.231 -16.427  12.116  1.00 42.78 LIG 0.01  C 
ENDBRANCH 22 23
ENDBRANCH 17 22
ENDBRANCH 15 17
ENDBRANCH 8 13
ENDBRANCH 1 8
BRANCH 4 26
ATOM     26  C   PRO R  40      16.700 -12.901  20.355  1.00 39.48 LIG 0.24  C 
ATOM     27 O    PRO R  40      16.801 -11.622  20.492  1.00 40.12 LIG-0.27  OA
ATOM     28  N   ARG R  41      15.633 -13.516  20.871  1.00 39.52 LIG-0.35  N 
ATOM     29 H    ARG R  41      15.519 -14.364  20.782  1.00 39.52 LIG 0.16  HD
BRANCH 28 30
ATOM     30  CA  ARG R  41      14.525 -12.882  21.643  1.00 39.38 LIG 0.13  C 
BRANCH 30 31
ATOM     31  C   ARG R  41      13.495 -13.818  22.332  1.00 39.99 LIG 0.20  C 
ATOM     32 O    ARG R  41      13.897 -14.858  23.030  1.00 39.75 LIG-0.22  OA
ENDBRANCH 30 31
BRANCH 30 33
ATOM     33  CB  ARG R  41      13.730 -11.896  20.729  1.00 38.11 LIG 0.03  C 
BRANCH 33 34
ATOM     34  CG  ARG R  41      13.250 -10.709  21.627  1.00 35.63 LIG 0.02  C 
BRANCH 34 35
ATOM     35  CD  ARG R  41      11.822 -10.831  21.860  1.00 36.53 LIG 0.14  C 
BRANCH 35 36
ATOM     36  NE  ARG R  41      11.293 -10.915  23.282  1.00 36.92 LIG-0.23  N 
ATOM     37 HE   ARG R  41      11.383 -10.236  23.803  1.00 36.92 LIG 0.18  HD
ATOM     38  CZ  ARG R  41      10.670 -12.053  23.766  1.00 37.60 LIG 0.67  C 
ATOM     39  NH2 ARG R  41       9.995 -11.953  24.976  1.00 37.55 LIG-0.23  N 
ATOM     40  NH1 ARG R  41      10.529 -13.219  23.051  1.00 34.72 LIG-0.23  N 
ATOM     41 21HH ARG R  41       9.975 -11.204  25.396  1.00 37.55 LIG 0.17  HD
ATOM     42 22HH ARG R  41       9.597 -12.642  25.304  1.00 37.55 LIG 0.17  HD
ATOM     43 11HH ARG R  41      10.839 -13.272  22.251  1.00 34.72 LIG 0.17  HD
ATOM     44 12HH ARG R  41      10.132 -13.895  23.405  1.00 34.72 LIG 0.17  HD
ENDBRANCH 35 36
ENDBRANCH 34 35
ENDBRANCH 33 34
ENDBRANCH 30 33
ENDBRANCH 28 30
ENDBRANCH 4 26
TORSDOF 15
ENDMDL
MODEL 32
USER: ADFR SOLUTION from run 46
USER: SCORE 15.513563 LL:  -2.308 LR: -13.472 RR:   0.000 FEB:  -8.998
USER: RMSD 8.852557
USER: SEED 45
USER: STATUS no improvement in best 10 clusters for 5 generations
USER: GENES 17
USER: genes 0 Translation |==|  0.35576 0.43373 0.46290
USER: genes 1 Rotation |==|  0.35448 0.63569 0.94701 0.60292
USER: genes 2 Torsion [N]-C--CA-[N] |==|  0.31322
USER: genes 3 Torsion [C]-CA--CB-[CG] |==|  0.49159
USER: genes 4 Torsion [CA]-CB--CG-[OD2] |==|  0.95880
USER: genes 5 Torsion [C]-CA--N-[C] |==|  0.63690
USER: genes 6 Torsion [N]-C--CA-[N] |==|  0.92789
USER: genes 7 Torsion [C]-CA--N-[H2] |==|  0.83040
USER: genes 8 Torsion [C]-CA--CB-[CG] |==|  0.18391
USER: genes 9 Torsion [CA]-CB--CG-[CD2] |==|  0.80051
USER: genes 10 Torsion [N]-CA--C-[O] |==|  0.86859
USER: genes 11 Torsion [C]-N--CA-[CB] |==|  0.84525
USER: genes 12 Torsion [N]-CA--C-[O] |==|  0.05103
USER: genes 13 Torsion [N]-CA--CB-[CG] |==|  0.65481
USER: genes 14 Torsion [CA]-CB--CG-[CD] |==|  0.22191
USER: genes 15 Torsion [CB]-CG--CD-[NE] |==|  0.96789
USER: genes 16 Torsion [CG]-CD--NE-[HE] |==|  0.75418
ROOT
ATOM      1  C   ASP R  39      12.023 -16.198  21.917  1.00 39.81 LIG 0.24  C 
ATOM      2 O    ASP R  39      12.225 -16.816  23.030  1.00 39.68 LIG-0.27  OA
ATOM      3  N   PRO R  40      11.418 -16.620  20.846  1.00 39.27 LIG-0.34  N 
ATOM      4  CA  PRO R  40      10.776 -18.009  20.896  1.00 39.34 LIG 0.18  A 
ATOM      5  CB  PRO R  40       9.975 -18.108  19.626  1.00 38.99 LIG 0.04  A 
ATOM      6  CG  PRO R  40      10.181 -16.838  18.842  1.00 38.95 LIG 0.02  A 
ATOM      7  CD  PRO R  40      11.157 -15.924  19.588  1.00 38.89 LIG 0.13  A 
ENDROOT
BRANCH 1 8
ATOM      8  CA  ASP R  39      12.662 -14.811  21.823  1.00 40.71 LIG 0.19  C 
BRANCH 8 9
ATOM      9  CB  ASP R  39      14.168 -14.808  22.232  1.00 43.11 LIG 0.15  C 
BRANCH 9 10
ATOM     10  CG  ASP R  39      14.835 -13.443  22.071  1.00 44.48 LIG 0.17  C 
ATOM     11 OD2  ASP R  39      14.379 -12.474  21.427  1.00 43.91 LIG-0.65  OA
ATOM     12 OD1  ASP R  39      15.987 -13.464  22.655  1.00 46.24 LIG-0.65  OA
ENDBRANCH 9 10
ENDBRANCH 8 9
BRANCH 8 13
ATOM     13  N   ASP R  39      11.897 -13.977  22.716  1.00 41.53 LIG-0.34  N 
ATOM     14 H    ASP R  39      11.800 -14.340  23.490  1.00 41.53 LIG 0.16  HD
ATOM     15  C   LEU R  38      11.395 -12.826  22.451  1.00 42.61 LIG 0.25  C 
ATOM     16 O    LEU R  38      11.475 -12.328  21.301  1.00 42.97 LIG-0.27  OA
BRANCH 15 17
ATOM     17  CA  LEU R  38      10.564 -12.223  23.610  1.00 43.36 LIG 0.28  C 
BRANCH 17 18
ATOM     18  N   LEU R  38      10.047 -13.312  24.442  1.00 44.18 LIG-0.07  N 
ATOM     19 H1   LEU R  38       9.581 -12.971  25.120  1.00 44.18 LIG 0.28  HD
ATOM     20 H2   LEU R  38       9.519 -13.835  23.953  1.00 44.18 LIG 0.28  HD
ATOM     21 H3   LEU R  38      10.726 -13.791  24.760  1.00 44.18 LIG 0.28  HD
ENDBRANCH 17 18
BRANCH 17 22
ATOM     22  CB  LEU R  38      11.274 -11.206  24.567  1.00 42.68 LIG 0.05  C 
BRANCH 22 23
ATOM     23  CG  LEU R  38      11.719  -9.858  24.005  1.00 43.59 LIG-0.02  C 
ATOM     24  CD2 LEU R  38      12.939 -10.085  23.074  1.00 43.82 LIG 0.01  C 
ATOM     25  CD1 LEU R  38      12.030  -8.790  25.074  1.00 42.78 LIG 0.01  C 
ENDBRANCH 22 23
ENDBRANCH 17 22
ENDBRANCH 15 17
ENDBRANCH 8 13
ENDBRANCH 1 8
BRANCH 4 26
ATOM     26  C   PRO R  40      11.914 -18.959  21.224  1.00 39.48 LIG 0.24  C 
ATOM     27 O    PRO R  40      13.029 -18.875  20.580  1.00 40.12 LIG-0.27  OA
ATOM     28  N   ARG R  41      11.821 -19.831  22.231  1.00 39.52 LIG-0.35  N 
ATOM     29 H    ARG R  41      11.102 -19.899  22.698  1.00 39.52 LIG 0.16  HD
BRANCH 28 30
ATOM     30  CA  ARG R  41      12.880 -20.775  22.692  1.00 39.38 LIG 0.13  C 
BRANCH 30 31
ATOM     31  C   ARG R  41      14.148 -20.172  23.359  1.00 39.99 LIG 0.20  C 
ATOM     32 O    ARG R  41      14.135 -18.945  23.832  1.00 39.75 LIG-0.22  OA
ENDBRANCH 30 31
BRANCH 30 33
ATOM     33  CB  ARG R  41      13.352 -21.673  21.505  1.00 38.11 LIG 0.03  C 
BRANCH 33 34
ATOM     34  CG  ARG R  41      13.170 -23.163  21.945  1.00 35.63 LIG 0.02  C 
BRANCH 34 35
ATOM     35  CD  ARG R  41      11.777 -23.542  21.791  1.00 36.53 LIG 0.14  C 
BRANCH 35 36
ATOM     36  NE  ARG R  41      10.728 -22.474  21.525  1.00 36.92 LIG-0.23  N 
ATOM     37 HE   ARG R  41      10.350 -22.085  22.192  1.00 36.92 LIG 0.18  HD
ATOM     38  CZ  ARG R  41      10.364 -22.110  20.239  1.00 37.60 LIG 0.67  C 
ATOM     39  NH2 ARG R  41       9.600 -20.960  20.088  1.00 37.55 LIG-0.23  N 
ATOM     40  NH1 ARG R  41      10.851 -22.707  19.101  1.00 34.72 LIG-0.23  N 
ATOM     41 21HH ARG R  41       9.369 -20.503  20.779  1.00 37.55 LIG 0.17  HD
ATOM     42 22HH ARG R  41       9.357 -20.706  19.303  1.00 37.55 LIG 0.17  HD
ATOM     43 11HH ARG R  41      11.418 -23.350  19.162  1.00 34.72 LIG 0.17  HD
ATOM     44 12HH ARG R  41      10.587 -22.436  18.328  1.00 34.72 LIG 0.17  HD
ENDBRANCH 35 36
ENDBRANCH 34 35
ENDBRANCH 33 34
ENDBRANCH 30 33
ENDBRANCH 28 30
ENDBRANCH 4 26
TORSDOF 15
ENDMDL
MODEL 33
USER: ADFR SOLUTION from run 94
USER: SCORE 16.741982 LL:  -3.368 LR: -13.433 RR:   0.000 FEB:  -8.958
USER: RMSD 7.678833
USER: SEED 93
USER: STATUS no improvement in best 11 clusters for 5 generations
USER: GENES 17
USER: genes 0 Translation |==|  0.35635 0.48973 0.46956
USER: genes 1 Rotation |==|  0.70056 0.34563 0.07119 0.54554
USER: genes 2 Torsion [N]-C--CA-[N] |==|  0.42960
USER: genes 3 Torsion [C]-CA--CB-[CG] |==|  0.44005
USER: genes 4 Torsion [CA]-CB--CG-[OD2] |==|  0.61834
USER: genes 5 Torsion [C]-CA--N-[C] |==|  0.82776
USER: genes 6 Torsion [N]-C--CA-[N] |==|  0.63064
USER: genes 7 Torsion [C]-CA--N-[H2] |==|  0.25085
USER: genes 8 Torsion [C]-CA--CB-[CG] |==|  0.22071
USER: genes 9 Torsion [CA]-CB--CG-[CD2] |==|  0.70443
USER: genes 10 Torsion [N]-CA--C-[O] |==|  0.40527
USER: genes 11 Torsion [C]-N--CA-[CB] |==|  0.39612
USER: genes 12 Torsion [N]-CA--C-[O] |==|  0.92290
USER: genes 13 Torsion [N]-CA--CB-[CG] |==|  0.37813
USER: genes 14 Torsion [CA]-CB--CG-[CD] |==|  0.63360
USER: genes 15 Torsion [CB]-CG--CD-[NE] |==|  0.20809
USER: genes 16 Torsion [CG]-CD--NE-[HE] |==|  0.70204
ROOT
ATOM      1  C   ASP R  39      12.040 -14.518  22.117  1.00 39.81 LIG 0.24  C 
ATOM      2 O    ASP R  39      12.394 -14.596  23.354  1.00 39.68 LIG-0.27  OA
ATOM      3  N   PRO R  40      11.881 -15.474  21.251  1.00 39.27 LIG-0.34  N 
ATOM      4  CA  PRO R  40      12.052 -16.913  21.744  1.00 39.34 LIG 0.18  A 
ATOM      5  CB  PRO R  40      11.583 -17.771  20.601  1.00 38.99 LIG 0.04  A 
ATOM      6  CG  PRO R  40      11.196 -16.862  19.462  1.00 38.95 LIG 0.02  A 
ATOM      7  CD  PRO R  40      11.454 -15.406  19.854  1.00 38.89 LIG 0.13  A 
ENDROOT
BRANCH 1 8
ATOM      8  CA  ASP R  39      11.873 -13.095  21.581  1.00 40.71 LIG 0.19  C 
BRANCH 8 9
ATOM      9  CB  ASP R  39      13.179 -12.530  20.941  1.00 43.11 LIG 0.15  C 
BRANCH 9 10
ATOM     10  CG  ASP R  39      12.926 -11.382  19.965  1.00 44.48 LIG 0.17  C 
ATOM     11 OD2  ASP R  39      13.478 -11.227  18.854  1.00 43.91 LIG-0.65  OA
ATOM     12 OD1  ASP R  39      12.092 -10.552  20.495  1.00 46.24 LIG-0.65  OA
ENDBRANCH 9 10
ENDBRANCH 8 9
BRANCH 8 13
ATOM     13  N   ASP R  39      11.489 -12.301  22.723  1.00 41.53 LIG-0.34  N 
ATOM     14 H    ASP R  39      12.067 -11.688  22.897  1.00 41.53 LIG 0.16  HD
ATOM     15  C   LEU R  38      10.430 -12.440  23.434  1.00 42.61 LIG 0.25  C 
ATOM     16 O    LEU R  38       9.622 -13.379  23.225  1.00 42.97 LIG-0.27  OA
BRANCH 15 17
ATOM     17  CA  LEU R  38      10.351 -11.468  24.637  1.00 43.36 LIG 0.28  C 
BRANCH 17 18
ATOM     18  N   LEU R  38       9.975 -12.222  25.835  1.00 44.18 LIG-0.07  N 
ATOM     19 H1   LEU R  38       9.471 -12.918  25.602  1.00 44.18 LIG 0.28  HD
ATOM     20 H2   LEU R  38      10.709 -12.511  26.247  1.00 44.18 LIG 0.28  HD
ATOM     21 H3   LEU R  38       9.516 -11.694  26.385  1.00 44.18 LIG 0.28  HD
ENDBRANCH 17 18
BRANCH 17 22
ATOM     22  CB  LEU R  38      11.634 -10.641  24.993  1.00 42.68 LIG 0.05  C 
BRANCH 22 23
ATOM     23  CG  LEU R  38      11.956  -9.396  24.171  1.00 43.59 LIG-0.02  C 
ATOM     24  CD2 LEU R  38      13.156  -9.712  23.239  1.00 43.82 LIG 0.01  C 
ATOM     25  CD1 LEU R  38      12.224  -8.128  25.007  1.00 42.78 LIG 0.01  C 
ENDBRANCH 22 23
ENDBRANCH 17 22
ENDBRANCH 15 17
ENDBRANCH 8 13
ENDBRANCH 1 8
BRANCH 4 26
ATOM     26  C   PRO R  40      13.468 -16.977  22.291  1.00 39.48 LIG 0.24  C 
ATOM     27 O    PRO R  40      13.732 -17.726  23.307  1.00 40.12 LIG-0.27  OA
ATOM     28  N   ARG R  41      14.474 -16.340  21.687  1.00 39.52 LIG-0.35  N 
ATOM     29 H    ARG R  41      14.340 -15.849  20.994  1.00 39.52 LIG 0.16  HD
BRANCH 28 30
ATOM     30  CA  ARG R  41      15.911 -16.366  22.085  1.00 39.38 LIG 0.13  C 
BRANCH 30 31
ATOM     31  C   ARG R  41      16.423 -15.237  23.022  1.00 39.99 LIG 0.20  C 
ATOM     32 O    ARG R  41      15.848 -14.054  23.021  1.00 39.75 LIG-0.22  OA
ENDBRANCH 30 31
BRANCH 30 33
ATOM     33  CB  ARG R  41      16.820 -16.373  20.815  1.00 38.11 LIG 0.03  C 
BRANCH 33 34
ATOM     34  CG  ARG R  41      17.984 -15.360  21.067  1.00 35.63 LIG 0.02  C 
BRANCH 34 35
ATOM     35  CD  ARG R  41      18.123 -14.492  19.911  1.00 36.53 LIG 0.14  C 
BRANCH 35 36
ATOM     36  NE  ARG R  41      17.110 -13.384  19.672  1.00 36.92 LIG-0.23  N 
ATOM     37 HE   ARG R  41      16.540 -13.470  19.034  1.00 36.92 LIG 0.18  HD
ATOM     38  CZ  ARG R  41      17.079 -12.240  20.451  1.00 37.60 LIG 0.67  C 
ATOM     39  NH2 ARG R  41      15.972 -11.409  20.332  1.00 37.55 LIG-0.23  N 
ATOM     40  NH1 ARG R  41      17.980 -11.962  21.451  1.00 34.72 LIG-0.23  N 
ATOM     41 21HH ARG R  41      15.338 -11.614  19.788  1.00 37.55 LIG 0.17  HD
ATOM     42 22HH ARG R  41      15.921 -10.691  20.802  1.00 37.55 LIG 0.17  HD
ATOM     43 11HH ARG R  41      18.613 -12.518  21.626  1.00 34.72 LIG 0.17  HD
ATOM     44 12HH ARG R  41      17.910 -11.233  21.903  1.00 34.72 LIG 0.17  HD
ENDBRANCH 35 36
ENDBRANCH 34 35
ENDBRANCH 33 34
ENDBRANCH 30 33
ENDBRANCH 28 30
ENDBRANCH 4 26
TORSDOF 15
ENDMDL
MODEL 34
USER: ADFR SOLUTION from run 43
USER: SCORE 16.057606 LL:  -2.809 LR: -13.428 RR:   0.000 FEB:  -8.953
USER: RMSD 7.043882
USER: SEED 42
USER: STATUS no improvement in best 8 clusters for 5 generations
USER: GENES 17
USER: genes 0 Translation |==|  0.43897 0.51979 0.39218
USER: genes 1 Rotation |==|  0.97229 0.37277 0.59488 0.54186
USER: genes 2 Torsion [N]-C--CA-[N] |==|  0.34521
USER: genes 3 Torsion [C]-CA--CB-[CG] |==|  0.74792
USER: genes 4 Torsion [CA]-CB--CG-[OD2] |==|  0.89192
USER: genes 5 Torsion [C]-CA--N-[C] |==|  0.68677
USER: genes 6 Torsion [N]-C--CA-[N] |==|  0.88355
USER: genes 7 Torsion [C]-CA--N-[H2] |==|  0.98086
USER: genes 8 Torsion [C]-CA--CB-[CG] |==|  0.13228
USER: genes 9 Torsion [CA]-CB--CG-[CD2] |==|  0.79295
USER: genes 10 Torsion [N]-CA--C-[O] |==|  0.43686
USER: genes 11 Torsion [C]-N--CA-[CB] |==|  0.19566
USER: genes 12 Torsion [N]-CA--C-[O] |==|  0.00677
USER: genes 13 Torsion [N]-CA--CB-[CG] |==|  0.29866
USER: genes 14 Torsion [CA]-CB--CG-[CD] |==|  0.45652
USER: genes 15 Torsion [CB]-CG--CD-[NE] |==|  0.21721
USER: genes 16 Torsion [CG]-CD--NE-[HE] |==|  0.18768
ROOT
ATOM      1  C   ASP R  39      14.519 -13.616  19.795  1.00 39.81 LIG 0.24  C 
ATOM      2 O    ASP R  39      13.432 -13.916  19.171  1.00 39.68 LIG-0.27  OA
ATOM      3  N   PRO R  40      14.986 -14.109  20.904  1.00 39.27 LIG-0.34  N 
ATOM      4  CA  PRO R  40      14.210 -15.259  21.551  1.00 39.34 LIG 0.18  A 
ATOM      5  CB  PRO R  40      15.104 -15.754  22.655  1.00 38.99 LIG 0.04  A 
ATOM      6  CG  PRO R  40      16.340 -14.891  22.679  1.00 38.95 LIG 0.02  A 
ATOM      7  CD  PRO R  40      16.229 -13.801  21.611  1.00 38.89 LIG 0.13  A 
ENDROOT
BRANCH 1 8
ATOM      8  CA  ASP R  39      15.316 -12.461  19.187  1.00 40.71 LIG 0.19  C 
BRANCH 8 9
ATOM      9  CB  ASP R  39      14.519 -11.120  19.163  1.00 43.11 LIG 0.15  C 
BRANCH 9 10
ATOM     10  CG  ASP R  39      13.722 -10.915  17.875  1.00 44.48 LIG 0.17  C 
ATOM     11 OD2  ASP R  39      14.100 -11.214  16.722  1.00 43.91 LIG-0.65  OA
ATOM     12 OD1  ASP R  39      12.612 -10.318  18.155  1.00 46.24 LIG-0.65  OA
ENDBRANCH 9 10
ENDBRANCH 8 9
BRANCH 8 13
ATOM     13  N   ASP R  39      15.634 -12.881  17.845  1.00 41.53 LIG-0.34  N 
ATOM     14 H    ASP R  39      14.931 -12.938  17.352  1.00 41.53 LIG 0.16  HD
ATOM     15  C   LEU R  38      16.799 -13.153  17.380  1.00 42.61 LIG 0.25  C 
ATOM     16 O    LEU R  38      17.815 -13.140  18.118  1.00 42.97 LIG-0.27  OA
BRANCH 15 17
ATOM     17  CA  LEU R  38      16.788 -13.648  15.913  1.00 43.36 LIG 0.28  C 
BRANCH 17 18
ATOM     18  N   LEU R  38      15.673 -14.580  15.732  1.00 44.18 LIG-0.07  N 
ATOM     19 H1   LEU R  38      15.976 -15.340  15.381  1.00 44.18 LIG 0.28  HD
ATOM     20 H2   LEU R  38      15.295 -14.747  16.520  1.00 44.18 LIG 0.28  HD
ATOM     21 H3   LEU R  38      15.071 -14.219  15.185  1.00 44.18 LIG 0.28  HD
ENDBRANCH 17 18
BRANCH 17 22
ATOM     22  CB  LEU R  38      16.681 -12.571  14.779  1.00 42.68 LIG 0.05  C 
BRANCH 22 23
ATOM     23  CG  LEU R  38      17.592 -11.348  14.841  1.00 43.59 LIG-0.02  C 
ATOM     24  CD2 LEU R  38      17.066 -10.391  15.943  1.00 43.82 LIG 0.01  C 
ATOM     25  CD1 LEU R  38      17.758 -10.606  13.499  1.00 42.78 LIG 0.01  C 
ENDBRANCH 22 23
ENDBRANCH 17 22
ENDBRANCH 15 17
ENDBRANCH 8 13
ENDBRANCH 1 8
BRANCH 4 26
ATOM     26  C   PRO R  40      12.821 -14.702  21.809  1.00 39.48 LIG 0.24  C 
ATOM     27 O    PRO R  40      11.819 -15.504  21.932  1.00 40.12 LIG-0.27  OA
ATOM     28  N   ARG R  41      12.622 -13.395  22.000  1.00 39.52 LIG-0.35  N 
ATOM     29 H    ARG R  41      13.270 -12.832  21.948  1.00 39.52 LIG 0.16  HD
BRANCH 28 30
ATOM     30  CA  ARG R  41      11.325 -12.728  22.316  1.00 39.38 LIG 0.13  C 
BRANCH 30 31
ATOM     31  C   ARG R  41      11.251 -11.184  22.166  1.00 39.99 LIG 0.20  C 
ATOM     32 O    ARG R  41      12.288 -10.503  21.727  1.00 39.75 LIG-0.22  OA
ENDBRANCH 30 31
BRANCH 30 33
ATOM     33  CB  ARG R  41      10.879 -13.084  23.770  1.00 38.11 LIG 0.03  C 
BRANCH 33 34
ATOM     34  CG  ARG R  41      11.081 -11.805  24.646  1.00 35.63 LIG 0.02  C 
BRANCH 34 35
ATOM     35  CD  ARG R  41      10.350 -11.956  25.892  1.00 36.53 LIG 0.14  C 
BRANCH 35 36
ATOM     36  NE  ARG R  41      10.925 -12.815  27.005  1.00 36.92 LIG-0.23  N 
ATOM     37 HE   ARG R  41      11.639 -12.555  27.408  1.00 36.92 LIG 0.18  HD
ATOM     38  CZ  ARG R  41      10.332 -14.006  27.391  1.00 37.60 LIG 0.67  C 
ATOM     39  NH2 ARG R  41      10.769 -14.589  28.574  1.00 37.55 LIG-0.23  N 
ATOM     40  NH1 ARG R  41       9.231 -14.554  26.779  1.00 34.72 LIG-0.23  N 
ATOM     41 21HH ARG R  41      11.386 -14.210  29.038  1.00 37.55 LIG 0.17  HD
ATOM     42 22HH ARG R  41      10.421 -15.328  28.843  1.00 37.55 LIG 0.17  HD
ATOM     43 11HH ARG R  41       8.867 -14.153  26.110  1.00 34.72 LIG 0.17  HD
ATOM     44 12HH ARG R  41       8.907 -15.298  27.064  1.00 34.72 LIG 0.17  HD
ENDBRANCH 35 36
ENDBRANCH 34 35
ENDBRANCH 33 34
ENDBRANCH 30 33
ENDBRANCH 28 30
ENDBRANCH 4 26
TORSDOF 15
ENDMDL
MODEL 35
USER: ADFR SOLUTION from run 101
USER: SCORE 15.147727 LL:  -1.763 LR: -13.421 RR:   0.000 FEB:  -8.946
USER: RMSD 11.245146
USER: SEED 100
USER: STATUS no improvement in best 7 clusters for 5 generations
USER: GENES 17
USER: genes 0 Translation |==|  0.49019 0.56011 0.24442
USER: genes 1 Rotation |==|  0.39235 0.49541 0.98784 0.52001
USER: genes 2 Torsion [N]-C--CA-[N] |==|  0.39045
USER: genes 3 Torsion [C]-CA--CB-[CG] |==|  0.03128
USER: genes 4 Torsion [CA]-CB--CG-[OD2] |==|  0.25919
USER: genes 5 Torsion [C]-CA--N-[C] |==|  0.78889
USER: genes 6 Torsion [N]-C--CA-[N] |==|  0.13454
USER: genes 7 Torsion [C]-CA--N-[H2] |==|  0.89110
USER: genes 8 Torsion [C]-CA--CB-[CG] |==|  0.74790
USER: genes 9 Torsion [CA]-CB--CG-[CD2] |==|  0.57258
USER: genes 10 Torsion [N]-CA--C-[O] |==|  0.98101
USER: genes 11 Torsion [C]-N--CA-[CB] |==|  0.51234
USER: genes 12 Torsion [N]-CA--C-[O] |==|  0.37284
USER: genes 13 Torsion [N]-CA--CB-[CG] |==|  0.61803
USER: genes 14 Torsion [CA]-CB--CG-[CD] |==|  0.65147
USER: genes 15 Torsion [CB]-CG--CD-[NE] |==|  0.21286
USER: genes 16 Torsion [CG]-CD--NE-[HE] |==|  0.20243
ROOT
ATOM      1  C   ASP R  39      16.056 -12.407  15.363  1.00 39.81 LIG 0.24  C 
ATOM      2 O    ASP R  39      16.760 -13.260  16.024  1.00 39.68 LIG-0.27  OA
ATOM      3  N   PRO R  40      15.409 -12.571  14.247  1.00 39.27 LIG-0.34  N 
ATOM      4  CA  PRO R  40      15.392 -13.975  13.638  1.00 39.34 LIG 0.18  A 
ATOM      5  CB  PRO R  40      14.395 -13.895  12.514  1.00 38.99 LIG 0.04  A 
ATOM      6  CG  PRO R  40      13.884 -12.479  12.441  1.00 38.95 LIG 0.02  A 
ATOM      7  CD  PRO R  40      14.585 -11.623  13.499  1.00 38.89 LIG 0.13  A 
ENDROOT
BRANCH 1 8
ATOM      8  CA  ASP R  39      16.060 -10.986  15.931  1.00 40.71 LIG 0.19  C 
BRANCH 8 9
ATOM      9  CB  ASP R  39      17.369 -10.205  15.601  1.00 43.11 LIG 0.15  C 
BRANCH 9 10
ATOM     10  CG  ASP R  39      18.245 -10.905  14.563  1.00 44.48 LIG 0.17  C 
ATOM     11 OD2  ASP R  39      18.225 -10.706  13.329  1.00 43.91 LIG-0.65  OA
ATOM     12 OD1  ASP R  39      18.975 -11.792  15.154  1.00 46.24 LIG-0.65  OA
ENDBRANCH 9 10
ENDBRANCH 8 9
BRANCH 8 13
ATOM     13  N   ASP R  39      15.917 -11.146  17.357  1.00 41.53 LIG-0.34  N 
ATOM     14 H    ASP R  39      16.661 -11.022  17.771  1.00 41.53 LIG 0.16  HD
ATOM     15  C   LEU R  38      14.841 -11.438  17.994  1.00 42.61 LIG 0.25  C 
ATOM     16 O    LEU R  38      13.772 -11.690  17.386  1.00 42.97 LIG-0.27  OA
BRANCH 15 17
ATOM     17  CA  LEU R  38      15.043 -11.608  19.519  1.00 43.36 LIG 0.28  C 
BRANCH 17 18
ATOM     18  N   LEU R  38      15.808 -10.468  20.030  1.00 44.18 LIG-0.07  N 
ATOM     19 H1   LEU R  38      16.184 -10.687  20.807  1.00 44.18 LIG 0.28  HD
ATOM     20 H2   LEU R  38      16.442 -10.251  19.445  1.00 44.18 LIG 0.28  HD
ATOM     21 H3   LEU R  38      15.264  -9.774  20.148  1.00 44.18 LIG 0.28  HD
ENDBRANCH 17 18
BRANCH 17 22
ATOM     22  CB  LEU R  38      13.764 -11.746  20.415  1.00 42.68 LIG 0.05  C 
BRANCH 22 23
ATOM     23  CG  LEU R  38      13.140 -10.482  21.002  1.00 43.59 LIG-0.02  C 
ATOM     24  CD2 LEU R  38      12.379 -10.860  22.300  1.00 43.82 LIG 0.01  C 
ATOM     25  CD1 LEU R  38      12.225  -9.710  20.030  1.00 42.78 LIG 0.01  C 
ENDBRANCH 22 23
ENDBRANCH 17 22
ENDBRANCH 15 17
ENDBRANCH 8 13
ENDBRANCH 1 8
BRANCH 4 26
ATOM     26  C   PRO R  40      16.852 -14.328  13.416  1.00 39.48 LIG 0.24  C 
ATOM     27 O    PRO R  40      17.766 -13.440  13.613  1.00 40.12 LIG-0.27  OA
ATOM     28  N   ARG R  41      17.225 -15.571  13.102  1.00 39.52 LIG-0.35  N 
ATOM     29 H    ARG R  41      16.645 -16.195  12.985  1.00 39.52 LIG 0.16  HD
BRANCH 28 30
ATOM     30  CA  ARG R  41      18.621 -16.061  12.913  1.00 39.38 LIG 0.13  C 
BRANCH 30 31
ATOM     31  C   ARG R  41      19.540 -15.271  11.941  1.00 39.99 LIG 0.20  C 
ATOM     32 O    ARG R  41      20.774 -14.967  12.284  1.00 39.75 LIG-0.22  OA
ENDBRANCH 30 31
BRANCH 30 33
ATOM     33  CB  ARG R  41      18.609 -17.551  12.445  1.00 38.11 LIG 0.03  C 
BRANCH 33 34
ATOM     34  CG  ARG R  41      19.729 -18.300  13.239  1.00 35.63 LIG 0.02  C 
BRANCH 34 35
ATOM     35  CD  ARG R  41      20.621 -18.959  12.302  1.00 36.53 LIG 0.14  C 
BRANCH 35 36
ATOM     36  NE  ARG R  41      21.653 -18.144  11.541  1.00 36.92 LIG-0.23  N 
ATOM     37 HE   ARG R  41      22.341 -17.843  11.960  1.00 36.92 LIG 0.18  HD
ATOM     38  CZ  ARG R  41      21.519 -17.872  10.189  1.00 37.60 LIG 0.67  C 
ATOM     39  NH2 ARG R  41      22.621 -17.350   9.525  1.00 37.55 LIG-0.23  N 
ATOM     40  NH1 ARG R  41      20.433 -18.242   9.432  1.00 34.72 LIG-0.23  N 
ATOM     41 21HH ARG R  41      23.353 -17.208   9.952  1.00 37.55 LIG 0.17  HD
ATOM     42 22HH ARG R  41      22.571 -17.170   8.685  1.00 37.55 LIG 0.17  HD
ATOM     43 11HH ARG R  41      19.782 -18.671   9.795  1.00 34.72 LIG 0.17  HD
ATOM     44 12HH ARG R  41      20.406 -18.044   8.595  1.00 34.72 LIG 0.17  HD
ENDBRANCH 35 36
ENDBRANCH 34 35
ENDBRANCH 33 34
ENDBRANCH 30 33
ENDBRANCH 28 30
ENDBRANCH 4 26
TORSDOF 15
ENDMDL
MODEL 36
USER: ADFR SOLUTION from run 22
USER: SCORE 16.073948 LL:  -2.753 LR: -13.340 RR:   0.000 FEB:  -8.865
USER: RMSD 10.259685
USER: SEED 21
USER: STATUS no improvement in best 8 clusters for 5 generations
USER: GENES 17
USER: genes 0 Translation |==|  0.48046 0.56538 0.24196
USER: genes 1 Rotation |==|  0.42216 0.48773 0.99155 0.54652
USER: genes 2 Torsion [N]-C--CA-[N] |==|  0.37778
USER: genes 3 Torsion [C]-CA--CB-[CG] |==|  0.99077
USER: genes 4 Torsion [CA]-CB--CG-[OD2] |==|  0.77676
USER: genes 5 Torsion [C]-CA--N-[C] |==|  0.80818
USER: genes 6 Torsion [N]-C--CA-[N] |==|  0.12271
USER: genes 7 Torsion [C]-CA--N-[H2] |==|  0.88248
USER: genes 8 Torsion [C]-CA--CB-[CG] |==|  0.76588
USER: genes 9 Torsion [CA]-CB--CG-[CD2] |==|  0.58121
USER: genes 10 Torsion [N]-CA--C-[O] |==|  0.30611
USER: genes 11 Torsion [C]-N--CA-[CB] |==|  0.14134
USER: genes 12 Torsion [N]-CA--C-[O] |==|  0.20003
USER: genes 13 Torsion [N]-CA--CB-[CG] |==|  0.17578
USER: genes 14 Torsion [CA]-CB--CG-[CD] |==|  0.62885
USER: genes 15 Torsion [CB]-CG--CD-[NE] |==|  0.33146
USER: genes 16 Torsion [CG]-CD--NE-[HE] |==|  0.18103
ROOT
ATOM      1  C   ASP R  39      15.764 -12.249  15.289  1.00 39.81 LIG 0.24  C 
ATOM      2 O    ASP R  39      16.453 -13.203  15.815  1.00 39.68 LIG-0.27  OA
ATOM      3  N   PRO R  40      14.979 -12.283  14.253  1.00 39.27 LIG-0.34  N 
ATOM      4  CA  PRO R  40      14.753 -13.638  13.579  1.00 39.34 LIG 0.18  A 
ATOM      5  CB  PRO R  40      13.645 -13.397  12.590  1.00 38.99 LIG 0.04  A 
ATOM      6  CG  PRO R  40      13.271 -11.938  12.653  1.00 38.95 LIG 0.02  A 
ATOM      7  CD  PRO R  40      14.170 -11.218  13.661  1.00 38.89 LIG 0.13  A 
ENDROOT
BRANCH 1 8
ATOM      8  CA  ASP R  39      15.974 -10.873  15.925  1.00 40.71 LIG 0.19  C 
BRANCH 8 9
ATOM      9  CB  ASP R  39      17.356 -10.245  15.569  1.00 43.11 LIG 0.15  C 
BRANCH 9 10
ATOM     10  CG  ASP R  39      18.240 -11.165  14.728  1.00 44.48 LIG 0.17  C 
ATOM     11 OD2  ASP R  39      18.934 -12.112  15.158  1.00 43.91 LIG-0.65  OA
ATOM     12 OD1  ASP R  39      18.211 -10.773  13.498  1.00 46.24 LIG-0.65  OA
ENDBRANCH 9 10
ENDBRANCH 8 9
BRANCH 8 13
ATOM     13  N   ASP R  39      15.873 -11.092  17.347  1.00 41.53 LIG-0.34  N 
ATOM     14 H    ASP R  39      16.630 -10.990  17.742  1.00 41.53 LIG 0.16  HD
ATOM     15  C   LEU R  38      14.814 -11.403  18.004  1.00 42.61 LIG 0.25  C 
ATOM     16 O    LEU R  38      13.725 -11.622  17.419  1.00 42.97 LIG-0.27  OA
BRANCH 15 17
ATOM     17  CA  LEU R  38      15.061 -11.638  19.514  1.00 43.36 LIG 0.28  C 
BRANCH 17 18
ATOM     18  N   LEU R  38      15.935 -10.580  20.025  1.00 44.18 LIG-0.07  N 
ATOM     19 H1   LEU R  38      16.286 -10.835  20.803  1.00 44.18 LIG 0.28  HD
ATOM     20 H2   LEU R  38      16.588 -10.425  19.441  1.00 44.18 LIG 0.28  HD
ATOM     21 H3   LEU R  38      15.462  -9.835  20.144  1.00 44.18 LIG 0.28  HD
ENDBRANCH 17 18
BRANCH 17 22
ATOM     22  CB  LEU R  38      13.811 -11.703  20.457  1.00 42.68 LIG 0.05  C 
BRANCH 22 23
ATOM     23  CG  LEU R  38      13.223 -10.398  20.987  1.00 43.59 LIG-0.02  C 
ATOM     24  CD2 LEU R  38      12.570 -10.670  22.367  1.00 43.82 LIG 0.01  C 
ATOM     25  CD1 LEU R  38      12.228  -9.710  20.030  1.00 42.78 LIG 0.01  C 
ENDBRANCH 22 23
ENDBRANCH 17 22
ENDBRANCH 15 17
ENDBRANCH 8 13
ENDBRANCH 1 8
BRANCH 4 26
ATOM     26  C   PRO R  40      16.136 -14.108  13.163  1.00 39.48 LIG 0.24  C 
ATOM     27 O    PRO R  40      16.684 -15.108  13.765  1.00 40.12 LIG-0.27  OA
ATOM     28  N   ARG R  41      16.769 -13.562  12.122  1.00 39.52 LIG-0.35  N 
ATOM     29 H    ARG R  41      16.425 -12.908  11.682  1.00 39.52 LIG 0.16  HD
BRANCH 28 30
ATOM     30  CA  ARG R  41      18.098 -13.966  11.576  1.00 39.38 LIG 0.13  C 
BRANCH 30 31
ATOM     31  C   ARG R  41      18.587 -13.272  10.275  1.00 39.99 LIG 0.20  C 
ATOM     32 O    ARG R  41      18.979 -12.016  10.294  1.00 39.75 LIG-0.22  OA
ENDBRANCH 30 31
BRANCH 30 33
ATOM     33  CB  ARG R  41      18.131 -15.508  11.329  1.00 38.11 LIG 0.03  C 
BRANCH 33 34
ATOM     34  CG  ARG R  41      17.058 -15.829  10.238  1.00 35.63 LIG 0.02  C 
BRANCH 34 35
ATOM     35  CD  ARG R  41      16.269 -16.973  10.662  1.00 36.53 LIG 0.14  C 
BRANCH 35 36
ATOM     36  NE  ARG R  41      14.770 -16.825  10.861  1.00 36.92 LIG-0.23  N 
ATOM     37 HE   ARG R  41      14.273 -16.650  10.181  1.00 36.92 LIG 0.18  HD
ATOM     38  CZ  ARG R  41      14.180 -16.963  12.106  1.00 37.60 LIG 0.67  C 
ATOM     39  NH2 ARG R  41      12.796 -17.070  12.155  1.00 37.55 LIG-0.23  N 
ATOM     40  NH1 ARG R  41      14.878 -17.176  13.271  1.00 34.72 LIG-0.23  N 
ATOM     41 21HH ARG R  41      12.338 -17.048  11.428  1.00 37.55 LIG 0.17  HD
ATOM     42 22HH ARG R  41      12.398 -17.157  12.913  1.00 37.55 LIG 0.17  HD
ATOM     43 11HH ARG R  41      15.736 -17.230  13.255  1.00 34.72 LIG 0.17  HD
ATOM     44 12HH ARG R  41      14.455 -17.254  14.017  1.00 34.72 LIG 0.17  HD
ENDBRANCH 35 36
ENDBRANCH 34 35
ENDBRANCH 33 34
ENDBRANCH 30 33
ENDBRANCH 28 30
ENDBRANCH 4 26
TORSDOF 15
ENDMDL
MODEL 37
USER: ADFR SOLUTION from run 13
USER: SCORE 15.548846 LL:  -2.520 LR: -13.306 RR:   0.000 FEB:  -8.831
USER: RMSD 8.611969
USER: SEED 604075
USER: STATUS no improvement in best 4 clusters for 5 generations
USER: GENES 17
USER: genes 0 Translation |==|  0.35506 0.43502 0.46416
USER: genes 1 Rotation |==|  0.35992 0.62362 0.95199 0.60393
USER: genes 2 Torsion [N]-C--CA-[N] |==|  0.30715
USER: genes 3 Torsion [C]-CA--CB-[CG] |==|  0.47263
USER: genes 4 Torsion [CA]-CB--CG-[OD2] |==|  0.96987
USER: genes 5 Torsion [C]-CA--N-[C] |==|  0.64081
USER: genes 6 Torsion [N]-C--CA-[N] |==|  0.93446
USER: genes 7 Torsion [C]-CA--N-[H2] |==|  0.49711
USER: genes 8 Torsion [C]-CA--CB-[CG] |==|  0.17535
USER: genes 9 Torsion [CA]-CB--CG-[CD2] |==|  0.79237
USER: genes 10 Torsion [N]-CA--C-[O] |==|  0.93773
USER: genes 11 Torsion [C]-N--CA-[CB] |==|  0.80697
USER: genes 12 Torsion [N]-CA--C-[O] |==|  0.05574
USER: genes 13 Torsion [N]-CA--CB-[CG] |==|  0.26860
USER: genes 14 Torsion [CA]-CB--CG-[CD] |==|  0.66991
USER: genes 15 Torsion [CB]-CG--CD-[NE] |==|  0.33465
USER: genes 16 Torsion [CG]-CD--NE-[HE] |==|  0.00742
ROOT
ATOM      1  C   ASP R  39      12.002 -16.160  21.955  1.00 39.81 LIG 0.24  C 
ATOM      2 O    ASP R  39      12.225 -16.835  23.030  1.00 39.68 LIG-0.27  OA
ATOM      3  N   PRO R  40      11.385 -16.529  20.871  1.00 39.27 LIG-0.34  N 
ATOM      4  CA  PRO R  40      10.756 -17.923  20.854  1.00 39.34 LIG 0.18  A 
ATOM      5  CB  PRO R  40       9.937 -17.961  19.593  1.00 38.99 LIG 0.04  A 
ATOM      6  CG  PRO R  40      10.122 -16.648  18.875  1.00 38.95 LIG 0.02  A 
ATOM      7  CD  PRO R  40      11.100 -15.768  19.656  1.00 38.89 LIG 0.13  A 
ENDROOT
BRANCH 1 8
ATOM      8  CA  ASP R  39      12.629 -14.764  21.927  1.00 40.71 LIG 0.19  C 
BRANCH 8 9
ATOM      9  CB  ASP R  39      14.125 -14.762  22.367  1.00 43.11 LIG 0.15  C 
BRANCH 9 10
ATOM     10  CG  ASP R  39      14.827 -13.428  22.117  1.00 44.48 LIG 0.17  C 
ATOM     11 OD2  ASP R  39      14.375 -12.474  21.449  1.00 43.91 LIG-0.65  OA
ATOM     12 OD1  ASP R  39      16.001 -13.460  22.655  1.00 46.24 LIG-0.65  OA
ENDBRANCH 9 10
ENDBRANCH 8 9
BRANCH 8 13
ATOM     13  N   ASP R  39      11.836 -13.972  22.835  1.00 41.53 LIG-0.34  N 
ATOM     14 H    ASP R  39      11.744 -14.357  23.599  1.00 41.53 LIG 0.16  HD
ATOM     15  C   LEU R  38      11.307 -12.828  22.596  1.00 42.61 LIG 0.25  C 
ATOM     16 O    LEU R  38      11.381 -12.300  21.459  1.00 42.97 LIG-0.27  OA
BRANCH 15 17
ATOM     17  CA  LEU R  38      10.453 -12.276  23.764  1.00 43.36 LIG 0.28  C 
BRANCH 17 18
ATOM     18  N   LEU R  38      10.006 -13.394  24.597  1.00 44.18 LIG-0.07  N 
ATOM     19 H1   LEU R  38      10.714 -13.835  24.908  1.00 44.18 LIG 0.28  HD
ATOM     20 H2   LEU R  38       9.527 -13.083  25.279  1.00 44.18 LIG 0.28  HD
ATOM     21 H3   LEU R  38       9.504 -13.945  24.111  1.00 44.18 LIG 0.28  HD
ENDBRANCH 17 18
BRANCH 17 22
ATOM     22  CB  LEU R  38      11.113 -11.222  24.718  1.00 42.68 LIG 0.05  C 
BRANCH 22 23
ATOM     23  CG  LEU R  38      11.541  -9.876  24.139  1.00 43.59 LIG-0.02  C 
ATOM     24  CD2 LEU R  38      12.834 -10.081  23.307  1.00 43.82 LIG 0.01  C 
ATOM     25  CD1 LEU R  38      11.730  -8.760  25.187  1.00 42.78 LIG 0.01  C 
ENDBRANCH 22 23
ENDBRANCH 17 22
ENDBRANCH 15 17
ENDBRANCH 8 13
ENDBRANCH 1 8
BRANCH 4 26
ATOM     26  C   PRO R  40      11.906 -18.880  21.114  1.00 39.48 LIG 0.24  C 
ATOM     27 O    PRO R  40      13.117 -18.513  20.865  1.00 40.12 LIG-0.27  OA
ATOM     28  N   ARG R  41      11.703 -20.071  21.682  1.00 39.52 LIG-0.35  N 
ATOM     29 H    ARG R  41      10.911 -20.341  21.883  1.00 39.52 LIG 0.16  HD
BRANCH 28 30
ATOM     30  CA  ARG R  41      12.745 -21.076  22.042  1.00 39.38 LIG 0.13  C 
BRANCH 30 31
ATOM     31  C   ARG R  41      13.919 -20.609  22.947  1.00 39.99 LIG 0.20  C 
ATOM     32 O    ARG R  41      13.803 -19.528  23.688  1.00 39.75 LIG-0.22  OA
ENDBRANCH 30 31
BRANCH 30 33
ATOM     33  CB  ARG R  41      13.363 -21.695  20.748  1.00 38.11 LIG 0.03  C 
BRANCH 33 34
ATOM     34  CG  ARG R  41      14.684 -20.916  20.443  1.00 35.63 LIG 0.02  C 
BRANCH 34 35
ATOM     35  CD  ARG R  41      14.572 -20.271  19.146  1.00 36.53 LIG 0.14  C 
BRANCH 35 36
ATOM     36  NE  ARG R  41      14.699 -18.761  19.040  1.00 36.92 LIG-0.23  N 
ATOM     37 HE   ARG R  41      14.871 -18.305  19.749  1.00 36.92 LIG 0.18  HD
ATOM     38  CZ  ARG R  41      14.546 -18.096  17.835  1.00 37.60 LIG 0.67  C 
ATOM     39  NH2 ARG R  41      14.930 -16.763  17.781  1.00 37.55 LIG-0.23  N 
ATOM     40  NH1 ARG R  41      14.205 -18.710  16.653  1.00 34.72 LIG-0.23  N 
ATOM     41 21HH ARG R  41      15.250 -16.379  18.481  1.00 37.55 LIG 0.17  HD
ATOM     42 22HH ARG R  41      14.848 -16.321  17.047  1.00 37.55 LIG 0.17  HD
ATOM     43 11HH ARG R  41      14.072 -19.560  16.633  1.00 34.72 LIG 0.17  HD
ATOM     44 12HH ARG R  41      14.124 -18.244  15.934  1.00 34.72 LIG 0.17  HD
ENDBRANCH 35 36
ENDBRANCH 34 35
ENDBRANCH 33 34
ENDBRANCH 30 33
ENDBRANCH 28 30
ENDBRANCH 4 26
TORSDOF 15
ENDMDL
MODEL 38
USER: ADFR SOLUTION from run 129
USER: SCORE 14.357879 LL:  -2.280 LR: -13.288 RR:   0.000 FEB:  -8.813
USER: RMSD 8.959228
USER: SEED 128
USER: STATUS no improvement in best 6 clusters for 5 generations
USER: GENES 17
USER: genes 0 Translation |==|  0.27615 0.37863 0.30784
USER: genes 1 Rotation |==|  0.73081 0.16558 0.35924 0.75510
USER: genes 2 Torsion [N]-C--CA-[N] |==|  0.85303
USER: genes 3 Torsion [C]-CA--CB-[CG] |==|  0.27479
USER: genes 4 Torsion [CA]-CB--CG-[OD2] |==|  0.90973
USER: genes 5 Torsion [C]-CA--N-[C] |==|  0.50556
USER: genes 6 Torsion [N]-C--CA-[N] |==|  0.75608
USER: genes 7 Torsion [C]-CA--N-[H2] |==|  0.32302
USER: genes 8 Torsion [C]-CA--CB-[CG] |==|  0.74592
USER: genes 9 Torsion [CA]-CB--CG-[CD2] |==|  0.72644
USER: genes 10 Torsion [N]-CA--C-[O] |==|  0.23848
USER: genes 11 Torsion [C]-N--CA-[CB] |==|  0.23960
USER: genes 12 Torsion [N]-CA--C-[O] |==|  0.45934
USER: genes 13 Torsion [N]-CA--CB-[CG] |==|  0.68866
USER: genes 14 Torsion [CA]-CB--CG-[CD] |==|  0.49736
USER: genes 15 Torsion [CB]-CG--CD-[NE] |==|  0.82904
USER: genes 16 Torsion [CG]-CD--NE-[HE] |==|  0.09603
ROOT
ATOM      1  C   ASP R  39       9.634 -17.851  17.265  1.00 39.81 LIG 0.24  C 
ATOM      2 O    ASP R  39       9.144 -16.668  17.409  1.00 39.68 LIG-0.27  OA
ATOM      3  N   PRO R  40      10.194 -18.617  18.155  1.00 39.27 LIG-0.34  N 
ATOM      4  CA  PRO R  40      10.228 -18.116  19.600  1.00 39.34 LIG 0.18  A 
ATOM      5  CB  PRO R  40      10.709 -19.293  20.404  1.00 38.99 LIG 0.04  A 
ATOM      6  CG  PRO R  40      10.990 -20.427  19.452  1.00 38.95 LIG 0.02  A 
ATOM      7  CD  PRO R  40      10.729 -19.970  18.015  1.00 38.89 LIG 0.13  A 
ENDROOT
BRANCH 1 8
ATOM      8  CA  ASP R  39       9.632 -18.382  15.830  1.00 40.71 LIG 0.19  C 
BRANCH 8 9
ATOM      9  CB  ASP R  39       8.725 -19.638  15.650  1.00 43.11 LIG 0.15  C 
BRANCH 9 10
ATOM     10  CG  ASP R  39       7.350 -19.312  15.067  1.00 44.48 LIG 0.17  C 
ATOM     11 OD2  ASP R  39       6.703 -18.260  15.256  1.00 43.91 LIG-0.65  OA
ATOM     12 OD1  ASP R  39       6.925 -20.328  14.393  1.00 46.24 LIG-0.65  OA
ENDBRANCH 9 10
ENDBRANCH 8 9
BRANCH 8 13
ATOM     13  N   ASP R  39      11.007 -18.709  15.543  1.00 41.53 LIG-0.34  N 
ATOM     14 H    ASP R  39      11.518 -18.570  16.220  1.00 41.53 LIG 0.16  HD
ATOM     15  C   LEU R  38      11.475 -19.156  14.434  1.00 42.61 LIG 0.25  C 
ATOM     16 O    LEU R  38      10.742 -19.290  13.423  1.00 42.97 LIG-0.27  OA
BRANCH 15 17
ATOM     17  CA  LEU R  38      13.012 -19.337  14.431  1.00 43.36 LIG 0.28  C 
BRANCH 17 18
ATOM     18  N   LEU R  38      13.640 -18.079  14.022  1.00 44.18 LIG-0.07  N 
ATOM     19 H1   LEU R  38      13.009 -17.488  13.807  1.00 44.18 LIG 0.28  HD
ATOM     20 H2   LEU R  38      14.130 -17.759  14.692  1.00 44.18 LIG 0.28  HD
ATOM     21 H3   LEU R  38      14.163 -18.223  13.316  1.00 44.18 LIG 0.28  HD
ENDBRANCH 17 18
BRANCH 17 22
ATOM     22  CB  LEU R  38      13.699 -19.784  15.767  1.00 42.68 LIG 0.05  C 
BRANCH 22 23
ATOM     23  CG  LEU R  38      14.202 -18.710  16.728  1.00 43.59 LIG-0.02  C 
ATOM     24  CD2 LEU R  38      15.727 -18.523  16.511  1.00 43.82 LIG 0.01  C 
ATOM     25  CD1 LEU R  38      13.885 -18.981  18.213  1.00 42.78 LIG 0.01  C 
ENDBRANCH 22 23
ENDBRANCH 17 22
ENDBRANCH 15 17
ENDBRANCH 8 13
ENDBRANCH 1 8
BRANCH 4 26
ATOM     26  C   PRO R  40      10.981 -16.798  19.544  1.00 39.48 LIG 0.24  C 
ATOM     27 O    PRO R  40      10.349 -15.707  19.276  1.00 40.12 LIG-0.27  OA
ATOM     28  N   ARG R  41      12.278 -16.727  19.854  1.00 39.52 LIG-0.35  N 
ATOM     29 H    ARG R  41      12.728 -17.431  20.060  1.00 39.52 LIG 0.16  HD
BRANCH 28 30
ATOM     30  CA  ARG R  41      13.118 -15.495  19.894  1.00 39.38 LIG 0.13  C 
BRANCH 30 31
ATOM     31  C   ARG R  41      14.631 -15.639  19.571  1.00 39.99 LIG 0.20  C 
ATOM     32 O    ARG R  41      15.364 -14.579  19.308  1.00 39.75 LIG-0.22  OA
ENDBRANCH 30 31
BRANCH 30 33
ATOM     33  CB  ARG R  41      12.997 -14.808  21.292  1.00 38.11 LIG 0.03  C 
BRANCH 33 34
ATOM     34  CG  ARG R  41      12.242 -13.455  21.083  1.00 35.63 LIG 0.02  C 
BRANCH 34 35
ATOM     35  CD  ARG R  41      12.086 -12.790  22.365  1.00 36.53 LIG 0.14  C 
BRANCH 35 36
ATOM     36  NE  ARG R  41      11.290 -13.460  23.472  1.00 36.92 LIG-0.23  N 
ATOM     37 HE   ARG R  41      11.317 -14.316  23.547  1.00 36.92 LIG 0.18  HD
ATOM     38  CZ  ARG R  41      10.522 -12.732  24.365  1.00 37.60 LIG 0.67  C 
ATOM     39  NH2 ARG R  41      10.042 -13.391  25.489  1.00 37.55 LIG-0.23  N 
ATOM     40  NH1 ARG R  41      10.350 -11.369  24.303  1.00 34.72 LIG-0.23  N 
ATOM     41 21HH ARG R  41      10.225 -14.223  25.610  1.00 37.55 LIG 0.17  HD
ATOM     42 22HH ARG R  41       9.562 -12.968  26.064  1.00 37.55 LIG 0.17  HD
ATOM     43 11HH ARG R  41      10.732 -10.916  23.680  1.00 34.72 LIG 0.17  HD
ATOM     44 12HH ARG R  41       9.860 -10.971  24.887  1.00 34.72 LIG 0.17  HD
ENDBRANCH 35 36
ENDBRANCH 34 35
ENDBRANCH 33 34
ENDBRANCH 30 33
ENDBRANCH 28 30
ENDBRANCH 4 26
TORSDOF 15
ENDMDL
