MODEL 1
USER: ADFR SOLUTION from run 18
USER: SCORE 14.606466 LL:  -2.452 LR: -12.434 RR:   0.000 FEB:  -7.959
USER: RMSD 3.299101
USER: SEED 17
USER: STATUS no improvement in best 14 clusters for 5 generations
USER: GENES 17
USER: genes 0 Translation |==|  0.51325 0.51941 0.46880
USER: genes 1 Rotation |==|  0.59473 0.58986 0.52126 0.98218
USER: genes 2 Torsion [C]-CA--N-[C] |==|  0.66111
USER: genes 3 Torsion [N]-C--CA-[N] |==|  0.92067
USER: genes 4 Torsion [C]-CA--N-[C] |==|  0.81677
USER: genes 5 Torsion [N]-C--CA-[N] |==|  0.06727
USER: genes 6 Torsion [C]-CA--N-[H1] |==|  0.17004
USER: genes 7 Torsion [C]-CA--CB-[OG] |==|  0.68110
USER: genes 8 Torsion [CA]-CB--OG-[HG] |==|  0.12469
USER: genes 9 Torsion [N]-CA--CB-[CG1] |==|  0.67758
USER: genes 10 Torsion [N]-CA--C-[N] |==|  0.44706
USER: genes 11 Torsion [C]-N--CA-[C] |==|  0.62099
USER: genes 12 Torsion [N]-CA--C-[N] |==|  0.40453
USER: genes 13 Torsion [C]-N--CA-[CB] |==|  0.14714
USER: genes 14 Torsion [N]-CA--C-[O] |==|  0.86143
USER: genes 15 Torsion [N]-CA--CB-[OG] |==|  0.57504
USER: genes 16 Torsion [CA]-CB--OG-[HG] |==|  0.93475
ROOT
ATOM      1  CA  VAL B 303      13.527   4.362  31.814  1.00 28.18 LIG 0.18  C 
ENDROOT
BRANCH 1 2
ATOM      2  N   VAL B 303      12.586   3.727  32.727  1.00 29.68 LIG-0.35  N 
ATOM      3  C   SER B 302      12.566   2.410  32.918  1.00 31.00 LIG 0.24  C 
ATOM      4 O    SER B 302      13.323   1.639  32.313  1.00 32.88 LIG-0.27  OA
ATOM      5 H    VAL B 303      12.055   4.275  33.124  1.00 29.68 LIG 0.16  HD
BRANCH 3 6
ATOM      6  CA  SER B 302      11.522   1.881  33.922  1.00 30.54 LIG 0.20  C 
BRANCH 6 7
ATOM      7  N   SER B 302      11.203   2.872  34.953  1.00 26.47 LIG-0.34  N 
ATOM      8  C   ALA B 301      12.099   3.276  35.853  1.00 26.40 LIG 0.25  C 
ATOM      9 O    ALA B 301      13.245   2.831  35.919  1.00 23.28 LIG-0.27  OA
ATOM     10 H    SER B 302      10.394   3.163  34.923  1.00 26.47 LIG 0.16  HD
BRANCH 8 11
ATOM     11  CA  ALA B 301      11.624   4.326  36.858  1.00 27.42 LIG 0.27  C 
ATOM     12  CB  ALA B 301      12.293   4.101  38.247  1.00 28.79 LIG 0.05  C 
BRANCH 11 13
ATOM     13  N   ALA B 301      10.135   4.257  37.000  1.00 29.28 LIG-0.07  N 
ATOM     14 H1   ALA B 301       9.902   3.454  37.305  1.00 29.28 LIG 0.28  HD
ATOM     15 H2   ALA B 301       9.862   4.882  37.572  1.00 29.28 LIG 0.28  HD
ATOM     16 H3   ALA B 301       9.753   4.394  36.208  1.00 29.28 LIG 0.28  HD
ENDBRANCH 11 13
ENDBRANCH 8 11
ENDBRANCH 6 7
BRANCH 6 17
ATOM     17  CB  SER B 302      10.263   1.461  33.156  1.00 31.87 LIG 0.20  C 
BRANCH 17 18
ATOM     18 OG   SER B 302       9.175   2.286  33.511  1.00 37.10 LIG-0.40  OA
ATOM     19 HG   SER B 302       9.423   3.089  33.520  1.00 37.10 LIG 0.21  HD
ENDBRANCH 17 18
ENDBRANCH 6 17
ENDBRANCH 3 6
ENDBRANCH 1 2
BRANCH 1 20
ATOM     20  CB  VAL B 303      12.778   5.091  30.633  1.00 29.00 LIG 0.01  C 
ATOM     21  CG1 VAL B 303      13.136   4.434  29.316  1.00 28.23 LIG 0.01  C 
ATOM     22  CG2 VAL B 303      11.258   5.022  30.830  1.00 26.76 LIG 0.01  C 
ENDBRANCH 1 20
BRANCH 1 23
ATOM     23  C   VAL B 303      14.336   5.370  32.613  1.00 28.25 LIG 0.24  C 
ATOM     24 O    VAL B 303      13.940   5.760  33.717  1.00 25.63 LIG-0.27  OA
ATOM     25  N   SER B 304      15.487   5.777  32.094  1.00 28.07 LIG-0.34  N 
ATOM     26 H    SER B 304      15.817   5.498  31.350  1.00 28.07 LIG 0.16  HD
BRANCH 25 27
ATOM     27  CA  SER B 304      16.290   6.769  32.796  1.00 30.78 LIG 0.20  C 
BRANCH 27 28
ATOM     28  C   SER B 304      16.794   7.787  31.764  1.00 31.57 LIG 0.24  C 
ATOM     29 O    SER B 304      17.096   7.421  30.624  1.00 32.88 LIG-0.27  OA
ATOM     30  N   ALA B 305      16.907   9.051  32.170  1.00 33.00 LIG-0.35  N 
ATOM     31 H    ALA B 305      16.731   9.302  32.973  1.00 33.00 LIG 0.16  HD
BRANCH 30 32
ATOM     32  CA  ALA B 305      17.342  10.147  31.293  1.00 34.21 LIG 0.16  C 
ATOM     33  CB  ALA B 305      16.458  10.162  29.997  1.00 33.59 LIG 0.04  C 
BRANCH 32 34
ATOM     34  C   ALA B 305      17.220  11.492  31.992  1.00 34.64 LIG 0.22  C 
ATOM     35 O    ALA B 305      16.130  11.764  32.554  1.00 35.93 LIG-0.29  OA
ENDBRANCH 32 34
ENDBRANCH 30 32
ENDBRANCH 27 28
BRANCH 27 36
ATOM     36  CB  SER B 304      17.465   6.096  33.505  1.00 32.96 LIG 0.20  C 
BRANCH 36 37
ATOM     37 OG   SER B 304      17.849   6.872  34.629  1.00 37.22 LIG-0.40  OA
ATOM     38 HG   SER B 304      17.604   7.668  34.517  1.00 37.22 LIG 0.21  HD
ENDBRANCH 36 37
ENDBRANCH 27 36
ENDBRANCH 25 27
ENDBRANCH 1 23
TORSDOF 15
ENDMDL
MODEL 2
USER: ADFR SOLUTION from run 16
USER: SCORE 13.934903 LL:  -2.393 LR: -12.021 RR:   0.000 FEB:  -7.546
USER: RMSD 9.256290
USER: SEED 824507
USER: STATUS no improvement in best 8 clusters for 5 generations
USER: GENES 17
USER: genes 0 Translation |==|  0.50703 0.55375 0.45080
USER: genes 1 Rotation |==|  0.35353 0.44617 0.03077 0.57397
USER: genes 2 Torsion [C]-CA--N-[C] |==|  0.83030
USER: genes 3 Torsion [N]-C--CA-[N] |==|  0.34465
USER: genes 4 Torsion [C]-CA--N-[C] |==|  0.62778
USER: genes 5 Torsion [N]-C--CA-[N] |==|  0.32403
USER: genes 6 Torsion [C]-CA--N-[H1] |==|  0.95694
USER: genes 7 Torsion [C]-CA--CB-[OG] |==|  0.77366
USER: genes 8 Torsion [CA]-CB--OG-[HG] |==|  0.02635
USER: genes 9 Torsion [N]-CA--CB-[CG1] |==|  0.71956
USER: genes 10 Torsion [N]-CA--C-[N] |==|  0.32874
USER: genes 11 Torsion [C]-N--CA-[C] |==|  0.73635
USER: genes 12 Torsion [N]-CA--C-[N] |==|  0.97146
USER: genes 13 Torsion [C]-N--CA-[CB] |==|  0.85095
USER: genes 14 Torsion [N]-CA--C-[O] |==|  0.40804
USER: genes 15 Torsion [N]-CA--CB-[OG] |==|  0.92269
USER: genes 16 Torsion [CA]-CB--OG-[HG] |==|  0.60244
ROOT
ATOM      1  CA  VAL B 303      13.341   5.393  31.274  1.00 28.18 LIG 0.18  C 
ENDROOT
BRANCH 1 2
ATOM      2  N   VAL B 303      14.610   6.071  31.046  1.00 29.68 LIG-0.35  N 
ATOM      3  C   SER B 302      15.261   6.701  32.021  1.00 31.00 LIG 0.24  C 
ATOM      4 O    SER B 302      14.818   6.775  33.176  1.00 32.88 LIG-0.27  OA
ATOM      5 H    VAL B 303      14.893   6.027  30.235  1.00 29.68 LIG 0.16  HD
BRANCH 3 6
ATOM      6  CA  SER B 302      16.597   7.365  31.634  1.00 30.54 LIG 0.20  C 
BRANCH 6 7
ATOM      7  N   SER B 302      16.614   8.792  31.963  1.00 26.47 LIG-0.34  N 
ATOM      8  C   ALA B 301      17.051   9.716  31.107  1.00 26.40 LIG 0.25  C 
ATOM      9 O    ALA B 301      17.508   9.449  29.994  1.00 23.28 LIG-0.27  OA
ATOM     10 H    SER B 302      16.320   8.975  32.750  1.00 26.47 LIG 0.16  HD
BRANCH 8 11
ATOM     11  CA  ALA B 301      16.995  11.166  31.587  1.00 27.42 LIG 0.27  C 
ATOM     12  CB  ALA B 301      16.134  12.033  30.619  1.00 28.79 LIG 0.05  C 
BRANCH 11 13
ATOM     13  N   ALA B 301      18.380  11.729  31.669  1.00 29.28 LIG-0.07  N 
ATOM     14 H1   ALA B 301      18.973  11.066  31.644  1.00 29.28 LIG 0.28  HD
ATOM     15 H2   ALA B 301      18.519  12.277  30.981  1.00 29.28 LIG 0.28  HD
ATOM     16 H3   ALA B 301      18.473  12.180  32.430  1.00 29.28 LIG 0.28  HD
ENDBRANCH 11 13
ENDBRANCH 8 11
ENDBRANCH 6 7
BRANCH 6 17
ATOM     17  CB  SER B 302      17.742   6.626  32.333  1.00 31.87 LIG 0.20  C 
BRANCH 17 18
ATOM     18 OG   SER B 302      17.876   7.075  33.664  1.00 37.10 LIG-0.40  OA
ATOM     19 HG   SER B 302      17.223   7.566  33.860  1.00 37.10 LIG 0.21  HD
ENDBRANCH 17 18
ENDBRANCH 6 17
ENDBRANCH 3 6
ENDBRANCH 1 2
BRANCH 1 20
ATOM     20  CB  VAL B 303      12.776   4.769  29.940  1.00 29.00 LIG 0.01  C 
ATOM     21  CG1 VAL B 303      11.692   5.665  29.375  1.00 28.23 LIG 0.01  C 
ATOM     22  CG2 VAL B 303      13.891   4.616  28.898  1.00 26.76 LIG 0.01  C 
ENDBRANCH 1 20
BRANCH 1 23
ATOM     23  C   VAL B 303      13.582   4.294  32.296  1.00 28.25 LIG 0.24  C 
ATOM     24 O    VAL B 303      14.391   3.388  32.065  1.00 25.63 LIG-0.27  OA
ATOM     25  N   SER B 304      12.921   4.374  33.444  1.00 28.07 LIG-0.34  N 
ATOM     26 H    SER B 304      12.383   5.010  33.658  1.00 28.07 LIG 0.16  HD
BRANCH 25 27
ATOM     27  CA  SER B 304      13.083   3.332  34.449  1.00 30.78 LIG 0.20  C 
BRANCH 27 28
ATOM     28  C   SER B 304      11.949   2.315  34.264  1.00 31.57 LIG 0.24  C 
ATOM     29 O    SER B 304      11.983   1.230  34.853  1.00 32.88 LIG-0.27  OA
ATOM     30  N   ALA B 305      10.966   2.655  33.432  1.00 33.00 LIG-0.35  N 
ATOM     31 H    ALA B 305      10.958   3.395  32.994  1.00 33.00 LIG 0.16  HD
BRANCH 30 32
ATOM     32  CA  ALA B 305       9.793   1.806  33.174  1.00 34.21 LIG 0.16  C 
ATOM     33  CB  ALA B 305      10.271   0.376  32.738  1.00 33.59 LIG 0.04  C 
BRANCH 32 34
ATOM     34  C   ALA B 305       8.921   1.681  34.414  1.00 34.64 LIG 0.22  C 
ATOM     35 O    ALA B 305       7.681   1.575  34.250  1.00 35.93 LIG-0.29  OA
ENDBRANCH 32 34
ENDBRANCH 30 32
ENDBRANCH 27 28
BRANCH 27 36
ATOM     36  CB  SER B 304      13.041   3.937  35.852  1.00 32.96 LIG 0.20  C 
BRANCH 36 37
ATOM     37 OG   SER B 304      13.494   5.280  35.804  1.00 37.22 LIG-0.40  OA
ATOM     38 HG   SER B 304      13.938   5.451  36.495  1.00 37.22 LIG 0.21  HD
ENDBRANCH 36 37
ENDBRANCH 27 36
ENDBRANCH 25 27
ENDBRANCH 1 23
TORSDOF 15
ENDMDL
MODEL 3
USER: ADFR SOLUTION from run 52
USER: SCORE 14.102584 LL:  -2.554 LR: -11.717 RR:   0.000 FEB:  -7.242
USER: RMSD 4.704695
USER: SEED 51
USER: STATUS no improvement in best 4 clusters for 5 generations
USER: GENES 17
USER: genes 0 Translation |==|  0.53348 0.49536 0.42336
USER: genes 1 Rotation |==|  0.60288 0.72689 0.66897 0.89923
USER: genes 2 Torsion [C]-CA--N-[C] |==|  0.75073
USER: genes 3 Torsion [N]-C--CA-[N] |==|  0.36773
USER: genes 4 Torsion [C]-CA--N-[C] |==|  0.68889
USER: genes 5 Torsion [N]-C--CA-[N] |==|  0.89597
USER: genes 6 Torsion [C]-CA--N-[H1] |==|  0.66089
USER: genes 7 Torsion [C]-CA--CB-[OG] |==|  0.70384
USER: genes 8 Torsion [CA]-CB--OG-[HG] |==|  0.14481
USER: genes 9 Torsion [N]-CA--CB-[CG1] |==|  0.20857
USER: genes 10 Torsion [N]-CA--C-[N] |==|  0.99920
USER: genes 11 Torsion [C]-N--CA-[C] |==|  0.81669
USER: genes 12 Torsion [N]-CA--C-[N] |==|  0.38381
USER: genes 13 Torsion [C]-N--CA-[CB] |==|  0.15824
USER: genes 14 Torsion [N]-CA--C-[O] |==|  0.03485
USER: genes 15 Torsion [N]-CA--CB-[OG] |==|  0.77813
USER: genes 16 Torsion [CA]-CB--OG-[HG] |==|  0.57538
ROOT
ATOM      1  CA  VAL B 303      14.134   3.641  30.451  1.00 28.18 LIG 0.18  C 
ENDROOT
BRANCH 1 2
ATOM      2  N   VAL B 303      14.335   2.545  31.390  1.00 29.68 LIG-0.35  N 
ATOM      3  C   SER B 302      15.504   1.921  31.510  1.00 31.00 LIG 0.24  C 
ATOM      4 O    SER B 302      16.487   2.211  30.814  1.00 32.88 LIG-0.27  OA
ATOM      5 H    VAL B 303      13.637   2.343  31.851  1.00 29.68 LIG 0.16  HD
BRANCH 3 6
ATOM      6  CA  SER B 302      15.569   0.786  32.552  1.00 30.54 LIG 0.20  C 
BRANCH 6 7
ATOM      7  N   SER B 302      16.191  -0.423  32.007  1.00 26.47 LIG-0.34  N 
ATOM      8  C   ALA B 301      15.504  -1.546  31.800  1.00 26.40 LIG 0.25  C 
ATOM      9 O    ALA B 301      14.311  -1.675  32.082  1.00 23.28 LIG-0.27  OA
ATOM     10 H    SER B 302      17.030  -0.340  31.835  1.00 26.47 LIG 0.16  HD
BRANCH 8 11
ATOM     11  CA  ALA B 301      16.285  -2.720  31.212  1.00 27.42 LIG 0.27  C 
ATOM     12  CB  ALA B 301      17.030  -3.503  32.334  1.00 28.79 LIG 0.05  C 
BRANCH 11 13
ATOM     13  N   ALA B 301      17.275  -2.220  30.206  1.00 29.28 LIG-0.07  N 
ATOM     14 H1   ALA B 301      17.120  -2.606  29.419  1.00 29.28 LIG 0.28  HD
ATOM     15 H2   ALA B 301      17.195  -1.338  30.124  1.00 29.28 LIG 0.28  HD
ATOM     16 H3   ALA B 301      18.099  -2.419  30.475  1.00 29.28 LIG 0.28  HD
ENDBRANCH 11 13
ENDBRANCH 8 11
ENDBRANCH 6 7
BRANCH 6 17
ATOM     17  CB  SER B 302      16.329   1.286  33.785  1.00 31.87 LIG 0.20  C 
BRANCH 17 18
ATOM     18 OG   SER B 302      17.614   0.705  33.838  1.00 37.10 LIG-0.40  OA
ATOM     19 HG   SER B 302      18.005   0.823  33.104  1.00 37.10 LIG 0.21  HD
ENDBRANCH 17 18
ENDBRANCH 6 17
ENDBRANCH 3 6
ENDBRANCH 1 2
BRANCH 1 20
ATOM     20  CB  VAL B 303      12.644   3.691  29.938  1.00 29.00 LIG 0.01  C 
ATOM     21  CG1 VAL B 303      11.747   4.251  31.024  1.00 28.23 LIG 0.01  C 
ATOM     22  CG2 VAL B 303      12.529   4.575  28.690  1.00 26.76 LIG 0.01  C 
ENDBRANCH 1 20
BRANCH 1 23
ATOM     23  C   VAL B 303      14.478   4.934  31.171  1.00 28.25 LIG 0.24  C 
ATOM     24 O    VAL B 303      14.363   6.022  30.597  1.00 25.63 LIG-0.27  OA
ATOM     25  N   SER B 304      14.865   4.842  32.437  1.00 28.07 LIG-0.34  N 
ATOM     26 H    SER B 304      14.916   4.108  32.883  1.00 28.07 LIG 0.16  HD
BRANCH 25 27
ATOM     27  CA  SER B 304      15.242   6.043  33.170  1.00 30.78 LIG 0.20  C 
BRANCH 27 28
ATOM     28  C   SER B 304      16.516   6.609  32.529  1.00 31.57 LIG 0.24  C 
ATOM     29 O    SER B 304      17.437   5.853  32.203  1.00 32.88 LIG-0.27  OA
ATOM     30  N   ALA B 305      16.577   7.930  32.375  1.00 33.00 LIG-0.35  N 
ATOM     31 H    ALA B 305      15.952   8.461  32.634  1.00 33.00 LIG 0.16  HD
BRANCH 30 32
ATOM     32  CA  ALA B 305      17.714   8.620  31.749  1.00 34.21 LIG 0.16  C 
ATOM     33  CB  ALA B 305      17.937   8.052  30.303  1.00 33.59 LIG 0.04  C 
BRANCH 32 34
ATOM     34  C   ALA B 305      17.466  10.119  31.660  1.00 34.64 LIG 0.22  C 
ATOM     35 O    ALA B 305      16.505  10.593  32.314  1.00 35.93 LIG-0.29  OA
ENDBRANCH 32 34
ENDBRANCH 30 32
ENDBRANCH 27 28
BRANCH 27 36
ATOM     36  CB  SER B 304      15.481   5.713  34.644  1.00 32.96 LIG 0.20  C 
BRANCH 36 37
ATOM     37 OG   SER B 304      14.236   5.624  35.318  1.00 37.22 LIG-0.40  OA
ATOM     38 HG   SER B 304      14.342   5.813  36.129  1.00 37.22 LIG 0.21  HD
ENDBRANCH 36 37
ENDBRANCH 27 36
ENDBRANCH 25 27
ENDBRANCH 1 23
TORSDOF 15
ENDMDL
MODEL 4
USER: ADFR SOLUTION from run 141
USER: SCORE 12.876749 LL:  -2.694 LR: -11.658 RR:   0.000 FEB:  -7.183
USER: RMSD 12.000352
USER: SEED 140
USER: STATUS no improvement in best 28 clusters for 5 generations
USER: GENES 17
USER: genes 0 Translation |==|  0.60578 0.73748 0.41175
USER: genes 1 Rotation |==|  0.46094 0.15392 0.22047 0.72487
USER: genes 2 Torsion [C]-CA--N-[C] |==|  0.72595
USER: genes 3 Torsion [N]-C--CA-[N] |==|  0.68371
USER: genes 4 Torsion [C]-CA--N-[C] |==|  0.80556
USER: genes 5 Torsion [N]-C--CA-[N] |==|  0.54463
USER: genes 6 Torsion [C]-CA--N-[H1] |==|  0.84141
USER: genes 7 Torsion [C]-CA--CB-[OG] |==|  0.26054
USER: genes 8 Torsion [CA]-CB--OG-[HG] |==|  0.37664
USER: genes 9 Torsion [N]-CA--CB-[CG1] |==|  0.20168
USER: genes 10 Torsion [N]-CA--C-[N] |==|  0.04722
USER: genes 11 Torsion [C]-N--CA-[C] |==|  0.62362
USER: genes 12 Torsion [N]-CA--C-[N] |==|  0.40724
USER: genes 13 Torsion [C]-N--CA-[CB] |==|  0.81268
USER: genes 14 Torsion [N]-CA--C-[O] |==|  0.50589
USER: genes 15 Torsion [N]-CA--CB-[OG] |==|  0.95132
USER: genes 16 Torsion [CA]-CB--OG-[HG] |==|  0.76184
ROOT
ATOM      1  CA  VAL B 303      16.303  10.904  30.102  1.00 28.18 LIG 0.18  C 
ENDROOT
BRANCH 1 2
ATOM      2  N   VAL B 303      16.549  11.890  29.058  1.00 29.68 LIG-0.35  N 
ATOM      3  C   SER B 302      15.561  12.442  28.359  1.00 31.00 LIG 0.24  C 
ATOM      4 O    SER B 302      14.373  12.132  28.529  1.00 32.88 LIG-0.27  OA
ATOM      5 H    VAL B 303      17.380  12.078  28.939  1.00 29.68 LIG 0.16  HD
BRANCH 3 6
ATOM      6  CA  SER B 302      15.972  13.477  27.293  1.00 30.54 LIG 0.20  C 
BRANCH 6 7
ATOM      7  N   SER B 302      15.497  14.822  27.625  1.00 26.47 LIG-0.34  N 
ATOM      8  C   ALA B 301      14.207  15.153  27.580  1.00 26.40 LIG 0.25  C 
ATOM      9 O    ALA B 301      13.318  14.378  27.225  1.00 23.28 LIG-0.27  OA
ATOM     10 H    SER B 302      16.121  15.370  27.847  1.00 26.47 LIG 0.16  HD
BRANCH 8 11
ATOM     11  CA  ALA B 301      13.862  16.591  27.969  1.00 27.42 LIG 0.27  C 
ATOM     12  CB  ALA B 301      14.671  17.031  29.226  1.00 28.79 LIG 0.05  C 
BRANCH 11 13
ATOM     13  N   ALA B 301      12.396  16.705  28.249  1.00 29.28 LIG-0.07  N 
ATOM     14 H1   ALA B 301      11.935  16.439  27.536  1.00 29.28 LIG 0.28  HD
ATOM     15 H2   ALA B 301      12.186  16.193  28.946  1.00 29.28 LIG 0.28  HD
ATOM     16 H3   ALA B 301      12.193  17.552  28.433  1.00 29.28 LIG 0.28  HD
ENDBRANCH 11 13
ENDBRANCH 8 11
ENDBRANCH 6 7
BRANCH 6 17
ATOM     17  CB  SER B 302      17.496  13.455  27.139  1.00 31.87 LIG 0.20  C 
BRANCH 17 18
ATOM     18 OG   SER B 302      17.871  12.588  26.090  1.00 37.10 LIG-0.40  OA
ATOM     19 HG   SER B 302      18.459  12.957  25.619  1.00 37.10 LIG 0.21  HD
ENDBRANCH 17 18
ENDBRANCH 6 17
ENDBRANCH 3 6
ENDBRANCH 1 2
BRANCH 1 20
ATOM     20  CB  VAL B 303      17.391   9.762  30.081  1.00 29.00 LIG 0.01  C 
ATOM     21  CG1 VAL B 303      18.708  10.299  30.604  1.00 28.23 LIG 0.01  C 
ATOM     22  CG2 VAL B 303      16.952   8.578  30.952  1.00 26.76 LIG 0.01  C 
ENDBRANCH 1 20
BRANCH 1 23
ATOM     23  C   VAL B 303      16.340  11.628  31.438  1.00 28.25 LIG 0.24  C 
ATOM     24 O    VAL B 303      16.505  10.999  32.489  1.00 25.63 LIG-0.27  OA
ATOM     25  N   SER B 304      16.225  12.950  31.418  1.00 28.07 LIG-0.34  N 
ATOM     26 H    SER B 304      16.151  13.426  30.706  1.00 28.07 LIG 0.16  HD
BRANCH 25 27
ATOM     27  CA  SER B 304      16.217  13.697  32.669  1.00 30.78 LIG 0.20  C 
BRANCH 27 28
ATOM     28  C   SER B 304      15.094  14.740  32.590  1.00 31.57 LIG 0.24  C 
ATOM     29 O    SER B 304      14.825  15.285  31.515  1.00 32.88 LIG-0.27  OA
ATOM     30  N   ALA B 305      14.464  15.034  33.726  1.00 33.00 LIG-0.35  N 
ATOM     31 H    ALA B 305      14.674  14.682  34.482  1.00 33.00 LIG 0.16  HD
BRANCH 30 32
ATOM     32  CA  ALA B 305      13.348  15.986  33.810  1.00 34.21 LIG 0.16  C 
ATOM     33  CB  ALA B 305      13.873  17.434  33.508  1.00 33.59 LIG 0.04  C 
BRANCH 32 34
ATOM     34  C   ALA B 305      12.252  15.639  32.813  1.00 34.64 LIG 0.22  C 
ATOM     35 O    ALA B 305      11.254  16.398  32.751  1.00 35.93 LIG-0.29  OA
ENDBRANCH 32 34
ENDBRANCH 30 32
ENDBRANCH 27 28
BRANCH 27 36
ATOM     36  CB  SER B 304      17.568  14.375  32.891  1.00 32.96 LIG 0.20  C 
BRANCH 36 37
ATOM     37 OG   SER B 304      18.544  13.772  32.057  1.00 37.22 LIG-0.40  OA
ATOM     38 HG   SER B 304      18.863  13.097  32.441  1.00 37.22 LIG 0.21  HD
ENDBRANCH 36 37
ENDBRANCH 27 36
ENDBRANCH 25 27
ENDBRANCH 1 23
TORSDOF 15
ENDMDL
MODEL 5
USER: ADFR SOLUTION from run 153
USER: SCORE 13.303668 LL:  -2.282 LR: -11.601 RR:   0.000 FEB:  -7.126
USER: RMSD 1.504056
USER: SEED 152
USER: STATUS no improvement in best 19 clusters for 5 generations
USER: GENES 17
USER: genes 0 Translation |==|  0.51122 0.51262 0.46979
USER: genes 1 Rotation |==|  0.55723 0.53926 0.49691 0.99515
USER: genes 2 Torsion [C]-CA--N-[C] |==|  0.57914
USER: genes 3 Torsion [N]-C--CA-[N] |==|  0.45085
USER: genes 4 Torsion [C]-CA--N-[C] |==|  0.56131
USER: genes 5 Torsion [N]-C--CA-[N] |==|  0.60237
USER: genes 6 Torsion [C]-CA--N-[H1] |==|  0.22813
USER: genes 7 Torsion [C]-CA--CB-[OG] |==|  0.34641
USER: genes 8 Torsion [CA]-CB--OG-[HG] |==|  0.96198
USER: genes 9 Torsion [N]-CA--CB-[CG1] |==|  0.72901
USER: genes 10 Torsion [N]-CA--C-[N] |==|  0.50280
USER: genes 11 Torsion [C]-N--CA-[C] |==|  0.60525
USER: genes 12 Torsion [N]-CA--C-[N] |==|  0.41051
USER: genes 13 Torsion [C]-N--CA-[CB] |==|  0.16305
USER: genes 14 Torsion [N]-CA--C-[O] |==|  0.86863
USER: genes 15 Torsion [N]-CA--CB-[OG] |==|  0.68380
USER: genes 16 Torsion [CA]-CB--OG-[HG] |==|  0.98259
ROOT
ATOM      1  CA  VAL B 303      13.467   4.159  31.844  1.00 28.18 LIG 0.18  C 
ENDROOT
BRANCH 1 2
ATOM      2  N   VAL B 303      12.305   3.778  32.637  1.00 29.68 LIG-0.35  N 
ATOM      3  C   SER B 302      11.756   2.569  32.552  1.00 31.00 LIG 0.24  C 
ATOM      4 O    SER B 302      12.178   1.700  31.775  1.00 32.88 LIG-0.27  OA
ATOM      5 H    VAL B 303      12.013   4.399  33.155  1.00 29.68 LIG 0.16  HD
BRANCH 3 6
ATOM      6  CA  SER B 302      10.537   2.306  33.459  1.00 30.54 LIG 0.20  C 
BRANCH 6 7
ATOM      7  N   SER B 302       9.764   1.145  33.013  1.00 26.47 LIG-0.34  N 
ATOM      8  C   ALA B 301       8.483   0.973  33.342  1.00 26.40 LIG 0.25  C 
ATOM      9 O    ALA B 301       7.858   1.746  34.069  1.00 23.28 LIG-0.27  OA
ATOM     10 H    SER B 302      10.208   0.592  32.527  1.00 26.47 LIG 0.16  HD
BRANCH 8 11
ATOM     11  CA  ALA B 301       7.804  -0.280  32.790  1.00 27.42 LIG 0.27  C 
ATOM     12  CB  ALA B 301       8.561  -0.809  31.534  1.00 28.79 LIG 0.05  C 
BRANCH 11 13
ATOM     13  N   ALA B 301       6.384   0.027  32.429  1.00 29.28 LIG-0.07  N 
ATOM     14 H1   ALA B 301       6.357   0.405  31.623  1.00 29.28 LIG 0.28  HD
ATOM     15 H2   ALA B 301       5.910  -0.726  32.419  1.00 29.28 LIG 0.28  HD
ATOM     16 H3   ALA B 301       6.039   0.586  33.029  1.00 29.28 LIG 0.28  HD
ENDBRANCH 11 13
ENDBRANCH 8 11
ENDBRANCH 6 7
BRANCH 6 17
ATOM     17  CB  SER B 302      11.019   2.124  34.901  1.00 31.87 LIG 0.20  C 
BRANCH 17 18
ATOM     18 OG   SER B 302      10.358   3.030  35.757  1.00 37.10 LIG-0.40  OA
ATOM     19 HG   SER B 302       9.970   3.617  35.298  1.00 37.10 LIG 0.21  HD
ENDBRANCH 17 18
ENDBRANCH 6 17
ENDBRANCH 3 6
ENDBRANCH 1 2
BRANCH 1 20
ATOM     20  CB  VAL B 303      13.039   4.739  30.441  1.00 29.00 LIG 0.01  C 
ATOM     21  CG1 VAL B 303      13.129   3.652  29.388  1.00 28.23 LIG 0.01  C 
ATOM     22  CG2 VAL B 303      11.601   5.270  30.488  1.00 26.76 LIG 0.01  C 
ENDBRANCH 1 20
BRANCH 1 23
ATOM     23  C   VAL B 303      14.234   5.212  32.626  1.00 28.25 LIG 0.24  C 
ATOM     24 O    VAL B 303      13.859   5.552  33.754  1.00 25.63 LIG-0.27  OA
ATOM     25  N   SER B 304      15.327   5.712  32.065  1.00 28.07 LIG-0.34  N 
ATOM     26 H    SER B 304      15.642   5.470  31.302  1.00 28.07 LIG 0.16  HD
BRANCH 25 27
ATOM     27  CA  SER B 304      16.085   6.750  32.750  1.00 30.78 LIG 0.20  C 
BRANCH 27 28
ATOM     28  C   SER B 304      16.586   7.745  31.695  1.00 31.57 LIG 0.24  C 
ATOM     29 O    SER B 304      16.888   7.353  30.563  1.00 32.88 LIG-0.27  OA
ATOM     30  N   ALA B 305      16.696   9.018  32.072  1.00 33.00 LIG-0.35  N 
ATOM     31 H    ALA B 305      16.520   9.287  32.869  1.00 33.00 LIG 0.16  HD
BRANCH 30 32
ATOM     32  CA  ALA B 305      17.130  10.095  31.169  1.00 34.21 LIG 0.16  C 
ATOM     33  CB  ALA B 305      16.154  10.172  29.943  1.00 33.59 LIG 0.04  C 
BRANCH 32 34
ATOM     34  C   ALA B 305      17.138  11.439  31.882  1.00 34.64 LIG 0.22  C 
ATOM     35 O    ALA B 305      16.130  11.746  32.565  1.00 35.93 LIG-0.29  OA
ENDBRANCH 32 34
ENDBRANCH 30 32
ENDBRANCH 27 28
BRANCH 27 36
ATOM     36  CB  SER B 304      17.260   6.135  33.511  1.00 32.96 LIG 0.20  C 
BRANCH 36 37
ATOM     37 OG   SER B 304      17.061   6.302  34.905  1.00 37.22 LIG-0.40  OA
ATOM     38 HG   SER B 304      16.382   6.779  35.037  1.00 37.22 LIG 0.21  HD
ENDBRANCH 36 37
ENDBRANCH 27 36
ENDBRANCH 25 27
ENDBRANCH 1 23
TORSDOF 15
ENDMDL
MODEL 6
USER: ADFR SOLUTION from run 135
USER: SCORE 12.320769 LL:  -2.148 LR: -11.522 RR:   0.000 FEB:  -7.047
USER: RMSD 10.762207
USER: SEED 134
USER: STATUS no improvement in best 13 clusters for 5 generations
USER: GENES 17
USER: genes 0 Translation |==|  0.58277 0.76410 0.39984
USER: genes 1 Rotation |==|  0.47065 0.54663 0.11750 0.81727
USER: genes 2 Torsion [C]-CA--N-[C] |==|  0.83889
USER: genes 3 Torsion [N]-C--CA-[N] |==|  0.27883
USER: genes 4 Torsion [C]-CA--N-[C] |==|  0.72260
USER: genes 5 Torsion [N]-C--CA-[N] |==|  0.70561
USER: genes 6 Torsion [C]-CA--N-[H1] |==|  0.31301
USER: genes 7 Torsion [C]-CA--CB-[OG] |==|  0.20539
USER: genes 8 Torsion [CA]-CB--OG-[HG] |==|  0.68136
USER: genes 9 Torsion [N]-CA--CB-[CG1] |==|  0.79911
USER: genes 10 Torsion [N]-CA--C-[N] |==|  0.34523
USER: genes 11 Torsion [C]-N--CA-[C] |==|  0.52897
USER: genes 12 Torsion [N]-CA--C-[N] |==|  0.80361
USER: genes 13 Torsion [C]-N--CA-[CB] |==|  0.37485
USER: genes 14 Torsion [N]-CA--C-[O] |==|  0.65144
USER: genes 15 Torsion [N]-CA--CB-[OG] |==|  0.10251
USER: genes 16 Torsion [CA]-CB--OG-[HG] |==|  0.13281
ROOT
ATOM      1  CA  VAL B 303      15.613  11.703  29.745  1.00 28.18 LIG 0.18  C 
ENDROOT
BRANCH 1 2
ATOM      2  N   VAL B 303      15.774  12.948  30.485  1.00 29.68 LIG-0.35  N 
ATOM      3  C   SER B 302      15.878  12.976  31.811  1.00 31.00 LIG 0.24  C 
ATOM      4 O    SER B 302      15.816  11.950  32.503  1.00 32.88 LIG-0.27  OA
ATOM      5 H    VAL B 303      15.795  13.652  29.990  1.00 29.68 LIG 0.16  HD
BRANCH 3 6
ATOM      6  CA  SER B 302      16.053  14.365  32.455  1.00 30.54 LIG 0.20  C 
BRANCH 6 7
ATOM      7  N   SER B 302      14.796  14.876  33.006  1.00 26.47 LIG-0.34  N 
ATOM      8  C   ALA B 301      14.043  15.765  32.359  1.00 26.40 LIG 0.25  C 
ATOM      9 O    ALA B 301      14.354  16.256  31.272  1.00 23.28 LIG-0.27  OA
ATOM     10 H    SER B 302      14.593  14.552  33.777  1.00 26.47 LIG 0.16  HD
BRANCH 8 11
ATOM     11  CA  ALA B 301      12.751  16.193  33.054  1.00 27.42 LIG 0.27  C 
ATOM     12  CB  ALA B 301      12.771  15.780  34.556  1.00 28.79 LIG 0.05  C 
BRANCH 11 13
ATOM     13  N   ALA B 301      11.575  15.562  32.375  1.00 29.28 LIG-0.07  N 
ATOM     14 H1   ALA B 301      11.195  14.973  32.924  1.00 29.28 LIG 0.28  HD
ATOM     15 H2   ALA B 301      10.983  16.191  32.161  1.00 29.28 LIG 0.28  HD
ATOM     16 H3   ALA B 301      11.845  15.146  31.636  1.00 29.28 LIG 0.28  HD
ENDBRANCH 11 13
ENDBRANCH 8 11
ENDBRANCH 6 7
BRANCH 6 17
ATOM     17  CB  SER B 302      17.133  14.280  33.538  1.00 31.87 LIG 0.20  C 
BRANCH 17 18
ATOM     18 OG   SER B 302      18.412  14.184  32.949  1.00 37.10 LIG-0.40  OA
ATOM     19 HG   SER B 302      18.749  13.437  33.131  1.00 37.10 LIG 0.21  HD
ENDBRANCH 17 18
ENDBRANCH 6 17
ENDBRANCH 3 6
ENDBRANCH 1 2
BRANCH 1 20
ATOM     20  CB  VAL B 303      15.554  11.962  28.191  1.00 29.00 LIG 0.01  C 
ATOM     21  CG1 VAL B 303      14.229  12.603  27.828  1.00 28.23 LIG 0.01  C 
ATOM     22  CG2 VAL B 303      16.694  12.889  27.751  1.00 26.76 LIG 0.01  C 
ENDBRANCH 1 20
BRANCH 1 23
ATOM     23  C   VAL B 303      16.800  10.814  30.077  1.00 28.25 LIG 0.24  C 
ATOM     24 O    VAL B 303      17.955  11.228  29.929  1.00 25.63 LIG-0.27  OA
ATOM     25  N   SER B 304      16.539   9.605  30.558  1.00 28.07 LIG-0.34  N 
ATOM     26 H    SER B 304      15.752   9.297  30.714  1.00 28.07 LIG 0.16  HD
BRANCH 25 27
ATOM     27  CA  SER B 304      17.635   8.693  30.861  1.00 30.78 LIG 0.20  C 
BRANCH 27 28
ATOM     28  C   SER B 304      17.034   7.309  31.142  1.00 31.57 LIG 0.24  C 
ATOM     29 O    SER B 304      17.171   6.393  30.325  1.00 32.88 LIG-0.27  OA
ATOM     30  N   ALA B 305      16.353   7.168  32.278  1.00 33.00 LIG-0.35  N 
ATOM     31 H    ALA B 305      16.226   7.814  32.831  1.00 33.00 LIG 0.16  HD
BRANCH 30 32
ATOM     32  CA  ALA B 305      15.747   5.899  32.706  1.00 34.21 LIG 0.16  C 
ATOM     33  CB  ALA B 305      16.061   5.658  34.225  1.00 33.59 LIG 0.04  C 
BRANCH 32 34
ATOM     34  C   ALA B 305      14.239   5.916  32.508  1.00 34.64 LIG 0.22  C 
ATOM     35 O    ALA B 305      13.514   5.655  33.500  1.00 35.93 LIG-0.29  OA
ENDBRANCH 32 34
ENDBRANCH 30 32
ENDBRANCH 27 28
BRANCH 27 36
ATOM     36  CB  SER B 304      18.424   9.194  32.070  1.00 32.96 LIG 0.20  C 
BRANCH 36 37
ATOM     37 OG   SER B 304      17.534   9.775  33.009  1.00 37.22 LIG-0.40  OA
ATOM     38 HG   SER B 304      16.881   9.261  33.133  1.00 37.22 LIG 0.21  HD
ENDBRANCH 36 37
ENDBRANCH 27 36
ENDBRANCH 25 27
ENDBRANCH 1 23
TORSDOF 15
ENDMDL
MODEL 7
USER: ADFR SOLUTION from run 12
USER: SCORE 13.444514 LL:  -2.832 LR: -11.484 RR:   0.000 FEB:  -7.009
USER: RMSD 5.369595
USER: SEED 351657
USER: STATUS no improvement in best 2 clusters for 5 generations
USER: GENES 17
USER: genes 0 Translation |==|  0.52708 0.52507 0.40991
USER: genes 1 Rotation |==|  0.66499 0.75194 0.72340 0.83075
USER: genes 2 Torsion [C]-CA--N-[C] |==|  0.79082
USER: genes 3 Torsion [N]-C--CA-[N] |==|  0.68143
USER: genes 4 Torsion [C]-CA--N-[C] |==|  0.18126
USER: genes 5 Torsion [N]-C--CA-[N] |==|  0.91267
USER: genes 6 Torsion [C]-CA--N-[H1] |==|  0.03500
USER: genes 7 Torsion [C]-CA--CB-[OG] |==|  0.43566
USER: genes 8 Torsion [CA]-CB--OG-[HG] |==|  0.92237
USER: genes 9 Torsion [N]-CA--CB-[CG1] |==|  0.48708
USER: genes 10 Torsion [N]-CA--C-[N] |==|  0.98455
USER: genes 11 Torsion [C]-N--CA-[C] |==|  0.76876
USER: genes 12 Torsion [N]-CA--C-[N] |==|  0.31111
USER: genes 13 Torsion [C]-N--CA-[CB] |==|  0.22546
USER: genes 14 Torsion [N]-CA--C-[O] |==|  0.95286
USER: genes 15 Torsion [N]-CA--CB-[OG] |==|  0.74246
USER: genes 16 Torsion [CA]-CB--OG-[HG] |==|  0.60175
ROOT
ATOM      1  CA  VAL B 303      13.942   4.532  30.047  1.00 28.18 LIG 0.18  C 
ENDROOT
BRANCH 1 2
ATOM      2  N   VAL B 303      14.527   3.278  30.503  1.00 29.68 LIG-0.35  N 
ATOM      3  C   SER B 302      15.830   3.027  30.405  1.00 31.00 LIG 0.24  C 
ATOM      4 O    SER B 302      16.624   3.830  29.896  1.00 32.88 LIG-0.27  OA
ATOM      5 H    VAL B 303      13.958   2.724  30.836  1.00 29.68 LIG 0.16  HD
BRANCH 3 6
ATOM      6  CA  SER B 302      16.306   1.661  30.939  1.00 30.54 LIG 0.20  C 
BRANCH 6 7
ATOM      7  N   SER B 302      17.187   1.804  32.100  1.00 26.47 LIG-0.34  N 
ATOM      8  C   ALA B 301      16.762   2.302  33.261  1.00 26.40 LIG 0.25  C 
ATOM      9 O    ALA B 301      15.616   2.716  33.444  1.00 23.28 LIG-0.27  OA
ATOM     10 H    SER B 302      17.994   1.539  31.963  1.00 26.47 LIG 0.16  HD
BRANCH 8 11
ATOM     11  CA  ALA B 301      17.794   2.375  34.386  1.00 27.42 LIG 0.27  C 
ATOM     12  CB  ALA B 301      18.550   3.738  34.351  1.00 28.79 LIG 0.05  C 
BRANCH 11 13
ATOM     13  N   ALA B 301      18.776   1.253  34.250  1.00 29.28 LIG-0.07  N 
ATOM     14 H1   ALA B 301      18.683   0.872  33.451  1.00 29.28 LIG 0.28  HD
ATOM     15 H2   ALA B 301      19.603   1.570  34.333  1.00 29.28 LIG 0.28  HD
ATOM     16 H3   ALA B 301      18.625   0.648  34.885  1.00 29.28 LIG 0.28  HD
ENDBRANCH 11 13
ENDBRANCH 8 11
ENDBRANCH 6 7
BRANCH 6 17
ATOM     17  CB  SER B 302      15.081   0.806  31.281  1.00 31.87 LIG 0.20  C 
BRANCH 17 18
ATOM     18 OG   SER B 302      15.418  -0.564  31.258  1.00 37.10 LIG-0.40  OA
ATOM     19 HG   SER B 302      16.053  -0.687  30.722  1.00 37.10 LIG 0.21  HD
ENDBRANCH 17 18
ENDBRANCH 6 17
ENDBRANCH 3 6
ENDBRANCH 1 2
BRANCH 1 20
ATOM     20  CB  VAL B 303      12.376   4.417  29.905  1.00 29.00 LIG 0.01  C 
ATOM     21  CG1 VAL B 303      11.794   5.768  29.541  1.00 28.23 LIG 0.01  C 
ATOM     22  CG2 VAL B 303      12.002   3.402  28.817  1.00 26.76 LIG 0.01  C 
ENDBRANCH 1 20
BRANCH 1 23
ATOM     23  C   VAL B 303      14.292   5.602  31.068  1.00 28.25 LIG 0.24  C 
ATOM     24 O    VAL B 303      13.971   6.780  30.878  1.00 25.63 LIG-0.27  OA
ATOM     25  N   SER B 304      14.916   5.210  32.172  1.00 28.07 LIG-0.34  N 
ATOM     26 H    SER B 304      15.118   4.396  32.359  1.00 28.07 LIG 0.16  HD
BRANCH 25 27
ATOM     27  CA  SER B 304      15.309   6.194  33.171  1.00 30.78 LIG 0.20  C 
BRANCH 27 28
ATOM     28  C   SER B 304      16.648   6.803  32.735  1.00 31.57 LIG 0.24  C 
ATOM     29 O    SER B 304      17.678   6.122  32.756  1.00 32.88 LIG-0.27  OA
ATOM     30  N   ALA B 305      16.636   8.083  32.368  1.00 33.00 LIG-0.35  N 
ATOM     31 H    ALA B 305      15.927   8.569  32.386  1.00 33.00 LIG 0.16  HD
BRANCH 30 32
ATOM     32  CA  ALA B 305      17.829   8.801  31.893  1.00 34.21 LIG 0.16  C 
ATOM     33  CB  ALA B 305      18.068   8.470  30.378  1.00 33.59 LIG 0.04  C 
BRANCH 32 34
ATOM     34  C   ALA B 305      17.665  10.305  32.052  1.00 34.64 LIG 0.22  C 
ATOM     35 O    ALA B 305      16.505  10.753  32.228  1.00 35.93 LIG-0.29  OA
ENDBRANCH 32 34
ENDBRANCH 30 32
ENDBRANCH 27 28
BRANCH 27 36
ATOM     36  CB  SER B 304      15.440   5.534  34.544  1.00 32.96 LIG 0.20  C 
BRANCH 36 37
ATOM     37 OG   SER B 304      14.211   5.646  35.243  1.00 37.22 LIG-0.40  OA
ATOM     38 HG   SER B 304      14.363   5.770  36.060  1.00 37.22 LIG 0.21  HD
ENDBRANCH 36 37
ENDBRANCH 27 36
ENDBRANCH 25 27
ENDBRANCH 1 23
TORSDOF 15
ENDMDL
MODEL 8
USER: ADFR SOLUTION from run 154
USER: SCORE 12.585174 LL:  -2.373 LR: -11.422 RR:   0.000 FEB:  -6.948
USER: RMSD 6.726258
USER: SEED 153
USER: STATUS no improvement in best 10 clusters for 5 generations
USER: GENES 17
USER: genes 0 Translation |==|  0.60627 0.56949 0.46509
USER: genes 1 Rotation |==|  0.48808 0.72029 0.51101 0.94856
USER: genes 2 Torsion [C]-CA--N-[C] |==|  0.65000
USER: genes 3 Torsion [N]-C--CA-[N] |==|  0.88493
USER: genes 4 Torsion [C]-CA--N-[C] |==|  0.83981
USER: genes 5 Torsion [N]-C--CA-[N] |==|  0.12957
USER: genes 6 Torsion [C]-CA--N-[H1] |==|  0.04103
USER: genes 7 Torsion [C]-CA--CB-[OG] |==|  0.74779
USER: genes 8 Torsion [CA]-CB--OG-[HG] |==|  0.83282
USER: genes 9 Torsion [N]-CA--CB-[CG1] |==|  0.68185
USER: genes 10 Torsion [N]-CA--C-[N] |==|  0.99194
USER: genes 11 Torsion [C]-N--CA-[C] |==|  0.18930
USER: genes 12 Torsion [N]-CA--C-[N] |==|  0.49445
USER: genes 13 Torsion [C]-N--CA-[CB] |==|  0.86051
USER: genes 14 Torsion [N]-CA--C-[O] |==|  0.96193
USER: genes 15 Torsion [N]-CA--CB-[OG] |==|  0.47920
USER: genes 16 Torsion [CA]-CB--OG-[HG] |==|  0.16424
ROOT
ATOM      1  CA  VAL B 303      16.318   5.865  31.703  1.00 28.18 LIG 0.18  C 
ENDROOT
BRANCH 1 2
ATOM      2  N   VAL B 303      16.083   5.656  33.126  1.00 29.68 LIG-0.35  N 
ATOM      3  C   SER B 302      16.399   4.517  33.736  1.00 31.00 LIG 0.24  C 
ATOM      4 O    SER B 302      16.886   3.552  33.130  1.00 32.88 LIG-0.27  OA
ATOM      5 H    VAL B 303      15.726   6.329  33.526  1.00 29.68 LIG 0.16  HD
BRANCH 3 6
ATOM      6  CA  SER B 302      16.100   4.445  35.246  1.00 30.54 LIG 0.20  C 
BRANCH 6 7
ATOM      7  N   SER B 302      16.447   5.691  35.933  1.00 26.47 LIG-0.34  N 
ATOM      8  C   ALA B 301      17.678   6.203  35.902  1.00 26.40 LIG 0.25  C 
ATOM      9 O    ALA B 301      18.626   5.660  35.333  1.00 23.28 LIG-0.27  OA
ATOM     10 H    SER B 302      15.791   6.056  36.353  1.00 26.47 LIG 0.16  HD
BRANCH 8 11
ATOM     11  CA  ALA B 301      17.884   7.518  36.654  1.00 27.42 LIG 0.27  C 
ATOM     12  CB  ALA B 301      19.402   7.839  36.795  1.00 28.79 LIG 0.05  C 
BRANCH 11 13
ATOM     13  N   ALA B 301      17.260   7.431  38.012  1.00 29.28 LIG-0.07  N 
ATOM     14 H1   ALA B 301      17.082   6.580  38.204  1.00 29.28 LIG 0.28  HD
ATOM     15 H2   ALA B 301      17.823   7.759  38.619  1.00 29.28 LIG 0.28  HD
ATOM     16 H3   ALA B 301      16.505   7.901  38.024  1.00 29.28 LIG 0.28  HD
ENDBRANCH 11 13
ENDBRANCH 8 11
ENDBRANCH 6 7
BRANCH 6 17
ATOM     17  CB  SER B 302      14.621   4.101  35.447  1.00 31.87 LIG 0.20  C 
BRANCH 17 18
ATOM     18 OG   SER B 302      13.851   5.280  35.532  1.00 37.10 LIG-0.40  OA
ATOM     19 HG   SER B 302      14.113   5.740  36.183  1.00 37.10 LIG 0.21  HD
ENDBRANCH 17 18
ENDBRANCH 6 17
ENDBRANCH 3 6
ENDBRANCH 1 2
BRANCH 1 20
ATOM     20  CB  VAL B 303      14.961   5.999  30.910  1.00 29.00 LIG 0.01  C 
ATOM     21  CG1 VAL B 303      14.806   4.831  29.958  1.00 28.23 LIG 0.01  C 
ATOM     22  CG2 VAL B 303      13.769   6.019  31.875  1.00 26.76 LIG 0.01  C 
ENDBRANCH 1 20
BRANCH 1 23
ATOM     23  C   VAL B 303      17.134   7.138  31.552  1.00 28.25 LIG 0.24  C 
ATOM     24 O    VAL B 303      17.487   7.529  30.434  1.00 25.63 LIG-0.27  OA
ATOM     25  N   SER B 304      17.412   7.818  32.657  1.00 28.07 LIG-0.34  N 
ATOM     26 H    SER B 304      17.148   7.602  33.447  1.00 28.07 LIG 0.16  HD
BRANCH 25 27
ATOM     27  CA  SER B 304      18.220   9.027  32.581  1.00 30.78 LIG 0.20  C 
BRANCH 27 28
ATOM     28  C   SER B 304      17.403  10.098  31.846  1.00 31.57 LIG 0.24  C 
ATOM     29 O    SER B 304      16.289   9.825  31.388  1.00 32.88 LIG-0.27  OA
ATOM     30  N   ALA B 305      17.965  11.298  31.713  1.00 33.00 LIG-0.35  N 
ATOM     31 H    ALA B 305      18.755  11.480  32.000  1.00 33.00 LIG 0.16  HD
BRANCH 30 32
ATOM     32  CA  ALA B 305      17.298  12.437  31.064  1.00 34.21 LIG 0.16  C 
ATOM     33  CB  ALA B 305      16.737  11.987  29.670  1.00 33.59 LIG 0.04  C 
BRANCH 32 34
ATOM     34  C   ALA B 305      16.152  12.961  31.915  1.00 34.64 LIG 0.22  C 
ATOM     35 O    ALA B 305      15.754  12.245  32.867  1.00 35.93 LIG-0.29  OA
ENDBRANCH 32 34
ENDBRANCH 30 32
ENDBRANCH 27 28
BRANCH 27 36
ATOM     36  CB  SER B 304      19.528   8.746  31.841  1.00 32.96 LIG 0.20  C 
BRANCH 36 37
ATOM     37 OG   SER B 304      20.222   9.964  31.625  1.00 37.22 LIG-0.40  OA
ATOM     38 HG   SER B 304      20.381  10.331  32.363  1.00 37.22 LIG 0.21  HD
ENDBRANCH 36 37
ENDBRANCH 27 36
ENDBRANCH 25 27
ENDBRANCH 1 23
TORSDOF 15
ENDMDL
MODEL 9
USER: ADFR SOLUTION from run 108
USER: SCORE 13.511645 LL:  -2.512 LR: -11.412 RR:   0.000 FEB:  -6.938
USER: RMSD 9.950348
USER: SEED 107
USER: STATUS no improvement in best 8 clusters for 5 generations
USER: GENES 17
USER: genes 0 Translation |==|  0.60332 0.56517 0.47924
USER: genes 1 Rotation |==|  0.23661 0.83123 0.76260 0.54428
USER: genes 2 Torsion [C]-CA--N-[C] |==|  0.62222
USER: genes 3 Torsion [N]-C--CA-[N] |==|  0.39936
USER: genes 4 Torsion [C]-CA--N-[C] |==|  0.83734
USER: genes 5 Torsion [N]-C--CA-[N] |==|  0.22339
USER: genes 6 Torsion [C]-CA--N-[H1] |==|  0.11103
USER: genes 7 Torsion [C]-CA--CB-[OG] |==|  0.30765
USER: genes 8 Torsion [CA]-CB--OG-[HG] |==|  0.90540
USER: genes 9 Torsion [N]-CA--CB-[CG1] |==|  0.59931
USER: genes 10 Torsion [N]-CA--C-[N] |==|  0.35006
USER: genes 11 Torsion [C]-N--CA-[C] |==|  0.71501
USER: genes 12 Torsion [N]-CA--C-[N] |==|  0.30848
USER: genes 13 Torsion [C]-N--CA-[CB] |==|  0.21219
USER: genes 14 Torsion [N]-CA--C-[O] |==|  0.26947
USER: genes 15 Torsion [N]-CA--CB-[OG] |==|  0.12806
USER: genes 16 Torsion [CA]-CB--OG-[HG] |==|  0.13205
ROOT
ATOM      1  CA  VAL B 303      16.229   5.735  32.127  1.00 28.18 LIG 0.18  C 
ENDROOT
BRANCH 1 2
ATOM      2  N   VAL B 303      16.664   7.059  32.555  1.00 29.68 LIG-0.35  N 
ATOM      3  C   SER B 302      17.628   7.725  31.925  1.00 31.00 LIG 0.24  C 
ATOM      4 O    SER B 302      18.236   7.254  30.954  1.00 32.88 LIG-0.27  OA
ATOM      5 H    VAL B 303      16.245   7.362  33.242  1.00 29.68 LIG 0.16  HD
BRANCH 3 6
ATOM      6  CA  SER B 302      17.974   9.119  32.485  1.00 30.54 LIG 0.20  C 
BRANCH 6 7
ATOM      7  N   SER B 302      19.408   9.405  32.393  1.00 26.47 LIG-0.34  N 
ATOM      8  C   ALA B 301      20.326   8.634  32.975  1.00 26.40 LIG 0.25  C 
ATOM      9 O    ALA B 301      20.051   7.650  33.663  1.00 23.28 LIG-0.27  OA
ATOM     10 H    SER B 302      19.598  10.107  31.935  1.00 26.47 LIG 0.16  HD
BRANCH 8 11
ATOM     11  CA  ALA B 301      21.784   9.051  32.779  1.00 27.42 LIG 0.27  C 
ATOM     12  CB  ALA B 301      22.738   7.841  33.013  1.00 28.79 LIG 0.05  C 
BRANCH 11 13
ATOM     13  N   ALA B 301      22.130  10.155  33.730  1.00 29.28 LIG-0.07  N 
ATOM     14 H1   ALA B 301      21.754   9.995  34.521  1.00 29.28 LIG 0.28  HD
ATOM     15 H2   ALA B 301      23.013  10.198  33.826  1.00 29.28 LIG 0.28  HD
ATOM     16 H3   ALA B 301      21.828  10.929  33.410  1.00 29.28 LIG 0.28  HD
ENDBRANCH 11 13
ENDBRANCH 8 11
ENDBRANCH 6 7
BRANCH 6 17
ATOM     17  CB  SER B 302      17.155  10.175  31.735  1.00 31.87 LIG 0.20  C 
BRANCH 17 18
ATOM     18 OG   SER B 302      16.184  10.740  32.589  1.00 37.10 LIG-0.40  OA
ATOM     19 HG   SER B 302      15.909  10.155  33.125  1.00 37.10 LIG 0.21  HD
ENDBRANCH 17 18
ENDBRANCH 6 17
ENDBRANCH 3 6
ENDBRANCH 1 2
BRANCH 1 20
ATOM     20  CB  VAL B 303      16.803   4.610  33.072  1.00 29.00 LIG 0.01  C 
ATOM     21  CG1 VAL B 303      17.129   3.374  32.257  1.00 28.23 LIG 0.01  C 
ATOM     22  CG2 VAL B 303      18.076   5.092  33.779  1.00 26.76 LIG 0.01  C 
ENDBRANCH 1 20
BRANCH 1 23
ATOM     23  C   VAL B 303      14.710   5.715  32.162  1.00 28.25 LIG 0.24  C 
ATOM     24 O    VAL B 303      14.101   6.060  33.181  1.00 25.63 LIG-0.27  OA
ATOM     25  N   SER B 304      14.080   5.349  31.054  1.00 28.07 LIG-0.34  N 
ATOM     26 H    SER B 304      14.467   5.143  30.314  1.00 28.07 LIG 0.16  HD
BRANCH 25 27
ATOM     27  CA  SER B 304      12.625   5.275  31.036  1.00 30.78 LIG 0.20  C 
BRANCH 27 28
ATOM     28  C   SER B 304      12.225   3.798  31.138  1.00 31.57 LIG 0.24  C 
ATOM     29 O    SER B 304      12.427   3.031  30.191  1.00 32.88 LIG-0.27  OA
ATOM     30  N   ALA B 305      11.639   3.409  32.269  1.00 33.00 LIG-0.35  N 
ATOM     31 H    ALA B 305      11.465   3.949  32.916  1.00 33.00 LIG 0.16  HD
BRANCH 30 32
ATOM     32  CA  ALA B 305      11.227   2.023  32.534  1.00 34.21 LIG 0.16  C 
ATOM     33  CB  ALA B 305      12.490   1.163  32.889  1.00 33.59 LIG 0.04  C 
BRANCH 32 34
ATOM     34  C   ALA B 305      10.239   1.953  33.688  1.00 34.64 LIG 0.22  C 
ATOM     35 O    ALA B 305       9.015   1.905  33.409  1.00 35.93 LIG-0.29  OA
ENDBRANCH 32 34
ENDBRANCH 30 32
ENDBRANCH 27 28
BRANCH 27 36
ATOM     36  CB  SER B 304      12.078   5.894  29.750  1.00 32.96 LIG 0.20  C 
BRANCH 36 37
ATOM     37 OG   SER B 304      12.821   5.416  28.640  1.00 37.22 LIG-0.40  OA
ATOM     38 HG   SER B 304      12.898   4.582  28.693  1.00 37.22 LIG 0.21  HD
ENDBRANCH 36 37
ENDBRANCH 27 36
ENDBRANCH 25 27
ENDBRANCH 1 23
TORSDOF 15
ENDMDL
MODEL 10
USER: ADFR SOLUTION from run 86
USER: SCORE 13.096980 LL:  -2.163 LR: -11.382 RR:   0.000 FEB:  -6.907
USER: RMSD 9.112893
USER: SEED 85
USER: STATUS searching
USER: GENES 17
USER: genes 0 Translation |==|  0.48175 0.52316 0.45355
USER: genes 1 Rotation |==|  0.43282 0.53666 0.00623 0.51834
USER: genes 2 Torsion [C]-CA--N-[C] |==|  0.76159
USER: genes 3 Torsion [N]-C--CA-[N] |==|  0.27222
USER: genes 4 Torsion [C]-CA--N-[C] |==|  0.74037
USER: genes 5 Torsion [N]-C--CA-[N] |==|  0.04695
USER: genes 6 Torsion [C]-CA--N-[H1] |==|  0.69307
USER: genes 7 Torsion [C]-CA--CB-[OG] |==|  0.88465
USER: genes 8 Torsion [CA]-CB--OG-[HG] |==|  0.55465
USER: genes 9 Torsion [N]-CA--CB-[CG1] |==|  0.70098
USER: genes 10 Torsion [N]-CA--C-[N] |==|  0.21553
USER: genes 11 Torsion [C]-N--CA-[C] |==|  0.80487
USER: genes 12 Torsion [N]-CA--C-[N] |==|  0.36631
USER: genes 13 Torsion [C]-N--CA-[CB] |==|  0.50988
USER: genes 14 Torsion [N]-CA--C-[O] |==|  0.22312
USER: genes 15 Torsion [N]-CA--CB-[OG] |==|  0.09190
USER: genes 16 Torsion [CA]-CB--OG-[HG] |==|  0.09134
ROOT
ATOM      1  CA  VAL B 303      12.583   4.475  31.357  1.00 28.18 LIG 0.18  C 
ENDROOT
BRANCH 1 2
ATOM      2  N   VAL B 303      13.977   4.726  31.699  1.00 29.68 LIG-0.35  N 
ATOM      3  C   SER B 302      14.333   5.274  32.858  1.00 31.00 LIG 0.24  C 
ATOM      4 O    SER B 302      13.504   5.633  33.706  1.00 32.88 LIG-0.27  OA
ATOM      5 H    VAL B 303      14.537   4.489  31.090  1.00 29.68 LIG 0.16  HD
BRANCH 3 6
ATOM      6  CA  SER B 302      15.845   5.470  33.085  1.00 30.54 LIG 0.20  C 
BRANCH 6 7
ATOM      7  N   SER B 302      16.272   6.838  32.780  1.00 26.47 LIG-0.34  N 
ATOM      8  C   ALA B 301      16.742   7.187  31.582  1.00 26.40 LIG 0.25  C 
ATOM      9 O    ALA B 301      16.893   6.392  30.653  1.00 23.28 LIG-0.27  OA
ATOM     10 H    SER B 302      16.191   7.387  33.437  1.00 26.47 LIG 0.16  HD
BRANCH 8 11
ATOM     11  CA  ALA B 301      17.134   8.654  31.409  1.00 27.42 LIG 0.27  C 
ATOM     12  CB  ALA B 301      18.470   8.777  30.615  1.00 28.79 LIG 0.05  C 
BRANCH 11 13
ATOM     13  N   ALA B 301      17.285   9.303  32.750  1.00 29.28 LIG-0.07  N 
ATOM     14 H1   ALA B 301      16.624   9.886  32.874  1.00 29.28 LIG 0.28  HD
ATOM     15 H2   ALA B 301      17.253   8.681  33.386  1.00 29.28 LIG 0.28  HD
ATOM     16 H3   ALA B 301      18.066   9.727  32.789  1.00 29.28 LIG 0.28  HD
ENDBRANCH 11 13
ENDBRANCH 8 11
ENDBRANCH 6 7
BRANCH 6 17
ATOM     17  CB  SER B 302      16.183   5.100  34.533  1.00 31.87 LIG 0.20  C 
BRANCH 17 18
ATOM     18 OG   SER B 302      15.195   5.596  35.410  1.00 37.10 LIG-0.40  OA
ATOM     19 HG   SER B 302      15.506   5.632  36.189  1.00 37.10 LIG 0.21  HD
ENDBRANCH 17 18
ENDBRANCH 6 17
ENDBRANCH 3 6
ENDBRANCH 1 2
BRANCH 1 20
ATOM     20  CB  VAL B 303      12.367   4.470  29.794  1.00 29.00 LIG 0.01  C 
ATOM     21  CG1 VAL B 303      11.629   5.725  29.375  1.00 28.23 LIG 0.01  C 
ATOM     22  CG2 VAL B 303      13.713   4.414  29.061  1.00 26.76 LIG 0.01  C 
ENDBRANCH 1 20
BRANCH 1 23
ATOM     23  C   VAL B 303      12.202   3.122  31.935  1.00 28.25 LIG 0.24  C 
ATOM     24 O    VAL B 303      12.164   2.119  31.214  1.00 25.63 LIG-0.27  OA
ATOM     25  N   SER B 304      11.952   3.065  33.237  1.00 28.07 LIG-0.34  N 
ATOM     26 H    SER B 304      12.008   3.731  33.778  1.00 28.07 LIG 0.16  HD
BRANCH 25 27
ATOM     27  CA  SER B 304      11.547   1.803  33.843  1.00 30.78 LIG 0.20  C 
BRANCH 27 28
ATOM     28  C   SER B 304      10.126   1.480  33.360  1.00 31.57 LIG 0.24  C 
ATOM     29 O    SER B 304       9.238   2.336  33.422  1.00 32.88 LIG-0.27  OA
ATOM     30  N   ALA B 305       9.911   0.246  32.908  1.00 33.00 LIG-0.35  N 
ATOM     31 H    ALA B 305      10.519  -0.362  32.898  1.00 33.00 LIG 0.16  HD
BRANCH 30 32
ATOM     32  CA  ALA B 305       8.616  -0.208  32.381  1.00 34.21 LIG 0.16  C 
ATOM     33  CB  ALA B 305       8.703  -1.734  32.027  1.00 33.59 LIG 0.04  C 
BRANCH 32 34
ATOM     34  C   ALA B 305       7.503   0.003  33.397  1.00 34.64 LIG 0.22  C 
ATOM     35 O    ALA B 305       7.014   1.155  33.500  1.00 35.93 LIG-0.29  OA
ENDBRANCH 32 34
ENDBRANCH 30 32
ENDBRANCH 27 28
BRANCH 27 36
ATOM     36  CB  SER B 304      11.586   1.911  35.368  1.00 32.96 LIG 0.20  C 
BRANCH 36 37
ATOM     37 OG   SER B 304      11.246   3.231  35.759  1.00 37.22 LIG-0.40  OA
ATOM     38 HG   SER B 304      10.689   3.550  35.216  1.00 37.22 LIG 0.21  HD
ENDBRANCH 36 37
ENDBRANCH 27 36
ENDBRANCH 25 27
ENDBRANCH 1 23
TORSDOF 15
ENDMDL
MODEL 11
USER: ADFR SOLUTION from run 90
USER: SCORE 12.664466 LL:  -2.318 LR: -11.348 RR:   0.000 FEB:  -6.873
USER: RMSD 7.789366
USER: SEED 89
USER: STATUS no improvement in best 12 clusters for 5 generations
USER: GENES 17
USER: genes 0 Translation |==|  0.66849 0.67206 0.48063
USER: genes 1 Rotation |==|  0.33468 0.39436 0.74949 0.88635
USER: genes 2 Torsion [C]-CA--N-[C] |==|  0.21161
USER: genes 3 Torsion [N]-C--CA-[N] |==|  0.96302
USER: genes 4 Torsion [C]-CA--N-[C] |==|  0.78674
USER: genes 5 Torsion [N]-C--CA-[N] |==|  0.14280
USER: genes 6 Torsion [C]-CA--N-[H1] |==|  0.57521
USER: genes 7 Torsion [C]-CA--CB-[OG] |==|  0.53614
USER: genes 8 Torsion [CA]-CB--OG-[HG] |==|  0.61528
USER: genes 9 Torsion [N]-CA--CB-[CG1] |==|  0.32248
USER: genes 10 Torsion [N]-CA--C-[N] |==|  0.39492
USER: genes 11 Torsion [C]-N--CA-[C] |==|  0.83333
USER: genes 12 Torsion [N]-CA--C-[N] |==|  0.39113
USER: genes 13 Torsion [C]-N--CA-[CB] |==|  0.51792
USER: genes 14 Torsion [N]-CA--C-[O] |==|  0.31804
USER: genes 15 Torsion [N]-CA--CB-[OG] |==|  0.06352
USER: genes 16 Torsion [CA]-CB--OG-[HG] |==|  0.83687
ROOT
ATOM      1  CA  VAL B 303      18.185   8.942  32.169  1.00 28.18 LIG 0.18  C 
ENDROOT
BRANCH 1 2
ATOM      2  N   VAL B 303      17.362   7.918  32.801  1.00 29.68 LIG-0.35  N 
ATOM      3  C   SER B 302      16.615   7.075  32.093  1.00 31.00 LIG 0.24  C 
ATOM      4 O    SER B 302      16.547   7.123  30.857  1.00 32.88 LIG-0.27  OA
ATOM      5 H    VAL B 303      17.406   7.912  33.660  1.00 29.68 LIG 0.16  HD
BRANCH 3 6
ATOM      6  CA  SER B 302      15.805   6.039  32.898  1.00 30.54 LIG 0.20  C 
BRANCH 6 7
ATOM      7  N   SER B 302      16.243   5.967  34.294  1.00 26.47 LIG-0.34  N 
ATOM      8  C   ALA B 301      17.360   5.336  34.659  1.00 26.40 LIG 0.25  C 
ATOM      9 O    ALA B 301      18.090   4.736  33.869  1.00 23.28 LIG-0.27  OA
ATOM     10 H    SER B 302      15.718   6.364  34.848  1.00 26.47 LIG 0.16  HD
BRANCH 8 11
ATOM     11  CA  ALA B 301      17.694   5.358  36.150  1.00 27.42 LIG 0.27  C 
ATOM     12  CB  ALA B 301      18.912   4.434  36.454  1.00 28.79 LIG 0.05  C 
BRANCH 11 13
ATOM     13  N   ALA B 301      16.509   4.905  36.944  1.00 29.28 LIG-0.07  N 
ATOM     14 H1   ALA B 301      16.538   5.269  37.756  1.00 29.28 LIG 0.28  HD
ATOM     15 H2   ALA B 301      15.761   5.158  36.533  1.00 29.28 LIG 0.28  HD
ATOM     16 H3   ALA B 301      16.521   4.018  37.017  1.00 29.28 LIG 0.28  HD
ENDBRANCH 11 13
ENDBRANCH 8 11
ENDBRANCH 6 7
BRANCH 6 17
ATOM     17  CB  SER B 302      14.316   6.390  32.808  1.00 31.87 LIG 0.20  C 
BRANCH 17 18
ATOM     18 OG   SER B 302      13.580   5.655  33.760  1.00 37.10 LIG-0.40  OA
ATOM     19 HG   SER B 302      12.865   5.384  33.413  1.00 37.10 LIG 0.21  HD
ENDBRANCH 17 18
ENDBRANCH 6 17
ENDBRANCH 3 6
ENDBRANCH 1 2
BRANCH 1 20
ATOM     20  CB  VAL B 303      18.970   8.363  30.929  1.00 29.00 LIG 0.01  C 
ATOM     21  CG1 VAL B 303      18.505   9.051  29.662  1.00 28.23 LIG 0.01  C 
ATOM     22  CG2 VAL B 303      20.479   8.582  31.092  1.00 26.76 LIG 0.01  C 
ENDBRANCH 1 20
BRANCH 1 23
ATOM     23  C   VAL B 303      17.262  10.062  31.719  1.00 28.25 LIG 0.24  C 
ATOM     24 O    VAL B 303      16.131   9.809  31.289  1.00 25.63 LIG-0.27  OA
ATOM     25  N   SER B 304      17.708  11.305  31.842  1.00 28.07 LIG-0.34  N 
ATOM     26 H    SER B 304      18.470  11.523  32.175  1.00 28.07 LIG 0.16  HD
BRANCH 25 27
ATOM     27  CA  SER B 304      16.883  12.420  31.395  1.00 30.78 LIG 0.20  C 
BRANCH 27 28
ATOM     28  C   SER B 304      16.618  12.241  29.894  1.00 31.57 LIG 0.24  C 
ATOM     29 O    SER B 304      17.518  11.848  29.145  1.00 32.88 LIG-0.27  OA
ATOM     30  N   ALA B 305      15.399  12.551  29.457  1.00 33.00 LIG-0.35  N 
ATOM     31 H    ALA B 305      14.781  12.859  29.971  1.00 33.00 LIG 0.16  HD
BRANCH 30 32
ATOM     32  CA  ALA B 305      14.978  12.402  28.056  1.00 34.21 LIG 0.16  C 
ATOM     33  CB  ALA B 305      13.544  13.013  27.875  1.00 33.59 LIG 0.04  C 
BRANCH 32 34
ATOM     34  C   ALA B 305      15.942  13.109  27.115  1.00 34.64 LIG 0.22  C 
ATOM     35 O    ALA B 305      16.607  12.403  26.318  1.00 35.93 LIG-0.29  OA
ENDBRANCH 32 34
ENDBRANCH 30 32
ENDBRANCH 27 28
BRANCH 27 36
ATOM     36  CB  SER B 304      17.595  13.747  31.661  1.00 32.96 LIG 0.20  C 
BRANCH 36 37
ATOM     37 OG   SER B 304      18.992  13.525  31.756  1.00 37.22 LIG-0.40  OA
ATOM     38 HG   SER B 304      19.148  12.979  32.375  1.00 37.22 LIG 0.21  HD
ENDBRANCH 36 37
ENDBRANCH 27 36
ENDBRANCH 25 27
ENDBRANCH 1 23
TORSDOF 15
ENDMDL
MODEL 12
USER: ADFR SOLUTION from run 151
USER: SCORE 13.205202 LL:  -2.445 LR: -11.302 RR:   0.000 FEB:  -6.828
USER: RMSD 9.241540
USER: SEED 150
USER: STATUS no improvement in best 12 clusters for 5 generations
USER: GENES 17
USER: genes 0 Translation |==|  0.48701 0.54997 0.45533
USER: genes 1 Rotation |==|  0.33165 0.54309 0.03602 0.56728
USER: genes 2 Torsion [C]-CA--N-[C] |==|  0.77445
USER: genes 3 Torsion [N]-C--CA-[N] |==|  0.32407
USER: genes 4 Torsion [C]-CA--N-[C] |==|  0.59457
USER: genes 5 Torsion [N]-C--CA-[N] |==|  0.33584
USER: genes 6 Torsion [C]-CA--N-[H1] |==|  0.89062
USER: genes 7 Torsion [C]-CA--CB-[OG] |==|  0.68791
USER: genes 8 Torsion [CA]-CB--OG-[HG] |==|  0.09935
USER: genes 9 Torsion [N]-CA--CB-[CG1] |==|  0.81584
USER: genes 10 Torsion [N]-CA--C-[N] |==|  0.47684
USER: genes 11 Torsion [C]-N--CA-[C] |==|  0.83668
USER: genes 12 Torsion [N]-CA--C-[N] |==|  0.42639
USER: genes 13 Torsion [C]-N--CA-[CB] |==|  0.50599
USER: genes 14 Torsion [N]-CA--C-[O] |==|  0.35609
USER: genes 15 Torsion [N]-CA--CB-[OG] |==|  0.96982
USER: genes 16 Torsion [CA]-CB--OG-[HG] |==|  0.85267
ROOT
ATOM      1  CA  VAL B 303      12.740   5.279  31.410  1.00 28.18 LIG 0.18  C 
ENDROOT
BRANCH 1 2
ATOM      2  N   VAL B 303      14.070   5.840  31.208  1.00 29.68 LIG-0.35  N 
ATOM      3  C   SER B 302      14.770   6.376  32.205  1.00 31.00 LIG 0.24  C 
ATOM      4 O    SER B 302      14.328   6.458  33.359  1.00 32.88 LIG-0.27  OA
ATOM      5 H    VAL B 303      14.353   5.793  30.397  1.00 29.68 LIG 0.16  HD
BRANCH 3 6
ATOM      6  CA  SER B 302      16.166   6.921  31.843  1.00 30.54 LIG 0.20  C 
BRANCH 6 7
ATOM      7  N   SER B 302      16.260   8.368  32.053  1.00 26.47 LIG-0.34  N 
ATOM      8  C   ALA B 301      17.001   9.154  31.273  1.00 26.40 LIG 0.25  C 
ATOM      9 O    ALA B 301      17.692   8.733  30.343  1.00 23.28 LIG-0.27  OA
ATOM     10 H    SER B 302      15.799   8.657  32.719  1.00 26.47 LIG 0.16  HD
BRANCH 8 11
ATOM     11  CA  ALA B 301      16.989  10.646  31.606  1.00 27.42 LIG 0.27  C 
ATOM     12  CB  ALA B 301      16.404  11.470  30.420  1.00 28.79 LIG 0.05  C 
BRANCH 11 13
ATOM     13  N   ALA B 301      18.380  11.113  31.905  1.00 29.28 LIG-0.07  N 
ATOM     14 H1   ALA B 301      18.808  10.490  32.375  1.00 29.28 LIG 0.28  HD
ATOM     15 H2   ALA B 301      18.814  11.259  31.142  1.00 29.28 LIG 0.28  HD
ATOM     16 H3   ALA B 301      18.346  11.867  32.375  1.00 29.28 LIG 0.28  HD
ENDBRANCH 11 13
ENDBRANCH 8 11
ENDBRANCH 6 7
BRANCH 6 17
ATOM     17  CB  SER B 302      17.221   6.177  32.668  1.00 31.87 LIG 0.20  C 
BRANCH 17 18
ATOM     18 OG   SER B 302      17.822   7.051  33.599  1.00 37.10 LIG-0.40  OA
ATOM     19 HG   SER B 302      17.249   7.594  33.884  1.00 37.10 LIG 0.21  HD
ENDBRANCH 17 18
ENDBRANCH 6 17
ENDBRANCH 3 6
ENDBRANCH 1 2
BRANCH 1 20
ATOM     20  CB  VAL B 303      11.929   5.225  30.058  1.00 29.00 LIG 0.01  C 
ATOM     21  CG1 VAL B 303      11.643   6.632  29.575  1.00 28.23 LIG 0.01  C 
ATOM     22  CG2 VAL B 303      12.723   4.478  28.979  1.00 26.76 LIG 0.01  C 
ENDBRANCH 1 20
BRANCH 1 23
ATOM     23  C   VAL B 303      12.912   3.876  31.967  1.00 28.25 LIG 0.24  C 
ATOM     24 O    VAL B 303      14.035   3.367  32.054  1.00 25.63 LIG-0.27  OA
ATOM     25  N   SER B 304      11.819   3.248  32.382  1.00 28.07 LIG-0.34  N 
ATOM     26 H    SER B 304      11.028   3.584  32.378  1.00 28.07 LIG 0.16  HD
BRANCH 25 27
ATOM     27  CA  SER B 304      11.915   1.887  32.893  1.00 30.78 LIG 0.20  C 
BRANCH 27 28
ATOM     28  C   SER B 304      12.510   1.006  31.787  1.00 31.57 LIG 0.24  C 
ATOM     29 O    SER B 304      12.348   1.305  30.599  1.00 32.88 LIG-0.27  OA
ATOM     30  N   ALA B 305      13.170  -0.084  32.174  1.00 33.00 LIG-0.35  N 
ATOM     31 H    ALA B 305      13.253  -0.312  32.999  1.00 33.00 LIG 0.16  HD
BRANCH 30 32
ATOM     32  CA  ALA B 305      13.825  -1.009  31.238  1.00 34.21 LIG 0.16  C 
ATOM     33  CB  ALA B 305      14.454  -2.203  32.040  1.00 33.59 LIG 0.04  C 
BRANCH 32 34
ATOM     34  C   ALA B 305      12.833  -1.560  30.225  1.00 34.64 LIG 0.22  C 
ATOM     35 O    ALA B 305      13.130  -1.473  29.008  1.00 35.93 LIG-0.29  OA
ENDBRANCH 32 34
ENDBRANCH 30 32
ENDBRANCH 27 28
BRANCH 27 36
ATOM     36  CB  SER B 304      10.533   1.376  33.304  1.00 32.96 LIG 0.20  C 
BRANCH 36 37
ATOM     37 OG   SER B 304       9.610   2.453  33.303  1.00 37.22 LIG-0.40  OA
ATOM     38 HG   SER B 304       9.910   3.080  33.773  1.00 37.22 LIG 0.21  HD
ENDBRANCH 36 37
ENDBRANCH 27 36
ENDBRANCH 25 27
ENDBRANCH 1 23
TORSDOF 15
ENDMDL
MODEL 13
USER: ADFR SOLUTION from run 135
USER: SCORE 13.294695 LL:  -2.484 LR: -11.223 RR:   0.000 FEB:  -6.749
USER: RMSD 10.409177
USER: SEED 134
USER: STATUS no improvement in best 13 clusters for 5 generations
USER: GENES 17
USER: genes 0 Translation |==|  0.63935 0.66999 0.47582
USER: genes 1 Rotation |==|  0.41446 0.68427 0.04360 0.52067
USER: genes 2 Torsion [C]-CA--N-[C] |==|  0.83629
USER: genes 3 Torsion [N]-C--CA-[N] |==|  0.06064
USER: genes 4 Torsion [C]-CA--N-[C] |==|  0.71664
USER: genes 5 Torsion [N]-C--CA-[N] |==|  0.93784
USER: genes 6 Torsion [C]-CA--N-[H1] |==|  0.22010
USER: genes 7 Torsion [C]-CA--CB-[OG] |==|  0.62603
USER: genes 8 Torsion [CA]-CB--OG-[HG] |==|  0.20142
USER: genes 9 Torsion [N]-CA--CB-[CG1] |==|  0.77542
USER: genes 10 Torsion [N]-CA--C-[N] |==|  0.34446
USER: genes 11 Torsion [C]-N--CA-[C] |==|  0.75323
USER: genes 12 Torsion [N]-CA--C-[N] |==|  0.49854
USER: genes 13 Torsion [C]-N--CA-[CB] |==|  0.83344
USER: genes 14 Torsion [N]-CA--C-[O] |==|  0.11919
USER: genes 15 Torsion [N]-CA--CB-[OG] |==|  0.10919
USER: genes 16 Torsion [CA]-CB--OG-[HG] |==|  0.89339
ROOT
ATOM      1  CA  VAL B 303      17.310   8.880  32.025  1.00 28.18 LIG 0.18  C 
ENDROOT
BRANCH 1 2
ATOM      2  N   VAL B 303      18.747   8.860  32.270  1.00 29.68 LIG-0.35  N 
ATOM      3  C   SER B 302      19.284   8.166  33.270  1.00 31.00 LIG 0.24  C 
ATOM      4 O    SER B 302      18.598   7.517  34.073  1.00 32.88 LIG-0.27  OA
ATOM      5 H    VAL B 303      19.206   9.332  31.716  1.00 29.68 LIG 0.16  HD
BRANCH 3 6
ATOM      6  CA  SER B 302      20.818   8.232  33.401  1.00 30.54 LIG 0.20  C 
BRANCH 6 7
ATOM      7  N   SER B 302      21.374   9.418  32.745  1.00 26.47 LIG-0.34  N 
ATOM      8  C   ALA B 301      21.964   9.361  31.551  1.00 26.40 LIG 0.25  C 
ATOM      9 O    ALA B 301      22.125   8.314  30.922  1.00 23.28 LIG-0.27  OA
ATOM     10 H    SER B 302      21.284  10.144  33.197  1.00 26.47 LIG 0.16  HD
BRANCH 8 11
ATOM     11  CA  ALA B 301      22.481  10.684  30.987  1.00 27.42 LIG 0.27  C 
ATOM     12  CB  ALA B 301      24.012  10.829  31.241  1.00 28.79 LIG 0.05  C 
BRANCH 11 13
ATOM     13  N   ALA B 301      21.755  11.828  31.625  1.00 29.28 LIG-0.07  N 
ATOM     14 H1   ALA B 301      22.097  11.984  32.432  1.00 29.28 LIG 0.28  HD
ATOM     15 H2   ALA B 301      21.844  12.555  31.120  1.00 29.28 LIG 0.28  HD
ATOM     16 H3   ALA B 301      20.892  11.625  31.704  1.00 29.28 LIG 0.28  HD
ENDBRANCH 11 13
ENDBRANCH 8 11
ENDBRANCH 6 7
BRANCH 6 17
ATOM     17  CB  SER B 302      21.194   8.199  34.886  1.00 31.87 LIG 0.20  C 
BRANCH 17 18
ATOM     18 OG   SER B 302      22.171   9.178  35.166  1.00 37.10 LIG-0.40  OA
ATOM     19 HG   SER B 302      21.820   9.940  35.142  1.00 37.10 LIG 0.21  HD
ENDBRANCH 17 18
ENDBRANCH 6 17
ENDBRANCH 3 6
ENDBRANCH 1 2
BRANCH 1 20
ATOM     20  CB  VAL B 303      16.955   9.768  30.771  1.00 29.00 LIG 0.01  C 
ATOM     21  CG1 VAL B 303      16.932  11.230  31.169  1.00 28.23 LIG 0.01  C 
ATOM     22  CG2 VAL B 303      17.988   9.570  29.655  1.00 26.76 LIG 0.01  C 
ENDBRANCH 1 20
BRANCH 1 23
ATOM     23  C   VAL B 303      16.863   7.447  31.786  1.00 28.25 LIG 0.24  C 
ATOM     24 O    VAL B 303      17.410   6.754  30.921  1.00 25.63 LIG-0.27  OA
ATOM     25  N   SER B 304      15.899   6.972  32.564  1.00 28.07 LIG-0.34  N 
ATOM     26 H    SER B 304      15.524   7.408  33.204  1.00 28.07 LIG 0.16  HD
BRANCH 25 27
ATOM     27  CA  SER B 304      15.403   5.618  32.361  1.00 30.78 LIG 0.20  C 
BRANCH 27 28
ATOM     28  C   SER B 304      14.259   5.681  31.340  1.00 31.57 LIG 0.24  C 
ATOM     29 O    SER B 304      13.897   6.767  30.876  1.00 32.88 LIG-0.27  OA
ATOM     30  N   ALA B 305      13.679   4.527  31.013  1.00 33.00 LIG-0.35  N 
ATOM     31 H    ALA B 305      13.906   3.774  31.361  1.00 33.00 LIG 0.16  HD
BRANCH 30 32
ATOM     32  CA  ALA B 305      12.594   4.417  30.027  1.00 34.21 LIG 0.16  C 
ATOM     33  CB  ALA B 305      11.372   5.280  30.498  1.00 33.59 LIG 0.04  C 
BRANCH 32 34
ATOM     34  C   ALA B 305      13.045   4.901  28.657  1.00 34.64 LIG 0.22  C 
ATOM     35 O    ALA B 305      14.184   4.553  28.258  1.00 35.93 LIG-0.29  OA
ENDBRANCH 32 34
ENDBRANCH 30 32
ENDBRANCH 27 28
BRANCH 27 36
ATOM     36  CB  SER B 304      14.912   5.028  33.683  1.00 32.96 LIG 0.20  C 
BRANCH 36 37
ATOM     37 OG   SER B 304      14.238   6.029  34.428  1.00 37.22 LIG-0.40  OA
ATOM     38 HG   SER B 304      14.635   6.763  34.335  1.00 37.22 LIG 0.21  HD
ENDBRANCH 36 37
ENDBRANCH 27 36
ENDBRANCH 25 27
ENDBRANCH 1 23
TORSDOF 15
ENDMDL
MODEL 14
USER: ADFR SOLUTION from run 121
USER: SCORE 13.209276 LL:  -2.714 LR: -11.155 RR:   0.000 FEB:  -6.681
USER: RMSD 7.253344
USER: SEED 120
USER: STATUS no improvement in best 12 clusters for 5 generations
USER: GENES 17
USER: genes 0 Translation |==|  0.66115 0.65975 0.47445
USER: genes 1 Rotation |==|  0.34323 0.26287 0.67850 0.87058
USER: genes 2 Torsion [C]-CA--N-[C] |==|  0.56547
USER: genes 3 Torsion [N]-C--CA-[N] |==|  0.50920
USER: genes 4 Torsion [C]-CA--N-[C] |==|  0.76006
USER: genes 5 Torsion [N]-C--CA-[N] |==|  0.45625
USER: genes 6 Torsion [C]-CA--N-[H1] |==|  0.56445
USER: genes 7 Torsion [C]-CA--CB-[OG] |==|  0.81677
USER: genes 8 Torsion [CA]-CB--OG-[HG] |==|  0.15303
USER: genes 9 Torsion [N]-CA--CB-[CG1] |==|  0.21263
USER: genes 10 Torsion [N]-CA--C-[N] |==|  0.49443
USER: genes 11 Torsion [C]-N--CA-[C] |==|  0.85428
USER: genes 12 Torsion [N]-CA--C-[N] |==|  0.86669
USER: genes 13 Torsion [C]-N--CA-[CB] |==|  0.16105
USER: genes 14 Torsion [N]-CA--C-[O] |==|  0.25952
USER: genes 15 Torsion [N]-CA--CB-[OG] |==|  0.07156
USER: genes 16 Torsion [CA]-CB--OG-[HG] |==|  0.81094
ROOT
ATOM      1  CA  VAL B 303      17.964   8.573  31.984  1.00 28.18 LIG 0.18  C 
ENDROOT
BRANCH 1 2
ATOM      2  N   VAL B 303      17.020   7.480  31.792  1.00 29.68 LIG-0.35  N 
ATOM      3  C   SER B 302      17.101   6.346  32.483  1.00 31.00 LIG 0.24  C 
ATOM      4 O    SER B 302      17.998   6.134  33.311  1.00 32.88 LIG-0.27  OA
ATOM      5 H    VAL B 303      16.416   7.635  31.200  1.00 29.68 LIG 0.16  HD
BRANCH 3 6
ATOM      6  CA  SER B 302      16.026   5.282  32.181  1.00 30.54 LIG 0.20  C 
BRANCH 6 7
ATOM      7  N   SER B 302      16.159   4.108  33.047  1.00 26.47 LIG-0.34  N 
ATOM      8  C   ALA B 301      16.964   3.089  32.747  1.00 26.40 LIG 0.25  C 
ATOM      9 O    ALA B 301      17.629   3.030  31.712  1.00 23.28 LIG-0.27  OA
ATOM     10 H    SER B 302      15.674   4.139  33.757  1.00 26.47 LIG 0.16  HD
BRANCH 8 11
ATOM     11  CA  ALA B 301      17.008   1.941  33.756  1.00 27.42 LIG 0.27  C 
ATOM     12  CB  ALA B 301      17.823   2.350  35.020  1.00 28.79 LIG 0.05  C 
BRANCH 11 13
ATOM     13  N   ALA B 301      17.630   0.734  33.125  1.00 29.28 LIG-0.07  N 
ATOM     14 H1   ALA B 301      17.363   0.002  33.557  1.00 29.28 LIG 0.28  HD
ATOM     15 H2   ALA B 301      17.381   0.682  32.272  1.00 29.28 LIG 0.28  HD
ATOM     16 H3   ALA B 301      18.516   0.797  33.171  1.00 29.28 LIG 0.28  HD
ENDBRANCH 11 13
ENDBRANCH 8 11
ENDBRANCH 6 7
BRANCH 6 17
ATOM     17  CB  SER B 302      14.640   5.919  32.327  1.00 31.87 LIG 0.20  C 
BRANCH 17 18
ATOM     18 OG   SER B 302      14.406   6.281  33.670  1.00 37.10 LIG-0.40  OA
ATOM     19 HG   SER B 302      15.026   6.780  33.938  1.00 37.10 LIG 0.21  HD
ENDBRANCH 17 18
ENDBRANCH 6 17
ENDBRANCH 3 6
ENDBRANCH 1 2
BRANCH 1 20
ATOM     20  CB  VAL B 303      19.285   8.342  31.152  1.00 29.00 LIG 0.01  C 
ATOM     21  CG1 VAL B 303      19.032   8.653  29.691  1.00 28.23 LIG 0.01  C 
ATOM     22  CG2 VAL B 303      20.415   9.243  31.667  1.00 26.76 LIG 0.01  C 
ENDBRANCH 1 20
BRANCH 1 23
ATOM     23  C   VAL B 303      17.285   9.854  31.530  1.00 28.25 LIG 0.24  C 
ATOM     24 O    VAL B 303      16.130   9.830  31.090  1.00 25.63 LIG-0.27  OA
ATOM     25  N   SER B 304      17.967  10.984  31.660  1.00 28.07 LIG-0.34  N 
ATOM     26 H    SER B 304      18.755  11.047  32.000  1.00 28.07 LIG 0.16  HD
BRANCH 25 27
ATOM     27  CA  SER B 304      17.383  12.241  31.209  1.00 30.78 LIG 0.20  C 
BRANCH 27 28
ATOM     28  C   SER B 304      16.926  12.056  29.756  1.00 31.57 LIG 0.24  C 
ATOM     29 O    SER B 304      15.789  12.396  29.413  1.00 32.88 LIG-0.27  OA
ATOM     30  N   ALA B 305      17.797  11.499  28.917  1.00 33.00 LIG-0.35  N 
ATOM     31 H    ALA B 305      18.576  11.229  29.162  1.00 33.00 LIG 0.16  HD
BRANCH 30 32
ATOM     32  CA  ALA B 305      17.523  11.284  27.489  1.00 34.21 LIG 0.16  C 
ATOM     33  CB  ALA B 305      17.187  12.659  26.810  1.00 33.59 LIG 0.04  C 
BRANCH 32 34
ATOM     34  C   ALA B 305      18.720  10.663  26.786  1.00 34.64 LIG 0.22  C 
ATOM     35 O    ALA B 305      18.756   9.412  26.685  1.00 35.93 LIG-0.29  OA
ENDBRANCH 32 34
ENDBRANCH 30 32
ENDBRANCH 27 28
BRANCH 27 36
ATOM     36  CB  SER B 304      18.408  13.370  31.312  1.00 32.96 LIG 0.20  C 
BRANCH 36 37
ATOM     37 OG   SER B 304      19.718  12.830  31.229  1.00 37.22 LIG-0.40  OA
ATOM     38 HG   SER B 304      19.877  12.373  31.915  1.00 37.22 LIG 0.21  HD
ENDBRANCH 36 37
ENDBRANCH 27 36
ENDBRANCH 25 27
ENDBRANCH 1 23
TORSDOF 15
ENDMDL
MODEL 15
USER: ADFR SOLUTION from run 90
USER: SCORE 12.735707 LL:  -2.387 LR: -11.115 RR:   0.000 FEB:  -6.640
USER: RMSD 7.246517
USER: SEED 89
USER: STATUS no improvement in best 12 clusters for 5 generations
USER: GENES 17
USER: genes 0 Translation |==|  0.66865 0.66569 0.48411
USER: genes 1 Rotation |==|  0.33686 0.37189 0.73576 0.88909
USER: genes 2 Torsion [C]-CA--N-[C] |==|  0.48889
USER: genes 3 Torsion [N]-C--CA-[N] |==|  0.36025
USER: genes 4 Torsion [C]-CA--N-[C] |==|  0.78245
USER: genes 5 Torsion [N]-C--CA-[N] |==|  0.00912
USER: genes 6 Torsion [C]-CA--N-[H1] |==|  0.81428
USER: genes 7 Torsion [C]-CA--CB-[OG] |==|  0.43715
USER: genes 8 Torsion [CA]-CB--OG-[HG] |==|  0.65356
USER: genes 9 Torsion [N]-CA--CB-[CG1] |==|  0.23472
USER: genes 10 Torsion [N]-CA--C-[N] |==|  0.43613
USER: genes 11 Torsion [C]-N--CA-[C] |==|  0.81265
USER: genes 12 Torsion [N]-CA--C-[N] |==|  0.38277
USER: genes 13 Torsion [C]-N--CA-[CB] |==|  0.51824
USER: genes 14 Torsion [N]-CA--C-[O] |==|  0.31359
USER: genes 15 Torsion [N]-CA--CB-[OG] |==|  0.08023
USER: genes 16 Torsion [CA]-CB--OG-[HG] |==|  0.81803
ROOT
ATOM      1  CA  VAL B 303      18.189   8.751  32.273  1.00 28.18 LIG 0.18  C 
ENDROOT
BRANCH 1 2
ATOM      2  N   VAL B 303      17.305   7.703  32.767  1.00 29.68 LIG-0.35  N 
ATOM      3  C   SER B 302      17.762   6.517  33.159  1.00 31.00 LIG 0.24  C 
ATOM      4 O    SER B 302      18.963   6.217  33.104  1.00 32.88 LIG-0.27  OA
ATOM      5 H    VAL B 303      16.472   7.922  32.779  1.00 29.68 LIG 0.16  HD
BRANCH 3 6
ATOM      6  CA  SER B 302      16.709   5.512  33.666  1.00 30.54 LIG 0.20  C 
BRANCH 6 7
ATOM      7  N   SER B 302      16.843   4.205  33.019  1.00 26.47 LIG-0.34  N 
ATOM      8  C   ALA B 301      16.392   3.971  31.786  1.00 26.40 LIG 0.25  C 
ATOM      9 O    ALA B 301      15.798   4.811  31.109  1.00 23.28 LIG-0.27  OA
ATOM     10 H    SER B 302      17.235   3.612  33.503  1.00 26.47 LIG 0.16  HD
BRANCH 8 11
ATOM     11  CA  ALA B 301      16.618   2.562  31.238  1.00 27.42 LIG 0.27  C 
ATOM     12  CB  ALA B 301      15.269   1.924  30.789  1.00 28.79 LIG 0.05  C 
BRANCH 11 13
ATOM     13  N   ALA B 301      17.255   1.704  32.287  1.00 29.28 LIG-0.07  N 
ATOM     14 H1   ALA B 301      18.079   1.998  32.452  1.00 29.28 LIG 0.28  HD
ATOM     15 H2   ALA B 301      16.772   1.740  33.034  1.00 29.28 LIG 0.28  HD
ATOM     16 H3   ALA B 301      17.294   0.863  32.000  1.00 29.28 LIG 0.28  HD
ENDBRANCH 11 13
ENDBRANCH 8 11
ENDBRANCH 6 7
BRANCH 6 17
ATOM     17  CB  SER B 302      16.833   5.386  35.188  1.00 31.87 LIG 0.20  C 
BRANCH 17 18
ATOM     18 OG   SER B 302      15.623   4.918  35.742  1.00 37.10 LIG-0.40  OA
ATOM     19 HG   SER B 302      15.359   5.454  36.332  1.00 37.10 LIG 0.21  HD
ENDBRANCH 17 18
ENDBRANCH 6 17
ENDBRANCH 3 6
ENDBRANCH 1 2
BRANCH 1 20
ATOM     20  CB  VAL B 303      19.065   8.240  31.064  1.00 29.00 LIG 0.01  C 
ATOM     21  CG1 VAL B 303      18.283   8.374  29.773  1.00 28.23 LIG 0.01  C 
ATOM     22  CG2 VAL B 303      20.361   9.053  30.951  1.00 26.76 LIG 0.01  C 
ENDBRANCH 1 20
BRANCH 1 23
ATOM     23  C   VAL B 303      17.321   9.916  31.827  1.00 28.25 LIG 0.24  C 
ATOM     24 O    VAL B 303      16.130   9.740  31.548  1.00 25.63 LIG-0.27  OA
ATOM     25  N   SER B 304      17.886  11.116  31.788  1.00 28.07 LIG-0.34  N 
ATOM     26 H    SER B 304      18.698  11.285  32.014  1.00 28.07 LIG 0.16  HD
BRANCH 25 27
ATOM     27  CA  SER B 304      17.115  12.266  31.334  1.00 30.78 LIG 0.20  C 
BRANCH 27 28
ATOM     28  C   SER B 304      16.821  12.079  29.840  1.00 31.57 LIG 0.24  C 
ATOM     29 O    SER B 304      17.706  11.681  29.076  1.00 32.88 LIG-0.27  OA
ATOM     30  N   ALA B 305      15.594  12.389  29.424  1.00 33.00 LIG-0.35  N 
ATOM     31 H    ALA B 305      14.987  12.700  29.948  1.00 33.00 LIG 0.16  HD
BRANCH 30 32
ATOM     32  CA  ALA B 305      15.147  12.234  28.032  1.00 34.21 LIG 0.16  C 
ATOM     33  CB  ALA B 305      13.712  12.848  27.874  1.00 33.59 LIG 0.04  C 
BRANCH 32 34
ATOM     34  C   ALA B 305      16.095  12.932  27.069  1.00 34.64 LIG 0.22  C 
ATOM     35 O    ALA B 305      16.765  12.217  26.284  1.00 35.93 LIG-0.29  OA
ENDBRANCH 32 34
ENDBRANCH 30 32
ENDBRANCH 27 28
BRANCH 27 36
ATOM     36  CB  SER B 304      17.899  13.557  31.571  1.00 32.96 LIG 0.20  C 
BRANCH 36 37
ATOM     37 OG   SER B 304      19.289  13.285  31.514  1.00 37.22 LIG-0.40  OA
ATOM     38 HG   SER B 304      19.503  12.783  32.153  1.00 37.22 LIG 0.21  HD
ENDBRANCH 36 37
ENDBRANCH 27 36
ENDBRANCH 25 27
ENDBRANCH 1 23
TORSDOF 15
ENDMDL
MODEL 16
USER: ADFR SOLUTION from run 134
USER: SCORE 13.557023 LL:  -2.691 LR: -11.090 RR:   0.000 FEB:  -6.615
USER: RMSD 6.361364
USER: SEED 133
USER: STATUS no improvement in best 8 clusters for 5 generations
USER: GENES 17
USER: genes 0 Translation |==|  0.46595 0.49711 0.44249
USER: genes 1 Rotation |==|  0.76740 0.69904 0.26185 0.78664
USER: genes 2 Torsion [C]-CA--N-[C] |==|  0.83804
USER: genes 3 Torsion [N]-C--CA-[N] |==|  0.98892
USER: genes 4 Torsion [C]-CA--N-[C] |==|  0.71165
USER: genes 5 Torsion [N]-C--CA-[N] |==|  0.18476
USER: genes 6 Torsion [C]-CA--N-[H1] |==|  0.88584
USER: genes 7 Torsion [C]-CA--CB-[OG] |==|  0.72949
USER: genes 8 Torsion [CA]-CB--OG-[HG] |==|  0.52997
USER: genes 9 Torsion [N]-CA--CB-[CG1] |==|  0.26565
USER: genes 10 Torsion [N]-CA--C-[N] |==|  0.91097
USER: genes 11 Torsion [C]-N--CA-[C] |==|  0.71527
USER: genes 12 Torsion [N]-CA--C-[N] |==|  0.41016
USER: genes 13 Torsion [C]-N--CA-[CB] |==|  0.83654
USER: genes 14 Torsion [N]-CA--C-[O] |==|  0.08955
USER: genes 15 Torsion [N]-CA--CB-[OG] |==|  0.64001
USER: genes 16 Torsion [CA]-CB--OG-[HG] |==|  0.71175
ROOT
ATOM      1  CA  VAL B 303      12.108   3.693  31.025  1.00 28.18 LIG 0.18  C 
ENDROOT
BRANCH 1 2
ATOM      2  N   VAL B 303      11.560   3.187  32.276  1.00 29.68 LIG-0.35  N 
ATOM      3  C   SER B 302      11.278   1.900  32.456  1.00 31.00 LIG 0.24  C 
ATOM      4 O    SER B 302      11.435   1.054  31.564  1.00 32.88 LIG-0.27  OA
ATOM      5 H    VAL B 303      11.438   3.791  32.877  1.00 29.68 LIG 0.16  HD
BRANCH 3 6
ATOM      6  CA  SER B 302      10.712   1.510  33.836  1.00 30.54 LIG 0.20  C 
BRANCH 6 7
ATOM      7  N   SER B 302      10.674   2.651  34.754  1.00 26.47 LIG-0.34  N 
ATOM      8  C   ALA B 301      11.561   2.804  35.737  1.00 26.40 LIG 0.25  C 
ATOM      9 O    ALA B 301      12.455   1.991  35.979  1.00 23.28 LIG-0.27  OA
ATOM     10 H    SER B 302      10.033   3.204  34.601  1.00 26.47 LIG 0.16  HD
BRANCH 8 11
ATOM     11  CA  ALA B 301      11.402   4.053  36.605  1.00 27.42 LIG 0.27  C 
ATOM     12  CB  ALA B 301      12.609   4.203  37.579  1.00 28.79 LIG 0.05  C 
BRANCH 11 13
ATOM     13  N   ALA B 301      10.130   3.968  37.390  1.00 29.28 LIG-0.07  N 
ATOM     14 H1   ALA B 301       9.483   3.640  36.874  1.00 29.28 LIG 0.28  HD
ATOM     15 H2   ALA B 301      10.249   3.434  38.091  1.00 29.28 LIG 0.28  HD
ATOM     16 H3   ALA B 301       9.900   4.780  37.672  1.00 29.28 LIG 0.28  HD
ENDBRANCH 11 13
ENDBRANCH 8 11
ENDBRANCH 6 7
BRANCH 6 17
ATOM     17  CB  SER B 302       9.316   0.908  33.650  1.00 31.87 LIG 0.20  C 
BRANCH 17 18
ATOM     18 OG   SER B 302       8.325   1.886  33.879  1.00 37.10 LIG-0.40  OA
ATOM     19 HG   SER B 302       7.572   1.517  33.920  1.00 37.10 LIG 0.21  HD
ENDBRANCH 17 18
ENDBRANCH 6 17
ENDBRANCH 3 6
ENDBRANCH 1 2
BRANCH 1 20
ATOM     20  CB  VAL B 303      12.373   5.246  31.100  1.00 29.00 LIG 0.01  C 
ATOM     21  CG1 VAL B 303      13.821   5.502  31.469  1.00 28.23 LIG 0.01  C 
ATOM     22  CG2 VAL B 303      12.075   5.914  29.752  1.00 26.76 LIG 0.01  C 
ENDBRANCH 1 20
BRANCH 1 23
ATOM     23  C   VAL B 303      13.413   2.958  30.762  1.00 28.25 LIG 0.24  C 
ATOM     24 O    VAL B 303      13.795   2.752  29.605  1.00 25.63 LIG-0.27  OA
ATOM     25  N   SER B 304      14.125   2.587  31.817  1.00 28.07 LIG-0.34  N 
ATOM     26 H    SER B 304      13.914   2.750  32.635  1.00 28.07 LIG 0.16  HD
BRANCH 25 27
ATOM     27  CA  SER B 304      15.367   1.848  31.631  1.00 30.78 LIG 0.20  C 
BRANCH 27 28
ATOM     28  C   SER B 304      15.089   0.371  31.940  1.00 31.57 LIG 0.24  C 
ATOM     29 O    SER B 304      14.268   0.060  32.809  1.00 32.88 LIG-0.27  OA
ATOM     30  N   ALA B 305      15.788  -0.530  31.252  1.00 33.00 LIG-0.35  N 
ATOM     31 H    ALA B 305      16.385  -0.316  30.672  1.00 33.00 LIG 0.16  HD
BRANCH 30 32
ATOM     32  CA  ALA B 305      15.614  -1.982  31.408  1.00 34.21 LIG 0.16  C 
ATOM     33  CB  ALA B 305      15.895  -2.383  32.899  1.00 33.59 LIG 0.04  C 
BRANCH 32 34
ATOM     34  C   ALA B 305      14.202  -2.410  31.037  1.00 34.64 LIG 0.22  C 
ATOM     35 O    ALA B 305      13.611  -1.763  30.137  1.00 35.93 LIG-0.29  OA
ENDBRANCH 32 34
ENDBRANCH 30 32
ENDBRANCH 27 28
BRANCH 27 36
ATOM     36  CB  SER B 304      16.455   2.396  32.555  1.00 32.96 LIG 0.20  C 
BRANCH 36 37
ATOM     37 OG   SER B 304      17.629   2.657  31.802  1.00 37.22 LIG-0.40  OA
ATOM     38 HG   SER B 304      18.194   2.052  31.944  1.00 37.22 LIG 0.21  HD
ENDBRANCH 36 37
ENDBRANCH 27 36
ENDBRANCH 25 27
ENDBRANCH 1 23
TORSDOF 15
ENDMDL
MODEL 17
USER: ADFR SOLUTION from run 8
USER: SCORE 13.403194 LL:  -2.673 LR: -11.079 RR:   0.000 FEB:  -6.605
USER: RMSD 8.381201
USER: SEED 365641
USER: STATUS no improvement in best 17 clusters for 5 generations
USER: GENES 17
USER: genes 0 Translation |==|  0.47482 0.53462 0.45586
USER: genes 1 Rotation |==|  0.40866 0.55994 0.01300 0.52991
USER: genes 2 Torsion [C]-CA--N-[C] |==|  0.77177
USER: genes 3 Torsion [N]-C--CA-[N] |==|  0.86969
USER: genes 4 Torsion [C]-CA--N-[C] |==|  0.84762
USER: genes 5 Torsion [N]-C--CA-[N] |==|  0.45804
USER: genes 6 Torsion [C]-CA--N-[H1] |==|  0.37536
USER: genes 7 Torsion [C]-CA--CB-[OG] |==|  0.43567
USER: genes 8 Torsion [CA]-CB--OG-[HG] |==|  0.76260
USER: genes 9 Torsion [N]-CA--CB-[CG1] |==|  0.76089
USER: genes 10 Torsion [N]-CA--C-[N] |==|  0.22023
USER: genes 11 Torsion [C]-N--CA-[C] |==|  0.81340
USER: genes 12 Torsion [N]-CA--C-[N] |==|  0.41168
USER: genes 13 Torsion [C]-N--CA-[CB] |==|  0.49582
USER: genes 14 Torsion [N]-CA--C-[O] |==|  0.18866
USER: genes 15 Torsion [N]-CA--CB-[OG] |==|  0.10866
USER: genes 16 Torsion [CA]-CB--OG-[HG] |==|  0.06579
ROOT
ATOM      1  CA  VAL B 303      12.375   4.819  31.426  1.00 28.18 LIG 0.18  C 
ENDROOT
BRANCH 1 2
ATOM      2  N   VAL B 303      13.786   5.100  31.655  1.00 29.68 LIG-0.35  N 
ATOM      3  C   SER B 302      14.247   5.484  32.842  1.00 31.00 LIG 0.24  C 
ATOM      4 O    SER B 302      13.506   5.655  33.819  1.00 32.88 LIG-0.27  OA
ATOM      5 H    VAL B 303      14.283   4.996  30.960  1.00 29.68 LIG 0.16  HD
BRANCH 3 6
ATOM      6  CA  SER B 302      15.765   5.737  32.937  1.00 30.54 LIG 0.20  C 
BRANCH 6 7
ATOM      7  N   SER B 302      16.540   4.653  32.326  1.00 26.47 LIG-0.34  N 
ATOM      8  C   ALA B 301      16.388   3.379  32.687  1.00 26.40 LIG 0.25  C 
ATOM      9 O    ALA B 301      15.622   3.011  33.580  1.00 23.28 LIG-0.27  OA
ATOM     10 H    SER B 302      17.093   4.914  31.722  1.00 26.47 LIG 0.16  HD
BRANCH 8 11
ATOM     11  CA  ALA B 301      17.256   2.358  31.950  1.00 27.42 LIG 0.27  C 
ATOM     12  CB  ALA B 301      16.729   2.134  30.501  1.00 28.79 LIG 0.05  C 
BRANCH 11 13
ATOM     13  N   ALA B 301      17.253   1.058  32.693  1.00 29.28 LIG-0.07  N 
ATOM     14 H1   ALA B 301      17.140   0.387  32.118  1.00 29.28 LIG 0.28  HD
ATOM     15 H2   ALA B 301      18.029   0.957  33.117  1.00 29.28 LIG 0.28  HD
ATOM     16 H3   ALA B 301      16.589   1.055  33.286  1.00 29.28 LIG 0.28  HD
ENDBRANCH 11 13
ENDBRANCH 8 11
ENDBRANCH 6 7
BRANCH 6 17
ATOM     17  CB  SER B 302      16.089   7.081  32.277  1.00 31.87 LIG 0.20  C 
BRANCH 17 18
ATOM     18 OG   SER B 302      17.302   7.595  32.782  1.00 37.10 LIG-0.40  OA
ATOM     19 HG   SER B 302      17.153   8.022  33.489  1.00 37.10 LIG 0.21  HD
ENDBRANCH 17 18
ENDBRANCH 6 17
ENDBRANCH 3 6
ENDBRANCH 1 2
BRANCH 1 20
ATOM     20  CB  VAL B 303      12.003   4.951  29.898  1.00 29.00 LIG 0.01  C 
ATOM     21  CG1 VAL B 303      11.670   6.394  29.576  1.00 28.23 LIG 0.01  C 
ATOM     22  CG2 VAL B 303      13.172   4.499  29.014  1.00 26.76 LIG 0.01  C 
ENDBRANCH 1 20
BRANCH 1 23
ATOM     23  C   VAL B 303      12.104   3.401  31.903  1.00 28.25 LIG 0.24  C 
ATOM     24 O    VAL B 303      12.061   2.465  31.096  1.00 25.63 LIG-0.27  OA
ATOM     25  N   SER B 304      11.954   3.216  33.207  1.00 28.07 LIG-0.34  N 
ATOM     26 H    SER B 304      12.019   3.834  33.802  1.00 28.07 LIG 0.16  HD
BRANCH 25 27
ATOM     27  CA  SER B 304      11.657   1.886  33.722  1.00 30.78 LIG 0.20  C 
BRANCH 27 28
ATOM     28  C   SER B 304      10.250   1.497  33.246  1.00 31.57 LIG 0.24  C 
ATOM     29 O    SER B 304       9.378   2.361  33.111  1.00 32.88 LIG-0.27  OA
ATOM     30  N   ALA B 305      10.027   0.204  33.020  1.00 33.00 LIG-0.35  N 
ATOM     31 H    ALA B 305      10.623  -0.403  33.148  1.00 33.00 LIG 0.16  HD
BRANCH 30 32
ATOM     32  CA  ALA B 305       8.745  -0.323  32.530  1.00 34.21 LIG 0.16  C 
ATOM     33  CB  ALA B 305       8.857  -1.877  32.343  1.00 33.59 LIG 0.04  C 
BRANCH 32 34
ATOM     34  C   ALA B 305       7.618  -0.020  33.504  1.00 34.64 LIG 0.22  C 
ATOM     35 O    ALA B 305       7.273   1.179  33.648  1.00 35.93 LIG-0.29  OA
ENDBRANCH 32 34
ENDBRANCH 30 32
ENDBRANCH 27 28
BRANCH 27 36
ATOM     36  CB  SER B 304      11.729   1.879  35.249  1.00 32.96 LIG 0.20  C 
BRANCH 36 37
ATOM     37 OG   SER B 304      11.177   3.083  35.756  1.00 37.22 LIG-0.40  OA
ATOM     38 HG   SER B 304      10.644   3.406  35.192  1.00 37.22 LIG 0.21  HD
ENDBRANCH 36 37
ENDBRANCH 27 36
ENDBRANCH 25 27
ENDBRANCH 1 23
TORSDOF 15
ENDMDL
MODEL 18
USER: ADFR SOLUTION from run 141
USER: SCORE 13.204044 LL:  -2.777 LR: -11.072 RR:   0.000 FEB:  -6.598
USER: RMSD 8.261068
USER: SEED 140
USER: STATUS no improvement in best 28 clusters for 5 generations
USER: GENES 17
USER: genes 0 Translation |==|  0.48382 0.55035 0.44659
USER: genes 1 Rotation |==|  0.36978 0.55418 0.02225 0.54311
USER: genes 2 Torsion [C]-CA--N-[C] |==|  0.76733
USER: genes 3 Torsion [N]-C--CA-[N] |==|  0.30322
USER: genes 4 Torsion [C]-CA--N-[C] |==|  0.61773
USER: genes 5 Torsion [N]-C--CA-[N] |==|  0.31479
USER: genes 6 Torsion [C]-CA--N-[H1] |==|  0.48966
USER: genes 7 Torsion [C]-CA--CB-[OG] |==|  0.66417
USER: genes 8 Torsion [CA]-CB--OG-[HG] |==|  0.08534
USER: genes 9 Torsion [N]-CA--CB-[CG1] |==|  0.77059
USER: genes 10 Torsion [N]-CA--C-[N] |==|  0.25022
USER: genes 11 Torsion [C]-N--CA-[C] |==|  0.16111
USER: genes 12 Torsion [N]-CA--C-[N] |==|  0.08358
USER: genes 13 Torsion [C]-N--CA-[CB] |==|  0.18517
USER: genes 14 Torsion [N]-CA--C-[O] |==|  0.68370
USER: genes 15 Torsion [N]-CA--CB-[OG] |==|  0.83705
USER: genes 16 Torsion [CA]-CB--OG-[HG] |==|  0.04803
ROOT
ATOM      1  CA  VAL B 303      12.645   5.291  31.148  1.00 28.18 LIG 0.18  C 
ENDROOT
BRANCH 1 2
ATOM      2  N   VAL B 303      14.048   5.682  31.158  1.00 29.68 LIG-0.35  N 
ATOM      3  C   SER B 302      14.642   6.157  32.250  1.00 31.00 LIG 0.24  C 
ATOM      4 O    SER B 302      14.036   6.323  33.317  1.00 32.88 LIG-0.27  OA
ATOM      5 H    VAL B 303      14.449   5.579  30.403  1.00 29.68 LIG 0.16  HD
BRANCH 3 6
ATOM      6  CA  SER B 302      16.134   6.520  32.113  1.00 30.54 LIG 0.20  C 
BRANCH 6 7
ATOM      7  N   SER B 302      16.350   7.969  32.148  1.00 26.47 LIG-0.34  N 
ATOM      8  C   ALA B 301      17.198   8.583  31.323  1.00 26.40 LIG 0.25  C 
ATOM      9 O    ALA B 301      17.892   7.989  30.496  1.00 23.28 LIG-0.27  OA
ATOM     10 H    SER B 302      15.885   8.379  32.744  1.00 26.47 LIG 0.16  HD
BRANCH 8 11
ATOM     11  CA  ALA B 301      17.306  10.101  31.468  1.00 27.42 LIG 0.27  C 
ATOM     12  CB  ALA B 301      17.043  10.804  30.103  1.00 28.79 LIG 0.05  C 
BRANCH 11 13
ATOM     13  N   ALA B 301      18.669  10.468  31.969  1.00 29.28 LIG-0.07  N 
ATOM     14 H1   ALA B 301      18.745  11.355  32.001  1.00 29.28 LIG 0.28  HD
ATOM     15 H2   ALA B 301      18.786  10.131  32.784  1.00 29.28 LIG 0.28  HD
ATOM     16 H3   ALA B 301      19.286  10.138  31.421  1.00 29.28 LIG 0.28  HD
ENDBRANCH 11 13
ENDBRANCH 8 11
ENDBRANCH 6 7
BRANCH 6 17
ATOM     17  CB  SER B 302      16.922   5.821  33.226  1.00 31.87 LIG 0.20  C 
BRANCH 17 18
ATOM     18 OG   SER B 302      17.592   6.771  34.024  1.00 37.10 LIG-0.40  OA
ATOM     19 HG   SER B 302      17.149   7.484  34.042  1.00 37.10 LIG 0.21  HD
ENDBRANCH 17 18
ENDBRANCH 6 17
ENDBRANCH 3 6
ENDBRANCH 1 2
BRANCH 1 20
ATOM     20  CB  VAL B 303      12.040   5.359  29.692  1.00 29.00 LIG 0.01  C 
ATOM     21  CG1 VAL B 303      11.630   6.783  29.375  1.00 28.23 LIG 0.01  C 
ATOM     22  CG2 VAL B 303      13.069   4.892  28.655  1.00 26.76 LIG 0.01  C 
ENDBRANCH 1 20
BRANCH 1 23
ATOM     23  C   VAL B 303      12.559   3.868  31.677  1.00 28.25 LIG 0.24  C 
ATOM     24 O    VAL B 303      12.669   2.906  30.909  1.00 25.63 LIG-0.27  OA
ATOM     25  N   SER B 304      12.399   3.714  32.984  1.00 28.07 LIG-0.34  N 
ATOM     26 H    SER B 304      12.361   4.356  33.555  1.00 28.07 LIG 0.16  HD
BRANCH 25 27
ATOM     27  CA  SER B 304      12.274   2.375  33.547  1.00 30.78 LIG 0.20  C 
BRANCH 27 28
ATOM     28  C   SER B 304      13.530   1.582  33.166  1.00 31.57 LIG 0.24  C 
ATOM     29 O    SER B 304      13.476   0.355  33.035  1.00 32.88 LIG-0.27  OA
ATOM     30  N   ALA B 305      14.657   2.275  33.015  1.00 33.00 LIG-0.35  N 
ATOM     31 H    ALA B 305      14.705   3.125  33.141  1.00 33.00 LIG 0.16  HD
BRANCH 30 32
ATOM     32  CA  ALA B 305      15.936   1.667  32.620  1.00 34.21 LIG 0.16  C 
ATOM     33  CB  ALA B 305      15.827   1.135  31.147  1.00 33.59 LIG 0.04  C 
BRANCH 32 34
ATOM     34  C   ALA B 305      17.073   2.674  32.701  1.00 34.64 LIG 0.22  C 
ATOM     35 O    ALA B 305      17.630   3.016  31.629  1.00 35.93 LIG-0.29  OA
ENDBRANCH 32 34
ENDBRANCH 30 32
ENDBRANCH 27 28
BRANCH 27 36
ATOM     36  CB  SER B 304      11.019   1.688  33.008  1.00 32.96 LIG 0.20  C 
BRANCH 36 37
ATOM     37 OG   SER B 304       9.876   2.463  33.335  1.00 37.22 LIG-0.40  OA
ATOM     38 HG   SER B 304      10.115   3.241  33.541  1.00 37.22 LIG 0.21  HD
ENDBRANCH 36 37
ENDBRANCH 27 36
ENDBRANCH 25 27
ENDBRANCH 1 23
TORSDOF 15
ENDMDL
MODEL 19
USER: ADFR SOLUTION from run 156
USER: SCORE 13.609887 LL:  -2.717 LR: -11.054 RR:   0.000 FEB:  -6.580
USER: RMSD 4.152724
USER: SEED 155
USER: STATUS no improvement in best 4 clusters for 5 generations
USER: GENES 17
USER: genes 0 Translation |==|  0.47577 0.49617 0.44232
USER: genes 1 Rotation |==|  0.75529 0.68903 0.29450 0.82690
USER: genes 2 Torsion [C]-CA--N-[C] |==|  0.80994
USER: genes 3 Torsion [N]-C--CA-[N] |==|  0.97969
USER: genes 4 Torsion [C]-CA--N-[C] |==|  0.75054
USER: genes 5 Torsion [N]-C--CA-[N] |==|  0.09497
USER: genes 6 Torsion [C]-CA--N-[H1] |==|  0.72686
USER: genes 7 Torsion [C]-CA--CB-[OG] |==|  0.69381
USER: genes 8 Torsion [CA]-CB--OG-[HG] |==|  0.08780
USER: genes 9 Torsion [N]-CA--CB-[CG1] |==|  0.21114
USER: genes 10 Torsion [N]-CA--C-[N] |==|  0.94154
USER: genes 11 Torsion [C]-N--CA-[C] |==|  0.17778
USER: genes 12 Torsion [N]-CA--C-[N] |==|  0.11339
USER: genes 13 Torsion [C]-N--CA-[CB] |==|  0.37585
USER: genes 14 Torsion [N]-CA--C-[O] |==|  0.12608
USER: genes 15 Torsion [N]-CA--CB-[OG] |==|  0.66776
USER: genes 16 Torsion [CA]-CB--OG-[HG] |==|  0.71781
ROOT
ATOM      1  CA  VAL B 303      12.403   3.665  31.020  1.00 28.18 LIG 0.18  C 
ENDROOT
BRANCH 1 2
ATOM      2  N   VAL B 303      11.764   3.170  32.232  1.00 29.68 LIG-0.35  N 
ATOM      3  C   SER B 302      11.469   1.884  32.402  1.00 31.00 LIG 0.24  C 
ATOM      4 O    SER B 302      11.692   1.031  31.532  1.00 32.88 LIG-0.27  OA
ATOM      5 H    VAL B 303      11.598   3.780  32.817  1.00 29.68 LIG 0.16  HD
BRANCH 3 6
ATOM      6  CA  SER B 302      10.803   1.507  33.740  1.00 30.54 LIG 0.20  C 
BRANCH 6 7
ATOM      7  N   SER B 302      10.768   2.636  34.672  1.00 26.47 LIG-0.34  N 
ATOM      8  C   ALA B 301      11.755   2.880  35.535  1.00 26.40 LIG 0.25  C 
ATOM      9 O    ALA B 301      12.751   2.163  35.647  1.00 23.28 LIG-0.27  OA
ATOM     10 H    SER B 302      10.060   3.121  34.611  1.00 26.47 LIG 0.16  HD
BRANCH 8 11
ATOM     11  CA  ALA B 301      11.583   4.104  36.433  1.00 27.42 LIG 0.27  C 
ATOM     12  CB  ALA B 301      12.412   3.945  37.744  1.00 28.79 LIG 0.05  C 
BRANCH 11 13
ATOM     13  N   ALA B 301      10.136   4.288  36.773  1.00 29.28 LIG-0.07  N 
ATOM     14 H1   ALA B 301       9.781   4.901  36.235  1.00 29.28 LIG 0.28  HD
ATOM     15 H2   ALA B 301       9.706   3.516  36.667  1.00 29.28 LIG 0.28  HD
ATOM     16 H3   ALA B 301      10.061   4.555  37.618  1.00 29.28 LIG 0.28  HD
ENDBRANCH 11 13
ENDBRANCH 8 11
ENDBRANCH 6 7
BRANCH 6 17
ATOM     17  CB  SER B 302       9.392   0.979  33.464  1.00 31.87 LIG 0.20  C 
BRANCH 17 18
ATOM     18 OG   SER B 302       8.426   1.898  33.924  1.00 37.10 LIG-0.40  OA
ATOM     19 HG   SER B 302       8.727   2.679  33.857  1.00 37.10 LIG 0.21  HD
ENDBRANCH 17 18
ENDBRANCH 6 17
ENDBRANCH 3 6
ENDBRANCH 1 2
BRANCH 1 20
ATOM     20  CB  VAL B 303      12.430   5.242  30.987  1.00 29.00 LIG 0.01  C 
ATOM     21  CG1 VAL B 303      13.504   5.755  31.925  1.00 28.23 LIG 0.01  C 
ATOM     22  CG2 VAL B 303      12.718   5.751  29.569  1.00 26.76 LIG 0.01  C 
ENDBRANCH 1 20
BRANCH 1 23
ATOM     23  C   VAL B 303      13.823   3.123  30.992  1.00 28.25 LIG 0.24  C 
ATOM     24 O    VAL B 303      14.461   3.087  29.934  1.00 25.63 LIG-0.27  OA
ATOM     25  N   SER B 304      14.347   2.731  32.146  1.00 28.07 LIG-0.34  N 
ATOM     26 H    SER B 304      13.951   2.780  32.908  1.00 28.07 LIG 0.16  HD
BRANCH 25 27
ATOM     27  CA  SER B 304      15.691   2.169  32.179  1.00 30.78 LIG 0.20  C 
BRANCH 27 28
ATOM     28  C   SER B 304      16.672   3.263  31.738  1.00 31.57 LIG 0.24  C 
ATOM     29 O    SER B 304      17.630   2.983  31.009  1.00 32.88 LIG-0.27  OA
ATOM     30  N   ALA B 305      16.450   4.492  32.198  1.00 33.00 LIG-0.35  N 
ATOM     31 H    ALA B 305      15.805   4.682  32.734  1.00 33.00 LIG 0.16  HD
BRANCH 30 32
ATOM     32  CA  ALA B 305      17.279   5.653  31.841  1.00 34.21 LIG 0.16  C 
ATOM     33  CB  ALA B 305      16.351   6.873  31.505  1.00 33.59 LIG 0.04  C 
BRANCH 32 34
ATOM     34  C   ALA B 305      18.208   6.036  32.983  1.00 34.64 LIG 0.22  C 
ATOM     35 O    ALA B 305      18.834   5.115  33.564  1.00 35.93 LIG-0.29  OA
ENDBRANCH 32 34
ENDBRANCH 30 32
ENDBRANCH 27 28
BRANCH 27 36
ATOM     36  CB  SER B 304      15.782   0.957  31.251  1.00 32.96 LIG 0.20  C 
BRANCH 36 37
ATOM     37 OG   SER B 304      16.133  -0.192  32.005  1.00 37.22 LIG-0.40  OA
ATOM     38 HG   SER B 304      16.950  -0.358  31.900  1.00 37.22 LIG 0.21  HD
ENDBRANCH 36 37
ENDBRANCH 27 36
ENDBRANCH 25 27
ENDBRANCH 1 23
TORSDOF 15
ENDMDL
MODEL 20
USER: ADFR SOLUTION from run 34
USER: SCORE 12.602061 LL:  -2.438 LR: -11.000 RR:   0.000 FEB:  -6.526
USER: RMSD 9.900059
USER: SEED 33
USER: STATUS no improvement in best 7 clusters for 5 generations
USER: GENES 17
USER: genes 0 Translation |==|  0.66296 0.62051 0.48668
USER: genes 1 Rotation |==|  0.90751 0.26337 0.35664 0.58593
USER: genes 2 Torsion [C]-CA--N-[C] |==|  0.67966
USER: genes 3 Torsion [N]-C--CA-[N] |==|  0.26667
USER: genes 4 Torsion [C]-CA--N-[C] |==|  0.65377
USER: genes 5 Torsion [N]-C--CA-[N] |==|  0.93264
USER: genes 6 Torsion [C]-CA--N-[H1] |==|  0.99282
USER: genes 7 Torsion [C]-CA--CB-[OG] |==|  0.78273
USER: genes 8 Torsion [CA]-CB--OG-[HG] |==|  0.18067
USER: genes 9 Torsion [N]-CA--CB-[CG1] |==|  0.43567
USER: genes 10 Torsion [N]-CA--C-[N] |==|  0.84069
USER: genes 11 Torsion [C]-N--CA-[C] |==|  0.79618
USER: genes 12 Torsion [N]-CA--C-[N] |==|  0.41933
USER: genes 13 Torsion [C]-N--CA-[CB] |==|  0.85582
USER: genes 14 Torsion [N]-CA--C-[O] |==|  0.04547
USER: genes 15 Torsion [N]-CA--CB-[OG] |==|  0.43443
USER: genes 16 Torsion [CA]-CB--OG-[HG] |==|  0.74970
ROOT
ATOM      1  CA  VAL B 303      18.019   7.395  32.350  1.00 28.18 LIG 0.18  C 
ENDROOT
BRANCH 1 2
ATOM      2  N   VAL B 303      17.256   8.610  32.093  1.00 29.68 LIG-0.35  N 
ATOM      3  C   SER B 302      17.440   9.342  30.998  1.00 31.00 LIG 0.24  C 
ATOM      4 O    SER B 302      18.289   9.057  30.142  1.00 32.88 LIG-0.27  OA
ATOM      5 H    VAL B 303      16.685   8.804  32.707  1.00 29.68 LIG 0.16  HD
BRANCH 3 6
ATOM      6  CA  SER B 302      16.553  10.595  30.857  1.00 30.54 LIG 0.20  C 
BRANCH 6 7
ATOM      7  N   SER B 302      17.233  11.804  31.330  1.00 26.47 LIG-0.34  N 
ATOM      8  C   ALA B 301      16.708  12.596  32.264  1.00 26.40 LIG 0.25  C 
ATOM      9 O    ALA B 301      15.604  12.405  32.777  1.00 23.28 LIG-0.27  OA
ATOM     10 H    SER B 302      17.992  11.951  30.953  1.00 26.47 LIG 0.16  HD
BRANCH 8 11
ATOM     11  CA  ALA B 301      17.542  13.813  32.667  1.00 27.42 LIG 0.27  C 
ATOM     12  CB  ALA B 301      17.069  15.083  31.897  1.00 28.79 LIG 0.05  C 
BRANCH 11 13
ATOM     13  N   ALA B 301      18.988  13.558  32.375  1.00 29.28 LIG-0.07  N 
ATOM     14 H1   ALA B 301      19.087  12.732  32.058  1.00 29.28 LIG 0.28  HD
ATOM     15 H2   ALA B 301      19.277  14.144  31.770  1.00 29.28 LIG 0.28  HD
ATOM     16 H3   ALA B 301      19.463  13.647  33.123  1.00 29.28 LIG 0.28  HD
ENDBRANCH 11 13
ENDBRANCH 8 11
ENDBRANCH 6 7
BRANCH 6 17
ATOM     17  CB  SER B 302      16.128  10.743  29.392  1.00 31.87 LIG 0.20  C 
BRANCH 17 18
ATOM     18 OG   SER B 302      17.183  11.285  28.627  1.00 37.10 LIG-0.40  OA
ATOM     19 HG   SER B 302      17.825  10.744  28.613  1.00 37.10 LIG 0.21  HD
ENDBRANCH 17 18
ENDBRANCH 6 17
ENDBRANCH 3 6
ENDBRANCH 1 2
BRANCH 1 20
ATOM     20  CB  VAL B 303      18.758   7.466  33.742  1.00 29.00 LIG 0.01  C 
ATOM     21  CG1 VAL B 303      19.048   6.065  34.240  1.00 28.23 LIG 0.01  C 
ATOM     22  CG2 VAL B 303      20.079   8.235  33.616  1.00 26.76 LIG 0.01  C 
ENDBRANCH 1 20
BRANCH 1 23
ATOM     23  C   VAL B 303      17.045   6.228  32.341  1.00 28.25 LIG 0.24  C 
ATOM     24 O    VAL B 303      17.227   5.266  31.586  1.00 25.63 LIG-0.27  OA
ATOM     25  N   SER B 304      16.030   6.275  33.192  1.00 28.07 LIG-0.34  N 
ATOM     26 H    SER B 304      15.894   6.906  33.761  1.00 28.07 LIG 0.16  HD
BRANCH 25 27
ATOM     27  CA  SER B 304      15.043   5.203  33.206  1.00 30.78 LIG 0.20  C 
BRANCH 27 28
ATOM     28  C   SER B 304      14.166   5.352  31.955  1.00 31.57 LIG 0.24  C 
ATOM     29 O    SER B 304      13.957   6.468  31.470  1.00 32.88 LIG-0.27  OA
ATOM     30  N   ALA B 305      13.638   4.236  31.454  1.00 33.00 LIG-0.35  N 
ATOM     31 H    ALA B 305      13.753   3.462  31.811  1.00 33.00 LIG 0.16  HD
BRANCH 30 32
ATOM     32  CA  ALA B 305      12.804   4.208  30.244  1.00 34.21 LIG 0.16  C 
ATOM     33  CB  ALA B 305      11.648   5.260  30.381  1.00 33.59 LIG 0.04  C 
BRANCH 32 34
ATOM     34  C   ALA B 305      13.624   4.530  29.004  1.00 34.64 LIG 0.22  C 
ATOM     35 O    ALA B 305      14.875   4.460  29.093  1.00 35.93 LIG-0.29  OA
ENDBRANCH 32 34
ENDBRANCH 30 32
ENDBRANCH 27 28
BRANCH 27 36
ATOM     36  CB  SER B 304      14.191   5.281  34.473  1.00 32.96 LIG 0.20  C 
BRANCH 36 37
ATOM     37 OG   SER B 304      12.947   4.639  34.248  1.00 37.22 LIG-0.40  OA
ATOM     38 HG   SER B 304      12.392   5.197  33.955  1.00 37.22 LIG 0.21  HD
ENDBRANCH 36 37
ENDBRANCH 27 36
ENDBRANCH 25 27
ENDBRANCH 1 23
TORSDOF 15
ENDMDL
MODEL 21
USER: ADFR SOLUTION from run 107
USER: SCORE 12.933855 LL:  -2.701 LR: -10.992 RR:   0.000 FEB:  -6.517
USER: RMSD 7.995355
USER: SEED 106
USER: STATUS no improvement in best 19 clusters for 5 generations
USER: GENES 17
USER: genes 0 Translation |==|  0.62223 0.61243 0.47936
USER: genes 1 Rotation |==|  0.77355 0.68619 0.12794 0.54553
USER: genes 2 Torsion [C]-CA--N-[C] |==|  0.17133
USER: genes 3 Torsion [N]-C--CA-[N] |==|  0.85634
USER: genes 4 Torsion [C]-CA--N-[C] |==|  0.77624
USER: genes 5 Torsion [N]-C--CA-[N] |==|  0.20511
USER: genes 6 Torsion [C]-CA--N-[H1] |==|  0.92598
USER: genes 7 Torsion [C]-CA--CB-[OG] |==|  0.72145
USER: genes 8 Torsion [CA]-CB--OG-[HG] |==|  0.83321
USER: genes 9 Torsion [N]-CA--CB-[CG1] |==|  0.57577
USER: genes 10 Torsion [N]-CA--C-[N] |==|  0.06145
USER: genes 11 Torsion [C]-N--CA-[C] |==|  0.66440
USER: genes 12 Torsion [N]-CA--C-[N] |==|  0.10500
USER: genes 13 Torsion [C]-N--CA-[CB] |==|  0.24361
USER: genes 14 Torsion [N]-CA--C-[O] |==|  0.91674
USER: genes 15 Torsion [N]-CA--CB-[OG] |==|  0.95212
USER: genes 16 Torsion [CA]-CB--OG-[HG] |==|  0.48261
ROOT
ATOM      1  CA  VAL B 303      16.797   7.153  32.131  1.00 28.18 LIG 0.18  C 
ENDROOT
BRANCH 1 2
ATOM      2  N   VAL B 303      16.664   6.529  33.441  1.00 29.68 LIG-0.35  N 
ATOM      3  C   SER B 302      17.550   5.648  33.898  1.00 31.00 LIG 0.24  C 
ATOM      4 O    SER B 302      18.527   5.281  33.231  1.00 32.88 LIG-0.27  OA
ATOM      5 H    VAL B 303      15.969   6.780  33.882  1.00 29.68 LIG 0.16  HD
BRANCH 3 6
ATOM      6  CA  SER B 302      17.284   5.078  35.306  1.00 30.54 LIG 0.20  C 
BRANCH 6 7
ATOM      7  N   SER B 302      17.060   6.138  36.292  1.00 26.47 LIG-0.34  N 
ATOM      8  C   ALA B 301      18.064   6.808  36.857  1.00 26.40 LIG 0.25  C 
ATOM      9 O    ALA B 301      19.251   6.573  36.631  1.00 23.28 LIG-0.27  OA
ATOM     10 H    SER B 302      16.231   6.284  36.469  1.00 26.47 LIG 0.16  HD
BRANCH 8 11
ATOM     11  CA  ALA B 301      17.674   7.897  37.857  1.00 27.42 LIG 0.27  C 
ATOM     12  CB  ALA B 301      18.883   8.836  38.147  1.00 28.79 LIG 0.05  C 
BRANCH 11 13
ATOM     13  N   ALA B 301      17.206   7.270  39.135  1.00 29.28 LIG-0.07  N 
ATOM     14 H1   ALA B 301      16.880   6.459  38.966  1.00 29.28 LIG 0.28  HD
ATOM     15 H2   ALA B 301      17.890   7.202  39.700  1.00 29.28 LIG 0.28  HD
ATOM     16 H3   ALA B 301      16.570   7.775  39.498  1.00 29.28 LIG 0.28  HD
ENDBRANCH 11 13
ENDBRANCH 8 11
ENDBRANCH 6 7
BRANCH 6 17
ATOM     17  CB  SER B 302      16.084   4.127  35.240  1.00 31.87 LIG 0.20  C 
BRANCH 17 18
ATOM     18 OG   SER B 302      14.919   4.775  35.701  1.00 37.10 LIG-0.40  OA
ATOM     19 HG   SER B 302      15.030   5.020  36.497  1.00 37.10 LIG 0.21  HD
ENDBRANCH 17 18
ENDBRANCH 6 17
ENDBRANCH 3 6
ENDBRANCH 1 2
BRANCH 1 20
ATOM     20  CB  VAL B 303      18.156   7.944  32.008  1.00 29.00 LIG 0.01  C 
ATOM     21  CG1 VAL B 303      18.002   9.074  31.010  1.00 28.23 LIG 0.01  C 
ATOM     22  CG2 VAL B 303      18.569   8.528  33.365  1.00 26.76 LIG 0.01  C 
ENDBRANCH 1 20
BRANCH 1 23
ATOM     23  C   VAL B 303      16.744   6.050  31.087  1.00 28.25 LIG 0.24  C 
ATOM     24 O    VAL B 303      17.255   6.214  29.973  1.00 25.63 LIG-0.27  OA
ATOM     25  N   SER B 304      16.166   4.908  31.436  1.00 28.07 LIG-0.34  N 
ATOM     26 H    SER B 304      15.837   4.741  32.213  1.00 28.07 LIG 0.16  HD
BRANCH 25 27
ATOM     27  CA  SER B 304      16.053   3.826  30.467  1.00 30.78 LIG 0.20  C 
BRANCH 27 28
ATOM     28  C   SER B 304      14.563   3.500  30.293  1.00 31.57 LIG 0.24  C 
ATOM     29 O    SER B 304      14.197   2.332  30.125  1.00 32.88 LIG-0.27  OA
ATOM     30  N   ALA B 305      13.717   4.528  30.307  1.00 33.00 LIG-0.35  N 
ATOM     31 H    ALA B 305      13.973   5.345  30.387  1.00 33.00 LIG 0.16  HD
BRANCH 30 32
ATOM     32  CA  ALA B 305      12.259   4.378  30.185  1.00 34.21 LIG 0.16  C 
ATOM     33  CB  ALA B 305      11.638   4.155  31.609  1.00 33.59 LIG 0.04  C 
BRANCH 32 34
ATOM     34  C   ALA B 305      11.630   5.612  29.557  1.00 34.64 LIG 0.22  C 
ATOM     35 O    ALA B 305      12.191   6.719  29.750  1.00 35.93 LIG-0.29  OA
ENDBRANCH 32 34
ENDBRANCH 30 32
ENDBRANCH 27 28
BRANCH 27 36
ATOM     36  CB  SER B 304      16.820   2.596  30.953  1.00 32.96 LIG 0.20  C 
BRANCH 36 37
ATOM     37 OG   SER B 304      17.726   2.976  31.976  1.00 37.22 LIG-0.40  OA
ATOM     38 HG   SER B 304      18.085   2.290  32.302  1.00 37.22 LIG 0.21  HD
ENDBRANCH 36 37
ENDBRANCH 27 36
ENDBRANCH 25 27
ENDBRANCH 1 23
TORSDOF 15
ENDMDL
MODEL 22
USER: ADFR SOLUTION from run 143
USER: SCORE 12.846417 LL:  -2.940 LR: -10.983 RR:   0.000 FEB:  -6.509
USER: RMSD 8.500576
USER: SEED 142
USER: STATUS no improvement in best 25 clusters for 5 generations
USER: GENES 17
USER: genes 0 Translation |==|  0.68269 0.66672 0.49412
USER: genes 1 Rotation |==|  0.33441 0.46012 0.75538 0.89468
USER: genes 2 Torsion [C]-CA--N-[C] |==|  0.54462
USER: genes 3 Torsion [N]-C--CA-[N] |==|  0.79668
USER: genes 4 Torsion [C]-CA--N-[C] |==|  0.82687
USER: genes 5 Torsion [N]-C--CA-[N] |==|  0.24291
USER: genes 6 Torsion [C]-CA--N-[H1] |==|  0.22522
USER: genes 7 Torsion [C]-CA--CB-[OG] |==|  0.55863
USER: genes 8 Torsion [CA]-CB--OG-[HG] |==|  0.09567
USER: genes 9 Torsion [N]-CA--CB-[CG1] |==|  0.21364
USER: genes 10 Torsion [N]-CA--C-[N] |==|  0.43889
USER: genes 11 Torsion [C]-N--CA-[C] |==|  0.78236
USER: genes 12 Torsion [N]-CA--C-[N] |==|  0.89059
USER: genes 13 Torsion [C]-N--CA-[CB] |==|  0.17398
USER: genes 14 Torsion [N]-CA--C-[O] |==|  0.03284
USER: genes 15 Torsion [N]-CA--CB-[OG] |==|  0.05491
USER: genes 16 Torsion [CA]-CB--OG-[HG] |==|  0.79391
ROOT
ATOM      1  CA  VAL B 303      18.611   8.782  32.573  1.00 28.18 LIG 0.18  C 
ENDROOT
BRANCH 1 2
ATOM      2  N   VAL B 303      17.878   7.924  33.496  1.00 29.68 LIG-0.35  N 
ATOM      3  C   SER B 302      18.488   7.021  34.259  1.00 31.00 LIG 0.24  C 
ATOM      4 O    SER B 302      19.711   6.831  34.214  1.00 32.88 LIG-0.27  OA
ATOM      5 H    VAL B 303      17.027   8.055  33.499  1.00 29.68 LIG 0.16  HD
BRANCH 3 6
ATOM      6  CA  SER B 302      17.584   6.192  35.193  1.00 30.54 LIG 0.20  C 
BRANCH 6 7
ATOM      7  N   SER B 302      17.098   6.982  36.327  1.00 26.47 LIG-0.34  N 
ATOM      8  C   ALA B 301      17.921   7.512  37.231  1.00 26.40 LIG 0.25  C 
ATOM      9 O    ALA B 301      19.143   7.353  37.214  1.00 23.28 LIG-0.27  OA
ATOM     10 H    SER B 302      16.242   7.071  36.352  1.00 26.47 LIG 0.16  HD
BRANCH 8 11
ATOM     11  CA  ALA B 301      17.268   8.324  38.349  1.00 27.42 LIG 0.27  C 
ATOM     12  CB  ALA B 301      18.240   9.425  38.870  1.00 28.79 LIG 0.05  C 
BRANCH 11 13
ATOM     13  N   ALA B 301      16.883   7.418  39.479  1.00 29.28 LIG-0.07  N 
ATOM     14 H1   ALA B 301      17.597   7.255  39.985  1.00 29.28 LIG 0.28  HD
ATOM     15 H2   ALA B 301      16.254   7.809  39.971  1.00 29.28 LIG 0.28  HD
ATOM     16 H3   ALA B 301      16.571   6.652  39.152  1.00 29.28 LIG 0.28  HD
ENDBRANCH 11 13
ENDBRANCH 8 11
ENDBRANCH 6 7
BRANCH 6 17
ATOM     17  CB  SER B 302      16.417   5.622  34.381  1.00 31.87 LIG 0.20  C 
BRANCH 17 18
ATOM     18 OG   SER B 302      15.344   5.285  35.233  1.00 37.10 LIG-0.40  OA
ATOM     19 HG   SER B 302      15.310   5.832  35.869  1.00 37.10 LIG 0.21  HD
ENDBRANCH 17 18
ENDBRANCH 6 17
ENDBRANCH 3 6
ENDBRANCH 1 2
BRANCH 1 20
ATOM     20  CB  VAL B 303      19.059   7.989  31.286  1.00 29.00 LIG 0.01  C 
ATOM     21  CG1 VAL B 303      17.875   7.808  30.357  1.00 28.23 LIG 0.01  C 
ATOM     22  CG2 VAL B 303      20.167   8.744  30.542  1.00 26.76 LIG 0.01  C 
ENDBRANCH 1 20
BRANCH 1 23
ATOM     23  C   VAL B 303      17.693   9.928  32.182  1.00 28.25 LIG 0.24  C 
ATOM     24 O    VAL B 303      16.469   9.826  32.317  1.00 25.63 LIG-0.27  OA
ATOM     25  N   SER B 304      18.263  11.037  31.729  1.00 28.07 LIG-0.34  N 
ATOM     26 H    SER B 304      19.112  11.161  31.660  1.00 28.07 LIG 0.16  HD
BRANCH 25 27
ATOM     27  CA  SER B 304      17.435  12.157  31.304  1.00 30.78 LIG 0.20  C 
BRANCH 27 28
ATOM     28  C   SER B 304      16.893  11.841  29.903  1.00 31.57 LIG 0.24  C 
ATOM     29 O    SER B 304      15.726  12.118  29.610  1.00 32.88 LIG-0.27  OA
ATOM     30  N   ALA B 305      17.728  11.243  29.056  1.00 33.00 LIG-0.35  N 
ATOM     31 H    ALA B 305      18.530  11.017  29.270  1.00 33.00 LIG 0.16  HD
BRANCH 30 32
ATOM     32  CA  ALA B 305      17.371  10.904  27.670  1.00 34.21 LIG 0.16  C 
ATOM     33  CB  ALA B 305      17.060  12.221  26.875  1.00 33.59 LIG 0.04  C 
BRANCH 32 34
ATOM     34  C   ALA B 305      18.502  10.161  26.977  1.00 34.64 LIG 0.22  C 
ATOM     35 O    ALA B 305      19.448   9.739  27.687  1.00 35.93 LIG-0.29  OA
ENDBRANCH 32 34
ENDBRANCH 30 32
ENDBRANCH 27 28
BRANCH 27 36
ATOM     36  CB  SER B 304      18.256  13.447  31.285  1.00 32.96 LIG 0.20  C 
BRANCH 36 37
ATOM     37 OG   SER B 304      19.637  13.129  31.234  1.00 37.22 LIG-0.40  OA
ATOM     38 HG   SER B 304      19.888  12.851  31.985  1.00 37.22 LIG 0.21  HD
ENDBRANCH 36 37
ENDBRANCH 27 36
ENDBRANCH 25 27
ENDBRANCH 1 23
TORSDOF 15
ENDMDL
MODEL 23
USER: ADFR SOLUTION from run 118
USER: SCORE 13.003447 LL:  -2.542 LR: -10.985 RR:   0.000 FEB:  -6.510
USER: RMSD 5.580753
USER: SEED 117
USER: STATUS no improvement in best 18 clusters for 5 generations
USER: GENES 17
USER: genes 0 Translation |==|  0.61567 0.56463 0.46962
USER: genes 1 Rotation |==|  0.62456 0.76310 0.59603 0.89502
USER: genes 2 Torsion [C]-CA--N-[C] |==|  0.65810
USER: genes 3 Torsion [N]-C--CA-[N] |==|  0.42492
USER: genes 4 Torsion [C]-CA--N-[C] |==|  0.74722
USER: genes 5 Torsion [N]-C--CA-[N] |==|  0.79331
USER: genes 6 Torsion [C]-CA--N-[H1] |==|  0.99868
USER: genes 7 Torsion [C]-CA--CB-[OG] |==|  0.68477
USER: genes 8 Torsion [CA]-CB--OG-[HG] |==|  0.18085
USER: genes 9 Torsion [N]-CA--CB-[CG1] |==|  0.75965
USER: genes 10 Torsion [N]-CA--C-[N] |==|  0.45926
USER: genes 11 Torsion [C]-N--CA-[C] |==|  0.64869
USER: genes 12 Torsion [N]-CA--C-[N] |==|  0.49444
USER: genes 13 Torsion [C]-N--CA-[CB] |==|  0.84191
USER: genes 14 Torsion [N]-CA--C-[O] |==|  0.05473
USER: genes 15 Torsion [N]-CA--CB-[OG] |==|  0.84992
USER: genes 16 Torsion [CA]-CB--OG-[HG] |==|  0.02416
ROOT
ATOM      1  CA  VAL B 303      16.600   5.719  31.839  1.00 28.18 LIG 0.18  C 
ENDROOT
BRANCH 1 2
ATOM      2  N   VAL B 303      16.756   4.688  32.857  1.00 29.68 LIG-0.35  N 
ATOM      3  C   SER B 302      17.253   3.486  32.576  1.00 31.00 LIG 0.24  C 
ATOM      4 O    SER B 302      17.587   3.156  31.429  1.00 32.88 LIG-0.27  OA
ATOM      5 H    VAL B 303      16.500   4.927  33.643  1.00 29.68 LIG 0.16  HD
BRANCH 3 6
ATOM      6  CA  SER B 302      17.368   2.501  33.756  1.00 30.54 LIG 0.20  C 
BRANCH 6 7
ATOM      7  N   SER B 302      17.299   1.106  33.314  1.00 26.47 LIG-0.34  N 
ATOM      8  C   ALA B 301      16.148   0.438  33.241  1.00 26.40 LIG 0.25  C 
ATOM      9 O    ALA B 301      15.062   0.918  33.570  1.00 23.28 LIG-0.27  OA
ATOM     10 H    SER B 302      18.061   0.764  33.110  1.00 26.47 LIG 0.16  HD
BRANCH 8 11
ATOM     11  CA  ALA B 301      16.232  -1.006  32.748  1.00 27.42 LIG 0.27  C 
ATOM     12  CB  ALA B 301      17.382  -1.768  33.473  1.00 28.79 LIG 0.05  C 
BRANCH 11 13
ATOM     13  N   ALA B 301      16.470  -1.026  31.269  1.00 29.28 LIG-0.07  N 
ATOM     14 H1   ALA B 301      16.509  -0.191  30.963  1.00 29.28 LIG 0.28  HD
ATOM     15 H2   ALA B 301      17.238  -1.441  31.098  1.00 29.28 LIG 0.28  HD
ATOM     16 H3   ALA B 301      15.804  -1.458  30.867  1.00 29.28 LIG 0.28  HD
ENDBRANCH 11 13
ENDBRANCH 8 11
ENDBRANCH 6 7
BRANCH 6 17
ATOM     17  CB  SER B 302      18.675   2.775  34.508  1.00 31.87 LIG 0.20  C 
BRANCH 17 18
ATOM     18 OG   SER B 302      19.558   1.683  34.370  1.00 37.10 LIG-0.40  OA
ATOM     19 HG   SER B 302      19.784   1.606  33.566  1.00 37.10 LIG 0.21  HD
ENDBRANCH 17 18
ENDBRANCH 6 17
ENDBRANCH 3 6
ENDBRANCH 1 2
BRANCH 1 20
ATOM     20  CB  VAL B 303      15.082   6.091  31.627  1.00 29.00 LIG 0.01  C 
ATOM     21  CG1 VAL B 303      14.460   5.149  30.616  1.00 28.23 LIG 0.01  C 
ATOM     22  CG2 VAL B 303      14.309   5.989  32.948  1.00 26.76 LIG 0.01  C 
ENDBRANCH 1 20
BRANCH 1 23
ATOM     23  C   VAL B 303      17.373   6.943  32.300  1.00 28.25 LIG 0.24  C 
ATOM     24 O    VAL B 303      17.783   7.025  33.463  1.00 25.63 LIG-0.27  OA
ATOM     25  N   SER B 304      17.614   7.887  31.399  1.00 28.07 LIG-0.34  N 
ATOM     26 H    SER B 304      17.382   7.847  30.572  1.00 28.07 LIG 0.16  HD
BRANCH 25 27
ATOM     27  CA  SER B 304      18.319   9.100  31.790  1.00 30.78 LIG 0.20  C 
BRANCH 27 28
ATOM     28  C   SER B 304      17.464  10.302  31.365  1.00 31.57 LIG 0.24  C 
ATOM     29 O    SER B 304      16.411  10.129  30.744  1.00 32.88 LIG-0.27  OA
ATOM     30  N   ALA B 305      17.929  11.511  31.677  1.00 33.00 LIG-0.35  N 
ATOM     31 H    ALA B 305      18.679  11.635  32.078  1.00 33.00 LIG 0.16  HD
BRANCH 30 32
ATOM     32  CA  ALA B 305      17.212  12.757  31.369  1.00 34.21 LIG 0.16  C 
ATOM     33  CB  ALA B 305      16.937  12.834  29.826  1.00 33.59 LIG 0.04  C 
BRANCH 32 34
ATOM     34  C   ALA B 305      15.887  12.828  32.113  1.00 34.64 LIG 0.22  C 
ATOM     35 O    ALA B 305      15.741  12.092  33.120  1.00 35.93 LIG-0.29  OA
ENDBRANCH 32 34
ENDBRANCH 30 32
ENDBRANCH 27 28
BRANCH 27 36
ATOM     36  CB  SER B 304      19.693   9.154  31.122  1.00 32.96 LIG 0.20  C 
BRANCH 36 37
ATOM     37 OG   SER B 304      20.406   7.962  31.408  1.00 37.22 LIG-0.40  OA
ATOM     38 HG   SER B 304      19.895   7.412  31.784  1.00 37.22 LIG 0.21  HD
ENDBRANCH 36 37
ENDBRANCH 27 36
ENDBRANCH 25 27
ENDBRANCH 1 23
TORSDOF 15
ENDMDL
MODEL 24
USER: ADFR SOLUTION from run 25
USER: SCORE 13.914724 LL:  -3.178 LR: -10.974 RR:   0.000 FEB:  -6.499
USER: RMSD 5.816963
USER: SEED 24
USER: STATUS no improvement in best 4 clusters for 5 generations
USER: GENES 17
USER: genes 0 Translation |==|  0.61589 0.58749 0.52662
USER: genes 1 Rotation |==|  0.14697 0.27772 0.76391 0.57947
USER: genes 2 Torsion [C]-CA--N-[C] |==|  0.80277
USER: genes 3 Torsion [N]-C--CA-[N] |==|  0.37353
USER: genes 4 Torsion [C]-CA--N-[C] |==|  0.66108
USER: genes 5 Torsion [N]-C--CA-[N] |==|  0.24076
USER: genes 6 Torsion [C]-CA--N-[H1] |==|  0.09739
USER: genes 7 Torsion [C]-CA--CB-[OG] |==|  0.72993
USER: genes 8 Torsion [CA]-CB--OG-[HG] |==|  0.06295
USER: genes 9 Torsion [N]-CA--CB-[CG1] |==|  0.83289
USER: genes 10 Torsion [N]-CA--C-[N] |==|  0.92358
USER: genes 11 Torsion [C]-N--CA-[C] |==|  0.75784
USER: genes 12 Torsion [N]-CA--C-[N] |==|  0.95622
USER: genes 13 Torsion [C]-N--CA-[CB] |==|  0.80356
USER: genes 14 Torsion [N]-CA--C-[O] |==|  0.13412
USER: genes 15 Torsion [N]-CA--CB-[OG] |==|  0.98145
USER: genes 16 Torsion [CA]-CB--OG-[HG] |==|  0.43076
ROOT
ATOM      1  CA  VAL B 303      16.607   6.405  33.549  1.00 28.18 LIG 0.18  C 
ENDROOT
BRANCH 1 2
ATOM      2  N   VAL B 303      15.848   5.353  34.213  1.00 29.68 LIG-0.35  N 
ATOM      3  C   SER B 302      14.530   5.233  34.070  1.00 31.00 LIG 0.24  C 
ATOM      4 O    SER B 302      13.861   6.023  33.389  1.00 32.88 LIG-0.27  OA
ATOM      5 H    VAL B 303      16.325   4.826  34.698  1.00 29.68 LIG 0.16  HD
BRANCH 3 6
ATOM      6  CA  SER B 302      13.864   4.066  34.826  1.00 30.54 LIG 0.20  C 
BRANCH 6 7
ATOM      7  N   SER B 302      12.644   4.488  35.518  1.00 26.47 LIG-0.34  N 
ATOM      8  C   ALA B 301      12.487   4.346  36.834  1.00 26.40 LIG 0.25  C 
ATOM      9 O    ALA B 301      13.327   3.821  37.566  1.00 23.28 LIG-0.27  OA
ATOM     10 H    SER B 302      12.047   4.831  35.002  1.00 26.47 LIG 0.16  HD
BRANCH 8 11
ATOM     11  CA  ALA B 301      11.165   4.847  37.417  1.00 27.42 LIG 0.27  C 
ATOM     12  CB  ALA B 301      11.347   5.280  38.902  1.00 28.79 LIG 0.05  C 
BRANCH 11 13
ATOM     13  N   ALA B 301      10.130   3.768  37.331  1.00 29.28 LIG-0.07  N 
ATOM     14 H1   ALA B 301      10.516   2.975  37.457  1.00 29.28 LIG 0.28  HD
ATOM     15 H2   ALA B 301       9.512   3.899  37.957  1.00 29.28 LIG 0.28  HD
ATOM     16 H3   ALA B 301       9.747   3.786  36.528  1.00 29.28 LIG 0.28  HD
ENDBRANCH 11 13
ENDBRANCH 8 11
ENDBRANCH 6 7
BRANCH 6 17
ATOM     17  CB  SER B 302      13.570   2.935  33.835  1.00 31.87 LIG 0.20  C 
BRANCH 17 18
ATOM     18 OG   SER B 302      12.229   3.000  33.400  1.00 37.10 LIG-0.40  OA
ATOM     19 HG   SER B 302      11.939   3.781  33.503  1.00 37.10 LIG 0.21  HD
ENDBRANCH 17 18
ENDBRANCH 6 17
ENDBRANCH 3 6
ENDBRANCH 1 2
BRANCH 1 20
ATOM     20  CB  VAL B 303      18.077   6.495  34.113  1.00 29.00 LIG 0.01  C 
ATOM     21  CG1 VAL B 303      18.039   6.802  35.596  1.00 28.23 LIG 0.01  C 
ATOM     22  CG2 VAL B 303      18.824   5.173  33.895  1.00 26.76 LIG 0.01  C 
ENDBRANCH 1 20
BRANCH 1 23
ATOM     23  C   VAL B 303      16.641   6.081  32.064  1.00 28.25 LIG 0.24  C 
ATOM     24 O    VAL B 303      16.783   6.981  31.229  1.00 25.63 LIG-0.27  OA
ATOM     25  N   SER B 304      16.549   4.804  31.717  1.00 28.07 LIG-0.34  N 
ATOM     26 H    SER B 304      16.492   4.147  32.269  1.00 28.07 LIG 0.16  HD
BRANCH 25 27
ATOM     27  CA  SER B 304      16.540   4.434  30.307  1.00 30.78 LIG 0.20  C 
BRANCH 27 28
ATOM     28  C   SER B 304      15.089   4.493  29.812  1.00 31.57 LIG 0.24  C 
ATOM     29 O    SER B 304      14.846   4.531  28.601  1.00 32.88 LIG-0.27  OA
ATOM     30  N   ALA B 305      14.137   4.526  30.741  1.00 33.00 LIG-0.35  N 
ATOM     31 H    ALA B 305      14.305   4.536  31.585  1.00 33.00 LIG 0.16  HD
BRANCH 30 32
ATOM     32  CA  ALA B 305      12.700   4.550  30.428  1.00 34.21 LIG 0.16  C 
ATOM     33  CB  ALA B 305      12.323   5.946  29.819  1.00 33.59 LIG 0.04  C 
BRANCH 32 34
ATOM     34  C   ALA B 305      12.336   3.459  29.433  1.00 34.64 LIG 0.22  C 
ATOM     35 O    ALA B 305      12.756   2.297  29.657  1.00 35.93 LIG-0.29  OA
ENDBRANCH 32 34
ENDBRANCH 30 32
ENDBRANCH 27 28
BRANCH 27 36
ATOM     36  CB  SER B 304      17.116   3.030  30.124  1.00 32.96 LIG 0.20  C 
BRANCH 36 37
ATOM     37 OG   SER B 304      17.630   2.562  31.360  1.00 37.22 LIG-0.40  OA
ATOM     38 HG   SER B 304      17.628   1.723  31.366  1.00 37.22 LIG 0.21  HD
ENDBRANCH 36 37
ENDBRANCH 27 36
ENDBRANCH 25 27
ENDBRANCH 1 23
TORSDOF 15
ENDMDL
MODEL 25
USER: ADFR SOLUTION from run 142
USER: SCORE 13.425599 LL:  -3.055 LR: -10.975 RR:   0.000 FEB:  -6.500
USER: RMSD 5.517466
USER: SEED 141
USER: STATUS no improvement in best 16 clusters for 5 generations
USER: GENES 17
USER: genes 0 Translation |==|  0.55753 0.58650 0.47462
USER: genes 1 Rotation |==|  0.86702 0.83520 0.55371 0.50743
USER: genes 2 Torsion [C]-CA--N-[C] |==|  0.64407
USER: genes 3 Torsion [N]-C--CA-[N] |==|  0.14563
USER: genes 4 Torsion [C]-CA--N-[C] |==|  0.78333
USER: genes 5 Torsion [N]-C--CA-[N] |==|  0.37337
USER: genes 6 Torsion [C]-CA--N-[H1] |==|  0.63832
USER: genes 7 Torsion [C]-CA--CB-[OG] |==|  0.48472
USER: genes 8 Torsion [CA]-CB--OG-[HG] |==|  0.33480
USER: genes 9 Torsion [N]-CA--CB-[CG1] |==|  0.90307
USER: genes 10 Torsion [N]-CA--C-[N] |==|  0.44269
USER: genes 11 Torsion [C]-N--CA-[C] |==|  0.79514
USER: genes 12 Torsion [N]-CA--C-[N] |==|  0.91520
USER: genes 13 Torsion [C]-N--CA-[CB] |==|  0.46324
USER: genes 14 Torsion [N]-CA--C-[O] |==|  0.20105
USER: genes 15 Torsion [N]-CA--CB-[OG] |==|  0.05591
USER: genes 16 Torsion [CA]-CB--OG-[HG] |==|  0.05667
ROOT
ATOM      1  CA  VAL B 303      14.856   6.375  31.989  1.00 28.18 LIG 0.18  C 
ENDROOT
BRANCH 1 2
ATOM      2  N   VAL B 303      14.653   5.222  31.121  1.00 29.68 LIG-0.35  N 
ATOM      3  C   SER B 302      13.559   5.080  30.377  1.00 31.00 LIG 0.24  C 
ATOM      4 O    SER B 302      12.632   5.902  30.395  1.00 32.88 LIG-0.27  OA
ATOM      5 H    VAL B 303      15.297   4.652  31.136  1.00 29.68 LIG 0.16  HD
BRANCH 3 6
ATOM      6  CA  SER B 302      13.487   3.813  29.502  1.00 30.54 LIG 0.20  C 
BRANCH 6 7
ATOM      7  N   SER B 302      13.724   2.595  30.280  1.00 26.47 LIG-0.34  N 
ATOM      8  C   ALA B 301      14.946   2.212  30.649  1.00 26.40 LIG 0.25  C 
ATOM      9 O    ALA B 301      15.972   2.819  30.339  1.00 23.28 LIG-0.27  OA
ATOM     10 H    SER B 302      13.009   2.158  30.474  1.00 26.47 LIG 0.16  HD
BRANCH 8 11
ATOM     11  CA  ALA B 301      15.033   0.926  31.471  1.00 27.42 LIG 0.27  C 
ATOM     12  CB  ALA B 301      15.303   1.250  32.972  1.00 28.79 LIG 0.05  C 
BRANCH 11 13
ATOM     13  N   ALA B 301      16.130   0.056  30.940  1.00 29.28 LIG-0.07  N 
ATOM     14 H1   ALA B 301      15.821  -0.770  30.817  1.00 29.28 LIG 0.28  HD
ATOM     15 H2   ALA B 301      16.419   0.382  30.164  1.00 29.28 LIG 0.28  HD
ATOM     16 H3   ALA B 301      16.802   0.036  31.522  1.00 29.28 LIG 0.28  HD
ENDBRANCH 11 13
ENDBRANCH 8 11
ENDBRANCH 6 7
BRANCH 6 17
ATOM     17  CB  SER B 302      12.122   3.764  28.807  1.00 31.87 LIG 0.20  C 
BRANCH 17 18
ATOM     18 OG   SER B 302      12.072   2.684  27.901  1.00 37.10 LIG-0.40  OA
ATOM     19 HG   SER B 302      11.447   2.166  28.118  1.00 37.10 LIG 0.21  HD
ENDBRANCH 17 18
ENDBRANCH 6 17
ENDBRANCH 3 6
ENDBRANCH 1 2
BRANCH 1 20
ATOM     20  CB  VAL B 303      14.796   5.966  33.511  1.00 29.00 LIG 0.01  C 
ATOM     21  CG1 VAL B 303      13.780   4.858  33.704  1.00 28.23 LIG 0.01  C 
ATOM     22  CG2 VAL B 303      16.167   5.477  33.996  1.00 26.76 LIG 0.01  C 
ENDBRANCH 1 20
BRANCH 1 23
ATOM     23  C   VAL B 303      16.220   6.962  31.664  1.00 28.25 LIG 0.24  C 
ATOM     24 O    VAL B 303      17.068   6.287  31.069  1.00 25.63 LIG-0.27  OA
ATOM     25  N   SER B 304      16.439   8.223  32.012  1.00 28.07 LIG-0.34  N 
ATOM     26 H    SER B 304      15.861   8.737  32.388  1.00 28.07 LIG 0.16  HD
BRANCH 25 27
ATOM     27  CA  SER B 304      17.739   8.830  31.760  1.00 30.78 LIG 0.20  C 
BRANCH 27 28
ATOM     28  C   SER B 304      18.736   8.253  32.774  1.00 31.57 LIG 0.24  C 
ATOM     29 O    SER B 304      19.924   8.113  32.467  1.00 32.88 LIG-0.27  OA
ATOM     30  N   ALA B 305      18.249   7.899  33.961  1.00 33.00 LIG-0.35  N 
ATOM     31 H    ALA B 305      17.416   7.963  34.164  1.00 33.00 LIG 0.16  HD
BRANCH 30 32
ATOM     32  CA  ALA B 305      19.080   7.363  35.050  1.00 34.21 LIG 0.16  C 
ATOM     33  CB  ALA B 305      18.258   7.374  36.387  1.00 33.59 LIG 0.04  C 
BRANCH 32 34
ATOM     34  C   ALA B 305      19.523   5.938  34.752  1.00 34.64 LIG 0.22  C 
ATOM     35 O    ALA B 305      20.396   5.769  33.865  1.00 35.93 LIG-0.29  OA
ENDBRANCH 32 34
ENDBRANCH 30 32
ENDBRANCH 27 28
BRANCH 27 36
ATOM     36  CB  SER B 304      17.650  10.350  31.897  1.00 32.96 LIG 0.20  C 
BRANCH 36 37
ATOM     37 OG   SER B 304      16.504  10.692  32.660  1.00 37.22 LIG-0.40  OA
ATOM     38 HG   SER B 304      16.261  10.028  33.113  1.00 37.22 LIG 0.21  HD
ENDBRANCH 36 37
ENDBRANCH 27 36
ENDBRANCH 25 27
ENDBRANCH 1 23
TORSDOF 15
ENDMDL
MODEL 26
USER: ADFR SOLUTION from run 96
USER: SCORE 12.912927 LL:  -2.991 LR: -10.909 RR:   0.000 FEB:  -6.435
USER: RMSD 7.898702
USER: SEED 95
USER: STATUS no improvement in best 23 clusters for 5 generations
USER: GENES 17
USER: genes 0 Translation |==|  0.47399 0.53183 0.45890
USER: genes 1 Rotation |==|  0.41081 0.58146 0.01506 0.51543
USER: genes 2 Torsion [C]-CA--N-[C] |==|  0.75226
USER: genes 3 Torsion [N]-C--CA-[N] |==|  0.87599
USER: genes 4 Torsion [C]-CA--N-[C] |==|  0.83478
USER: genes 5 Torsion [N]-C--CA-[N] |==|  0.38162
USER: genes 6 Torsion [C]-CA--N-[H1] |==|  0.08853
USER: genes 7 Torsion [C]-CA--CB-[OG] |==|  0.38946
USER: genes 8 Torsion [CA]-CB--OG-[HG] |==|  0.68966
USER: genes 9 Torsion [N]-CA--CB-[CG1] |==|  0.78361
USER: genes 10 Torsion [N]-CA--C-[N] |==|  0.21354
USER: genes 11 Torsion [C]-N--CA-[C] |==|  0.15407
USER: genes 12 Torsion [N]-CA--C-[N] |==|  0.69315
USER: genes 13 Torsion [C]-N--CA-[CB] |==|  0.24243
USER: genes 14 Torsion [N]-CA--C-[O] |==|  0.37549
USER: genes 15 Torsion [N]-CA--CB-[OG] |==|  0.83841
USER: genes 16 Torsion [CA]-CB--OG-[HG] |==|  0.06502
ROOT
ATOM      1  CA  VAL B 303      12.350   4.735  31.517  1.00 28.18 LIG 0.18  C 
ENDROOT
BRANCH 1 2
ATOM      2  N   VAL B 303      13.778   4.895  31.755  1.00 29.68 LIG-0.35  N 
ATOM      3  C   SER B 302      14.260   5.289  32.931  1.00 31.00 LIG 0.24  C 
ATOM      4 O    SER B 302      13.526   5.572  33.889  1.00 32.88 LIG-0.27  OA
ATOM      5 H    VAL B 303      14.272   4.715  31.074  1.00 29.68 LIG 0.16  HD
BRANCH 3 6
ATOM      6  CA  SER B 302      15.793   5.405  33.038  1.00 30.54 LIG 0.20  C 
BRANCH 6 7
ATOM      7  N   SER B 302      16.472   4.253  32.440  1.00 26.47 LIG-0.34  N 
ATOM      8  C   ALA B 301      16.271   3.007  32.868  1.00 26.40 LIG 0.25  C 
ATOM      9 O    ALA B 301      15.535   2.724  33.815  1.00 23.28 LIG-0.27  OA
ATOM     10 H    SER B 302      17.006   4.454  31.796  1.00 26.47 LIG 0.16  HD
BRANCH 8 11
ATOM     11  CA  ALA B 301      17.039   1.906  32.136  1.00 27.42 LIG 0.27  C 
ATOM     12  CB  ALA B 301      16.113   1.170  31.122  1.00 28.79 LIG 0.05  C 
BRANCH 11 13
ATOM     13  N   ALA B 301      17.584   0.922  33.125  1.00 29.28 LIG-0.07  N 
ATOM     14 H1   ALA B 301      17.033   0.865  33.822  1.00 29.28 LIG 0.28  HD
ATOM     15 H2   ALA B 301      17.658   0.124  32.739  1.00 29.28 LIG 0.28  HD
ATOM     16 H3   ALA B 301      18.385   1.193  33.403  1.00 29.28 LIG 0.28  HD
ENDBRANCH 11 13
ENDBRANCH 8 11
ENDBRANCH 6 7
BRANCH 6 17
ATOM     17  CB  SER B 302      16.242   6.711  32.375  1.00 31.87 LIG 0.20  C 
BRANCH 17 18
ATOM     18 OG   SER B 302      17.271   7.316  33.128  1.00 37.10 LIG-0.40  OA
ATOM     19 HG   SER B 302      16.984   8.026  33.473  1.00 37.10 LIG 0.21  HD
ENDBRANCH 17 18
ENDBRANCH 6 17
ENDBRANCH 3 6
ENDBRANCH 1 2
BRANCH 1 20
ATOM     20  CB  VAL B 303      11.985   5.008  30.007  1.00 29.00 LIG 0.01  C 
ATOM     21  CG1 VAL B 303      11.954   6.501  29.749  1.00 28.23 LIG 0.01  C 
ATOM     22  CG2 VAL B 303      13.016   4.361  29.074  1.00 26.76 LIG 0.01  C 
ENDBRANCH 1 20
BRANCH 1 23
ATOM     23  C   VAL B 303      11.977   3.309  31.889  1.00 28.25 LIG 0.24  C 
ATOM     24 O    VAL B 303      11.821   2.452  31.012  1.00 25.63 LIG-0.27  OA
ATOM     25  N   SER B 304      11.866   3.026  33.180  1.00 28.07 LIG-0.34  N 
ATOM     26 H    SER B 304      12.008   3.583  33.820  1.00 28.07 LIG 0.16  HD
BRANCH 25 27
ATOM     27  CA  SER B 304      11.476   1.686  33.598  1.00 30.78 LIG 0.20  C 
BRANCH 27 28
ATOM     28  C   SER B 304      12.460   0.689  32.970  1.00 31.57 LIG 0.24  C 
ATOM     29 O    SER B 304      13.638   0.661  33.339  1.00 32.88 LIG-0.27  OA
ATOM     30  N   ALA B 305      11.984  -0.103  32.012  1.00 33.00 LIG-0.35  N 
ATOM     31 H    ALA B 305      11.173  -0.060  31.729  1.00 33.00 LIG 0.16  HD
BRANCH 30 32
ATOM     32  CA  ALA B 305      12.789  -1.131  31.336  1.00 34.21 LIG 0.16  C 
ATOM     33  CB  ALA B 305      12.723  -2.467  32.156  1.00 33.59 LIG 0.04  C 
BRANCH 32 34
ATOM     34  C   ALA B 305      12.282  -1.388  29.926  1.00 34.64 LIG 0.22  C 
ATOM     35 O    ALA B 305      13.130  -1.471  29.003  1.00 35.93 LIG-0.29  OA
ENDBRANCH 32 34
ENDBRANCH 30 32
ENDBRANCH 27 28
BRANCH 27 36
ATOM     36  CB  SER B 304      10.046   1.385  33.151  1.00 32.96 LIG 0.20  C 
BRANCH 36 37
ATOM     37 OG   SER B 304       9.164   2.352  33.699  1.00 37.22 LIG-0.40  OA
ATOM     38 HG   SER B 304       9.592   3.052  33.879  1.00 37.22 LIG 0.21  HD
ENDBRANCH 36 37
ENDBRANCH 27 36
ENDBRANCH 25 27
ENDBRANCH 1 23
TORSDOF 15
ENDMDL
MODEL 27
USER: ADFR SOLUTION from run 141
USER: SCORE 12.594881 LL:  -2.102 LR: -10.898 RR:   0.000 FEB:  -6.423
USER: RMSD 9.122858
USER: SEED 140
USER: STATUS no improvement in best 28 clusters for 5 generations
USER: GENES 17
USER: genes 0 Translation |==|  0.47730 0.52036 0.46005
USER: genes 1 Rotation |==|  0.59374 0.43831 0.98724 0.50168
USER: genes 2 Torsion [C]-CA--N-[C] |==|  0.75967
USER: genes 3 Torsion [N]-C--CA-[N] |==|  0.47222
USER: genes 4 Torsion [C]-CA--N-[C] |==|  0.55134
USER: genes 5 Torsion [N]-C--CA-[N] |==|  0.01163
USER: genes 6 Torsion [C]-CA--N-[H1] |==|  0.55368
USER: genes 7 Torsion [C]-CA--CB-[OG] |==|  0.37887
USER: genes 8 Torsion [CA]-CB--OG-[HG] |==|  0.46674
USER: genes 9 Torsion [N]-CA--CB-[CG1] |==|  0.73465
USER: genes 10 Torsion [N]-CA--C-[N] |==|  0.24461
USER: genes 11 Torsion [C]-N--CA-[C] |==|  0.80403
USER: genes 12 Torsion [N]-CA--C-[N] |==|  0.38191
USER: genes 13 Torsion [C]-N--CA-[CB] |==|  0.50066
USER: genes 14 Torsion [N]-CA--C-[O] |==|  0.20323
USER: genes 15 Torsion [N]-CA--CB-[OG] |==|  0.10205
USER: genes 16 Torsion [CA]-CB--OG-[HG] |==|  0.03852
ROOT
ATOM      1  CA  VAL B 303      12.449   4.391  31.552  1.00 28.18 LIG 0.18  C 
ENDROOT
BRANCH 1 2
ATOM      2  N   VAL B 303      13.890   4.500  31.742  1.00 29.68 LIG-0.35  N 
ATOM      3  C   SER B 302      14.422   4.924  32.885  1.00 31.00 LIG 0.24  C 
ATOM      4 O    SER B 302      13.730   5.280  33.849  1.00 32.88 LIG-0.27  OA
ATOM      5 H    VAL B 303      14.354   4.267  31.056  1.00 29.68 LIG 0.16  HD
BRANCH 3 6
ATOM      6  CA  SER B 302      15.962   4.978  32.943  1.00 30.54 LIG 0.20  C 
BRANCH 6 7
ATOM      7  N   SER B 302      16.440   5.672  34.141  1.00 26.47 LIG-0.34  N 
ATOM      8  C   ALA B 301      17.679   6.155  34.237  1.00 26.40 LIG 0.25  C 
ATOM      9 O    ALA B 301      18.529   6.029  33.354  1.00 23.28 LIG-0.27  OA
ATOM     10 H    SER B 302      15.855   5.737  34.767  1.00 26.47 LIG 0.16  HD
BRANCH 8 11
ATOM     11  CA  ALA B 301      18.029   6.868  35.543  1.00 27.42 LIG 0.27  C 
ATOM     12  CB  ALA B 301      19.301   6.241  36.189  1.00 28.79 LIG 0.05  C 
BRANCH 11 13
ATOM     13  N   ALA B 301      16.880   6.772  36.499  1.00 29.28 LIG-0.07  N 
ATOM     14 H1   ALA B 301      16.960   7.401  37.124  1.00 29.28 LIG 0.28  HD
ATOM     15 H2   ALA B 301      16.116   6.889  36.058  1.00 29.28 LIG 0.28  HD
ATOM     16 H3   ALA B 301      16.880   5.970  36.884  1.00 29.28 LIG 0.28  HD
ENDBRANCH 11 13
ENDBRANCH 8 11
ENDBRANCH 6 7
BRANCH 6 17
ATOM     17  CB  SER B 302      16.513   3.550  32.879  1.00 31.87 LIG 0.20  C 
BRANCH 17 18
ATOM     18 OG   SER B 302      17.615   3.488  32.001  1.00 37.10 LIG-0.40  OA
ATOM     19 HG   SER B 302      18.008   2.752  32.095  1.00 37.10 LIG 0.21  HD
ENDBRANCH 17 18
ENDBRANCH 6 17
ENDBRANCH 3 6
ENDBRANCH 1 2
BRANCH 1 20
ATOM     20  CB  VAL B 303      12.057   4.545  30.031  1.00 29.00 LIG 0.01  C 
ATOM     21  CG1 VAL B 303      11.669   5.981  29.745  1.00 28.23 LIG 0.01  C 
ATOM     22  CG2 VAL B 303      13.233   4.155  29.126  1.00 26.76 LIG 0.01  C 
ENDBRANCH 1 20
BRANCH 1 23
ATOM     23  C   VAL B 303      12.018   3.025  32.061  1.00 28.25 LIG 0.24  C 
ATOM     24 O    VAL B 303      11.996   2.050  31.301  1.00 25.63 LIG-0.27  OA
ATOM     25  N   SER B 304      11.708   2.925  33.346  1.00 28.07 LIG-0.34  N 
ATOM     26 H    SER B 304      11.751   3.569  33.915  1.00 28.07 LIG 0.16  HD
BRANCH 25 27
ATOM     27  CA  SER B 304      11.253   1.650  33.886  1.00 30.78 LIG 0.20  C 
BRANCH 27 28
ATOM     28  C   SER B 304       9.848   1.376  33.334  1.00 31.57 LIG 0.24  C 
ATOM     29 O    SER B 304       9.006   2.279  33.298  1.00 32.88 LIG-0.27  OA
ATOM     30  N   ALA B 305       9.591   0.133  32.931  1.00 33.00 LIG-0.35  N 
ATOM     31 H    ALA B 305      10.165  -0.506  32.988  1.00 33.00 LIG 0.16  HD
BRANCH 30 32
ATOM     32  CA  ALA B 305       8.306  -0.281  32.349  1.00 34.21 LIG 0.16  C 
ATOM     33  CB  ALA B 305       8.360  -1.810  31.998  1.00 33.59 LIG 0.04  C 
BRANCH 32 34
ATOM     34  C   ALA B 305       7.159  -0.034  33.316  1.00 34.64 LIG 0.22  C 
ATOM     35 O    ALA B 305       6.794   1.154  33.501  1.00 35.93 LIG-0.29  OA
ENDBRANCH 32 34
ENDBRANCH 30 32
ENDBRANCH 27 28
BRANCH 27 36
ATOM     36  CB  SER B 304      11.231   1.698  35.414  1.00 32.96 LIG 0.20  C 
BRANCH 36 37
ATOM     37 OG   SER B 304      10.820   2.986  35.842  1.00 37.22 LIG-0.40  OA
ATOM     38 HG   SER B 304      10.490   3.405  35.194  1.00 37.22 LIG 0.21  HD
ENDBRANCH 36 37
ENDBRANCH 27 36
ENDBRANCH 25 27
ENDBRANCH 1 23
TORSDOF 15
ENDMDL
MODEL 28
USER: ADFR SOLUTION from run 10
USER: SCORE 12.855909 LL:  -2.457 LR: -10.879 RR:   0.000 FEB:  -6.405
USER: RMSD 8.540595
USER: SEED 363321
USER: STATUS no improvement in best 10 clusters for 5 generations
USER: GENES 17
USER: genes 0 Translation |==|  0.49081 0.50863 0.43298
USER: genes 1 Rotation |==|  0.45242 0.66667 0.04659 0.61990
USER: genes 2 Torsion [C]-CA--N-[C] |==|  0.65720
USER: genes 3 Torsion [N]-C--CA-[N] |==|  0.26008
USER: genes 4 Torsion [C]-CA--N-[C] |==|  0.76313
USER: genes 5 Torsion [N]-C--CA-[N] |==|  0.10983
USER: genes 6 Torsion [C]-CA--N-[H1] |==|  0.68360
USER: genes 7 Torsion [C]-CA--CB-[OG] |==|  0.87778
USER: genes 8 Torsion [CA]-CB--OG-[HG] |==|  0.55307
USER: genes 9 Torsion [N]-CA--CB-[CG1] |==|  0.79514
USER: genes 10 Torsion [N]-CA--C-[N] |==|  0.08046
USER: genes 11 Torsion [C]-N--CA-[C] |==|  0.79126
USER: genes 12 Torsion [N]-CA--C-[N] |==|  0.95786
USER: genes 13 Torsion [C]-N--CA-[CB] |==|  0.17584
USER: genes 14 Torsion [N]-CA--C-[O] |==|  0.30510
USER: genes 15 Torsion [N]-CA--CB-[OG] |==|  0.89303
USER: genes 16 Torsion [CA]-CB--OG-[HG] |==|  0.60115
ROOT
ATOM      1  CA  VAL B 303      12.854   4.039  30.739  1.00 28.18 LIG 0.18  C 
ENDROOT
BRANCH 1 2
ATOM      2  N   VAL B 303      14.097   4.450  31.380  1.00 29.68 LIG-0.35  N 
ATOM      3  C   SER B 302      14.118   5.027  32.578  1.00 31.00 LIG 0.24  C 
ATOM      4 O    SER B 302      13.084   5.278  33.213  1.00 32.88 LIG-0.27  OA
ATOM      5 H    VAL B 303      14.803   4.286  30.916  1.00 29.68 LIG 0.16  HD
BRANCH 3 6
ATOM      6  CA  SER B 302      15.507   5.398  33.134  1.00 30.54 LIG 0.20  C 
BRANCH 6 7
ATOM      7  N   SER B 302      15.872   6.781  32.817  1.00 26.47 LIG-0.34  N 
ATOM      8  C   ALA B 301      16.444   7.120  31.661  1.00 26.40 LIG 0.25  C 
ATOM      9 O    ALA B 301      16.745   6.305  30.787  1.00 23.28 LIG-0.27  OA
ATOM     10 H    SER B 302      15.685   7.345  33.438  1.00 26.47 LIG 0.16  HD
BRANCH 8 11
ATOM     11  CA  ALA B 301      16.753   8.604  31.467  1.00 27.42 LIG 0.27  C 
ATOM     12  CB  ALA B 301      17.820   8.802  30.348  1.00 28.79 LIG 0.05  C 
BRANCH 11 13
ATOM     13  N   ALA B 301      17.255   9.191  32.750  1.00 29.28 LIG-0.07  N 
ATOM     14 H1   ALA B 301      16.667   9.787  33.054  1.00 29.28 LIG 0.28  HD
ATOM     15 H2   ALA B 301      17.360   8.544  33.352  1.00 29.28 LIG 0.28  HD
ATOM     16 H3   ALA B 301      18.036   9.593  32.608  1.00 29.28 LIG 0.28  HD
ENDBRANCH 11 13
ENDBRANCH 8 11
ENDBRANCH 6 7
BRANCH 6 17
ATOM     17  CB  SER B 302      15.519   5.161  34.648  1.00 31.87 LIG 0.20  C 
BRANCH 17 18
ATOM     18 OG   SER B 302      14.332   5.655  35.230  1.00 37.10 LIG-0.40  OA
ATOM     19 HG   SER B 302      14.449   5.763  36.055  1.00 37.10 LIG 0.21  HD
ENDBRANCH 17 18
ENDBRANCH 6 17
ENDBRANCH 3 6
ENDBRANCH 1 2
BRANCH 1 20
ATOM     20  CB  VAL B 303      12.600   4.847  29.409  1.00 29.00 LIG 0.01  C 
ATOM     21  CG1 VAL B 303      12.177   6.263  29.743  1.00 28.23 LIG 0.01  C 
ATOM     22  CG2 VAL B 303      13.870   4.894  28.551  1.00 26.76 LIG 0.01  C 
ENDBRANCH 1 20
BRANCH 1 23
ATOM     23  C   VAL B 303      12.963   2.555  30.430  1.00 28.25 LIG 0.24  C 
ATOM     24 O    VAL B 303      12.380   2.073  29.453  1.00 25.63 LIG-0.27  OA
ATOM     25  N   SER B 304      13.731   1.822  31.226  1.00 28.07 LIG-0.34  N 
ATOM     26 H    SER B 304      14.185   2.128  31.889  1.00 28.07 LIG 0.16  HD
BRANCH 25 27
ATOM     27  CA  SER B 304      13.847   0.387  31.003  1.00 30.78 LIG 0.20  C 
BRANCH 27 28
ATOM     28  C   SER B 304      12.552  -0.275  31.494  1.00 31.57 LIG 0.24  C 
ATOM     29 O    SER B 304      12.272  -1.427  31.148  1.00 32.88 LIG-0.27  OA
ATOM     30  N   ALA B 305      11.760   0.458  32.273  1.00 33.00 LIG-0.35  N 
ATOM     31 H    ALA B 305      11.936   1.273  32.486  1.00 33.00 LIG 0.16  HD
BRANCH 30 32
ATOM     32  CA  ALA B 305      10.504  -0.043  32.851  1.00 34.21 LIG 0.16  C 
ATOM     33  CB  ALA B 305      10.816  -1.230  33.828  1.00 33.59 LIG 0.04  C 
BRANCH 32 34
ATOM     34  C   ALA B 305       9.776   1.052  33.616  1.00 34.64 LIG 0.22  C 
ATOM     35 O    ALA B 305       8.711   1.502  33.125  1.00 35.93 LIG-0.29  OA
ENDBRANCH 32 34
ENDBRANCH 30 32
ENDBRANCH 27 28
BRANCH 27 36
ATOM     36  CB  SER B 304      15.056  -0.171  31.754  1.00 32.96 LIG 0.20  C 
BRANCH 36 37
ATOM     37 OG   SER B 304      16.127   0.755  31.683  1.00 37.22 LIG-0.40  OA
ATOM     38 HG   SER B 304      16.854   0.339  31.617  1.00 37.22 LIG 0.21  HD
ENDBRANCH 36 37
ENDBRANCH 27 36
ENDBRANCH 25 27
ENDBRANCH 1 23
TORSDOF 15
ENDMDL
MODEL 29
USER: ADFR SOLUTION from run 126
USER: SCORE 12.529434 LL:  -2.467 LR: -10.877 RR:   0.000 FEB:  -6.403
USER: RMSD 11.679074
USER: SEED 125
USER: STATUS no improvement in best 21 clusters for 5 generations
USER: GENES 17
USER: genes 0 Translation |==|  0.69446 0.72252 0.32508
USER: genes 1 Rotation |==|  0.53713 0.75975 0.39919 0.91350
USER: genes 2 Torsion [C]-CA--N-[C] |==|  0.65325
USER: genes 3 Torsion [N]-C--CA-[N] |==|  0.05624
USER: genes 4 Torsion [C]-CA--N-[C] |==|  0.19444
USER: genes 5 Torsion [N]-C--CA-[N] |==|  0.05207
USER: genes 6 Torsion [C]-CA--N-[H1] |==|  0.66788
USER: genes 7 Torsion [C]-CA--CB-[OG] |==|  0.51758
USER: genes 8 Torsion [CA]-CB--OG-[HG] |==|  0.34731
USER: genes 9 Torsion [N]-CA--CB-[CG1] |==|  0.97531
USER: genes 10 Torsion [N]-CA--C-[N] |==|  0.39263
USER: genes 11 Torsion [C]-N--CA-[C] |==|  0.58885
USER: genes 12 Torsion [N]-CA--C-[N] |==|  0.28717
USER: genes 13 Torsion [C]-N--CA-[CB] |==|  0.49580
USER: genes 14 Torsion [N]-CA--C-[O] |==|  0.36217
USER: genes 15 Torsion [N]-CA--CB-[OG] |==|  0.01989
USER: genes 16 Torsion [CA]-CB--OG-[HG] |==|  0.13962
ROOT
ATOM      1  CA  VAL B 303      18.964  10.455  27.502  1.00 28.18 LIG 0.18  C 
ENDROOT
BRANCH 1 2
ATOM      2  N   VAL B 303      18.943  10.353  28.956  1.00 29.68 LIG-0.35  N 
ATOM      3  C   SER B 302      18.825   9.185  29.581  1.00 31.00 LIG 0.24  C 
ATOM      4 O    SER B 302      18.696   8.115  28.971  1.00 32.88 LIG-0.27  OA
ATOM      5 H    VAL B 303      19.014  11.108  29.363  1.00 29.68 LIG 0.16  HD
BRANCH 3 6
ATOM      6  CA  SER B 302      18.828   9.231  31.122  1.00 30.54 LIG 0.20  C 
BRANCH 6 7
ATOM      7  N   SER B 302      18.490  10.563  31.631  1.00 26.47 LIG-0.34  N 
ATOM      8  C   ALA B 301      17.264  11.074  31.527  1.00 26.40 LIG 0.25  C 
ATOM      9 O    ALA B 301      16.331  10.496  30.969  1.00 23.28 LIG-0.27  OA
ATOM     10 H    SER B 302      19.149  10.977  31.998  1.00 26.47 LIG 0.16  HD
BRANCH 8 11
ATOM     11  CA  ALA B 301      17.059  12.469  32.118  1.00 27.42 LIG 0.27  C 
ATOM     12  CB  ALA B 301      16.143  13.329  31.195  1.00 28.79 LIG 0.05  C 
BRANCH 11 13
ATOM     13  N   ALA B 301      18.382  13.149  32.288  1.00 29.28 LIG-0.07  N 
ATOM     14 H1   ALA B 301      18.510  13.341  33.148  1.00 29.28 LIG 0.28  HD
ATOM     15 H2   ALA B 301      19.031  12.611  32.005  1.00 29.28 LIG 0.28  HD
ATOM     16 H3   ALA B 301      18.393  13.901  31.812  1.00 29.28 LIG 0.28  HD
ENDBRANCH 11 13
ENDBRANCH 8 11
ENDBRANCH 6 7
BRANCH 6 17
ATOM     17  CB  SER B 302      17.853   8.176  31.655  1.00 31.87 LIG 0.20  C 
BRANCH 17 18
ATOM     18 OG   SER B 302      17.725   8.290  33.055  1.00 37.10 LIG-0.40  OA
ATOM     19 HG   SER B 302      16.914   8.380  33.256  1.00 37.10 LIG 0.21  HD
ENDBRANCH 17 18
ENDBRANCH 6 17
ENDBRANCH 3 6
ENDBRANCH 1 2
BRANCH 1 20
ATOM     20  CB  VAL B 303      17.702  11.234  26.964  1.00 29.00 LIG 0.01  C 
ATOM     21  CG1 VAL B 303      16.720  11.462  28.095  1.00 28.23 LIG 0.01  C 
ATOM     22  CG2 VAL B 303      18.111  12.590  26.376  1.00 26.76 LIG 0.01  C 
ENDBRANCH 1 20
BRANCH 1 23
ATOM     23  C   VAL B 303      20.233  11.193  27.110  1.00 28.25 LIG 0.24  C 
ATOM     24 O    VAL B 303      20.658  12.124  27.803  1.00 25.63 LIG-0.27  OA
ATOM     25  N   SER B 304      20.870  10.774  26.025  1.00 28.07 LIG-0.34  N 
ATOM     26 H    SER B 304      20.630  10.105  25.541  1.00 28.07 LIG 0.16  HD
BRANCH 25 27
ATOM     27  CA  SER B 304      22.073  11.464  25.577  1.00 30.78 LIG 0.20  C 
BRANCH 27 28
ATOM     28  C   SER B 304      22.131  11.370  24.047  1.00 31.57 LIG 0.24  C 
ATOM     29 O    SER B 304      22.501  10.325  23.500  1.00 32.88 LIG-0.27  OA
ATOM     30  N   ALA B 305      21.792  12.461  23.363  1.00 33.00 LIG-0.35  N 
ATOM     31 H    ALA B 305      21.569  13.200  23.742  1.00 33.00 LIG 0.16  HD
BRANCH 30 32
ATOM     32  CA  ALA B 305      21.765  12.521  21.895  1.00 34.21 LIG 0.16  C 
ATOM     33  CB  ALA B 305      21.285  13.945  21.440  1.00 33.59 LIG 0.04  C 
BRANCH 32 34
ATOM     34  C   ALA B 305      23.141  12.250  21.307  1.00 34.64 LIG 0.22  C 
ATOM     35 O    ALA B 305      23.228  11.400  20.387  1.00 35.93 LIG-0.29  OA
ENDBRANCH 32 34
ENDBRANCH 30 32
ENDBRANCH 27 28
BRANCH 27 36
ATOM     36  CB  SER B 304      23.314  10.827  26.203  1.00 32.96 LIG 0.20  C 
BRANCH 36 37
ATOM     37 OG   SER B 304      22.942   9.651  26.903  1.00 37.22 LIG-0.40  OA
ATOM     38 HG   SER B 304      22.472   9.165  26.405  1.00 37.22 LIG 0.21  HD
ENDBRANCH 36 37
ENDBRANCH 27 36
ENDBRANCH 25 27
ENDBRANCH 1 23
TORSDOF 15
ENDMDL
MODEL 30
USER: ADFR SOLUTION from run 125
USER: SCORE 12.435463 LL:  -2.514 LR: -10.880 RR:   0.000 FEB:  -6.406
USER: RMSD 5.532178
USER: SEED 124
USER: STATUS no improvement in best 16 clusters for 5 generations
USER: GENES 17
USER: genes 0 Translation |==|  0.60825 0.59772 0.50034
USER: genes 1 Rotation |==|  0.17862 0.16836 0.51958 0.69064
USER: genes 2 Torsion [C]-CA--N-[C] |==|  0.61155
USER: genes 3 Torsion [N]-C--CA-[N] |==|  0.27714
USER: genes 4 Torsion [C]-CA--N-[C] |==|  0.77764
USER: genes 5 Torsion [N]-C--CA-[N] |==|  0.45232
USER: genes 6 Torsion [C]-CA--N-[H1] |==|  0.57071
USER: genes 7 Torsion [C]-CA--CB-[OG] |==|  0.74278
USER: genes 8 Torsion [CA]-CB--OG-[HG] |==|  0.19831
USER: genes 9 Torsion [N]-CA--CB-[CG1] |==|  0.29519
USER: genes 10 Torsion [N]-CA--C-[N] |==|  0.43922
USER: genes 11 Torsion [C]-N--CA-[C] |==|  0.17514
USER: genes 12 Torsion [N]-CA--C-[N] |==|  0.64562
USER: genes 13 Torsion [C]-N--CA-[CB] |==|  0.14976
USER: genes 14 Torsion [N]-CA--C-[O] |==|  0.19830
USER: genes 15 Torsion [N]-CA--CB-[OG] |==|  0.76799
USER: genes 16 Torsion [CA]-CB--OG-[HG] |==|  0.81887
ROOT
ATOM      1  CA  VAL B 303      16.378   6.711  32.760  1.00 28.18 LIG 0.18  C 
ENDROOT
BRANCH 1 2
ATOM      2  N   VAL B 303      15.669   5.842  31.830  1.00 29.68 LIG-0.35  N 
ATOM      3  C   SER B 302      14.441   5.392  32.077  1.00 31.00 LIG 0.24  C 
ATOM      4 O    SER B 302      13.834   5.659  33.123  1.00 32.88 LIG-0.27  OA
ATOM      5 H    VAL B 303      16.113   5.651  31.118  1.00 29.68 LIG 0.16  HD
BRANCH 3 6
ATOM      6  CA  SER B 302      13.814   4.489  30.997  1.00 30.54 LIG 0.20  C 
BRANCH 6 7
ATOM      7  N   SER B 302      13.917   3.069  31.343  1.00 26.47 LIG-0.34  N 
ATOM      8  C   ALA B 301      15.036   2.370  31.156  1.00 26.40 LIG 0.25  C 
ATOM      9 O    ALA B 301      16.054   2.840  30.648  1.00 23.28 LIG-0.27  OA
ATOM     10 H    SER B 302      13.196   2.735  31.674  1.00 26.47 LIG 0.16  HD
BRANCH 8 11
ATOM     11  CA  ALA B 301      14.996   0.901  31.580  1.00 27.42 LIG 0.27  C 
ATOM     12  CB  ALA B 301      15.088   0.773  33.130  1.00 28.79 LIG 0.05  C 
BRANCH 11 13
ATOM     13  N   ALA B 301      16.130   0.158  30.945  1.00 29.28 LIG-0.07  N 
ATOM     14 H1   ALA B 301      15.918  -0.704  30.875  1.00 29.28 LIG 0.28  HD
ATOM     15 H2   ALA B 301      16.288   0.491  30.136  1.00 29.28 LIG 0.28  HD
ATOM     16 H3   ALA B 301      16.859   0.242  31.448  1.00 29.28 LIG 0.28  HD
ENDBRANCH 11 13
ENDBRANCH 8 11
ENDBRANCH 6 7
BRANCH 6 17
ATOM     17  CB  SER B 302      12.352   4.899  30.791  1.00 31.87 LIG 0.20  C 
BRANCH 17 18
ATOM     18 OG   SER B 302      11.506   4.130  31.617  1.00 37.10 LIG-0.40  OA
ATOM     19 HG   SER B 302      11.606   4.366  32.417  1.00 37.10 LIG 0.21  HD
ENDBRANCH 17 18
ENDBRANCH 6 17
ENDBRANCH 3 6
ENDBRANCH 1 2
BRANCH 1 20
ATOM     20  CB  VAL B 303      17.408   5.898  33.635  1.00 29.00 LIG 0.01  C 
ATOM     21  CG1 VAL B 303      18.819   6.187  33.165  1.00 28.23 LIG 0.01  C 
ATOM     22  CG2 VAL B 303      17.286   6.281  35.115  1.00 26.76 LIG 0.01  C 
ENDBRANCH 1 20
BRANCH 1 23
ATOM     23  C   VAL B 303      17.110   7.763  31.943  1.00 28.25 LIG 0.24  C 
ATOM     24 O    VAL B 303      17.349   7.572  30.745  1.00 25.63 LIG-0.27  OA
ATOM     25  N   SER B 304      17.442   8.890  32.557  1.00 28.07 LIG-0.34  N 
ATOM     26 H    SER B 304      17.256   9.077  33.376  1.00 28.07 LIG 0.16  HD
BRANCH 25 27
ATOM     27  CA  SER B 304      18.177   9.921  31.836  1.00 30.78 LIG 0.20  C 
BRANCH 27 28
ATOM     28  C   SER B 304      17.293  10.413  30.683  1.00 31.57 LIG 0.24  C 
ATOM     29 O    SER B 304      16.128  10.766  30.897  1.00 32.88 LIG-0.27  OA
ATOM     30  N   ALA B 305      17.835  10.413  29.466  1.00 33.00 LIG-0.35  N 
ATOM     31 H    ALA B 305      18.633  10.134  29.310  1.00 33.00 LIG 0.16  HD
BRANCH 30 32
ATOM     32  CA  ALA B 305      17.130  10.885  28.265  1.00 34.21 LIG 0.16  C 
ATOM     33  CB  ALA B 305      16.600  12.341  28.510  1.00 33.59 LIG 0.04  C 
BRANCH 32 34
ATOM     34  C   ALA B 305      18.050  10.888  27.054  1.00 34.64 LIG 0.22  C 
ATOM     35 O    ALA B 305      18.383   9.779  26.568  1.00 35.93 LIG-0.29  OA
ENDBRANCH 32 34
ENDBRANCH 30 32
ENDBRANCH 27 28
BRANCH 27 36
ATOM     36  CB  SER B 304      19.494   9.359  31.303  1.00 32.96 LIG 0.20  C 
BRANCH 36 37
ATOM     37 OG   SER B 304      20.478   9.405  32.324  1.00 37.22 LIG-0.40  OA
ATOM     38 HG   SER B 304      20.643  10.205  32.518  1.00 37.22 LIG 0.21  HD
ENDBRANCH 36 37
ENDBRANCH 27 36
ENDBRANCH 25 27
ENDBRANCH 1 23
TORSDOF 15
ENDMDL
MODEL 31
USER: ADFR SOLUTION from run 154
USER: SCORE 12.687048 LL:  -2.069 LR: -10.839 RR:   0.000 FEB:  -6.365
USER: RMSD 3.855533
USER: SEED 153
USER: STATUS no improvement in best 10 clusters for 5 generations
USER: GENES 17
USER: genes 0 Translation |==|  0.52608 0.52611 0.41405
USER: genes 1 Rotation |==|  0.63665 0.59569 0.62564 0.95430
USER: genes 2 Torsion [C]-CA--N-[C] |==|  0.78346
USER: genes 3 Torsion [N]-C--CA-[N] |==|  0.44373
USER: genes 4 Torsion [C]-CA--N-[C] |==|  0.75586
USER: genes 5 Torsion [N]-C--CA-[N] |==|  0.73652
USER: genes 6 Torsion [C]-CA--N-[H1] |==|  0.84153
USER: genes 7 Torsion [C]-CA--CB-[OG] |==|  0.21076
USER: genes 8 Torsion [CA]-CB--OG-[HG] |==|  0.66174
USER: genes 9 Torsion [N]-CA--CB-[CG1] |==|  0.91695
USER: genes 10 Torsion [N]-CA--C-[N] |==|  0.36759
USER: genes 11 Torsion [C]-N--CA-[C] |==|  0.62265
USER: genes 12 Torsion [N]-CA--C-[N] |==|  0.42022
USER: genes 13 Torsion [C]-N--CA-[CB] |==|  0.14385
USER: genes 14 Torsion [N]-CA--C-[O] |==|  0.92383
USER: genes 15 Torsion [N]-CA--CB-[OG] |==|  0.40700
USER: genes 16 Torsion [CA]-CB--OG-[HG] |==|  0.16424
ROOT
ATOM      1  CA  VAL B 303      13.912   4.563  30.172  1.00 28.18 LIG 0.18  C 
ENDROOT
BRANCH 1 2
ATOM      2  N   VAL B 303      13.298   3.416  30.826  1.00 29.68 LIG-0.35  N 
ATOM      3  C   SER B 302      14.019   2.481  31.440  1.00 31.00 LIG 0.24  C 
ATOM      4 O    SER B 302      15.257   2.510  31.470  1.00 32.88 LIG-0.27  OA
ATOM      5 H    VAL B 303      12.438   3.401  30.778  1.00 29.68 LIG 0.16  HD
BRANCH 3 6
ATOM      6  CA  SER B 302      13.230   1.330  32.096  1.00 30.54 LIG 0.20  C 
BRANCH 6 7
ATOM      7  N   SER B 302      14.067   0.148  32.316  1.00 26.47 LIG-0.34  N 
ATOM      8  C   ALA B 301      14.225  -0.795  31.387  1.00 26.40 LIG 0.25  C 
ATOM      9 O    ALA B 301      13.659  -0.774  30.293  1.00 23.28 LIG-0.27  OA
ATOM     10 H    SER B 302      14.441   0.121  33.090  1.00 26.47 LIG 0.16  HD
BRANCH 8 11
ATOM     11  CA  ALA B 301      15.141  -1.962  31.756  1.00 27.42 LIG 0.27  C 
ATOM     12  CB  ALA B 301      15.178  -2.166  33.300  1.00 28.79 LIG 0.05  C 
BRANCH 11 13
ATOM     13  N   ALA B 301      16.527  -1.701  31.250  1.00 29.28 LIG-0.07  N 
ATOM     14 H1   ALA B 301      16.502  -1.569  30.370  1.00 29.28 LIG 0.28  HD
ATOM     15 H2   ALA B 301      16.857  -0.978  31.649  1.00 29.28 LIG 0.28  HD
ATOM     16 H3   ALA B 301      17.045  -2.402  31.429  1.00 29.28 LIG 0.28  HD
ENDBRANCH 11 13
ENDBRANCH 8 11
ENDBRANCH 6 7
BRANCH 6 17
ATOM     17  CB  SER B 302      12.626   1.828  33.413  1.00 31.87 LIG 0.20  C 
BRANCH 17 18
ATOM     18 OG   SER B 302      11.506   2.647  33.161  1.00 37.10 LIG-0.40  OA
ATOM     19 HG   SER B 302      11.631   3.405  33.500  1.00 37.10 LIG 0.21  HD
ENDBRANCH 17 18
ENDBRANCH 6 17
ENDBRANCH 3 6
ENDBRANCH 1 2
BRANCH 1 20
ATOM     20  CB  VAL B 303      12.920   5.241  29.150  1.00 29.00 LIG 0.01  C 
ATOM     21  CG1 VAL B 303      11.976   4.200  28.585  1.00 28.23 LIG 0.01  C 
ATOM     22  CG2 VAL B 303      12.099   6.339  29.838  1.00 26.76 LIG 0.01  C 
ENDBRANCH 1 20
BRANCH 1 23
ATOM     23  C   VAL B 303      14.300   5.558  31.253  1.00 28.25 LIG 0.24  C 
ATOM     24 O    VAL B 303      13.507   5.844  32.157  1.00 25.63 LIG-0.27  OA
ATOM     25  N   SER B 304      15.524   6.067  31.202  1.00 28.07 LIG-0.34  N 
ATOM     26 H    SER B 304      16.118   5.862  30.614  1.00 28.07 LIG 0.16  HD
BRANCH 25 27
ATOM     27  CA  SER B 304      15.942   7.053  32.190  1.00 30.78 LIG 0.20  C 
BRANCH 27 28
ATOM     28  C   SER B 304      16.683   8.177  31.454  1.00 31.57 LIG 0.24  C 
ATOM     29 O    SER B 304      17.309   7.935  30.417  1.00 32.88 LIG-0.27  OA
ATOM     30  N   ALA B 305      16.632   9.391  32.000  1.00 33.00 LIG-0.35  N 
ATOM     31 H    ALA B 305      16.226   9.554  32.741  1.00 33.00 LIG 0.16  HD
BRANCH 30 32
ATOM     32  CA  ALA B 305      17.261  10.576  31.400  1.00 34.21 LIG 0.16  C 
ATOM     33  CB  ALA B 305      16.805  10.707  29.904  1.00 33.59 LIG 0.04  C 
BRANCH 32 34
ATOM     34  C   ALA B 305      16.874  11.842  32.149  1.00 34.64 LIG 0.22  C 
ATOM     35 O    ALA B 305      15.771  11.854  32.750  1.00 35.93 LIG-0.29  OA
ENDBRANCH 32 34
ENDBRANCH 30 32
ENDBRANCH 27 28
BRANCH 27 36
ATOM     36  CB  SER B 304      16.850   6.404  33.235  1.00 32.96 LIG 0.20  C 
BRANCH 36 37
ATOM     37 OG   SER B 304      17.818   7.345  33.672  1.00 37.22 LIG-0.40  OA
ATOM     38 HG   SER B 304      17.431   8.014  34.000  1.00 37.22 LIG 0.21  HD
ENDBRANCH 36 37
ENDBRANCH 27 36
ENDBRANCH 25 27
ENDBRANCH 1 23
TORSDOF 15
ENDMDL
MODEL 32
USER: ADFR SOLUTION from run 28
USER: SCORE 12.452014 LL:  -2.648 LR: -10.842 RR:   0.000 FEB:  -6.368
USER: RMSD 4.947530
USER: SEED 27
USER: STATUS no improvement in best 9 clusters for 5 generations
USER: GENES 17
USER: genes 0 Translation |==|  0.47387 0.48781 0.46080
USER: genes 1 Rotation |==|  0.68954 0.54008 0.39656 0.94918
USER: genes 2 Torsion [C]-CA--N-[C] |==|  0.80978
USER: genes 3 Torsion [N]-C--CA-[N] |==|  0.34575
USER: genes 4 Torsion [C]-CA--N-[C] |==|  0.55556
USER: genes 5 Torsion [N]-C--CA-[N] |==|  0.55886
USER: genes 6 Torsion [C]-CA--N-[H1] |==|  0.60030
USER: genes 7 Torsion [C]-CA--CB-[OG] |==|  0.45028
USER: genes 8 Torsion [CA]-CB--OG-[HG] |==|  0.71520
USER: genes 9 Torsion [N]-CA--CB-[CG1] |==|  0.34960
USER: genes 10 Torsion [N]-CA--C-[N] |==|  0.89925
USER: genes 11 Torsion [C]-N--CA-[C] |==|  0.61825
USER: genes 12 Torsion [N]-CA--C-[N] |==|  0.86085
USER: genes 13 Torsion [C]-N--CA-[CB] |==|  0.13087
USER: genes 14 Torsion [N]-CA--C-[O] |==|  0.99190
USER: genes 15 Torsion [N]-CA--CB-[OG] |==|  0.98293
USER: genes 16 Torsion [CA]-CB--OG-[HG] |==|  0.51170
ROOT
ATOM      1  CA  VAL B 303      12.346   3.414  31.574  1.00 28.18 LIG 0.18  C 
ENDROOT
BRANCH 1 2
ATOM      2  N   VAL B 303      11.091   3.190  32.279  1.00 29.68 LIG-0.35  N 
ATOM      3  C   SER B 302      10.839   2.059  32.934  1.00 31.00 LIG 0.24  C 
ATOM      4 O    SER B 302      11.642   1.115  32.962  1.00 32.88 LIG-0.27  OA
ATOM      5 H    VAL B 303      10.537   3.847  32.232  1.00 29.68 LIG 0.16  HD
BRANCH 3 6
ATOM      6  CA  SER B 302       9.473   1.967  33.641  1.00 30.54 LIG 0.20  C 
BRANCH 6 7
ATOM      7  N   SER B 302       8.712   0.791  33.211  1.00 26.47 LIG-0.34  N 
ATOM      8  C   ALA B 301       7.391   0.701  33.369  1.00 26.40 LIG 0.25  C 
ATOM      9 O    ALA B 301       6.711   1.571  33.915  1.00 23.28 LIG-0.27  OA
ATOM     10 H    SER B 302       9.191   0.174  32.854  1.00 26.47 LIG 0.16  HD
BRANCH 8 11
ATOM     11  CA  ALA B 301       6.734  -0.581  32.858  1.00 27.42 LIG 0.27  C 
ATOM     12  CB  ALA B 301       7.407  -1.055  31.535  1.00 28.79 LIG 0.05  C 
BRANCH 11 13
ATOM     13  N   ALA B 301       5.274  -0.345  32.622  1.00 29.28 LIG-0.07  N 
ATOM     14 H1   ALA B 301       4.816  -1.077  32.838  1.00 29.28 LIG 0.28  HD
ATOM     15 H2   ALA B 301       4.998   0.336  33.124  1.00 29.28 LIG 0.28  HD
ATOM     16 H3   ALA B 301       5.138  -0.154  31.763  1.00 29.28 LIG 0.28  HD
ENDBRANCH 11 13
ENDBRANCH 8 11
ENDBRANCH 6 7
BRANCH 6 17
ATOM     17  CB  SER B 302       9.696   1.953  35.157  1.00 31.87 LIG 0.20  C 
BRANCH 17 18
ATOM     18 OG   SER B 302       8.500   2.280  35.831  1.00 37.10 LIG-0.40  OA
ATOM     19 HG   SER B 302       8.536   3.076  36.094  1.00 37.10 LIG 0.21  HD
ENDBRANCH 17 18
ENDBRANCH 6 17
ENDBRANCH 3 6
ENDBRANCH 1 2
BRANCH 1 20
ATOM     20  CB  VAL B 303      12.288   4.729  30.704  1.00 29.00 LIG 0.01  C 
ATOM     21  CG1 VAL B 303      13.448   5.634  31.065  1.00 28.23 LIG 0.01  C 
ATOM     22  CG2 VAL B 303      12.362   4.393  29.209  1.00 26.76 LIG 0.01  C 
ENDBRANCH 1 20
BRANCH 1 23
ATOM     23  C   VAL B 303      13.446   3.532  32.617  1.00 28.25 LIG 0.24  C 
ATOM     24 O    VAL B 303      14.582   3.105  32.382  1.00 25.63 LIG-0.27  OA
ATOM     25  N   SER B 304      13.141   4.138  33.757  1.00 28.07 LIG-0.34  N 
ATOM     26 H    SER B 304      12.376   4.485  33.940  1.00 28.07 LIG 0.16  HD
BRANCH 25 27
ATOM     27  CA  SER B 304      14.143   4.250  34.809  1.00 30.78 LIG 0.20  C 
BRANCH 27 28
ATOM     28  C   SER B 304      13.459   3.943  36.148  1.00 31.57 LIG 0.24  C 
ATOM     29 O    SER B 304      13.945   3.108  36.918  1.00 32.88 LIG-0.27  OA
ATOM     30  N   ALA B 305      12.328   4.594  36.410  1.00 33.00 LIG-0.35  N 
ATOM     31 H    ALA B 305      11.969   5.149  35.859  1.00 33.00 LIG 0.16  HD
BRANCH 30 32
ATOM     32  CA  ALA B 305      11.572   4.436  37.661  1.00 34.21 LIG 0.16  C 
ATOM     33  CB  ALA B 305      12.557   4.526  38.879  1.00 33.59 LIG 0.04  C 
BRANCH 32 34
ATOM     34  C   ALA B 305      10.508   5.514  37.802  1.00 34.64 LIG 0.22  C 
ATOM     35 O    ALA B 305      10.446   6.395  36.909  1.00 35.93 LIG-0.29  OA
ENDBRANCH 32 34
ENDBRANCH 30 32
ENDBRANCH 27 28
BRANCH 27 36
ATOM     36  CB  SER B 304      14.745   5.655  34.822  1.00 32.96 LIG 0.20  C 
BRANCH 36 37
ATOM     37 OG   SER B 304      14.252   6.392  33.714  1.00 37.22 LIG-0.40  OA
ATOM     38 HG   SER B 304      14.626   7.143  33.688  1.00 37.22 LIG 0.21  HD
ENDBRANCH 36 37
ENDBRANCH 27 36
ENDBRANCH 25 27
ENDBRANCH 1 23
TORSDOF 15
ENDMDL
MODEL 33
USER: ADFR SOLUTION from run 104
USER: SCORE 13.767692 LL:  -3.071 LR: -10.827 RR:   0.000 FEB:  -6.352
USER: RMSD 12.076684
USER: SEED 103
USER: STATUS no improvement in best 3 clusters for 5 generations
USER: GENES 17
USER: genes 0 Translation |==|  0.61252 0.80920 0.45962
USER: genes 1 Rotation |==|  0.18530 0.47153 0.39215 0.87219
USER: genes 2 Torsion [C]-CA--N-[C] |==|  0.72909
USER: genes 3 Torsion [N]-C--CA-[N] |==|  0.96051
USER: genes 4 Torsion [C]-CA--N-[C] |==|  0.81016
USER: genes 5 Torsion [N]-C--CA-[N] |==|  0.16706
USER: genes 6 Torsion [C]-CA--N-[H1] |==|  0.62467
USER: genes 7 Torsion [C]-CA--CB-[OG] |==|  0.51392
USER: genes 8 Torsion [CA]-CB--OG-[HG] |==|  0.14738
USER: genes 9 Torsion [N]-CA--CB-[CG1] |==|  0.18839
USER: genes 10 Torsion [N]-CA--C-[N] |==|  0.44338
USER: genes 11 Torsion [C]-N--CA-[C] |==|  0.82676
USER: genes 12 Torsion [N]-CA--C-[N] |==|  0.91190
USER: genes 13 Torsion [C]-N--CA-[CB] |==|  0.43789
USER: genes 14 Torsion [N]-CA--C-[O] |==|  0.65809
USER: genes 15 Torsion [N]-CA--CB-[OG] |==|  0.11458
USER: genes 16 Torsion [CA]-CB--OG-[HG] |==|  0.75737
ROOT
ATOM      1  CA  VAL B 303      16.506  13.056  31.539  1.00 28.18 LIG 0.18  C 
ENDROOT
BRANCH 1 2
ATOM      2  N   VAL B 303      15.394  13.992  31.427  1.00 29.68 LIG-0.35  N 
ATOM      3  C   SER B 302      15.114  14.875  32.382  1.00 31.00 LIG 0.24  C 
ATOM      4 O    SER B 302      15.759  14.939  33.438  1.00 32.88 LIG-0.27  OA
ATOM      5 H    VAL B 303      14.945  13.920  30.696  1.00 29.68 LIG 0.16  HD
BRANCH 3 6
ATOM      6  CA  SER B 302      13.914  15.807  32.120  1.00 30.54 LIG 0.20  C 
BRANCH 6 7
ATOM      7  N   SER B 302      13.495  15.779  30.717  1.00 26.47 LIG-0.34  N 
ATOM      8  C   ALA B 301      14.250  16.278  29.738  1.00 26.40 LIG 0.25  C 
ATOM      9 O    ALA B 301      15.334  16.832  29.930  1.00 23.28 LIG-0.27  OA
ATOM     10 H    SER B 302      12.727  15.416  30.587  1.00 26.47 LIG 0.16  HD
BRANCH 8 11
ATOM     11  CA  ALA B 301      13.686  16.163  28.322  1.00 27.42 LIG 0.27  C 
ATOM     12  CB  ALA B 301      14.685  16.754  27.282  1.00 28.79 LIG 0.05  C 
BRANCH 11 13
ATOM     13  N   ALA B 301      12.380  16.890  28.234  1.00 29.28 LIG-0.07  N 
ATOM     14 H1   ALA B 301      11.789  16.387  27.797  1.00 29.28 LIG 0.28  HD
ATOM     15 H2   ALA B 301      12.078  17.058  29.053  1.00 29.28 LIG 0.28  HD
ATOM     16 H3   ALA B 301      12.496  17.657  27.797  1.00 29.28 LIG 0.28  HD
ENDBRANCH 11 13
ENDBRANCH 8 11
ENDBRANCH 6 7
BRANCH 6 17
ATOM     17  CB  SER B 302      12.761  15.407  33.046  1.00 31.87 LIG 0.20  C 
BRANCH 17 18
ATOM     18 OG   SER B 302      11.610  16.168  32.751  1.00 37.10 LIG-0.40  OA
ATOM     19 HG   SER B 302      11.436  16.107  31.932  1.00 37.10 LIG 0.21  HD
ENDBRANCH 17 18
ENDBRANCH 6 17
ENDBRANCH 3 6
ENDBRANCH 1 2
BRANCH 1 20
ATOM     20  CB  VAL B 303      16.130  11.645  30.942  1.00 29.00 LIG 0.01  C 
ATOM     21  CG1 VAL B 303      15.959  11.753  29.440  1.00 28.23 LIG 0.01  C 
ATOM     22  CG2 VAL B 303      17.226  10.617  31.248  1.00 26.76 LIG 0.01  C 
ENDBRANCH 1 20
BRANCH 1 23
ATOM     23  C   VAL B 303      17.682  13.643  30.776  1.00 28.25 LIG 0.24  C 
ATOM     24 O    VAL B 303      17.504  14.533  29.936  1.00 25.63 LIG-0.27  OA
ATOM     25  N   SER B 304      18.891  13.189  31.077  1.00 28.07 LIG-0.34  N 
ATOM     26 H    SER B 304      19.059  12.603  31.684  1.00 28.07 LIG 0.16  HD
BRANCH 25 27
ATOM     27  CA  SER B 304      20.055  13.687  30.356  1.00 30.78 LIG 0.20  C 
BRANCH 27 28
ATOM     28  C   SER B 304      19.894  13.306  28.878  1.00 31.57 LIG 0.24  C 
ATOM     29 O    SER B 304      20.335  14.046  27.993  1.00 32.88 LIG-0.27  OA
ATOM     30  N   ALA B 305      19.245  12.173  28.615  1.00 33.00 LIG-0.35  N 
ATOM     31 H    ALA B 305      18.907  11.674  29.229  1.00 33.00 LIG 0.16  HD
BRANCH 30 32
ATOM     32  CA  ALA B 305      19.039  11.655  27.255  1.00 34.21 LIG 0.16  C 
ATOM     33  CB  ALA B 305      18.778  10.109  27.320  1.00 33.59 LIG 0.04  C 
BRANCH 32 34
ATOM     34  C   ALA B 305      17.853  12.330  26.584  1.00 34.64 LIG 0.22  C 
ATOM     35 O    ALA B 305      16.922  11.599  26.164  1.00 35.93 LIG-0.29  OA
ENDBRANCH 32 34
ENDBRANCH 30 32
ENDBRANCH 27 28
BRANCH 27 36
ATOM     36  CB  SER B 304      21.335  13.082  30.931  1.00 32.96 LIG 0.20  C 
BRANCH 36 37
ATOM     37 OG   SER B 304      21.125  11.709  31.215  1.00 37.22 LIG-0.40  OA
ATOM     38 HG   SER B 304      20.810  11.627  31.989  1.00 37.22 LIG 0.21  HD
ENDBRANCH 36 37
ENDBRANCH 27 36
ENDBRANCH 25 27
ENDBRANCH 1 23
TORSDOF 15
ENDMDL
MODEL 34
USER: ADFR SOLUTION from run 99
USER: SCORE 12.707160 LL:  -2.455 LR: -10.829 RR:   0.000 FEB:  -6.354
USER: RMSD 8.858817
USER: SEED 98
USER: STATUS no improvement in best 6 clusters for 5 generations
USER: GENES 17
USER: genes 0 Translation |==|  0.64425 0.71213 0.44579
USER: genes 1 Rotation |==|  0.54290 0.53983 0.71402 0.94807
USER: genes 2 Torsion [C]-CA--N-[C] |==|  0.52849
USER: genes 3 Torsion [N]-C--CA-[N] |==|  0.86542
USER: genes 4 Torsion [C]-CA--N-[C] |==|  0.77892
USER: genes 5 Torsion [N]-C--CA-[N] |==|  0.12353
USER: genes 6 Torsion [C]-CA--N-[H1] |==|  0.89742
USER: genes 7 Torsion [C]-CA--CB-[OG] |==|  0.66059
USER: genes 8 Torsion [CA]-CB--OG-[HG] |==|  0.11925
USER: genes 9 Torsion [N]-CA--CB-[CG1] |==|  0.25755
USER: genes 10 Torsion [N]-CA--C-[N] |==|  0.43090
USER: genes 11 Torsion [C]-N--CA-[C] |==|  0.82842
USER: genes 12 Torsion [N]-CA--C-[N] |==|  0.38010
USER: genes 13 Torsion [C]-N--CA-[CB] |==|  0.52893
USER: genes 14 Torsion [N]-CA--C-[O] |==|  0.67348
USER: genes 15 Torsion [N]-CA--CB-[OG] |==|  0.89799
USER: genes 16 Torsion [CA]-CB--OG-[HG] |==|  0.96870
ROOT
ATOM      1  CA  VAL B 303      17.458  10.144  31.124  1.00 28.18 LIG 0.18  C 
ENDROOT
BRANCH 1 2
ATOM      2  N   VAL B 303      16.982   8.951  31.813  1.00 29.68 LIG-0.35  N 
ATOM      3  C   SER B 302      17.339   7.726  31.435  1.00 31.00 LIG 0.24  C 
ATOM      4 O    SER B 302      18.072   7.519  30.459  1.00 32.88 LIG-0.27  OA
ATOM      5 H    VAL B 303      16.458   9.113  32.477  1.00 29.68 LIG 0.16  HD
BRANCH 3 6
ATOM      6  CA  SER B 302      16.766   6.561  32.266  1.00 30.54 LIG 0.20  C 
BRANCH 6 7
ATOM      7  N   SER B 302      16.933   6.779  33.705  1.00 26.47 LIG-0.34  N 
ATOM      8  C   ALA B 301      18.089   6.554  34.330  1.00 26.40 LIG 0.25  C 
ATOM      9 O    ALA B 301      19.091   6.112  33.766  1.00 23.28 LIG-0.27  OA
ATOM     10 H    SER B 302      16.225   7.063  34.102  1.00 26.47 LIG 0.16  HD
BRANCH 8 11
ATOM     11  CA  ALA B 301      18.115   6.842  35.831  1.00 27.42 LIG 0.27  C 
ATOM     12  CB  ALA B 301      19.376   6.208  36.491  1.00 28.79 LIG 0.05  C 
BRANCH 11 13
ATOM     13  N   ALA B 301      16.880   6.293  36.476  1.00 29.28 LIG-0.07  N 
ATOM     14 H1   ALA B 301      16.186   6.399  35.928  1.00 29.28 LIG 0.28  HD
ATOM     15 H2   ALA B 301      16.994   5.427  36.646  1.00 29.28 LIG 0.28  HD
ATOM     16 H3   ALA B 301      16.725   6.726  37.237  1.00 29.28 LIG 0.28  HD
ENDBRANCH 11 13
ENDBRANCH 8 11
ENDBRANCH 6 7
BRANCH 6 17
ATOM     17  CB  SER B 302      15.288   6.373  31.908  1.00 31.87 LIG 0.20  C 
BRANCH 17 18
ATOM     18 OG   SER B 302      14.484   6.497  33.060  1.00 37.10 LIG-0.40  OA
ATOM     19 HG   SER B 302      14.753   7.147  33.520  1.00 37.10 LIG 0.21  HD
ENDBRANCH 17 18
ENDBRANCH 6 17
ENDBRANCH 3 6
ENDBRANCH 1 2
BRANCH 1 20
ATOM     20  CB  VAL B 303      16.822  10.266  29.685  1.00 29.00 LIG 0.01  C 
ATOM     21  CG1 VAL B 303      15.565  11.110  29.750  1.00 28.23 LIG 0.01  C 
ATOM     22  CG2 VAL B 303      17.811  10.917  28.709  1.00 26.76 LIG 0.01  C 
ENDBRANCH 1 20
BRANCH 1 23
ATOM     23  C   VAL B 303      17.069  11.349  31.965  1.00 28.25 LIG 0.24  C 
ATOM     24 O    VAL B 303      16.130  11.278  32.766  1.00 25.63 LIG-0.27  OA
ATOM     25  N   SER B 304      17.797  12.449  31.826  1.00 28.07 LIG-0.34  N 
ATOM     26 H    SER B 304      18.482  12.523  31.312  1.00 28.07 LIG 0.16  HD
BRANCH 25 27
ATOM     27  CA  SER B 304      17.451  13.648  32.579  1.00 30.78 LIG 0.20  C 
BRANCH 27 28
ATOM     28  C   SER B 304      16.045  14.087  32.150  1.00 31.57 LIG 0.24  C 
ATOM     29 O    SER B 304      15.734  14.100  30.955  1.00 32.88 LIG-0.27  OA
ATOM     30  N   ALA B 305      15.212  14.467  33.118  1.00 33.00 LIG-0.35  N 
ATOM     31 H    ALA B 305      15.439  14.493  33.947  1.00 33.00 LIG 0.16  HD
BRANCH 30 32
ATOM     32  CA  ALA B 305      13.823  14.883  32.874  1.00 34.21 LIG 0.16  C 
ATOM     33  CB  ALA B 305      13.229  15.510  34.184  1.00 33.59 LIG 0.04  C 
BRANCH 32 34
ATOM     34  C   ALA B 305      13.745  15.908  31.753  1.00 34.64 LIG 0.22  C 
ATOM     35 O    ALA B 305      13.307  17.051  32.034  1.00 35.93 LIG-0.29  OA
ENDBRANCH 32 34
ENDBRANCH 30 32
ENDBRANCH 27 28
BRANCH 27 36
ATOM     36  CB  SER B 304      18.468  14.757  32.306  1.00 32.96 LIG 0.20  C 
BRANCH 36 37
ATOM     37 OG   SER B 304      19.762  14.191  32.174  1.00 37.22 LIG-0.40  OA
ATOM     38 HG   SER B 304      19.744  13.389  32.421  1.00 37.22 LIG 0.21  HD
ENDBRANCH 36 37
ENDBRANCH 27 36
ENDBRANCH 25 27
ENDBRANCH 1 23
TORSDOF 15
ENDMDL
MODEL 35
USER: ADFR SOLUTION from run 150
USER: SCORE 12.805473 LL:  -2.274 LR: -10.820 RR:   0.000 FEB:  -6.345
USER: RMSD 11.476745
USER: SEED 149
USER: STATUS no improvement in best 14 clusters for 5 generations
USER: GENES 17
USER: genes 0 Translation |==|  0.61008 0.75826 0.39349
USER: genes 1 Rotation |==|  0.64526 0.34023 0.13051 0.75856
USER: genes 2 Torsion [C]-CA--N-[C] |==|  0.66356
USER: genes 3 Torsion [N]-C--CA-[N] |==|  0.44365
USER: genes 4 Torsion [C]-CA--N-[C] |==|  0.81992
USER: genes 5 Torsion [N]-C--CA-[N] |==|  0.03675
USER: genes 6 Torsion [C]-CA--N-[H1] |==|  0.89578
USER: genes 7 Torsion [C]-CA--CB-[OG] |==|  0.64354
USER: genes 8 Torsion [CA]-CB--OG-[HG] |==|  0.13454
USER: genes 9 Torsion [N]-CA--CB-[CG1] |==|  0.76378
USER: genes 10 Torsion [N]-CA--C-[N] |==|  0.46363
USER: genes 11 Torsion [C]-N--CA-[C] |==|  0.76908
USER: genes 12 Torsion [N]-CA--C-[N] |==|  0.41165
USER: genes 13 Torsion [C]-N--CA-[CB] |==|  0.50841
USER: genes 14 Torsion [N]-CA--C-[O] |==|  0.35228
USER: genes 15 Torsion [N]-CA--CB-[OG] |==|  0.61259
USER: genes 16 Torsion [CA]-CB--OG-[HG] |==|  0.94493
ROOT
ATOM      1  CA  VAL B 303      16.432  11.528  29.555  1.00 28.18 LIG 0.18  C 
ENDROOT
BRANCH 1 2
ATOM      2  N   VAL B 303      16.170  12.913  29.925  1.00 29.68 LIG-0.35  N 
ATOM      3  C   SER B 302      15.111  13.578  29.470  1.00 31.00 LIG 0.24  C 
ATOM      4 O    SER B 302      14.298  13.075  28.682  1.00 32.88 LIG-0.27  OA
ATOM      5 H    VAL B 303      16.755  13.252  30.457  1.00 29.68 LIG 0.16  HD
BRANCH 3 6
ATOM      6  CA  SER B 302      14.958  15.033  29.956  1.00 30.54 LIG 0.20  C 
BRANCH 6 7
ATOM      7  N   SER B 302      14.088  15.816  29.075  1.00 26.47 LIG-0.34  N 
ATOM      8  C   ALA B 301      14.410  16.083  27.810  1.00 26.40 LIG 0.25  C 
ATOM      9 O    ALA B 301      15.471  15.733  27.290  1.00 23.28 LIG-0.27  OA
ATOM     10 H    SER B 302      13.359  16.082  29.447  1.00 26.47 LIG 0.16  HD
BRANCH 8 11
ATOM     11  CA  ALA B 301      13.394  16.898  27.009  1.00 27.42 LIG 0.27  C 
ATOM     12  CB  ALA B 301      14.106  18.031  26.209  1.00 28.79 LIG 0.05  C 
BRANCH 11 13
ATOM     13  N   ALA B 301      12.380  17.497  27.934  1.00 29.28 LIG-0.07  N 
ATOM     14 H1   ALA B 301      12.193  16.919  28.584  1.00 29.28 LIG 0.28  HD
ATOM     15 H2   ALA B 301      12.706  18.245  28.287  1.00 29.28 LIG 0.28  HD
ATOM     16 H3   ALA B 301      11.637  17.682  27.480  1.00 29.28 LIG 0.28  HD
ENDBRANCH 11 13
ENDBRANCH 8 11
ENDBRANCH 6 7
BRANCH 6 17
ATOM     17  CB  SER B 302      14.422  15.026  31.391  1.00 31.87 LIG 0.20  C 
BRANCH 17 18
ATOM     18 OG   SER B 302      13.291  15.862  31.497  1.00 37.10 LIG-0.40  OA
ATOM     19 HG   SER B 302      12.755  15.688  30.874  1.00 37.10 LIG 0.21  HD
ENDBRANCH 17 18
ENDBRANCH 6 17
ENDBRANCH 3 6
ENDBRANCH 1 2
BRANCH 1 20
ATOM     20  CB  VAL B 303      17.803  11.390  28.786  1.00 29.00 LIG 0.01  C 
ATOM     21  CG1 VAL B 303      17.594  11.670  27.312  1.00 28.23 LIG 0.01  C 
ATOM     22  CG2 VAL B 303      18.838  12.377  29.340  1.00 26.76 LIG 0.01  C 
ENDBRANCH 1 20
BRANCH 1 23
ATOM     23  C   VAL B 303      16.472  10.708  30.834  1.00 28.25 LIG 0.24  C 
ATOM     24 O    VAL B 303      16.505  11.265  31.936  1.00 25.63 LIG-0.27  OA
ATOM     25  N   SER B 304      16.433   9.387  30.712  1.00 28.07 LIG-0.34  N 
ATOM     26 H    SER B 304      16.367   8.964  29.966  1.00 28.07 LIG 0.16  HD
BRANCH 25 27
ATOM     27  CA  SER B 304      16.504   8.546  31.899  1.00 30.78 LIG 0.20  C 
BRANCH 27 28
ATOM     28  C   SER B 304      17.982   8.383  32.276  1.00 31.57 LIG 0.24  C 
ATOM     29 O    SER B 304      18.850   8.356  31.397  1.00 32.88 LIG-0.27  OA
ATOM     30  N   ALA B 305      18.262   8.250  33.571  1.00 33.00 LIG-0.35  N 
ATOM     31 H    ALA B 305      17.657   8.233  34.182  1.00 33.00 LIG 0.16  HD
BRANCH 30 32
ATOM     32  CA  ALA B 305      19.630   8.118  34.095  1.00 34.21 LIG 0.16  C 
ATOM     33  CB  ALA B 305      19.575   7.905  35.649  1.00 33.59 LIG 0.04  C 
BRANCH 32 34
ATOM     34  C   ALA B 305      20.352   6.941  33.458  1.00 34.64 LIG 0.22  C 
ATOM     35 O    ALA B 305      21.470   7.156  32.929  1.00 35.93 LIG-0.29  OA
ENDBRANCH 32 34
ENDBRANCH 30 32
ENDBRANCH 27 28
BRANCH 27 36
ATOM     36  CB  SER B 304      15.865   7.185  31.625  1.00 32.96 LIG 0.20  C 
BRANCH 36 37
ATOM     37 OG   SER B 304      15.108   6.780  32.754  1.00 37.22 LIG-0.40  OA
ATOM     38 HG   SER B 304      15.364   7.206  33.431  1.00 37.22 LIG 0.21  HD
ENDBRANCH 36 37
ENDBRANCH 27 36
ENDBRANCH 25 27
ENDBRANCH 1 23
TORSDOF 15
ENDMDL
MODEL 36
USER: ADFR SOLUTION from run 160
USER: SCORE 12.510034 LL:  -2.273 LR: -10.814 RR:   0.000 FEB:  -6.340
USER: RMSD 10.196191
USER: SEED 159
USER: STATUS no improvement in best 14 clusters for 5 generations
USER: GENES 17
USER: genes 0 Translation |==|  0.66264 0.64205 0.50945
USER: genes 1 Rotation |==|  0.51533 0.60748 0.01278 0.52887
USER: genes 2 Torsion [C]-CA--N-[C] |==|  0.86187
USER: genes 3 Torsion [N]-C--CA-[N] |==|  0.04437
USER: genes 4 Torsion [C]-CA--N-[C] |==|  0.75541
USER: genes 5 Torsion [N]-C--CA-[N] |==|  0.93231
USER: genes 6 Torsion [C]-CA--N-[H1] |==|  0.12361
USER: genes 7 Torsion [C]-CA--CB-[OG] |==|  0.64701
USER: genes 8 Torsion [CA]-CB--OG-[HG] |==|  0.18013
USER: genes 9 Torsion [N]-CA--CB-[CG1] |==|  0.59084
USER: genes 10 Torsion [N]-CA--C-[N] |==|  0.35109
USER: genes 11 Torsion [C]-N--CA-[C] |==|  0.62824
USER: genes 12 Torsion [N]-CA--C-[N] |==|  0.30272
USER: genes 13 Torsion [C]-N--CA-[CB] |==|  0.20430
USER: genes 14 Torsion [N]-CA--C-[O] |==|  0.65791
USER: genes 15 Torsion [N]-CA--CB-[OG] |==|  0.98150
USER: genes 16 Torsion [CA]-CB--OG-[HG] |==|  0.44213
ROOT
ATOM      1  CA  VAL B 303      18.009   8.042  33.034  1.00 28.18 LIG 0.18  C 
ENDROOT
BRANCH 1 2
ATOM      2  N   VAL B 303      19.220   8.090  33.842  1.00 29.68 LIG-0.35  N 
ATOM      3  C   SER B 302      19.275   7.569  35.066  1.00 31.00 LIG 0.24  C 
ATOM      4 O    SER B 302      18.295   7.038  35.606  1.00 32.88 LIG-0.27  OA
ATOM      5 H    VAL B 303      19.885   8.480  33.459  1.00 29.68 LIG 0.16  HD
BRANCH 3 6
ATOM      6  CA  SER B 302      20.627   7.686  35.799  1.00 30.54 LIG 0.20  C 
BRANCH 6 7
ATOM      7  N   SER B 302      21.506   8.675  35.170  1.00 26.47 LIG-0.34  N 
ATOM      8  C   ALA B 301      22.336   8.360  34.176  1.00 26.40 LIG 0.25  C 
ATOM      9 O    ALA B 301      22.461   7.218  33.730  1.00 23.28 LIG-0.27  OA
ATOM     10 H    SER B 302      21.437   9.466  35.499  1.00 26.47 LIG 0.16  HD
BRANCH 8 11
ATOM     11  CA  ALA B 301      23.181   9.501  33.611  1.00 27.42 LIG 0.27  C 
ATOM     12  CB  ALA B 301      24.599   9.508  34.257  1.00 28.79 LIG 0.05  C 
BRANCH 11 13
ATOM     13  N   ALA B 301      22.505  10.812  33.870  1.00 29.28 LIG-0.07  N 
ATOM     14 H1   ALA B 301      22.204  10.831  34.707  1.00 29.28 LIG 0.28  HD
ATOM     15 H2   ALA B 301      23.086  11.475  33.749  1.00 29.28 LIG 0.28  HD
ATOM     16 H3   ALA B 301      21.822  10.910  33.308  1.00 29.28 LIG 0.28  HD
ENDBRANCH 11 13
ENDBRANCH 8 11
ENDBRANCH 6 7
BRANCH 6 17
ATOM     17  CB  SER B 302      20.369   8.037  37.268  1.00 31.87 LIG 0.20  C 
BRANCH 17 18
ATOM     18 OG   SER B 302      21.112   9.178  37.638  1.00 37.10 LIG-0.40  OA
ATOM     19 HG   SER B 302      20.838   9.842  37.203  1.00 37.10 LIG 0.21  HD
ENDBRANCH 17 18
ENDBRANCH 6 17
ENDBRANCH 3 6
ENDBRANCH 1 2
BRANCH 1 20
ATOM     20  CB  VAL B 303      18.290   8.503  31.552  1.00 29.00 LIG 0.01  C 
ATOM     21  CG1 VAL B 303      17.067   9.201  30.992  1.00 28.23 LIG 0.01  C 
ATOM     22  CG2 VAL B 303      19.483   9.466  31.500  1.00 26.76 LIG 0.01  C 
ENDBRANCH 1 20
BRANCH 1 23
ATOM     23  C   VAL B 303      17.506   6.608  33.042  1.00 28.25 LIG 0.24  C 
ATOM     24 O    VAL B 303      18.262   5.675  32.750  1.00 25.63 LIG-0.27  OA
ATOM     25  N   SER B 304      16.246   6.407  33.407  1.00 28.07 LIG-0.34  N 
ATOM     26 H    SER B 304      15.702   7.024  33.657  1.00 28.07 LIG 0.16  HD
BRANCH 25 27
ATOM     27  CA  SER B 304      15.695   5.058  33.400  1.00 30.78 LIG 0.20  C 
BRANCH 27 28
ATOM     28  C   SER B 304      14.319   5.112  32.724  1.00 31.57 LIG 0.24  C 
ATOM     29 O    SER B 304      13.359   5.628  33.305  1.00 32.88 LIG-0.27  OA
ATOM     30  N   ALA B 305      14.220   4.561  31.515  1.00 33.00 LIG-0.35  N 
ATOM     31 H    ALA B 305      14.878   4.169  31.124  1.00 33.00 LIG 0.16  HD
BRANCH 30 32
ATOM     32  CA  ALA B 305      12.981   4.560  30.724  1.00 34.21 LIG 0.16  C 
ATOM     33  CB  ALA B 305      12.724   6.001  30.157  1.00 33.59 LIG 0.04  C 
BRANCH 32 34
ATOM     34  C   ALA B 305      13.068   3.579  29.566  1.00 34.64 LIG 0.22  C 
ATOM     35 O    ALA B 305      12.885   4.024  28.405  1.00 35.93 LIG-0.29  OA
ENDBRANCH 32 34
ENDBRANCH 30 32
ENDBRANCH 27 28
BRANCH 27 36
ATOM     36  CB  SER B 304      15.572   4.528  34.829  1.00 32.96 LIG 0.20  C 
BRANCH 36 37
ATOM     37 OG   SER B 304      16.173   5.445  35.728  1.00 37.22 LIG-0.40  OA
ATOM     38 HG   SER B 304      15.872   5.318  36.502  1.00 37.22 LIG 0.21  HD
ENDBRANCH 36 37
ENDBRANCH 27 36
ENDBRANCH 25 27
ENDBRANCH 1 23
TORSDOF 15
ENDMDL
MODEL 37
USER: ADFR SOLUTION from run 134
USER: SCORE 13.228972 LL:  -2.605 LR: -10.803 RR:   0.000 FEB:  -6.328
USER: RMSD 11.085176
USER: SEED 133
USER: STATUS no improvement in best 8 clusters for 5 generations
USER: GENES 17
USER: genes 0 Translation |==|  0.56089 0.78148 0.34747
USER: genes 1 Rotation |==|  0.48440 0.81156 0.34466 0.85855
USER: genes 2 Torsion [C]-CA--N-[C] |==|  0.83019
USER: genes 3 Torsion [N]-C--CA-[N] |==|  0.44072
USER: genes 4 Torsion [C]-CA--N-[C] |==|  0.82760
USER: genes 5 Torsion [N]-C--CA-[N] |==|  0.42791
USER: genes 6 Torsion [C]-CA--N-[H1] |==|  0.38435
USER: genes 7 Torsion [C]-CA--CB-[OG] |==|  0.72251
USER: genes 8 Torsion [CA]-CB--OG-[HG] |==|  0.85727
USER: genes 9 Torsion [N]-CA--CB-[CG1] |==|  0.23174
USER: genes 10 Torsion [N]-CA--C-[N] |==|  0.90434
USER: genes 11 Torsion [C]-N--CA-[C] |==|  0.77136
USER: genes 12 Torsion [N]-CA--C-[N] |==|  0.40758
USER: genes 13 Torsion [C]-N--CA-[CB] |==|  0.16259
USER: genes 14 Torsion [N]-CA--C-[O] |==|  0.69607
USER: genes 15 Torsion [N]-CA--CB-[OG] |==|  0.55918
USER: genes 16 Torsion [CA]-CB--OG-[HG] |==|  0.06119
ROOT
ATOM      1  CA  VAL B 303      14.957  12.224  28.174  1.00 28.18 LIG 0.18  C 
ENDROOT
BRANCH 1 2
ATOM      2  N   VAL B 303      15.438  12.429  29.534  1.00 29.68 LIG-0.35  N 
ATOM      3  C   SER B 302      16.522  11.817  30.001  1.00 31.00 LIG 0.24  C 
ATOM      4 O    SER B 302      17.176  11.013  29.322  1.00 32.88 LIG-0.27  OA
ATOM      5 H    VAL B 303      14.960  12.975  29.998  1.00 29.68 LIG 0.16  HD
BRANCH 3 6
ATOM      6  CA  SER B 302      16.916  12.139  31.457  1.00 30.54 LIG 0.20  C 
BRANCH 6 7
ATOM      7  N   SER B 302      17.767  11.097  32.037  1.00 26.47 LIG-0.34  N 
ATOM      8  C   ALA B 301      17.350   9.840  32.191  1.00 26.40 LIG 0.25  C 
ATOM      9 O    ALA B 301      16.215   9.460  31.898  1.00 23.28 LIG-0.27  OA
ATOM     10 H    SER B 302      18.550  11.369  32.265  1.00 26.47 LIG 0.16  HD
BRANCH 8 11
ATOM     11  CA  ALA B 301      18.356   8.862  32.797  1.00 27.42 LIG 0.27  C 
ATOM     12  CB  ALA B 301      19.293   8.283  31.695  1.00 28.79 LIG 0.05  C 
BRANCH 11 13
ATOM     13  N   ALA B 301      17.630   7.743  33.478  1.00 29.28 LIG-0.07  N 
ATOM     14 H1   ALA B 301      18.038   6.972  33.299  1.00 29.28 LIG 0.28  HD
ATOM     15 H2   ALA B 301      17.630   7.881  34.357  1.00 29.28 LIG 0.28  HD
ATOM     16 H3   ALA B 301      16.791   7.709  33.183  1.00 29.28 LIG 0.28  HD
ENDBRANCH 11 13
ENDBRANCH 8 11
ENDBRANCH 6 7
BRANCH 6 17
ATOM     17  CB  SER B 302      17.615  13.502  31.494  1.00 31.87 LIG 0.20  C 
BRANCH 17 18
ATOM     18 OG   SER B 302      19.014  13.334  31.549  1.00 37.10 LIG-0.40  OA
ATOM     19 HG   SER B 302      19.209  12.806  32.172  1.00 37.10 LIG 0.21  HD
ENDBRANCH 17 18
ENDBRANCH 6 17
ENDBRANCH 3 6
ENDBRANCH 1 2
BRANCH 1 20
ATOM     20  CB  VAL B 303      13.634  13.040  27.904  1.00 29.00 LIG 0.01  C 
ATOM     21  CG1 VAL B 303      13.979  14.467  27.530  1.00 28.23 LIG 0.01  C 
ATOM     22  CG2 VAL B 303      12.828  12.405  26.763  1.00 26.76 LIG 0.01  C 
ENDBRANCH 1 20
BRANCH 1 23
ATOM     23  C   VAL B 303      16.051  12.684  27.224  1.00 28.25 LIG 0.24  C 
ATOM     24 O    VAL B 303      16.210  12.125  26.133  1.00 25.63 LIG-0.27  OA
ATOM     25  N   SER B 304      16.789  13.719  27.601  1.00 28.07 LIG-0.34  N 
ATOM     26 H    SER B 304      16.682  14.160  28.332  1.00 28.07 LIG 0.16  HD
BRANCH 25 27
ATOM     27  CA  SER B 304      17.877  14.184  26.750  1.00 30.78 LIG 0.20  C 
BRANCH 27 28
ATOM     28  C   SER B 304      19.100  13.298  27.019  1.00 31.57 LIG 0.24  C 
ATOM     29 O    SER B 304      19.313  12.859  28.154  1.00 32.88 LIG-0.27  OA
ATOM     30  N   ALA B 305      19.910  13.060  25.989  1.00 33.00 LIG-0.35  N 
ATOM     31 H    ALA B 305      19.783  13.394  25.207  1.00 33.00 LIG 0.16  HD
BRANCH 30 32
ATOM     32  CA  ALA B 305      21.103  12.206  26.077  1.00 34.21 LIG 0.16  C 
ATOM     33  CB  ALA B 305      20.681  10.767  26.539  1.00 33.59 LIG 0.04  C 
BRANCH 32 34
ATOM     34  C   ALA B 305      21.809  12.108  24.733  1.00 34.64 LIG 0.22  C 
ATOM     35 O    ALA B 305      21.755  11.012  24.121  1.00 35.93 LIG-0.29  OA
ENDBRANCH 32 34
ENDBRANCH 30 32
ENDBRANCH 27 28
BRANCH 27 36
ATOM     36  CB  SER B 304      18.196  15.649  27.049  1.00 32.96 LIG 0.20  C 
BRANCH 36 37
ATOM     37 OG   SER B 304      18.868  16.223  25.939  1.00 37.22 LIG-0.40  OA
ATOM     38 HG   SER B 304      18.700  15.777  25.248  1.00 37.22 LIG 0.21  HD
ENDBRANCH 36 37
ENDBRANCH 27 36
ENDBRANCH 25 27
ENDBRANCH 1 23
TORSDOF 15
ENDMDL
MODEL 38
USER: ADFR SOLUTION from run 105
USER: SCORE 13.564317 LL:  -3.108 LR: -10.802 RR:   0.000 FEB:  -6.327
USER: RMSD 8.281447
USER: SEED 104
USER: STATUS no improvement in best 5 clusters for 5 generations
USER: GENES 17
USER: genes 0 Translation |==|  0.51220 0.56013 0.44162
USER: genes 1 Rotation |==|  0.34599 0.55246 0.03596 0.59052
USER: genes 2 Torsion [C]-CA--N-[C] |==|  0.77022
USER: genes 3 Torsion [N]-C--CA-[N] |==|  0.32264
USER: genes 4 Torsion [C]-CA--N-[C] |==|  0.62886
USER: genes 5 Torsion [N]-C--CA-[N] |==|  0.34771
USER: genes 6 Torsion [C]-CA--N-[H1] |==|  0.62261
USER: genes 7 Torsion [C]-CA--CB-[OG] |==|  0.73275
USER: genes 8 Torsion [CA]-CB--OG-[HG] |==|  0.03027
USER: genes 9 Torsion [N]-CA--CB-[CG1] |==|  0.29755
USER: genes 10 Torsion [N]-CA--C-[N] |==|  0.94066
USER: genes 11 Torsion [C]-N--CA-[C] |==|  0.80067
USER: genes 12 Torsion [N]-CA--C-[N] |==|  0.97402
USER: genes 13 Torsion [C]-N--CA-[CB] |==|  0.31702
USER: genes 14 Torsion [N]-CA--C-[O] |==|  0.96049
USER: genes 15 Torsion [N]-CA--CB-[OG] |==|  0.17480
USER: genes 16 Torsion [CA]-CB--OG-[HG] |==|  0.34379
ROOT
ATOM      1  CA  VAL B 303      13.496   5.584  30.999  1.00 28.18 LIG 0.18  C 
ENDROOT
BRANCH 1 2
ATOM      2  N   VAL B 303      14.792   6.246  30.916  1.00 29.68 LIG-0.35  N 
ATOM      3  C   SER B 302      15.384   6.776  31.983  1.00 31.00 LIG 0.24  C 
ATOM      4 O    SER B 302      14.862   6.767  33.106  1.00 32.88 LIG-0.27  OA
ATOM      5 H    VAL B 303      15.130   6.260  30.125  1.00 29.68 LIG 0.16  HD
BRANCH 3 6
ATOM      6  CA  SER B 302      16.758   7.435  31.745  1.00 30.54 LIG 0.20  C 
BRANCH 6 7
ATOM      7  N   SER B 302      16.729   8.874  32.018  1.00 26.47 LIG-0.34  N 
ATOM      8  C   ALA B 301      17.264   9.767  31.186  1.00 26.40 LIG 0.25  C 
ATOM      9 O    ALA B 301      17.855   9.462  30.149  1.00 23.28 LIG-0.27  OA
ATOM     10 H    SER B 302      16.340   9.084  32.755  1.00 26.47 LIG 0.16  HD
BRANCH 8 11
ATOM     11  CA  ALA B 301      17.143  11.235  31.598  1.00 27.42 LIG 0.27  C 
ATOM     12  CB  ALA B 301      16.223  12.010  30.608  1.00 28.79 LIG 0.05  C 
BRANCH 11 13
ATOM     13  N   ALA B 301      18.500  11.869  31.625  1.00 29.28 LIG-0.07  N 
ATOM     14 H1   ALA B 301      18.581  12.365  32.360  1.00 29.28 LIG 0.28  HD
ATOM     15 H2   ALA B 301      19.124  11.235  31.624  1.00 29.28 LIG 0.28  HD
ATOM     16 H3   ALA B 301      18.601  12.385  30.907  1.00 29.28 LIG 0.28  HD
ENDBRANCH 11 13
ENDBRANCH 8 11
ENDBRANCH 6 7
BRANCH 6 17
ATOM     17  CB  SER B 302      17.805   6.732  32.615  1.00 31.87 LIG 0.20  C 
BRANCH 17 18
ATOM     18 OG   SER B 302      18.003   7.444  33.816  1.00 37.10 LIG-0.40  OA
ATOM     19 HG   SER B 302      17.407   8.031  33.895  1.00 37.10 LIG 0.21  HD
ENDBRANCH 17 18
ENDBRANCH 6 17
ENDBRANCH 3 6
ENDBRANCH 1 2
BRANCH 1 20
ATOM     20  CB  VAL B 303      12.765   5.578  29.601  1.00 29.00 LIG 0.01  C 
ATOM     21  CG1 VAL B 303      12.792   4.181  29.015  1.00 28.23 LIG 0.01  C 
ATOM     22  CG2 VAL B 303      11.307   6.030  29.750  1.00 26.76 LIG 0.01  C 
ENDBRANCH 1 20
BRANCH 1 23
ATOM     23  C   VAL B 303      13.736   4.157  31.463  1.00 28.25 LIG 0.24  C 
ATOM     24 O    VAL B 303      12.816   3.494  31.957  1.00 25.63 LIG-0.27  OA
ATOM     25  N   SER B 304      14.950   3.653  31.282  1.00 28.07 LIG-0.34  N 
ATOM     26 H    SER B 304      15.603   4.067  30.905  1.00 28.07 LIG 0.16  HD
BRANCH 25 27
ATOM     27  CA  SER B 304      15.251   2.303  31.739  1.00 30.78 LIG 0.20  C 
BRANCH 27 28
ATOM     28  C   SER B 304      15.313   2.325  33.272  1.00 31.57 LIG 0.24  C 
ATOM     29 O    SER B 304      15.361   1.267  33.909  1.00 32.88 LIG-0.27  OA
ATOM     30  N   ALA B 305      15.287   3.520  33.859  1.00 33.00 LIG-0.35  N 
ATOM     31 H    ALA B 305      15.218   4.256  33.419  1.00 33.00 LIG 0.16  HD
BRANCH 30 32
ATOM     32  CA  ALA B 305      15.372   3.710  35.314  1.00 34.21 LIG 0.16  C 
ATOM     33  CB  ALA B 305      16.711   4.450  35.666  1.00 33.59 LIG 0.04  C 
BRANCH 32 34
ATOM     34  C   ALA B 305      14.201   4.531  35.831  1.00 34.64 LIG 0.22  C 
ATOM     35 O    ALA B 305      13.505   5.153  34.991  1.00 35.93 LIG-0.29  OA
ENDBRANCH 32 34
ENDBRANCH 30 32
ENDBRANCH 27 28
BRANCH 27 36
ATOM     36  CB  SER B 304      16.581   1.829  31.153  1.00 32.96 LIG 0.20  C 
BRANCH 36 37
ATOM     37 OG   SER B 304      17.630   2.660  31.624  1.00 37.22 LIG-0.40  OA
ATOM     38 HG   SER B 304      18.213   2.189  32.002  1.00 37.22 LIG 0.21  HD
ENDBRANCH 36 37
ENDBRANCH 27 36
ENDBRANCH 25 27
ENDBRANCH 1 23
TORSDOF 15
ENDMDL
MODEL 39
USER: ADFR SOLUTION from run 109
USER: SCORE 11.843811 LL:  -2.288 LR: -10.793 RR:   0.000 FEB:  -6.319
USER: RMSD 9.076023
USER: SEED 108
USER: STATUS no improvement in best 4 clusters for 5 generations
USER: GENES 17
USER: genes 0 Translation |==|  0.52663 0.55670 0.45625
USER: genes 1 Rotation |==|  0.31500 0.59528 0.06023 0.61532
USER: genes 2 Torsion [C]-CA--N-[C] |==|  0.79145
USER: genes 3 Torsion [N]-C--CA-[N] |==|  0.25006
USER: genes 4 Torsion [C]-CA--N-[C] |==|  0.60961
USER: genes 5 Torsion [N]-C--CA-[N] |==|  0.34589
USER: genes 6 Torsion [C]-CA--N-[H1] |==|  0.97806
USER: genes 7 Torsion [C]-CA--CB-[OG] |==|  0.75032
USER: genes 8 Torsion [CA]-CB--OG-[HG] |==|  0.06588
USER: genes 9 Torsion [N]-CA--CB-[CG1] |==|  0.20130
USER: genes 10 Torsion [N]-CA--C-[N] |==|  0.88336
USER: genes 11 Torsion [C]-N--CA-[C] |==|  0.14300
USER: genes 12 Torsion [N]-CA--C-[N] |==|  0.60723
USER: genes 13 Torsion [C]-N--CA-[CB] |==|  0.86828
USER: genes 14 Torsion [N]-CA--C-[O] |==|  0.81483
USER: genes 15 Torsion [N]-CA--CB-[OG] |==|  0.80560
USER: genes 16 Torsion [CA]-CB--OG-[HG] |==|  0.64374
ROOT
ATOM      1  CA  VAL B 303      13.929   5.481  31.438  1.00 28.18 LIG 0.18  C 
ENDROOT
BRANCH 1 2
ATOM      2  N   VAL B 303      15.153   6.254  31.273  1.00 29.68 LIG-0.35  N 
ATOM      3  C   SER B 302      15.967   6.516  32.293  1.00 31.00 LIG 0.24  C 
ATOM      4 O    SER B 302      15.723   6.146  33.450  1.00 32.88 LIG-0.27  OA
ATOM      5 H    VAL B 303      15.297   6.520  30.467  1.00 29.68 LIG 0.16  HD
BRANCH 3 6
ATOM      6  CA  SER B 302      17.230   7.336  31.966  1.00 30.54 LIG 0.20  C 
BRANCH 6 7
ATOM      7  N   SER B 302      16.998   8.776  32.099  1.00 26.47 LIG-0.34  N 
ATOM      8  C   ALA B 301      17.511   9.663  31.246  1.00 26.40 LIG 0.25  C 
ATOM      9 O    ALA B 301      18.246   9.355  30.306  1.00 23.28 LIG-0.27  OA
ATOM     10 H    SER B 302      16.506   8.992  32.771  1.00 26.47 LIG 0.16  HD
BRANCH 8 11
ATOM     11  CA  ALA B 301      17.168  11.130  31.505  1.00 27.42 LIG 0.27  C 
ATOM     12  CB  ALA B 301      16.291  11.702  30.351  1.00 28.79 LIG 0.05  C 
BRANCH 11 13
ATOM     13  N   ALA B 301      18.427  11.932  31.625  1.00 29.28 LIG-0.07  N 
ATOM     14 H1   ALA B 301      19.129  11.385  31.637  1.00 29.28 LIG 0.28  HD
ATOM     15 H2   ALA B 301      18.494  12.485  30.931  1.00 29.28 LIG 0.28  HD
ATOM     16 H3   ALA B 301      18.407  12.405  32.379  1.00 29.28 LIG 0.28  HD
ENDBRANCH 11 13
ENDBRANCH 8 11
ENDBRANCH 6 7
BRANCH 6 17
ATOM     17  CB  SER B 302      18.372   6.878  32.879  1.00 31.87 LIG 0.20  C 
BRANCH 17 18
ATOM     18 OG   SER B 302      18.381   7.634  34.070  1.00 37.10 LIG-0.40  OA
ATOM     19 HG   SER B 302      17.615   7.947  34.209  1.00 37.10 LIG 0.21  HD
ENDBRANCH 17 18
ENDBRANCH 6 17
ENDBRANCH 3 6
ENDBRANCH 1 2
BRANCH 1 20
ATOM     20  CB  VAL B 303      12.971   5.651  30.196  1.00 29.00 LIG 0.01  C 
ATOM     21  CG1 VAL B 303      13.538   4.904  29.006  1.00 28.23 LIG 0.01  C 
ATOM     22  CG2 VAL B 303      11.573   5.106  30.509  1.00 26.76 LIG 0.01  C 
ENDBRANCH 1 20
BRANCH 1 23
ATOM     23  C   VAL B 303      14.322   4.021  31.591  1.00 28.25 LIG 0.24  C 
ATOM     24 O    VAL B 303      13.740   3.297  32.407  1.00 25.63 LIG-0.27  OA
ATOM     25  N   SER B 304      15.279   3.561  30.796  1.00 28.07 LIG-0.34  N 
ATOM     26 H    SER B 304      15.677   4.022  30.188  1.00 28.07 LIG 0.16  HD
BRANCH 25 27
ATOM     27  CA  SER B 304      15.724   2.179  30.920  1.00 30.78 LIG 0.20  C 
BRANCH 27 28
ATOM     28  C   SER B 304      14.485   1.276  30.873  1.00 31.57 LIG 0.24  C 
ATOM     29 O    SER B 304      13.541   1.553  30.125  1.00 32.88 LIG-0.27  OA
ATOM     30  N   ALA B 305      14.478   0.220  31.684  1.00 33.00 LIG-0.35  N 
ATOM     31 H    ALA B 305      15.118   0.046  32.231  1.00 33.00 LIG 0.16  HD
BRANCH 30 32
ATOM     32  CA  ALA B 305      13.381  -0.757  31.732  1.00 34.21 LIG 0.16  C 
ATOM     33  CB  ALA B 305      12.009   0.002  31.809  1.00 33.59 LIG 0.04  C 
BRANCH 32 34
ATOM     34  C   ALA B 305      13.385  -1.650  30.501  1.00 34.64 LIG 0.22  C 
ATOM     35 O    ALA B 305      13.130  -1.120  29.391  1.00 35.93 LIG-0.29  OA
ENDBRANCH 32 34
ENDBRANCH 30 32
ENDBRANCH 27 28
BRANCH 27 36
ATOM     36  CB  SER B 304      16.484   1.983  32.232  1.00 32.96 LIG 0.20  C 
BRANCH 36 37
ATOM     37 OG   SER B 304      17.730   2.657  32.164  1.00 37.22 LIG-0.40  OA
ATOM     38 HG   SER B 304      18.347   2.128  32.375  1.00 37.22 LIG 0.21  HD
ENDBRANCH 36 37
ENDBRANCH 27 36
ENDBRANCH 25 27
ENDBRANCH 1 23
TORSDOF 15
ENDMDL
MODEL 40
USER: ADFR SOLUTION from run 90
USER: SCORE 12.314858 LL:  -2.814 LR: -10.786 RR:   0.000 FEB:  -6.311
USER: RMSD 5.513744
USER: SEED 89
USER: STATUS no improvement in best 12 clusters for 5 generations
USER: GENES 17
USER: genes 0 Translation |==|  0.61638 0.58673 0.51427
USER: genes 1 Rotation |==|  0.15608 0.17895 0.50003 0.66925
USER: genes 2 Torsion [C]-CA--N-[C] |==|  0.62867
USER: genes 3 Torsion [N]-C--CA-[N] |==|  0.23869
USER: genes 4 Torsion [C]-CA--N-[C] |==|  0.76567
USER: genes 5 Torsion [N]-C--CA-[N] |==|  0.44910
USER: genes 6 Torsion [C]-CA--N-[H1] |==|  0.58354
USER: genes 7 Torsion [C]-CA--CB-[OG] |==|  0.72761
USER: genes 8 Torsion [CA]-CB--OG-[HG] |==|  0.21875
USER: genes 9 Torsion [N]-CA--CB-[CG1] |==|  0.68933
USER: genes 10 Torsion [N]-CA--C-[N] |==|  0.26248
USER: genes 11 Torsion [C]-N--CA-[C] |==|  0.52271
USER: genes 12 Torsion [N]-CA--C-[N] |==|  0.33122
USER: genes 13 Torsion [C]-N--CA-[CB] |==|  0.79021
USER: genes 14 Torsion [N]-CA--C-[O] |==|  0.06172
USER: genes 15 Torsion [N]-CA--CB-[OG] |==|  0.72679
USER: genes 16 Torsion [CA]-CB--OG-[HG] |==|  0.12975
ROOT
ATOM      1  CA  VAL B 303      16.621   6.382  33.178  1.00 28.18 LIG 0.18  C 
ENDROOT
BRANCH 1 2
ATOM      2  N   VAL B 303      15.906   5.556  32.214  1.00 29.68 LIG-0.35  N 
ATOM      3  C   SER B 302      14.593   5.356  32.290  1.00 31.00 LIG 0.24  C 
ATOM      4 O    SER B 302      13.900   5.833  33.199  1.00 32.88 LIG-0.27  OA
ATOM      5 H    VAL B 303      16.406   5.217  31.601  1.00 29.68 LIG 0.16  HD
BRANCH 3 6
ATOM      6  CA  SER B 302      13.972   4.467  31.194  1.00 30.54 LIG 0.20  C 
BRANCH 6 7
ATOM      7  N   SER B 302      14.051   3.044  31.533  1.00 26.47 LIG-0.34  N 
ATOM      8  C   ALA B 301      15.135   2.311  31.283  1.00 26.40 LIG 0.25  C 
ATOM      9 O    ALA B 301      16.138   2.751  30.719  1.00 23.28 LIG-0.27  OA
ATOM     10 H    SER B 302      13.340   2.732  31.904  1.00 26.47 LIG 0.16  HD
BRANCH 8 11
ATOM     11  CA  ALA B 301      15.074   0.844  31.708  1.00 27.42 LIG 0.27  C 
ATOM     12  CB  ALA B 301      15.279   0.708  33.247  1.00 28.79 LIG 0.05  C 
BRANCH 11 13
ATOM     13  N   ALA B 301      16.130   0.062  30.989  1.00 29.28 LIG-0.07  N 
ATOM     14 H1   ALA B 301      15.853  -0.776  30.875  1.00 29.28 LIG 0.28  HD
ATOM     15 H2   ALA B 301      16.286   0.433  30.196  1.00 29.28 LIG 0.28  HD
ATOM     16 H3   ALA B 301      16.879   0.063  31.469  1.00 29.28 LIG 0.28  HD
ENDBRANCH 11 13
ENDBRANCH 8 11
ENDBRANCH 6 7
BRANCH 6 17
ATOM     17  CB  SER B 302      12.520   4.898  30.966  1.00 31.87 LIG 0.20  C 
BRANCH 17 18
ATOM     18 OG   SER B 302      11.641   4.054  31.677  1.00 37.10 LIG-0.40  OA
ATOM     19 HG   SER B 302      11.630   4.278  32.487  1.00 37.10 LIG 0.21  HD
ENDBRANCH 17 18
ENDBRANCH 6 17
ENDBRANCH 3 6
ENDBRANCH 1 2
BRANCH 1 20
ATOM     20  CB  VAL B 303      17.467   5.499  34.175  1.00 29.00 LIG 0.01  C 
ATOM     21  CG1 VAL B 303      16.874   5.587  35.567  1.00 28.23 LIG 0.01  C 
ATOM     22  CG2 VAL B 303      17.474   4.032  33.727  1.00 26.76 LIG 0.01  C 
ENDBRANCH 1 20
BRANCH 1 23
ATOM     23  C   VAL B 303      17.542   7.308  32.400  1.00 28.25 LIG 0.24  C 
ATOM     24 O    VAL B 303      18.655   6.919  32.028  1.00 25.63 LIG-0.27  OA
ATOM     25  N   SER B 304      17.085   8.520  32.113  1.00 28.07 LIG-0.34  N 
ATOM     26 H    SER B 304      16.302   8.811  32.317  1.00 28.07 LIG 0.16  HD
BRANCH 25 27
ATOM     27  CA  SER B 304      17.934   9.465  31.400  1.00 30.78 LIG 0.20  C 
BRANCH 27 28
ATOM     28  C   SER B 304      17.226  10.827  31.395  1.00 31.57 LIG 0.24  C 
ATOM     29 O    SER B 304      16.130  10.956  30.841  1.00 32.88 LIG-0.27  OA
ATOM     30  N   ALA B 305      17.862  11.838  31.985  1.00 33.00 LIG-0.35  N 
ATOM     31 H    ALA B 305      18.641  11.758  32.340  1.00 33.00 LIG 0.16  HD
BRANCH 30 32
ATOM     32  CA  ALA B 305      17.302  13.193  32.093  1.00 34.21 LIG 0.16  C 
ATOM     33  CB  ALA B 305      17.405  13.912  30.701  1.00 33.59 LIG 0.04  C 
BRANCH 32 34
ATOM     34  C   ALA B 305      15.844  13.154  32.524  1.00 34.64 LIG 0.22  C 
ATOM     35 O    ALA B 305      15.438  12.128  33.125  1.00 35.93 LIG-0.29  OA
ENDBRANCH 32 34
ENDBRANCH 30 32
ENDBRANCH 27 28
BRANCH 27 36
ATOM     36  CB  SER B 304      18.183   8.983  29.971  1.00 32.96 LIG 0.20  C 
BRANCH 36 37
ATOM     37 OG   SER B 304      19.443   8.334  29.902  1.00 37.22 LIG-0.40  OA
ATOM     38 HG   SER B 304      19.517   7.797  30.544  1.00 37.22 LIG 0.21  HD
ENDBRANCH 36 37
ENDBRANCH 27 36
ENDBRANCH 25 27
ENDBRANCH 1 23
TORSDOF 15
ENDMDL
MODEL 41
USER: ADFR SOLUTION from run 93
USER: SCORE 11.567324 LL:  -2.080 LR: -10.788 RR:   0.000 FEB:  -6.314
USER: RMSD 12.434761
USER: SEED 92
USER: STATUS no improvement in best 12 clusters for 5 generations
USER: GENES 17
USER: genes 0 Translation |==|  0.64634 0.76722 0.32080
USER: genes 1 Rotation |==|  0.51605 0.27831 0.16500 0.79727
USER: genes 2 Torsion [C]-CA--N-[C] |==|  0.75321
USER: genes 3 Torsion [N]-C--CA-[N] |==|  0.64345
USER: genes 4 Torsion [C]-CA--N-[C] |==|  0.70551
USER: genes 5 Torsion [N]-C--CA-[N] |==|  0.54516
USER: genes 6 Torsion [C]-CA--N-[H1] |==|  0.33205
USER: genes 7 Torsion [C]-CA--CB-[OG] |==|  0.37065
USER: genes 8 Torsion [CA]-CB--OG-[HG] |==|  0.74827
USER: genes 9 Torsion [N]-CA--CB-[CG1] |==|  0.16079
USER: genes 10 Torsion [N]-CA--C-[N] |==|  0.16102
USER: genes 11 Torsion [C]-N--CA-[C] |==|  0.80556
USER: genes 12 Torsion [N]-CA--C-[N] |==|  0.31972
USER: genes 13 Torsion [C]-N--CA-[CB] |==|  0.17013
USER: genes 14 Torsion [N]-CA--C-[O] |==|  0.41308
USER: genes 15 Torsion [N]-CA--CB-[OG] |==|  0.31442
USER: genes 16 Torsion [CA]-CB--OG-[HG] |==|  0.40460
ROOT
ATOM      1  CA  VAL B 303      17.520  11.797  27.374  1.00 28.18 LIG 0.18  C 
ENDROOT
BRANCH 1 2
ATOM      2  N   VAL B 303      17.335  13.198  27.019  1.00 29.68 LIG-0.35  N 
ATOM      3  C   SER B 302      16.163  13.813  27.157  1.00 31.00 LIG 0.24  C 
ATOM      4 O    SER B 302      15.151  13.230  27.569  1.00 32.88 LIG-0.27  OA
ATOM      5 H    VAL B 303      18.043  13.581  26.716  1.00 29.68 LIG 0.16  HD
BRANCH 3 6
ATOM      6  CA  SER B 302      16.120  15.299  26.750  1.00 30.54 LIG 0.20  C 
BRANCH 6 7
ATOM      7  N   SER B 302      15.553  16.141  27.806  1.00 26.47 LIG-0.34  N 
ATOM      8  C   ALA B 301      14.327  16.657  27.724  1.00 26.40 LIG 0.25  C 
ATOM      9 O    ALA B 301      13.589  16.506  26.750  1.00 23.28 LIG-0.27  OA
ATOM     10 H    SER B 302      16.079  16.267  28.475  1.00 26.47 LIG 0.16  HD
BRANCH 8 11
ATOM     11  CA  ALA B 301      13.867  17.503  28.912  1.00 27.42 LIG 0.27  C 
ATOM     12  CB  ALA B 301      14.275  16.830  30.257  1.00 28.79 LIG 0.05  C 
BRANCH 11 13
ATOM     13  N   ALA B 301      12.380  17.677  28.868  1.00 29.28 LIG-0.07  N 
ATOM     14 H1   ALA B 301      12.018  17.332  29.604  1.00 29.28 LIG 0.28  HD
ATOM     15 H2   ALA B 301      12.184  18.543  28.819  1.00 29.28 LIG 0.28  HD
ATOM     16 H3   ALA B 301      12.053  17.259  28.153  1.00 29.28 LIG 0.28  HD
ENDBRANCH 11 13
ENDBRANCH 8 11
ENDBRANCH 6 7
BRANCH 6 17
ATOM     17  CB  SER B 302      17.535  15.758  26.384  1.00 31.87 LIG 0.20  C 
BRANCH 17 18
ATOM     18 OG   SER B 302      17.519  16.483  25.174  1.00 37.10 LIG-0.40  OA
ATOM     19 HG   SER B 302      17.637  15.957  24.530  1.00 37.10 LIG 0.21  HD
ENDBRANCH 17 18
ENDBRANCH 6 17
ENDBRANCH 3 6
ENDBRANCH 1 2
BRANCH 1 20
ATOM     20  CB  VAL B 303      18.641  11.124  26.491  1.00 29.00 LIG 0.01  C 
ATOM     21  CG1 VAL B 303      19.944  11.879  26.655  1.00 28.23 LIG 0.01  C 
ATOM     22  CG2 VAL B 303      18.854   9.663  26.904  1.00 26.76 LIG 0.01  C 
ENDBRANCH 1 20
BRANCH 1 23
ATOM     23  C   VAL B 303      17.915  11.741  28.841  1.00 28.25 LIG 0.24  C 
ATOM     24 O    VAL B 303      18.992  11.240  29.182  1.00 25.63 LIG-0.27  OA
ATOM     25  N   SER B 304      17.078  12.280  29.717  1.00 28.07 LIG-0.34  N 
ATOM     26 H    SER B 304      16.341  12.674  29.515  1.00 28.07 LIG 0.16  HD
BRANCH 25 27
ATOM     27  CA  SER B 304      17.384  12.226  31.141  1.00 30.78 LIG 0.20  C 
BRANCH 27 28
ATOM     28  C   SER B 304      17.241  10.769  31.601  1.00 31.57 LIG 0.24  C 
ATOM     29 O    SER B 304      16.134  10.220  31.595  1.00 32.88 LIG-0.27  OA
ATOM     30  N   ALA B 305      18.347  10.159  32.021  1.00 33.00 LIG-0.35  N 
ATOM     31 H    ALA B 305      19.112  10.550  32.060  1.00 33.00 LIG 0.16  HD
BRANCH 30 32
ATOM     32  CA  ALA B 305      18.381   8.756  32.461  1.00 34.21 LIG 0.16  C 
ATOM     33  CB  ALA B 305      17.949   7.826  31.274  1.00 33.59 LIG 0.04  C 
BRANCH 32 34
ATOM     34  C   ALA B 305      19.775   8.358  32.922  1.00 34.64 LIG 0.22  C 
ATOM     35 O    ALA B 305      19.868   7.496  33.830  1.00 35.93 LIG-0.29  OA
ENDBRANCH 32 34
ENDBRANCH 30 32
ENDBRANCH 27 28
BRANCH 27 36
ATOM     36  CB  SER B 304      16.434  13.133  31.923  1.00 32.96 LIG 0.20  C 
BRANCH 36 37
ATOM     37 OG   SER B 304      15.594  12.342  32.747  1.00 37.22 LIG-0.40  OA
ATOM     38 HG   SER B 304      15.432  12.754  33.461  1.00 37.22 LIG 0.21  HD
ENDBRANCH 36 37
ENDBRANCH 27 36
ENDBRANCH 25 27
ENDBRANCH 1 23
TORSDOF 15
ENDMDL
MODEL 42
USER: ADFR SOLUTION from run 60
USER: SCORE 12.817171 LL:  -3.051 LR: -10.779 RR:   0.000 FEB:  -6.304
USER: RMSD 5.951557
USER: SEED 59
USER: STATUS no improvement in best 20 clusters for 5 generations
USER: GENES 17
USER: genes 0 Translation |==|  0.57581 0.59850 0.48611
USER: genes 1 Rotation |==|  0.75880 0.67644 0.11046 0.51220
USER: genes 2 Torsion [C]-CA--N-[C] |==|  0.84825
USER: genes 3 Torsion [N]-C--CA-[N] |==|  0.53810
USER: genes 4 Torsion [C]-CA--N-[C] |==|  0.76384
USER: genes 5 Torsion [N]-C--CA-[N] |==|  0.58505
USER: genes 6 Torsion [C]-CA--N-[H1] |==|  0.83345
USER: genes 7 Torsion [C]-CA--CB-[OG] |==|  0.28079
USER: genes 8 Torsion [CA]-CB--OG-[HG] |==|  0.09408
USER: genes 9 Torsion [N]-CA--CB-[CG1] |==|  0.68626
USER: genes 10 Torsion [N]-CA--C-[N] |==|  0.83902
USER: genes 11 Torsion [C]-N--CA-[C] |==|  0.84151
USER: genes 12 Torsion [N]-CA--C-[N] |==|  0.86111
USER: genes 13 Torsion [C]-N--CA-[CB] |==|  0.82705
USER: genes 14 Torsion [N]-CA--C-[O] |==|  0.03177
USER: genes 15 Torsion [N]-CA--CB-[OG] |==|  0.97057
USER: genes 16 Torsion [CA]-CB--OG-[HG] |==|  0.40942
ROOT
ATOM      1  CA  VAL B 303      15.404   6.735  32.333  1.00 28.18 LIG 0.18  C 
ENDROOT
BRANCH 1 2
ATOM      2  N   VAL B 303      15.374   6.103  33.646  1.00 29.68 LIG-0.35  N 
ATOM      3  C   SER B 302      14.322   5.409  34.073  1.00 31.00 LIG 0.24  C 
ATOM      4 O    SER B 302      13.292   5.279  33.396  1.00 32.88 LIG-0.27  OA
ATOM      5 H    VAL B 303      16.089   6.220  34.110  1.00 29.68 LIG 0.16  HD
BRANCH 3 6
ATOM      6  CA  SER B 302      14.437   4.789  35.480  1.00 30.54 LIG 0.20  C 
BRANCH 6 7
ATOM      7  N   SER B 302      13.389   3.795  35.727  1.00 26.47 LIG-0.34  N 
ATOM      8  C   ALA B 301      12.177   4.133  36.167  1.00 26.40 LIG 0.25  C 
ATOM      9 O    ALA B 301      11.849   5.290  36.437  1.00 23.28 LIG-0.27  OA
ATOM     10 H    SER B 302      13.628   2.985  35.564  1.00 26.47 LIG 0.16  HD
BRANCH 8 11
ATOM     11  CA  ALA B 301      11.185   2.987  36.365  1.00 27.42 LIG 0.27  C 
ATOM     12  CB  ALA B 301      11.503   1.810  35.395  1.00 28.79 LIG 0.05  C 
BRANCH 11 13
ATOM     13  N   ALA B 301       9.790   3.475  36.123  1.00 29.28 LIG-0.07  N 
ATOM     14 H1   ALA B 301       9.600   4.130  36.695  1.00 29.28 LIG 0.28  HD
ATOM     15 H2   ALA B 301       9.722   3.781  35.290  1.00 29.28 LIG 0.28  HD
ATOM     16 H3   ALA B 301       9.216   2.805  36.240  1.00 29.28 LIG 0.28  HD
ENDBRANCH 11 13
ENDBRANCH 8 11
ENDBRANCH 6 7
BRANCH 6 17
ATOM     17  CB  SER B 302      15.829   4.170  35.639  1.00 31.87 LIG 0.20  C 
BRANCH 17 18
ATOM     18 OG   SER B 302      16.664   5.027  36.387  1.00 37.10 LIG-0.40  OA
ATOM     19 HG   SER B 302      16.206   5.430  36.964  1.00 37.10 LIG 0.21  HD
ENDBRANCH 17 18
ENDBRANCH 6 17
ENDBRANCH 3 6
ENDBRANCH 1 2
BRANCH 1 20
ATOM     20  CB  VAL B 303      16.812   7.383  32.041  1.00 29.00 LIG 0.01  C 
ATOM     21  CG1 VAL B 303      16.679   8.892  31.983  1.00 28.23 LIG 0.01  C 
ATOM     22  CG2 VAL B 303      17.818   7.012  33.137  1.00 26.76 LIG 0.01  C 
ENDBRANCH 1 20
BRANCH 1 23
ATOM     23  C   VAL B 303      15.103   5.663  31.298  1.00 28.25 LIG 0.24  C 
ATOM     24 O    VAL B 303      14.165   5.802  30.506  1.00 25.63 LIG-0.27  OA
ATOM     25  N   SER B 304      15.905   4.607  31.265  1.00 28.07 LIG-0.34  N 
ATOM     26 H    SER B 304      16.592   4.495  31.771  1.00 28.07 LIG 0.16  HD
BRANCH 25 27
ATOM     27  CA  SER B 304      15.647   3.529  30.319  1.00 30.78 LIG 0.20  C 
BRANCH 27 28
ATOM     28  C   SER B 304      14.225   3.010  30.570  1.00 31.57 LIG 0.24  C 
ATOM     29 O    SER B 304      13.426   2.905  29.633  1.00 32.88 LIG-0.27  OA
ATOM     30  N   ALA B 305      13.906   2.713  31.828  1.00 33.00 LIG-0.35  N 
ATOM     31 H    ALA B 305      14.449   2.819  32.486  1.00 33.00 LIG 0.16  HD
BRANCH 30 32
ATOM     32  CA  ALA B 305      12.597   2.174  32.226  1.00 34.21 LIG 0.16  C 
ATOM     33  CB  ALA B 305      11.477   3.219  31.884  1.00 33.59 LIG 0.04  C 
BRANCH 32 34
ATOM     34  C   ALA B 305      12.296   0.870  31.503  1.00 34.64 LIG 0.22  C 
ATOM     35 O    ALA B 305      13.232   0.321  30.871  1.00 35.93 LIG-0.29  OA
ENDBRANCH 32 34
ENDBRANCH 30 32
ENDBRANCH 27 28
BRANCH 27 36
ATOM     36  CB  SER B 304      16.669   2.408  30.500  1.00 32.96 LIG 0.20  C 
BRANCH 36 37
ATOM     37 OG   SER B 304      17.708   2.847  31.360  1.00 37.22 LIG-0.40  OA
ATOM     38 HG   SER B 304      17.996   2.198  31.807  1.00 37.22 LIG 0.21  HD
ENDBRANCH 36 37
ENDBRANCH 27 36
ENDBRANCH 25 27
ENDBRANCH 1 23
TORSDOF 15
ENDMDL
MODEL 43
USER: ADFR SOLUTION from run 7
USER: SCORE 13.314855 LL:  -2.932 LR: -10.758 RR:   0.000 FEB:  -6.283
USER: RMSD 5.470692
USER: SEED 572890
USER: STATUS no improvement in best 5 clusters for 5 generations
USER: GENES 17
USER: genes 0 Translation |==|  0.61491 0.58321 0.49821
USER: genes 1 Rotation |==|  0.19147 0.18345 0.58067 0.71932
USER: genes 2 Torsion [C]-CA--N-[C] |==|  0.70573
USER: genes 3 Torsion [N]-C--CA-[N] |==|  0.18998
USER: genes 4 Torsion [C]-CA--N-[C] |==|  0.77035
USER: genes 5 Torsion [N]-C--CA-[N] |==|  0.42922
USER: genes 6 Torsion [C]-CA--N-[H1] |==|  0.35952
USER: genes 7 Torsion [C]-CA--CB-[OG] |==|  0.69225
USER: genes 8 Torsion [CA]-CB--OG-[HG] |==|  0.26207
USER: genes 9 Torsion [N]-CA--CB-[CG1] |==|  0.58993
USER: genes 10 Torsion [N]-CA--C-[N] |==|  0.38896
USER: genes 11 Torsion [C]-N--CA-[C] |==|  0.77778
USER: genes 12 Torsion [N]-CA--C-[N] |==|  0.98127
USER: genes 13 Torsion [C]-N--CA-[CB] |==|  0.53898
USER: genes 14 Torsion [N]-CA--C-[O] |==|  0.76495
USER: genes 15 Torsion [N]-CA--CB-[OG] |==|  0.00435
USER: genes 16 Torsion [CA]-CB--OG-[HG] |==|  0.09123
ROOT
ATOM      1  CA  VAL B 303      16.577   6.276  32.696  1.00 28.18 LIG 0.18  C 
ENDROOT
BRANCH 1 2
ATOM      2  N   VAL B 303      15.740   5.284  32.034  1.00 29.68 LIG-0.35  N 
ATOM      3  C   SER B 302      14.424   5.232  32.219  1.00 31.00 LIG 0.24  C 
ATOM      4 O    SER B 302      13.830   6.003  32.986  1.00 32.88 LIG-0.27  OA
ATOM      5 H    VAL B 303      16.172   4.744  31.522  1.00 29.68 LIG 0.16  HD
BRANCH 3 6
ATOM      6  CA  SER B 302      13.667   4.135  31.445  1.00 30.54 LIG 0.20  C 
BRANCH 6 7
ATOM      7  N   SER B 302      13.996   2.794  31.934  1.00 26.47 LIG-0.34  N 
ATOM      8  C   ALA B 301      15.086   2.138  31.535  1.00 26.40 LIG 0.25  C 
ATOM      9 O    ALA B 301      15.879   2.580  30.703  1.00 23.28 LIG-0.27  OA
ATOM     10 H    SER B 302      13.428   2.475  32.495  1.00 26.47 LIG 0.16  HD
BRANCH 8 11
ATOM     11  CA  ALA B 301      15.304   0.753  32.144  1.00 27.42 LIG 0.27  C 
ATOM     12  CB  ALA B 301      16.017   0.865  33.525  1.00 28.79 LIG 0.05  C 
BRANCH 11 13
ATOM     13  N   ALA B 301      16.130  -0.086  31.218  1.00 29.28 LIG-0.07  N 
ATOM     14 H1   ALA B 301      16.808  -0.446  31.669  1.00 29.28 LIG 0.28  HD
ATOM     15 H2   ALA B 301      15.626  -0.734  30.875  1.00 29.28 LIG 0.28  HD
ATOM     16 H3   ALA B 301      16.448   0.422  30.561  1.00 29.28 LIG 0.28  HD
ENDBRANCH 11 13
ENDBRANCH 8 11
ENDBRANCH 6 7
BRANCH 6 17
ATOM     17  CB  SER B 302      12.162   4.401  31.545  1.00 31.87 LIG 0.20  C 
BRANCH 17 18
ATOM     18 OG   SER B 302      11.541   3.418  32.344  1.00 37.10 LIG-0.40  OA
ATOM     19 HG   SER B 302      11.487   3.693  33.136  1.00 37.10 LIG 0.21  HD
ENDBRANCH 17 18
ENDBRANCH 6 17
ENDBRANCH 3 6
ENDBRANCH 1 2
BRANCH 1 20
ATOM     20  CB  VAL B 303      17.866   5.615  33.321  1.00 29.00 LIG 0.01  C 
ATOM     21  CG1 VAL B 303      18.266   6.360  34.579  1.00 28.23 LIG 0.01  C 
ATOM     22  CG2 VAL B 303      17.605   4.145  33.673  1.00 26.76 LIG 0.01  C 
ENDBRANCH 1 20
BRANCH 1 23
ATOM     23  C   VAL B 303      16.979   7.309  31.656  1.00 28.25 LIG 0.24  C 
ATOM     24 O    VAL B 303      17.246   6.964  30.499  1.00 25.63 LIG-0.27  OA
ATOM     25  N   SER B 304      16.993   8.580  32.034  1.00 28.07 LIG-0.34  N 
ATOM     26 H    SER B 304      16.773   8.863  32.815  1.00 28.07 LIG 0.16  HD
BRANCH 25 27
ATOM     27  CA  SER B 304      17.404   9.613  31.091  1.00 30.78 LIG 0.20  C 
BRANCH 27 28
ATOM     28  C   SER B 304      18.937   9.627  31.044  1.00 31.57 LIG 0.24  C 
ATOM     29 O    SER B 304      19.528  10.318  30.207  1.00 32.88 LIG-0.27  OA
ATOM     30  N   ALA B 305      19.574   8.851  31.919  1.00 33.00 LIG-0.35  N 
ATOM     31 H    ALA B 305      19.164   8.342  32.478  1.00 33.00 LIG 0.16  HD
BRANCH 30 32
ATOM     32  CA  ALA B 305      21.039   8.779  32.022  1.00 34.21 LIG 0.16  C 
ATOM     33  CB  ALA B 305      21.440   7.530  32.882  1.00 33.59 LIG 0.04  C 
BRANCH 32 34
ATOM     34  C   ALA B 305      21.682   8.663  30.648  1.00 34.64 LIG 0.22  C 
ATOM     35 O    ALA B 305      21.776   7.518  30.140  1.00 35.93 LIG-0.29  OA
ENDBRANCH 32 34
ENDBRANCH 30 32
ENDBRANCH 27 28
BRANCH 27 36
ATOM     36  CB  SER B 304      16.866  10.975  31.529  1.00 32.96 LIG 0.20  C 
BRANCH 36 37
ATOM     37 OG   SER B 304      16.153  10.835  32.748  1.00 37.22 LIG-0.40  OA
ATOM     38 HG   SER B 304      16.504  10.227  33.209  1.00 37.22 LIG 0.21  HD
ENDBRANCH 36 37
ENDBRANCH 27 36
ENDBRANCH 25 27
ENDBRANCH 1 23
TORSDOF 15
ENDMDL
MODEL 44
USER: ADFR SOLUTION from run 1
USER: SCORE 13.069056 LL:  -2.809 LR: -10.747 RR:   0.000 FEB:  -6.272
USER: RMSD 5.344428
USER: SEED 772774
USER: STATUS no improvement in best 18 clusters for 5 generations
USER: GENES 17
USER: genes 0 Translation |==|  0.47321 0.50269 0.43887
USER: genes 1 Rotation |==|  0.76451 0.70378 0.28508 0.80384
USER: genes 2 Torsion [C]-CA--N-[C] |==|  0.83069
USER: genes 3 Torsion [N]-C--CA-[N] |==|  0.98945
USER: genes 4 Torsion [C]-CA--N-[C] |==|  0.69978
USER: genes 5 Torsion [N]-C--CA-[N] |==|  0.22144
USER: genes 6 Torsion [C]-CA--N-[H1] |==|  0.20291
USER: genes 7 Torsion [C]-CA--CB-[OG] |==|  0.70188
USER: genes 8 Torsion [CA]-CB--OG-[HG] |==|  0.48285
USER: genes 9 Torsion [N]-CA--CB-[CG1] |==|  0.27651
USER: genes 10 Torsion [N]-CA--C-[N] |==|  0.91638
USER: genes 11 Torsion [C]-N--CA-[C] |==|  0.51915
USER: genes 12 Torsion [N]-CA--C-[N] |==|  0.47159
USER: genes 13 Torsion [C]-N--CA-[CB] |==|  0.39930
USER: genes 14 Torsion [N]-CA--C-[O] |==|  0.96371
USER: genes 15 Torsion [N]-CA--CB-[OG] |==|  0.51469
USER: genes 16 Torsion [CA]-CB--OG-[HG] |==|  0.86338
ROOT
ATOM      1  CA  VAL B 303      12.326   3.861  30.916  1.00 28.18 LIG 0.18  C 
ENDROOT
BRANCH 1 2
ATOM      2  N   VAL B 303      11.757   3.295  32.132  1.00 29.68 LIG-0.35  N 
ATOM      3  C   SER B 302      11.548   1.989  32.275  1.00 31.00 LIG 0.24  C 
ATOM      4 O    SER B 302      11.796   1.174  31.375  1.00 32.88 LIG-0.27  OA
ATOM      5 H    VAL B 303      11.572   3.877  32.739  1.00 29.68 LIG 0.16  HD
BRANCH 3 6
ATOM      6  CA  SER B 302      10.948   1.536  33.621  1.00 30.54 LIG 0.20  C 
BRANCH 6 7
ATOM      7  N   SER B 302      10.796   2.653  34.556  1.00 26.47 LIG-0.34  N 
ATOM      8  C   ALA B 301      11.575   2.796  35.628  1.00 26.40 LIG 0.25  C 
ATOM      9 O    ALA B 301      12.454   1.992  35.941  1.00 23.28 LIG-0.27  OA
ATOM     10 H    SER B 302      10.164   3.199  34.351  1.00 26.47 LIG 0.16  HD
BRANCH 8 11
ATOM     11  CA  ALA B 301      11.306   4.020  36.503  1.00 27.42 LIG 0.27  C 
ATOM     12  CB  ALA B 301      12.554   4.361  37.372  1.00 28.79 LIG 0.05  C 
BRANCH 11 13
ATOM     13  N   ALA B 301      10.130   3.760  37.394  1.00 29.28 LIG-0.07  N 
ATOM     14 H1   ALA B 301      10.364   3.191  38.037  1.00 29.28 LIG 0.28  HD
ATOM     15 H2   ALA B 301       9.860   4.525  37.759  1.00 29.28 LIG 0.28  HD
ATOM     16 H3   ALA B 301       9.467   3.410  36.915  1.00 29.28 LIG 0.28  HD
ENDBRANCH 11 13
ENDBRANCH 8 11
ENDBRANCH 6 7
BRANCH 6 17
ATOM     17  CB  SER B 302       9.603   0.849  33.362  1.00 31.87 LIG 0.20  C 
BRANCH 17 18
ATOM     18 OG   SER B 302       8.541   1.679  33.778  1.00 37.10 LIG-0.40  OA
ATOM     19 HG   SER B 302       7.810   1.330  33.554  1.00 37.10 LIG 0.21  HD
ENDBRANCH 17 18
ENDBRANCH 6 17
ENDBRANCH 3 6
ENDBRANCH 1 2
BRANCH 1 20
ATOM     20  CB  VAL B 303      12.428   5.432  31.007  1.00 29.00 LIG 0.01  C 
ATOM     21  CG1 VAL B 303      13.844   5.834  31.369  1.00 28.23 LIG 0.01  C 
ATOM     22  CG2 VAL B 303      12.052   6.079  29.668  1.00 26.76 LIG 0.01  C 
ENDBRANCH 1 20
BRANCH 1 23
ATOM     23  C   VAL B 303      13.711   3.262  30.734  1.00 28.25 LIG 0.24  C 
ATOM     24 O    VAL B 303      14.196   3.135  29.604  1.00 25.63 LIG-0.27  OA
ATOM     25  N   SER B 304      14.377   2.922  31.829  1.00 28.07 LIG-0.34  N 
ATOM     26 H    SER B 304      14.091   3.034  32.633  1.00 28.07 LIG 0.16  HD
BRANCH 25 27
ATOM     27  CA  SER B 304      15.695   2.310  31.718  1.00 30.78 LIG 0.20  C 
BRANCH 27 28
ATOM     28  C   SER B 304      16.134   1.874  33.122  1.00 31.57 LIG 0.24  C 
ATOM     29 O    SER B 304      15.507   2.251  34.116  1.00 32.88 LIG-0.27  OA
ATOM     30  N   ALA B 305      17.219   1.106  33.201  1.00 33.00 LIG-0.35  N 
ATOM     31 H    ALA B 305      17.679   0.872  32.513  1.00 33.00 LIG 0.16  HD
BRANCH 30 32
ATOM     32  CA  ALA B 305      17.748   0.579  34.468  1.00 34.21 LIG 0.16  C 
ATOM     33  CB  ALA B 305      18.319  -0.864  34.235  1.00 33.59 LIG 0.04  C 
BRANCH 32 34
ATOM     34  C   ALA B 305      18.854   1.469  35.015  1.00 34.64 LIG 0.22  C 
ATOM     35 O    ALA B 305      19.339   2.338  34.249  1.00 35.93 LIG-0.29  OA
ENDBRANCH 32 34
ENDBRANCH 30 32
ENDBRANCH 27 28
BRANCH 27 36
ATOM     36  CB  SER B 304      16.693   3.305  31.126  1.00 32.96 LIG 0.20  C 
BRANCH 36 37
ATOM     37 OG   SER B 304      17.937   2.657  30.911  1.00 37.22 LIG-0.40  OA
ATOM     38 HG   SER B 304      18.160   2.241  31.605  1.00 37.22 LIG 0.21  HD
ENDBRANCH 36 37
ENDBRANCH 27 36
ENDBRANCH 25 27
ENDBRANCH 1 23
TORSDOF 15
ENDMDL
MODEL 45
USER: ADFR SOLUTION from run 91
USER: SCORE 12.850511 LL:  -2.771 LR: -10.739 RR:   0.000 FEB:  -6.265
USER: RMSD 8.414366
USER: SEED 90
USER: STATUS no improvement in best 17 clusters for 5 generations
USER: GENES 17
USER: genes 0 Translation |==|  0.53215 0.58380 0.47938
USER: genes 1 Rotation |==|  0.43001 0.45231 0.01233 0.57071
USER: genes 2 Torsion [C]-CA--N-[C] |==|  0.20039
USER: genes 3 Torsion [N]-C--CA-[N] |==|  0.93366
USER: genes 4 Torsion [C]-CA--N-[C] |==|  0.74225
USER: genes 5 Torsion [N]-C--CA-[N] |==|  0.29339
USER: genes 6 Torsion [C]-CA--N-[H1] |==|  0.97026
USER: genes 7 Torsion [C]-CA--CB-[OG] |==|  0.68409
USER: genes 8 Torsion [CA]-CB--OG-[HG] |==|  0.14007
USER: genes 9 Torsion [N]-CA--CB-[CG1] |==|  0.28096
USER: genes 10 Torsion [N]-CA--C-[N] |==|  0.01973
USER: genes 11 Torsion [C]-N--CA-[C] |==|  0.18416
USER: genes 12 Torsion [N]-CA--C-[N] |==|  0.05627
USER: genes 13 Torsion [C]-N--CA-[CB] |==|  0.17500
USER: genes 14 Torsion [N]-CA--C-[O] |==|  0.11906
USER: genes 15 Torsion [N]-CA--CB-[OG] |==|  0.88587
USER: genes 16 Torsion [CA]-CB--OG-[HG] |==|  0.84519
ROOT
ATOM      1  CA  VAL B 303      14.095   6.294  32.132  1.00 28.18 LIG 0.18  C 
ENDROOT
BRANCH 1 2
ATOM      2  N   VAL B 303      15.364   6.976  32.348  1.00 29.68 LIG-0.35  N 
ATOM      3  C   SER B 302      16.524   6.449  31.966  1.00 31.00 LIG 0.24  C 
ATOM      4 O    SER B 302      16.604   5.335  31.430  1.00 32.88 LIG-0.27  OA
ATOM      5 H    VAL B 303      15.292   7.739  32.739  1.00 29.68 LIG 0.16  HD
BRANCH 3 6
ATOM      6  CA  SER B 302      17.784   7.290  32.252  1.00 30.54 LIG 0.20  C 
BRANCH 6 7
ATOM      7  N   SER B 302      17.474   8.717  32.374  1.00 26.47 LIG-0.34  N 
ATOM      8  C   ALA B 301      17.540   9.551  31.336  1.00 26.40 LIG 0.25  C 
ATOM      9 O    ALA B 301      17.900   9.207  30.209  1.00 23.28 LIG-0.27  OA
ATOM     10 H    SER B 302      17.248   8.961  33.167  1.00 26.47 LIG 0.16  HD
BRANCH 8 11
ATOM     11  CA  ALA B 301      17.173  11.009  31.614  1.00 27.42 LIG 0.27  C 
ATOM     12  CB  ALA B 301      16.199  11.549  30.523  1.00 28.79 LIG 0.05  C 
BRANCH 11 13
ATOM     13  N   ALA B 301      18.412  11.849  31.642  1.00 29.28 LIG-0.07  N 
ATOM     14 H1   ALA B 301      19.129  11.322  31.647  1.00 29.28 LIG 0.28  HD
ATOM     15 H2   ALA B 301      18.433  12.371  30.922  1.00 29.28 LIG 0.28  HD
ATOM     16 H3   ALA B 301      18.412  12.355  32.375  1.00 29.28 LIG 0.28  HD
ENDBRANCH 11 13
ENDBRANCH 8 11
ENDBRANCH 6 7
BRANCH 6 17
ATOM     17  CB  SER B 302      18.457   6.765  33.524  1.00 31.87 LIG 0.20  C 
BRANCH 17 18
ATOM     18 OG   SER B 302      18.390   7.731  34.550  1.00 37.10 LIG-0.40  OA
ATOM     19 HG   SER B 302      17.599   8.002  34.628  1.00 37.10 LIG 0.21  HD
ENDBRANCH 17 18
ENDBRANCH 6 17
ENDBRANCH 3 6
ENDBRANCH 1 2
BRANCH 1 20
ATOM     20  CB  VAL B 303      13.968   5.773  30.648  1.00 29.00 LIG 0.01  C 
ATOM     21  CG1 VAL B 303      14.266   4.288  30.599  1.00 28.23 LIG 0.01  C 
ATOM     22  CG2 VAL B 303      12.555   6.018  30.106  1.00 26.76 LIG 0.01  C 
ENDBRANCH 1 20
BRANCH 1 23
ATOM     23  C   VAL B 303      14.030   5.123  33.098  1.00 28.25 LIG 0.24  C 
ATOM     24 O    VAL B 303      13.127   4.284  33.009  1.00 25.63 LIG-0.27  OA
ATOM     25  N   SER B 304      14.995   5.027  34.004  1.00 28.07 LIG-0.34  N 
ATOM     26 H    SER B 304      15.662   5.566  34.071  1.00 28.07 LIG 0.16  HD
BRANCH 25 27
ATOM     27  CA  SER B 304      14.968   3.947  34.981  1.00 30.78 LIG 0.20  C 
BRANCH 27 28
ATOM     28  C   SER B 304      15.167   2.624  34.229  1.00 31.57 LIG 0.24  C 
ATOM     29 O    SER B 304      14.842   1.554  34.755  1.00 32.88 LIG-0.27  OA
ATOM     30  N   ALA B 305      15.721   2.696  33.020  1.00 33.00 LIG-0.35  N 
ATOM     31 H    ALA B 305      15.980   3.436  32.667  1.00 33.00 LIG 0.16  HD
BRANCH 30 32
ATOM     32  CA  ALA B 305      15.947   1.523  32.162  1.00 34.21 LIG 0.16  C 
ATOM     33  CB  ALA B 305      14.567   0.873  31.794  1.00 33.59 LIG 0.04  C 
BRANCH 32 34
ATOM     34  C   ALA B 305      16.671   1.911  30.882  1.00 34.64 LIG 0.22  C 
ATOM     35 O    ALA B 305      17.630   2.716  30.972  1.00 35.93 LIG-0.29  OA
ENDBRANCH 32 34
ENDBRANCH 30 32
ENDBRANCH 27 28
BRANCH 27 36
ATOM     36  CB  SER B 304      13.637   3.944  35.733  1.00 32.96 LIG 0.20  C 
BRANCH 36 37
ATOM     37 OG   SER B 304      13.260   5.277  36.034  1.00 37.22 LIG-0.40  OA
ATOM     38 HG   SER B 304      13.876   5.653  36.463  1.00 37.22 LIG 0.21  HD
ENDBRANCH 36 37
ENDBRANCH 27 36
ENDBRANCH 25 27
ENDBRANCH 1 23
TORSDOF 15
ENDMDL
MODEL 46
USER: ADFR SOLUTION from run 22
USER: SCORE 12.825103 LL:  -2.277 LR: -10.743 RR:   0.000 FEB:  -6.268
USER: RMSD 5.319772
USER: SEED 21
USER: STATUS no improvement in best 10 clusters for 5 generations
USER: GENES 17
USER: genes 0 Translation |==|  0.63646 0.57537 0.54702
USER: genes 1 Rotation |==|  0.16580 0.25444 0.68195 0.71192
USER: genes 2 Torsion [C]-CA--N-[C] |==|  0.80358
USER: genes 3 Torsion [N]-C--CA-[N] |==|  0.40110
USER: genes 4 Torsion [C]-CA--N-[C] |==|  0.76985
USER: genes 5 Torsion [N]-C--CA-[N] |==|  0.15079
USER: genes 6 Torsion [C]-CA--N-[H1] |==|  0.20137
USER: genes 7 Torsion [C]-CA--CB-[OG] |==|  0.76546
USER: genes 8 Torsion [CA]-CB--OG-[HG] |==|  0.88251
USER: genes 9 Torsion [N]-CA--CB-[CG1] |==|  0.44465
USER: genes 10 Torsion [N]-CA--C-[N] |==|  0.37058
USER: genes 11 Torsion [C]-N--CA-[C] |==|  0.74446
USER: genes 12 Torsion [N]-CA--C-[N] |==|  0.40167
USER: genes 13 Torsion [C]-N--CA-[CB] |==|  0.78106
USER: genes 14 Torsion [N]-CA--C-[O] |==|  0.31720
USER: genes 15 Torsion [N]-CA--CB-[OG] |==|  0.07731
USER: genes 16 Torsion [CA]-CB--OG-[HG] |==|  0.89493
ROOT
ATOM      1  CA  VAL B 303      17.224   6.041  34.161  1.00 28.18 LIG 0.18  C 
ENDROOT
BRANCH 1 2
ATOM      2  N   VAL B 303      16.218   4.988  34.208  1.00 29.68 LIG-0.35  N 
ATOM      3  C   SER B 302      14.915   5.250  34.143  1.00 31.00 LIG 0.24  C 
ATOM      4 O    SER B 302      14.473   6.405  34.068  1.00 32.88 LIG-0.27  OA
ATOM      5 H    VAL B 303      16.542   4.194  34.281  1.00 29.68 LIG 0.16  HD
BRANCH 3 6
ATOM      6  CA  SER B 302      13.969   4.034  34.195  1.00 30.54 LIG 0.20  C 
BRANCH 6 7
ATOM      7  N   SER B 302      12.734   4.332  34.924  1.00 26.47 LIG-0.34  N 
ATOM      8  C   ALA B 301      12.660   4.273  36.254  1.00 26.40 LIG 0.25  C 
ATOM      9 O    ALA B 301      13.600   3.932  36.973  1.00 23.28 LIG-0.27  OA
ATOM     10 H    SER B 302      12.071   4.544  34.420  1.00 26.47 LIG 0.16  HD
BRANCH 8 11
ATOM     11  CA  ALA B 301      11.308   4.626  36.873  1.00 27.42 LIG 0.27  C 
ATOM     12  CB  ALA B 301      11.335   4.405  38.416  1.00 28.79 LIG 0.05  C 
BRANCH 11 13
ATOM     13  N   ALA B 301      10.233   3.780  36.264  1.00 29.28 LIG-0.07  N 
ATOM     14 H1   ALA B 301      10.306   2.945  36.563  1.00 29.28 LIG 0.28  HD
ATOM     15 H2   ALA B 301       9.436   4.105  36.488  1.00 29.28 LIG 0.28  HD
ATOM     16 H3   ALA B 301      10.317   3.785  35.378  1.00 29.28 LIG 0.28  HD
ENDBRANCH 11 13
ENDBRANCH 8 11
ENDBRANCH 6 7
BRANCH 6 17
ATOM     17  CB  SER B 302      13.666   3.577  32.765  1.00 31.87 LIG 0.20  C 
BRANCH 17 18
ATOM     18 OG   SER B 302      12.604   4.331  32.224  1.00 37.10 LIG-0.40  OA
ATOM     19 HG   SER B 302      12.004   4.427  32.804  1.00 37.10 LIG 0.21  HD
ENDBRANCH 17 18
ENDBRANCH 6 17
ENDBRANCH 3 6
ENDBRANCH 1 2
BRANCH 1 20
ATOM     20  CB  VAL B 303      18.652   5.488  34.539  1.00 29.00 LIG 0.01  C 
ATOM     21  CG1 VAL B 303      19.720   6.431  34.022  1.00 28.23 LIG 0.01  C 
ATOM     22  CG2 VAL B 303      18.797   5.355  36.060  1.00 26.76 LIG 0.01  C 
ENDBRANCH 1 20
BRANCH 1 23
ATOM     23  C   VAL B 303      17.243   6.598  32.747  1.00 28.25 LIG 0.24  C 
ATOM     24 O    VAL B 303      17.227   5.837  31.772  1.00 25.63 LIG-0.27  OA
ATOM     25  N   SER B 304      17.240   7.917  32.611  1.00 28.07 LIG-0.34  N 
ATOM     26 H    SER B 304      17.209   8.478  33.263  1.00 28.07 LIG 0.16  HD
BRANCH 25 27
ATOM     27  CA  SER B 304      17.294   8.511  31.282  1.00 30.78 LIG 0.20  C 
BRANCH 27 28
ATOM     28  C   SER B 304      18.767   8.759  30.933  1.00 31.57 LIG 0.24  C 
ATOM     29 O    SER B 304      19.562   9.120  31.808  1.00 32.88 LIG-0.27  OA
ATOM     30  N   ALA B 305      19.121   8.593  29.661  1.00 33.00 LIG-0.35  N 
ATOM     31 H    ALA B 305      18.563   8.377  29.043  1.00 33.00 LIG 0.16  HD
BRANCH 30 32
ATOM     32  CA  ALA B 305      20.499   8.760  29.175  1.00 34.21 LIG 0.16  C 
ATOM     33  CB  ALA B 305      20.813  10.289  29.012  1.00 33.59 LIG 0.04  C 
BRANCH 32 34
ATOM     34  C   ALA B 305      21.501   8.148  30.141  1.00 34.64 LIG 0.22  C 
ATOM     35 O    ALA B 305      22.163   7.155  29.749  1.00 35.93 LIG-0.29  OA
ENDBRANCH 32 34
ENDBRANCH 30 32
ENDBRANCH 27 28
BRANCH 27 36
ATOM     36  CB  SER B 304      16.505   9.820  31.253  1.00 32.96 LIG 0.20  C 
BRANCH 36 37
ATOM     37 OG   SER B 304      16.504  10.401  32.547  1.00 37.22 LIG-0.40  OA
ATOM     38 HG   SER B 304      16.439   9.797  33.126  1.00 37.22 LIG 0.21  HD
ENDBRANCH 36 37
ENDBRANCH 27 36
ENDBRANCH 25 27
ENDBRANCH 1 23
TORSDOF 15
ENDMDL
MODEL 47
USER: ADFR SOLUTION from run 11
USER: SCORE 12.994288 LL:  -2.504 LR: -10.740 RR:   0.000 FEB:  -6.266
USER: RMSD 7.559249
USER: SEED 50034
USER: STATUS no improvement in best 11 clusters for 5 generations
USER: GENES 17
USER: genes 0 Translation |==|  0.65619 0.67022 0.46847
USER: genes 1 Rotation |==|  0.37326 0.26392 0.70652 0.86818
USER: genes 2 Torsion [C]-CA--N-[C] |==|  0.63746
USER: genes 3 Torsion [N]-C--CA-[N] |==|  0.45241
USER: genes 4 Torsion [C]-CA--N-[C] |==|  0.72337
USER: genes 5 Torsion [N]-C--CA-[N] |==|  0.42231
USER: genes 6 Torsion [C]-CA--N-[H1] |==|  0.33983
USER: genes 7 Torsion [C]-CA--CB-[OG] |==|  0.80104
USER: genes 8 Torsion [CA]-CB--OG-[HG] |==|  0.17731
USER: genes 9 Torsion [N]-CA--CB-[CG1] |==|  0.78660
USER: genes 10 Torsion [N]-CA--C-[N] |==|  0.42532
USER: genes 11 Torsion [C]-N--CA-[C] |==|  0.81944
USER: genes 12 Torsion [N]-CA--C-[N] |==|  0.35563
USER: genes 13 Torsion [C]-N--CA-[CB] |==|  0.15834
USER: genes 14 Torsion [N]-CA--C-[O] |==|  0.89326
USER: genes 15 Torsion [N]-CA--CB-[OG] |==|  0.68151
USER: genes 16 Torsion [CA]-CB--OG-[HG] |==|  0.23103
ROOT
ATOM      1  CA  VAL B 303      17.816   8.887  31.804  1.00 28.18 LIG 0.18  C 
ENDROOT
BRANCH 1 2
ATOM      2  N   VAL B 303      17.022   7.675  31.644  1.00 29.68 LIG-0.35  N 
ATOM      3  C   SER B 302      16.960   6.740  32.588  1.00 31.00 LIG 0.24  C 
ATOM      4 O    SER B 302      17.593   6.824  33.649  1.00 32.88 LIG-0.27  OA
ATOM      5 H    VAL B 303      16.605   7.624  30.892  1.00 29.68 LIG 0.16  HD
BRANCH 3 6
ATOM      6  CA  SER B 302      16.072   5.517  32.281  1.00 30.54 LIG 0.20  C 
BRANCH 6 7
ATOM      7  N   SER B 302      16.373   4.387  33.164  1.00 26.47 LIG-0.34  N 
ATOM      8  C   ALA B 301      17.143   3.369  32.780  1.00 26.40 LIG 0.25  C 
ATOM      9 O    ALA B 301      17.630   3.273  31.652  1.00 23.28 LIG-0.27  OA
ATOM     10 H    SER B 302      16.010   4.443  33.942  1.00 26.47 LIG 0.16  HD
BRANCH 8 11
ATOM     11  CA  ALA B 301      17.379   2.270  33.816  1.00 27.42 LIG 0.27  C 
ATOM     12  CB  ALA B 301      18.594   2.623  34.725  1.00 28.79 LIG 0.05  C 
BRANCH 11 13
ATOM     13  N   ALA B 301      17.630   0.965  33.125  1.00 29.28 LIG-0.07  N 
ATOM     14 H1   ALA B 301      18.422   0.644  33.376  1.00 29.28 LIG 0.28  HD
ATOM     15 H2   ALA B 301      16.992   0.385  33.345  1.00 29.28 LIG 0.28  HD
ATOM     16 H3   ALA B 301      17.627   1.089  32.244  1.00 29.28 LIG 0.28  HD
ENDBRANCH 11 13
ENDBRANCH 8 11
ENDBRANCH 6 7
BRANCH 6 17
ATOM     17  CB  SER B 302      14.601   5.928  32.398  1.00 31.87 LIG 0.20  C 
BRANCH 17 18
ATOM     18 OG   SER B 302      14.255   6.136  33.750  1.00 37.10 LIG-0.40  OA
ATOM     19 HG   SER B 302      14.698   6.780  34.056  1.00 37.10 LIG 0.21  HD
ENDBRANCH 17 18
ENDBRANCH 6 17
ENDBRANCH 3 6
ENDBRANCH 1 2
BRANCH 1 20
ATOM     20  CB  VAL B 303      19.086   8.868  30.870  1.00 29.00 LIG 0.01  C 
ATOM     21  CG1 VAL B 303      20.144   7.957  31.460  1.00 28.23 LIG 0.01  C 
ATOM     22  CG2 VAL B 303      18.721   8.367  29.467  1.00 26.76 LIG 0.01  C 
ENDBRANCH 1 20
BRANCH 1 23
ATOM     23  C   VAL B 303      16.929  10.069  31.449  1.00 28.25 LIG 0.24  C 
ATOM     24 O    VAL B 303      15.966   9.925  30.688  1.00 25.63 LIG-0.27  OA
ATOM     25  N   SER B 304      17.214  11.235  32.015  1.00 28.07 LIG-0.34  N 
ATOM     26 H    SER B 304      17.848  11.365  32.581  1.00 28.07 LIG 0.16  HD
BRANCH 25 27
ATOM     27  CA  SER B 304      16.422  12.413  31.686  1.00 30.78 LIG 0.20  C 
BRANCH 27 28
ATOM     28  C   SER B 304      16.649  12.737  30.204  1.00 31.57 LIG 0.24  C 
ATOM     29 O    SER B 304      17.795  12.871  29.764  1.00 32.88 LIG-0.27  OA
ATOM     30  N   ALA B 305      15.563  12.888  29.448  1.00 33.00 LIG-0.35  N 
ATOM     31 H    ALA B 305      14.764  12.831  29.760  1.00 33.00 LIG 0.16  HD
BRANCH 30 32
ATOM     32  CA  ALA B 305      15.613  13.167  28.005  1.00 34.21 LIG 0.16  C 
ATOM     33  CB  ALA B 305      16.432  12.039  27.284  1.00 33.59 LIG 0.04  C 
BRANCH 32 34
ATOM     34  C   ALA B 305      14.215  13.225  27.407  1.00 34.64 LIG 0.22  C 
ATOM     35 O    ALA B 305      13.363  12.405  27.830  1.00 35.93 LIG-0.29  OA
ENDBRANCH 32 34
ENDBRANCH 30 32
ENDBRANCH 27 28
BRANCH 27 36
ATOM     36  CB  SER B 304      16.838  13.593  32.565  1.00 32.96 LIG 0.20  C 
BRANCH 36 37
ATOM     37 OG   SER B 304      15.760  13.956  33.413  1.00 37.22 LIG-0.40  OA
ATOM     38 HG   SER B 304      15.756  13.459  34.090  1.00 37.22 LIG 0.21  HD
ENDBRANCH 36 37
ENDBRANCH 27 36
ENDBRANCH 25 27
ENDBRANCH 1 23
TORSDOF 15
ENDMDL
MODEL 48
USER: ADFR SOLUTION from run 104
USER: SCORE 11.936021 LL:  -2.576 LR: -10.733 RR:   0.000 FEB:  -6.259
USER: RMSD 10.701780
USER: SEED 103
USER: STATUS no improvement in best 3 clusters for 5 generations
USER: GENES 17
USER: genes 0 Translation |==|  0.60950 0.74479 0.40798
USER: genes 1 Rotation |==|  0.63755 0.38045 0.16414 0.82247
USER: genes 2 Torsion [C]-CA--N-[C] |==|  0.17968
USER: genes 3 Torsion [N]-C--CA-[N] |==|  0.94140
USER: genes 4 Torsion [C]-CA--N-[C] |==|  0.81393
USER: genes 5 Torsion [N]-C--CA-[N] |==|  0.25727
USER: genes 6 Torsion [C]-CA--N-[H1] |==|  0.14987
USER: genes 7 Torsion [C]-CA--CB-[OG] |==|  0.76086
USER: genes 8 Torsion [CA]-CB--OG-[HG] |==|  0.31474
USER: genes 9 Torsion [N]-CA--CB-[CG1] |==|  0.54486
USER: genes 10 Torsion [N]-CA--C-[N] |==|  0.53143
USER: genes 11 Torsion [C]-N--CA-[C] |==|  0.62632
USER: genes 12 Torsion [N]-CA--C-[N] |==|  0.17583
USER: genes 13 Torsion [C]-N--CA-[CB] |==|  0.85144
USER: genes 14 Torsion [N]-CA--C-[O] |==|  0.78048
USER: genes 15 Torsion [N]-CA--CB-[OG] |==|  0.88761
USER: genes 16 Torsion [CA]-CB--OG-[HG] |==|  0.81728
ROOT
ATOM      1  CA  VAL B 303      16.415  11.124  29.989  1.00 28.18 LIG 0.18  C 
ENDROOT
BRANCH 1 2
ATOM      2  N   VAL B 303      15.815  12.385  30.406  1.00 29.68 LIG-0.35  N 
ATOM      3  C   SER B 302      16.523  13.343  30.998  1.00 31.00 LIG 0.24  C 
ATOM      4 O    SER B 302      17.727  13.216  31.259  1.00 32.88 LIG-0.27  OA
ATOM      5 H    VAL B 303      14.974  12.448  30.235  1.00 29.68 LIG 0.16  HD
BRANCH 3 6
ATOM      6  CA  SER B 302      15.756  14.627  31.373  1.00 30.54 LIG 0.20  C 
BRANCH 6 7
ATOM      7  N   SER B 302      14.525  14.777  30.593  1.00 26.47 LIG-0.34  N 
ATOM      8  C   ALA B 301      14.538  14.998  29.279  1.00 26.40 LIG 0.25  C 
ATOM      9 O    ALA B 301      15.572  15.132  28.622  1.00 23.28 LIG-0.27  OA
ATOM     10 H    SER B 302      13.804  14.710  31.057  1.00 26.47 LIG 0.16  HD
BRANCH 8 11
ATOM     11  CA  ALA B 301      13.174  15.119  28.598  1.00 27.42 LIG 0.27  C 
ATOM     12  CB  ALA B 301      13.228  14.539  27.153  1.00 28.79 LIG 0.05  C 
BRANCH 11 13
ATOM     13  N   ALA B 301      12.755  16.555  28.549  1.00 29.28 LIG-0.07  N 
ATOM     14 H1   ALA B 301      13.396  17.039  28.165  1.00 29.28 LIG 0.28  HD
ATOM     15 H2   ALA B 301      12.005  16.630  28.076  1.00 29.28 LIG 0.28  HD
ATOM     16 H3   ALA B 301      12.615  16.853  29.375  1.00 29.28 LIG 0.28  HD
ENDBRANCH 11 13
ENDBRANCH 8 11
ENDBRANCH 6 7
BRANCH 6 17
ATOM     17  CB  SER B 302      15.454  14.606  32.875  1.00 31.87 LIG 0.20  C 
BRANCH 17 18
ATOM     18 OG   SER B 302      14.255  13.905  33.125  1.00 37.10 LIG-0.40  OA
ATOM     19 HG   SER B 302      14.426  13.200  33.548  1.00 37.10 LIG 0.21  HD
ENDBRANCH 17 18
ENDBRANCH 6 17
ENDBRANCH 3 6
ENDBRANCH 1 2
BRANCH 1 20
ATOM     20  CB  VAL B 303      17.640  11.362  29.024  1.00 29.00 LIG 0.01  C 
ATOM     21  CG1 VAL B 303      17.983  10.073  28.305  1.00 28.23 LIG 0.01  C 
ATOM     22  CG2 VAL B 303      17.311  12.441  27.986  1.00 26.76 LIG 0.01  C 
ENDBRANCH 1 20
BRANCH 1 23
ATOM     23  C   VAL B 303      16.877  10.397  31.242  1.00 28.25 LIG 0.24  C 
ATOM     24 O    VAL B 303      16.505  10.773  32.359  1.00 25.63 LIG-0.27  OA
ATOM     25  N   SER B 304      17.655   9.336  31.078  1.00 28.07 LIG-0.34  N 
ATOM     26 H    SER B 304      17.900   9.018  30.317  1.00 28.07 LIG 0.16  HD
BRANCH 25 27
ATOM     27  CA  SER B 304      18.159   8.618  32.242  1.00 30.78 LIG 0.20  C 
BRANCH 27 28
ATOM     28  C   SER B 304      19.653   8.344  32.018  1.00 31.57 LIG 0.24  C 
ATOM     29 O    SER B 304      20.070   7.183  31.958  1.00 32.88 LIG-0.27  OA
ATOM     30  N   ALA B 305      20.452   9.405  31.923  1.00 33.00 LIG-0.35  N 
ATOM     31 H    ALA B 305      20.168  10.213  32.000  1.00 33.00 LIG 0.16  HD
BRANCH 30 32
ATOM     32  CA  ALA B 305      21.898   9.310  31.676  1.00 34.21 LIG 0.16  C 
ATOM     33  CB  ALA B 305      22.547   8.355  32.739  1.00 33.59 LIG 0.04  C 
BRANCH 32 34
ATOM     34  C   ALA B 305      22.184   8.769  30.284  1.00 34.64 LIG 0.22  C 
ATOM     35 O    ALA B 305      22.087   7.530  30.105  1.00 35.93 LIG-0.29  OA
ENDBRANCH 32 34
ENDBRANCH 30 32
ENDBRANCH 27 28
BRANCH 27 36
ATOM     36  CB  SER B 304      17.394   7.309  32.431  1.00 32.96 LIG 0.20  C 
BRANCH 36 37
ATOM     37 OG   SER B 304      16.016   7.523  32.172  1.00 37.22 LIG-0.40  OA
ATOM     38 HG   SER B 304      15.699   8.040  32.753  1.00 37.22 LIG 0.21  HD
ENDBRANCH 36 37
ENDBRANCH 27 36
ENDBRANCH 25 27
ENDBRANCH 1 23
TORSDOF 15
ENDMDL
MODEL 49
USER: ADFR SOLUTION from run 58
USER: SCORE 13.091441 LL:  -2.686 LR: -10.726 RR:   0.000 FEB:  -6.251
USER: RMSD 11.467697
USER: SEED 57
USER: STATUS no improvement in best 11 clusters for 5 generations
USER: GENES 17
USER: genes 0 Translation |==|  0.74083 0.69202 0.35180
USER: genes 1 Rotation |==|  0.62472 0.66662 0.27288 0.89383
USER: genes 2 Torsion [C]-CA--N-[C] |==|  0.64015
USER: genes 3 Torsion [N]-C--CA-[N] |==|  0.88889
USER: genes 4 Torsion [C]-CA--N-[C] |==|  0.84624
USER: genes 5 Torsion [N]-C--CA-[N] |==|  0.89975
USER: genes 6 Torsion [C]-CA--N-[H1] |==|  0.97259
USER: genes 7 Torsion [C]-CA--CB-[OG] |==|  0.37609
USER: genes 8 Torsion [CA]-CB--OG-[HG] |==|  0.07054
USER: genes 9 Torsion [N]-CA--CB-[CG1] |==|  0.40805
USER: genes 10 Torsion [N]-CA--C-[N] |==|  0.38174
USER: genes 11 Torsion [C]-N--CA-[C] |==|  0.77299
USER: genes 12 Torsion [N]-CA--C-[N] |==|  0.91139
USER: genes 13 Torsion [C]-N--CA-[CB] |==|  0.21357
USER: genes 14 Torsion [N]-CA--C-[O] |==|  0.87446
USER: genes 15 Torsion [N]-CA--CB-[OG] |==|  0.17405
USER: genes 16 Torsion [CA]-CB--OG-[HG] |==|  0.96212
ROOT
ATOM      1  CA  VAL B 303      20.355   9.541  28.304  1.00 28.18 LIG 0.18  C 
ENDROOT
BRANCH 1 2
ATOM      2  N   VAL B 303      19.889   9.669  29.679  1.00 29.68 LIG-0.35  N 
ATOM      3  C   SER B 302      18.863   8.964  30.147  1.00 31.00 LIG 0.24  C 
ATOM      4 O    SER B 302      18.220   8.176  29.439  1.00 32.88 LIG-0.27  OA
ATOM      5 H    VAL B 303      20.334  10.235  30.150  1.00 29.68 LIG 0.16  HD
BRANCH 3 6
ATOM      6  CA  SER B 302      18.490   9.198  31.624  1.00 30.54 LIG 0.20  C 
BRANCH 6 7
ATOM      7  N   SER B 302      19.675   9.338  32.473  1.00 26.47 LIG-0.34  N 
ATOM      8  C   ALA B 301      20.631   8.410  32.520  1.00 26.40 LIG 0.25  C 
ATOM      9 O    ALA B 301      20.583   7.352  31.890  1.00 23.28 LIG-0.27  OA
ATOM     10 H    SER B 302      19.696  10.065  32.932  1.00 26.47 LIG 0.16  HD
BRANCH 8 11
ATOM     11  CA  ALA B 301      21.816   8.703  33.441  1.00 27.42 LIG 0.27  C 
ATOM     12  CB  ALA B 301      21.499   8.260  34.901  1.00 28.79 LIG 0.05  C 
BRANCH 11 13
ATOM     13  N   ALA B 301      22.130  10.167  33.416  1.00 29.28 LIG-0.07  N 
ATOM     14 H1   ALA B 301      21.665  10.560  32.767  1.00 29.28 LIG 0.28  HD
ATOM     15 H2   ALA B 301      21.912  10.530  34.199  1.00 29.28 LIG 0.28  HD
ATOM     16 H3   ALA B 301      23.000  10.282  33.268  1.00 29.28 LIG 0.28  HD
ENDBRANCH 11 13
ENDBRANCH 8 11
ENDBRANCH 6 7
BRANCH 6 17
ATOM     17  CB  SER B 302      17.596  10.439  31.722  1.00 31.87 LIG 0.20  C 
BRANCH 17 18
ATOM     18 OG   SER B 302      16.505  10.191  32.582  1.00 37.10 LIG-0.40  OA
ATOM     19 HG   SER B 302      16.711   9.588  33.129  1.00 37.10 LIG 0.21  HD
ENDBRANCH 17 18
ENDBRANCH 6 17
ENDBRANCH 3 6
ENDBRANCH 1 2
BRANCH 1 20
ATOM     20  CB  VAL B 303      20.028  10.835  27.464  1.00 29.00 LIG 0.01  C 
ATOM     21  CG1 VAL B 303      21.115  11.065  26.433  1.00 28.23 LIG 0.01  C 
ATOM     22  CG2 VAL B 303      18.681  10.690  26.745  1.00 26.76 LIG 0.01  C 
ENDBRANCH 1 20
BRANCH 1 23
ATOM     23  C   VAL B 303      21.857   9.316  28.345  1.00 28.25 LIG 0.24  C 
ATOM     24 O    VAL B 303      22.565   9.949  29.137  1.00 25.63 LIG-0.27  OA
ATOM     25  N   SER B 304      22.359   8.399  27.528  1.00 28.07 LIG-0.34  N 
ATOM     26 H    SER B 304      21.895   7.910  26.994  1.00 28.07 LIG 0.16  HD
BRANCH 25 27
ATOM     27  CA  SER B 304      23.797   8.164  27.496  1.00 30.78 LIG 0.20  C 
BRANCH 27 28
ATOM     28  C   SER B 304      24.431   9.234  26.597  1.00 31.57 LIG 0.24  C 
ATOM     29 O    SER B 304      25.563   9.663  26.844  1.00 32.88 LIG-0.27  OA
ATOM     30  N   ALA B 305      23.697   9.677  25.579  1.00 33.00 LIG-0.35  N 
ATOM     31 H    ALA B 305      22.895   9.406  25.426  1.00 33.00 LIG 0.16  HD
BRANCH 30 32
ATOM     32  CA  ALA B 305      24.174  10.675  24.610  1.00 34.21 LIG 0.16  C 
ATOM     33  CB  ALA B 305      25.154   9.988  23.595  1.00 33.59 LIG 0.04  C 
BRANCH 32 34
ATOM     34  C   ALA B 305      23.016  11.292  23.840  1.00 34.64 LIG 0.22  C 
ATOM     35 O    ALA B 305      22.130  10.521  23.396  1.00 35.93 LIG-0.29  OA
ENDBRANCH 32 34
ENDBRANCH 30 32
ENDBRANCH 27 28
BRANCH 27 36
ATOM     36  CB  SER B 304      24.094   6.764  26.959  1.00 32.96 LIG 0.20  C 
BRANCH 36 37
ATOM     37 OG   SER B 304      23.630   6.661  25.622  1.00 37.22 LIG-0.40  OA
ATOM     38 HG   SER B 304      23.125   7.309  25.450  1.00 37.22 LIG 0.21  HD
ENDBRANCH 36 37
ENDBRANCH 27 36
ENDBRANCH 25 27
ENDBRANCH 1 23
TORSDOF 15
ENDMDL
MODEL 50
USER: ADFR SOLUTION from run 51
USER: SCORE 12.862350 LL:  -2.662 LR: -10.700 RR:   0.000 FEB:  -6.225
USER: RMSD 5.003128
USER: SEED 50
USER: STATUS no improvement in best 9 clusters for 5 generations
USER: GENES 17
USER: genes 0 Translation |==|  0.56672 0.53976 0.42785
USER: genes 1 Rotation |==|  0.62449 0.70838 0.67404 0.90099
USER: genes 2 Torsion [C]-CA--N-[C] |==|  0.74200
USER: genes 3 Torsion [N]-C--CA-[N] |==|  0.88129
USER: genes 4 Torsion [C]-CA--N-[C] |==|  0.86583
USER: genes 5 Torsion [N]-C--CA-[N] |==|  0.48440
USER: genes 6 Torsion [C]-CA--N-[H1] |==|  0.57508
USER: genes 7 Torsion [C]-CA--CB-[OG] |==|  0.42341
USER: genes 8 Torsion [CA]-CB--OG-[HG] |==|  0.80477
USER: genes 9 Torsion [N]-CA--CB-[CG1] |==|  0.78895
USER: genes 10 Torsion [N]-CA--C-[N] |==|  0.27223
USER: genes 11 Torsion [C]-N--CA-[C] |==|  0.70807
USER: genes 12 Torsion [N]-CA--C-[N] |==|  0.39937
USER: genes 13 Torsion [C]-N--CA-[CB] |==|  0.17612
USER: genes 14 Torsion [N]-CA--C-[O] |==|  0.93789
USER: genes 15 Torsion [N]-CA--CB-[OG] |==|  0.67909
USER: genes 16 Torsion [CA]-CB--OG-[HG] |==|  0.93847
ROOT
ATOM      1  CA  VAL B 303      15.132   4.973  30.585  1.00 28.18 LIG 0.18  C 
ENDROOT
BRANCH 1 2
ATOM      2  N   VAL B 303      15.252   3.780  31.414  1.00 29.68 LIG-0.35  N 
ATOM      3  C   SER B 302      16.372   3.063  31.463  1.00 31.00 LIG 0.24  C 
ATOM      4 O    SER B 302      17.372   3.346  30.788  1.00 32.88 LIG-0.27  OA
ATOM      5 H    VAL B 303      14.542   3.587  31.860  1.00 29.68 LIG 0.16  HD
BRANCH 3 6
ATOM      6  CA  SER B 302      16.356   1.833  32.391  1.00 30.54 LIG 0.20  C 
BRANCH 6 7
ATOM      7  N   SER B 302      15.711   2.123  33.674  1.00 26.47 LIG-0.34  N 
ATOM      8  C   ALA B 301      16.016   3.201  34.397  1.00 26.40 LIG 0.25  C 
ATOM      9 O    ALA B 301      16.881   4.016  34.071  1.00 23.28 LIG-0.27  OA
ATOM     10 H    SER B 302      15.126   1.540  33.914  1.00 26.47 LIG 0.16  HD
BRANCH 8 11
ATOM     11  CA  ALA B 301      15.248   3.378  35.707  1.00 27.42 LIG 0.27  C 
ATOM     12  CB  ALA B 301      13.730   3.596  35.430  1.00 28.79 LIG 0.05  C 
BRANCH 11 13
ATOM     13  N   ALA B 301      15.795   4.550  36.463  1.00 29.28 LIG-0.07  N 
ATOM     14 H1   ALA B 301      15.654   4.433  37.334  1.00 29.28 LIG 0.28  HD
ATOM     15 H2   ALA B 301      16.669   4.620  36.311  1.00 29.28 LIG 0.28  HD
ATOM     16 H3   ALA B 301      15.387   5.293  36.194  1.00 29.28 LIG 0.28  HD
ENDBRANCH 11 13
ENDBRANCH 8 11
ENDBRANCH 6 7
BRANCH 6 17
ATOM     17  CB  SER B 302      15.653   0.676  31.673  1.00 31.87 LIG 0.20  C 
BRANCH 17 18
ATOM     18 OG   SER B 302      16.137  -0.562  32.147  1.00 37.10 LIG-0.40  OA
ATOM     19 HG   SER B 302      16.926  -0.674  31.883  1.00 37.10 LIG 0.21  HD
ENDBRANCH 17 18
ENDBRANCH 6 17
ENDBRANCH 3 6
ENDBRANCH 1 2
BRANCH 1 20
ATOM     20  CB  VAL B 303      13.665   5.138  30.028  1.00 29.00 LIG 0.01  C 
ATOM     21  CG1 VAL B 303      13.435   4.161  28.893  1.00 28.23 LIG 0.01  C 
ATOM     22  CG2 VAL B 303      12.633   4.875  31.131  1.00 26.76 LIG 0.01  C 
ENDBRANCH 1 20
BRANCH 1 23
ATOM     23  C   VAL B 303      15.496   6.171  31.446  1.00 28.25 LIG 0.24  C 
ATOM     24 O    VAL B 303      14.672   6.655  32.230  1.00 25.63 LIG-0.27  OA
ATOM     25  N   SER B 304      16.732   6.641  31.343  1.00 28.07 LIG-0.34  N 
ATOM     26 H    SER B 304      17.345   6.307  30.842  1.00 28.07 LIG 0.16  HD
BRANCH 25 27
ATOM     27  CA  SER B 304      17.131   7.811  32.116  1.00 30.78 LIG 0.20  C 
BRANCH 27 28
ATOM     28  C   SER B 304      17.202   9.009  31.160  1.00 31.57 LIG 0.24  C 
ATOM     29 O    SER B 304      17.624   8.862  30.008  1.00 32.88 LIG-0.27  OA
ATOM     30  N   ALA B 305      16.816  10.188  31.643  1.00 33.00 LIG-0.35  N 
ATOM     31 H    ALA B 305      16.556  10.299  32.455  1.00 33.00 LIG 0.16  HD
BRANCH 30 32
ATOM     32  CA  ALA B 305      16.794  11.422  30.844  1.00 34.21 LIG 0.16  C 
ATOM     33  CB  ALA B 305      15.764  11.266  29.671  1.00 33.59 LIG 0.04  C 
BRANCH 32 34
ATOM     34  C   ALA B 305      16.400  12.621  31.694  1.00 34.64 LIG 0.22  C 
ATOM     35 O    ALA B 305      15.755  12.404  32.749  1.00 35.93 LIG-0.29  OA
ENDBRANCH 32 34
ENDBRANCH 30 32
ENDBRANCH 27 28
BRANCH 27 36
ATOM     36  CB  SER B 304      18.486   7.571  32.781  1.00 32.96 LIG 0.20  C 
BRANCH 36 37
ATOM     37 OG   SER B 304      18.330   7.571  34.190  1.00 37.22 LIG-0.40  OA
ATOM     38 HG   SER B 304      17.630   7.987  34.395  1.00 37.22 LIG 0.21  HD
ENDBRANCH 36 37
ENDBRANCH 27 36
ENDBRANCH 25 27
ENDBRANCH 1 23
TORSDOF 15
ENDMDL
MODEL 51
USER: ADFR SOLUTION from run 79
USER: SCORE 12.099135 LL:  -2.073 LR: -10.686 RR:   0.000 FEB:  -6.212
USER: RMSD 11.214239
USER: SEED 78
USER: STATUS no improvement in best 3 clusters for 5 generations
USER: GENES 17
USER: genes 0 Translation |==|  0.67248 0.72958 0.37812
USER: genes 1 Rotation |==|  0.39844 0.53290 0.23278 0.90890
USER: genes 2 Torsion [C]-CA--N-[C] |==|  0.66328
USER: genes 3 Torsion [N]-C--CA-[N] |==|  0.27237
USER: genes 4 Torsion [C]-CA--N-[C] |==|  0.76667
USER: genes 5 Torsion [N]-C--CA-[N] |==|  0.18818
USER: genes 6 Torsion [C]-CA--N-[H1] |==|  0.09265
USER: genes 7 Torsion [C]-CA--CB-[OG] |==|  0.82200
USER: genes 8 Torsion [CA]-CB--OG-[HG] |==|  0.65013
USER: genes 9 Torsion [N]-CA--CB-[CG1] |==|  0.05609
USER: genes 10 Torsion [N]-CA--C-[N] |==|  0.36943
USER: genes 11 Torsion [C]-N--CA-[C] |==|  0.65523
USER: genes 12 Torsion [N]-CA--C-[N] |==|  0.30232
USER: genes 13 Torsion [C]-N--CA-[CB] |==|  0.56027
USER: genes 14 Torsion [N]-CA--C-[O] |==|  0.36123
USER: genes 15 Torsion [N]-CA--CB-[OG] |==|  0.75054
USER: genes 16 Torsion [CA]-CB--OG-[HG] |==|  0.29679
ROOT
ATOM      1  CA  VAL B 303      18.305  10.667  29.094  1.00 28.18 LIG 0.18  C 
ENDROOT
BRANCH 1 2
ATOM      2  N   VAL B 303      17.795  11.912  29.655  1.00 29.68 LIG-0.35  N 
ATOM      3  C   SER B 302      16.920  11.930  30.657  1.00 31.00 LIG 0.24  C 
ATOM      4 O    SER B 302      16.461  10.894  31.158  1.00 32.88 LIG-0.27  OA
ATOM      5 H    VAL B 303      18.108  12.621  29.281  1.00 29.68 LIG 0.16  HD
BRANCH 3 6
ATOM      6  CA  SER B 302      16.477  13.321  31.153  1.00 30.54 LIG 0.20  C 
BRANCH 6 7
ATOM      7  N   SER B 302      15.194  13.726  30.574  1.00 26.47 LIG-0.34  N 
ATOM      8  C   ALA B 301      15.103  14.299  29.374  1.00 26.40 LIG 0.25  C 
ATOM      9 O    ALA B 301      16.080  14.568  28.673  1.00 23.28 LIG-0.27  OA
ATOM     10 H    SER B 302      14.514  13.561  31.075  1.00 26.47 LIG 0.16  HD
BRANCH 8 11
ATOM     11  CA  ALA B 301      13.694  14.652  28.896  1.00 27.42 LIG 0.27  C 
ATOM     12  CB  ALA B 301      13.715  15.101  27.404  1.00 28.79 LIG 0.05  C 
BRANCH 11 13
ATOM     13  N   ALA B 301      13.130  15.750  29.744  1.00 29.28 LIG-0.07  N 
ATOM     14 H1   ALA B 301      13.786  16.295  29.999  1.00 29.28 LIG 0.28  HD
ATOM     15 H2   ALA B 301      12.530  16.209  29.274  1.00 29.28 LIG 0.28  HD
ATOM     16 H3   ALA B 301      12.739  15.400  30.462  1.00 29.28 LIG 0.28  HD
ENDBRANCH 11 13
ENDBRANCH 8 11
ENDBRANCH 6 7
BRANCH 6 17
ATOM     17  CB  SER B 302      16.408  13.306  32.683  1.00 31.87 LIG 0.20  C 
BRANCH 17 18
ATOM     18 OG   SER B 302      15.415  12.405  33.121  1.00 37.10 LIG-0.40  OA
ATOM     19 HG   SER B 302      14.883  12.803  33.635  1.00 37.10 LIG 0.21  HD
ENDBRANCH 17 18
ENDBRANCH 6 17
ENDBRANCH 3 6
ENDBRANCH 1 2
BRANCH 1 20
ATOM     20  CB  VAL B 303      17.918  10.523  27.571  1.00 29.00 LIG 0.01  C 
ATOM     21  CG1 VAL B 303      17.578  11.884  26.998  1.00 28.23 LIG 0.01  C 
ATOM     22  CG2 VAL B 303      19.079   9.919  26.771  1.00 26.76 LIG 0.01  C 
ENDBRANCH 1 20
BRANCH 1 23
ATOM     23  C   VAL B 303      19.817  10.679  29.244  1.00 28.25 LIG 0.24  C 
ATOM     24 O    VAL B 303      20.468  11.689  28.956  1.00 25.63 LIG-0.27  OA
ATOM     25  N   SER B 304      20.389   9.584  29.726  1.00 28.07 LIG-0.34  N 
ATOM     26 H    SER B 304      19.967   8.878  29.977  1.00 28.07 LIG 0.16  HD
BRANCH 25 27
ATOM     27  CA  SER B 304      21.839   9.522  29.860  1.00 30.78 LIG 0.20  C 
BRANCH 27 28
ATOM     28  C   SER B 304      22.334   8.294  29.084  1.00 31.57 LIG 0.24  C 
ATOM     29 O    SER B 304      22.129   7.157  29.521  1.00 32.88 LIG-0.27  OA
ATOM     30  N   ALA B 305      23.001   8.524  27.955  1.00 33.00 LIG-0.35  N 
ATOM     31 H    ALA B 305      23.176   9.315  27.667  1.00 33.00 LIG 0.16  HD
BRANCH 30 32
ATOM     32  CA  ALA B 305      23.510   7.455  27.083  1.00 34.21 LIG 0.16  C 
ATOM     33  CB  ALA B 305      24.674   8.018  26.192  1.00 33.59 LIG 0.04  C 
BRANCH 32 34
ATOM     34  C   ALA B 305      24.032   6.282  27.898  1.00 34.64 LIG 0.22  C 
ATOM     35 O    ALA B 305      23.631   5.131  27.593  1.00 35.93 LIG-0.29  OA
ENDBRANCH 32 34
ENDBRANCH 30 32
ENDBRANCH 27 28
BRANCH 27 36
ATOM     36  CB  SER B 304      22.232   9.422  31.334  1.00 32.96 LIG 0.20  C 
BRANCH 36 37
ATOM     37 OG   SER B 304      22.400  10.724  31.869  1.00 37.22 LIG-0.40  OA
ATOM     38 HG   SER B 304      21.755  10.905  32.375  1.00 37.22 LIG 0.21  HD
ENDBRANCH 36 37
ENDBRANCH 27 36
ENDBRANCH 25 27
ENDBRANCH 1 23
TORSDOF 15
ENDMDL
MODEL 52
USER: ADFR SOLUTION from run 96
USER: SCORE 13.094907 LL:  -2.642 LR: -10.677 RR:   0.000 FEB:  -6.202
USER: RMSD 8.797559
USER: SEED 95
USER: STATUS no improvement in best 23 clusters for 5 generations
USER: GENES 17
USER: genes 0 Translation |==|  0.51131 0.55027 0.47916
USER: genes 1 Rotation |==|  0.45317 0.58039 0.01184 0.55518
USER: genes 2 Torsion [C]-CA--N-[C] |==|  0.80275
USER: genes 3 Torsion [N]-C--CA-[N] |==|  0.45789
USER: genes 4 Torsion [C]-CA--N-[C] |==|  0.54943
USER: genes 5 Torsion [N]-C--CA-[N] |==|  0.13443
USER: genes 6 Torsion [C]-CA--N-[H1] |==|  0.95738
USER: genes 7 Torsion [C]-CA--CB-[OG] |==|  0.40994
USER: genes 8 Torsion [CA]-CB--OG-[HG] |==|  0.11963
USER: genes 9 Torsion [N]-CA--CB-[CG1] |==|  0.20309
USER: genes 10 Torsion [N]-CA--C-[N] |==|  0.42594
USER: genes 11 Torsion [C]-N--CA-[C] |==|  0.84918
USER: genes 12 Torsion [N]-CA--C-[N] |==|  0.40000
USER: genes 13 Torsion [C]-N--CA-[CB] |==|  0.50462
USER: genes 14 Torsion [N]-CA--C-[O] |==|  0.48407
USER: genes 15 Torsion [N]-CA--CB-[OG] |==|  0.84607
USER: genes 16 Torsion [CA]-CB--OG-[HG] |==|  0.06245
ROOT
ATOM      1  CA  VAL B 303      13.469   5.288  32.125  1.00 28.18 LIG 0.18  C 
ENDROOT
BRANCH 1 2
ATOM      2  N   VAL B 303      14.794   5.614  32.637  1.00 29.68 LIG-0.35  N 
ATOM      3  C   SER B 302      15.055   5.672  33.940  1.00 31.00 LIG 0.24  C 
ATOM      4 O    SER B 302      14.184   5.480  34.801  1.00 32.88 LIG-0.27  OA
ATOM      5 H    VAL B 303      15.381   5.764  32.025  1.00 29.68 LIG 0.16  HD
BRANCH 3 6
ATOM      6  CA  SER B 302      16.504   6.019  34.333  1.00 30.54 LIG 0.20  C 
BRANCH 6 7
ATOM      7  N   SER B 302      16.612   6.405  35.742  1.00 26.47 LIG-0.34  N 
ATOM      8  C   ALA B 301      17.665   7.068  36.220  1.00 26.40 LIG 0.25  C 
ATOM      9 O    ALA B 301      18.642   7.377  35.536  1.00 23.28 LIG-0.27  OA
ATOM     10 H    SER B 302      15.942   6.166  36.224  1.00 26.47 LIG 0.16  HD
BRANCH 8 11
ATOM     11  CA  ALA B 301      17.629   7.415  37.709  1.00 27.42 LIG 0.27  C 
ATOM     12  CB  ALA B 301      19.015   7.946  38.184  1.00 28.79 LIG 0.05  C 
BRANCH 11 13
ATOM     13  N   ALA B 301      17.256   6.202  38.504  1.00 29.28 LIG-0.07  N 
ATOM     14 H1   ALA B 301      16.915   5.584  37.962  1.00 29.28 LIG 0.28  HD
ATOM     15 H2   ALA B 301      17.979   5.877  38.906  1.00 29.28 LIG 0.28  HD
ATOM     16 H3   ALA B 301      16.651   6.424  39.118  1.00 29.28 LIG 0.28  HD
ENDBRANCH 11 13
ENDBRANCH 8 11
ENDBRANCH 6 7
BRANCH 6 17
ATOM     17  CB  SER B 302      17.406   4.820  34.021  1.00 31.87 LIG 0.20  C 
BRANCH 17 18
ATOM     18 OG   SER B 302      18.694   5.259  33.649  1.00 37.10 LIG-0.40  OA
ATOM     19 HG   SER B 302      18.938   5.878  34.162  1.00 37.10 LIG 0.21  HD
ENDBRANCH 17 18
ENDBRANCH 6 17
ENDBRANCH 3 6
ENDBRANCH 1 2
BRANCH 1 20
ATOM     20  CB  VAL B 303      13.366   5.573  30.577  1.00 29.00 LIG 0.01  C 
ATOM     21  CG1 VAL B 303      14.141   4.522  29.809  1.00 28.23 LIG 0.01  C 
ATOM     22  CG2 VAL B 303      11.903   5.551  30.118  1.00 26.76 LIG 0.01  C 
ENDBRANCH 1 20
BRANCH 1 23
ATOM     23  C   VAL B 303      13.220   3.814  32.397  1.00 28.25 LIG 0.24  C 
ATOM     24 O    VAL B 303      14.167   3.029  32.522  1.00 25.63 LIG-0.27  OA
ATOM     25  N   SER B 304      11.959   3.423  32.527  1.00 28.07 LIG-0.34  N 
ATOM     26 H    SER B 304      11.276   3.945  32.488  1.00 28.07 LIG 0.16  HD
BRANCH 25 27
ATOM     27  CA  SER B 304      11.654   2.016  32.752  1.00 30.78 LIG 0.20  C 
BRANCH 27 28
ATOM     28  C   SER B 304      12.320   1.202  31.635  1.00 31.57 LIG 0.24  C 
ATOM     29 O    SER B 304      12.363   1.646  30.483  1.00 32.88 LIG-0.27  OA
ATOM     30  N   ALA B 305      12.811   0.011  31.969  1.00 33.00 LIG-0.35  N 
ATOM     31 H    ALA B 305      12.751  -0.315  32.762  1.00 33.00 LIG 0.16  HD
BRANCH 30 32
ATOM     32  CA  ALA B 305      13.507  -0.873  31.022  1.00 34.21 LIG 0.16  C 
ATOM     33  CB  ALA B 305      13.908  -2.205  31.749  1.00 33.59 LIG 0.04  C 
BRANCH 32 34
ATOM     34  C   ALA B 305      12.623  -1.206  29.829  1.00 34.64 LIG 0.22  C 
ATOM     35 O    ALA B 305      13.131  -1.864  28.888  1.00 35.93 LIG-0.29  OA
ENDBRANCH 32 34
ENDBRANCH 30 32
ENDBRANCH 27 28
BRANCH 27 36
ATOM     36  CB  SER B 304      10.142   1.794  32.752  1.00 32.96 LIG 0.20  C 
BRANCH 36 37
ATOM     37 OG   SER B 304       9.538   2.645  33.713  1.00 37.22 LIG-0.40  OA
ATOM     38 HG   SER B 304      10.044   3.297  33.867  1.00 37.22 LIG 0.21  HD
ENDBRANCH 36 37
ENDBRANCH 27 36
ENDBRANCH 25 27
ENDBRANCH 1 23
TORSDOF 15
ENDMDL
MODEL 53
USER: ADFR SOLUTION from run 8
USER: SCORE 12.926526 LL:  -2.854 LR: -10.657 RR:   0.000 FEB:  -6.182
USER: RMSD 10.987458
USER: SEED 365641
USER: STATUS no improvement in best 17 clusters for 5 generations
USER: GENES 17
USER: genes 0 Translation |==|  0.62022 0.77189 0.33708
USER: genes 1 Rotation |==|  0.61483 0.77245 0.20710 0.77712
USER: genes 2 Torsion [C]-CA--N-[C] |==|  0.65620
USER: genes 3 Torsion [N]-C--CA-[N] |==|  0.87411
USER: genes 4 Torsion [C]-CA--N-[C] |==|  0.83334
USER: genes 5 Torsion [N]-C--CA-[N] |==|  0.96563
USER: genes 6 Torsion [C]-CA--N-[H1] |==|  0.99803
USER: genes 7 Torsion [C]-CA--CB-[OG] |==|  0.25280
USER: genes 8 Torsion [CA]-CB--OG-[HG] |==|  0.40571
USER: genes 9 Torsion [N]-CA--CB-[CG1] |==|  0.73940
USER: genes 10 Torsion [N]-CA--C-[N] |==|  0.90192
USER: genes 11 Torsion [C]-N--CA-[C] |==|  0.60065
USER: genes 12 Torsion [N]-CA--C-[N] |==|  0.44375
USER: genes 13 Torsion [C]-N--CA-[CB] |==|  0.82214
USER: genes 14 Torsion [N]-CA--C-[O] |==|  0.27681
USER: genes 15 Torsion [N]-CA--CB-[OG] |==|  0.99622
USER: genes 16 Torsion [CA]-CB--OG-[HG] |==|  0.63447
ROOT
ATOM      1  CA  VAL B 303      16.737  11.937  27.862  1.00 28.18 LIG 0.18  C 
ENDROOT
BRANCH 1 2
ATOM      2  N   VAL B 303      17.114  11.800  29.263  1.00 29.68 LIG-0.35  N 
ATOM      3  C   SER B 302      16.353  11.150  30.140  1.00 31.00 LIG 0.24  C 
ATOM      4 O    SER B 302      15.264  10.646  29.831  1.00 32.88 LIG-0.27  OA
ATOM      5 H    VAL B 303      17.862  12.173  29.465  1.00 29.68 LIG 0.16  HD
BRANCH 3 6
ATOM      6  CA  SER B 302      16.885  11.078  31.586  1.00 30.54 LIG 0.20  C 
BRANCH 6 7
ATOM      7  N   SER B 302      18.307  10.727  31.629  1.00 26.47 LIG-0.34  N 
ATOM      8  C   ALA B 301      18.774   9.585  31.126  1.00 26.40 LIG 0.25  C 
ATOM      9 O    ALA B 301      18.056   8.719  30.623  1.00 23.28 LIG-0.27  OA
ATOM     10 H    SER B 302      18.804  11.320  32.004  1.00 26.47 LIG 0.16  HD
BRANCH 8 11
ATOM     11  CA  ALA B 301      20.283   9.365  31.231  1.00 27.42 LIG 0.27  C 
ATOM     12  CB  ALA B 301      20.606   8.259  32.281  1.00 28.79 LIG 0.05  C 
BRANCH 11 13
ATOM     13  N   ALA B 301      20.957  10.643  31.624  1.00 29.28 LIG-0.07  N 
ATOM     14 H1   ALA B 301      20.348  11.286  31.710  1.00 29.28 LIG 0.28  HD
ATOM     15 H2   ALA B 301      21.380  10.530  32.398  1.00 29.28 LIG 0.28  HD
ATOM     16 H3   ALA B 301      21.545  10.874  30.997  1.00 29.28 LIG 0.28  HD
ENDBRANCH 11 13
ENDBRANCH 8 11
ENDBRANCH 6 7
BRANCH 6 17
ATOM     17  CB  SER B 302      16.629  12.420  32.279  1.00 31.87 LIG 0.20  C 
BRANCH 17 18
ATOM     18 OG   SER B 302      15.379  12.405  32.932  1.00 37.10 LIG-0.40  OA
ATOM     19 HG   SER B 302      15.424  12.866  33.633  1.00 37.10 LIG 0.21  HD
ENDBRANCH 17 18
ENDBRANCH 6 17
ENDBRANCH 3 6
ENDBRANCH 1 2
BRANCH 1 20
ATOM     20  CB  VAL B 303      16.486  13.447  27.481  1.00 29.00 LIG 0.01  C 
ATOM     21  CG1 VAL B 303      15.013  13.773  27.623  1.00 28.23 LIG 0.01  C 
ATOM     22  CG2 VAL B 303      17.295  14.378  28.392  1.00 26.76 LIG 0.01  C 
ENDBRANCH 1 20
BRANCH 1 23
ATOM     23  C   VAL B 303      17.870  11.373  27.022  1.00 28.25 LIG 0.24  C 
ATOM     24 O    VAL B 303      17.634  10.801  25.952  1.00 25.63 LIG-0.27  OA
ATOM     25  N   SER B 304      19.107  11.553  27.468  1.00 28.07 LIG-0.34  N 
ATOM     26 H    SER B 304      19.313  11.981  28.185  1.00 28.07 LIG 0.16  HD
BRANCH 25 27
ATOM     27  CA  SER B 304      20.233  11.004  26.725  1.00 30.78 LIG 0.20  C 
BRANCH 27 28
ATOM     28  C   SER B 304      21.285  10.533  27.739  1.00 31.57 LIG 0.24  C 
ATOM     29 O    SER B 304      21.292  10.990  28.887  1.00 32.88 LIG-0.27  OA
ATOM     30  N   ALA B 305      22.180   9.646  27.310  1.00 33.00 LIG-0.35  N 
ATOM     31 H    ALA B 305      22.199   9.354  26.501  1.00 33.00 LIG 0.16  HD
BRANCH 30 32
ATOM     32  CA  ALA B 305      23.229   9.074  28.167  1.00 34.21 LIG 0.16  C 
ATOM     33  CB  ALA B 305      24.203  10.214  28.631  1.00 33.59 LIG 0.04  C 
BRANCH 32 34
ATOM     34  C   ALA B 305      22.631   8.403  29.394  1.00 34.64 LIG 0.22  C 
ATOM     35 O    ALA B 305      22.505   7.154  29.376  1.00 35.93 LIG-0.29  OA
ENDBRANCH 32 34
ENDBRANCH 30 32
ENDBRANCH 27 28
BRANCH 27 36
ATOM     36  CB  SER B 304      20.821  12.063  25.793  1.00 32.96 LIG 0.20  C 
BRANCH 36 37
ATOM     37 OG   SER B 304      20.072  13.262  25.905  1.00 37.22 LIG-0.40  OA
ATOM     38 HG   SER B 304      19.878  13.544  25.138  1.00 37.22 LIG 0.21  HD
ENDBRANCH 36 37
ENDBRANCH 27 36
ENDBRANCH 25 27
ENDBRANCH 1 23
TORSDOF 15
ENDMDL
MODEL 54
USER: ADFR SOLUTION from run 33
USER: SCORE 12.980396 LL:  -3.201 LR: -10.662 RR:   0.000 FEB:  -6.188
USER: RMSD 5.750039
USER: SEED 32
USER: STATUS no improvement in best 8 clusters for 5 generations
USER: GENES 17
USER: genes 0 Translation |==|  0.54805 0.53747 0.42106
USER: genes 1 Rotation |==|  0.68541 0.66517 0.74035 0.86135
USER: genes 2 Torsion [C]-CA--N-[C] |==|  0.78538
USER: genes 3 Torsion [N]-C--CA-[N] |==|  0.65346
USER: genes 4 Torsion [C]-CA--N-[C] |==|  0.16047
USER: genes 5 Torsion [N]-C--CA-[N] |==|  0.04058
USER: genes 6 Torsion [C]-CA--N-[H1] |==|  0.24306
USER: genes 7 Torsion [C]-CA--CB-[OG] |==|  0.45238
USER: genes 8 Torsion [CA]-CB--OG-[HG] |==|  0.95850
USER: genes 9 Torsion [N]-CA--CB-[CG1] |==|  0.86108
USER: genes 10 Torsion [N]-CA--C-[N] |==|  0.93035
USER: genes 11 Torsion [C]-N--CA-[C] |==|  0.76536
USER: genes 12 Torsion [N]-CA--C-[N] |==|  0.50549
USER: genes 13 Torsion [C]-N--CA-[CB] |==|  0.14888
USER: genes 14 Torsion [N]-CA--C-[O] |==|  0.93601
USER: genes 15 Torsion [N]-CA--CB-[OG] |==|  0.90958
USER: genes 16 Torsion [CA]-CB--OG-[HG] |==|  0.84216
ROOT
ATOM      1  CA  VAL B 303      14.571   4.904  30.382  1.00 28.18 LIG 0.18  C 
ENDROOT
BRANCH 1 2
ATOM      2  N   VAL B 303      14.825   3.501  30.682  1.00 29.68 LIG-0.35  N 
ATOM      3  C   SER B 302      16.057   3.020  30.829  1.00 31.00 LIG 0.24  C 
ATOM      4 O    SER B 302      17.066   3.726  30.693  1.00 32.88 LIG-0.27  OA
ATOM      5 H    VAL B 303      14.114   3.021  30.753  1.00 29.68 LIG 0.16  HD
BRANCH 3 6
ATOM      6  CA  SER B 302      16.171   1.518  31.154  1.00 30.54 LIG 0.20  C 
BRANCH 6 7
ATOM      7  N   SER B 302      16.943   1.279  32.375  1.00 26.47 LIG-0.34  N 
ATOM      8  C   ALA B 301      16.599   1.806  33.550  1.00 26.40 LIG 0.25  C 
ATOM      9 O    ALA B 301      15.637   2.560  33.702  1.00 23.28 LIG-0.27  OA
ATOM     10 H    SER B 302      17.630   0.773  32.263  1.00 26.47 LIG 0.16  HD
BRANCH 8 11
ATOM     11  CA  ALA B 301      17.494   1.454  34.739  1.00 27.42 LIG 0.27  C 
ATOM     12  CB  ALA B 301      17.791   2.721  35.597  1.00 28.79 LIG 0.05  C 
BRANCH 11 13
ATOM     13  N   ALA B 301      18.781   0.865  34.250  1.00 29.28 LIG-0.07  N 
ATOM     14 H1   ALA B 301      19.365   1.518  34.089  1.00 29.28 LIG 0.28  HD
ATOM     15 H2   ALA B 301      19.112   0.318  34.869  1.00 29.28 LIG 0.28  HD
ATOM     16 H3   ALA B 301      18.634   0.409  33.500  1.00 29.28 LIG 0.28  HD
ENDBRANCH 11 13
ENDBRANCH 8 11
ENDBRANCH 6 7
BRANCH 6 17
ATOM     17  CB  SER B 302      14.762   0.925  31.271  1.00 31.87 LIG 0.20  C 
BRANCH 17 18
ATOM     18 OG   SER B 302      14.813  -0.481  31.176  1.00 37.10 LIG-0.40  OA
ATOM     19 HG   SER B 302      15.560  -0.715  30.873  1.00 37.10 LIG 0.21  HD
ENDBRANCH 17 18
ENDBRANCH 6 17
ENDBRANCH 3 6
ENDBRANCH 1 2
BRANCH 1 20
ATOM     20  CB  VAL B 303      13.112   5.117  29.823  1.00 29.00 LIG 0.01  C 
ATOM     21  CG1 VAL B 303      12.846   4.136  28.699  1.00 28.23 LIG 0.01  C 
ATOM     22  CG2 VAL B 303      12.071   4.905  30.928  1.00 26.76 LIG 0.01  C 
ENDBRANCH 1 20
BRANCH 1 23
ATOM     23  C   VAL B 303      14.752   5.691  31.670  1.00 28.25 LIG 0.24  C 
ATOM     24 O    VAL B 303      15.019   6.897  31.636  1.00 25.63 LIG-0.27  OA
ATOM     25  N   SER B 304      14.575   5.039  32.811  1.00 28.07 LIG-0.34  N 
ATOM     26 H    SER B 304      14.348   4.212  32.875  1.00 28.07 LIG 0.16  HD
BRANCH 25 27
ATOM     27  CA  SER B 304      14.769   5.730  34.079  1.00 30.78 LIG 0.20  C 
BRANCH 27 28
ATOM     28  C   SER B 304      16.265   5.687  34.418  1.00 31.57 LIG 0.24  C 
ATOM     29 O    SER B 304      17.062   5.140  33.649  1.00 32.88 LIG-0.27  OA
ATOM     30  N   ALA B 305      16.637   6.237  35.572  1.00 33.00 LIG-0.35  N 
ATOM     31 H    ALA B 305      16.080   6.587  36.125  1.00 33.00 LIG 0.16  HD
BRANCH 30 32
ATOM     32  CA  ALA B 305      18.035   6.306  36.023  1.00 34.21 LIG 0.16  C 
ATOM     33  CB  ALA B 305      18.911   6.976  34.907  1.00 33.59 LIG 0.04  C 
BRANCH 32 34
ATOM     34  C   ALA B 305      18.160   7.115  37.305  1.00 34.64 LIG 0.22  C 
ATOM     35 O    ALA B 305      17.256   7.949  37.562  1.00 35.93 LIG-0.29  OA
ENDBRANCH 32 34
ENDBRANCH 30 32
ENDBRANCH 27 28
BRANCH 27 36
ATOM     36  CB  SER B 304      13.949   5.058  35.181  1.00 32.96 LIG 0.20  C 
BRANCH 36 37
ATOM     37 OG   SER B 304      12.755   4.529  34.626  1.00 37.22 LIG-0.40  OA
ATOM     38 HG   SER B 304      12.327   5.142  34.245  1.00 37.22 LIG 0.21  HD
ENDBRANCH 36 37
ENDBRANCH 27 36
ENDBRANCH 25 27
ENDBRANCH 1 23
TORSDOF 15
ENDMDL
MODEL 55
USER: ADFR SOLUTION from run 3
USER: SCORE 12.822033 LL:  -2.459 LR: -10.648 RR:   0.000 FEB:  -6.174
USER: RMSD 4.330403
USER: SEED 267880
USER: STATUS searching
USER: GENES 17
USER: genes 0 Translation |==|  0.59078 0.55746 0.52770
USER: genes 1 Rotation |==|  0.13980 0.20352 0.57174 0.66494
USER: genes 2 Torsion [C]-CA--N-[C] |==|  0.63816
USER: genes 3 Torsion [N]-C--CA-[N] |==|  0.44854
USER: genes 4 Torsion [C]-CA--N-[C] |==|  0.80331
USER: genes 5 Torsion [N]-C--CA-[N] |==|  0.79170
USER: genes 6 Torsion [C]-CA--N-[H1] |==|  0.28030
USER: genes 7 Torsion [C]-CA--CB-[OG] |==|  0.79678
USER: genes 8 Torsion [CA]-CB--OG-[HG] |==|  0.02429
USER: genes 9 Torsion [N]-CA--CB-[CG1] |==|  0.20175
USER: genes 10 Torsion [N]-CA--C-[N] |==|  0.41114
USER: genes 11 Torsion [C]-N--CA-[C] |==|  0.68528
USER: genes 12 Torsion [N]-CA--C-[N] |==|  0.39880
USER: genes 13 Torsion [C]-N--CA-[CB] |==|  0.14514
USER: genes 14 Torsion [N]-CA--C-[O] |==|  0.88812
USER: genes 15 Torsion [N]-CA--CB-[OG] |==|  0.13214
USER: genes 16 Torsion [CA]-CB--OG-[HG] |==|  0.97970
ROOT
ATOM      1  CA  VAL B 303      15.853   5.504  33.581  1.00 28.18 LIG 0.18  C 
ENDROOT
BRANCH 1 2
ATOM      2  N   VAL B 303      14.955   4.517  32.996  1.00 29.68 LIG-0.35  N 
ATOM      3  C   SER B 302      13.674   4.430  33.348  1.00 31.00 LIG 0.24  C 
ATOM      4 O    SER B 302      13.172   5.160  34.213  1.00 32.88 LIG-0.27  OA
ATOM      5 H    VAL B 303      15.325   4.006  32.412  1.00 29.68 LIG 0.16  HD
BRANCH 3 6
ATOM      6  CA  SER B 302      12.843   3.344  32.637  1.00 30.54 LIG 0.20  C 
BRANCH 6 7
ATOM      7  N   SER B 302      11.613   3.030  33.368  1.00 26.47 LIG-0.34  N 
ATOM      8  C   ALA B 301      11.621   2.374  34.528  1.00 26.40 LIG 0.25  C 
ATOM      9 O    ALA B 301      12.647   1.947  35.060  1.00 23.28 LIG-0.27  OA
ATOM     10 H    SER B 302      10.895   3.306  32.983  1.00 26.47 LIG 0.16  HD
BRANCH 8 11
ATOM     11  CA  ALA B 301      10.260   2.133  35.181  1.00 27.42 LIG 0.27  C 
ATOM     12  CB  ALA B 301       9.233   1.608  34.132  1.00 28.79 LIG 0.05  C 
BRANCH 11 13
ATOM     13  N   ALA B 301       9.754   3.405  35.787  1.00 29.28 LIG-0.07  N 
ATOM     14 H1   ALA B 301       9.149   3.772  35.247  1.00 29.28 LIG 0.28  HD
ATOM     15 H2   ALA B 301       9.380   3.230  36.575  1.00 29.28 LIG 0.28  HD
ATOM     16 H3   ALA B 301      10.431   3.971  35.900  1.00 29.28 LIG 0.28  HD
ENDBRANCH 11 13
ENDBRANCH 8 11
ENDBRANCH 6 7
BRANCH 6 17
ATOM     17  CB  SER B 302      12.530   3.809  31.211  1.00 31.87 LIG 0.20  C 
BRANCH 17 18
ATOM     18 OG   SER B 302      11.557   4.829  31.230  1.00 37.10 LIG-0.40  OA
ATOM     19 HG   SER B 302      11.420   5.071  32.022  1.00 37.10 LIG 0.21  HD
ENDBRANCH 17 18
ENDBRANCH 6 17
ENDBRANCH 3 6
ENDBRANCH 1 2
BRANCH 1 20
ATOM     20  CB  VAL B 303      16.906   4.824  34.539  1.00 29.00 LIG 0.01  C 
ATOM     21  CG1 VAL B 303      17.931   4.067  33.720  1.00 28.23 LIG 0.01  C 
ATOM     22  CG2 VAL B 303      17.626   5.879  35.389  1.00 26.76 LIG 0.01  C 
ENDBRANCH 1 20
BRANCH 1 23
ATOM     23  C   VAL B 303      16.570   6.208  32.441  1.00 28.25 LIG 0.24  C 
ATOM     24 O    VAL B 303      16.800   5.613  31.382  1.00 25.63 LIG-0.27  OA
ATOM     25  N   SER B 304      16.900   7.480  32.622  1.00 28.07 LIG-0.34  N 
ATOM     26 H    SER B 304      16.720   7.939  33.327  1.00 28.07 LIG 0.16  HD
BRANCH 25 27
ATOM     27  CA  SER B 304      17.621   8.198  31.579  1.00 30.78 LIG 0.20  C 
BRANCH 27 28
ATOM     28  C   SER B 304      19.021   8.528  32.113  1.00 31.57 LIG 0.24  C 
ATOM     29 O    SER B 304      19.177   8.848  33.296  1.00 32.88 LIG-0.27  OA
ATOM     30  N   ALA B 305      20.026   8.474  31.241  1.00 33.00 LIG-0.35  N 
ATOM     31 H    ALA B 305      19.914   8.286  30.409  1.00 33.00 LIG 0.16  HD
BRANCH 30 32
ATOM     32  CA  ALA B 305      21.428   8.729  31.603  1.00 34.21 LIG 0.16  C 
ATOM     33  CB  ALA B 305      21.822   7.831  32.828  1.00 33.59 LIG 0.04  C 
BRANCH 32 34
ATOM     34  C   ALA B 305      22.361   8.422  30.442  1.00 34.64 LIG 0.22  C 
ATOM     35 O    ALA B 305      22.119   7.402  29.750  1.00 35.93 LIG-0.29  OA
ENDBRANCH 32 34
ENDBRANCH 30 32
ENDBRANCH 27 28
BRANCH 27 36
ATOM     36  CB  SER B 304      16.874   9.478  31.202  1.00 32.96 LIG 0.20  C 
BRANCH 36 37
ATOM     37 OG   SER B 304      16.505  10.176  32.381  1.00 37.22 LIG-0.40  OA
ATOM     38 HG   SER B 304      16.680   9.704  33.053  1.00 37.22 LIG 0.21  HD
ENDBRANCH 36 37
ENDBRANCH 27 36
ENDBRANCH 25 27
ENDBRANCH 1 23
TORSDOF 15
ENDMDL
MODEL 56
USER: ADFR SOLUTION from run 132
USER: SCORE 12.882886 LL:  -3.005 LR: -10.654 RR:   0.000 FEB:  -6.179
USER: RMSD 11.746315
USER: SEED 131
USER: STATUS no improvement in best 22 clusters for 5 generations
USER: GENES 17
USER: genes 0 Translation |==|  0.59754 0.76967 0.33830
USER: genes 1 Rotation |==|  0.51729 0.76860 0.22588 0.82002
USER: genes 2 Torsion [C]-CA--N-[C] |==|  0.73353
USER: genes 3 Torsion [N]-C--CA-[N] |==|  0.83119
USER: genes 4 Torsion [C]-CA--N-[C] |==|  0.19768
USER: genes 5 Torsion [N]-C--CA-[N] |==|  0.98483
USER: genes 6 Torsion [C]-CA--N-[H1] |==|  0.71636
USER: genes 7 Torsion [C]-CA--CB-[OG] |==|  0.27974
USER: genes 8 Torsion [CA]-CB--OG-[HG] |==|  0.35426
USER: genes 9 Torsion [N]-CA--CB-[CG1] |==|  0.77433
USER: genes 10 Torsion [N]-CA--C-[N] |==|  0.00070
USER: genes 11 Torsion [C]-N--CA-[C] |==|  0.59563
USER: genes 12 Torsion [N]-CA--C-[N] |==|  0.44665
USER: genes 13 Torsion [C]-N--CA-[CB] |==|  0.80205
USER: genes 14 Torsion [N]-CA--C-[O] |==|  0.40163
USER: genes 15 Torsion [N]-CA--CB-[OG] |==|  0.97409
USER: genes 16 Torsion [CA]-CB--OG-[HG] |==|  0.65558
ROOT
ATOM      1  CA  VAL B 303      16.056  11.870  27.899  1.00 28.18 LIG 0.18  C 
ENDROOT
BRANCH 1 2
ATOM      2  N   VAL B 303      16.551  12.203  29.229  1.00 29.68 LIG-0.35  N 
ATOM      3  C   SER B 302      16.595  11.307  30.212  1.00 31.00 LIG 0.24  C 
ATOM      4 O    SER B 302      16.193  10.144  30.069  1.00 32.88 LIG-0.27  OA
ATOM      5 H    VAL B 303      16.807  13.020  29.316  1.00 29.68 LIG 0.16  HD
BRANCH 3 6
ATOM      6  CA  SER B 302      17.152  11.800  31.562  1.00 30.54 LIG 0.20  C 
BRANCH 6 7
ATOM      7  N   SER B 302      18.537  12.264  31.446  1.00 26.47 LIG-0.34  N 
ATOM      8  C   ALA B 301      18.859  13.395  30.819  1.00 26.40 LIG 0.25  C 
ATOM      9 O    ALA B 301      18.036  14.119  30.256  1.00 23.28 LIG-0.27  OA
ATOM     10 H    SER B 302      19.114  11.745  31.816  1.00 26.47 LIG 0.16  HD
BRANCH 8 11
ATOM     11  CA  ALA B 301      20.344  13.756  30.792  1.00 27.42 LIG 0.27  C 
ATOM     12  CB  ALA B 301      20.887  13.747  29.332  1.00 28.79 LIG 0.05  C 
BRANCH 11 13
ATOM     13  N   ALA B 301      21.120  12.781  31.623  1.00 29.28 LIG-0.07  N 
ATOM     14 H1   ALA B 301      21.318  13.151  32.408  1.00 29.28 LIG 0.28  HD
ATOM     15 H2   ALA B 301      20.631  12.049  31.755  1.00 29.28 LIG 0.28  HD
ATOM     16 H3   ALA B 301      21.872  12.563  31.200  1.00 29.28 LIG 0.28  HD
ENDBRANCH 11 13
ENDBRANCH 8 11
ENDBRANCH 6 7
BRANCH 6 17
ATOM     17  CB  SER B 302      16.244  12.911  32.100  1.00 31.87 LIG 0.20  C 
BRANCH 17 18
ATOM     18 OG   SER B 302      15.379  12.401  33.090  1.00 37.10 LIG-0.40  OA
ATOM     19 HG   SER B 302      15.438  12.872  33.783  1.00 37.10 LIG 0.21  HD
ENDBRANCH 17 18
ENDBRANCH 6 17
ENDBRANCH 3 6
ENDBRANCH 1 2
BRANCH 1 20
ATOM     20  CB  VAL B 303      15.260  13.075  27.265  1.00 29.00 LIG 0.01  C 
ATOM     21  CG1 VAL B 303      13.844  13.094  27.804  1.00 28.23 LIG 0.01  C 
ATOM     22  CG2 VAL B 303      15.940  14.409  27.597  1.00 26.76 LIG 0.01  C 
ENDBRANCH 1 20
BRANCH 1 23
ATOM     23  C   VAL B 303      17.257  11.530  27.032  1.00 28.25 LIG 0.24  C 
ATOM     24 O    VAL B 303      17.109  11.246  25.838  1.00 25.63 LIG-0.27  OA
ATOM     25  N   SER B 304      18.454  11.587  27.600  1.00 28.07 LIG-0.34  N 
ATOM     26 H    SER B 304      18.601  11.821  28.415  1.00 28.07 LIG 0.16  HD
BRANCH 25 27
ATOM     27  CA  SER B 304      19.641  11.237  26.830  1.00 30.78 LIG 0.20  C 
BRANCH 27 28
ATOM     28  C   SER B 304      20.640  10.563  27.780  1.00 31.57 LIG 0.24  C 
ATOM     29 O    SER B 304      20.550  10.732  29.000  1.00 32.88 LIG-0.27  OA
ATOM     30  N   ALA B 305      21.599   9.827  27.222  1.00 33.00 LIG-0.35  N 
ATOM     31 H    ALA B 305      21.685   9.738  26.371  1.00 33.00 LIG 0.16  HD
BRANCH 30 32
ATOM     32  CA  ALA B 305      22.610   9.093  27.995  1.00 34.21 LIG 0.16  C 
ATOM     33  CB  ALA B 305      23.615  10.111  28.640  1.00 33.59 LIG 0.04  C 
BRANCH 32 34
ATOM     34  C   ALA B 305      21.966   8.266  29.098  1.00 34.64 LIG 0.22  C 
ATOM     35 O    ALA B 305      22.481   7.155  29.375  1.00 35.93 LIG-0.29  OA
ENDBRANCH 32 34
ENDBRANCH 30 32
ENDBRANCH 27 28
BRANCH 27 36
ATOM     36  CB  SER B 304      20.255  12.489  26.203  1.00 32.96 LIG 0.20  C 
BRANCH 36 37
ATOM     37 OG   SER B 304      19.373  13.587  26.375  1.00 37.22 LIG-0.40  OA
ATOM     38 HG   SER B 304      19.194  13.923  25.627  1.00 37.22 LIG 0.21  HD
ENDBRANCH 36 37
ENDBRANCH 27 36
ENDBRANCH 25 27
ENDBRANCH 1 23
TORSDOF 15
ENDMDL
MODEL 57
USER: ADFR SOLUTION from run 33
USER: SCORE 14.208525 LL:  -3.697 LR: -10.648 RR:   0.000 FEB:  -6.173
USER: RMSD 5.090008
USER: SEED 32
USER: STATUS no improvement in best 8 clusters for 5 generations
USER: GENES 17
USER: genes 0 Translation |==|  0.51222 0.53049 0.54198
USER: genes 1 Rotation |==|  0.13286 0.17213 0.58703 0.51144
USER: genes 2 Torsion [C]-CA--N-[C] |==|  0.80646
USER: genes 3 Torsion [N]-C--CA-[N] |==|  0.87481
USER: genes 4 Torsion [C]-CA--N-[C] |==|  0.83173
USER: genes 5 Torsion [N]-C--CA-[N] |==|  0.48252
USER: genes 6 Torsion [C]-CA--N-[H1] |==|  0.48710
USER: genes 7 Torsion [C]-CA--CB-[OG] |==|  0.13713
USER: genes 8 Torsion [CA]-CB--OG-[HG] |==|  0.78995
USER: genes 9 Torsion [N]-CA--CB-[CG1] |==|  0.82499
USER: genes 10 Torsion [N]-CA--C-[N] |==|  0.92057
USER: genes 11 Torsion [C]-N--CA-[C] |==|  0.78333
USER: genes 12 Torsion [N]-CA--C-[N] |==|  0.97629
USER: genes 13 Torsion [C]-N--CA-[CB] |==|  0.36353
USER: genes 14 Torsion [N]-CA--C-[O] |==|  0.98650
USER: genes 15 Torsion [N]-CA--CB-[OG] |==|  0.80011
USER: genes 16 Torsion [CA]-CB--OG-[HG] |==|  0.46133
ROOT
ATOM      1  CA  VAL B 303      13.497   4.695  34.009  1.00 28.18 LIG 0.18  C 
ENDROOT
BRANCH 1 2
ATOM      2  N   VAL B 303      12.987   3.359  33.728  1.00 29.68 LIG-0.35  N 
ATOM      3  C   SER B 302      12.224   3.102  32.669  1.00 31.00 LIG 0.24  C 
ATOM      4 O    SER B 302      11.874   3.983  31.872  1.00 32.88 LIG-0.27  OA
ATOM      5 H    VAL B 303      13.223   2.763  34.302  1.00 29.68 LIG 0.16  HD
BRANCH 3 6
ATOM      6  CA  SER B 302      11.767   1.639  32.494  1.00 30.54 LIG 0.20  C 
BRANCH 6 7
ATOM      7  N   SER B 302      12.865   0.694  32.708  1.00 26.47 LIG-0.34  N 
ATOM      8  C   ALA B 301      13.967   0.700  31.957  1.00 26.40 LIG 0.25  C 
ATOM      9 O    ALA B 301      14.138   1.466  31.008  1.00 23.28 LIG-0.27  OA
ATOM     10 H    SER B 302      12.733   0.142  33.354  1.00 26.47 LIG 0.16  HD
BRANCH 8 11
ATOM     11  CA  ALA B 301      15.033  -0.338  32.310  1.00 27.42 LIG 0.27  C 
ATOM     12  CB  ALA B 301      15.625  -0.060  33.724  1.00 28.79 LIG 0.05  C 
BRANCH 11 13
ATOM     13  N   ALA B 301      16.130  -0.306  31.291  1.00 29.28 LIG-0.07  N 
ATOM     14 H1   ALA B 301      16.779  -0.863  31.536  1.00 29.28 LIG 0.28  HD
ATOM     15 H2   ALA B 301      15.808  -0.556  30.500  1.00 29.28 LIG 0.28  HD
ATOM     16 H3   ALA B 301      16.456   0.519  31.230  1.00 29.28 LIG 0.28  HD
ENDBRANCH 11 13
ENDBRANCH 8 11
ENDBRANCH 6 7
BRANCH 6 17
ATOM     17  CB  SER B 302      10.608   1.361  33.456  1.00 31.87 LIG 0.20  C 
BRANCH 17 18
ATOM     18 OG   SER B 302       9.628   2.370  33.349  1.00 37.10 LIG-0.40  OA
ATOM     19 HG   SER B 302       9.898   3.065  33.737  1.00 37.10 LIG 0.21  HD
ENDBRANCH 17 18
ENDBRANCH 6 17
ENDBRANCH 3 6
ENDBRANCH 1 2
BRANCH 1 20
ATOM     20  CB  VAL B 303      14.147   4.770  35.444  1.00 29.00 LIG 0.01  C 
ATOM     21  CG1 VAL B 303      13.095   4.494  36.499  1.00 28.23 LIG 0.01  C 
ATOM     22  CG2 VAL B 303      15.276   3.741  35.583  1.00 26.76 LIG 0.01  C 
ENDBRANCH 1 20
BRANCH 1 23
ATOM     23  C   VAL B 303      14.537   5.024  32.952  1.00 28.25 LIG 0.24  C 
ATOM     24 O    VAL B 303      14.765   6.198  32.640  1.00 25.63 LIG-0.27  OA
ATOM     25  N   SER B 304      15.203   4.010  32.416  1.00 28.07 LIG-0.34  N 
ATOM     26 H    SER B 304      15.103   3.184  32.636  1.00 28.07 LIG 0.16  HD
BRANCH 25 27
ATOM     27  CA  SER B 304      16.187   4.259  31.371  1.00 30.78 LIG 0.20  C 
BRANCH 27 28
ATOM     28  C   SER B 304      15.433   4.495  30.056  1.00 31.57 LIG 0.24  C 
ATOM     29 O    SER B 304      16.035   4.904  29.058  1.00 32.88 LIG-0.27  OA
ATOM     30  N   ALA B 305      14.122   4.262  30.064  1.00 33.00 LIG-0.35  N 
ATOM     31 H    ALA B 305      13.695   4.011  30.767  1.00 33.00 LIG 0.16  HD
BRANCH 30 32
ATOM     32  CA  ALA B 305      13.266   4.409  28.877  1.00 34.21 LIG 0.16  C 
ATOM     33  CB  ALA B 305      12.380   3.125  28.711  1.00 33.59 LIG 0.04  C 
BRANCH 32 34
ATOM     34  C   ALA B 305      12.360   5.625  29.000  1.00 34.64 LIG 0.22  C 
ATOM     35 O    ALA B 305      12.380   6.264  30.081  1.00 35.93 LIG-0.29  OA
ENDBRANCH 32 34
ENDBRANCH 30 32
ENDBRANCH 27 28
BRANCH 27 36
ATOM     36  CB  SER B 304      17.136   3.067  31.241  1.00 32.96 LIG 0.20  C 
BRANCH 36 37
ATOM     37 OG   SER B 304      18.005   3.028  32.362  1.00 37.22 LIG-0.40  OA
ATOM     38 HG   SER B 304      18.391   2.283  32.392  1.00 37.22 LIG 0.21  HD
ENDBRANCH 36 37
ENDBRANCH 27 36
ENDBRANCH 25 27
ENDBRANCH 1 23
TORSDOF 15
ENDMDL
MODEL 58
USER: ADFR SOLUTION from run 135
USER: SCORE 12.519738 LL:  -2.513 LR: -10.655 RR:   0.000 FEB:  -6.180
USER: RMSD 4.593058
USER: SEED 134
USER: STATUS no improvement in best 13 clusters for 5 generations
USER: GENES 17
USER: genes 0 Translation |==|  0.57256 0.52466 0.43685
USER: genes 1 Rotation |==|  0.60642 0.71481 0.65771 0.90946
USER: genes 2 Torsion [C]-CA--N-[C] |==|  0.74474
USER: genes 3 Torsion [N]-C--CA-[N] |==|  0.30762
USER: genes 4 Torsion [C]-CA--N-[C] |==|  0.72222
USER: genes 5 Torsion [N]-C--CA-[N] |==|  0.95767
USER: genes 6 Torsion [C]-CA--N-[H1] |==|  0.25369
USER: genes 7 Torsion [C]-CA--CB-[OG] |==|  0.97527
USER: genes 8 Torsion [CA]-CB--OG-[HG] |==|  0.70013
USER: genes 9 Torsion [N]-CA--CB-[CG1] |==|  0.66273
USER: genes 10 Torsion [N]-CA--C-[N] |==|  0.12850
USER: genes 11 Torsion [C]-N--CA-[C] |==|  0.83602
USER: genes 12 Torsion [N]-CA--C-[N] |==|  0.39687
USER: genes 13 Torsion [C]-N--CA-[CB] |==|  0.83651
USER: genes 14 Torsion [N]-CA--C-[O] |==|  0.33644
USER: genes 15 Torsion [N]-CA--CB-[OG] |==|  0.06883
USER: genes 16 Torsion [CA]-CB--OG-[HG] |==|  0.78319
ROOT
ATOM      1  CA  VAL B 303      15.307   4.520  30.856  1.00 28.18 LIG 0.18  C 
ENDROOT
BRANCH 1 2
ATOM      2  N   VAL B 303      15.394   3.415  31.802  1.00 29.68 LIG-0.35  N 
ATOM      3  C   SER B 302      16.500   2.689  31.943  1.00 31.00 LIG 0.24  C 
ATOM      4 O    SER B 302      17.515   2.885  31.260  1.00 32.88 LIG-0.27  OA
ATOM      5 H    VAL B 303      14.674   3.280  32.254  1.00 29.68 LIG 0.16  HD
BRANCH 3 6
ATOM      6  CA  SER B 302      16.447   1.559  32.990  1.00 30.54 LIG 0.20  C 
BRANCH 6 7
ATOM      7  N   SER B 302      16.467   0.234  32.367  1.00 26.47 LIG-0.34  N 
ATOM      8  C   ALA B 301      15.360  -0.488  32.193  1.00 26.40 LIG 0.25  C 
ATOM      9 O    ALA B 301      14.245  -0.124  32.569  1.00 23.28 LIG-0.27  OA
ATOM     10 H    SER B 302      17.250  -0.031  32.128  1.00 26.47 LIG 0.16  HD
BRANCH 8 11
ATOM     11  CA  ALA B 301      15.536  -1.846  31.514  1.00 27.42 LIG 0.27  C 
ATOM     12  CB  ALA B 301      15.399  -3.001  32.552  1.00 28.79 LIG 0.05  C 
BRANCH 11 13
ATOM     13  N   ALA B 301      16.880  -1.917  30.858  1.00 29.28 LIG-0.07  N 
ATOM     14 H1   ALA B 301      17.472  -2.259  31.428  1.00 29.28 LIG 0.28  HD
ATOM     15 H2   ALA B 301      16.831  -2.434  30.136  1.00 29.28 LIG 0.28  HD
ATOM     16 H3   ALA B 301      17.138  -1.099  30.619  1.00 29.28 LIG 0.28  HD
ENDBRANCH 11 13
ENDBRANCH 8 11
ENDBRANCH 6 7
BRANCH 6 17
ATOM     17  CB  SER B 302      17.620   1.726  33.962  1.00 31.87 LIG 0.20  C 
BRANCH 17 18
ATOM     18 OG   SER B 302      18.503   2.724  33.499  1.00 37.10 LIG-0.40  OA
ATOM     19 HG   SER B 302      19.210   2.366  33.222  1.00 37.10 LIG 0.21  HD
ENDBRANCH 17 18
ENDBRANCH 6 17
ENDBRANCH 3 6
ENDBRANCH 1 2
BRANCH 1 20
ATOM     20  CB  VAL B 303      13.846   4.667  30.279  1.00 29.00 LIG 0.01  C 
ATOM     21  CG1 VAL B 303      13.876   4.536  28.769  1.00 28.23 LIG 0.01  C 
ATOM     22  CG2 VAL B 303      12.923   3.588  30.857  1.00 26.76 LIG 0.01  C 
ENDBRANCH 1 20
BRANCH 1 23
ATOM     23  C   VAL B 303      15.704   5.789  31.591  1.00 28.25 LIG 0.24  C 
ATOM     24 O    VAL B 303      15.008   6.808  31.504  1.00 25.63 LIG-0.27  OA
ATOM     25  N   SER B 304      16.794   5.741  32.345  1.00 28.07 LIG-0.34  N 
ATOM     26 H    SER B 304      17.279   5.041  32.463  1.00 28.07 LIG 0.16  HD
BRANCH 25 27
ATOM     27  CA  SER B 304      17.245   6.936  33.045  1.00 30.78 LIG 0.20  C 
BRANCH 27 28
ATOM     28  C   SER B 304      17.512   8.026  31.999  1.00 31.57 LIG 0.24  C 
ATOM     29 O    SER B 304      18.023   7.735  30.912  1.00 32.88 LIG-0.27  OA
ATOM     30  N   ALA B 305      17.193   9.275  32.335  1.00 33.00 LIG-0.35  N 
ATOM     31 H    ALA B 305      16.871   9.485  33.104  1.00 33.00 LIG 0.16  HD
BRANCH 30 32
ATOM     32  CA  ALA B 305      17.356  10.423  31.432  1.00 34.21 LIG 0.16  C 
ATOM     33  CB  ALA B 305      18.864  10.547  31.013  1.00 33.59 LIG 0.04  C 
BRANCH 32 34
ATOM     34  C   ALA B 305      16.505  10.266  30.182  1.00 34.64 LIG 0.22  C 
ATOM     35 O    ALA B 305      15.650  11.153  29.939  1.00 35.93 LIG-0.29  OA
ENDBRANCH 32 34
ENDBRANCH 30 32
ENDBRANCH 27 28
BRANCH 27 36
ATOM     36  CB  SER B 304      18.513   6.636  33.845  1.00 32.96 LIG 0.20  C 
BRANCH 36 37
ATOM     37 OG   SER B 304      19.191   5.534  33.263  1.00 37.22 LIG-0.40  OA
ATOM     38 HG   SER B 304      18.808   4.820  33.485  1.00 37.22 LIG 0.21  HD
ENDBRANCH 36 37
ENDBRANCH 27 36
ENDBRANCH 25 27
ENDBRANCH 1 23
TORSDOF 15
ENDMDL
MODEL 59
USER: ADFR SOLUTION from run 102
USER: SCORE 12.905219 LL:  -2.566 LR: -10.643 RR:   0.000 FEB:  -6.169
USER: RMSD 4.047990
USER: SEED 101
USER: STATUS no improvement in best 12 clusters for 5 generations
USER: GENES 17
USER: genes 0 Translation |==|  0.52673 0.51147 0.40170
USER: genes 1 Rotation |==|  0.61517 0.63603 0.65791 0.93965
USER: genes 2 Torsion [C]-CA--N-[C] |==|  0.14374
USER: genes 3 Torsion [N]-C--CA-[N] |==|  0.09027
USER: genes 4 Torsion [C]-CA--N-[C] |==|  0.15610
USER: genes 5 Torsion [N]-C--CA-[N] |==|  0.18903
USER: genes 6 Torsion [C]-CA--N-[H1] |==|  0.88308
USER: genes 7 Torsion [C]-CA--CB-[OG] |==|  0.91216
USER: genes 8 Torsion [CA]-CB--OG-[HG] |==|  0.25623
USER: genes 9 Torsion [N]-CA--CB-[CG1] |==|  0.89115
USER: genes 10 Torsion [N]-CA--C-[N] |==|  0.09828
USER: genes 11 Torsion [C]-N--CA-[C] |==|  0.75950
USER: genes 12 Torsion [N]-CA--C-[N] |==|  0.36471
USER: genes 13 Torsion [C]-N--CA-[CB] |==|  0.17604
USER: genes 14 Torsion [N]-CA--C-[O] |==|  0.96150
USER: genes 15 Torsion [N]-CA--CB-[OG] |==|  0.78588
USER: genes 16 Torsion [CA]-CB--OG-[HG] |==|  0.24224
ROOT
ATOM      1  CA  VAL B 303      13.932   4.124  29.801  1.00 28.18 LIG 0.18  C 
ENDROOT
BRANCH 1 2
ATOM      2  N   VAL B 303      13.616   2.943  30.594  1.00 29.68 LIG-0.35  N 
ATOM      3  C   SER B 302      12.696   2.961  31.554  1.00 31.00 LIG 0.24  C 
ATOM      4 O    SER B 302      12.070   3.987  31.856  1.00 32.88 LIG-0.27  OA
ATOM      5 H    VAL B 303      14.075   2.245  30.385  1.00 29.68 LIG 0.16  HD
BRANCH 3 6
ATOM      6  CA  SER B 302      12.463   1.633  32.303  1.00 30.54 LIG 0.20  C 
BRANCH 6 7
ATOM      7  N   SER B 302      13.691   0.841  32.408  1.00 26.47 LIG-0.34  N 
ATOM      8  C   ALA B 301      14.804   1.323  32.959  1.00 26.40 LIG 0.25  C 
ATOM      9 O    ALA B 301      14.908   2.473  33.389  1.00 23.28 LIG-0.27  OA
ATOM     10 H    SER B 302      13.625   0.047  32.084  1.00 26.47 LIG 0.16  HD
BRANCH 8 11
ATOM     11  CA  ALA B 301      16.001   0.373  33.011  1.00 27.42 LIG 0.27  C 
ATOM     12  CB  ALA B 301      17.145   0.976  33.880  1.00 28.79 LIG 0.05  C 
BRANCH 11 13
ATOM     13  N   ALA B 301      16.505   0.114  31.625  1.00 29.28 LIG-0.07  N 
ATOM     14 H1   ALA B 301      15.815  -0.005  31.075  1.00 29.28 LIG 0.28  HD
ATOM     15 H2   ALA B 301      16.987   0.809  31.350  1.00 29.28 LIG 0.28  HD
ATOM     16 H3   ALA B 301      17.013  -0.617  31.625  1.00 29.28 LIG 0.28  HD
ENDBRANCH 11 13
ENDBRANCH 8 11
ENDBRANCH 6 7
BRANCH 6 17
ATOM     17  CB  SER B 302      11.886   1.937  33.689  1.00 31.87 LIG 0.20  C 
BRANCH 17 18
ATOM     18 OG   SER B 302      12.377   3.171  34.165  1.00 37.10 LIG-0.40  OA
ATOM     19 HG   SER B 302      11.847   3.785  33.950  1.00 37.10 LIG 0.21  HD
ENDBRANCH 17 18
ENDBRANCH 6 17
ENDBRANCH 3 6
ENDBRANCH 1 2
BRANCH 1 20
ATOM     20  CB  VAL B 303      12.736   4.513  28.849  1.00 29.00 LIG 0.01  C 
ATOM     21  CG1 VAL B 303      12.106   3.258  28.279  1.00 28.23 LIG 0.01  C 
ATOM     22  CG2 VAL B 303      11.668   5.304  29.614  1.00 26.76 LIG 0.01  C 
ENDBRANCH 1 20
BRANCH 1 23
ATOM     23  C   VAL B 303      14.217   5.264  30.765  1.00 28.25 LIG 0.24  C 
ATOM     24 O    VAL B 303      13.855   6.416  30.500  1.00 25.63 LIG-0.27  OA
ATOM     25  N   SER B 304      14.831   4.961  31.901  1.00 28.07 LIG-0.34  N 
ATOM     26 H    SER B 304      15.060   4.167  32.140  1.00 28.07 LIG 0.16  HD
BRANCH 25 27
ATOM     27  CA  SER B 304      15.164   6.016  32.850  1.00 30.78 LIG 0.20  C 
BRANCH 27 28
ATOM     28  C   SER B 304      16.528   6.595  32.454  1.00 31.57 LIG 0.24  C 
ATOM     29 O    SER B 304      17.486   5.844  32.245  1.00 32.88 LIG-0.27  OA
ATOM     30  N   ALA B 305      16.620   7.921  32.378  1.00 33.00 LIG-0.35  N 
ATOM     31 H    ALA B 305      15.964   8.447  32.558  1.00 33.00 LIG 0.16  HD
BRANCH 30 32
ATOM     32  CA  ALA B 305      17.848   8.627  31.980  1.00 34.21 LIG 0.16  C 
ATOM     33  CB  ALA B 305      18.210   8.249  30.501  1.00 33.59 LIG 0.04  C 
BRANCH 32 34
ATOM     34  C   ALA B 305      17.672  10.134  32.079  1.00 34.64 LIG 0.22  C 
ATOM     35 O    ALA B 305      16.505  10.582  32.204  1.00 35.93 LIG-0.29  OA
ENDBRANCH 32 34
ENDBRANCH 30 32
ENDBRANCH 27 28
BRANCH 27 36
ATOM     36  CB  SER B 304      15.208   5.457  34.272  1.00 32.96 LIG 0.20  C 
BRANCH 36 37
ATOM     37 OG   SER B 304      13.885   5.281  34.754  1.00 37.22 LIG-0.40  OA
ATOM     38 HG   SER B 304      13.602   4.524  34.526  1.00 37.22 LIG 0.21  HD
ENDBRANCH 36 37
ENDBRANCH 27 36
ENDBRANCH 25 27
ENDBRANCH 1 23
TORSDOF 15
ENDMDL
MODEL 60
USER: ADFR SOLUTION from run 11
USER: SCORE 12.481111 LL:  -2.684 LR: -10.607 RR:   0.000 FEB:  -6.132
USER: RMSD 7.302830
USER: SEED 50034
USER: STATUS no improvement in best 11 clusters for 5 generations
USER: GENES 17
USER: genes 0 Translation |==|  0.65812 0.66019 0.46429
USER: genes 1 Rotation |==|  0.35538 0.29079 0.68355 0.88939
USER: genes 2 Torsion [C]-CA--N-[C] |==|  0.58335
USER: genes 3 Torsion [N]-C--CA-[N] |==|  0.49857
USER: genes 4 Torsion [C]-CA--N-[C] |==|  0.77350
USER: genes 5 Torsion [N]-C--CA-[N] |==|  0.45941
USER: genes 6 Torsion [C]-CA--N-[H1] |==|  0.28030
USER: genes 7 Torsion [C]-CA--CB-[OG] |==|  0.77201
USER: genes 8 Torsion [CA]-CB--OG-[HG] |==|  0.22910
USER: genes 9 Torsion [N]-CA--CB-[CG1] |==|  0.27127
USER: genes 10 Torsion [N]-CA--C-[N] |==|  0.43271
USER: genes 11 Torsion [C]-N--CA-[C] |==|  0.65345
USER: genes 12 Torsion [N]-CA--C-[N] |==|  0.90631
USER: genes 13 Torsion [C]-N--CA-[CB] |==|  0.41738
USER: genes 14 Torsion [N]-CA--C-[O] |==|  0.81415
USER: genes 15 Torsion [N]-CA--CB-[OG] |==|  0.77353
USER: genes 16 Torsion [CA]-CB--OG-[HG] |==|  0.39039
ROOT
ATOM      1  CA  VAL B 303      17.874   8.586  31.679  1.00 28.18 LIG 0.18  C 
ENDROOT
BRANCH 1 2
ATOM      2  N   VAL B 303      16.885   7.517  31.614  1.00 29.68 LIG-0.35  N 
ATOM      3  C   SER B 302      16.971   6.427  32.372  1.00 31.00 LIG 0.24  C 
ATOM      4 O    SER B 302      17.909   6.237  33.159  1.00 32.88 LIG-0.27  OA
ATOM      5 H    VAL B 303      16.252   7.657  31.049  1.00 29.68 LIG 0.16  HD
BRANCH 3 6
ATOM      6  CA  SER B 302      15.847   5.386  32.202  1.00 30.54 LIG 0.20  C 
BRANCH 6 7
ATOM      7  N   SER B 302      16.042   4.223  33.071  1.00 26.47 LIG-0.34  N 
ATOM      8  C   ALA B 301      16.863   3.223  32.749  1.00 26.40 LIG 0.25  C 
ATOM      9 O    ALA B 301      17.490   3.173  31.689  1.00 23.28 LIG-0.27  OA
ATOM     10 H    SER B 302      15.584   4.246  33.798  1.00 26.47 LIG 0.16  HD
BRANCH 8 11
ATOM     11  CA  ALA B 301      16.975   2.084  33.762  1.00 27.42 LIG 0.27  C 
ATOM     12  CB  ALA B 301      17.801   2.533  35.005  1.00 28.79 LIG 0.05  C 
BRANCH 11 13
ATOM     13  N   ALA B 301      17.630   0.898  33.125  1.00 29.28 LIG-0.07  N 
ATOM     14 H1   ALA B 301      18.485   0.864  33.370  1.00 29.28 LIG 0.28  HD
ATOM     15 H2   ALA B 301      17.217   0.154  33.386  1.00 29.28 LIG 0.28  HD
ATOM     16 H3   ALA B 301      17.578   0.970  32.240  1.00 29.28 LIG 0.28  HD
ENDBRANCH 11 13
ENDBRANCH 8 11
ENDBRANCH 6 7
BRANCH 6 17
ATOM     17  CB  SER B 302      14.498   6.058  32.481  1.00 31.87 LIG 0.20  C 
BRANCH 17 18
ATOM     18 OG   SER B 302      14.255   6.113  33.869  1.00 37.10 LIG-0.40  OA
ATOM     19 HG   SER B 302      14.653   6.776  34.197  1.00 37.10 LIG 0.21  HD
ENDBRANCH 17 18
ENDBRANCH 6 17
ENDBRANCH 3 6
ENDBRANCH 1 2
BRANCH 1 20
ATOM     20  CB  VAL B 303      19.057   8.334  30.667  1.00 29.00 LIG 0.01  C 
ATOM     21  CG1 VAL B 303      18.821   9.125  29.396  1.00 28.23 LIG 0.01  C 
ATOM     22  CG2 VAL B 303      20.396   8.763  31.280  1.00 26.76 LIG 0.01  C 
ENDBRANCH 1 20
BRANCH 1 23
ATOM     23  C   VAL B 303      17.168   9.888  31.337  1.00 28.25 LIG 0.24  C 
ATOM     24 O    VAL B 303      16.118   9.880  30.685  1.00 25.63 LIG-0.27  OA
ATOM     25  N   SER B 304      17.707  11.010  31.794  1.00 28.07 LIG-0.34  N 
ATOM     26 H    SER B 304      18.411  11.053  32.285  1.00 28.07 LIG 0.16  HD
BRANCH 25 27
ATOM     27  CA  SER B 304      17.096  12.293  31.469  1.00 30.78 LIG 0.20  C 
BRANCH 27 28
ATOM     28  C   SER B 304      18.169  13.176  30.817  1.00 31.57 LIG 0.24  C 
ATOM     29 O    SER B 304      17.863  13.965  29.918  1.00 32.88 LIG-0.27  OA
ATOM     30  N   ALA B 305      19.419  13.024  31.250  1.00 33.00 LIG-0.35  N 
ATOM     31 H    ALA B 305      19.640  12.449  31.851  1.00 33.00 LIG 0.16  HD
BRANCH 30 32
ATOM     32  CA  ALA B 305      20.551  13.817  30.750  1.00 34.21 LIG 0.16  C 
ATOM     33  CB  ALA B 305      21.625  13.966  31.885  1.00 33.59 LIG 0.04  C 
BRANCH 32 34
ATOM     34  C   ALA B 305      21.196  13.154  29.542  1.00 34.64 LIG 0.22  C 
ATOM     35 O    ALA B 305      21.787  12.061  29.719  1.00 35.93 LIG-0.29  OA
ENDBRANCH 32 34
ENDBRANCH 30 32
ENDBRANCH 27 28
BRANCH 27 36
ATOM     36  CB  SER B 304      16.549  12.956  32.733  1.00 32.96 LIG 0.20  C 
BRANCH 36 37
ATOM     37 OG   SER B 304      15.278  12.408  33.044  1.00 37.22 LIG-0.40  OA
ATOM     38 HG   SER B 304      15.210  12.311  33.875  1.00 37.22 LIG 0.21  HD
ENDBRANCH 36 37
ENDBRANCH 27 36
ENDBRANCH 25 27
ENDBRANCH 1 23
TORSDOF 15
ENDMDL
MODEL 61
USER: ADFR SOLUTION from run 40
USER: SCORE 12.159267 LL:  -2.064 LR: -10.606 RR:   0.000 FEB:  -6.131
USER: RMSD 8.703657
USER: SEED 39
USER: STATUS no improvement in best 13 clusters for 5 generations
USER: GENES 17
USER: genes 0 Translation |==|  0.52884 0.57348 0.49164
USER: genes 1 Rotation |==|  0.40782 0.46973 0.01701 0.58547
USER: genes 2 Torsion [C]-CA--N-[C] |==|  0.15091
USER: genes 3 Torsion [N]-C--CA-[N] |==|  0.94444
USER: genes 4 Torsion [C]-CA--N-[C] |==|  0.70070
USER: genes 5 Torsion [N]-C--CA-[N] |==|  0.30413
USER: genes 6 Torsion [C]-CA--N-[H1] |==|  0.65152
USER: genes 7 Torsion [C]-CA--CB-[OG] |==|  0.66727
USER: genes 8 Torsion [CA]-CB--OG-[HG] |==|  0.12365
USER: genes 9 Torsion [N]-CA--CB-[CG1] |==|  0.23059
USER: genes 10 Torsion [N]-CA--C-[N] |==|  0.07705
USER: genes 11 Torsion [C]-N--CA-[C] |==|  0.79531
USER: genes 12 Torsion [N]-CA--C-[N] |==|  0.88699
USER: genes 13 Torsion [C]-N--CA-[CB] |==|  0.87041
USER: genes 14 Torsion [N]-CA--C-[O] |==|  0.33122
USER: genes 15 Torsion [N]-CA--CB-[OG] |==|  0.05137
USER: genes 16 Torsion [CA]-CB--OG-[HG] |==|  0.13863
ROOT
ATOM      1  CA  VAL B 303      13.995   5.985  32.499  1.00 28.18 LIG 0.18  C 
ENDROOT
BRANCH 1 2
ATOM      2  N   VAL B 303      15.253   6.709  32.626  1.00 29.68 LIG-0.35  N 
ATOM      3  C   SER B 302      16.430   6.127  32.414  1.00 31.00 LIG 0.24  C 
ATOM      4 O    SER B 302      16.535   4.927  32.124  1.00 32.88 LIG-0.27  OA
ATOM      5 H    VAL B 303      15.162   7.536  32.848  1.00 29.68 LIG 0.16  HD
BRANCH 3 6
ATOM      6  CA  SER B 302      17.675   7.021  32.576  1.00 30.54 LIG 0.20  C 
BRANCH 6 7
ATOM      7  N   SER B 302      17.343   8.445  32.478  1.00 26.47 LIG-0.34  N 
ATOM      8  C   ALA B 301      17.675   9.182  31.418  1.00 26.40 LIG 0.25  C 
ATOM      9 O    ALA B 301      18.315   8.745  30.460  1.00 23.28 LIG-0.27  OA
ATOM     10 H    SER B 302      16.919   8.755  33.159  1.00 26.47 LIG 0.16  HD
BRANCH 8 11
ATOM     11  CA  ALA B 301      17.247  10.649  31.452  1.00 27.42 LIG 0.27  C 
ATOM     12  CB  ALA B 301      16.502  11.036  30.139  1.00 28.79 LIG 0.05  C 
BRANCH 11 13
ATOM     13  N   ALA B 301      18.449  11.526  31.625  1.00 29.28 LIG-0.07  N 
ATOM     14 H1   ALA B 301      18.330  12.057  32.329  1.00 29.28 LIG 0.28  HD
ATOM     15 H2   ALA B 301      19.169  11.020  31.754  1.00 29.28 LIG 0.28  HD
ATOM     16 H3   ALA B 301      18.562  12.022  30.896  1.00 29.28 LIG 0.28  HD
ENDBRANCH 11 13
ENDBRANCH 8 11
ENDBRANCH 6 7
BRANCH 6 17
ATOM     17  CB  SER B 302      18.344   6.706  33.918  1.00 31.87 LIG 0.20  C 
BRANCH 17 18
ATOM     18 OG   SER B 302      18.378   7.857  34.732  1.00 37.10 LIG-0.40  OA
ATOM     19 HG   SER B 302      17.633   8.244  34.702  1.00 37.10 LIG 0.21  HD
ENDBRANCH 17 18
ENDBRANCH 6 17
ENDBRANCH 3 6
ENDBRANCH 1 2
BRANCH 1 20
ATOM     20  CB  VAL B 303      13.733   5.548  31.006  1.00 29.00 LIG 0.01  C 
ATOM     21  CG1 VAL B 303      14.476   4.261  30.711  1.00 28.23 LIG 0.01  C 
ATOM     22  CG2 VAL B 303      12.235   5.328  30.760  1.00 26.76 LIG 0.01  C 
ENDBRANCH 1 20
BRANCH 1 23
ATOM     23  C   VAL B 303      14.079   4.756  33.390  1.00 28.25 LIG 0.24  C 
ATOM     24 O    VAL B 303      13.457   3.728  33.102  1.00 25.63 LIG-0.27  OA
ATOM     25  N   SER B 304      14.867   4.829  34.455  1.00 28.07 LIG-0.34  N 
ATOM     26 H    SER B 304      15.347   5.510  34.666  1.00 28.07 LIG 0.16  HD
BRANCH 25 27
ATOM     27  CA  SER B 304      14.961   3.696  35.367  1.00 30.78 LIG 0.20  C 
BRANCH 27 28
ATOM     28  C   SER B 304      13.663   3.637  36.183  1.00 31.57 LIG 0.24  C 
ATOM     29 O    SER B 304      13.116   2.552  36.405  1.00 32.88 LIG-0.27  OA
ATOM     30  N   ALA B 305      13.162   4.797  36.603  1.00 33.00 LIG-0.35  N 
ATOM     31 H    ALA B 305      13.521   5.556  36.419  1.00 33.00 LIG 0.16  HD
BRANCH 30 32
ATOM     32  CA  ALA B 305      11.945   4.905  37.422  1.00 34.21 LIG 0.16  C 
ATOM     33  CB  ALA B 305      10.821   3.998  36.808  1.00 33.59 LIG 0.04  C 
BRANCH 32 34
ATOM     34  C   ALA B 305      12.207   4.469  38.855  1.00 34.64 LIG 0.22  C 
ATOM     35 O    ALA B 305      12.028   5.314  39.767  1.00 35.93 LIG-0.29  OA
ENDBRANCH 32 34
ENDBRANCH 30 32
ENDBRANCH 27 28
BRANCH 27 36
ATOM     36  CB  SER B 304      16.169   3.857  36.289  1.00 32.96 LIG 0.20  C 
BRANCH 36 37
ATOM     37 OG   SER B 304      16.587   5.212  36.293  1.00 37.22 LIG-0.40  OA
ATOM     38 HG   SER B 304      15.925   5.709  36.434  1.00 37.22 LIG 0.21  HD
ENDBRANCH 36 37
ENDBRANCH 27 36
ENDBRANCH 25 27
ENDBRANCH 1 23
TORSDOF 15
ENDMDL
MODEL 62
USER: ADFR SOLUTION from run 90
USER: SCORE 12.630253 LL:  -2.548 LR: -10.614 RR:   0.000 FEB:  -6.140
USER: RMSD 7.782723
USER: SEED 89
USER: STATUS no improvement in best 12 clusters for 5 generations
USER: GENES 17
USER: genes 0 Translation |==|  0.67984 0.66528 0.49373
USER: genes 1 Rotation |==|  0.32329 0.54685 0.77904 0.87245
USER: genes 2 Torsion [C]-CA--N-[C] |==|  0.56667
USER: genes 3 Torsion [N]-C--CA-[N] |==|  0.10599
USER: genes 4 Torsion [C]-CA--N-[C] |==|  0.15308
USER: genes 5 Torsion [N]-C--CA-[N] |==|  0.90767
USER: genes 6 Torsion [C]-CA--N-[H1] |==|  0.27045
USER: genes 7 Torsion [C]-CA--CB-[OG] |==|  0.27613
USER: genes 8 Torsion [CA]-CB--OG-[HG] |==|  0.68570
USER: genes 9 Torsion [N]-CA--CB-[CG1] |==|  0.13561
USER: genes 10 Torsion [N]-CA--C-[N] |==|  0.34661
USER: genes 11 Torsion [C]-N--CA-[C] |==|  0.79130
USER: genes 12 Torsion [N]-CA--C-[N] |==|  0.47598
USER: genes 13 Torsion [C]-N--CA-[CB] |==|  0.47863
USER: genes 14 Torsion [N]-CA--C-[O] |==|  0.36122
USER: genes 15 Torsion [N]-CA--CB-[OG] |==|  0.07394
USER: genes 16 Torsion [CA]-CB--OG-[HG] |==|  0.83609
ROOT
ATOM      1  CA  VAL B 303      18.525   8.738  32.562  1.00 28.18 LIG 0.18  C 
ENDROOT
BRANCH 1 2
ATOM      2  N   VAL B 303      18.100   8.157  33.829  1.00 29.68 LIG-0.35  N 
ATOM      3  C   SER B 302      18.959   7.584  34.668  1.00 31.00 LIG 0.24  C 
ATOM      4 O    SER B 302      20.167   7.481  34.414  1.00 32.88 LIG-0.27  OA
ATOM      5 H    VAL B 303      17.255   8.220  33.980  1.00 29.68 LIG 0.16  HD
BRANCH 3 6
ATOM      6  CA  SER B 302      18.366   7.021  35.975  1.00 30.54 LIG 0.20  C 
BRANCH 6 7
ATOM      7  N   SER B 302      17.055   6.403  35.760  1.00 26.47 LIG-0.34  N 
ATOM      8  C   ALA B 301      16.863   5.434  34.865  1.00 26.40 LIG 0.25  C 
ATOM      9 O    ALA B 301      17.750   5.007  34.124  1.00 23.28 LIG-0.27  OA
ATOM     10 H    SER B 302      16.431   6.721  36.259  1.00 26.47 LIG 0.16  HD
BRANCH 8 11
ATOM     11  CA  ALA B 301      15.443   4.877  34.764  1.00 27.42 LIG 0.27  C 
ATOM     12  CB  ALA B 301      14.596   5.708  33.754  1.00 28.79 LIG 0.05  C 
BRANCH 11 13
ATOM     13  N   ALA B 301      14.788   4.905  36.111  1.00 29.28 LIG-0.07  N 
ATOM     14 H1   ALA B 301      14.280   5.633  36.179  1.00 29.28 LIG 0.28  HD
ATOM     15 H2   ALA B 301      14.282   4.180  36.210  1.00 29.28 LIG 0.28  HD
ATOM     16 H3   ALA B 301      15.413   4.920  36.745  1.00 29.28 LIG 0.28  HD
ENDBRANCH 11 13
ENDBRANCH 8 11
ENDBRANCH 6 7
BRANCH 6 17
ATOM     17  CB  SER B 302      19.353   6.018  36.579  1.00 31.87 LIG 0.20  C 
BRANCH 17 18
ATOM     18 OG   SER B 302      20.101   6.626  37.610  1.00 37.10 LIG-0.40  OA
ATOM     19 HG   SER B 302      20.906   6.682  37.375  1.00 37.10 LIG 0.21  HD
ENDBRANCH 17 18
ENDBRANCH 6 17
ENDBRANCH 3 6
ENDBRANCH 1 2
BRANCH 1 20
ATOM     20  CB  VAL B 303      18.637   7.640  31.436  1.00 29.00 LIG 0.01  C 
ATOM     21  CG1 VAL B 303      17.379   6.794  31.418  1.00 28.23 LIG 0.01  C 
ATOM     22  CG2 VAL B 303      18.822   8.290  30.059  1.00 26.76 LIG 0.01  C 
ENDBRANCH 1 20
BRANCH 1 23
ATOM     23  C   VAL B 303      17.495   9.783  32.165  1.00 28.25 LIG 0.24  C 
ATOM     24 O    VAL B 303      16.296   9.490  32.104  1.00 25.63 LIG-0.27  OA
ATOM     25  N   SER B 304      17.935  11.012  31.927  1.00 28.07 LIG-0.34  N 
ATOM     26 H    SER B 304      18.754  11.264  31.999  1.00 28.07 LIG 0.16  HD
BRANCH 25 27
ATOM     27  CA  SER B 304      17.000  12.048  31.507  1.00 30.78 LIG 0.20  C 
BRANCH 27 28
ATOM     28  C   SER B 304      16.641  11.795  30.037  1.00 31.57 LIG 0.24  C 
ATOM     29 O    SER B 304      17.265  10.956  29.379  1.00 32.88 LIG-0.27  OA
ATOM     30  N   ALA B 305      15.661  12.534  29.521  1.00 33.00 LIG-0.35  N 
ATOM     31 H    ALA B 305      15.250  13.144  29.967  1.00 33.00 LIG 0.16  HD
BRANCH 30 32
ATOM     32  CA  ALA B 305      15.179  12.389  28.140  1.00 34.21 LIG 0.16  C 
ATOM     33  CB  ALA B 305      13.899  13.275  27.938  1.00 33.59 LIG 0.04  C 
BRANCH 32 34
ATOM     34  C   ALA B 305      16.241  12.817  27.138  1.00 34.64 LIG 0.22  C 
ATOM     35 O    ALA B 305      16.505  12.033  26.193  1.00 35.93 LIG-0.29  OA
ENDBRANCH 32 34
ENDBRANCH 30 32
ENDBRANCH 27 28
BRANCH 27 36
ATOM     36  CB  SER B 304      17.630  13.431  31.677  1.00 32.96 LIG 0.20  C 
BRANCH 36 37
ATOM     37 OG   SER B 304      19.042  13.323  31.589  1.00 37.22 LIG-0.40  OA
ATOM     38 HG   SER B 304      19.321  12.801  32.185  1.00 37.22 LIG 0.21  HD
ENDBRANCH 36 37
ENDBRANCH 27 36
ENDBRANCH 25 27
ENDBRANCH 1 23
TORSDOF 15
ENDMDL
MODEL 63
USER: ADFR SOLUTION from run 72
USER: SCORE 12.566957 LL:  -2.828 LR: -10.599 RR:   0.000 FEB:  -6.125
USER: RMSD 8.377622
USER: SEED 71
USER: STATUS no improvement in best 16 clusters for 5 generations
USER: GENES 17
USER: genes 0 Translation |==|  0.48728 0.50023 0.44424
USER: genes 1 Rotation |==|  0.55247 0.44117 0.01172 0.57330
USER: genes 2 Torsion [C]-CA--N-[C] |==|  0.57323
USER: genes 3 Torsion [N]-C--CA-[N] |==|  0.99157
USER: genes 4 Torsion [C]-CA--N-[C] |==|  0.81111
USER: genes 5 Torsion [N]-C--CA-[N] |==|  0.39584
USER: genes 6 Torsion [C]-CA--N-[H1] |==|  0.69692
USER: genes 7 Torsion [C]-CA--CB-[OG] |==|  0.51160
USER: genes 8 Torsion [CA]-CB--OG-[HG] |==|  0.81063
USER: genes 9 Torsion [N]-CA--CB-[CG1] |==|  0.61897
USER: genes 10 Torsion [N]-CA--C-[N] |==|  0.14740
USER: genes 11 Torsion [C]-N--CA-[C] |==|  0.77055
USER: genes 12 Torsion [N]-CA--C-[N] |==|  0.42331
USER: genes 13 Torsion [C]-N--CA-[CB] |==|  0.47594
USER: genes 14 Torsion [N]-CA--C-[O] |==|  0.17638
USER: genes 15 Torsion [N]-CA--CB-[OG] |==|  0.01679
USER: genes 16 Torsion [CA]-CB--OG-[HG] |==|  0.10264
ROOT
ATOM      1  CA  VAL B 303      12.748   3.787  31.077  1.00 28.18 LIG 0.18  C 
ENDROOT
BRANCH 1 2
ATOM      2  N   VAL B 303      13.720   4.527  31.872  1.00 29.68 LIG-0.35  N 
ATOM      3  C   SER B 302      13.906   5.836  31.722  1.00 31.00 LIG 0.24  C 
ATOM      4 O    SER B 302      13.289   6.503  30.880  1.00 32.88 LIG-0.27  OA
ATOM      5 H    VAL B 303      14.154   4.045  32.437  1.00 29.68 LIG 0.16  HD
BRANCH 3 6
ATOM      6  CA  SER B 302      14.961   6.486  32.639  1.00 30.54 LIG 0.20  C 
BRANCH 6 7
ATOM      7  N   SER B 302      15.532   5.524  33.585  1.00 26.47 LIG-0.34  N 
ATOM      8  C   ALA B 301      14.818   4.988  34.575  1.00 26.40 LIG 0.25  C 
ATOM      9 O    ALA B 301      13.643   5.281  34.800  1.00 23.28 LIG-0.27  OA
ATOM     10 H    SER B 302      16.360   5.340  33.442  1.00 26.47 LIG 0.16  HD
BRANCH 8 11
ATOM     11  CA  ALA B 301      15.546   3.988  35.472  1.00 27.42 LIG 0.27  C 
ATOM     12  CB  ALA B 301      15.270   2.527  35.004  1.00 28.79 LIG 0.05  C 
BRANCH 11 13
ATOM     13  N   ALA B 301      15.097   4.155  36.890  1.00 29.28 LIG-0.07  N 
ATOM     14 H1   ALA B 301      15.755   4.515  37.370  1.00 29.28 LIG 0.28  HD
ATOM     15 H2   ALA B 301      14.386   4.689  36.916  1.00 29.28 LIG 0.28  HD
ATOM     16 H3   ALA B 301      14.884   3.361  37.230  1.00 29.28 LIG 0.28  HD
ENDBRANCH 11 13
ENDBRANCH 8 11
ENDBRANCH 6 7
BRANCH 6 17
ATOM     17  CB  SER B 302      16.054   7.118  31.772  1.00 31.87 LIG 0.20  C 
BRANCH 17 18
ATOM     18 OG   SER B 302      17.084   7.639  32.583  1.00 37.10 LIG-0.40  OA
ATOM     19 HG   SER B 302      16.795   8.299  33.014  1.00 37.10 LIG 0.21  HD
ENDBRANCH 17 18
ENDBRANCH 6 17
ENDBRANCH 3 6
ENDBRANCH 1 2
BRANCH 1 20
ATOM     20  CB  VAL B 303      13.366   3.322  29.702  1.00 29.00 LIG 0.01  C 
ATOM     21  CG1 VAL B 303      12.365   3.548  28.588  1.00 28.23 LIG 0.01  C 
ATOM     22  CG2 VAL B 303      14.647   4.107  29.390  1.00 26.76 LIG 0.01  C 
ENDBRANCH 1 20
BRANCH 1 23
ATOM     23  C   VAL B 303      12.318   2.575  31.887  1.00 28.25 LIG 0.24  C 
ATOM     24 O    VAL B 303      12.411   1.437  31.412  1.00 25.63 LIG-0.27  OA
ATOM     25  N   SER B 304      11.880   2.790  33.120  1.00 28.07 LIG-0.34  N 
ATOM     26 H    SER B 304      11.841   3.561  33.500  1.00 28.07 LIG 0.16  HD
BRANCH 25 27
ATOM     27  CA  SER B 304      11.420   1.672  33.933  1.00 30.78 LIG 0.20  C 
BRANCH 27 28
ATOM     28  C   SER B 304       9.965   1.373  33.547  1.00 31.57 LIG 0.24  C 
ATOM     29 O    SER B 304       9.235   2.276  33.126  1.00 32.88 LIG-0.27  OA
ATOM     30  N   ALA B 305       9.543   0.121  33.713  1.00 33.00 LIG-0.35  N 
ATOM     31 H    ALA B 305      10.040  -0.501  34.039  1.00 33.00 LIG 0.16  HD
BRANCH 30 32
ATOM     32  CA  ALA B 305       8.190  -0.331  33.359  1.00 34.21 LIG 0.16  C 
ATOM     33  CB  ALA B 305       8.114  -1.894  33.480  1.00 33.59 LIG 0.04  C 
BRANCH 32 34
ATOM     34  C   ALA B 305       7.146   0.288  34.276  1.00 34.64 LIG 0.22  C 
ATOM     35 O    ALA B 305       7.008   1.536  34.248  1.00 35.93 LIG-0.29  OA
ENDBRANCH 32 34
ENDBRANCH 30 32
ENDBRANCH 27 28
BRANCH 27 36
ATOM     36  CB  SER B 304      11.522   2.018  35.418  1.00 32.96 LIG 0.20  C 
BRANCH 36 37
ATOM     37 OG   SER B 304      11.904   3.376  35.564  1.00 37.22 LIG-0.40  OA
ATOM     38 HG   SER B 304      11.537   3.836  34.965  1.00 37.22 LIG 0.21  HD
ENDBRANCH 36 37
ENDBRANCH 27 36
ENDBRANCH 25 27
ENDBRANCH 1 23
TORSDOF 15
ENDMDL
MODEL 64
USER: ADFR SOLUTION from run 92
USER: SCORE 12.924268 LL:  -2.535 LR: -10.597 RR:   0.000 FEB:  -6.122
USER: RMSD 3.118549
USER: SEED 91
USER: STATUS no improvement in best 15 clusters for 5 generations
USER: GENES 17
USER: genes 0 Translation |==|  0.52395 0.50085 0.55444
USER: genes 1 Rotation |==|  0.39436 0.50950 0.45401 0.98645
USER: genes 2 Torsion [C]-CA--N-[C] |==|  0.80843
USER: genes 3 Torsion [N]-C--CA-[N] |==|  0.12524
USER: genes 4 Torsion [C]-CA--N-[C] |==|  0.13894
USER: genes 5 Torsion [N]-C--CA-[N] |==|  0.88688
USER: genes 6 Torsion [C]-CA--N-[H1] |==|  0.24855
USER: genes 7 Torsion [C]-CA--CB-[OG] |==|  0.52046
USER: genes 8 Torsion [CA]-CB--OG-[HG] |==|  0.03441
USER: genes 9 Torsion [N]-CA--CB-[CG1] |==|  0.85715
USER: genes 10 Torsion [N]-CA--C-[N] |==|  0.34813
USER: genes 11 Torsion [C]-N--CA-[C] |==|  0.77019
USER: genes 12 Torsion [N]-CA--C-[N] |==|  0.36682
USER: genes 13 Torsion [C]-N--CA-[CB] |==|  0.38716
USER: genes 14 Torsion [N]-CA--C-[O] |==|  0.28199
USER: genes 15 Torsion [N]-CA--CB-[OG] |==|  0.90699
USER: genes 16 Torsion [CA]-CB--OG-[HG] |==|  0.86382
ROOT
ATOM      1  CA  VAL B 303      13.849   3.805  34.383  1.00 28.18 LIG 0.18  C 
ENDROOT
BRANCH 1 2
ATOM      2  N   VAL B 303      12.609   4.114  35.085  1.00 29.68 LIG-0.35  N 
ATOM      3  C   SER B 302      12.566   4.283  36.404  1.00 31.00 LIG 0.24  C 
ATOM      4 O    SER B 302      13.568   4.162  37.122  1.00 32.88 LIG-0.27  OA
ATOM      5 H    VAL B 303      11.920   4.175  34.573  1.00 29.68 LIG 0.16  HD
BRANCH 3 6
ATOM      6  CA  SER B 302      11.186   4.615  37.005  1.00 30.54 LIG 0.20  C 
BRANCH 6 7
ATOM      7  N   SER B 302      10.130   3.760  36.458  1.00 26.47 LIG-0.34  N 
ATOM      8  C   ALA B 301      10.242   2.432  36.409  1.00 26.40 LIG 0.25  C 
ATOM      9 O    ALA B 301      11.246   1.821  36.780  1.00 23.28 LIG-0.27  OA
ATOM     10 H    SER B 302       9.441   4.189  36.176  1.00 26.47 LIG 0.16  HD
BRANCH 8 11
ATOM     11  CA  ALA B 301       9.052   1.672  35.825  1.00 27.42 LIG 0.27  C 
ATOM     12  CB  ALA B 301       9.090   1.705  34.267  1.00 28.79 LIG 0.05  C 
BRANCH 11 13
ATOM     13  N   ALA B 301       7.772   2.280  36.310  1.00 29.28 LIG-0.07  N 
ATOM     14 H1   ALA B 301       7.517   2.923  35.749  1.00 29.28 LIG 0.28  HD
ATOM     15 H2   ALA B 301       7.142   1.653  36.349  1.00 29.28 LIG 0.28  HD
ATOM     16 H3   ALA B 301       7.896   2.626  37.120  1.00 29.28 LIG 0.28  HD
ENDBRANCH 11 13
ENDBRANCH 8 11
ENDBRANCH 6 7
BRANCH 6 17
ATOM     17  CB  SER B 302      11.262   4.485  38.530  1.00 31.87 LIG 0.20  C 
BRANCH 17 18
ATOM     18 OG   SER B 302       9.978   4.617  39.099  1.00 37.10 LIG-0.40  OA
ATOM     19 HG   SER B 302       9.398   4.572  38.493  1.00 37.10 LIG 0.21  HD
ENDBRANCH 17 18
ENDBRANCH 6 17
ENDBRANCH 3 6
ENDBRANCH 1 2
BRANCH 1 20
ATOM     20  CB  VAL B 303      13.576   3.422  32.878  1.00 29.00 LIG 0.01  C 
ATOM     21  CG1 VAL B 303      12.513   2.344  32.808  1.00 28.23 LIG 0.01  C 
ATOM     22  CG2 VAL B 303      13.100   4.645  32.084  1.00 26.76 LIG 0.01  C 
ENDBRANCH 1 20
BRANCH 1 23
ATOM     23  C   VAL B 303      14.736   5.038  34.451  1.00 28.25 LIG 0.24  C 
ATOM     24 O    VAL B 303      14.309   6.139  34.087  1.00 25.63 LIG-0.27  OA
ATOM     25  N   SER B 304      15.957   4.882  34.945  1.00 28.07 LIG-0.34  N 
ATOM     26 H    SER B 304      16.275   4.143  35.246  1.00 28.07 LIG 0.16  HD
BRANCH 25 27
ATOM     27  CA  SER B 304      16.867   6.019  35.002  1.00 30.78 LIG 0.20  C 
BRANCH 27 28
ATOM     28  C   SER B 304      17.525   6.169  33.624  1.00 31.57 LIG 0.24  C 
ATOM     29 O    SER B 304      18.029   5.189  33.065  1.00 32.88 LIG-0.27  OA
ATOM     30  N   ALA B 305      17.542   7.390  33.094  1.00 33.00 LIG-0.35  N 
ATOM     31 H    ALA B 305      17.223   8.080  33.497  1.00 33.00 LIG 0.16  HD
BRANCH 30 32
ATOM     32  CA  ALA B 305      18.105   7.691  31.769  1.00 34.21 LIG 0.16  C 
ATOM     33  CB  ALA B 305      17.177   8.717  31.029  1.00 33.59 LIG 0.04  C 
BRANCH 32 34
ATOM     34  C   ALA B 305      19.502   8.279  31.886  1.00 34.64 LIG 0.22  C 
ATOM     35 O    ALA B 305      20.478   7.521  31.664  1.00 35.93 LIG-0.29  OA
ENDBRANCH 32 34
ENDBRANCH 30 32
ENDBRANCH 27 28
BRANCH 27 36
ATOM     36  CB  SER B 304      17.925   5.799  36.083  1.00 32.96 LIG 0.20  C 
BRANCH 36 37
ATOM     37 OG   SER B 304      17.358   5.069  37.159  1.00 37.22 LIG-0.40  OA
ATOM     38 HG   SER B 304      16.630   5.421  37.384  1.00 37.22 LIG 0.21  HD
ENDBRANCH 36 37
ENDBRANCH 27 36
ENDBRANCH 25 27
ENDBRANCH 1 23
TORSDOF 15
ENDMDL
MODEL 65
USER: ADFR SOLUTION from run 150
USER: SCORE 12.362877 LL:  -2.377 LR: -10.590 RR:   0.000 FEB:  -6.116
USER: RMSD 10.592615
USER: SEED 149
USER: STATUS no improvement in best 14 clusters for 5 generations
USER: GENES 17
USER: genes 0 Translation |==|  0.64847 0.71694 0.36540
USER: genes 1 Rotation |==|  0.61367 0.42002 0.10979 0.78004
USER: genes 2 Torsion [C]-CA--N-[C] |==|  0.73180
USER: genes 3 Torsion [N]-C--CA-[N] |==|  0.39369
USER: genes 4 Torsion [C]-CA--N-[C] |==|  0.83595
USER: genes 5 Torsion [N]-C--CA-[N] |==|  0.10815
USER: genes 6 Torsion [C]-CA--N-[H1] |==|  0.08188
USER: genes 7 Torsion [C]-CA--CB-[OG] |==|  0.97330
USER: genes 8 Torsion [CA]-CB--OG-[HG] |==|  0.23845
USER: genes 9 Torsion [N]-CA--CB-[CG1] |==|  0.47864
USER: genes 10 Torsion [N]-CA--C-[N] |==|  0.25220
USER: genes 11 Torsion [C]-N--CA-[C] |==|  0.57297
USER: genes 12 Torsion [N]-CA--C-[N] |==|  0.37578
USER: genes 13 Torsion [C]-N--CA-[CB] |==|  0.14272
USER: genes 14 Torsion [N]-CA--C-[O] |==|  0.93142
USER: genes 15 Torsion [N]-CA--CB-[OG] |==|  0.02125
USER: genes 16 Torsion [CA]-CB--OG-[HG] |==|  0.35971
ROOT
ATOM      1  CA  VAL B 303      17.584  10.288  28.712  1.00 28.18 LIG 0.18  C 
ENDROOT
BRANCH 1 2
ATOM      2  N   VAL B 303      17.387  11.564  29.388  1.00 29.68 LIG-0.35  N 
ATOM      3  C   SER B 302      16.193  11.959  29.820  1.00 31.00 LIG 0.24  C 
ATOM      4 O    SER B 302      15.168  11.283  29.650  1.00 32.88 LIG-0.27  OA
ATOM      5 H    VAL B 303      18.106  12.029  29.479  1.00 29.68 LIG 0.16  HD
BRANCH 3 6
ATOM      6  CA  SER B 302      16.139  13.329  30.525  1.00 30.54 LIG 0.20  C 
BRANCH 6 7
ATOM      7  N   SER B 302      14.927  14.075  30.181  1.00 26.47 LIG-0.34  N 
ATOM      8  C   ALA B 301      14.626  14.406  28.925  1.00 26.40 LIG 0.25  C 
ATOM      9 O    ALA B 301      15.351  14.148  27.962  1.00 23.28 LIG-0.27  OA
ATOM     10 H    SER B 302      14.435  14.277  30.857  1.00 26.47 LIG 0.16  HD
BRANCH 8 11
ATOM     11  CA  ALA B 301      13.319  15.172  28.720  1.00 27.42 LIG 0.27  C 
ATOM     12  CB  ALA B 301      13.327  15.915  27.350  1.00 28.79 LIG 0.05  C 
BRANCH 11 13
ATOM     13  N   ALA B 301      13.130  16.161  29.828  1.00 29.28 LIG-0.07  N 
ATOM     14 H1   ALA B 301      13.925  16.428  30.127  1.00 29.28 LIG 0.28  HD
ATOM     15 H2   ALA B 301      12.677  16.864  29.524  1.00 29.28 LIG 0.28  HD
ATOM     16 H3   ALA B 301      12.676  15.780  30.492  1.00 29.28 LIG 0.28  HD
ENDBRANCH 11 13
ENDBRANCH 8 11
ENDBRANCH 6 7
BRANCH 6 17
ATOM     17  CB  SER B 302      16.240  13.114  32.039  1.00 31.87 LIG 0.20  C 
BRANCH 17 18
ATOM     18 OG   SER B 302      16.130  11.742  32.348  1.00 37.10 LIG-0.40  OA
ATOM     19 HG   SER B 302      16.886  11.380  32.290  1.00 37.10 LIG 0.21  HD
ENDBRANCH 17 18
ENDBRANCH 6 17
ENDBRANCH 3 6
ENDBRANCH 1 2
BRANCH 1 20
ATOM     20  CB  VAL B 303      18.652  10.409  27.557  1.00 29.00 LIG 0.01  C 
ATOM     21  CG1 VAL B 303      18.969   9.033  27.007  1.00 28.23 LIG 0.01  C 
ATOM     22  CG2 VAL B 303      18.125  11.294  26.421  1.00 26.76 LIG 0.01  C 
ENDBRANCH 1 20
BRANCH 1 23
ATOM     23  C   VAL B 303      18.056   9.284  29.751  1.00 28.25 LIG 0.24  C 
ATOM     24 O    VAL B 303      19.260   9.167  30.009  1.00 25.63 LIG-0.27  OA
ATOM     25  N   SER B 304      17.127   8.578  30.382  1.00 28.07 LIG-0.34  N 
ATOM     26 H    SER B 304      16.280   8.661  30.260  1.00 28.07 LIG 0.16  HD
BRANCH 25 27
ATOM     27  CA  SER B 304      17.520   7.574  31.362  1.00 30.78 LIG 0.20  C 
BRANCH 27 28
ATOM     28  C   SER B 304      16.410   6.516  31.427  1.00 31.57 LIG 0.24  C 
ATOM     29 O    SER B 304      15.226   6.859  31.489  1.00 32.88 LIG-0.27  OA
ATOM     30  N   ALA B 305      16.795   5.241  31.437  1.00 33.00 LIG-0.35  N 
ATOM     31 H    ALA B 305      17.620   5.001  31.429  1.00 33.00 LIG 0.16  HD
BRANCH 30 32
ATOM     32  CA  ALA B 305      15.854   4.112  31.463  1.00 34.21 LIG 0.16  C 
ATOM     33  CB  ALA B 305      14.795   4.289  30.318  1.00 33.59 LIG 0.04  C 
BRANCH 32 34
ATOM     34  C   ALA B 305      16.577   2.788  31.269  1.00 34.64 LIG 0.22  C 
ATOM     35 O    ALA B 305      17.679   2.806  30.666  1.00 35.93 LIG-0.29  OA
ENDBRANCH 32 34
ENDBRANCH 30 32
ENDBRANCH 27 28
BRANCH 27 36
ATOM     36  CB  SER B 304      17.726   8.222  32.732  1.00 32.96 LIG 0.20  C 
BRANCH 36 37
ATOM     37 OG   SER B 304      17.304   9.576  32.684  1.00 37.22 LIG-0.40  OA
ATOM     38 HG   SER B 304      16.783   9.730  33.324  1.00 37.22 LIG 0.21  HD
ENDBRANCH 36 37
ENDBRANCH 27 36
ENDBRANCH 25 27
ENDBRANCH 1 23
TORSDOF 15
ENDMDL
MODEL 66
USER: ADFR SOLUTION from run 18
USER: SCORE 13.250669 LL:  -3.008 LR: -10.594 RR:   0.000 FEB:  -6.120
USER: RMSD 4.395343
USER: SEED 17
USER: STATUS no improvement in best 14 clusters for 5 generations
USER: GENES 17
USER: genes 0 Translation |==|  0.48942 0.50513 0.44738
USER: genes 1 Rotation |==|  0.59799 0.62874 0.49556 0.97308
USER: genes 2 Torsion [C]-CA--N-[C] |==|  0.65517
USER: genes 3 Torsion [N]-C--CA-[N] |==|  0.93083
USER: genes 4 Torsion [C]-CA--N-[C] |==|  0.75579
USER: genes 5 Torsion [N]-C--CA-[N] |==|  0.09151
USER: genes 6 Torsion [C]-CA--N-[H1] |==|  0.19610
USER: genes 7 Torsion [C]-CA--CB-[OG] |==|  0.64662
USER: genes 8 Torsion [CA]-CB--OG-[HG] |==|  0.12226
USER: genes 9 Torsion [N]-CA--CB-[CG1] |==|  0.33800
USER: genes 10 Torsion [N]-CA--C-[N] |==|  0.37647
USER: genes 11 Torsion [C]-N--CA-[C] |==|  0.16664
USER: genes 12 Torsion [N]-CA--C-[N] |==|  0.07786
USER: genes 13 Torsion [C]-N--CA-[CB] |==|  0.86269
USER: genes 14 Torsion [N]-CA--C-[O] |==|  0.01166
USER: genes 15 Torsion [N]-CA--CB-[OG] |==|  0.50260
USER: genes 16 Torsion [CA]-CB--OG-[HG] |==|  0.82719
ROOT
ATOM      1  CA  VAL B 303      12.813   3.934  31.171  1.00 28.18 LIG 0.18  C 
ENDROOT
BRANCH 1 2
ATOM      2  N   VAL B 303      12.005   3.366  32.243  1.00 29.68 LIG-0.35  N 
ATOM      3  C   SER B 302      11.893   2.052  32.425  1.00 31.00 LIG 0.24  C 
ATOM      4 O    SER B 302      12.444   1.229  31.680  1.00 32.88 LIG-0.27  OA
ATOM      5 H    VAL B 303      11.614   3.951  32.738  1.00 29.68 LIG 0.16  HD
BRANCH 3 6
ATOM      6  CA  SER B 302      11.013   1.598  33.606  1.00 30.54 LIG 0.20  C 
BRANCH 6 7
ATOM      7  N   SER B 302      10.924   2.623  34.648  1.00 26.47 LIG-0.34  N 
ATOM      8  C   ALA B 301      11.810   2.708  35.640  1.00 26.40 LIG 0.25  C 
ATOM      9 O    ALA B 301      12.746   1.920  35.786  1.00 23.28 LIG-0.27  OA
ATOM     10 H    SER B 302      10.255   3.156  34.561  1.00 26.47 LIG 0.16  HD
BRANCH 8 11
ATOM     11  CA  ALA B 301      11.595   3.840  36.646  1.00 27.42 LIG 0.27  C 
ATOM     12  CB  ALA B 301      12.221   3.476  38.026  1.00 28.79 LIG 0.05  C 
BRANCH 11 13
ATOM     13  N   ALA B 301      10.130   4.101  36.812  1.00 29.28 LIG-0.07  N 
ATOM     14 H1   ALA B 301       9.755   3.423  37.250  1.00 29.28 LIG 0.28  HD
ATOM     15 H2   ALA B 301      10.013   4.853  37.274  1.00 29.28 LIG 0.28  HD
ATOM     16 H3   ALA B 301       9.750   4.183  36.012  1.00 29.28 LIG 0.28  HD
ENDBRANCH 11 13
ENDBRANCH 8 11
ENDBRANCH 6 7
BRANCH 6 17
ATOM     17  CB  SER B 302       9.622   1.230  33.078  1.00 31.87 LIG 0.20  C 
BRANCH 17 18
ATOM     18 OG   SER B 302       8.625   1.922  33.797  1.00 37.10 LIG-0.40  OA
ATOM     19 HG   SER B 302       8.857   2.724  33.896  1.00 37.10 LIG 0.21  HD
ENDBRANCH 17 18
ENDBRANCH 6 17
ENDBRANCH 3 6
ENDBRANCH 1 2
BRANCH 1 20
ATOM     20  CB  VAL B 303      11.919   4.715  30.132  1.00 29.00 LIG 0.01  C 
ATOM     21  CG1 VAL B 303      12.380   6.156  30.041  1.00 28.23 LIG 0.01  C 
ATOM     22  CG2 VAL B 303      12.014   4.071  28.743  1.00 26.76 LIG 0.01  C 
ENDBRANCH 1 20
BRANCH 1 23
ATOM     23  C   VAL B 303      13.818   4.882  31.804  1.00 28.25 LIG 0.24  C 
ATOM     24 O    VAL B 303      13.472   5.652  32.707  1.00 25.63 LIG-0.27  OA
ATOM     25  N   SER B 304      15.071   4.817  31.373  1.00 28.07 LIG-0.34  N 
ATOM     26 H    SER B 304      15.358   4.266  30.779  1.00 28.07 LIG 0.16  HD
BRANCH 25 27
ATOM     27  CA  SER B 304      16.073   5.725  31.916  1.00 30.78 LIG 0.20  C 
BRANCH 27 28
ATOM     28  C   SER B 304      16.161   5.483  33.429  1.00 31.57 LIG 0.24  C 
ATOM     29 O    SER B 304      16.527   6.390  34.184  1.00 32.88 LIG-0.27  OA
ATOM     30  N   ALA B 305      15.851   4.263  33.863  1.00 33.00 LIG-0.35  N 
ATOM     31 H    ALA B 305      15.630   3.620  33.335  1.00 33.00 LIG 0.16  HD
BRANCH 30 32
ATOM     32  CA  ALA B 305      15.854   3.883  35.283  1.00 34.21 LIG 0.16  C 
ATOM     33  CB  ALA B 305      17.204   4.338  35.942  1.00 33.59 LIG 0.04  C 
BRANCH 32 34
ATOM     34  C   ALA B 305      14.696   4.530  36.028  1.00 34.64 LIG 0.22  C 
ATOM     35 O    ALA B 305      13.873   5.204  35.360  1.00 35.93 LIG-0.29  OA
ENDBRANCH 32 34
ENDBRANCH 30 32
ENDBRANCH 27 28
BRANCH 27 36
ATOM     36  CB  SER B 304      15.689   7.175  31.624  1.00 32.96 LIG 0.20  C 
BRANCH 36 37
ATOM     37 OG   SER B 304      16.686   8.043  32.140  1.00 37.22 LIG-0.40  OA
ATOM     38 HG   SER B 304      16.730   7.955  32.974  1.00 37.22 LIG 0.21  HD
ENDBRANCH 36 37
ENDBRANCH 27 36
ENDBRANCH 25 27
ENDBRANCH 1 23
TORSDOF 15
ENDMDL
MODEL 67
USER: ADFR SOLUTION from run 72
USER: SCORE 12.901125 LL:  -2.651 LR: -10.579 RR:   0.000 FEB:  -6.104
USER: RMSD 8.770314
USER: SEED 71
USER: STATUS no improvement in best 16 clusters for 5 generations
USER: GENES 17
USER: genes 0 Translation |==|  0.48813 0.51262 0.47940
USER: genes 1 Rotation |==|  0.41455 0.49242 0.00784 0.52058
USER: genes 2 Torsion [C]-CA--N-[C] |==|  0.79017
USER: genes 3 Torsion [N]-C--CA-[N] |==|  0.26112
USER: genes 4 Torsion [C]-CA--N-[C] |==|  0.77075
USER: genes 5 Torsion [N]-C--CA-[N] |==|  0.03249
USER: genes 6 Torsion [C]-CA--N-[H1] |==|  0.38267
USER: genes 7 Torsion [C]-CA--CB-[OG] |==|  0.74909
USER: genes 8 Torsion [CA]-CB--OG-[HG] |==|  0.31358
USER: genes 9 Torsion [N]-CA--CB-[CG1] |==|  0.74566
USER: genes 10 Torsion [N]-CA--C-[N] |==|  0.44753
USER: genes 11 Torsion [C]-N--CA-[C] |==|  0.83704
USER: genes 12 Torsion [N]-CA--C-[N] |==|  0.89235
USER: genes 13 Torsion [C]-N--CA-[CB] |==|  0.31234
USER: genes 14 Torsion [N]-CA--C-[O] |==|  0.50107
USER: genes 15 Torsion [N]-CA--CB-[OG] |==|  0.91280
USER: genes 16 Torsion [CA]-CB--OG-[HG] |==|  0.97320
ROOT
ATOM      1  CA  VAL B 303      12.774   4.159  32.132  1.00 28.18 LIG 0.18  C 
ENDROOT
BRANCH 1 2
ATOM      2  N   VAL B 303      14.174   4.511  32.329  1.00 29.68 LIG-0.35  N 
ATOM      3  C   SER B 302      14.607   5.092  33.445  1.00 31.00 LIG 0.24  C 
ATOM      4 O    SER B 302      13.847   5.396  34.374  1.00 32.88 LIG-0.27  OA
ATOM      5 H    VAL B 303      14.685   4.311  31.666  1.00 29.68 LIG 0.16  HD
BRANCH 3 6
ATOM      6  CA  SER B 302      16.117   5.397  33.515  1.00 30.54 LIG 0.20  C 
BRANCH 6 7
ATOM      7  N   SER B 302      16.421   6.761  33.077  1.00 26.47 LIG-0.34  N 
ATOM      8  C   ALA B 301      16.548   7.085  31.790  1.00 26.40 LIG 0.25  C 
ATOM      9 O    ALA B 301      16.461   6.268  30.872  1.00 23.28 LIG-0.27  OA
ATOM     10 H    SER B 302      16.508   7.326  33.720  1.00 26.47 LIG 0.16  HD
BRANCH 8 11
ATOM     11  CA  ALA B 301      16.851   8.552  31.487  1.00 27.42 LIG 0.27  C 
ATOM     12  CB  ALA B 301      18.016   8.672  30.459  1.00 28.79 LIG 0.05  C 
BRANCH 11 13
ATOM     13  N   ALA B 301      17.220   9.267  32.750  1.00 29.28 LIG-0.07  N 
ATOM     14 H1   ALA B 301      17.912   9.806  32.595  1.00 29.28 LIG 0.28  HD
ATOM     15 H2   ALA B 301      16.527   9.748  33.032  1.00 29.28 LIG 0.28  HD
ATOM     16 H3   ALA B 301      17.442   8.673  33.374  1.00 29.28 LIG 0.28  HD
ENDBRANCH 11 13
ENDBRANCH 8 11
ENDBRANCH 6 7
BRANCH 6 17
ATOM     17  CB  SER B 302      16.608   5.158  34.946  1.00 31.87 LIG 0.20  C 
BRANCH 17 18
ATOM     18 OG   SER B 302      16.504   6.342  35.705  1.00 37.10 LIG-0.40  OA
ATOM     19 HG   SER B 302      15.921   6.242  36.301  1.00 37.10 LIG 0.21  HD
ENDBRANCH 17 18
ENDBRANCH 6 17
ENDBRANCH 3 6
ENDBRANCH 1 2
BRANCH 1 20
ATOM     20  CB  VAL B 303      12.462   3.872  30.613  1.00 29.00 LIG 0.01  C 
ATOM     21  CG1 VAL B 303      12.005   5.147  29.934  1.00 28.23 LIG 0.01  C 
ATOM     22  CG2 VAL B 303      13.709   3.342  29.894  1.00 26.76 LIG 0.01  C 
ENDBRANCH 1 20
BRANCH 1 23
ATOM     23  C   VAL B 303      12.490   2.917  32.962  1.00 28.25 LIG 0.24  C 
ATOM     24 O    VAL B 303      13.418   2.217  33.382  1.00 25.63 LIG-0.27  OA
ATOM     25  N   SER B 304      11.221   2.647  33.238  1.00 28.07 LIG-0.34  N 
ATOM     26 H    SER B 304      10.552   3.132  33.000  1.00 28.07 LIG 0.16  HD
BRANCH 25 27
ATOM     27  CA  SER B 304      10.882   1.452  33.999  1.00 30.78 LIG 0.20  C 
BRANCH 27 28
ATOM     28  C   SER B 304      11.415   0.235  33.231  1.00 31.57 LIG 0.24  C 
ATOM     29 O    SER B 304      11.934  -0.707  33.839  1.00 32.88 LIG-0.27  OA
ATOM     30  N   ALA B 305      11.310   0.268  31.904  1.00 33.00 LIG-0.35  N 
ATOM     31 H    ALA B 305      10.981   0.938  31.477  1.00 33.00 LIG 0.16  HD
BRANCH 30 32
ATOM     32  CA  ALA B 305      11.743  -0.833  31.030  1.00 34.21 LIG 0.16  C 
ATOM     33  CB  ALA B 305      10.486  -1.485  30.352  1.00 33.59 LIG 0.04  C 
BRANCH 32 34
ATOM     34  C   ALA B 305      12.689  -0.336  29.948  1.00 34.64 LIG 0.22  C 
ATOM     35 O    ALA B 305      13.130  -1.175  29.124  1.00 35.93 LIG-0.29  OA
ENDBRANCH 32 34
ENDBRANCH 30 32
ENDBRANCH 27 28
BRANCH 27 36
ATOM     36  CB  SER B 304       9.368   1.351  34.184  1.00 32.96 LIG 0.20  C 
BRANCH 36 37
ATOM     37 OG   SER B 304       8.811   2.654  34.249  1.00 37.22 LIG-0.40  OA
ATOM     38 HG   SER B 304       9.428   3.220  34.306  1.00 37.22 LIG 0.21  HD
ENDBRANCH 36 37
ENDBRANCH 27 36
ENDBRANCH 25 27
ENDBRANCH 1 23
TORSDOF 15
ENDMDL
MODEL 68
USER: ADFR SOLUTION from run 78
USER: SCORE 12.788917 LL:  -2.912 LR: -10.569 RR:   0.000 FEB:  -6.095
USER: RMSD 4.422396
USER: SEED 77
USER: STATUS no improvement in best 22 clusters for 5 generations
USER: GENES 17
USER: genes 0 Translation |==|  0.47303 0.48625 0.44364
USER: genes 1 Rotation |==|  0.72495 0.68249 0.30373 0.85717
USER: genes 2 Torsion [C]-CA--N-[C] |==|  0.77222
USER: genes 3 Torsion [N]-C--CA-[N] |==|  0.98974
USER: genes 4 Torsion [C]-CA--N-[C] |==|  0.73620
USER: genes 5 Torsion [N]-C--CA-[N] |==|  0.11216
USER: genes 6 Torsion [C]-CA--N-[H1] |==|  0.18658
USER: genes 7 Torsion [C]-CA--CB-[OG] |==|  0.69415
USER: genes 8 Torsion [CA]-CB--OG-[HG] |==|  0.72282
USER: genes 9 Torsion [N]-CA--CB-[CG1] |==|  0.22200
USER: genes 10 Torsion [N]-CA--C-[N] |==|  0.56024
USER: genes 11 Torsion [C]-N--CA-[C] |==|  0.83504
USER: genes 12 Torsion [N]-CA--C-[N] |==|  0.93081
USER: genes 13 Torsion [C]-N--CA-[CB] |==|  0.20764
USER: genes 14 Torsion [N]-CA--C-[O] |==|  0.09383
USER: genes 15 Torsion [N]-CA--CB-[OG] |==|  0.98420
USER: genes 16 Torsion [CA]-CB--OG-[HG] |==|  0.85992
ROOT
ATOM      1  CA  VAL B 303      12.321   3.367  31.059  1.00 28.18 LIG 0.18  C 
ENDROOT
BRANCH 1 2
ATOM      2  N   VAL B 303      11.690   2.976  32.313  1.00 29.68 LIG-0.35  N 
ATOM      3  C   SER B 302      11.284   1.730  32.541  1.00 31.00 LIG 0.24  C 
ATOM      4 O    SER B 302      11.389   0.831  31.695  1.00 32.88 LIG-0.27  OA
ATOM      5 H    VAL B 303      11.606   3.617  32.881  1.00 29.68 LIG 0.16  HD
BRANCH 3 6
ATOM      6  CA  SER B 302      10.642   1.461  33.917  1.00 30.54 LIG 0.20  C 
BRANCH 6 7
ATOM      7  N   SER B 302      10.676   2.646  34.778  1.00 26.47 LIG-0.34  N 
ATOM      8  C   ALA B 301      11.645   2.852  35.669  1.00 26.40 LIG 0.25  C 
ATOM      9 O    ALA B 301      12.563   2.055  35.871  1.00 23.28 LIG-0.27  OA
ATOM     10 H    SER B 302      10.020   3.189  34.654  1.00 26.47 LIG 0.16  HD
BRANCH 8 11
ATOM     11  CA  ALA B 301      11.553   4.141  36.485  1.00 27.42 LIG 0.27  C 
ATOM     12  CB  ALA B 301      12.436   4.046  37.766  1.00 28.79 LIG 0.05  C 
BRANCH 11 13
ATOM     13  N   ALA B 301      10.130   4.398  36.873  1.00 29.28 LIG-0.07  N 
ATOM     14 H1   ALA B 301       9.861   3.773  37.447  1.00 29.28 LIG 0.28  HD
ATOM     15 H2   ALA B 301      10.066   5.199  37.256  1.00 29.28 LIG 0.28  HD
ATOM     16 H3   ALA B 301       9.615   4.375  36.147  1.00 29.28 LIG 0.28  HD
ENDBRANCH 11 13
ENDBRANCH 8 11
ENDBRANCH 6 7
BRANCH 6 17
ATOM     17  CB  SER B 302       9.204   0.974  33.710  1.00 31.87 LIG 0.20  C 
BRANCH 17 18
ATOM     18 OG   SER B 302       8.287   1.958  34.135  1.00 37.10 LIG-0.40  OA
ATOM     19 HG   SER B 302       8.004   1.764  34.902  1.00 37.10 LIG 0.21  HD
ENDBRANCH 17 18
ENDBRANCH 6 17
ENDBRANCH 3 6
ENDBRANCH 1 2
BRANCH 1 20
ATOM     20  CB  VAL B 303      12.185   4.919  30.808  1.00 29.00 LIG 0.01  C 
ATOM     21  CG1 VAL B 303      13.227   5.662  31.619  1.00 28.23 LIG 0.01  C 
ATOM     22  CG2 VAL B 303      12.379   5.247  29.323  1.00 26.76 LIG 0.01  C 
ENDBRANCH 1 20
BRANCH 1 23
ATOM     23  C   VAL B 303      13.789   2.984  31.142  1.00 28.25 LIG 0.24  C 
ATOM     24 O    VAL B 303      14.162   2.091  31.912  1.00 25.63 LIG-0.27  OA
ATOM     25  N   SER B 304      14.631   3.617  30.337  1.00 28.07 LIG-0.34  N 
ATOM     26 H    SER B 304      14.404   4.213  29.759  1.00 28.07 LIG 0.16  HD
BRANCH 25 27
ATOM     27  CA  SER B 304      16.056   3.319  30.395  1.00 30.78 LIG 0.20  C 
BRANCH 27 28
ATOM     28  C   SER B 304      16.545   3.623  31.818  1.00 31.57 LIG 0.24  C 
ATOM     29 O    SER B 304      17.531   3.036  32.275  1.00 32.88 LIG-0.27  OA
ATOM     30  N   ALA B 305      15.845   4.513  32.518  1.00 33.00 LIG-0.35  N 
ATOM     31 H    ALA B 305      15.137   4.896  32.214  1.00 33.00 LIG 0.16  HD
BRANCH 30 32
ATOM     32  CA  ALA B 305      16.203   4.935  33.880  1.00 34.21 LIG 0.16  C 
ATOM     33  CB  ALA B 305      17.440   5.900  33.818  1.00 33.59 LIG 0.04  C 
BRANCH 32 34
ATOM     34  C   ALA B 305      15.046   5.655  34.555  1.00 34.64 LIG 0.22  C 
ATOM     35 O    ALA B 305      13.880   5.278  34.278  1.00 35.93 LIG-0.29  OA
ENDBRANCH 32 34
ENDBRANCH 30 32
ENDBRANCH 27 28
BRANCH 27 36
ATOM     36  CB  SER B 304      16.817   4.162  29.372  1.00 32.96 LIG 0.20  C 
BRANCH 36 37
ATOM     37 OG   SER B 304      15.895   4.891  28.578  1.00 37.22 LIG-0.40  OA
ATOM     38 HG   SER B 304      15.308   4.370  28.281  1.00 37.22 LIG 0.21  HD
ENDBRANCH 36 37
ENDBRANCH 27 36
ENDBRANCH 25 27
ENDBRANCH 1 23
TORSDOF 15
ENDMDL
MODEL 69
USER: ADFR SOLUTION from run 125
USER: SCORE 12.573088 LL:  -3.220 LR: -10.556 RR:   0.000 FEB:  -6.081
USER: RMSD 6.490798
USER: SEED 124
USER: STATUS no improvement in best 16 clusters for 5 generations
USER: GENES 17
USER: genes 0 Translation |==|  0.57043 0.57448 0.49772
USER: genes 1 Rotation |==|  0.25870 0.50452 0.90363 0.66981
USER: genes 2 Torsion [C]-CA--N-[C] |==|  0.15923
USER: genes 3 Torsion [N]-C--CA-[N] |==|  0.36158
USER: genes 4 Torsion [C]-CA--N-[C] |==|  0.84328
USER: genes 5 Torsion [N]-C--CA-[N] |==|  0.52132
USER: genes 6 Torsion [C]-CA--N-[H1] |==|  0.76617
USER: genes 7 Torsion [C]-CA--CB-[OG] |==|  0.35687
USER: genes 8 Torsion [CA]-CB--OG-[HG] |==|  0.03984
USER: genes 9 Torsion [N]-CA--CB-[CG1] |==|  0.58076
USER: genes 10 Torsion [N]-CA--C-[N] |==|  0.57291
USER: genes 11 Torsion [C]-N--CA-[C] |==|  0.79444
USER: genes 12 Torsion [N]-CA--C-[N] |==|  0.24596
USER: genes 13 Torsion [C]-N--CA-[CB] |==|  0.20660
USER: genes 14 Torsion [N]-CA--C-[O] |==|  0.30897
USER: genes 15 Torsion [N]-CA--CB-[OG] |==|  0.08952
USER: genes 16 Torsion [CA]-CB--OG-[HG] |==|  0.12775
ROOT
ATOM      1  CA  VAL B 303      15.243   6.014  32.681  1.00 28.18 LIG 0.18  C 
ENDROOT
BRANCH 1 2
ATOM      2  N   VAL B 303      15.238   5.731  34.111  1.00 29.68 LIG-0.35  N 
ATOM      3  C   SER B 302      14.976   4.518  34.591  1.00 31.00 LIG 0.24  C 
ATOM      4 O    SER B 302      14.692   3.560  33.858  1.00 32.88 LIG-0.27  OA
ATOM      5 H    VAL B 303      15.417   6.412  34.606  1.00 29.68 LIG 0.16  HD
BRANCH 3 6
ATOM      6  CA  SER B 302      15.017   4.366  36.124  1.00 30.54 LIG 0.20  C 
BRANCH 6 7
ATOM      7  N   SER B 302      13.818   3.701  36.640  1.00 26.47 LIG-0.34  N 
ATOM      8  C   ALA B 301      12.590   4.163  36.405  1.00 26.40 LIG 0.25  C 
ATOM      9 O    ALA B 301      12.362   5.197  35.774  1.00 23.28 LIG-0.27  OA
ATOM     10 H    SER B 302      13.979   2.994  37.103  1.00 26.47 LIG 0.16  HD
BRANCH 8 11
ATOM     11  CA  ALA B 301      11.436   3.354  36.997  1.00 27.42 LIG 0.27  C 
ATOM     12  CB  ALA B 301      11.568   1.849  36.616  1.00 28.79 LIG 0.05  C 
BRANCH 11 13
ATOM     13  N   ALA B 301      10.130   3.887  36.495  1.00 29.28 LIG-0.07  N 
ATOM     14 H1   ALA B 301       9.877   4.576  36.998  1.00 29.28 LIG 0.28  HD
ATOM     15 H2   ALA B 301      10.223   4.155  35.651  1.00 29.28 LIG 0.28  HD
ATOM     16 H3   ALA B 301       9.512   3.248  36.536  1.00 29.28 LIG 0.28  HD
ENDBRANCH 11 13
ENDBRANCH 8 11
ENDBRANCH 6 7
BRANCH 6 17
ATOM     17  CB  SER B 302      16.283   3.597  36.516  1.00 31.87 LIG 0.20  C 
BRANCH 17 18
ATOM     18 OG   SER B 302      16.996   4.300  37.509  1.00 37.10 LIG-0.40  OA
ATOM     19 HG   SER B 302      16.505   4.897  37.837  1.00 37.10 LIG 0.21  HD
ENDBRANCH 17 18
ENDBRANCH 6 17
ENDBRANCH 3 6
ENDBRANCH 1 2
BRANCH 1 20
ATOM     20  CB  VAL B 303      16.368   5.197  31.938  1.00 29.00 LIG 0.01  C 
ATOM     21  CG1 VAL B 303      16.837   5.963  30.718  1.00 28.23 LIG 0.01  C 
ATOM     22  CG2 VAL B 303      17.565   4.953  32.866  1.00 26.76 LIG 0.01  C 
ENDBRANCH 1 20
BRANCH 1 23
ATOM     23  C   VAL B 303      13.878   5.634  32.131  1.00 28.25 LIG 0.24  C 
ATOM     24 O    VAL B 303      12.877   5.673  32.855  1.00 25.63 LIG-0.27  OA
ATOM     25  N   SER B 304      13.810   5.299  30.850  1.00 28.07 LIG-0.34  N 
ATOM     26 H    SER B 304      14.475   5.301  30.305  1.00 28.07 LIG 0.16  HD
BRANCH 25 27
ATOM     27  CA  SER B 304      12.536   4.890  30.273  1.00 30.78 LIG 0.20  C 
BRANCH 27 28
ATOM     28  C   SER B 304      12.221   3.475  30.776  1.00 31.57 LIG 0.24  C 
ATOM     29 O    SER B 304      12.562   2.489  30.116  1.00 32.88 LIG-0.27  OA
ATOM     30  N   ALA B 305      11.552   3.380  31.924  1.00 33.00 LIG-0.35  N 
ATOM     31 H    ALA B 305      11.283   4.066  32.367  1.00 33.00 LIG 0.16  HD
BRANCH 30 32
ATOM     32  CA  ALA B 305      11.204   2.098  32.554  1.00 34.21 LIG 0.16  C 
ATOM     33  CB  ALA B 305      12.489   1.467  33.197  1.00 33.59 LIG 0.04  C 
BRANCH 32 34
ATOM     34  C   ALA B 305      10.149   2.284  33.634  1.00 34.64 LIG 0.22  C 
ATOM     35 O    ALA B 305       9.003   1.817  33.420  1.00 35.93 LIG-0.29  OA
ENDBRANCH 32 34
ENDBRANCH 30 32
ENDBRANCH 27 28
BRANCH 27 36
ATOM     36  CB  SER B 304      12.612   4.914  28.746  1.00 32.96 LIG 0.20  C 
BRANCH 36 37
ATOM     37 OG   SER B 304      13.929   4.588  28.332  1.00 37.22 LIG-0.40  OA
ATOM     38 HG   SER B 304      14.200   3.918  28.760  1.00 37.22 LIG 0.21  HD
ENDBRANCH 36 37
ENDBRANCH 27 36
ENDBRANCH 25 27
ENDBRANCH 1 23
TORSDOF 15
ENDMDL
MODEL 70
USER: ADFR SOLUTION from run 100
USER: SCORE 12.753373 LL:  -2.611 LR: -10.545 RR:   0.000 FEB:  -6.071
USER: RMSD 11.081989
USER: SEED 99
USER: STATUS no improvement in best 14 clusters for 5 generations
USER: GENES 17
USER: genes 0 Translation |==|  0.66694 0.68864 0.45970
USER: genes 1 Rotation |==|  0.46211 0.95367 0.69452 0.57008
USER: genes 2 Torsion [C]-CA--N-[C] |==|  0.64943
USER: genes 3 Torsion [N]-C--CA-[N] |==|  0.07105
USER: genes 4 Torsion [C]-CA--N-[C] |==|  0.18289
USER: genes 5 Torsion [N]-C--CA-[N] |==|  0.10234
USER: genes 6 Torsion [C]-CA--N-[H1] |==|  0.01190
USER: genes 7 Torsion [C]-CA--CB-[OG] |==|  0.89645
USER: genes 8 Torsion [CA]-CB--OG-[HG] |==|  0.22964
USER: genes 9 Torsion [N]-CA--CB-[CG1] |==|  0.66215
USER: genes 10 Torsion [N]-CA--C-[N] |==|  0.99450
USER: genes 11 Torsion [C]-N--CA-[C] |==|  0.81300
USER: genes 12 Torsion [N]-CA--C-[N] |==|  0.94214
USER: genes 13 Torsion [C]-N--CA-[CB] |==|  0.49046
USER: genes 14 Torsion [N]-CA--C-[O] |==|  0.48665
USER: genes 15 Torsion [N]-CA--CB-[OG] |==|  0.04495
USER: genes 16 Torsion [CA]-CB--OG-[HG] |==|  0.84142
ROOT
ATOM      1  CA  VAL B 303      18.138   9.439  31.541  1.00 28.18 LIG 0.18  C 
ENDROOT
BRANCH 1 2
ATOM      2  N   VAL B 303      19.534   9.807  31.344  1.00 29.68 LIG-0.35  N 
ATOM      3  C   SER B 302      20.227   9.410  30.279  1.00 31.00 LIG 0.24  C 
ATOM      4 O    SER B 302      19.740   8.682  29.404  1.00 32.88 LIG-0.27  OA
ATOM      5 H    VAL B 303      19.862  10.296  31.972  1.00 29.68 LIG 0.16  HD
BRANCH 3 6
ATOM      6  CA  SER B 302      21.692   9.885  30.201  1.00 30.54 LIG 0.20  C 
BRANCH 6 7
ATOM      7  N   SER B 302      22.247  10.168  31.526  1.00 26.47 LIG-0.34  N 
ATOM      8  C   ALA B 301      22.435   9.214  32.438  1.00 26.40 LIG 0.25  C 
ATOM      9 O    ALA B 301      22.127   8.034  32.261  1.00 23.28 LIG-0.27  OA
ATOM     10 H    SER B 302      22.438  10.996  31.658  1.00 26.47 LIG 0.16  HD
BRANCH 8 11
ATOM     11  CA  ALA B 301      23.038   9.659  33.771  1.00 27.42 LIG 0.27  C 
ATOM     12  CB  ALA B 301      22.703   8.634  34.896  1.00 28.79 LIG 0.05  C 
BRANCH 11 13
ATOM     13  N   ALA B 301      22.505  11.007  34.145  1.00 29.28 LIG-0.07  N 
ATOM     14 H1   ALA B 301      21.894  11.261  33.550  1.00 29.28 LIG 0.28  HD
ATOM     15 H2   ALA B 301      22.133  10.966  34.952  1.00 29.28 LIG 0.28  HD
ATOM     16 H3   ALA B 301      23.171  11.598  34.155  1.00 29.28 LIG 0.28  HD
ENDBRANCH 11 13
ENDBRANCH 8 11
ENDBRANCH 6 7
BRANCH 6 17
ATOM     17  CB  SER B 302      22.522   8.823  29.473  1.00 31.87 LIG 0.20  C 
BRANCH 17 18
ATOM     18 OG   SER B 302      22.080   7.530  29.824  1.00 37.10 LIG-0.40  OA
ATOM     19 HG   SER B 302      21.413   7.325  29.356  1.00 37.10 LIG 0.21  HD
ENDBRANCH 17 18
ENDBRANCH 6 17
ENDBRANCH 3 6
ENDBRANCH 1 2
BRANCH 1 20
ATOM     20  CB  VAL B 303      17.967   8.481  32.782  1.00 29.00 LIG 0.01  C 
ATOM     21  CG1 VAL B 303      17.326   7.181  32.341  1.00 28.23 LIG 0.01  C 
ATOM     22  CG2 VAL B 303      19.326   8.176  33.424  1.00 26.76 LIG 0.01  C 
ENDBRANCH 1 20
BRANCH 1 23
ATOM     23  C   VAL B 303      17.351  10.720  31.764  1.00 28.25 LIG 0.24  C 
ATOM     24 O    VAL B 303      16.130  10.681  31.953  1.00 25.63 LIG-0.27  OA
ATOM     25  N   SER B 304      18.032  11.858  31.781  1.00 28.07 LIG-0.34  N 
ATOM     26 H    SER B 304      18.885  11.922  31.696  1.00 28.07 LIG 0.16  HD
BRANCH 25 27
ATOM     27  CA  SER B 304      17.329  13.122  31.954  1.00 30.78 LIG 0.20  C 
BRANCH 27 28
ATOM     28  C   SER B 304      16.469  13.361  30.706  1.00 31.57 LIG 0.24  C 
ATOM     29 O    SER B 304      15.493  14.116  30.757  1.00 32.88 LIG-0.27  OA
ATOM     30  N   ALA B 305      16.816  12.702  29.601  1.00 33.00 LIG-0.35  N 
ATOM     31 H    ALA B 305      17.474  12.149  29.573  1.00 33.00 LIG 0.16  HD
BRANCH 30 32
ATOM     32  CA  ALA B 305      16.115  12.849  28.318  1.00 34.21 LIG 0.16  C 
ATOM     33  CB  ALA B 305      16.846  11.994  27.223  1.00 33.59 LIG 0.04  C 
BRANCH 32 34
ATOM     34  C   ALA B 305      14.670  12.386  28.424  1.00 34.64 LIG 0.22  C 
ATOM     35 O    ALA B 305      13.929  12.543  27.422  1.00 35.93 LIG-0.29  OA
ENDBRANCH 32 34
ENDBRANCH 30 32
ENDBRANCH 27 28
BRANCH 27 36
ATOM     36  CB  SER B 304      18.328  14.263  32.147  1.00 32.96 LIG 0.20  C 
BRANCH 36 37
ATOM     37 OG   SER B 304      19.617  13.839  31.736  1.00 37.22 LIG-0.40  OA
ATOM     38 HG   SER B 304      19.839  13.155  32.168  1.00 37.22 LIG 0.21  HD
ENDBRANCH 36 37
ENDBRANCH 27 36
ENDBRANCH 25 27
ENDBRANCH 1 23
TORSDOF 15
ENDMDL
MODEL 71
USER: ADFR SOLUTION from run 100
USER: SCORE 13.210651 LL:  -3.091 LR: -10.551 RR:   0.000 FEB:  -6.076
USER: RMSD 5.950227
USER: SEED 99
USER: STATUS no improvement in best 14 clusters for 5 generations
USER: GENES 17
USER: genes 0 Translation |==|  0.52069 0.53705 0.58092
USER: genes 1 Rotation |==|  0.16371 0.34754 0.81269 0.62605
USER: genes 2 Torsion [C]-CA--N-[C] |==|  0.73975
USER: genes 3 Torsion [N]-C--CA-[N] |==|  0.47751
USER: genes 4 Torsion [C]-CA--N-[C] |==|  0.76785
USER: genes 5 Torsion [N]-C--CA-[N] |==|  0.86313
USER: genes 6 Torsion [C]-CA--N-[H1] |==|  0.68259
USER: genes 7 Torsion [C]-CA--CB-[OG] |==|  0.79923
USER: genes 8 Torsion [CA]-CB--OG-[HG] |==|  0.91710
USER: genes 9 Torsion [N]-CA--CB-[CG1] |==|  0.13333
USER: genes 10 Torsion [N]-CA--C-[N] |==|  0.87778
USER: genes 11 Torsion [C]-N--CA-[C] |==|  0.17074
USER: genes 12 Torsion [N]-CA--C-[N] |==|  0.10066
USER: genes 13 Torsion [C]-N--CA-[CB] |==|  0.24692
USER: genes 14 Torsion [N]-CA--C-[O] |==|  0.82617
USER: genes 15 Torsion [N]-CA--CB-[OG] |==|  0.80511
USER: genes 16 Torsion [CA]-CB--OG-[HG] |==|  0.20987
ROOT
ATOM      1  CA  VAL B 303      13.751   4.892  35.178  1.00 28.18 LIG 0.18  C 
ENDROOT
BRANCH 1 2
ATOM      2  N   VAL B 303      13.022   4.095  36.156  1.00 29.68 LIG-0.35  N 
ATOM      3  C   SER B 302      11.908   4.533  36.737  1.00 31.00 LIG 0.24  C 
ATOM      4 O    SER B 302      11.435   5.655  36.506  1.00 32.88 LIG-0.27  OA
ATOM      5 H    VAL B 303      13.375   3.327  36.320  1.00 29.68 LIG 0.16  HD
BRANCH 3 6
ATOM      6  CA  SER B 302      11.241   3.577  37.745  1.00 30.54 LIG 0.20  C 
BRANCH 6 7
ATOM      7  N   SER B 302      10.139   4.221  38.465  1.00 26.47 LIG-0.34  N 
ATOM      8  C   ALA B 301      10.339   4.978  39.543  1.00 26.40 LIG 0.25  C 
ATOM      9 O    ALA B 301      11.448   5.168  40.045  1.00 23.28 LIG-0.27  OA
ATOM     10 H    SER B 302       9.362   4.066  38.129  1.00 26.47 LIG 0.16  HD
BRANCH 8 11
ATOM     11  CA  ALA B 301       9.093   5.596  40.178  1.00 27.42 LIG 0.27  C 
ATOM     12  CB  ALA B 301       8.245   4.506  40.900  1.00 28.79 LIG 0.05  C 
BRANCH 11 13
ATOM     13  N   ALA B 301       8.263   6.263  39.125  1.00 29.28 LIG-0.07  N 
ATOM     14 H1   ALA B 301       8.250   7.141  39.269  1.00 29.28 LIG 0.28  HD
ATOM     15 H2   ALA B 301       8.613   6.099  38.323  1.00 29.28 LIG 0.28  HD
ATOM     16 H3   ALA B 301       7.432   5.946  39.156  1.00 29.28 LIG 0.28  HD
ENDBRANCH 11 13
ENDBRANCH 8 11
ENDBRANCH 6 7
BRANCH 6 17
ATOM     17  CB  SER B 302      10.755   2.328  37.002  1.00 31.87 LIG 0.20  C 
BRANCH 17 18
ATOM     18 OG   SER B 302       9.628   2.636  36.210  1.00 37.10 LIG-0.40  OA
ATOM     19 HG   SER B 302       9.197   3.261  36.568  1.00 37.10 LIG 0.21  HD
ENDBRANCH 17 18
ENDBRANCH 6 17
ENDBRANCH 3 6
ENDBRANCH 1 2
BRANCH 1 20
ATOM     20  CB  VAL B 303      15.306   4.651  35.285  1.00 29.00 LIG 0.01  C 
ATOM     21  CG1 VAL B 303      15.592   3.164  35.334  1.00 28.23 LIG 0.01  C 
ATOM     22  CG2 VAL B 303      16.034   5.261  34.082  1.00 26.76 LIG 0.01  C 
ENDBRANCH 1 20
BRANCH 1 23
ATOM     23  C   VAL B 303      13.259   4.488  33.797  1.00 28.25 LIG 0.24  C 
ATOM     24 O    VAL B 303      13.044   5.345  32.932  1.00 25.63 LIG-0.27  OA
ATOM     25  N   SER B 304      13.110   3.192  33.558  1.00 28.07 LIG-0.34  N 
ATOM     26 H    SER B 304      13.289   2.565  34.119  1.00 28.07 LIG 0.16  HD
BRANCH 25 27
ATOM     27  CA  SER B 304      12.608   2.745  32.266  1.00 30.78 LIG 0.20  C 
BRANCH 27 28
ATOM     28  C   SER B 304      13.598   3.207  31.188  1.00 31.57 LIG 0.24  C 
ATOM     29 O    SER B 304      13.190   3.551  30.074  1.00 32.88 LIG-0.27  OA
ATOM     30  N   ALA B 305      14.890   3.189  31.510  1.00 33.00 LIG-0.35  N 
ATOM     31 H    ALA B 305      15.179   2.916  32.273  1.00 33.00 LIG 0.16  HD
BRANCH 30 32
ATOM     32  CA  ALA B 305      15.957   3.632  30.601  1.00 34.21 LIG 0.16  C 
ATOM     33  CB  ALA B 305      16.202   5.170  30.793  1.00 33.59 LIG 0.04  C 
BRANCH 32 34
ATOM     34  C   ALA B 305      17.255   2.886  30.872  1.00 34.64 LIG 0.22  C 
ATOM     35 O    ALA B 305      17.790   3.030  31.999  1.00 35.93 LIG-0.29  OA
ENDBRANCH 32 34
ENDBRANCH 30 32
ENDBRANCH 27 28
BRANCH 27 36
ATOM     36  CB  SER B 304      11.219   3.327  32.006  1.00 32.96 LIG 0.20  C 
BRANCH 36 37
ATOM     37 OG   SER B 304      10.279   2.718  32.875  1.00 37.22 LIG-0.40  OA
ATOM     38 HG   SER B 304      10.367   3.032  33.649  1.00 37.22 LIG 0.21  HD
ENDBRANCH 36 37
ENDBRANCH 27 36
ENDBRANCH 25 27
ENDBRANCH 1 23
TORSDOF 15
ENDMDL
MODEL 72
USER: ADFR SOLUTION from run 106
USER: SCORE 13.386826 LL:  -2.958 LR: -10.540 RR:   0.000 FEB:  -6.066
USER: RMSD 6.754760
USER: SEED 105
USER: STATUS no improvement in best 11 clusters for 5 generations
USER: GENES 17
USER: genes 0 Translation |==|  0.46186 0.47539 0.44289
USER: genes 1 Rotation |==|  0.66112 0.68189 0.19813 0.81596
USER: genes 2 Torsion [C]-CA--N-[C] |==|  0.81750
USER: genes 3 Torsion [N]-C--CA-[N] |==|  0.92223
USER: genes 4 Torsion [C]-CA--N-[C] |==|  0.82727
USER: genes 5 Torsion [N]-C--CA-[N] |==|  0.36536
USER: genes 6 Torsion [C]-CA--N-[H1] |==|  0.42313
USER: genes 7 Torsion [C]-CA--CB-[OG] |==|  0.96113
USER: genes 8 Torsion [CA]-CB--OG-[HG] |==|  0.81864
USER: genes 9 Torsion [N]-CA--CB-[CG1] |==|  0.13065
USER: genes 10 Torsion [N]-CA--C-[N] |==|  0.90629
USER: genes 11 Torsion [C]-N--CA-[C] |==|  0.79312
USER: genes 12 Torsion [N]-CA--C-[N] |==|  0.47036
USER: genes 13 Torsion [C]-N--CA-[CB] |==|  0.41561
USER: genes 14 Torsion [N]-CA--C-[O] |==|  0.17347
USER: genes 15 Torsion [N]-CA--CB-[OG] |==|  0.67487
USER: genes 16 Torsion [CA]-CB--OG-[HG] |==|  0.69302
ROOT
ATOM      1  CA  VAL B 303      11.986   3.042  31.037  1.00 28.18 LIG 0.18  C 
ENDROOT
BRANCH 1 2
ATOM      2  N   VAL B 303      11.799   3.134  32.479  1.00 29.68 LIG-0.35  N 
ATOM      3  C   SER B 302      11.549   2.064  33.229  1.00 31.00 LIG 0.24  C 
ATOM      4 O    SER B 302      11.431   0.928  32.749  1.00 32.88 LIG-0.27  OA
ATOM      5 H    VAL B 303      11.864   3.932  32.793  1.00 29.68 LIG 0.16  HD
BRANCH 3 6
ATOM      6  CA  SER B 302      11.383   2.313  34.742  1.00 30.54 LIG 0.20  C 
BRANCH 6 7
ATOM      7  N   SER B 302      12.139   3.486  35.189  1.00 26.47 LIG-0.34  N 
ATOM      8  C   ALA B 301      13.467   3.555  35.097  1.00 26.40 LIG 0.25  C 
ATOM      9 O    ALA B 301      14.168   2.637  34.669  1.00 23.28 LIG-0.27  OA
ATOM     10 H    SER B 302      11.651   4.116  35.512  1.00 26.47 LIG 0.16  HD
BRANCH 8 11
ATOM     11  CA  ALA B 301      14.114   4.849  35.591  1.00 27.42 LIG 0.27  C 
ATOM     12  CB  ALA B 301      14.621   5.704  34.390  1.00 28.79 LIG 0.05  C 
BRANCH 11 13
ATOM     13  N   ALA B 301      15.260   4.530  36.500  1.00 29.28 LIG-0.07  N 
ATOM     14 H1   ALA B 301      15.858   5.189  36.467  1.00 29.28 LIG 0.28  HD
ATOM     15 H2   ALA B 301      14.963   4.442  37.334  1.00 29.28 LIG 0.28  HD
ATOM     16 H3   ALA B 301      15.643   3.770  36.241  1.00 29.28 LIG 0.28  HD
ENDBRANCH 11 13
ENDBRANCH 8 11
ENDBRANCH 6 7
BRANCH 6 17
ATOM     17  CB  SER B 302       9.893   2.466  35.062  1.00 31.87 LIG 0.20  C 
BRANCH 17 18
ATOM     18 OG   SER B 302       9.153   2.655  33.876  1.00 37.10 LIG-0.40  OA
ATOM     19 HG   SER B 302       9.371   3.385  33.523  1.00 37.10 LIG 0.21  HD
ENDBRANCH 17 18
ENDBRANCH 6 17
ENDBRANCH 3 6
ENDBRANCH 1 2
BRANCH 1 20
ATOM     20  CB  VAL B 303      12.110   4.471  30.382  1.00 29.00 LIG 0.01  C 
ATOM     21  CG1 VAL B 303      13.080   5.318  31.180  1.00 28.23 LIG 0.01  C 
ATOM     22  CG2 VAL B 303      12.612   4.365  28.936  1.00 26.76 LIG 0.01  C 
ENDBRANCH 1 20
BRANCH 1 23
ATOM     23  C   VAL B 303      13.256   2.246  30.786  1.00 28.25 LIG 0.24  C 
ATOM     24 O    VAL B 303      13.362   1.531  29.784  1.00 25.63 LIG-0.27  OA
ATOM     25  N   SER B 304      14.243   2.383  31.663  1.00 28.07 LIG-0.34  N 
ATOM     26 H    SER B 304      14.224   2.902  32.348  1.00 28.07 LIG 0.16  HD
BRANCH 25 27
ATOM     27  CA  SER B 304      15.473   1.619  31.496  1.00 30.78 LIG 0.20  C 
BRANCH 27 28
ATOM     28  C   SER B 304      15.184   0.165  31.892  1.00 31.57 LIG 0.24  C 
ATOM     29 O    SER B 304      14.133  -0.125  32.474  1.00 32.88 LIG-0.27  OA
ATOM     30  N   ALA B 305      16.121  -0.736  31.602  1.00 33.00 LIG-0.35  N 
ATOM     31 H    ALA B 305      16.868  -0.530  31.230  1.00 33.00 LIG 0.16  HD
BRANCH 30 32
ATOM     32  CA  ALA B 305      15.980  -2.171  31.887  1.00 34.21 LIG 0.16  C 
ATOM     33  CB  ALA B 305      16.780  -2.996  30.817  1.00 33.59 LIG 0.04  C 
BRANCH 32 34
ATOM     34  C   ALA B 305      16.509  -2.512  33.272  1.00 34.64 LIG 0.22  C 
ATOM     35 O    ALA B 305      15.941  -1.987  34.261  1.00 35.93 LIG-0.29  OA
ENDBRANCH 32 34
ENDBRANCH 30 32
ENDBRANCH 27 28
BRANCH 27 36
ATOM     36  CB  SER B 304      16.583   2.204  32.369  1.00 32.96 LIG 0.20  C 
BRANCH 36 37
ATOM     37 OG   SER B 304      17.636   2.676  31.543  1.00 37.22 LIG-0.40  OA
ATOM     38 HG   SER B 304      18.309   2.184  31.638  1.00 37.22 LIG 0.21  HD
ENDBRANCH 36 37
ENDBRANCH 27 36
ENDBRANCH 25 27
ENDBRANCH 1 23
TORSDOF 15
ENDMDL
MODEL 73
USER: ADFR SOLUTION from run 58
USER: SCORE 12.931717 LL:  -2.707 LR: -10.532 RR:   0.000 FEB:  -6.057
USER: RMSD 11.229212
USER: SEED 57
USER: STATUS no improvement in best 11 clusters for 5 generations
USER: GENES 17
USER: genes 0 Translation |==|  0.73606 0.69267 0.34979
USER: genes 1 Rotation |==|  0.62941 0.66925 0.29433 0.90288
USER: genes 2 Torsion [C]-CA--N-[C] |==|  0.65683
USER: genes 3 Torsion [N]-C--CA-[N] |==|  0.10503
USER: genes 4 Torsion [C]-CA--N-[C] |==|  0.16861
USER: genes 5 Torsion [N]-C--CA-[N] |==|  0.12776
USER: genes 6 Torsion [C]-CA--N-[H1] |==|  0.33312
USER: genes 7 Torsion [C]-CA--CB-[OG] |==|  0.35228
USER: genes 8 Torsion [CA]-CB--OG-[HG] |==|  0.25627
USER: genes 9 Torsion [N]-CA--CB-[CG1] |==|  0.41245
USER: genes 10 Torsion [N]-CA--C-[N] |==|  0.36085
USER: genes 11 Torsion [C]-N--CA-[C] |==|  0.78889
USER: genes 12 Torsion [N]-CA--C-[N] |==|  0.90594
USER: genes 13 Torsion [C]-N--CA-[CB] |==|  0.21121
USER: genes 14 Torsion [N]-CA--C-[O] |==|  0.87556
USER: genes 15 Torsion [N]-CA--CB-[OG] |==|  0.15470
USER: genes 16 Torsion [CA]-CB--OG-[HG] |==|  0.94048
ROOT
ATOM      1  CA  VAL B 303      20.212   9.560  28.244  1.00 28.18 LIG 0.18  C 
ENDROOT
BRANCH 1 2
ATOM      2  N   VAL B 303      19.693   9.596  29.605  1.00 29.68 LIG-0.35  N 
ATOM      3  C   SER B 302      18.796   8.716  30.044  1.00 31.00 LIG 0.24  C 
ATOM      4 O    SER B 302      18.324   7.831  29.317  1.00 32.88 LIG-0.27  OA
ATOM      5 H    VAL B 303      20.017  10.229  30.089  1.00 29.68 LIG 0.16  HD
BRANCH 3 6
ATOM      6  CA  SER B 302      18.347   8.871  31.510  1.00 30.54 LIG 0.20  C 
BRANCH 6 7
ATOM      7  N   SER B 302      18.225  10.278  31.900  1.00 26.47 LIG-0.34  N 
ATOM      8  C   ALA B 301      17.381  11.114  31.295  1.00 26.40 LIG 0.25  C 
ATOM      9 O    ALA B 301      16.668  10.790  30.344  1.00 23.28 LIG-0.27  OA
ATOM     10 H    SER B 302      18.743  10.510  32.546  1.00 26.47 LIG 0.16  HD
BRANCH 8 11
ATOM     11  CA  ALA B 301      17.355  12.549  31.821  1.00 27.42 LIG 0.27  C 
ATOM     12  CB  ALA B 301      16.585  13.482  30.838  1.00 28.79 LIG 0.05  C 
BRANCH 11 13
ATOM     13  N   ALA B 301      18.754  13.052  31.999  1.00 29.28 LIG-0.07  N 
ATOM     14 H1   ALA B 301      18.879  13.769  31.486  1.00 29.28 LIG 0.28  HD
ATOM     15 H2   ALA B 301      18.885  13.270  32.851  1.00 29.28 LIG 0.28  HD
ATOM     16 H3   ALA B 301      19.331  12.416  31.764  1.00 29.28 LIG 0.28  HD
ENDBRANCH 11 13
ENDBRANCH 8 11
ENDBRANCH 6 7
BRANCH 6 17
ATOM     17  CB  SER B 302      17.020   8.131  31.706  1.00 31.87 LIG 0.20  C 
BRANCH 17 18
ATOM     18 OG   SER B 302      17.117   7.229  32.787  1.00 37.10 LIG-0.40  OA
ATOM     19 HG   SER B 302      16.863   7.609  33.492  1.00 37.10 LIG 0.21  HD
ENDBRANCH 17 18
ENDBRANCH 6 17
ENDBRANCH 3 6
ENDBRANCH 1 2
BRANCH 1 20
ATOM     20  CB  VAL B 303      19.808  10.857  27.442  1.00 29.00 LIG 0.01  C 
ATOM     21  CG1 VAL B 303      20.888  11.192  26.433  1.00 28.23 LIG 0.01  C 
ATOM     22  CG2 VAL B 303      18.481  10.647  26.703  1.00 26.76 LIG 0.01  C 
ENDBRANCH 1 20
BRANCH 1 23
ATOM     23  C   VAL B 303      21.725   9.455  28.329  1.00 28.25 LIG 0.24  C 
ATOM     24 O    VAL B 303      22.366  10.208  29.071  1.00 25.63 LIG-0.27  OA
ATOM     25  N   SER B 304      22.312   8.508  27.608  1.00 28.07 LIG-0.34  N 
ATOM     26 H    SER B 304      21.898   7.939  27.114  1.00 28.07 LIG 0.16  HD
BRANCH 25 27
ATOM     27  CA  SER B 304      23.763   8.381  27.621  1.00 30.78 LIG 0.20  C 
BRANCH 27 28
ATOM     28  C   SER B 304      24.344   9.503  26.750  1.00 31.57 LIG 0.24  C 
ATOM     29 O    SER B 304      25.415  10.037  27.056  1.00 32.88 LIG-0.27  OA
ATOM     30  N   ALA B 305      23.631   9.872  25.688  1.00 33.00 LIG-0.35  N 
ATOM     31 H    ALA B 305      22.868   9.525  25.493  1.00 33.00 LIG 0.16  HD
BRANCH 30 32
ATOM     32  CA  ALA B 305      24.066  10.907  24.739  1.00 34.21 LIG 0.16  C 
ATOM     33  CB  ALA B 305      25.178  10.319  23.800  1.00 33.59 LIG 0.04  C 
BRANCH 32 34
ATOM     34  C   ALA B 305      22.905  11.395  23.887  1.00 34.64 LIG 0.22  C 
ATOM     35 O    ALA B 305      22.131  10.534  23.402  1.00 35.93 LIG-0.29  OA
ENDBRANCH 32 34
ENDBRANCH 30 32
ENDBRANCH 27 28
BRANCH 27 36
ATOM     36  CB  SER B 304      24.180   7.011  27.084  1.00 32.96 LIG 0.20  C 
BRANCH 36 37
ATOM     37 OG   SER B 304      23.631   6.822  25.790  1.00 37.22 LIG-0.40  OA
ATOM     38 HG   SER B 304      22.971   7.331  25.688  1.00 37.22 LIG 0.21  HD
ENDBRANCH 36 37
ENDBRANCH 27 36
ENDBRANCH 25 27
ENDBRANCH 1 23
TORSDOF 15
ENDMDL
MODEL 74
USER: ADFR SOLUTION from run 118
USER: SCORE 12.731257 LL:  -2.881 LR: -10.520 RR:   0.000 FEB:  -6.045
USER: RMSD 8.220751
USER: SEED 117
USER: STATUS no improvement in best 18 clusters for 5 generations
USER: GENES 17
USER: genes 0 Translation |==|  0.49996 0.54956 0.47097
USER: genes 1 Rotation |==|  0.46023 0.38278 0.98254 0.54283
USER: genes 2 Torsion [C]-CA--N-[C] |==|  0.78584
USER: genes 3 Torsion [N]-C--CA-[N] |==|  0.30731
USER: genes 4 Torsion [C]-CA--N-[C] |==|  0.65912
USER: genes 5 Torsion [N]-C--CA-[N] |==|  0.13965
USER: genes 6 Torsion [C]-CA--N-[H1] |==|  0.31959
USER: genes 7 Torsion [C]-CA--CB-[OG] |==|  0.74735
USER: genes 8 Torsion [CA]-CB--OG-[HG] |==|  0.96195
USER: genes 9 Torsion [N]-CA--CB-[CG1] |==|  0.15440
USER: genes 10 Torsion [N]-CA--C-[N] |==|  0.91676
USER: genes 11 Torsion [C]-N--CA-[C] |==|  0.75905
USER: genes 12 Torsion [N]-CA--C-[N] |==|  0.16300
USER: genes 13 Torsion [C]-N--CA-[CB] |==|  0.33878
USER: genes 14 Torsion [N]-CA--C-[O] |==|  0.05784
USER: genes 15 Torsion [N]-CA--CB-[OG] |==|  0.99267
USER: genes 16 Torsion [CA]-CB--OG-[HG] |==|  0.34626
ROOT
ATOM      1  CA  VAL B 303      13.129   5.267  31.879  1.00 28.18 LIG 0.18  C 
ENDROOT
BRANCH 1 2
ATOM      2  N   VAL B 303      14.267   4.913  32.717  1.00 29.68 LIG-0.35  N 
ATOM      3  C   SER B 302      14.177   4.851  34.043  1.00 31.00 LIG 0.24  C 
ATOM      4 O    SER B 302      13.131   5.116  34.652  1.00 32.88 LIG-0.27  OA
ATOM      5 H    VAL B 303      14.990   4.752  32.280  1.00 29.68 LIG 0.16  HD
BRANCH 3 6
ATOM      6  CA  SER B 302      15.462   4.454  34.798  1.00 30.54 LIG 0.20  C 
BRANCH 6 7
ATOM      7  N   SER B 302      16.016   5.574  35.562  1.00 26.47 LIG-0.34  N 
ATOM      8  C   ALA B 301      17.259   6.017  35.377  1.00 26.40 LIG 0.25  C 
ATOM      9 O    ALA B 301      18.052   5.507  34.584  1.00 23.28 LIG-0.27  OA
ATOM     10 H    SER B 302      15.470   5.913  36.134  1.00 26.47 LIG 0.16  HD
BRANCH 8 11
ATOM     11  CA  ALA B 301      17.691   7.204  36.239  1.00 27.42 LIG 0.27  C 
ATOM     12  CB  ALA B 301      19.217   7.476  36.075  1.00 28.79 LIG 0.05  C 
BRANCH 11 13
ATOM     13  N   ALA B 301      17.381   6.927  37.677  1.00 29.28 LIG-0.07  N 
ATOM     14 H1   ALA B 301      18.140   6.876  38.140  1.00 29.28 LIG 0.28  HD
ATOM     15 H2   ALA B 301      16.879   7.585  38.005  1.00 29.28 LIG 0.28  HD
ATOM     16 H3   ALA B 301      16.941   6.157  37.744  1.00 29.28 LIG 0.28  HD
ENDBRANCH 11 13
ENDBRANCH 8 11
ENDBRANCH 6 7
BRANCH 6 17
ATOM     17  CB  SER B 302      15.155   3.263  35.712  1.00 31.87 LIG 0.20  C 
BRANCH 17 18
ATOM     18 OG   SER B 302      14.761   3.715  36.989  1.00 37.10 LIG-0.40  OA
ATOM     19 HG   SER B 302      14.946   4.530  37.068  1.00 37.10 LIG 0.21  HD
ENDBRANCH 17 18
ENDBRANCH 6 17
ENDBRANCH 3 6
ENDBRANCH 1 2
BRANCH 1 20
ATOM     20  CB  VAL B 303      13.592   5.700  30.435  1.00 29.00 LIG 0.01  C 
ATOM     21  CG1 VAL B 303      14.430   4.600  29.814  1.00 28.23 LIG 0.01  C 
ATOM     22  CG2 VAL B 303      12.380   5.973  29.536  1.00 26.76 LIG 0.01  C 
ENDBRANCH 1 20
BRANCH 1 23
ATOM     23  C   VAL B 303      12.226   4.047  31.789  1.00 28.25 LIG 0.24  C 
ATOM     24 O    VAL B 303      11.010   4.178  31.611  1.00 25.63 LIG-0.27  OA
ATOM     25  N   SER B 304      12.803   2.856  31.874  1.00 28.07 LIG-0.34  N 
ATOM     26 H    SER B 304      13.648   2.723  31.955  1.00 28.07 LIG 0.16  HD
BRANCH 25 27
ATOM     27  CA  SER B 304      11.986   1.650  31.830  1.00 30.78 LIG 0.20  C 
BRANCH 27 28
ATOM     28  C   SER B 304      11.518   1.343  33.259  1.00 31.57 LIG 0.24  C 
ATOM     29 O    SER B 304      11.781   0.254  33.780  1.00 32.88 LIG-0.27  OA
ATOM     30  N   ALA B 305      10.809   2.286  33.876  1.00 33.00 LIG-0.35  N 
ATOM     31 H    ALA B 305      10.595   3.030  33.503  1.00 33.00 LIG 0.16  HD
BRANCH 30 32
ATOM     32  CA  ALA B 305      10.318   2.157  35.256  1.00 34.21 LIG 0.16  C 
ATOM     33  CB  ALA B 305      10.878   3.341  36.121  1.00 33.59 LIG 0.04  C 
BRANCH 32 34
ATOM     34  C   ALA B 305       8.798   2.183  35.304  1.00 34.64 LIG 0.22  C 
ATOM     35 O    ALA B 305       8.174   1.905  34.250  1.00 35.93 LIG-0.29  OA
ENDBRANCH 32 34
ENDBRANCH 30 32
ENDBRANCH 27 28
BRANCH 27 36
ATOM     36  CB  SER B 304      12.794   0.481  31.265  1.00 32.96 LIG 0.20  C 
BRANCH 36 37
ATOM     37 OG   SER B 304      14.086   0.934  30.893  1.00 37.22 LIG-0.40  OA
ATOM     38 HG   SER B 304      14.668   0.472  31.282  1.00 37.22 LIG 0.21  HD
ENDBRANCH 36 37
ENDBRANCH 27 36
ENDBRANCH 25 27
ENDBRANCH 1 23
TORSDOF 15
ENDMDL
MODEL 75
USER: ADFR SOLUTION from run 78
USER: SCORE 13.313018 LL:  -3.023 LR: -10.524 RR:   0.000 FEB:  -6.049
USER: RMSD 3.556206
USER: SEED 77
USER: STATUS no improvement in best 22 clusters for 5 generations
USER: GENES 17
USER: genes 0 Translation |==|  0.52087 0.51878 0.49158
USER: genes 1 Rotation |==|  0.68627 0.57345 0.45770 0.95620
USER: genes 2 Torsion [C]-CA--N-[C] |==|  0.76350
USER: genes 3 Torsion [N]-C--CA-[N] |==|  0.88179
USER: genes 4 Torsion [C]-CA--N-[C] |==|  0.81030
USER: genes 5 Torsion [N]-C--CA-[N] |==|  0.17872
USER: genes 6 Torsion [C]-CA--N-[H1] |==|  0.55513
USER: genes 7 Torsion [C]-CA--CB-[OG] |==|  0.66706
USER: genes 8 Torsion [CA]-CB--OG-[HG] |==|  0.14375
USER: genes 9 Torsion [N]-CA--CB-[CG1] |==|  0.45498
USER: genes 10 Torsion [N]-CA--C-[N] |==|  0.35110
USER: genes 11 Torsion [C]-N--CA-[C] |==|  0.80651
USER: genes 12 Torsion [N]-CA--C-[N] |==|  0.89028
USER: genes 13 Torsion [C]-N--CA-[CB] |==|  0.16824
USER: genes 14 Torsion [N]-CA--C-[O] |==|  0.95087
USER: genes 15 Torsion [N]-CA--CB-[OG] |==|  0.04260
USER: genes 16 Torsion [CA]-CB--OG-[HG] |==|  0.59691
ROOT
ATOM      1  CA  VAL B 303      13.756   4.343  32.497  1.00 28.18 LIG 0.18  C 
ENDROOT
BRANCH 1 2
ATOM      2  N   VAL B 303      12.633   3.768  33.226  1.00 29.68 LIG-0.35  N 
ATOM      3  C   SER B 302      12.598   2.484  33.573  1.00 31.00 LIG 0.24  C 
ATOM      4 O    SER B 302      13.503   1.691  33.277  1.00 32.88 LIG-0.27  OA
ATOM      5 H    VAL B 303      12.005   4.328  33.406  1.00 29.68 LIG 0.16  HD
BRANCH 3 6
ATOM      6  CA  SER B 302      11.350   2.019  34.349  1.00 30.54 LIG 0.20  C 
BRANCH 6 7
ATOM      7  N   SER B 302      10.952   2.986  35.375  1.00 26.47 LIG-0.34  N 
ATOM      8  C   ALA B 301      11.689   3.217  36.461  1.00 26.40 LIG 0.25  C 
ATOM      9 O    ALA B 301      12.736   2.618  36.712  1.00 23.28 LIG-0.27  OA
ATOM     10 H    SER B 302      10.207   3.385  35.212  1.00 26.47 LIG 0.16  HD
BRANCH 8 11
ATOM     11  CA  ALA B 301      11.152   4.265  37.436  1.00 27.42 LIG 0.27  C 
ATOM     12  CB  ALA B 301      12.177   4.530  38.579  1.00 28.79 LIG 0.05  C 
BRANCH 11 13
ATOM     13  N   ALA B 301       9.855   3.798  38.022  1.00 29.28 LIG-0.07  N 
ATOM     14 H1   ALA B 301       9.408   4.495  38.348  1.00 29.28 LIG 0.28  HD
ATOM     15 H2   ALA B 301       9.369   3.403  37.389  1.00 29.28 LIG 0.28  HD
ATOM     16 H3   ALA B 301      10.017   3.217  38.676  1.00 29.28 LIG 0.28  HD
ENDBRANCH 11 13
ENDBRANCH 8 11
ENDBRANCH 6 7
BRANCH 6 17
ATOM     17  CB  SER B 302      10.210   1.771  33.356  1.00 31.87 LIG 0.20  C 
BRANCH 17 18
ATOM     18 OG   SER B 302       9.113   2.610  33.649  1.00 37.10 LIG-0.40  OA
ATOM     19 HG   SER B 302       9.377   3.405  33.707  1.00 37.10 LIG 0.21  HD
ENDBRANCH 17 18
ENDBRANCH 6 17
ENDBRANCH 3 6
ENDBRANCH 1 2
BRANCH 1 20
ATOM     20  CB  VAL B 303      13.313   5.609  31.666  1.00 29.00 LIG 0.01  C 
ATOM     21  CG1 VAL B 303      14.535   6.405  31.255  1.00 28.23 LIG 0.01  C 
ATOM     22  CG2 VAL B 303      12.543   5.190  30.408  1.00 26.76 LIG 0.01  C 
ENDBRANCH 1 20
BRANCH 1 23
ATOM     23  C   VAL B 303      14.813   4.737  33.516  1.00 28.25 LIG 0.24  C 
ATOM     24 O    VAL B 303      14.516   5.441  34.488  1.00 25.63 LIG-0.27  OA
ATOM     25  N   SER B 304      16.040   4.267  33.334  1.00 28.07 LIG-0.34  N 
ATOM     26 H    SER B 304      16.275   3.741  32.695  1.00 28.07 LIG 0.16  HD
BRANCH 25 27
ATOM     27  CA  SER B 304      17.104   4.639  34.257  1.00 30.78 LIG 0.20  C 
BRANCH 27 28
ATOM     28  C   SER B 304      17.421   6.125  34.040  1.00 31.57 LIG 0.24  C 
ATOM     29 O    SER B 304      17.641   6.861  35.007  1.00 32.88 LIG-0.27  OA
ATOM     30  N   ALA B 305      17.418   6.564  32.783  1.00 33.00 LIG-0.35  N 
ATOM     31 H    ALA B 305      17.230   6.060  32.112  1.00 33.00 LIG 0.16  HD
BRANCH 30 32
ATOM     32  CA  ALA B 305      17.734   7.950  32.409  1.00 34.21 LIG 0.16  C 
ATOM     33  CB  ALA B 305      19.196   8.293  32.864  1.00 33.59 LIG 0.04  C 
BRANCH 32 34
ATOM     34  C   ALA B 305      17.622   8.153  30.906  1.00 34.64 LIG 0.22  C 
ATOM     35 O    ALA B 305      17.630   7.132  30.174  1.00 35.93 LIG-0.29  OA
ENDBRANCH 32 34
ENDBRANCH 30 32
ENDBRANCH 27 28
BRANCH 27 36
ATOM     36  CB  SER B 304      18.346   3.782  34.008  1.00 32.96 LIG 0.20  C 
BRANCH 36 37
ATOM     37 OG   SER B 304      18.232   3.137  32.750  1.00 37.22 LIG-0.40  OA
ATOM     38 HG   SER B 304      18.584   2.375  32.792  1.00 37.22 LIG 0.21  HD
ENDBRANCH 36 37
ENDBRANCH 27 36
ENDBRANCH 25 27
ENDBRANCH 1 23
TORSDOF 15
ENDMDL
MODEL 76
USER: ADFR SOLUTION from run 69
USER: SCORE 12.523625 LL:  -2.651 LR: -10.509 RR:   0.000 FEB:  -6.034
USER: RMSD 5.616139
USER: SEED 68
USER: STATUS no improvement in best 14 clusters for 5 generations
USER: GENES 17
USER: genes 0 Translation |==|  0.53490 0.53603 0.58148
USER: genes 1 Rotation |==|  0.91681 0.74033 0.63477 0.51872
USER: genes 2 Torsion [C]-CA--N-[C] |==|  0.72326
USER: genes 3 Torsion [N]-C--CA-[N] |==|  0.95189
USER: genes 4 Torsion [C]-CA--N-[C] |==|  0.80427
USER: genes 5 Torsion [N]-C--CA-[N] |==|  0.35476
USER: genes 6 Torsion [C]-CA--N-[H1] |==|  0.34238
USER: genes 7 Torsion [C]-CA--CB-[OG] |==|  0.77999
USER: genes 8 Torsion [CA]-CB--OG-[HG] |==|  0.29698
USER: genes 9 Torsion [N]-CA--CB-[CG1] |==|  0.79921
USER: genes 10 Torsion [N]-CA--C-[N] |==|  0.35599
USER: genes 11 Torsion [C]-N--CA-[C] |==|  0.60561
USER: genes 12 Torsion [N]-CA--C-[N] |==|  0.17219
USER: genes 13 Torsion [C]-N--CA-[CB] |==|  0.87707
USER: genes 14 Torsion [N]-CA--C-[O] |==|  0.59422
USER: genes 15 Torsion [N]-CA--CB-[OG] |==|  0.06875
USER: genes 16 Torsion [CA]-CB--OG-[HG] |==|  0.11972
ROOT
ATOM      1  CA  VAL B 303      14.177   4.861  35.194  1.00 28.18 LIG 0.18  C 
ENDROOT
BRANCH 1 2
ATOM      2  N   VAL B 303      13.825   4.067  34.024  1.00 29.68 LIG-0.35  N 
ATOM      3  C   SER B 302      13.525   4.627  32.854  1.00 31.00 LIG 0.24  C 
ATOM      4 O    SER B 302      13.497   5.854  32.692  1.00 32.88 LIG-0.27  OA
ATOM      5 H    VAL B 303      13.829   3.218  34.160  1.00 29.68 LIG 0.16  HD
BRANCH 3 6
ATOM      6  CA  SER B 302      13.181   3.661  31.703  1.00 30.54 LIG 0.20  C 
BRANCH 6 7
ATOM      7  N   SER B 302      13.633   2.295  31.981  1.00 26.47 LIG-0.34  N 
ATOM      8  C   ALA B 301      14.923   1.959  31.989  1.00 26.40 LIG 0.25  C 
ATOM      9 O    ALA B 301      15.832   2.749  31.730  1.00 23.28 LIG-0.27  OA
ATOM     10 H    SER B 302      12.995   1.739  32.136  1.00 26.47 LIG 0.16  HD
BRANCH 8 11
ATOM     11  CA  ALA B 301      15.241   0.499  32.310  1.00 27.42 LIG 0.27  C 
ATOM     12  CB  ALA B 301      15.939   0.381  33.699  1.00 28.79 LIG 0.05  C 
BRANCH 11 13
ATOM     13  N   ALA B 301      16.130  -0.073  31.250  1.00 29.28 LIG-0.07  N 
ATOM     14 H1   ALA B 301      16.874  -0.388  31.624  1.00 29.28 LIG 0.28  HD
ATOM     15 H2   ALA B 301      15.706  -0.735  30.832  1.00 29.28 LIG 0.28  HD
ATOM     16 H3   ALA B 301      16.339   0.562  30.663  1.00 29.28 LIG 0.28  HD
ENDBRANCH 11 13
ENDBRANCH 8 11
ENDBRANCH 6 7
BRANCH 6 17
ATOM     17  CB  SER B 302      11.670   3.699  31.454  1.00 31.87 LIG 0.20  C 
BRANCH 17 18
ATOM     18 OG   SER B 302      10.995   2.915  32.413  1.00 37.10 LIG-0.40  OA
ATOM     19 HG   SER B 302      10.600   3.417  32.958  1.00 37.10 LIG 0.21  HD
ENDBRANCH 17 18
ENDBRANCH 6 17
ENDBRANCH 3 6
ENDBRANCH 1 2
BRANCH 1 20
ATOM     20  CB  VAL B 303      13.532   4.267  36.506  1.00 29.00 LIG 0.01  C 
ATOM     21  CG1 VAL B 303      12.039   4.530  36.506  1.00 28.23 LIG 0.01  C 
ATOM     22  CG2 VAL B 303      13.774   2.755  36.593  1.00 26.76 LIG 0.01  C 
ENDBRANCH 1 20
BRANCH 1 23
ATOM     23  C   VAL B 303      15.692   4.856  35.316  1.00 28.25 LIG 0.24  C 
ATOM     24 O    VAL B 303      16.322   3.793  35.273  1.00 25.63 LIG-0.27  OA
ATOM     25  N   SER B 304      16.297   6.031  35.431  1.00 28.07 LIG-0.34  N 
ATOM     26 H    SER B 304      15.898   6.793  35.422  1.00 28.07 LIG 0.16  HD
BRANCH 25 27
ATOM     27  CA  SER B 304      17.745   6.089  35.587  1.00 30.78 LIG 0.20  C 
BRANCH 27 28
ATOM     28  C   SER B 304      18.069   7.217  36.575  1.00 31.57 LIG 0.24  C 
ATOM     29 O    SER B 304      18.762   8.176  36.220  1.00 32.88 LIG-0.27  OA
ATOM     30  N   ALA B 305      17.594   7.089  37.813  1.00 33.00 LIG-0.35  N 
ATOM     31 H    ALA B 305      17.142   6.404  38.072  1.00 33.00 LIG 0.16  HD
BRANCH 30 32
ATOM     32  CA  ALA B 305      17.790   8.097  38.864  1.00 34.21 LIG 0.16  C 
ATOM     33  CB  ALA B 305      19.280   8.589  38.845  1.00 33.59 LIG 0.04  C 
BRANCH 32 34
ATOM     34  C   ALA B 305      16.871   9.292  38.658  1.00 34.64 LIG 0.22  C 
ATOM     35 O    ALA B 305      17.300  10.425  38.989  1.00 35.93 LIG-0.29  OA
ENDBRANCH 32 34
ENDBRANCH 30 32
ENDBRANCH 27 28
BRANCH 27 36
ATOM     36  CB  SER B 304      18.414   6.347  34.237  1.00 32.96 LIG 0.20  C 
BRANCH 36 37
ATOM     37 OG   SER B 304      17.501   7.002  33.372  1.00 37.22 LIG-0.40  OA
ATOM     38 HG   SER B 304      17.095   7.603  33.796  1.00 37.22 LIG 0.21  HD
ENDBRANCH 36 37
ENDBRANCH 27 36
ENDBRANCH 25 27
ENDBRANCH 1 23
TORSDOF 15
ENDMDL
MODEL 77
USER: ADFR SOLUTION from run 36
USER: SCORE 12.800963 LL:  -2.921 LR: -10.490 RR:   0.000 FEB:  -6.015
USER: RMSD 9.347324
USER: SEED 35
USER: STATUS no improvement in best 7 clusters for 5 generations
USER: GENES 17
USER: genes 0 Translation |==|  0.61812 0.57317 0.48606
USER: genes 1 Rotation |==|  0.17035 0.76113 0.24682 0.59508
USER: genes 2 Torsion [C]-CA--N-[C] |==|  0.56029
USER: genes 3 Torsion [N]-C--CA-[N] |==|  0.36079
USER: genes 4 Torsion [C]-CA--N-[C] |==|  0.83308
USER: genes 5 Torsion [N]-C--CA-[N] |==|  0.02381
USER: genes 6 Torsion [C]-CA--N-[H1] |==|  0.35707
USER: genes 7 Torsion [C]-CA--CB-[OG] |==|  0.60655
USER: genes 8 Torsion [CA]-CB--OG-[HG] |==|  0.22737
USER: genes 9 Torsion [N]-CA--CB-[CG1] |==|  0.22144
USER: genes 10 Torsion [N]-CA--C-[N] |==|  0.45504
USER: genes 11 Torsion [C]-N--CA-[C] |==|  0.73788
USER: genes 12 Torsion [N]-CA--C-[N] |==|  0.10541
USER: genes 13 Torsion [C]-N--CA-[CB] |==|  0.30342
USER: genes 14 Torsion [N]-CA--C-[O] |==|  0.91499
USER: genes 15 Torsion [N]-CA--CB-[OG] |==|  0.95680
USER: genes 16 Torsion [CA]-CB--OG-[HG] |==|  0.71037
ROOT
ATOM      1  CA  VAL B 303      16.674   5.975  32.332  1.00 28.18 LIG 0.18  C 
ENDROOT
BRANCH 1 2
ATOM      2  N   VAL B 303      17.441   6.998  31.633  1.00 29.68 LIG-0.35  N 
ATOM      3  C   SER B 302      18.061   7.982  32.280  1.00 31.00 LIG 0.24  C 
ATOM      4 O    SER B 302      18.003   8.109  33.511  1.00 32.88 LIG-0.27  OA
ATOM      5 H    VAL B 303      17.454   6.906  30.778  1.00 29.68 LIG 0.16  HD
BRANCH 3 6
ATOM      6  CA  SER B 302      18.843   8.986  31.409  1.00 30.54 LIG 0.20  C 
BRANCH 6 7
ATOM      7  N   SER B 302      18.501  10.373  31.732  1.00 26.47 LIG-0.34  N 
ATOM      8  C   ALA B 301      17.260  10.847  31.616  1.00 26.40 LIG 0.25  C 
ATOM      9 O    ALA B 301      16.314  10.179  31.196  1.00 23.28 LIG-0.27  OA
ATOM     10 H    SER B 302      19.167  10.846  32.000  1.00 26.47 LIG 0.16  HD
BRANCH 8 11
ATOM     11  CA  ALA B 301      17.055  12.311  32.004  1.00 27.42 LIG 0.27  C 
ATOM     12  CB  ALA B 301      16.292  13.076  30.881  1.00 28.79 LIG 0.05  C 
BRANCH 11 13
ATOM     13  N   ALA B 301      18.380  12.964  32.247  1.00 29.28 LIG-0.07  N 
ATOM     14 H1   ALA B 301      18.432  13.716  31.773  1.00 29.28 LIG 0.28  HD
ATOM     15 H2   ALA B 301      18.464  13.153  33.112  1.00 29.28 LIG 0.28  HD
ATOM     16 H3   ALA B 301      19.033  12.413  31.999  1.00 29.28 LIG 0.28  HD
ENDBRANCH 11 13
ENDBRANCH 8 11
ENDBRANCH 6 7
BRANCH 6 17
ATOM     17  CB  SER B 302      20.344   8.735  31.585  1.00 31.87 LIG 0.20  C 
BRANCH 17 18
ATOM     18 OG   SER B 302      21.046   9.959  31.606  1.00 37.10 LIG-0.40  OA
ATOM     19 HG   SER B 302      21.004  10.292  32.376  1.00 37.10 LIG 0.21  HD
ENDBRANCH 17 18
ENDBRANCH 6 17
ENDBRANCH 3 6
ENDBRANCH 1 2
BRANCH 1 20
ATOM     20  CB  VAL B 303      15.229   6.491  32.697  1.00 29.00 LIG 0.01  C 
ATOM     21  CG1 VAL B 303      14.331   6.405  31.479  1.00 28.23 LIG 0.01  C 
ATOM     22  CG2 VAL B 303      14.621   5.650  33.826  1.00 26.76 LIG 0.01  C 
ENDBRANCH 1 20
BRANCH 1 23
ATOM     23  C   VAL B 303      16.575   4.767  31.416  1.00 28.25 LIG 0.24  C 
ATOM     24 O    VAL B 303      16.859   4.863  30.217  1.00 25.63 LIG-0.27  OA
ATOM     25  N   SER B 304      16.211   3.615  31.964  1.00 28.07 LIG-0.34  N 
ATOM     26 H    SER B 304      16.047   3.499  32.800  1.00 28.07 LIG 0.16  HD
BRANCH 25 27
ATOM     27  CA  SER B 304      16.064   2.429  31.131  1.00 30.78 LIG 0.20  C 
BRANCH 27 28
ATOM     28  C   SER B 304      14.589   2.318  30.721  1.00 31.57 LIG 0.24  C 
ATOM     29 O    SER B 304      14.049   1.210  30.634  1.00 32.88 LIG-0.27  OA
ATOM     30  N   ALA B 305      13.953   3.455  30.447  1.00 33.00 LIG-0.35  N 
ATOM     31 H    ALA B 305      14.337   4.224  30.473  1.00 33.00 LIG 0.16  HD
BRANCH 30 32
ATOM     32  CA  ALA B 305      12.533   3.519  30.074  1.00 34.21 LIG 0.16  C 
ATOM     33  CB  ALA B 305      11.712   4.156  31.250  1.00 33.59 LIG 0.04  C 
BRANCH 32 34
ATOM     34  C   ALA B 305      12.331   4.354  28.819  1.00 34.64 LIG 0.22  C 
ATOM     35 O    ALA B 305      13.132   5.298  28.608  1.00 35.93 LIG-0.29  OA
ENDBRANCH 32 34
ENDBRANCH 30 32
ENDBRANCH 27 28
BRANCH 27 36
ATOM     36  CB  SER B 304      16.505   1.183  31.899  1.00 32.96 LIG 0.20  C 
BRANCH 36 37
ATOM     37 OG   SER B 304      17.252   1.569  33.041  1.00 37.22 LIG-0.40  OA
ATOM     38 HG   SER B 304      18.069   1.432  32.901  1.00 37.22 LIG 0.21  HD
ENDBRANCH 36 37
ENDBRANCH 27 36
ENDBRANCH 25 27
ENDBRANCH 1 23
TORSDOF 15
ENDMDL
MODEL 78
USER: ADFR SOLUTION from run 76
USER: SCORE 12.411525 LL:  -2.421 LR: -10.490 RR:   0.000 FEB:  -6.015
USER: RMSD 12.215595
USER: SEED 75
USER: STATUS no improvement in best 15 clusters for 5 generations
USER: GENES 17
USER: genes 0 Translation |==|  0.70452 0.71850 0.32590
USER: genes 1 Rotation |==|  0.53985 0.75667 0.40602 0.91677
USER: genes 2 Torsion [C]-CA--N-[C] |==|  0.60692
USER: genes 3 Torsion [N]-C--CA-[N] |==|  0.87368
USER: genes 4 Torsion [C]-CA--N-[C] |==|  0.82201
USER: genes 5 Torsion [N]-C--CA-[N] |==|  0.94931
USER: genes 6 Torsion [C]-CA--N-[H1] |==|  0.63047
USER: genes 7 Torsion [C]-CA--CB-[OG] |==|  0.75258
USER: genes 8 Torsion [CA]-CB--OG-[HG] |==|  0.81191
USER: genes 9 Torsion [N]-CA--CB-[CG1] |==|  0.98136
USER: genes 10 Torsion [N]-CA--C-[N] |==|  0.40592
USER: genes 11 Torsion [C]-N--CA-[C] |==|  0.58677
USER: genes 12 Torsion [N]-CA--C-[N] |==|  0.37944
USER: genes 13 Torsion [C]-N--CA-[CB] |==|  0.83462
USER: genes 14 Torsion [N]-CA--C-[O] |==|  0.26096
USER: genes 15 Torsion [N]-CA--CB-[OG] |==|  0.04267
USER: genes 16 Torsion [CA]-CB--OG-[HG] |==|  0.13263
ROOT
ATOM      1  CA  VAL B 303      19.266  10.335  27.527  1.00 28.18 LIG 0.18  C 
ENDROOT
BRANCH 1 2
ATOM      2  N   VAL B 303      19.217  10.204  28.977  1.00 29.68 LIG-0.35  N 
ATOM      3  C   SER B 302      18.788   9.094  29.573  1.00 31.00 LIG 0.24  C 
ATOM      4 O    SER B 302      18.378   8.114  28.936  1.00 32.88 LIG-0.27  OA
ATOM      5 H    VAL B 303      19.486  10.901  29.404  1.00 29.68 LIG 0.16  HD
BRANCH 3 6
ATOM      6  CA  SER B 302      18.802   9.096  31.115  1.00 30.54 LIG 0.20  C 
BRANCH 6 7
ATOM      7  N   SER B 302      20.056   9.633  31.650  1.00 26.47 LIG-0.34  N 
ATOM      8  C   ALA B 301      21.230   9.034  31.450  1.00 26.40 LIG 0.25  C 
ATOM      9 O    ALA B 301      21.356   7.972  30.838  1.00 23.28 LIG-0.27  OA
ATOM     10 H    SER B 302      19.963  10.360  32.099  1.00 26.47 LIG 0.16  HD
BRANCH 8 11
ATOM     11  CA  ALA B 301      22.453   9.720  32.058  1.00 27.42 LIG 0.27  C 
ATOM     12  CB  ALA B 301      22.908   8.985  33.355  1.00 28.79 LIG 0.05  C 
BRANCH 11 13
ATOM     13  N   ALA B 301      22.130  11.147  32.376  1.00 29.28 LIG-0.07  N 
ATOM     14 H1   ALA B 301      22.783  11.674  32.077  1.00 29.28 LIG 0.28  HD
ATOM     15 H2   ALA B 301      21.364  11.373  31.984  1.00 29.28 LIG 0.28  HD
ATOM     16 H3   ALA B 301      22.051  11.245  33.257  1.00 29.28 LIG 0.28  HD
ENDBRANCH 11 13
ENDBRANCH 8 11
ENDBRANCH 6 7
BRANCH 6 17
ATOM     17  CB  SER B 302      17.600   9.900  31.623  1.00 31.87 LIG 0.20  C 
BRANCH 17 18
ATOM     18 OG   SER B 302      17.942  11.262  31.756  1.00 37.10 LIG-0.40  OA
ATOM     19 HG   SER B 302      18.499  11.351  32.378  1.00 37.10 LIG 0.21  HD
ENDBRANCH 17 18
ENDBRANCH 6 17
ENDBRANCH 3 6
ENDBRANCH 1 2
BRANCH 1 20
ATOM     20  CB  VAL B 303      18.001  11.101  26.977  1.00 29.00 LIG 0.01  C 
ATOM     21  CG1 VAL B 303      17.015  11.336  28.103  1.00 28.23 LIG 0.01  C 
ATOM     22  CG2 VAL B 303      18.404  12.452  26.375  1.00 26.76 LIG 0.01  C 
ENDBRANCH 1 20
BRANCH 1 23
ATOM     23  C   VAL B 303      20.529  11.104  27.176  1.00 28.25 LIG 0.24  C 
ATOM     24 O    VAL B 303      20.970  11.968  27.941  1.00 25.63 LIG-0.27  OA
ATOM     25  N   SER B 304      21.143  10.782  26.045  1.00 28.07 LIG-0.34  N 
ATOM     26 H    SER B 304      20.891  10.159  25.509  1.00 28.07 LIG 0.16  HD
BRANCH 25 27
ATOM     27  CA  SER B 304      22.339  11.508  25.637  1.00 30.78 LIG 0.20  C 
BRANCH 27 28
ATOM     28  C   SER B 304      22.375  11.535  24.103  1.00 31.57 LIG 0.24  C 
ATOM     29 O    SER B 304      22.130  10.511  23.456  1.00 32.88 LIG-0.27  OA
ATOM     30  N   ALA B 305      22.704  12.690  23.528  1.00 33.00 LIG-0.35  N 
ATOM     31 H    ALA B 305      22.910  13.394  23.977  1.00 33.00 LIG 0.16  HD
BRANCH 30 32
ATOM     32  CA  ALA B 305      22.751  12.886  22.072  1.00 34.21 LIG 0.16  C 
ATOM     33  CB  ALA B 305      23.788  11.889  21.445  1.00 33.59 LIG 0.04  C 
BRANCH 32 34
ATOM     34  C   ALA B 305      21.388  12.648  21.441  1.00 34.64 LIG 0.22  C 
ATOM     35 O    ALA B 305      20.642  13.642  21.264  1.00 35.93 LIG-0.29  OA
ENDBRANCH 32 34
ENDBRANCH 30 32
ENDBRANCH 27 28
BRANCH 27 36
ATOM     36  CB  SER B 304      23.589  10.827  26.193  1.00 32.96 LIG 0.20  C 
BRANCH 36 37
ATOM     37 OG   SER B 304      23.261   9.520  26.633  1.00 37.22 LIG-0.40  OA
ATOM     38 HG   SER B 304      22.813   9.128  26.040  1.00 37.22 LIG 0.21  HD
ENDBRANCH 36 37
ENDBRANCH 27 36
ENDBRANCH 25 27
ENDBRANCH 1 23
TORSDOF 15
ENDMDL
MODEL 79
USER: ADFR SOLUTION from run 67
USER: SCORE 12.750864 LL:  -2.699 LR: -10.475 RR:   0.000 FEB:  -6.000
USER: RMSD 10.110195
USER: SEED 66
USER: STATUS no improvement in best 15 clusters for 5 generations
USER: GENES 17
USER: genes 0 Translation |==|  0.65076 0.62902 0.51251
USER: genes 1 Rotation |==|  0.42630 0.58022 0.01206 0.50681
USER: genes 2 Torsion [C]-CA--N-[C] |==|  0.79741
USER: genes 3 Torsion [N]-C--CA-[N] |==|  0.15176
USER: genes 4 Torsion [C]-CA--N-[C] |==|  0.76120
USER: genes 5 Torsion [N]-C--CA-[N] |==|  0.99164
USER: genes 6 Torsion [C]-CA--N-[H1] |==|  0.97182
USER: genes 7 Torsion [C]-CA--CB-[OG] |==|  0.64702
USER: genes 8 Torsion [CA]-CB--OG-[HG] |==|  0.18488
USER: genes 9 Torsion [N]-CA--CB-[CG1] |==|  0.93792
USER: genes 10 Torsion [N]-CA--C-[N] |==|  0.42327
USER: genes 11 Torsion [C]-N--CA-[C] |==|  0.82502
USER: genes 12 Torsion [N]-CA--C-[N] |==|  0.89454
USER: genes 13 Torsion [C]-N--CA-[CB] |==|  0.43827
USER: genes 14 Torsion [N]-CA--C-[O] |==|  0.16831
USER: genes 15 Torsion [N]-CA--CB-[OG] |==|  0.17997
USER: genes 16 Torsion [CA]-CB--OG-[HG] |==|  0.42209
ROOT
ATOM      1  CA  VAL B 303      17.653   7.651  33.125  1.00 28.18 LIG 0.18  C 
ENDROOT
BRANCH 1 2
ATOM      2  N   VAL B 303      19.071   7.753  33.443  1.00 29.68 LIG-0.35  N 
ATOM      3  C   SER B 302      19.512   7.827  34.696  1.00 31.00 LIG 0.24  C 
ATOM      4 O    SER B 302      18.747   7.842  35.670  1.00 32.88 LIG-0.27  OA
ATOM      5 H    VAL B 303      19.587   7.761  32.754  1.00 29.68 LIG 0.16  HD
BRANCH 3 6
ATOM      6  CA  SER B 302      21.040   7.921  34.878  1.00 30.54 LIG 0.20  C 
BRANCH 6 7
ATOM      7  N   SER B 302      21.614   9.035  34.120  1.00 26.47 LIG-0.34  N 
ATOM      8  C   ALA B 301      21.969   8.918  32.841  1.00 26.40 LIG 0.25  C 
ATOM      9 O    ALA B 301      21.881   7.867  32.204  1.00 23.28 LIG-0.27  OA
ATOM     10 H    SER B 302      21.700   9.761  34.573  1.00 26.47 LIG 0.16  HD
BRANCH 8 11
ATOM     11  CA  ALA B 301      22.540  10.172  32.178  1.00 27.42 LIG 0.27  C 
ATOM     12  CB  ALA B 301      24.006   9.927  31.710  1.00 28.79 LIG 0.05  C 
BRANCH 11 13
ATOM     13  N   ALA B 301      22.505  11.317  33.142  1.00 29.28 LIG-0.07  N 
ATOM     14 H1   ALA B 301      22.028  11.089  33.857  1.00 29.28 LIG 0.28  HD
ATOM     15 H2   ALA B 301      23.334  11.521  33.391  1.00 29.28 LIG 0.28  HD
ATOM     16 H3   ALA B 301      22.132  12.024  32.750  1.00 29.28 LIG 0.28  HD
ENDBRANCH 11 13
ENDBRANCH 8 11
ENDBRANCH 6 7
BRANCH 6 17
ATOM     17  CB  SER B 302      21.357   8.053  36.372  1.00 31.87 LIG 0.20  C 
BRANCH 17 18
ATOM     18 OG   SER B 302      22.182   9.174  36.601  1.00 37.10 LIG-0.40  OA
ATOM     19 HG   SER B 302      21.755   9.876  36.427  1.00 37.10 LIG 0.21  HD
ENDBRANCH 17 18
ENDBRANCH 6 17
ENDBRANCH 3 6
ENDBRANCH 1 2
BRANCH 1 20
ATOM     20  CB  VAL B 303      17.386   7.921  31.594  1.00 29.00 LIG 0.01  C 
ATOM     21  CG1 VAL B 303      18.530   8.725  31.009  1.00 28.23 LIG 0.01  C 
ATOM     22  CG2 VAL B 303      17.258   6.600  30.824  1.00 26.76 LIG 0.01  C 
ENDBRANCH 1 20
BRANCH 1 23
ATOM     23  C   VAL B 303      17.199   6.247  33.489  1.00 28.25 LIG 0.24  C 
ATOM     24 O    VAL B 303      18.005   5.310  33.504  1.00 25.63 LIG-0.27  OA
ATOM     25  N   SER B 304      15.924   6.085  33.821  1.00 28.07 LIG-0.34  N 
ATOM     26 H    SER B 304      15.344   6.718  33.863  1.00 28.07 LIG 0.16  HD
BRANCH 25 27
ATOM     27  CA  SER B 304      15.421   4.757  34.145  1.00 30.78 LIG 0.20  C 
BRANCH 27 28
ATOM     28  C   SER B 304      15.560   3.880  32.893  1.00 31.57 LIG 0.24  C 
ATOM     29 O    SER B 304      15.909   2.700  32.996  1.00 32.88 LIG-0.27  OA
ATOM     30  N   ALA B 305      15.312   4.461  31.721  1.00 33.00 LIG-0.35  N 
ATOM     31 H    ALA B 305      15.104   5.292  31.645  1.00 33.00 LIG 0.16  HD
BRANCH 30 32
ATOM     32  CA  ALA B 305      15.369   3.748  30.436  1.00 34.21 LIG 0.16  C 
ATOM     33  CB  ALA B 305      14.508   4.518  29.374  1.00 33.59 LIG 0.04  C 
BRANCH 32 34
ATOM     34  C   ALA B 305      16.800   3.640  29.930  1.00 34.64 LIG 0.22  C 
ATOM     35 O    ALA B 305      17.630   3.027  30.647  1.00 35.93 LIG-0.29  OA
ENDBRANCH 32 34
ENDBRANCH 30 32
ENDBRANCH 27 28
BRANCH 27 36
ATOM     36  CB  SER B 304      13.960   4.836  34.588  1.00 32.96 LIG 0.20  C 
BRANCH 36 37
ATOM     37 OG   SER B 304      13.160   5.280  33.504  1.00 37.22 LIG-0.40  OA
ATOM     38 HG   SER B 304      12.381   4.976  33.587  1.00 37.22 LIG 0.21  HD
ENDBRANCH 36 37
ENDBRANCH 27 36
ENDBRANCH 25 27
ENDBRANCH 1 23
TORSDOF 15
ENDMDL
MODEL 80
USER: ADFR SOLUTION from run 13
USER: SCORE 12.335950 LL:  -2.556 LR: -10.448 RR:   0.000 FEB:  -5.974
USER: RMSD 8.133131
USER: SEED 897686
USER: STATUS no improvement in best 17 clusters for 5 generations
USER: GENES 17
USER: genes 0 Translation |==|  0.49182 0.50901 0.47309
USER: genes 1 Rotation |==|  0.49314 0.46079 0.00807 0.58016
USER: genes 2 Torsion [C]-CA--N-[C] |==|  0.84666
USER: genes 3 Torsion [N]-C--CA-[N] |==|  0.62779
USER: genes 4 Torsion [C]-CA--N-[C] |==|  0.16391
USER: genes 5 Torsion [N]-C--CA-[N] |==|  0.98273
USER: genes 6 Torsion [C]-CA--N-[H1] |==|  0.95921
USER: genes 7 Torsion [C]-CA--CB-[OG] |==|  0.38990
USER: genes 8 Torsion [CA]-CB--OG-[HG] |==|  0.97119
USER: genes 9 Torsion [N]-CA--CB-[CG1] |==|  0.76204
USER: genes 10 Torsion [N]-CA--C-[N] |==|  0.36200
USER: genes 11 Torsion [C]-N--CA-[C] |==|  0.84371
USER: genes 12 Torsion [N]-CA--C-[N] |==|  0.89303
USER: genes 13 Torsion [C]-N--CA-[CB] |==|  0.31897
USER: genes 14 Torsion [N]-CA--C-[O] |==|  0.47429
USER: genes 15 Torsion [N]-CA--CB-[OG] |==|  0.98648
USER: genes 16 Torsion [CA]-CB--OG-[HG] |==|  0.86404
ROOT
ATOM      1  CA  VAL B 303      12.885   4.050  31.943  1.00 28.18 LIG 0.18  C 
ENDROOT
BRANCH 1 2
ATOM      2  N   VAL B 303      14.022   4.768  32.504  1.00 29.68 LIG-0.35  N 
ATOM      3  C   SER B 302      14.066   5.136  33.782  1.00 31.00 LIG 0.24  C 
ATOM      4 O    SER B 302      13.134   4.918  34.568  1.00 32.88 LIG-0.27  OA
ATOM      5 H    VAL B 303      14.651   4.929  31.939  1.00 29.68 LIG 0.16  HD
BRANCH 3 6
ATOM      6  CA  SER B 302      15.337   5.881  34.236  1.00 30.54 LIG 0.20  C 
BRANCH 6 7
ATOM      7  N   SER B 302      15.855   5.357  35.502  1.00 26.47 LIG-0.34  N 
ATOM      8  C   ALA B 301      16.218   4.083  35.651  1.00 26.40 LIG 0.25  C 
ATOM      9 O    ALA B 301      16.115   3.239  34.760  1.00 23.28 LIG-0.27  OA
ATOM     10 H    SER B 302      15.902   5.942  36.131  1.00 26.47 LIG 0.16  HD
BRANCH 8 11
ATOM     11  CA  ALA B 301      16.755   3.688  37.027  1.00 27.42 LIG 0.27  C 
ATOM     12  CB  ALA B 301      15.802   2.665  37.715  1.00 28.79 LIG 0.05  C 
BRANCH 11 13
ATOM     13  N   ALA B 301      16.892   4.905  37.888  1.00 29.28 LIG-0.07  N 
ATOM     14 H1   ALA B 301      16.843   5.635  37.382  1.00 29.28 LIG 0.28  HD
ATOM     15 H2   ALA B 301      16.238   4.918  38.491  1.00 29.28 LIG 0.28  HD
ATOM     16 H3   ALA B 301      17.678   4.887  38.305  1.00 29.28 LIG 0.28  HD
ENDBRANCH 11 13
ENDBRANCH 8 11
ENDBRANCH 6 7
BRANCH 6 17
ATOM     17  CB  SER B 302      16.393   5.785  33.129  1.00 31.87 LIG 0.20  C 
BRANCH 17 18
ATOM     18 OG   SER B 302      17.083   7.009  33.002  1.00 37.10 LIG-0.40  OA
ATOM     19 HG   SER B 302      16.693   7.598  33.455  1.00 37.10 LIG 0.21  HD
ENDBRANCH 17 18
ENDBRANCH 6 17
ENDBRANCH 3 6
ENDBRANCH 1 2
BRANCH 1 20
ATOM     20  CB  VAL B 303      13.145   3.647  30.440  1.00 29.00 LIG 0.01  C 
ATOM     21  CG1 VAL B 303      12.761   4.794  29.528  1.00 28.23 LIG 0.01  C 
ATOM     22  CG2 VAL B 303      14.624   3.306  30.218  1.00 26.76 LIG 0.01  C 
ENDBRANCH 1 20
BRANCH 1 23
ATOM     23  C   VAL B 303      12.667   2.803  32.783  1.00 28.25 LIG 0.24  C 
ATOM     24 O    VAL B 303      13.617   2.066  33.071  1.00 25.63 LIG-0.27  OA
ATOM     25  N   SER B 304      11.435   2.567  33.215  1.00 28.07 LIG-0.34  N 
ATOM     26 H    SER B 304      10.758   3.077  33.071  1.00 28.07 LIG 0.16  HD
BRANCH 25 27
ATOM     27  CA  SER B 304      11.157   1.367  33.994  1.00 30.78 LIG 0.20  C 
BRANCH 27 28
ATOM     28  C   SER B 304      11.604   0.153  33.170  1.00 31.57 LIG 0.24  C 
ATOM     29 O    SER B 304      12.163  -0.801  33.720  1.00 32.88 LIG-0.27  OA
ATOM     30  N   ALA B 305      11.381   0.200  31.858  1.00 33.00 LIG-0.35  N 
ATOM     31 H    ALA B 305      11.023   0.879  31.468  1.00 33.00 LIG 0.16  HD
BRANCH 30 32
ATOM     32  CA  ALA B 305      11.720  -0.896  30.939  1.00 34.21 LIG 0.16  C 
ATOM     33  CB  ALA B 305      10.403  -1.486  30.323  1.00 33.59 LIG 0.04  C 
BRANCH 32 34
ATOM     34  C   ALA B 305      12.620  -0.410  29.812  1.00 34.64 LIG 0.22  C 
ATOM     35 O    ALA B 305      13.130  -1.274  29.057  1.00 35.93 LIG-0.29  OA
ENDBRANCH 32 34
ENDBRANCH 30 32
ENDBRANCH 27 28
BRANCH 27 36
ATOM     36  CB  SER B 304       9.665   1.279  34.318  1.00 32.96 LIG 0.20  C 
BRANCH 36 37
ATOM     37 OG   SER B 304       9.010   2.451  33.859  1.00 37.22 LIG-0.40  OA
ATOM     38 HG   SER B 304       9.433   3.128  34.118  1.00 37.22 LIG 0.21  HD
ENDBRANCH 36 37
ENDBRANCH 27 36
ENDBRANCH 25 27
ENDBRANCH 1 23
TORSDOF 15
ENDMDL
MODEL 81
USER: ADFR SOLUTION from run 119
USER: SCORE 12.699305 LL:  -2.567 LR: -10.450 RR:   0.000 FEB:  -5.976
USER: RMSD 9.586391
USER: SEED 118
USER: STATUS no improvement in best 9 clusters for 5 generations
USER: GENES 17
USER: genes 0 Translation |==|  0.59135 0.57787 0.46175
USER: genes 1 Rotation |==|  0.68875 0.24789 0.11257 0.52672
USER: genes 2 Torsion [C]-CA--N-[C] |==|  0.54223
USER: genes 3 Torsion [N]-C--CA-[N] |==|  0.35291
USER: genes 4 Torsion [C]-CA--N-[C] |==|  0.84286
USER: genes 5 Torsion [N]-C--CA-[N] |==|  0.17816
USER: genes 6 Torsion [C]-CA--N-[H1] |==|  0.78302
USER: genes 7 Torsion [C]-CA--CB-[OG] |==|  0.63704
USER: genes 8 Torsion [CA]-CB--OG-[HG] |==|  0.84485
USER: genes 9 Torsion [N]-CA--CB-[CG1] |==|  0.23596
USER: genes 10 Torsion [N]-CA--C-[N] |==|  0.47778
USER: genes 11 Torsion [C]-N--CA-[C] |==|  0.82523
USER: genes 12 Torsion [N]-CA--C-[N] |==|  0.35387
USER: genes 13 Torsion [C]-N--CA-[CB] |==|  0.13867
USER: genes 14 Torsion [N]-CA--C-[O] |==|  0.08463
USER: genes 15 Torsion [N]-CA--CB-[OG] |==|  0.54135
USER: genes 16 Torsion [CA]-CB--OG-[HG] |==|  0.90891
ROOT
ATOM      1  CA  VAL B 303      15.871   6.116  31.602  1.00 28.18 LIG 0.18  C 
ENDROOT
BRANCH 1 2
ATOM      2  N   VAL B 303      16.414   7.314  32.231  1.00 29.68 LIG-0.35  N 
ATOM      3  C   SER B 302      17.296   8.097  31.616  1.00 31.00 LIG 0.24  C 
ATOM      4 O    SER B 302      17.733   7.846  30.484  1.00 32.88 LIG-0.27  OA
ATOM      5 H    VAL B 303      16.115   7.462  33.024  1.00 29.68 LIG 0.16  HD
BRANCH 3 6
ATOM      6  CA  SER B 302      17.774   9.335  32.401  1.00 30.54 LIG 0.20  C 
BRANCH 6 7
ATOM      7  N   SER B 302      19.236   9.405  32.474  1.00 26.47 LIG-0.34  N 
ATOM      8  C   ALA B 301      19.972   8.415  32.978  1.00 26.40 LIG 0.25  C 
ATOM      9 O    ALA B 301      19.492   7.385  33.454  1.00 23.28 LIG-0.27  OA
ATOM     10 H    SER B 302      19.568  10.136  32.165  1.00 26.47 LIG 0.16  HD
BRANCH 8 11
ATOM     11  CA  ALA B 301      21.486   8.627  32.973  1.00 27.42 LIG 0.27  C 
ATOM     12  CB  ALA B 301      22.223   7.344  33.463  1.00 28.79 LIG 0.05  C 
BRANCH 11 13
ATOM     13  N   ALA B 301      21.842   9.780  33.860  1.00 29.28 LIG-0.07  N 
ATOM     14 H1   ALA B 301      21.671  10.544  33.436  1.00 29.28 LIG 0.28  HD
ATOM     15 H2   ALA B 301      21.358   9.741  34.606  1.00 29.28 LIG 0.28  HD
ATOM     16 H3   ALA B 301      22.707   9.742  34.065  1.00 29.28 LIG 0.28  HD
ENDBRANCH 11 13
ENDBRANCH 8 11
ENDBRANCH 6 7
BRANCH 6 17
ATOM     17  CB  SER B 302      17.196  10.594  31.747  1.00 31.87 LIG 0.20  C 
BRANCH 17 18
ATOM     18 OG   SER B 302      18.213  11.549  31.536  1.00 37.10 LIG-0.40  OA
ATOM     19 HG   SER B 302      18.597  11.714  32.265  1.00 37.10 LIG 0.21  HD
ENDBRANCH 17 18
ENDBRANCH 6 17
ENDBRANCH 3 6
ENDBRANCH 1 2
BRANCH 1 20
ATOM     20  CB  VAL B 303      16.930   4.948  31.582  1.00 29.00 LIG 0.01  C 
ATOM     21  CG1 VAL B 303      16.887   4.194  32.895  1.00 28.23 LIG 0.01  C 
ATOM     22  CG2 VAL B 303      16.639   3.972  30.435  1.00 26.76 LIG 0.01  C 
ENDBRANCH 1 20
BRANCH 1 23
ATOM     23  C   VAL B 303      14.648   5.692  32.399  1.00 28.25 LIG 0.24  C 
ATOM     24 O    VAL B 303      14.353   6.269  33.452  1.00 25.63 LIG-0.27  OA
ATOM     25  N   SER B 304      13.906   4.712  31.899  1.00 28.07 LIG-0.34  N 
ATOM     26 H    SER B 304      14.054   4.316  31.151  1.00 28.07 LIG 0.16  HD
BRANCH 25 27
ATOM     27  CA  SER B 304      12.741   4.237  32.635  1.00 30.78 LIG 0.20  C 
BRANCH 27 28
ATOM     28  C   SER B 304      13.229   3.649  33.965  1.00 31.57 LIG 0.24  C 
ATOM     29 O    SER B 304      14.102   2.775  33.977  1.00 32.88 LIG-0.27  OA
ATOM     30  N   ALA B 305      12.651   4.107  35.074  1.00 33.00 LIG-0.35  N 
ATOM     31 H    ALA B 305      12.018   4.689  35.066  1.00 33.00 LIG 0.16  HD
BRANCH 30 32
ATOM     32  CA  ALA B 305      13.029   3.669  36.425  1.00 34.21 LIG 0.16  C 
ATOM     33  CB  ALA B 305      14.587   3.766  36.588  1.00 33.59 LIG 0.04  C 
BRANCH 32 34
ATOM     34  C   ALA B 305      12.365   4.530  37.489  1.00 34.64 LIG 0.22  C 
ATOM     35 O    ALA B 305      11.243   5.027  37.224  1.00 35.93 LIG-0.29  OA
ENDBRANCH 32 34
ENDBRANCH 30 32
ENDBRANCH 27 28
BRANCH 27 36
ATOM     36  CB  SER B 304      11.995   3.180  31.820  1.00 32.96 LIG 0.20  C 
BRANCH 36 37
ATOM     37 OG   SER B 304      10.704   2.979  32.374  1.00 37.22 LIG-0.40  OA
ATOM     38 HG   SER B 304      10.736   3.087  33.206  1.00 37.22 LIG 0.21  HD
ENDBRANCH 36 37
ENDBRANCH 27 36
ENDBRANCH 25 27
ENDBRANCH 1 23
TORSDOF 15
ENDMDL
