MODEL 1
USER: ADFR SOLUTION from run 122
USER: SCORE 12.819617 LL:  -2.136 LR: -12.718 RR:   0.000 FEB:  -7.647
USER: RMSD 9.955787
USER: SEED 121
USER: STATUS no improvement in best 13 clusters for 5 generations
USER: GENES 19
USER: genes 0 Translation |==|  0.38834 0.78359 0.30347
USER: genes 1 Rotation |==|  0.41637 0.45379 0.60604 0.97919
USER: genes 2 Torsion [N]-C--CA-[N] |==|  0.48860
USER: genes 3 Torsion [C]-CA--CB-[CG] |==|  0.92718
USER: genes 4 Torsion [CA]-CB--CG-[CD] |==|  0.49550
USER: genes 5 Torsion [CB]-CG--CD-[CE] |==|  0.20294
USER: genes 6 Torsion [CG]-CD--CE-[NZ] |==|  0.05873
USER: genes 7 Torsion [CD]-CE--NZ-[HZ2] |==|  0.17578
USER: genes 8 Torsion [C]-CA--N-[C] |==|  0.62828
USER: genes 9 Torsion [N]-C--CA-[N] |==|  0.82747
USER: genes 10 Torsion [C]-CA--N-[H1] |==|  0.64363
USER: genes 11 Torsion [C]-N--CA-[CB] |==|  0.86574
USER: genes 12 Torsion [N]-CA--C-[N] |==|  0.37151
USER: genes 13 Torsion [C]-N--CA-[CB] |==|  0.31795
USER: genes 14 Torsion [N]-CA--CB-[CG1] |==|  0.22416
USER: genes 15 Torsion [CA]-CB--CG1-[CD1] |==|  0.46823
USER: genes 16 Torsion [N]-CA--C-[N] |==|  0.43160
USER: genes 17 Torsion [C]-N--CA-[CB] |==|  0.17757
USER: genes 18 Torsion [N]-CA--C-[O] |==|  0.02869
ROOT
ATOM      1  C   LYS E 802     -16.190  30.068  28.584  1.00 51.37 LIG 0.24  C 
ATOM      2 O    LYS E 802     -16.603  30.084  27.429  1.00 54.76 LIG-0.27  OA
ATOM      3  N   ALA E 803     -16.207  28.976  29.347  1.00 53.01 LIG-0.35  N 
ATOM      4 H    ALA E 803     -15.855  28.950  30.131  1.00 53.01 LIG 0.16  HD
ENDROOT
BRANCH 1 5
ATOM      5  CA  LYS E 802     -15.624  31.337  29.231  1.00 50.80 LIG 0.18  C 
BRANCH 5 6
ATOM      6  CB  LYS E 802     -16.497  31.648  30.449  1.00 49.65 LIG 0.04  C 
BRANCH 6 7
ATOM      7  CG  LYS E 802     -17.904  31.133  30.370  1.00 48.72 LIG 0.00  C 
BRANCH 7 8
ATOM      8  CD  LYS E 802     -18.647  31.469  31.643  1.00 52.85 LIG 0.03  C 
BRANCH 8 9
ATOM      9  CE  LYS E 802     -18.974  32.942  31.705  1.00 52.25 LIG 0.23  C 
BRANCH 9 10
ATOM     10  NZ  LYS E 802     -18.953  33.555  30.355  1.00 53.26 LIG-0.08  N 
ATOM     11 HZ1  LYS E 802     -18.158  33.418  29.979  1.00 53.26 LIG 0.27  HD
ATOM     12 HZ2  LYS E 802     -19.586  33.186  29.851  1.00 53.26 LIG 0.27  HD
ATOM     13 HZ3  LYS E 802     -19.100  34.430  30.424  1.00 53.26 LIG 0.27  HD
ENDBRANCH 9 10
ENDBRANCH 8 9
ENDBRANCH 7 8
ENDBRANCH 6 7
ENDBRANCH 5 6
BRANCH 5 14
ATOM     14  N   LYS E 802     -15.479  32.566  28.450  1.00 51.06 LIG-0.35  N 
ATOM     15 H    LYS E 802     -16.157  32.781  27.968  1.00 51.06 LIG 0.16  HD
ATOM     16  C   ALA E 801     -14.336  33.258  28.529  1.00 50.59 LIG 0.25  C 
ATOM     17 O    ALA E 801     -13.371  32.872  29.191  1.00 51.18 LIG-0.27  OA
BRANCH 16 18
ATOM     18  CA  ALA E 801     -14.227  34.556  27.738  1.00 50.00 LIG 0.27  C 
ATOM     19  CB  ALA E 801     -15.325  35.534  28.188  1.00 45.45 LIG 0.05  C 
BRANCH 18 20
ATOM     20  N   ALA E 801     -14.349  34.296  26.283  1.00 50.21 LIG-0.07  N 
ATOM     21 H3   ALA E 801     -15.112  34.641  25.982  1.00 50.21 LIG 0.28  HD
ATOM     22 H2   ALA E 801     -14.344  33.418  26.136  1.00 50.21 LIG 0.28  HD
ATOM     23 H1   ALA E 801     -13.665  34.672  25.855  1.00 50.21 LIG 0.28  HD
ENDBRANCH 18 20
ENDBRANCH 16 18
ENDBRANCH 5 14
ENDBRANCH 1 5
BRANCH 3 24
ATOM     24  CA  ALA E 803     -16.823  27.704  28.940  1.00 57.29 LIG 0.17  C 
ATOM     25  CB  ALA E 803     -18.225  27.994  28.395  1.00 55.60 LIG 0.04  C 
BRANCH 24 26
ATOM     26  C   ALA E 803     -16.181  26.646  28.043  1.00 59.81 LIG 0.24  C 
ATOM     27 O    ALA E 803     -15.647  26.923  26.972  1.00 62.26 LIG-0.27  OA
ATOM     28  N   ILE E 804     -16.311  25.409  28.521  1.00 62.20 LIG-0.35  N 
ATOM     29 H    ILE E 804     -16.694  25.258  29.275  1.00 62.20 LIG 0.16  HD
BRANCH 28 30
ATOM     30  CA  ILE E 804     -15.851  24.175  27.882  1.00 63.57 LIG 0.18  C 
BRANCH 30 31
ATOM     31  CB  ILE E 804     -14.729  23.467  28.676  1.00 63.71 LIG 0.01  C 
ATOM     32  CG2 ILE E 804     -13.751  24.496  29.224  1.00 63.48 LIG 0.01  C 
BRANCH 31 33
ATOM     33  CG1 ILE E 804     -15.319  22.657  29.828  1.00 63.94 LIG 0.00  C 
ATOM     34  CD1 ILE E 804     -14.339  21.732  30.475  1.00 63.94 LIG 0.01  C 
ENDBRANCH 31 33
ENDBRANCH 30 31
BRANCH 30 35
ATOM     35  C   ILE E 804     -17.091  23.279  27.917  1.00 65.71 LIG 0.24  C 
ATOM     36  N   ALA E 805     -17.169  22.315  27.004  1.00 67.46 LIG-0.35  N 
ATOM     37 H    ALA E 805     -16.570  22.168  26.404  1.00 67.46 LIG 0.16  HD
ATOM     38 O    ILE E 804     -17.974  23.471  28.761  1.00 65.35 LIG-0.27  OA
BRANCH 36 39
ATOM     39  CA  ALA E 805     -18.316  21.410  26.953  1.00 69.21 LIG 0.16  C 
ATOM     40  CB  ALA E 805     -19.589  22.194  26.626  1.00 68.65 LIG 0.04  C 
BRANCH 39 41
ATOM     41  C   ALA E 805     -18.108  20.298  25.926  1.00 70.07 LIG 0.22  C 
ATOM     42 O    ALA E 805     -16.965  20.178  25.429  1.00 70.08 LIG-0.29  OA
ENDBRANCH 39 41
ENDBRANCH 36 39
ENDBRANCH 30 35
ENDBRANCH 28 30
ENDBRANCH 24 26
ENDBRANCH 3 24
TORSDOF 17
ENDMDL
MODEL 2
USER: ADFR SOLUTION from run 134
USER: SCORE 13.995902 LL:  -2.650 LR: -12.516 RR:   0.000 FEB:  -7.445
USER: RMSD 10.114241
USER: SEED 133
USER: STATUS no improvement in best 2 clusters for 5 generations
USER: GENES 19
USER: genes 0 Translation |==|  0.34010 0.72713 0.37688
USER: genes 1 Rotation |==|  0.27316 0.70728 0.78250 0.77528
USER: genes 2 Torsion [N]-C--CA-[N] |==|  0.89528
USER: genes 3 Torsion [C]-CA--CB-[CG] |==|  0.91426
USER: genes 4 Torsion [CA]-CB--CG-[CD] |==|  0.31776
USER: genes 5 Torsion [CB]-CG--CD-[CE] |==|  0.91218
USER: genes 6 Torsion [CG]-CD--CE-[NZ] |==|  0.28289
USER: genes 7 Torsion [CD]-CE--NZ-[HZ2] |==|  0.41174
USER: genes 8 Torsion [C]-CA--N-[C] |==|  0.82755
USER: genes 9 Torsion [N]-C--CA-[N] |==|  0.07563
USER: genes 10 Torsion [C]-CA--N-[H1] |==|  0.71204
USER: genes 11 Torsion [C]-N--CA-[CB] |==|  0.74553
USER: genes 12 Torsion [N]-CA--C-[N] |==|  0.36668
USER: genes 13 Torsion [C]-N--CA-[CB] |==|  0.23581
USER: genes 14 Torsion [N]-CA--CB-[CG1] |==|  0.01066
USER: genes 15 Torsion [CA]-CB--CG1-[CD1] |==|  0.36055
USER: genes 16 Torsion [N]-CA--C-[N] |==|  0.43534
USER: genes 17 Torsion [C]-N--CA-[CB] |==|  0.17621
USER: genes 18 Torsion [N]-CA--C-[O] |==|  0.02775
ROOT
ATOM      1  C   LYS E 802     -17.637  28.374  30.786  1.00 51.37 LIG 0.24  C 
ATOM      2 O    LYS E 802     -18.175  27.292  31.001  1.00 54.76 LIG-0.27  OA
ATOM      3  N   ALA E 803     -16.469  28.724  31.322  1.00 53.01 LIG-0.35  N 
ATOM      4 H    ALA E 803     -16.061  29.452  31.116  1.00 53.01 LIG 0.16  HD
ENDROOT
BRANCH 1 5
ATOM      5  CA  LYS E 802     -18.301  29.411  29.872  1.00 50.80 LIG 0.18  C 
BRANCH 5 6
ATOM      6  CB  LYS E 802     -17.724  29.207  28.470  1.00 49.65 LIG 0.04  C 
BRANCH 6 7
ATOM      7  CG  LYS E 802     -16.312  28.704  28.429  1.00 48.72 LIG 0.00  C 
BRANCH 7 8
ATOM      8  CD  LYS E 802     -16.276  27.318  27.827  1.00 52.85 LIG 0.03  C 
BRANCH 8 9
ATOM      9  CE  LYS E 802     -17.542  26.558  28.145  1.00 52.25 LIG 0.23  C 
BRANCH 9 10
ATOM     10  NZ  LYS E 802     -18.465  26.540  26.984  1.00 53.26 LIG-0.08  N 
ATOM     11 HZ1  LYS E 802     -17.996  26.596  26.230  1.00 53.26 LIG 0.27  HD
ATOM     12 HZ2  LYS E 802     -18.930  25.781  26.986  1.00 53.26 LIG 0.27  HD
ATOM     13 HZ3  LYS E 802     -19.023  27.230  27.038  1.00 53.26 LIG 0.27  HD
ENDBRANCH 9 10
ENDBRANCH 8 9
ENDBRANCH 7 8
ENDBRANCH 6 7
ENDBRANCH 5 6
BRANCH 5 14
ATOM     14  N   LYS E 802     -18.227  30.837  30.192  1.00 51.06 LIG-0.35  N 
ATOM     15 H    LYS E 802     -17.822  31.326  29.614  1.00 51.06 LIG 0.16  HD
ATOM     16  C   ALA E 801     -18.776  31.279  31.330  1.00 50.59 LIG 0.25  C 
ATOM     17 O    ALA E 801     -19.293  30.524  32.154  1.00 51.18 LIG-0.27  OA
BRANCH 16 18
ATOM     18  CA  ALA E 801     -18.722  32.775  31.618  1.00 50.00 LIG 0.27  C 
ATOM     19  CB  ALA E 801     -19.958  33.194  32.430  1.00 45.45 LIG 0.05  C 
BRANCH 18 20
ATOM     20  N   ALA E 801     -18.661  33.551  30.355  1.00 50.21 LIG-0.07  N 
ATOM     21 H3   ALA E 801     -19.213  34.247  30.407  1.00 50.21 LIG 0.28  HD
ATOM     22 H2   ALA E 801     -18.903  33.031  29.674  1.00 50.21 LIG 0.28  HD
ATOM     23 H1   ALA E 801     -17.830  33.842  30.225  1.00 50.21 LIG 0.28  HD
ENDBRANCH 18 20
ENDBRANCH 16 18
ENDBRANCH 5 14
ENDBRANCH 1 5
BRANCH 3 24
ATOM     24  CA  ALA E 803     -15.749  27.913  32.316  1.00 57.29 LIG 0.17  C 
ATOM     25  CB  ALA E 803     -16.178  28.364  33.715  1.00 55.60 LIG 0.04  C 
BRANCH 24 26
ATOM     26  C   ALA E 803     -15.652  26.388  32.324  1.00 59.81 LIG 0.24  C 
ATOM     27 O    ALA E 803     -16.638  25.661  32.227  1.00 62.26 LIG-0.27  OA
ATOM     28  N   ILE E 804     -14.408  25.946  32.498  1.00 62.20 LIG-0.35  N 
ATOM     29 H    ILE E 804     -13.744  26.489  32.563  1.00 62.20 LIG 0.16  HD
BRANCH 28 30
ATOM     30  CA  ILE E 804     -13.985  24.548  32.600  1.00 63.57 LIG 0.18  C 
BRANCH 30 31
ATOM     31  CB  ILE E 804     -13.752  23.887  31.221  1.00 63.71 LIG 0.01  C 
ATOM     32  CG2 ILE E 804     -14.724  22.733  31.026  1.00 63.48 LIG 0.01  C 
BRANCH 31 33
ATOM     33  CG1 ILE E 804     -13.936  24.908  30.101  1.00 63.94 LIG 0.00  C 
ATOM     34  CD1 ILE E 804     -12.806  24.935  29.122  1.00 63.94 LIG 0.01  C 
ENDBRANCH 31 33
ENDBRANCH 30 31
BRANCH 30 35
ATOM     35  C   ILE E 804     -12.633  24.641  33.311  1.00 65.71 LIG 0.24  C 
ATOM     36  N   ALA E 805     -12.216  23.561  33.966  1.00 67.46 LIG-0.35  N 
ATOM     37 H    ALA E 805     -12.656  22.823  34.009  1.00 67.46 LIG 0.16  HD
ATOM     38 O    ILE E 804     -11.982  25.691  33.276  1.00 65.35 LIG-0.27  OA
BRANCH 36 39
ATOM     39  CA  ALA E 805     -10.941  23.552  34.681  1.00 69.21 LIG 0.16  C 
ATOM     40  CB  ALA E 805     -10.972  24.573  35.821  1.00 68.65 LIG 0.04  C 
BRANCH 39 41
ATOM     41  C   ALA E 805     -10.616  22.164  35.230  1.00 70.07 LIG 0.22  C 
ATOM     42 O    ALA E 805     -11.335  21.211  34.854  1.00 70.08 LIG-0.29  OA
ENDBRANCH 39 41
ENDBRANCH 36 39
ENDBRANCH 30 35
ENDBRANCH 28 30
ENDBRANCH 24 26
ENDBRANCH 3 24
TORSDOF 17
ENDMDL
MODEL 3
USER: ADFR SOLUTION from run 38
USER: SCORE 13.544825 LL:  -2.454 LR: -12.132 RR:   0.000 FEB:  -7.061
USER: RMSD 9.650958
USER: SEED 37
USER: STATUS no improvement in best 8 clusters for 5 generations
USER: GENES 19
USER: genes 0 Translation |==|  0.36382 0.47283 0.31197
USER: genes 1 Rotation |==|  0.68972 0.95100 0.40085 0.52778
USER: genes 2 Torsion [N]-C--CA-[N] |==|  0.02441
USER: genes 3 Torsion [C]-CA--CB-[CG] |==|  0.35854
USER: genes 4 Torsion [CA]-CB--CG-[CD] |==|  0.59233
USER: genes 5 Torsion [CB]-CG--CD-[CE] |==|  0.75110
USER: genes 6 Torsion [CG]-CD--CE-[NZ] |==|  0.89520
USER: genes 7 Torsion [CD]-CE--NZ-[HZ2] |==|  0.21752
USER: genes 8 Torsion [C]-CA--N-[C] |==|  0.73375
USER: genes 9 Torsion [N]-C--CA-[N] |==|  0.38281
USER: genes 10 Torsion [C]-CA--N-[H1] |==|  0.01734
USER: genes 11 Torsion [C]-N--CA-[CB] |==|  0.62790
USER: genes 12 Torsion [N]-CA--C-[N] |==|  0.71121
USER: genes 13 Torsion [C]-N--CA-[CB] |==|  0.55142
USER: genes 14 Torsion [N]-CA--CB-[CG1] |==|  0.11208
USER: genes 15 Torsion [CA]-CB--CG1-[CD1] |==|  0.49148
USER: genes 16 Torsion [N]-CA--C-[N] |==|  0.35649
USER: genes 17 Torsion [C]-N--CA-[CB] |==|  0.22607
USER: genes 18 Torsion [N]-CA--C-[O] |==|  0.18502
ROOT
ATOM      1  C   LYS E 802     -16.926  20.745  28.839  1.00 51.37 LIG 0.24  C 
ATOM      2 O    LYS E 802     -16.122  21.180  29.658  1.00 54.76 LIG-0.27  OA
ATOM      3  N   ALA E 803     -17.503  19.550  28.951  1.00 53.01 LIG-0.35  N 
ATOM      4 H    ALA E 803     -18.116  19.277  28.414  1.00 53.01 LIG 0.16  HD
ENDROOT
BRANCH 1 5
ATOM      5  CA  LYS E 802     -17.312  21.571  27.607  1.00 50.80 LIG 0.18  C 
BRANCH 5 6
ATOM      6  CB  LYS E 802     -17.632  22.985  28.095  1.00 49.65 LIG 0.04  C 
BRANCH 6 7
ATOM      7  CG  LYS E 802     -16.927  24.086  27.362  1.00 48.72 LIG 0.00  C 
BRANCH 7 8
ATOM      8  CD  LYS E 802     -16.631  25.228  28.308  1.00 52.85 LIG 0.03  C 
BRANCH 8 9
ATOM      9  CE  LYS E 802     -17.772  26.216  28.336  1.00 52.25 LIG 0.23  C 
BRANCH 9 10
ATOM     10  NZ  LYS E 802     -18.367  26.390  26.989  1.00 53.26 LIG-0.08  N 
ATOM     11 HZ1  LYS E 802     -17.719  26.428  26.381  1.00 53.26 LIG 0.27  HD
ATOM     12 HZ2  LYS E 802     -18.901  25.701  26.809  1.00 53.26 LIG 0.27  HD
ATOM     13 HZ3  LYS E 802     -18.838  27.144  26.968  1.00 53.26 LIG 0.27  HD
ENDBRANCH 9 10
ENDBRANCH 8 9
ENDBRANCH 7 8
ENDBRANCH 6 7
ENDBRANCH 5 6
BRANCH 5 14
ATOM     14  N   LYS E 802     -18.402  21.134  26.733  1.00 51.06 LIG-0.35  N 
ATOM     15 H    LYS E 802     -19.192  21.360  26.984  1.00 51.06 LIG 0.16  HD
ATOM     16  C   ALA E 801     -18.113  20.430  25.632  1.00 50.59 LIG 0.25  C 
ATOM     17 O    ALA E 801     -16.966  20.080  25.350  1.00 51.18 LIG-0.27  OA
BRANCH 16 18
ATOM     18  CA  ALA E 801     -19.263  20.024  24.718  1.00 50.00 LIG 0.27  C 
ATOM     19  CB  ALA E 801     -19.637  18.554  24.973  1.00 45.45 LIG 0.05  C 
BRANCH 18 20
ATOM     20  N   ALA E 801     -18.893  20.210  23.293  1.00 50.21 LIG-0.07  N 
ATOM     21 H3   ALA E 801     -19.395  20.852  22.938  1.00 50.21 LIG 0.28  HD
ATOM     22 H2   ALA E 801     -19.027  19.450  22.850  1.00 50.21 LIG 0.28  HD
ATOM     23 H1   ALA E 801     -18.035  20.439  23.236  1.00 50.21 LIG 0.28  HD
ENDBRANCH 18 20
ENDBRANCH 16 18
ENDBRANCH 5 14
ENDBRANCH 1 5
BRANCH 3 24
ATOM     24  CA  ALA E 803     -17.163  18.572  29.996  1.00 57.29 LIG 0.17  C 
ATOM     25  CB  ALA E 803     -17.001  17.197  29.341  1.00 55.60 LIG 0.04  C 
BRANCH 24 26
ATOM     26  C   ALA E 803     -16.058  18.728  31.040  1.00 59.81 LIG 0.24  C 
ATOM     27 O    ALA E 803     -16.155  19.493  31.997  1.00 62.26 LIG-0.27  OA
ATOM     28  N   ILE E 804     -14.979  17.996  30.770  1.00 62.20 LIG-0.35  N 
ATOM     29 H    ILE E 804     -14.950  17.474  30.088  1.00 62.20 LIG 0.16  HD
BRANCH 28 30
ATOM     30  CA  ILE E 804     -13.735  17.957  31.542  1.00 63.57 LIG 0.18  C 
BRANCH 30 31
ATOM     31  CB  ILE E 804     -12.546  17.381  30.740  1.00 63.71 LIG 0.01  C 
ATOM     32  CG2 ILE E 804     -12.604  15.860  30.744  1.00 63.48 LIG 0.01  C 
BRANCH 31 33
ATOM     33  CG1 ILE E 804     -12.573  17.892  29.302  1.00 63.94 LIG 0.00  C 
ATOM     34  CD1 ILE E 804     -11.411  17.435  28.480  1.00 63.94 LIG 0.01  C 
ENDBRANCH 31 33
ENDBRANCH 30 31
BRANCH 30 35
ATOM     35  C   ILE E 804     -13.446  19.435  31.816  1.00 65.71 LIG 0.24  C 
ATOM     36  N   ALA E 805     -13.214  19.784  33.079  1.00 67.46 LIG-0.35  N 
ATOM     37 H    ALA E 805     -13.214  19.234  33.740  1.00 67.46 LIG 0.16  HD
ATOM     38 O    ILE E 804     -13.448  20.252  30.888  1.00 65.35 LIG-0.27  OA
BRANCH 36 39
ATOM     39  CA  ALA E 805     -12.932  21.172  33.442  1.00 69.21 LIG 0.16  C 
ATOM     40  CB  ALA E 805     -14.240  21.960  33.557  1.00 68.65 LIG 0.04  C 
BRANCH 39 41
ATOM     41  C   ALA E 805     -12.150  21.261  34.752  1.00 70.07 LIG 0.22  C 
ATOM     42 O    ALA E 805     -10.981  20.813  34.758  1.00 70.08 LIG-0.29  OA
ENDBRANCH 39 41
ENDBRANCH 36 39
ENDBRANCH 30 35
ENDBRANCH 28 30
ENDBRANCH 24 26
ENDBRANCH 3 24
TORSDOF 17
ENDMDL
MODEL 4
USER: ADFR SOLUTION from run 97
USER: SCORE 12.471785 LL:  -2.547 LR: -12.067 RR:   0.000 FEB:  -6.996
USER: RMSD 9.636698
USER: SEED 96
USER: STATUS no improvement in best 9 clusters for 5 generations
USER: GENES 19
USER: genes 0 Translation |==|  0.39946 0.55153 0.32792
USER: genes 1 Rotation |==|  0.20321 0.85338 0.59947 0.66476
USER: genes 2 Torsion [N]-C--CA-[N] |==|  0.43640
USER: genes 3 Torsion [C]-CA--CB-[CG] |==|  0.97178
USER: genes 4 Torsion [CA]-CB--CG-[CD] |==|  0.46467
USER: genes 5 Torsion [CB]-CG--CD-[CE] |==|  0.32409
USER: genes 6 Torsion [CG]-CD--CE-[NZ] |==|  0.78444
USER: genes 7 Torsion [CD]-CE--NZ-[HZ2] |==|  0.22214
USER: genes 8 Torsion [C]-CA--N-[C] |==|  0.62702
USER: genes 9 Torsion [N]-C--CA-[N] |==|  0.35385
USER: genes 10 Torsion [C]-CA--N-[H1] |==|  0.15099
USER: genes 11 Torsion [C]-N--CA-[CB] |==|  0.71805
USER: genes 12 Torsion [N]-CA--C-[N] |==|  0.26183
USER: genes 13 Torsion [C]-N--CA-[CB] |==|  0.39284
USER: genes 14 Torsion [N]-CA--CB-[CG1] |==|  0.97048
USER: genes 15 Torsion [CA]-CB--CG1-[CD1] |==|  0.29176
USER: genes 16 Torsion [N]-CA--C-[N] |==|  0.11534
USER: genes 17 Torsion [C]-N--CA-[CB] |==|  0.14560
USER: genes 18 Torsion [N]-CA--C-[O] |==|  0.88727
ROOT
ATOM      1  C   LYS E 802     -15.856  23.106  29.318  1.00 51.37 LIG 0.24  C 
ATOM      2 O    LYS E 802     -16.607  22.927  30.271  1.00 54.76 LIG-0.27  OA
ATOM      3  N   ALA E 803     -14.567  23.410  29.455  1.00 53.01 LIG-0.35  N 
ATOM      4 H    ALA E 803     -14.028  23.467  28.787  1.00 53.01 LIG 0.16  HD
ENDROOT
BRANCH 1 5
ATOM      5  CA  LYS E 802     -16.377  22.994  27.880  1.00 50.80 LIG 0.18  C 
BRANCH 5 6
ATOM      6  CB  LYS E 802     -16.605  24.419  27.373  1.00 49.65 LIG 0.04  C 
BRANCH 6 7
ATOM      7  CG  LYS E 802     -16.511  25.489  28.419  1.00 48.72 LIG 0.00  C 
BRANCH 7 8
ATOM      8  CD  LYS E 802     -16.442  26.849  27.761  1.00 52.85 LIG 0.03  C 
BRANCH 8 9
ATOM      9  CE  LYS E 802     -17.642  27.688  28.127  1.00 52.25 LIG 0.23  C 
BRANCH 9 10
ATOM     10  NZ  LYS E 802     -18.840  27.280  27.353  1.00 53.26 LIG-0.08  N 
ATOM     11 HZ1  LYS E 802     -18.604  27.099  26.514  1.00 53.26 LIG 0.27  HD
ATOM     12 HZ2  LYS E 802     -19.199  26.554  27.721  1.00 53.26 LIG 0.27  HD
ATOM     13 HZ3  LYS E 802     -19.435  27.941  27.357  1.00 53.26 LIG 0.27  HD
ENDBRANCH 9 10
ENDBRANCH 8 9
ENDBRANCH 7 8
ENDBRANCH 6 7
ENDBRANCH 5 6
BRANCH 5 14
ATOM     14  N   LYS E 802     -17.575  22.208  27.584  1.00 51.06 LIG-0.35  N 
ATOM     15 H    LYS E 802     -18.241  22.334  28.113  1.00 51.06 LIG 0.16  HD
ATOM     16  C   ALA E 801     -17.564  21.367  26.543  1.00 50.59 LIG 0.25  C 
ATOM     17 O    ALA E 801     -16.561  21.180  25.853  1.00 51.18 LIG-0.27  OA
BRANCH 16 18
ATOM     18  CA  ALA E 801     -18.839  20.593  26.233  1.00 50.00 LIG 0.27  C 
ATOM     19  CB  ALA E 801     -18.629  19.100  26.535  1.00 45.45 LIG 0.05  C 
BRANCH 18 20
ATOM     20  N   ALA E 801     -19.230  20.770  24.813  1.00 50.21 LIG-0.07  N 
ATOM     21 H3   ALA E 801     -19.449  21.620  24.669  1.00 50.21 LIG 0.28  HD
ATOM     22 H2   ALA E 801     -19.928  20.248  24.629  1.00 50.21 LIG 0.28  HD
ATOM     23 H1   ALA E 801     -18.547  20.548  24.287  1.00 50.21 LIG 0.28  HD
ENDBRANCH 18 20
ENDBRANCH 16 18
ENDBRANCH 5 14
ENDBRANCH 1 5
BRANCH 3 24
ATOM     24  CA  ALA E 803     -13.923  23.679  30.749  1.00 57.29 LIG 0.17  C 
ATOM     25  CB  ALA E 803     -13.769  25.194  30.910  1.00 55.60 LIG 0.04  C 
BRANCH 24 26
ATOM     26  C   ALA E 803     -14.354  23.105  32.098  1.00 59.81 LIG 0.24  C 
ATOM     27 O    ALA E 803     -15.192  23.651  32.813  1.00 62.26 LIG-0.27  OA
ATOM     28  N   ILE E 804     -13.692  21.998  32.429  1.00 62.20 LIG-0.35  N 
ATOM     29 H    ILE E 804     -13.110  21.649  31.901  1.00 62.20 LIG 0.16  HD
BRANCH 28 30
ATOM     30  CA  ILE E 804     -13.834  21.235  33.670  1.00 63.57 LIG 0.18  C 
BRANCH 30 31
ATOM     31  CB  ILE E 804     -13.758  19.706  33.450  1.00 63.71 LIG 0.01  C 
ATOM     32  CG2 ILE E 804     -14.909  19.019  34.170  1.00 63.48 LIG 0.01  C 
BRANCH 31 33
ATOM     33  CG1 ILE E 804     -13.817  19.378  31.960  1.00 63.94 LIG 0.00  C 
ATOM     34  CD1 ILE E 804     -12.498  18.977  31.381  1.00 63.94 LIG 0.01  C 
ENDBRANCH 31 33
ENDBRANCH 30 31
BRANCH 30 35
ATOM     35  C   ILE E 804     -12.606  21.654  34.483  1.00 65.71 LIG 0.24  C 
ATOM     36  N   ALA E 805     -12.273  22.942  34.460  1.00 67.46 LIG-0.35  N 
ATOM     37 H    ALA E 805     -12.704  23.544  34.022  1.00 67.46 LIG 0.16  HD
ATOM     38 O    ILE E 804     -11.960  20.810  35.114  1.00 65.35 LIG-0.27  OA
BRANCH 36 39
ATOM     39  CA  ALA E 805     -11.115  23.439  35.200  1.00 69.21 LIG 0.16  C 
ATOM     40  CB  ALA E 805      -9.873  22.618  34.843  1.00 68.65 LIG 0.04  C 
BRANCH 39 41
ATOM     41  C   ALA E 805     -10.863  24.919  34.917  1.00 70.07 LIG 0.22  C 
ATOM     42 O    ALA E 805     -11.001  25.314  33.737  1.00 70.08 LIG-0.29  OA
ENDBRANCH 39 41
ENDBRANCH 36 39
ENDBRANCH 30 35
ENDBRANCH 28 30
ENDBRANCH 24 26
ENDBRANCH 3 24
TORSDOF 17
ENDMDL
MODEL 5
USER: ADFR SOLUTION from run 134
USER: SCORE 12.966044 LL:  -2.716 LR: -11.913 RR:   0.000 FEB:  -6.842
USER: RMSD 9.787603
USER: SEED 133
USER: STATUS no improvement in best 2 clusters for 5 generations
USER: GENES 19
USER: genes 0 Translation |==|  0.39371 0.74180 0.38234
USER: genes 1 Rotation |==|  0.21206 0.50546 0.79404 0.78390
USER: genes 2 Torsion [N]-C--CA-[N] |==|  0.21960
USER: genes 3 Torsion [C]-CA--CB-[CG] |==|  0.73606
USER: genes 4 Torsion [CA]-CB--CG-[CD] |==|  0.25850
USER: genes 5 Torsion [CB]-CG--CD-[CE] |==|  0.16870
USER: genes 6 Torsion [CG]-CD--CE-[NZ] |==|  0.15666
USER: genes 7 Torsion [CD]-CE--NZ-[HZ2] |==|  0.11235
USER: genes 8 Torsion [C]-CA--N-[C] |==|  0.74445
USER: genes 9 Torsion [N]-C--CA-[N] |==|  0.16927
USER: genes 10 Torsion [C]-CA--N-[H1] |==|  0.06247
USER: genes 11 Torsion [C]-N--CA-[CB] |==|  0.60859
USER: genes 12 Torsion [N]-CA--C-[N] |==|  0.31582
USER: genes 13 Torsion [C]-N--CA-[CB] |==|  0.24075
USER: genes 14 Torsion [N]-CA--CB-[CG1] |==|  0.01374
USER: genes 15 Torsion [CA]-CB--CG1-[CD1] |==|  0.40522
USER: genes 16 Torsion [N]-CA--C-[N] |==|  0.43086
USER: genes 17 Torsion [C]-N--CA-[CB] |==|  0.18454
USER: genes 18 Torsion [N]-CA--C-[O] |==|  0.02303
ROOT
ATOM      1  C   LYS E 802     -16.029  28.814  30.950  1.00 51.37 LIG 0.24  C 
ATOM      2 O    LYS E 802     -15.935  27.647  30.585  1.00 54.76 LIG-0.27  OA
ATOM      3  N   ALA E 803     -15.608  29.240  32.140  1.00 53.01 LIG-0.35  N 
ATOM      4 H    ALA E 803     -15.612  30.069  32.366  1.00 53.01 LIG 0.16  HD
ENDROOT
BRANCH 1 5
ATOM      5  CA  LYS E 802     -16.659  29.872  30.037  1.00 50.80 LIG 0.18  C 
BRANCH 5 6
ATOM      6  CB  LYS E 802     -17.558  29.131  29.046  1.00 49.65 LIG 0.04  C 
BRANCH 6 7
ATOM      7  CG  LYS E 802     -16.921  28.808  27.727  1.00 48.72 LIG 0.00  C 
BRANCH 7 8
ATOM      8  CD  LYS E 802     -16.318  27.422  27.772  1.00 52.85 LIG 0.03  C 
BRANCH 8 9
ATOM      9  CE  LYS E 802     -17.378  26.381  28.043  1.00 52.25 LIG 0.23  C 
BRANCH 9 10
ATOM     10  NZ  LYS E 802     -18.465  26.444  27.036  1.00 53.26 LIG-0.08  N 
ATOM     11 HZ1  LYS E 802     -19.019  27.111  27.238  1.00 53.26 LIG 0.27  HD
ATOM     12 HZ2  LYS E 802     -18.115  26.585  26.230  1.00 53.26 LIG 0.27  HD
ATOM     13 HZ3  LYS E 802     -18.914  25.676  27.035  1.00 53.26 LIG 0.27  HD
ENDBRANCH 9 10
ENDBRANCH 8 9
ENDBRANCH 7 8
ENDBRANCH 6 7
ENDBRANCH 5 6
BRANCH 5 14
ATOM     14  N   LYS E 802     -15.814  30.797  29.281  1.00 51.06 LIG-0.35  N 
ATOM     15 H    LYS E 802     -15.559  30.520  28.508  1.00 51.06 LIG 0.16  HD
ATOM     16  C   ALA E 801     -15.498  31.981  29.820  1.00 50.59 LIG 0.25  C 
ATOM     17 O    ALA E 801     -15.840  32.304  30.958  1.00 51.18 LIG-0.27  OA
BRANCH 16 18
ATOM     18  CA  ALA E 801     -14.651  32.941  28.993  1.00 50.00 LIG 0.27  C 
ATOM     19  CB  ALA E 801     -14.352  34.208  29.812  1.00 45.45 LIG 0.05  C 
BRANCH 18 20
ATOM     20  N   ALA E 801     -15.348  33.307  27.736  1.00 50.21 LIG-0.07  N 
ATOM     21 H3   ALA E 801     -15.047  32.799  27.071  1.00 50.21 LIG 0.28  HD
ATOM     22 H2   ALA E 801     -15.193  34.163  27.548  1.00 50.21 LIG 0.28  HD
ATOM     23 H1   ALA E 801     -16.224  33.179  27.833  1.00 50.21 LIG 0.28  HD
ENDBRANCH 18 20
ENDBRANCH 16 18
ENDBRANCH 5 14
ENDBRANCH 1 5
BRANCH 3 24
ATOM     24  CA  ALA E 803     -15.092  28.350  33.192  1.00 57.29 LIG 0.17  C 
ATOM     25  CB  ALA E 803     -15.604  28.849  34.546  1.00 55.60 LIG 0.04  C 
BRANCH 24 26
ATOM     26  C   ALA E 803     -15.177  26.823  33.191  1.00 59.81 LIG 0.24  C 
ATOM     27 O    ALA E 803     -16.240  26.220  33.318  1.00 62.26 LIG-0.27  OA
ATOM     28  N   ILE E 804     -13.986  26.236  33.096  1.00 62.20 LIG-0.35  N 
ATOM     29 H    ILE E 804     -13.265  26.696  33.011  1.00 62.20 LIG 0.16  HD
BRANCH 28 30
ATOM     30  CA  ILE E 804     -13.720  24.796  33.116  1.00 63.57 LIG 0.18  C 
BRANCH 30 31
ATOM     31  CB  ILE E 804     -13.827  24.144  31.718  1.00 63.71 LIG 0.01  C 
ATOM     32  CG2 ILE E 804     -14.966  23.135  31.701  1.00 63.48 LIG 0.01  C 
BRANCH 31 33
ATOM     33  CG1 ILE E 804     -14.068  25.207  30.649  1.00 63.94 LIG 0.00  C 
ATOM     34  CD1 ILE E 804     -13.421  24.896  29.337  1.00 63.94 LIG 0.01  C 
ENDBRANCH 31 33
ENDBRANCH 30 31
BRANCH 30 35
ATOM     35  C   ILE E 804     -12.258  24.716  33.561  1.00 65.71 LIG 0.24  C 
ATOM     36  N   ALA E 805     -11.865  23.592  34.155  1.00 67.46 LIG-0.35  N 
ATOM     37 H    ALA E 805     -12.379  22.917  34.299  1.00 67.46 LIG 0.16  HD
ATOM     38 O    ILE E 804     -11.498  25.673  33.378  1.00 65.35 LIG-0.27  OA
BRANCH 36 39
ATOM     39  CA  ALA E 805     -10.490  23.421  34.620  1.00 69.21 LIG 0.16  C 
ATOM     40  CB  ALA E 805     -10.201  24.389  35.770  1.00 68.65 LIG 0.04  C 
BRANCH 39 41
ATOM     41  C   ALA E 805     -10.224  21.984  35.067  1.00 70.07 LIG 0.22  C 
ATOM     42 O    ALA E 805     -11.115  21.134  34.838  1.00 70.08 LIG-0.29  OA
ENDBRANCH 39 41
ENDBRANCH 36 39
ENDBRANCH 30 35
ENDBRANCH 28 30
ENDBRANCH 24 26
ENDBRANCH 3 24
TORSDOF 17
ENDMDL
MODEL 6
USER: ADFR SOLUTION from run 62
USER: SCORE 13.087945 LL:  -2.138 LR: -11.868 RR:   0.000 FEB:  -6.797
USER: RMSD 10.072426
USER: SEED 61
USER: STATUS no improvement in best 3 clusters for 5 generations
USER: GENES 19
USER: genes 0 Translation |==|  0.42994 0.55394 0.33487
USER: genes 1 Rotation |==|  0.27719 0.16955 0.79999 0.53412
USER: genes 2 Torsion [N]-C--CA-[N] |==|  0.90492
USER: genes 3 Torsion [C]-CA--CB-[CG] |==|  0.16646
USER: genes 4 Torsion [CA]-CB--CG-[CD] |==|  0.44303
USER: genes 5 Torsion [CB]-CG--CD-[CE] |==|  0.09625
USER: genes 6 Torsion [CG]-CD--CE-[NZ] |==|  0.70464
USER: genes 7 Torsion [CD]-CE--NZ-[HZ2] |==|  0.68148
USER: genes 8 Torsion [C]-CA--N-[C] |==|  0.62261
USER: genes 9 Torsion [N]-C--CA-[N] |==|  0.48069
USER: genes 10 Torsion [C]-CA--N-[H1] |==|  0.73315
USER: genes 11 Torsion [C]-N--CA-[CB] |==|  0.76206
USER: genes 12 Torsion [N]-CA--C-[N] |==|  0.45837
USER: genes 13 Torsion [C]-N--CA-[CB] |==|  0.77679
USER: genes 14 Torsion [N]-CA--CB-[CG1] |==|  0.83338
USER: genes 15 Torsion [CA]-CB--CG1-[CD1] |==|  0.91971
USER: genes 16 Torsion [N]-CA--C-[N] |==|  0.18562
USER: genes 17 Torsion [C]-N--CA-[CB] |==|  0.45739
USER: genes 18 Torsion [N]-CA--C-[O] |==|  0.38762
ROOT
ATOM      1  C   LYS E 802     -14.942  23.178  29.526  1.00 51.37 LIG 0.24  C 
ATOM      2 O    LYS E 802     -13.756  23.491  29.503  1.00 54.76 LIG-0.27  OA
ATOM      3  N   ALA E 803     -15.558  22.747  30.625  1.00 53.01 LIG-0.35  N 
ATOM      4 H    ALA E 803     -16.404  22.594  30.655  1.00 53.01 LIG 0.16  HD
ENDROOT
BRANCH 1 5
ATOM      5  CA  LYS E 802     -15.799  23.263  28.257  1.00 50.80 LIG 0.18  C 
BRANCH 5 6
ATOM      6  CB  LYS E 802     -16.419  24.661  28.226  1.00 49.65 LIG 0.04  C 
BRANCH 6 7
ATOM      7  CG  LYS E 802     -15.436  25.793  28.198  1.00 48.72 LIG 0.00  C 
BRANCH 7 8
ATOM      8  CD  LYS E 802     -16.104  27.043  27.673  1.00 52.85 LIG 0.03  C 
BRANCH 8 9
ATOM      9  CE  LYS E 802     -17.548  27.107  28.109  1.00 52.25 LIG 0.23  C 
BRANCH 9 10
ATOM     10  NZ  LYS E 802     -18.465  26.814  26.980  1.00 53.26 LIG-0.08  N 
ATOM     11 HZ1  LYS E 802     -19.012  26.151  27.206  1.00 53.26 LIG 0.27  HD
ATOM     12 HZ2  LYS E 802     -18.944  27.540  26.790  1.00 53.26 LIG 0.27  HD
ATOM     13 HZ3  LYS E 802     -17.990  26.577  26.266  1.00 53.26 LIG 0.27  HD
ENDBRANCH 9 10
ENDBRANCH 8 9
ENDBRANCH 7 8
ENDBRANCH 6 7
ENDBRANCH 5 6
BRANCH 5 14
ATOM     14  N   LYS E 802     -16.862  22.287  28.015  1.00 51.06 LIG-0.35  N 
ATOM     15 H    LYS E 802     -17.359  22.105  28.691  1.00 51.06 LIG 0.16  HD
ATOM     16  C   ALA E 801     -16.992  21.754  26.794  1.00 50.59 LIG 0.25  C 
ATOM     17 O    ALA E 801     -16.213  22.006  25.874  1.00 51.18 LIG-0.27  OA
BRANCH 16 18
ATOM     18  CA  ALA E 801     -18.134  20.773  26.558  1.00 50.00 LIG 0.27  C 
ATOM     19  CB  ALA E 801     -17.914  19.505  27.401  1.00 45.45 LIG 0.05  C 
BRANCH 18 20
ATOM     20  N   ALA E 801     -18.229  20.413  25.122  1.00 50.21 LIG-0.07  N 
ATOM     21 H3   ALA E 801     -18.466  19.559  25.045  1.00 50.21 LIG 0.28  HD
ATOM     22 H2   ALA E 801     -17.439  20.537  24.731  1.00 50.21 LIG 0.28  HD
ATOM     23 H1   ALA E 801     -18.840  20.926  24.727  1.00 50.21 LIG 0.28  HD
ENDBRANCH 18 20
ENDBRANCH 16 18
ENDBRANCH 5 14
ENDBRANCH 1 5
BRANCH 3 24
ATOM     24  CA  ALA E 803     -14.872  22.484  31.899  1.00 57.29 LIG 0.17  C 
ATOM     25  CB  ALA E 803     -14.316  21.058  31.868  1.00 55.60 LIG 0.04  C 
BRANCH 24 26
ATOM     26  C   ALA E 803     -13.821  23.384  32.549  1.00 59.81 LIG 0.24  C 
ATOM     27 O    ALA E 803     -13.220  24.256  31.926  1.00 62.26 LIG-0.27  OA
ATOM     28  N   ILE E 804     -13.596  23.083  33.827  1.00 62.20 LIG-0.35  N 
ATOM     29 H    ILE E 804     -14.038  22.462  34.225  1.00 62.20 LIG 0.16  HD
BRANCH 28 30
ATOM     30  CA  ILE E 804     -12.622  23.720  34.714  1.00 63.57 LIG 0.18  C 
BRANCH 30 31
ATOM     31  CB  ILE E 804     -11.185  23.188  34.511  1.00 63.71 LIG 0.01  C 
ATOM     32  CG2 ILE E 804     -10.225  23.913  35.444  1.00 63.48 LIG 0.01  C 
BRANCH 31 33
ATOM     33  CG1 ILE E 804     -11.127  21.687  34.782  1.00 63.94 LIG 0.00  C 
ATOM     34  CD1 ILE E 804     -12.143  21.216  35.773  1.00 63.94 LIG 0.01  C 
ENDBRANCH 31 33
ENDBRANCH 30 31
BRANCH 30 35
ATOM     35  C   ILE E 804     -12.648  25.185  34.272  1.00 65.71 LIG 0.24  C 
ATOM     36  N   ALA E 805     -13.769  25.867  34.495  1.00 67.46 LIG-0.35  N 
ATOM     37 H    ALA E 805     -14.468  25.536  34.870  1.00 67.46 LIG 0.16  HD
ATOM     38 O    ILE E 804     -11.662  25.686  33.720  1.00 65.35 LIG-0.27  OA
BRANCH 36 39
ATOM     39  CA  ALA E 805     -13.893  27.270  34.104  1.00 69.21 LIG 0.16  C 
ATOM     40  CB  ALA E 805     -15.366  27.690  34.121  1.00 68.65 LIG 0.04  C 
BRANCH 39 41
ATOM     41  C   ALA E 805     -13.079  28.181  35.021  1.00 70.07 LIG 0.22  C 
ATOM     42 O    ALA E 805     -12.457  29.128  34.488  1.00 70.08 LIG-0.29  OA
ENDBRANCH 39 41
ENDBRANCH 36 39
ENDBRANCH 30 35
ENDBRANCH 28 30
ENDBRANCH 24 26
ENDBRANCH 3 24
TORSDOF 17
ENDMDL
MODEL 7
USER: ADFR SOLUTION from run 117
USER: SCORE 12.389416 LL:  -2.331 LR: -11.797 RR:   0.000 FEB:  -6.726
USER: RMSD 10.285059
USER: SEED 116
USER: STATUS no improvement in best 15 clusters for 5 generations
USER: GENES 19
USER: genes 0 Translation |==|  0.42228 0.57737 0.31377
USER: genes 1 Rotation |==|  0.28464 0.19370 0.82912 0.53848
USER: genes 2 Torsion [N]-C--CA-[N] |==|  0.89395
USER: genes 3 Torsion [C]-CA--CB-[CG] |==|  0.04027
USER: genes 4 Torsion [CA]-CB--CG-[CD] |==|  0.42590
USER: genes 5 Torsion [CB]-CG--CD-[CE] |==|  0.21811
USER: genes 6 Torsion [CG]-CD--CE-[NZ] |==|  0.76776
USER: genes 7 Torsion [CD]-CE--NZ-[HZ2] |==|  0.19191
USER: genes 8 Torsion [C]-CA--N-[C] |==|  0.68082
USER: genes 9 Torsion [N]-C--CA-[N] |==|  0.29154
USER: genes 10 Torsion [C]-CA--N-[H1] |==|  0.57765
USER: genes 11 Torsion [C]-N--CA-[CB] |==|  0.80001
USER: genes 12 Torsion [N]-CA--C-[N] |==|  0.38937
USER: genes 13 Torsion [C]-N--CA-[CB] |==|  0.47901
USER: genes 14 Torsion [N]-CA--CB-[CG1] |==|  0.75331
USER: genes 15 Torsion [CA]-CB--CG1-[CD1] |==|  0.55420
USER: genes 16 Torsion [N]-CA--C-[N] |==|  0.82145
USER: genes 17 Torsion [C]-N--CA-[CB] |==|  0.19322
USER: genes 18 Torsion [N]-CA--C-[O] |==|  0.98289
ROOT
ATOM      1  C   LYS E 802     -15.172  23.881  28.893  1.00 51.37 LIG 0.24  C 
ATOM      2 O    LYS E 802     -13.986  24.151  28.729  1.00 54.76 LIG-0.27  OA
ATOM      3  N   ALA E 803     -15.696  23.608  30.086  1.00 53.01 LIG-0.35  N 
ATOM      4 H    ALA E 803     -16.539  23.487  30.208  1.00 53.01 LIG 0.16  HD
ENDROOT
BRANCH 1 5
ATOM      5  CA  LYS E 802     -16.136  23.835  27.702  1.00 50.80 LIG 0.18  C 
BRANCH 5 6
ATOM      6  CB  LYS E 802     -16.803  25.208  27.611  1.00 49.65 LIG 0.04  C 
BRANCH 6 7
ATOM      7  CG  LYS E 802     -16.143  26.291  28.411  1.00 48.72 LIG 0.00  C 
BRANCH 7 8
ATOM      8  CD  LYS E 802     -16.421  27.638  27.785  1.00 52.85 LIG 0.03  C 
BRANCH 8 9
ATOM      9  CE  LYS E 802     -17.810  28.119  28.132  1.00 52.25 LIG 0.23  C 
BRANCH 9 10
ATOM     10  NZ  LYS E 802     -18.824  27.539  27.218  1.00 53.26 LIG-0.08  N 
ATOM     11 HZ1  LYS E 802     -18.571  27.666  26.374  1.00 53.26 LIG 0.27  HD
ATOM     12 HZ2  LYS E 802     -18.901  26.666  27.374  1.00 53.26 LIG 0.27  HD
ATOM     13 HZ3  LYS E 802     -19.608  27.935  27.355  1.00 53.26 LIG 0.27  HD
ENDBRANCH 9 10
ENDBRANCH 8 9
ENDBRANCH 7 8
ENDBRANCH 6 7
ENDBRANCH 5 6
BRANCH 5 14
ATOM     14  N   LYS E 802     -17.183  22.815  27.636  1.00 51.06 LIG-0.35  N 
ATOM     15 H    LYS E 802     -17.788  22.864  28.245  1.00 51.06 LIG 0.16  HD
ATOM     16  C   ALA E 801     -17.139  21.896  26.664  1.00 50.59 LIG 0.25  C 
ATOM     17 O    ALA E 801     -16.215  21.835  25.851  1.00 51.18 LIG-0.27  OA
BRANCH 16 18
ATOM     18  CA  ALA E 801     -18.265  20.872  26.593  1.00 50.00 LIG 0.27  C 
ATOM     19  CB  ALA E 801     -17.677  19.463  26.402  1.00 45.45 LIG 0.05  C 
BRANCH 18 20
ATOM     20  N   ALA E 801     -19.192  21.186  25.478  1.00 50.21 LIG-0.07  N 
ATOM     21 H3   ALA E 801     -18.900  20.801  24.732  1.00 50.21 LIG 0.28  HD
ATOM     22 H2   ALA E 801     -19.229  22.068  25.362  1.00 50.21 LIG 0.28  HD
ATOM     23 H1   ALA E 801     -20.004  20.878  25.672  1.00 50.21 LIG 0.28  HD
ENDBRANCH 18 20
ENDBRANCH 16 18
ENDBRANCH 5 14
ENDBRANCH 1 5
BRANCH 3 24
ATOM     24  CA  ALA E 803     -14.904  23.484  31.319  1.00 57.29 LIG 0.17  C 
ATOM     25  CB  ALA E 803     -14.107  22.178  31.257  1.00 55.60 LIG 0.04  C 
BRANCH 24 26
ATOM     26  C   ALA E 803     -13.994  24.561  31.909  1.00 59.81 LIG 0.24  C 
ATOM     27 O    ALA E 803     -13.244  25.245  31.217  1.00 62.26 LIG-0.27  OA
ATOM     28  N   ILE E 804     -14.066  24.634  33.237  1.00 62.20 LIG-0.35  N 
ATOM     29 H    ILE E 804     -14.603  24.135  33.685  1.00 62.20 LIG 0.16  HD
BRANCH 28 30
ATOM     30  CA  ILE E 804     -13.291  25.523  34.104  1.00 63.57 LIG 0.18  C 
BRANCH 30 31
ATOM     31  CB  ILE E 804     -13.755  25.480  35.579  1.00 63.71 LIG 0.01  C 
ATOM     32  CG2 ILE E 804     -12.579  25.767  36.502  1.00 63.48 LIG 0.01  C 
BRANCH 31 33
ATOM     33  CG1 ILE E 804     -14.860  26.505  35.822  1.00 63.94 LIG 0.00  C 
ATOM     34  CD1 ILE E 804     -15.043  26.859  37.262  1.00 63.94 LIG 0.01  C 
ENDBRANCH 31 33
ENDBRANCH 30 31
BRANCH 30 35
ATOM     35  C   ILE E 804     -11.879  24.935  34.038  1.00 65.71 LIG 0.24  C 
ATOM     36  N   ALA E 805     -11.707  23.711  34.529  1.00 67.46 LIG-0.35  N 
ATOM     37 H    ALA E 805     -12.336  23.237  34.876  1.00 67.46 LIG 0.16  HD
ATOM     38 O    ILE E 804     -10.953  25.596  33.555  1.00 65.35 LIG-0.27  OA
BRANCH 36 39
ATOM     39  CA  ALA E 805     -10.396  23.066  34.516  1.00 69.21 LIG 0.16  C 
ATOM     40  CB  ALA E 805      -9.457  23.765  35.502  1.00 68.65 LIG 0.04  C 
BRANCH 39 41
ATOM     41  C   ALA E 805     -10.499  21.580  34.855  1.00 70.07 LIG 0.22  C 
ATOM     42 O    ALA E 805     -11.618  21.144  35.207  1.00 70.08 LIG-0.29  OA
ENDBRANCH 39 41
ENDBRANCH 36 39
ENDBRANCH 30 35
ENDBRANCH 28 30
ENDBRANCH 24 26
ENDBRANCH 3 24
TORSDOF 17
ENDMDL
MODEL 8
USER: ADFR SOLUTION from run 11
USER: SCORE 11.206170 LL:  -2.321 LR: -11.755 RR:   0.000 FEB:  -6.684
USER: RMSD 3.766010
USER: SEED 272080
USER: STATUS no improvement in best 12 clusters for 5 generations
USER: GENES 19
USER: genes 0 Translation |==|  0.52243 0.50010 0.50444
USER: genes 1 Rotation |==|  0.21767 0.19555 0.41550 0.76545
USER: genes 2 Torsion [N]-C--CA-[N] |==|  0.21242
USER: genes 3 Torsion [C]-CA--CB-[CG] |==|  0.63580
USER: genes 4 Torsion [CA]-CB--CG-[CD] |==|  0.64358
USER: genes 5 Torsion [CB]-CG--CD-[CE] |==|  0.44781
USER: genes 6 Torsion [CG]-CD--CE-[NZ] |==|  0.41257
USER: genes 7 Torsion [CD]-CE--NZ-[HZ2] |==|  0.58857
USER: genes 8 Torsion [C]-CA--N-[C] |==|  0.77100
USER: genes 9 Torsion [N]-C--CA-[N] |==|  0.88813
USER: genes 10 Torsion [C]-CA--N-[H1] |==|  0.58012
USER: genes 11 Torsion [C]-N--CA-[CB] |==|  0.45000
USER: genes 12 Torsion [N]-CA--C-[N] |==|  0.40910
USER: genes 13 Torsion [C]-N--CA-[CB] |==|  0.30606
USER: genes 14 Torsion [N]-CA--CB-[CG1] |==|  0.77998
USER: genes 15 Torsion [CA]-CB--CG1-[CD1] |==|  0.75787
USER: genes 16 Torsion [N]-CA--C-[N] |==|  0.79420
USER: genes 17 Torsion [C]-N--CA-[CB] |==|  0.84712
USER: genes 18 Torsion [N]-CA--C-[O] |==|  0.04413
ROOT
ATOM      1  C   LYS E 802     -12.167  21.563  34.613  1.00 51.37 LIG 0.24  C 
ATOM      2 O    LYS E 802     -11.318  20.719  34.343  1.00 54.76 LIG-0.27  OA
ATOM      3  N   ALA E 803     -13.475  21.313  34.587  1.00 53.01 LIG-0.35  N 
ATOM      4 H    ALA E 803     -14.064  21.884  34.843  1.00 53.01 LIG 0.16  HD
ENDROOT
BRANCH 1 5
ATOM      5  CA  LYS E 802     -11.758  22.990  34.997  1.00 50.80 LIG 0.18  C 
BRANCH 5 6
ATOM      6  CB  LYS E 802     -10.334  23.204  34.480  1.00 49.65 LIG 0.04  C 
BRANCH 6 7
ATOM      7  CG  LYS E 802      -9.374  23.777  35.479  1.00 48.72 LIG 0.00  C 
BRANCH 7 8
ATOM      8  CD  LYS E 802      -8.677  24.983  34.890  1.00 52.85 LIG 0.03  C 
BRANCH 8 9
ATOM      9  CE  LYS E 802      -8.071  25.840  35.975  1.00 52.25 LIG 0.23  C 
BRANCH 9 10
ATOM     10  NZ  LYS E 802      -6.840  26.518  35.501  1.00 53.26 LIG-0.08  N 
ATOM     11 HZ1  LYS E 802      -7.050  27.319  35.173  1.00 53.26 LIG 0.27  HD
ATOM     12 HZ2  LYS E 802      -6.274  26.616  36.181  1.00 53.26 LIG 0.27  HD
ATOM     13 HZ3  LYS E 802      -6.458  26.028  34.864  1.00 53.26 LIG 0.27  HD
ENDBRANCH 9 10
ENDBRANCH 8 9
ENDBRANCH 7 8
ENDBRANCH 6 7
ENDBRANCH 5 6
BRANCH 5 14
ATOM     14  N   LYS E 802     -11.805  23.424  36.394  1.00 51.06 LIG-0.35  N 
ATOM     15 H    LYS E 802     -11.057  23.392  36.817  1.00 51.06 LIG 0.16  HD
ATOM     16  C   ALA E 801     -12.969  23.831  36.912  1.00 50.59 LIG 0.25  C 
ATOM     17 O    ALA E 801     -14.025  23.800  36.277  1.00 51.18 LIG-0.27  OA
BRANCH 16 18
ATOM     18  CA  ALA E 801     -12.981  24.317  38.356  1.00 50.00 LIG 0.27  C 
ATOM     19  CB  ALA E 801     -12.501  25.777  38.418  1.00 45.45 LIG 0.05  C 
BRANCH 18 20
ATOM     20  N   ALA E 801     -12.112  23.465  39.205  1.00 50.21 LIG-0.07  N 
ATOM     21 H3   ALA E 801     -11.283  23.786  39.198  1.00 50.21 LIG 0.28  HD
ATOM     22 H2   ALA E 801     -12.110  22.633  38.887  1.00 50.21 LIG 0.28  HD
ATOM     23 H1   ALA E 801     -12.422  23.463  40.039  1.00 50.21 LIG 0.28  HD
ENDBRANCH 18 20
ENDBRANCH 16 18
ENDBRANCH 5 14
ENDBRANCH 1 5
BRANCH 3 24
ATOM     24  CA  ALA E 803     -14.056  20.043  34.124  1.00 57.29 LIG 0.17  C 
ATOM     25  CB  ALA E 803     -15.492  19.945  34.647  1.00 55.60 LIG 0.04  C 
BRANCH 24 26
ATOM     26  C   ALA E 803     -14.044  19.527  32.686  1.00 59.81 LIG 0.24  C 
ATOM     27 O    ALA E 803     -14.143  20.274  31.714  1.00 62.26 LIG-0.27  OA
ATOM     28  N   ILE E 804     -13.971  18.200  32.608  1.00 62.20 LIG-0.35  N 
ATOM     29 H    ILE E 804     -13.906  17.713  33.314  1.00 62.20 LIG 0.16  HD
BRANCH 28 30
ATOM     30  CA  ILE E 804     -13.988  17.395  31.386  1.00 63.57 LIG 0.18  C 
BRANCH 30 31
ATOM     31  CB  ILE E 804     -12.625  16.732  31.082  1.00 63.71 LIG 0.01  C 
ATOM     32  CG2 ILE E 804     -12.819  15.552  30.141  1.00 63.48 LIG 0.01  C 
BRANCH 31 33
ATOM     33  CG1 ILE E 804     -11.668  17.740  30.451  1.00 63.94 LIG 0.00  C 
ATOM     34  CD1 ILE E 804     -11.788  17.831  28.964  1.00 63.94 LIG 0.01  C 
ENDBRANCH 31 33
ENDBRANCH 30 31
BRANCH 30 35
ATOM     35  C   ILE E 804     -14.990  16.284  31.710  1.00 65.71 LIG 0.24  C 
ATOM     36  N   ALA E 805     -14.588  15.329  32.545  1.00 67.46 LIG-0.35  N 
ATOM     37 H    ALA E 805     -13.810  15.302  32.909  1.00 67.46 LIG 0.16  HD
ATOM     38 O    ILE E 804     -16.114  16.290  31.195  1.00 65.35 LIG-0.27  OA
BRANCH 36 39
ATOM     39  CA  ALA E 805     -15.471  14.224  32.913  1.00 69.21 LIG 0.16  C 
ATOM     40  CB  ALA E 805     -16.785  14.768  33.479  1.00 68.65 LIG 0.04  C 
BRANCH 39 41
ATOM     41  C   ALA E 805     -15.753  13.310  31.721  1.00 70.07 LIG 0.22  C 
ATOM     42 O    ALA E 805     -15.001  13.413  30.725  1.00 70.08 LIG-0.29  OA
ENDBRANCH 39 41
ENDBRANCH 36 39
ENDBRANCH 30 35
ENDBRANCH 28 30
ENDBRANCH 24 26
ENDBRANCH 3 24
TORSDOF 17
ENDMDL
MODEL 9
USER: ADFR SOLUTION from run 103
USER: SCORE 12.353734 LL:  -2.017 LR: -11.691 RR:   0.000 FEB:  -6.620
USER: RMSD 10.261111
USER: SEED 102
USER: STATUS no improvement in best 5 clusters for 5 generations
USER: GENES 19
USER: genes 0 Translation |==|  0.50888 0.48672 0.48750
USER: genes 1 Rotation |==|  0.86211 0.42401 0.16371 0.50360
USER: genes 2 Torsion [N]-C--CA-[N] |==|  0.40219
USER: genes 3 Torsion [C]-CA--CB-[CG] |==|  0.59779
USER: genes 4 Torsion [CA]-CB--CG-[CD] |==|  0.30238
USER: genes 5 Torsion [CB]-CG--CD-[CE] |==|  0.58610
USER: genes 6 Torsion [CG]-CD--CE-[NZ] |==|  0.45355
USER: genes 7 Torsion [CD]-CE--NZ-[HZ2] |==|  0.80430
USER: genes 8 Torsion [C]-CA--N-[C] |==|  0.66668
USER: genes 9 Torsion [N]-C--CA-[N] |==|  0.94453
USER: genes 10 Torsion [C]-CA--N-[H1] |==|  0.71567
USER: genes 11 Torsion [C]-N--CA-[CB] |==|  0.77952
USER: genes 12 Torsion [N]-CA--C-[N] |==|  0.46625
USER: genes 13 Torsion [C]-N--CA-[CB] |==|  0.22112
USER: genes 14 Torsion [N]-CA--CB-[CG1] |==|  0.39292
USER: genes 15 Torsion [CA]-CB--CG1-[CD1] |==|  0.21087
USER: genes 16 Torsion [N]-CA--C-[N] |==|  0.34503
USER: genes 17 Torsion [C]-N--CA-[CB] |==|  0.15678
USER: genes 18 Torsion [N]-CA--C-[O] |==|  0.29064
ROOT
ATOM      1  C   LYS E 802     -12.574  21.161  34.105  1.00 51.37 LIG 0.24  C 
ATOM      2 O    LYS E 802     -11.779  20.528  34.793  1.00 54.76 LIG-0.27  OA
ATOM      3  N   ALA E 803     -12.736  22.479  34.209  1.00 53.01 LIG-0.35  N 
ATOM      4 H    ALA E 803     -13.242  22.930  33.680  1.00 53.01 LIG 0.16  HD
ENDROOT
BRANCH 1 5
ATOM      5  CA  LYS E 802     -13.450  20.451  33.067  1.00 50.80 LIG 0.18  C 
BRANCH 5 6
ATOM      6  CB  LYS E 802     -14.726  20.007  33.785  1.00 49.65 LIG 0.04  C 
BRANCH 6 7
ATOM      7  CG  LYS E 802     -15.297  18.701  33.318  1.00 48.72 LIG 0.00  C 
BRANCH 7 8
ATOM      8  CD  LYS E 802     -15.092  17.641  34.376  1.00 52.85 LIG 0.03  C 
BRANCH 8 9
ATOM      9  CE  LYS E 802     -14.928  16.277  33.750  1.00 52.25 LIG 0.23  C 
BRANCH 9 10
ATOM     10  NZ  LYS E 802     -14.340  15.311  34.711  1.00 53.26 LIG-0.08  N 
ATOM     11 HZ1  LYS E 802     -14.392  14.489  34.374  1.00 53.26 LIG 0.27  HD
ATOM     12 HZ2  LYS E 802     -13.486  15.518  34.855  1.00 53.26 LIG 0.27  HD
ATOM     13 HZ3  LYS E 802     -14.788  15.346  35.478  1.00 53.26 LIG 0.27  HD
ENDBRANCH 9 10
ENDBRANCH 8 9
ENDBRANCH 7 8
ENDBRANCH 6 7
ENDBRANCH 5 6
BRANCH 5 14
ATOM     14  N   LYS E 802     -12.930  19.309  32.314  1.00 51.06 LIG-0.35  N 
ATOM     15 H    LYS E 802     -12.686  18.634  32.787  1.00 51.06 LIG 0.16  HD
ATOM     16  C   ALA E 801     -12.867  19.381  30.979  1.00 50.59 LIG 0.25  C 
ATOM     17 O    ALA E 801     -13.175  20.398  30.355  1.00 51.18 LIG-0.27  OA
BRANCH 16 18
ATOM     18  CA  ALA E 801     -12.361  18.162  30.218  1.00 50.00 LIG 0.27  C 
ATOM     19  CB  ALA E 801     -13.550  17.392  29.619  1.00 45.45 LIG 0.05  C 
BRANCH 18 20
ATOM     20  N   ALA E 801     -11.582  17.270  31.112  1.00 50.21 LIG-0.07  N 
ATOM     21 H3   ALA E 801     -11.802  16.424  30.951  1.00 50.21 LIG 0.28  HD
ATOM     22 H2   ALA E 801     -11.764  17.468  31.961  1.00 50.21 LIG 0.28  HD
ATOM     23 H1   ALA E 801     -10.713  17.384  30.961  1.00 50.21 LIG 0.28  HD
ENDBRANCH 18 20
ENDBRANCH 16 18
ENDBRANCH 5 14
ENDBRANCH 1 5
BRANCH 3 24
ATOM     24  CA  ALA E 803     -12.075  23.307  35.230  1.00 57.29 LIG 0.17  C 
ATOM     25  CB  ALA E 803     -12.840  23.157  36.548  1.00 55.60 LIG 0.04  C 
BRANCH 24 26
ATOM     26  C   ALA E 803     -10.581  23.305  35.551  1.00 59.81 LIG 0.24  C 
ATOM     27 O    ALA E 803      -9.821  22.419  35.164  1.00 62.26 LIG-0.27  OA
ATOM     28  N   ILE E 804     -10.214  24.321  36.329  1.00 62.20 LIG-0.35  N 
ATOM     29 H    ILE E 804     -10.778  24.919  36.581  1.00 62.20 LIG 0.16  HD
BRANCH 28 30
ATOM     30  CA  ILE E 804      -8.871  24.578  36.854  1.00 63.57 LIG 0.18  C 
BRANCH 30 31
ATOM     31  CB  ILE E 804      -7.934  25.234  35.814  1.00 63.71 LIG 0.01  C 
ATOM     32  CG2 ILE E 804      -8.755  25.890  34.713  1.00 63.48 LIG 0.01  C 
BRANCH 31 33
ATOM     33  CG1 ILE E 804      -7.044  26.280  36.482  1.00 63.94 LIG 0.00  C 
ATOM     34  CD1 ILE E 804      -5.921  25.694  37.276  1.00 63.94 LIG 0.01  C 
ENDBRANCH 31 33
ENDBRANCH 30 31
BRANCH 30 35
ATOM     35  C   ILE E 804      -9.119  25.594  37.971  1.00 65.71 LIG 0.24  C 
ATOM     36  N   ALA E 805      -8.675  25.280  39.186  1.00 67.46 LIG-0.35  N 
ATOM     37 H    ALA E 805      -8.261  24.551  39.375  1.00 67.46 LIG 0.16  HD
ATOM     38 O    ILE E 804      -9.720  26.647  37.733  1.00 65.35 LIG-0.27  OA
BRANCH 36 39
ATOM     39  CA  ALA E 805      -8.867  26.183  40.319  1.00 69.21 LIG 0.16  C 
ATOM     40  CB  ALA E 805     -10.356  26.493  40.497  1.00 68.65 LIG 0.04  C 
BRANCH 39 41
ATOM     41  C   ALA E 805      -8.299  25.592  41.609  1.00 70.07 LIG 0.22  C 
ATOM     42 O    ALA E 805      -7.216  26.060  42.029  1.00 70.08 LIG-0.29  OA
ENDBRANCH 39 41
ENDBRANCH 36 39
ENDBRANCH 30 35
ENDBRANCH 28 30
ENDBRANCH 24 26
ENDBRANCH 3 24
TORSDOF 17
ENDMDL
MODEL 10
USER: ADFR SOLUTION from run 81
USER: SCORE 11.996889 LL:  -2.433 LR: -11.684 RR:   0.000 FEB:  -6.613
USER: RMSD 7.109916
USER: SEED 80
USER: STATUS no improvement in best 12 clusters for 5 generations
USER: GENES 19
USER: genes 0 Translation |==|  0.54336 0.60170 0.47881
USER: genes 1 Rotation |==|  0.63596 0.46054 0.30270 0.93707
USER: genes 2 Torsion [N]-C--CA-[N] |==|  0.59667
USER: genes 3 Torsion [C]-CA--CB-[CG] |==|  0.31655
USER: genes 4 Torsion [CA]-CB--CG-[CD] |==|  0.75488
USER: genes 5 Torsion [CB]-CG--CD-[CE] |==|  0.73946
USER: genes 6 Torsion [CG]-CD--CE-[NZ] |==|  0.62640
USER: genes 7 Torsion [CD]-CE--NZ-[HZ2] |==|  0.64976
USER: genes 8 Torsion [C]-CA--N-[C] |==|  0.77778
USER: genes 9 Torsion [N]-C--CA-[N] |==|  0.54995
USER: genes 10 Torsion [C]-CA--N-[H1] |==|  0.02438
USER: genes 11 Torsion [C]-N--CA-[CB] |==|  0.82505
USER: genes 12 Torsion [N]-CA--C-[N] |==|  0.43314
USER: genes 13 Torsion [C]-N--CA-[CB] |==|  0.24616
USER: genes 14 Torsion [N]-CA--CB-[CG1] |==|  0.33930
USER: genes 15 Torsion [CA]-CB--CG1-[CD1] |==|  0.59838
USER: genes 16 Torsion [N]-CA--C-[N] |==|  0.38945
USER: genes 17 Torsion [C]-N--CA-[CB] |==|  0.15557
USER: genes 18 Torsion [N]-CA--C-[O] |==|  0.96342
ROOT
ATOM      1  C   LYS E 802     -11.539  24.611  33.844  1.00 51.37 LIG 0.24  C 
ATOM      2 O    LYS E 802     -11.148  25.680  33.387  1.00 54.76 LIG-0.27  OA
ATOM      3  N   ALA E 803     -12.737  24.097  33.570  1.00 53.01 LIG-0.35  N 
ATOM      4 H    ALA E 803     -12.981  23.317  33.836  1.00 53.01 LIG 0.16  HD
ENDROOT
BRANCH 1 5
ATOM      5  CA  LYS E 802     -10.651  23.792  34.787  1.00 50.80 LIG 0.18  C 
BRANCH 5 6
ATOM      6  CB  LYS E 802     -11.572  22.863  35.580  1.00 49.65 LIG 0.04  C 
BRANCH 6 7
ATOM      7  CG  LYS E 802     -11.394  21.401  35.302  1.00 48.72 LIG 0.00  C 
BRANCH 7 8
ATOM      8  CD  LYS E 802     -12.271  20.986  34.143  1.00 52.85 LIG 0.03  C 
BRANCH 8 9
ATOM      9  CE  LYS E 802     -13.596  20.453  34.631  1.00 52.25 LIG 0.23  C 
BRANCH 9 10
ATOM     10  NZ  LYS E 802     -13.965  19.200  33.927  1.00 53.26 LIG-0.08  N 
ATOM     11 HZ1  LYS E 802     -13.964  18.523  34.505  1.00 53.26 LIG 0.27  HD
ATOM     12 HZ2  LYS E 802     -14.777  19.286  33.574  1.00 53.26 LIG 0.27  HD
ATOM     13 HZ3  LYS E 802     -13.375  19.038  33.281  1.00 53.26 LIG 0.27  HD
ENDBRANCH 9 10
ENDBRANCH 8 9
ENDBRANCH 7 8
ENDBRANCH 6 7
ENDBRANCH 5 6
BRANCH 5 14
ATOM     14  N   LYS E 802      -9.757  24.462  35.733  1.00 51.06 LIG-0.35  N 
ATOM     15 H    LYS E 802     -10.044  24.513  36.542  1.00 51.06 LIG 0.16  HD
ATOM     16  C   ALA E 801      -8.585  24.940  35.297  1.00 50.59 LIG 0.25  C 
ATOM     17 O    ALA E 801      -8.249  24.893  34.113  1.00 51.18 LIG-0.27  OA
BRANCH 16 18
ATOM     18  CA  ALA E 801      -7.656  25.595  36.311  1.00 50.00 LIG 0.27  C 
ATOM     19  CB  ALA E 801      -8.475  26.459  37.286  1.00 45.45 LIG 0.05  C 
BRANCH 18 20
ATOM     20  N   ALA E 801      -6.639  26.432  35.629  1.00 50.21 LIG-0.07  N 
ATOM     21 H3   ALA E 801      -5.837  26.058  35.720  1.00 50.21 LIG 0.28  HD
ATOM     22 H2   ALA E 801      -6.630  27.245  35.992  1.00 50.21 LIG 0.28  HD
ATOM     23 H1   ALA E 801      -6.839  26.496  34.764  1.00 50.21 LIG 0.28  HD
ENDBRANCH 18 20
ENDBRANCH 16 18
ENDBRANCH 5 14
ENDBRANCH 1 5
BRANCH 3 24
ATOM     24  CA  ALA E 803     -13.768  24.797  32.788  1.00 57.29 LIG 0.17  C 
ATOM     25  CB  ALA E 803     -14.176  26.064  33.545  1.00 55.60 LIG 0.04  C 
BRANCH 24 26
ATOM     26  C   ALA E 803     -13.679  25.145  31.302  1.00 59.81 LIG 0.24  C 
ATOM     27 O    ALA E 803     -12.608  25.312  30.724  1.00 62.26 LIG-0.27  OA
ATOM     28  N   ILE E 804     -14.873  25.298  30.731  1.00 62.20 LIG-0.35  N 
ATOM     29 H    ILE E 804     -15.600  25.174  31.173  1.00 62.20 LIG 0.16  HD
BRANCH 28 30
ATOM     30  CA  ILE E 804     -15.132  25.678  29.342  1.00 63.57 LIG 0.18  C 
BRANCH 30 31
ATOM     31  CB  ILE E 804     -15.200  24.463  28.388  1.00 63.71 LIG 0.01  C 
ATOM     32  CG2 ILE E 804     -14.999  23.174  29.172  1.00 63.48 LIG 0.01  C 
BRANCH 31 33
ATOM     33  CG1 ILE E 804     -16.547  24.421  27.670  1.00 63.94 LIG 0.00  C 
ATOM     34  CD1 ILE E 804     -17.060  23.036  27.436  1.00 63.94 LIG 0.01  C 
ENDBRANCH 31 33
ENDBRANCH 30 31
BRANCH 30 35
ATOM     35  C   ILE E 804     -16.526  26.306  29.404  1.00 65.71 LIG 0.24  C 
ATOM     36  N   ALA E 805     -16.738  27.389  28.660  1.00 67.46 LIG-0.35  N 
ATOM     37 H    ALA E 805     -16.145  27.749  28.151  1.00 67.46 LIG 0.16  HD
ATOM     38 O    ILE E 804     -17.397  25.817  30.132  1.00 65.35 LIG-0.27  OA
BRANCH 36 39
ATOM     39  CA  ALA E 805     -18.034  28.063  28.654  1.00 69.21 LIG 0.16  C 
ATOM     40  CB  ALA E 805     -18.427  28.456  30.081  1.00 68.65 LIG 0.04  C 
BRANCH 39 41
ATOM     41  C   ALA E 805     -18.020  29.299  27.756  1.00 70.07 LIG 0.22  C 
ATOM     42 O    ALA E 805     -16.905  29.717  27.367  1.00 70.08 LIG-0.29  OA
ENDBRANCH 39 41
ENDBRANCH 36 39
ENDBRANCH 30 35
ENDBRANCH 28 30
ENDBRANCH 24 26
ENDBRANCH 3 24
TORSDOF 17
ENDMDL
MODEL 11
USER: ADFR SOLUTION from run 18
USER: SCORE 12.270152 LL:  -2.491 LR: -11.679 RR:   0.000 FEB:  -6.608
USER: RMSD 9.738026
USER: SEED 17
USER: STATUS no improvement in best 18 clusters for 5 generations
USER: GENES 19
USER: genes 0 Translation |==|  0.51792 0.50356 0.49406
USER: genes 1 Rotation |==|  0.77615 0.33935 0.11917 0.55385
USER: genes 2 Torsion [N]-C--CA-[N] |==|  0.34688
USER: genes 3 Torsion [C]-CA--CB-[CG] |==|  0.04410
USER: genes 4 Torsion [CA]-CB--CG-[CD] |==|  0.24858
USER: genes 5 Torsion [CB]-CG--CD-[CE] |==|  0.56000
USER: genes 6 Torsion [CG]-CD--CE-[NZ] |==|  0.00674
USER: genes 7 Torsion [CD]-CE--NZ-[HZ2] |==|  0.44319
USER: genes 8 Torsion [C]-CA--N-[C] |==|  0.76670
USER: genes 9 Torsion [N]-C--CA-[N] |==|  0.95133
USER: genes 10 Torsion [C]-CA--N-[H1] |==|  0.46597
USER: genes 11 Torsion [C]-N--CA-[CB] |==|  0.62041
USER: genes 12 Torsion [N]-CA--C-[N] |==|  0.60853
USER: genes 13 Torsion [C]-N--CA-[CB] |==|  0.27762
USER: genes 14 Torsion [N]-CA--CB-[CG1] |==|  0.37767
USER: genes 15 Torsion [CA]-CB--CG1-[CD1] |==|  0.35655
USER: genes 16 Torsion [N]-CA--C-[N] |==|  0.41838
USER: genes 17 Torsion [C]-N--CA-[CB] |==|  0.20987
USER: genes 18 Torsion [N]-CA--C-[O] |==|  0.10105
ROOT
ATOM      1  C   LYS E 802     -12.302  21.667  34.302  1.00 51.37 LIG 0.24  C 
ATOM      2 O    LYS E 802     -11.359  21.110  34.854  1.00 54.76 LIG-0.27  OA
ATOM      3  N   ALA E 803     -12.290  22.955  33.964  1.00 53.01 LIG-0.35  N 
ATOM      4 H    ALA E 803     -12.924  23.325  33.516  1.00 53.01 LIG 0.16  HD
ENDROOT
BRANCH 1 5
ATOM      5  CA  LYS E 802     -13.582  20.891  33.969  1.00 50.80 LIG 0.18  C 
BRANCH 5 6
ATOM      6  CB  LYS E 802     -14.260  20.550  35.297  1.00 49.65 LIG 0.04  C 
BRANCH 6 7
ATOM      7  CG  LYS E 802     -13.768  21.330  36.480  1.00 48.72 LIG 0.00  C 
BRANCH 7 8
ATOM      8  CD  LYS E 802     -14.574  22.599  36.633  1.00 52.85 LIG 0.03  C 
BRANCH 8 9
ATOM      9  CE  LYS E 802     -13.815  23.629  37.434  1.00 52.25 LIG 0.23  C 
BRANCH 9 10
ATOM     10  NZ  LYS E 802     -12.465  23.136  37.802  1.00 53.26 LIG-0.08  N 
ATOM     11 HZ1  LYS E 802     -12.116  22.686  37.118  1.00 53.26 LIG 0.27  HD
ATOM     12 HZ2  LYS E 802     -11.940  23.827  38.000  1.00 53.26 LIG 0.27  HD
ATOM     13 HZ3  LYS E 802     -12.528  22.599  38.509  1.00 53.26 LIG 0.27  HD
ENDBRANCH 9 10
ENDBRANCH 8 9
ENDBRANCH 7 8
ENDBRANCH 6 7
ENDBRANCH 5 6
BRANCH 5 14
ATOM     14  N   LYS E 802     -13.521  19.671  33.162  1.00 51.06 LIG-0.35  N 
ATOM     15 H    LYS E 802     -13.499  18.935  33.605  1.00 51.06 LIG 0.16  HD
ATOM     16  C   ALA E 801     -13.504  19.771  31.828  1.00 50.59 LIG 0.25  C 
ATOM     17 O    ALA E 801     -13.477  20.856  31.244  1.00 51.18 LIG-0.27  OA
BRANCH 16 18
ATOM     18  CA  ALA E 801     -13.483  18.484  31.013  1.00 50.00 LIG 0.27  C 
ATOM     19  CB  ALA E 801     -14.878  18.220  30.420  1.00 45.45 LIG 0.05  C 
BRANCH 18 20
ATOM     20  N   ALA E 801     -13.068  17.335  31.855  1.00 50.21 LIG-0.07  N 
ATOM     21 H3   ALA E 801     -13.527  17.345  32.617  1.00 50.21 LIG 0.28  HD
ATOM     22 H2   ALA E 801     -12.198  17.396  32.032  1.00 50.21 LIG 0.28  HD
ATOM     23 H1   ALA E 801     -13.230  16.575  31.421  1.00 50.21 LIG 0.28  HD
ENDBRANCH 18 20
ENDBRANCH 16 18
ENDBRANCH 5 14
ENDBRANCH 1 5
BRANCH 3 24
ATOM     24  CA  ALA E 803     -11.203  23.882  34.314  1.00 57.29 LIG 0.17  C 
ATOM     25  CB  ALA E 803     -11.821  25.200  34.789  1.00 55.60 LIG 0.04  C 
BRANCH 24 26
ATOM     26  C   ALA E 803     -10.016  23.565  35.223  1.00 59.81 LIG 0.24  C 
ATOM     27 O    ALA E 803      -9.472  22.463  35.241  1.00 62.26 LIG-0.27  OA
ATOM     28  N   ILE E 804      -9.681  24.581  36.016  1.00 62.20 LIG-0.35  N 
ATOM     29 H    ILE E 804     -10.090  25.336  35.974  1.00 62.20 LIG 0.16  HD
BRANCH 28 30
ATOM     30  CA  ILE E 804      -8.626  24.585  37.031  1.00 63.57 LIG 0.18  C 
BRANCH 30 31
ATOM     31  CB  ILE E 804      -7.325  25.264  36.544  1.00 63.71 LIG 0.01  C 
ATOM     32  CG2 ILE E 804      -7.599  26.068  35.281  1.00 63.48 LIG 0.01  C 
BRANCH 31 33
ATOM     33  CG1 ILE E 804      -6.766  26.185  37.627  1.00 63.94 LIG 0.00  C 
ATOM     34  CD1 ILE E 804      -5.325  25.938  37.938  1.00 63.94 LIG 0.01  C 
ENDBRANCH 31 33
ENDBRANCH 30 31
BRANCH 30 35
ATOM     35  C   ILE E 804      -9.217  25.446  38.149  1.00 65.71 LIG 0.24  C 
ATOM     36  N   ALA E 805      -8.826  25.179  39.392  1.00 67.46 LIG-0.35  N 
ATOM     37 H    ALA E 805      -8.265  24.560  39.600  1.00 67.46 LIG 0.16  HD
ATOM     38 O    ILE E 804     -10.033  26.336  37.884  1.00 65.35 LIG-0.27  OA
BRANCH 36 39
ATOM     39  CA  ALA E 805      -9.337  25.943  40.529  1.00 69.21 LIG 0.16  C 
ATOM     40  CB  ALA E 805     -10.770  25.509  40.850  1.00 68.65 LIG 0.04  C 
BRANCH 39 41
ATOM     41  C   ALA E 805      -8.450  25.774  41.762  1.00 70.07 LIG 0.22  C 
ATOM     42 O    ALA E 805      -7.215  25.688  41.577  1.00 70.08 LIG-0.29  OA
ENDBRANCH 39 41
ENDBRANCH 36 39
ENDBRANCH 30 35
ENDBRANCH 28 30
ENDBRANCH 24 26
ENDBRANCH 3 24
TORSDOF 17
ENDMDL
MODEL 12
USER: ADFR SOLUTION from run 71
USER: SCORE 12.361789 LL:  -2.649 LR: -11.648 RR:   0.000 FEB:  -6.577
USER: RMSD 9.499425
USER: SEED 70
USER: STATUS no improvement in best 17 clusters for 5 generations
USER: GENES 19
USER: genes 0 Translation |==|  0.39176 0.54158 0.31779
USER: genes 1 Rotation |==|  0.19751 0.68917 0.78867 0.69846
USER: genes 2 Torsion [N]-C--CA-[N] |==|  0.97087
USER: genes 3 Torsion [C]-CA--CB-[CG] |==|  0.25647
USER: genes 4 Torsion [CA]-CB--CG-[CD] |==|  0.04222
USER: genes 5 Torsion [CB]-CG--CD-[CE] |==|  0.36069
USER: genes 6 Torsion [CG]-CD--CE-[NZ] |==|  0.85229
USER: genes 7 Torsion [CD]-CE--NZ-[HZ2] |==|  0.83432
USER: genes 8 Torsion [C]-CA--N-[C] |==|  0.79597
USER: genes 9 Torsion [N]-C--CA-[N] |==|  0.31075
USER: genes 10 Torsion [C]-CA--N-[H1] |==|  0.71955
USER: genes 11 Torsion [C]-N--CA-[CB] |==|  0.53889
USER: genes 12 Torsion [N]-CA--C-[N] |==|  0.40792
USER: genes 13 Torsion [C]-N--CA-[CB] |==|  0.30243
USER: genes 14 Torsion [N]-CA--CB-[CG1] |==|  0.96804
USER: genes 15 Torsion [CA]-CB--CG1-[CD1] |==|  0.27120
USER: genes 16 Torsion [N]-CA--C-[N] |==|  0.08913
USER: genes 17 Torsion [C]-N--CA-[CB] |==|  0.13003
USER: genes 18 Torsion [N]-CA--C-[O] |==|  0.04811
ROOT
ATOM      1  C   LYS E 802     -16.087  22.807  29.014  1.00 51.37 LIG 0.24  C 
ATOM      2 O    LYS E 802     -16.262  21.690  29.489  1.00 54.76 LIG-0.27  OA
ATOM      3  N   ALA E 803     -15.168  23.656  29.470  1.00 53.01 LIG-0.35  N 
ATOM      4 H    ALA E 803     -15.001  24.410  29.092  1.00 53.01 LIG 0.16  HD
ENDROOT
BRANCH 1 5
ATOM      5  CA  LYS E 802     -16.945  23.303  27.843  1.00 50.80 LIG 0.18  C 
BRANCH 5 6
ATOM      6  CB  LYS E 802     -16.590  22.441  26.630  1.00 49.65 LIG 0.04  C 
BRANCH 6 7
ATOM      7  CG  LYS E 802     -17.453  21.230  26.436  1.00 48.72 LIG 0.00  C 
BRANCH 7 8
ATOM      8  CD  LYS E 802     -18.704  21.348  27.277  1.00 52.85 LIG 0.03  C 
BRANCH 8 9
ATOM      9  CE  LYS E 802     -19.938  21.080  26.450  1.00 52.25 LIG 0.23  C 
BRANCH 9 10
ATOM     10  NZ  LYS E 802     -19.970  21.935  25.238  1.00 53.26 LIG-0.08  N 
ATOM     11 HZ1  LYS E 802     -20.708  21.763  24.772  1.00 53.26 LIG 0.27  HD
ATOM     12 HZ2  LYS E 802     -19.965  22.792  25.478  1.00 53.26 LIG 0.27  HD
ATOM     13 HZ3  LYS E 802     -19.256  21.764  24.736  1.00 53.26 LIG 0.27  HD
ENDBRANCH 9 10
ENDBRANCH 8 9
ENDBRANCH 7 8
ENDBRANCH 6 7
ENDBRANCH 5 6
BRANCH 5 14
ATOM     14  N   LYS E 802     -16.900  24.707  27.433  1.00 51.06 LIG-0.35  N 
ATOM     15 H    LYS E 802     -16.482  24.865  26.699  1.00 51.06 LIG 0.16  HD
ATOM     16  C   ALA E 801     -17.491  25.630  28.200  1.00 50.59 LIG 0.25  C 
ATOM     17 O    ALA E 801     -18.025  25.355  29.276  1.00 51.18 LIG-0.27  OA
BRANCH 16 18
ATOM     18  CA  ALA E 801     -17.465  27.078  27.728  1.00 50.00 LIG 0.27  C 
ATOM     19  CB  ALA E 801     -16.898  27.979  28.838  1.00 45.45 LIG 0.05  C 
BRANCH 18 20
ATOM     20  N   ALA E 801     -18.827  27.534  27.355  1.00 50.21 LIG-0.07  N 
ATOM     21 H3   ALA E 801     -18.952  28.366  27.647  1.00 50.21 LIG 0.28  HD
ATOM     22 H2   ALA E 801     -19.432  26.997  27.726  1.00 50.21 LIG 0.28  HD
ATOM     23 H1   ALA E 801     -18.915  27.515  26.470  1.00 50.21 LIG 0.28  HD
ENDBRANCH 18 20
ENDBRANCH 16 18
ENDBRANCH 5 14
ENDBRANCH 1 5
BRANCH 3 24
ATOM     24  CA  ALA E 803     -14.341  23.404  30.660  1.00 57.29 LIG 0.17  C 
ATOM     25  CB  ALA E 803     -13.670  24.717  31.073  1.00 55.60 LIG 0.04  C 
BRANCH 24 26
ATOM     26  C   ALA E 803     -14.799  22.690  31.931  1.00 59.81 LIG 0.24  C 
ATOM     27 O    ALA E 803     -15.937  22.804  32.381  1.00 62.26 LIG-0.27  OA
ATOM     28  N   ILE E 804     -13.828  21.989  32.514  1.00 62.20 LIG-0.35  N 
ATOM     29 H    ILE E 804     -13.043  21.937  32.167  1.00 62.20 LIG 0.16  HD
BRANCH 28 30
ATOM     30  CA  ILE E 804     -13.927  21.235  33.764  1.00 63.57 LIG 0.18  C 
BRANCH 30 31
ATOM     31  CB  ILE E 804     -13.902  19.704  33.548  1.00 63.71 LIG 0.01  C 
ATOM     32  CG2 ILE E 804     -15.020  19.048  34.347  1.00 63.48 LIG 0.01  C 
BRANCH 31 33
ATOM     33  CG1 ILE E 804     -14.066  19.371  32.067  1.00 63.94 LIG 0.00  C 
ATOM     34  CD1 ILE E 804     -12.773  19.106  31.365  1.00 63.94 LIG 0.01  C 
ENDBRANCH 31 33
ENDBRANCH 30 31
BRANCH 30 35
ATOM     35  C   ILE E 804     -12.649  21.625  34.511  1.00 65.71 LIG 0.24  C 
ATOM     36  N   ALA E 805     -12.178  22.852  34.310  1.00 67.46 LIG-0.35  N 
ATOM     37 H    ALA E 805     -12.547  23.432  33.793  1.00 67.46 LIG 0.16  HD
ATOM     38 O    ILE E 804     -12.090  20.810  35.254  1.00 65.35 LIG-0.27  OA
BRANCH 36 39
ATOM     39  CA  ALA E 805     -10.962  23.317  34.975  1.00 69.21 LIG 0.16  C 
ATOM     40  CB  ALA E 805      -9.862  22.259  34.855  1.00 68.65 LIG 0.04  C 
BRANCH 39 41
ATOM     41  C   ALA E 805     -10.477  24.644  34.393  1.00 70.07 LIG 0.22  C 
ATOM     42 O    ALA E 805     -11.293  25.310  33.716  1.00 70.08 LIG-0.29  OA
ENDBRANCH 39 41
ENDBRANCH 36 39
ENDBRANCH 30 35
ENDBRANCH 28 30
ENDBRANCH 24 26
ENDBRANCH 3 24
TORSDOF 17
ENDMDL
MODEL 13
USER: ADFR SOLUTION from run 145
USER: SCORE 12.720903 LL:  -2.268 LR: -11.639 RR:   0.000 FEB:  -6.568
USER: RMSD 10.357739
USER: SEED 144
USER: STATUS no improvement in best 16 clusters for 5 generations
USER: GENES 19
USER: genes 0 Translation |==|  0.41377 0.56028 0.34761
USER: genes 1 Rotation |==|  0.15150 0.80969 0.60112 0.64971
USER: genes 2 Torsion [N]-C--CA-[N] |==|  0.46123
USER: genes 3 Torsion [C]-CA--CB-[CG] |==|  0.87851
USER: genes 4 Torsion [CA]-CB--CG-[CD] |==|  0.38094
USER: genes 5 Torsion [CB]-CG--CD-[CE] |==|  0.34326
USER: genes 6 Torsion [CG]-CD--CE-[NZ] |==|  0.90444
USER: genes 7 Torsion [CD]-CE--NZ-[HZ2] |==|  0.88883
USER: genes 8 Torsion [C]-CA--N-[C] |==|  0.54132
USER: genes 9 Torsion [N]-C--CA-[N] |==|  0.35539
USER: genes 10 Torsion [C]-CA--N-[H1] |==|  0.55909
USER: genes 11 Torsion [C]-N--CA-[CB] |==|  0.80817
USER: genes 12 Torsion [N]-CA--C-[N] |==|  0.42778
USER: genes 13 Torsion [C]-N--CA-[CB] |==|  0.17062
USER: genes 14 Torsion [N]-CA--CB-[CG1] |==|  0.63986
USER: genes 15 Torsion [CA]-CB--CG1-[CD1] |==|  0.01745
USER: genes 16 Torsion [N]-CA--C-[N] |==|  0.47497
USER: genes 17 Torsion [C]-N--CA-[CB] |==|  0.40290
USER: genes 18 Torsion [N]-CA--C-[O] |==|  0.85760
ROOT
ATOM      1  C   LYS E 802     -15.427  23.368  29.908  1.00 51.37 LIG 0.24  C 
ATOM      2 O    LYS E 802     -16.162  23.052  30.839  1.00 54.76 LIG-0.27  OA
ATOM      3  N   ALA E 803     -14.272  24.008  30.079  1.00 53.01 LIG-0.35  N 
ATOM      4 H    ALA E 803     -13.727  24.167  29.433  1.00 53.01 LIG 0.16  HD
ENDROOT
BRANCH 1 5
ATOM      5  CA  LYS E 802     -15.813  23.042  28.461  1.00 50.80 LIG 0.18  C 
BRANCH 5 6
ATOM      6  CB  LYS E 802     -16.158  24.366  27.778  1.00 49.65 LIG 0.04  C 
BRANCH 6 7
ATOM      7  CG  LYS E 802     -17.008  25.298  28.591  1.00 48.72 LIG 0.00  C 
BRANCH 7 8
ATOM      8  CD  LYS E 802     -16.487  26.711  28.466  1.00 52.85 LIG 0.03  C 
BRANCH 8 9
ATOM      9  CE  LYS E 802     -17.565  27.642  27.965  1.00 52.25 LIG 0.23  C 
BRANCH 9 10
ATOM     10  NZ  LYS E 802     -18.465  26.956  27.005  1.00 53.26 LIG-0.08  N 
ATOM     11 HZ1  LYS E 802     -18.892  27.562  26.514  1.00 53.26 LIG 0.27  HD
ATOM     12 HZ2  LYS E 802     -17.985  26.429  26.473  1.00 53.26 LIG 0.27  HD
ATOM     13 HZ3  LYS E 802     -19.058  26.466  27.453  1.00 53.26 LIG 0.27  HD
ENDBRANCH 9 10
ENDBRANCH 8 9
ENDBRANCH 7 8
ENDBRANCH 6 7
ENDBRANCH 5 6
BRANCH 5 14
ATOM     14  N   LYS E 802     -16.887  22.090  28.177  1.00 51.06 LIG-0.35  N 
ATOM     15 H    LYS E 802     -17.396  21.895  28.842  1.00 51.06 LIG 0.16  HD
ATOM     16  C   ALA E 801     -17.010  21.593  26.940  1.00 50.59 LIG 0.25  C 
ATOM     17 O    ALA E 801     -16.215  21.860  26.037  1.00 51.18 LIG-0.27  OA
BRANCH 16 18
ATOM     18  CA  ALA E 801     -18.162  20.637  26.662  1.00 50.00 LIG 0.27  C 
ATOM     19  CB  ALA E 801     -17.617  19.218  26.427  1.00 45.45 LIG 0.05  C 
BRANCH 18 20
ATOM     20  N   ALA E 801     -18.940  21.080  25.479  1.00 50.21 LIG-0.07  N 
ATOM     21 H3   ALA E 801     -18.526  20.819  24.736  1.00 50.21 LIG 0.28  HD
ATOM     22 H2   ALA E 801     -19.008  21.968  25.483  1.00 50.21 LIG 0.28  HD
ATOM     23 H1   ALA E 801     -19.754  20.721  25.507  1.00 50.21 LIG 0.28  HD
ENDBRANCH 18 20
ENDBRANCH 16 18
ENDBRANCH 5 14
ENDBRANCH 1 5
BRANCH 3 24
ATOM     24  CA  ALA E 803     -13.799  24.511  31.378  1.00 57.29 LIG 0.17  C 
ATOM     25  CB  ALA E 803     -14.693  25.679  31.803  1.00 55.60 LIG 0.04  C 
BRANCH 24 26
ATOM     26  C   ALA E 803     -13.517  23.660  32.617  1.00 59.81 LIG 0.24  C 
ATOM     27 O    ALA E 803     -14.104  22.604  32.841  1.00 62.26 LIG-0.27  OA
ATOM     28  N   ILE E 804     -12.623  24.211  33.435  1.00 62.20 LIG-0.35  N 
ATOM     29 H    ILE E 804     -12.237  24.955  33.241  1.00 62.20 LIG 0.16  HD
BRANCH 28 30
ATOM     30  CA  ILE E 804     -12.172  23.678  34.721  1.00 63.57 LIG 0.18  C 
BRANCH 30 31
ATOM     31  CB  ILE E 804     -11.486  22.298  34.593  1.00 63.71 LIG 0.01  C 
ATOM     32  CG2 ILE E 804      -9.992  22.434  34.849  1.00 63.48 LIG 0.01  C 
BRANCH 31 33
ATOM     33  CG1 ILE E 804     -12.089  21.307  35.587  1.00 63.94 LIG 0.00  C 
ATOM     34  CD1 ILE E 804     -13.273  21.843  36.326  1.00 63.94 LIG 0.01  C 
ENDBRANCH 31 33
ENDBRANCH 30 31
BRANCH 30 35
ATOM     35  C   ILE E 804     -11.115  24.689  35.170  1.00 65.71 LIG 0.24  C 
ATOM     36  N   ALA E 805     -10.647  24.568  36.410  1.00 67.46 LIG-0.35  N 
ATOM     37 H    ALA E 805     -10.900  23.961  36.964  1.00 67.46 LIG 0.16  HD
ATOM     38 O    ILE E 804     -10.738  25.579  34.399  1.00 65.35 LIG-0.27  OA
BRANCH 36 39
ATOM     39  CA  ALA E 805      -9.639  25.488  36.933  1.00 69.21 LIG 0.16  C 
ATOM     40  CB  ALA E 805      -9.882  25.741  38.423  1.00 68.65 LIG 0.04  C 
BRANCH 39 41
ATOM     41  C   ALA E 805      -8.225  24.952  36.718  1.00 70.07 LIG 0.22  C 
ATOM     42 O    ALA E 805      -7.986  23.783  37.099  1.00 70.08 LIG-0.29  OA
ENDBRANCH 39 41
ENDBRANCH 36 39
ENDBRANCH 30 35
ENDBRANCH 28 30
ENDBRANCH 24 26
ENDBRANCH 3 24
TORSDOF 17
ENDMDL
MODEL 14
USER: ADFR SOLUTION from run 123
USER: SCORE 12.379187 LL:  -2.387 LR: -11.623 RR:   0.000 FEB:  -6.552
USER: RMSD 10.821451
USER: SEED 122
USER: STATUS no improvement in best 13 clusters for 5 generations
USER: GENES 19
USER: genes 0 Translation |==|  0.38924 0.77858 0.32905
USER: genes 1 Rotation |==|  0.71955 0.81751 0.74903 0.69741
USER: genes 2 Torsion [N]-C--CA-[N] |==|  0.12522
USER: genes 3 Torsion [C]-CA--CB-[CG] |==|  0.58885
USER: genes 4 Torsion [CA]-CB--CG-[CD] |==|  0.45447
USER: genes 5 Torsion [CB]-CG--CD-[CE] |==|  0.77739
USER: genes 6 Torsion [CG]-CD--CE-[NZ] |==|  0.92861
USER: genes 7 Torsion [CD]-CE--NZ-[HZ2] |==|  0.14793
USER: genes 8 Torsion [C]-CA--N-[C] |==|  0.63757
USER: genes 9 Torsion [N]-C--CA-[N] |==|  0.76878
USER: genes 10 Torsion [C]-CA--N-[H1] |==|  0.34829
USER: genes 11 Torsion [C]-N--CA-[CB] |==|  0.77196
USER: genes 12 Torsion [N]-CA--C-[N] |==|  0.57029
USER: genes 13 Torsion [C]-N--CA-[CB] |==|  0.54101
USER: genes 14 Torsion [N]-CA--CB-[CG1] |==|  0.90123
USER: genes 15 Torsion [CA]-CB--CG1-[CD1] |==|  0.28708
USER: genes 16 Torsion [N]-CA--C-[N] |==|  0.29102
USER: genes 17 Torsion [C]-N--CA-[CB] |==|  0.23807
USER: genes 18 Torsion [N]-CA--C-[O] |==|  0.99875
ROOT
ATOM      1  C   LYS E 802     -16.163  29.918  29.352  1.00 51.37 LIG 0.24  C 
ATOM      2 O    LYS E 802     -16.825  29.251  30.141  1.00 54.76 LIG-0.27  OA
ATOM      3  N   ALA E 803     -15.856  29.499  28.125  1.00 53.01 LIG-0.35  N 
ATOM      4 H    ALA E 803     -15.451  29.995  27.551  1.00 53.01 LIG 0.16  HD
ENDROOT
BRANCH 1 5
ATOM      5  CA  LYS E 802     -15.632  31.300  29.748  1.00 50.80 LIG 0.18  C 
BRANCH 5 6
ATOM      6  CB  LYS E 802     -16.323  31.688  31.057  1.00 49.65 LIG 0.04  C 
BRANCH 6 7
ATOM      7  CG  LYS E 802     -16.565  33.157  31.237  1.00 48.72 LIG 0.00  C 
BRANCH 7 8
ATOM      8  CD  LYS E 802     -17.583  33.382  32.332  1.00 52.85 LIG 0.03  C 
BRANCH 8 9
ATOM      9  CE  LYS E 802     -18.986  33.171  31.817  1.00 52.25 LIG 0.23  C 
BRANCH 9 10
ATOM     10  NZ  LYS E 802     -19.065  33.410  30.355  1.00 53.26 LIG-0.08  N 
ATOM     11 HZ1  LYS E 802     -18.915  34.271  30.187  1.00 53.26 LIG 0.27  HD
ATOM     12 HZ2  LYS E 802     -18.451  32.917  29.940  1.00 53.26 LIG 0.27  HD
ATOM     13 HZ3  LYS E 802     -19.874  33.186  30.061  1.00 53.26 LIG 0.27  HD
ENDBRANCH 9 10
ENDBRANCH 8 9
ENDBRANCH 7 8
ENDBRANCH 6 7
ENDBRANCH 5 6
BRANCH 5 14
ATOM     14  N   LYS E 802     -15.742  32.429  28.824  1.00 51.06 LIG-0.35  N 
ATOM     15 H    LYS E 802     -16.520  32.553  28.480  1.00 51.06 LIG 0.16  HD
ATOM     16  C   ALA E 801     -14.660  33.177  28.576  1.00 50.59 LIG 0.25  C 
ATOM     17 O    ALA E 801     -13.552  32.918  29.049  1.00 51.18 LIG-0.27  OA
BRANCH 16 18
ATOM     18  CA  ALA E 801     -14.812  34.371  27.642  1.00 50.00 LIG 0.27  C 
ATOM     19  CB  ALA E 801     -16.166  35.058  27.890  1.00 45.45 LIG 0.05  C 
BRANCH 18 20
ATOM     20  N   ALA E 801     -14.715  33.946  26.224  1.00 50.21 LIG-0.07  N 
ATOM     21 H3   ALA E 801     -14.664  33.059  26.183  1.00 50.21 LIG 0.28  HD
ATOM     22 H2   ALA E 801     -13.987  34.302  25.856  1.00 50.21 LIG 0.28  HD
ATOM     23 H1   ALA E 801     -15.436  34.222  25.781  1.00 50.21 LIG 0.28  HD
ENDBRANCH 18 20
ENDBRANCH 16 18
ENDBRANCH 5 14
ENDBRANCH 1 5
BRANCH 3 24
ATOM     24  CA  ALA E 803     -16.171  28.156  27.616  1.00 57.29 LIG 0.17  C 
ATOM     25  CB  ALA E 803     -15.091  27.185  28.104  1.00 55.60 LIG 0.04  C 
BRANCH 24 26
ATOM     26  C   ALA E 803     -17.522  27.451  27.731  1.00 59.81 LIG 0.24  C 
ATOM     27 O    ALA E 803     -18.577  28.063  27.890  1.00 62.26 LIG-0.27  OA
ATOM     28  N   ILE E 804     -17.423  26.123  27.696  1.00 62.20 LIG-0.35  N 
ATOM     29 H    ILE E 804     -16.664  25.734  27.586  1.00 62.20 LIG 0.16  HD
BRANCH 28 30
ATOM     30  CA  ILE E 804     -18.519  25.162  27.829  1.00 63.57 LIG 0.18  C 
BRANCH 30 31
ATOM     31  CB  ILE E 804     -18.027  23.722  28.105  1.00 63.71 LIG 0.01  C 
ATOM     32  CG2 ILE E 804     -19.087  22.719  27.672  1.00 63.48 LIG 0.01  C 
BRANCH 31 33
ATOM     33  CG1 ILE E 804     -16.726  23.449  27.355  1.00 63.94 LIG 0.00  C 
ATOM     34  CD1 ILE E 804     -15.512  23.486  28.227  1.00 63.94 LIG 0.01  C 
ENDBRANCH 31 33
ENDBRANCH 30 31
BRANCH 30 35
ATOM     35  C   ILE E 804     -19.265  25.651  29.072  1.00 65.71 LIG 0.24  C 
ATOM     36  N   ALA E 805     -20.420  26.282  28.879  1.00 67.46 LIG-0.35  N 
ATOM     37 H    ALA E 805     -20.767  26.427  28.105  1.00 67.46 LIG 0.16  HD
ATOM     38 O    ILE E 804     -18.787  25.467  30.197  1.00 65.35 LIG-0.27  OA
BRANCH 36 39
ATOM     39  CA  ALA E 805     -21.205  26.790  30.002  1.00 69.21 LIG 0.16  C 
ATOM     40  CB  ALA E 805     -20.715  28.186  30.395  1.00 68.65 LIG 0.04  C 
BRANCH 39 41
ATOM     41  C   ALA E 805     -22.696  26.832  29.672  1.00 70.07 LIG 0.22  C 
ATOM     42 O    ALA E 805     -23.045  26.454  28.530  1.00 70.08 LIG-0.29  OA
ENDBRANCH 39 41
ENDBRANCH 36 39
ENDBRANCH 30 35
ENDBRANCH 28 30
ENDBRANCH 24 26
ENDBRANCH 3 24
TORSDOF 17
ENDMDL
MODEL 15
USER: ADFR SOLUTION from run 92
USER: SCORE 12.314251 LL:  -2.427 LR: -11.559 RR:   0.000 FEB:  -6.488
USER: RMSD 8.878104
USER: SEED 91
USER: STATUS no improvement in best 4 clusters for 5 generations
USER: GENES 19
USER: genes 0 Translation |==|  0.45055 0.61800 0.38511
USER: genes 1 Rotation |==|  0.26150 0.32194 0.89871 0.54940
USER: genes 2 Torsion [N]-C--CA-[N] |==|  0.28105
USER: genes 3 Torsion [C]-CA--CB-[CG] |==|  0.66103
USER: genes 4 Torsion [CA]-CB--CG-[CD] |==|  0.76103
USER: genes 5 Torsion [CB]-CG--CD-[CE] |==|  0.78242
USER: genes 6 Torsion [CG]-CD--CE-[NZ] |==|  0.67026
USER: genes 7 Torsion [CD]-CE--NZ-[HZ2] |==|  0.43669
USER: genes 8 Torsion [C]-CA--N-[C] |==|  0.68333
USER: genes 9 Torsion [N]-C--CA-[N] |==|  0.31821
USER: genes 10 Torsion [C]-CA--N-[H1] |==|  0.30378
USER: genes 11 Torsion [C]-N--CA-[CB] |==|  0.59371
USER: genes 12 Torsion [N]-CA--C-[N] |==|  0.72642
USER: genes 13 Torsion [C]-N--CA-[CB] |==|  0.24179
USER: genes 14 Torsion [N]-CA--CB-[CG1] |==|  0.06699
USER: genes 15 Torsion [CA]-CB--CG1-[CD1] |==|  0.56111
USER: genes 16 Torsion [N]-CA--C-[N] |==|  0.95929
USER: genes 17 Torsion [C]-N--CA-[CB] |==|  0.43306
USER: genes 18 Torsion [N]-CA--C-[O] |==|  0.00952
ROOT
ATOM      1  C   LYS E 802     -14.324  25.100  31.033  1.00 51.37 LIG 0.24  C 
ATOM      2 O    LYS E 802     -13.162  24.891  30.699  1.00 54.76 LIG-0.27  OA
ATOM      3  N   ALA E 803     -14.662  25.576  32.230  1.00 53.01 LIG-0.35  N 
ATOM      4 H    ALA E 803     -15.469  25.786  32.437  1.00 53.01 LIG 0.16  HD
ENDROOT
BRANCH 1 5
ATOM      5  CA  LYS E 802     -15.479  24.810  30.069  1.00 50.80 LIG 0.18  C 
BRANCH 5 6
ATOM      6  CB  LYS E 802     -15.206  23.443  29.438  1.00 49.65 LIG 0.04  C 
BRANCH 6 7
ATOM      7  CG  LYS E 802     -15.117  23.440  27.941  1.00 48.72 LIG 0.00  C 
BRANCH 7 8
ATOM      8  CD  LYS E 802     -16.498  23.295  27.343  1.00 52.85 LIG 0.03  C 
BRANCH 8 9
ATOM      9  CE  LYS E 802     -16.965  21.861  27.402  1.00 52.25 LIG 0.23  C 
BRANCH 9 10
ATOM     10  NZ  LYS E 802     -17.209  21.317  26.044  1.00 53.26 LIG-0.08  N 
ATOM     11 HZ1  LYS E 802     -16.597  21.636  25.482  1.00 53.26 LIG 0.27  HD
ATOM     12 HZ2  LYS E 802     -17.156  20.429  26.065  1.00 53.26 LIG 0.27  HD
ATOM     13 HZ3  LYS E 802     -18.019  21.560  25.768  1.00 53.26 LIG 0.27  HD
ENDBRANCH 9 10
ENDBRANCH 8 9
ENDBRANCH 7 8
ENDBRANCH 6 7
ENDBRANCH 5 6
BRANCH 5 14
ATOM     14  N   LYS E 802     -15.803  25.750  28.995  1.00 51.06 LIG-0.35  N 
ATOM     15 H    LYS E 802     -15.203  25.837  28.385  1.00 51.06 LIG 0.16  HD
ATOM     16  C   ALA E 801     -16.973  26.399  29.026  1.00 50.59 LIG 0.25  C 
ATOM     17 O    ALA E 801     -17.771  26.283  29.957  1.00 51.18 LIG-0.27  OA
BRANCH 16 18
ATOM     18  CA  ALA E 801     -17.302  27.340  27.873  1.00 50.00 LIG 0.27  C 
ATOM     19  CB  ALA E 801     -17.604  28.746  28.419  1.00 45.45 LIG 0.05  C 
BRANCH 18 20
ATOM     20  N   ALA E 801     -18.464  26.839  27.100  1.00 50.21 LIG-0.07  N 
ATOM     21 H3   ALA E 801     -18.656  26.009  27.357  1.00 50.21 LIG 0.28  HD
ATOM     22 H2   ALA E 801     -18.268  26.841  26.232  1.00 50.21 LIG 0.28  HD
ATOM     23 H1   ALA E 801     -19.168  27.364  27.247  1.00 50.21 LIG 0.28  HD
ENDBRANCH 18 20
ENDBRANCH 16 18
ENDBRANCH 5 14
ENDBRANCH 1 5
BRANCH 3 24
ATOM     24  CA  ALA E 803     -13.703  25.795  33.324  1.00 57.29 LIG 0.17  C 
ATOM     25  CB  ALA E 803     -14.409  25.515  34.654  1.00 55.60 LIG 0.04  C 
BRANCH 24 26
ATOM     26  C   ALA E 803     -12.294  25.209  33.408  1.00 59.81 LIG 0.24  C 
ATOM     27 O    ALA E 803     -11.344  25.678  32.785  1.00 62.26 LIG-0.27  OA
ATOM     28  N   ILE E 804     -12.226  24.121  34.174  1.00 62.20 LIG-0.35  N 
ATOM     29 H    ILE E 804     -12.917  23.824  34.591  1.00 62.20 LIG 0.16  HD
BRANCH 28 30
ATOM     30  CA  ILE E 804     -11.040  23.301  34.420  1.00 63.57 LIG 0.18  C 
BRANCH 30 31
ATOM     31  CB  ILE E 804     -10.185  23.817  35.600  1.00 63.71 LIG 0.01  C 
ATOM     32  CG2 ILE E 804      -9.037  24.669  35.077  1.00 63.48 LIG 0.01  C 
BRANCH 31 33
ATOM     33  CG1 ILE E 804     -11.039  24.642  36.560  1.00 63.94 LIG 0.00  C 
ATOM     34  CD1 ILE E 804     -10.249  25.587  37.407  1.00 63.94 LIG 0.01  C 
ENDBRANCH 31 33
ENDBRANCH 30 31
BRANCH 30 35
ATOM     35  C   ILE E 804     -11.627  21.946  34.823  1.00 65.71 LIG 0.24  C 
ATOM     36  N   ALA E 805     -12.918  21.915  35.143  1.00 67.46 LIG-0.35  N 
ATOM     37 H    ALA E 805     -13.435  22.603  35.134  1.00 67.46 LIG 0.16  HD
ATOM     38 O    ILE E 804     -10.909  20.941  34.855  1.00 65.35 LIG-0.27  OA
BRANCH 36 39
ATOM     39  CA  ALA E 805     -13.571  20.670  35.544  1.00 69.21 LIG 0.16  C 
ATOM     40  CB  ALA E 805     -14.803  20.976  36.399  1.00 68.65 LIG 0.04  C 
BRANCH 39 41
ATOM     41  C   ALA E 805     -13.970  19.829  34.333  1.00 70.07 LIG 0.22  C 
ATOM     42 O    ALA E 805     -13.644  20.256  33.202  1.00 70.08 LIG-0.29  OA
ENDBRANCH 39 41
ENDBRANCH 36 39
ENDBRANCH 30 35
ENDBRANCH 28 30
ENDBRANCH 24 26
ENDBRANCH 3 24
TORSDOF 17
ENDMDL
MODEL 16
USER: ADFR SOLUTION from run 145
USER: SCORE 13.018484 LL:  -2.786 LR: -11.531 RR:   0.000 FEB:  -6.460
USER: RMSD 13.921829
USER: SEED 144
USER: STATUS no improvement in best 16 clusters for 5 generations
USER: GENES 19
USER: genes 0 Translation |==|  0.40684 0.83198 0.34271
USER: genes 1 Rotation |==|  0.71469 0.25664 0.12969 0.58692
USER: genes 2 Torsion [N]-C--CA-[N] |==|  0.35318
USER: genes 3 Torsion [C]-CA--CB-[CG] |==|  0.01629
USER: genes 4 Torsion [CA]-CB--CG-[CD] |==|  0.26929
USER: genes 5 Torsion [CB]-CG--CD-[CE] |==|  0.07190
USER: genes 6 Torsion [CG]-CD--CE-[NZ] |==|  0.74143
USER: genes 7 Torsion [CD]-CE--NZ-[HZ2] |==|  0.79328
USER: genes 8 Torsion [C]-CA--N-[C] |==|  0.78395
USER: genes 9 Torsion [N]-C--CA-[N] |==|  0.34799
USER: genes 10 Torsion [C]-CA--N-[H1] |==|  0.40552
USER: genes 11 Torsion [C]-N--CA-[CB] |==|  0.55220
USER: genes 12 Torsion [N]-CA--C-[N] |==|  0.27380
USER: genes 13 Torsion [C]-N--CA-[CB] |==|  0.89728
USER: genes 14 Torsion [N]-CA--CB-[CG1] |==|  0.73880
USER: genes 15 Torsion [CA]-CB--CG1-[CD1] |==|  0.81275
USER: genes 16 Torsion [N]-CA--C-[N] |==|  0.84293
USER: genes 17 Torsion [C]-N--CA-[CB] |==|  0.78546
USER: genes 18 Torsion [N]-CA--C-[O] |==|  0.69470
ROOT
ATOM      1  C   LYS E 802     -15.635  31.519  29.761  1.00 51.37 LIG 0.24  C 
ATOM      2 O    LYS E 802     -14.676  31.023  30.345  1.00 54.76 LIG-0.27  OA
ATOM      3  N   ALA E 803     -15.532  32.588  28.973  1.00 53.01 LIG-0.35  N 
ATOM      4 H    ALA E 803     -16.191  32.892  28.512  1.00 53.01 LIG 0.16  HD
ENDROOT
BRANCH 1 5
ATOM      5  CA  LYS E 802     -17.040  30.926  29.919  1.00 50.80 LIG 0.18  C 
BRANCH 5 6
ATOM      6  CB  LYS E 802     -17.504  31.242  31.342  1.00 49.65 LIG 0.04  C 
BRANCH 6 7
ATOM      7  CG  LYS E 802     -16.583  32.126  32.130  1.00 48.72 LIG 0.00  C 
BRANCH 7 8
ATOM      8  CD  LYS E 802     -17.058  33.559  32.058  1.00 52.85 LIG 0.03  C 
BRANCH 8 9
ATOM      9  CE  LYS E 802     -18.545  33.624  31.805  1.00 52.25 LIG 0.23  C 
BRANCH 9 10
ATOM     10  NZ  LYS E 802     -18.840  33.730  30.355  1.00 53.26 LIG-0.08  N 
ATOM     11 HZ1  LYS E 802     -19.701  33.559  30.214  1.00 53.26 LIG 0.27  HD
ATOM     12 HZ2  LYS E 802     -18.652  34.554  30.073  1.00 53.26 LIG 0.27  HD
ATOM     13 HZ3  LYS E 802     -18.343  33.143  29.907  1.00 53.26 LIG 0.27  HD
ENDBRANCH 9 10
ENDBRANCH 8 9
ENDBRANCH 7 8
ENDBRANCH 6 7
ENDBRANCH 5 6
BRANCH 5 14
ATOM     14  N   LYS E 802     -17.276  29.504  29.669  1.00 51.06 LIG-0.35  N 
ATOM     15 H    LYS E 802     -17.349  29.011  30.369  1.00 51.06 LIG 0.16  HD
ATOM     16  C   ALA E 801     -17.362  29.069  28.406  1.00 50.59 LIG 0.25  C 
ATOM     17 O    ALA E 801     -17.191  29.809  27.436  1.00 51.18 LIG-0.27  OA
BRANCH 16 18
ATOM     18  CA  ALA E 801     -17.651  27.591  28.175  1.00 50.00 LIG 0.27  C 
ATOM     19  CB  ALA E 801     -16.429  26.915  27.531  1.00 45.45 LIG 0.05  C 
BRANCH 18 20
ATOM     20  N   ALA E 801     -18.840  27.417  27.304  1.00 50.21 LIG-0.07  N 
ATOM     21 H3   ALA E 801     -18.937  28.135  26.788  1.00 50.21 LIG 0.28  HD
ATOM     22 H2   ALA E 801     -19.566  27.316  27.809  1.00 50.21 LIG 0.28  HD
ATOM     23 H1   ALA E 801     -18.731  26.697  26.793  1.00 50.21 LIG 0.28  HD
ENDBRANCH 18 20
ENDBRANCH 16 18
ENDBRANCH 5 14
ENDBRANCH 1 5
BRANCH 3 24
ATOM     24  CA  ALA E 803     -14.293  33.362  28.801  1.00 57.29 LIG 0.17  C 
ATOM     25  CB  ALA E 803     -14.654  34.736  28.230  1.00 55.60 LIG 0.04  C 
BRANCH 24 26
ATOM     26  C   ALA E 803     -13.211  33.563  29.862  1.00 59.81 LIG 0.24  C 
ATOM     27 O    ALA E 803     -13.283  34.436  30.723  1.00 62.26 LIG-0.27  OA
ATOM     28  N   ILE E 804     -12.177  32.736  29.714  1.00 62.20 LIG-0.35  N 
ATOM     29 H    ILE E 804     -12.165  32.140  29.095  1.00 62.20 LIG 0.16  HD
BRANCH 28 30
ATOM     30  CA  ILE E 804     -10.963  32.705  30.531  1.00 63.57 LIG 0.18  C 
BRANCH 30 31
ATOM     31  CB  ILE E 804     -10.491  34.112  30.963  1.00 63.71 LIG 0.01  C 
ATOM     32  CG2 ILE E 804      -9.890  34.054  32.360  1.00 63.48 LIG 0.01  C 
BRANCH 31 33
ATOM     33  CG1 ILE E 804      -9.454  34.653  29.981  1.00 63.94 LIG 0.00  C 
ATOM     34  CD1 ILE E 804      -8.161  33.903  30.000  1.00 63.94 LIG 0.01  C 
ENDBRANCH 31 33
ENDBRANCH 30 31
BRANCH 30 35
ATOM     35  C   ILE E 804     -11.404  31.950  31.787  1.00 65.71 LIG 0.24  C 
ATOM     36  N   ALA E 805     -12.440  32.444  32.459  1.00 67.46 LIG-0.35  N 
ATOM     37 H    ALA E 805     -12.872  33.151  32.230  1.00 67.46 LIG 0.16  HD
ATOM     38 O    ILE E 804     -10.797  30.936  32.149  1.00 65.35 LIG-0.27  OA
BRANCH 36 39
ATOM     39  CA  ALA E 805     -12.934  31.797  33.674  1.00 69.21 LIG 0.16  C 
ATOM     40  CB  ALA E 805     -13.759  30.560  33.311  1.00 68.65 LIG 0.04  C 
BRANCH 39 41
ATOM     41  C   ALA E 805     -11.789  31.408  34.607  1.00 70.07 LIG 0.22  C 
ATOM     42 O    ALA E 805     -11.540  30.188  34.737  1.00 70.08 LIG-0.29  OA
ENDBRANCH 39 41
ENDBRANCH 36 39
ENDBRANCH 30 35
ENDBRANCH 28 30
ENDBRANCH 24 26
ENDBRANCH 3 24
TORSDOF 17
ENDMDL
MODEL 17
USER: ADFR SOLUTION from run 38
USER: SCORE 12.652832 LL:  -2.700 LR: -11.489 RR:   0.000 FEB:  -6.418
USER: RMSD 8.425756
USER: SEED 37
USER: STATUS no improvement in best 8 clusters for 5 generations
USER: GENES 19
USER: genes 0 Translation |==|  0.42534 0.56308 0.31504
USER: genes 1 Rotation |==|  0.40054 0.07028 0.73192 0.54080
USER: genes 2 Torsion [N]-C--CA-[N] |==|  0.98490
USER: genes 3 Torsion [C]-CA--CB-[CG] |==|  0.28684
USER: genes 4 Torsion [CA]-CB--CG-[CD] |==|  0.60687
USER: genes 5 Torsion [CB]-CG--CD-[CE] |==|  0.77088
USER: genes 6 Torsion [CG]-CD--CE-[NZ] |==|  0.93842
USER: genes 7 Torsion [CD]-CE--NZ-[HZ2] |==|  0.19574
USER: genes 8 Torsion [C]-CA--N-[C] |==|  0.71079
USER: genes 9 Torsion [N]-C--CA-[N] |==|  0.41096
USER: genes 10 Torsion [C]-CA--N-[H1] |==|  0.10060
USER: genes 11 Torsion [C]-N--CA-[CB] |==|  0.21405
USER: genes 12 Torsion [N]-CA--C-[N] |==|  0.05894
USER: genes 13 Torsion [C]-N--CA-[CB] |==|  0.87171
USER: genes 14 Torsion [N]-CA--CB-[CG1] |==|  0.83982
USER: genes 15 Torsion [CA]-CB--CG1-[CD1] |==|  0.78635
USER: genes 16 Torsion [N]-CA--C-[N] |==|  0.76854
USER: genes 17 Torsion [C]-N--CA-[CB] |==|  0.27329
USER: genes 18 Torsion [N]-CA--C-[O] |==|  0.00359
ROOT
ATOM      1  C   LYS E 802     -15.080  23.452  28.931  1.00 51.37 LIG 0.24  C 
ATOM      2 O    LYS E 802     -14.172  24.275  29.004  1.00 54.76 LIG-0.27  OA
ATOM      3  N   ALA E 803     -15.157  22.383  29.720  1.00 53.01 LIG-0.35  N 
ATOM      4 H    ALA E 803     -15.829  21.846  29.714  1.00 53.01 LIG 0.16  HD
ENDROOT
BRANCH 1 5
ATOM      5  CA  LYS E 802     -16.200  23.613  27.897  1.00 50.80 LIG 0.18  C 
BRANCH 5 6
ATOM      6  CB  LYS E 802     -16.921  24.924  28.214  1.00 49.65 LIG 0.04  C 
BRANCH 6 7
ATOM      7  CG  LYS E 802     -16.583  26.070  27.308  1.00 48.72 LIG 0.00  C 
BRANCH 7 8
ATOM      8  CD  LYS E 802     -16.503  27.352  28.106  1.00 52.85 LIG 0.03  C 
BRANCH 8 9
ATOM      9  CE  LYS E 802     -17.876  27.941  28.322  1.00 52.25 LIG 0.23  C 
BRANCH 9 10
ATOM     10  NZ  LYS E 802     -18.838  27.453  27.303  1.00 53.26 LIG-0.08  N 
ATOM     11 HZ1  LYS E 802     -18.484  27.547  26.492  1.00 53.26 LIG 0.27  HD
ATOM     12 HZ2  LYS E 802     -19.014  26.593  27.449  1.00 53.26 LIG 0.27  HD
ATOM     13 HZ3  LYS E 802     -19.590  27.924  27.355  1.00 53.26 LIG 0.27  HD
ENDBRANCH 9 10
ENDBRANCH 8 9
ENDBRANCH 7 8
ENDBRANCH 6 7
ENDBRANCH 5 6
BRANCH 5 14
ATOM     14  N   LYS E 802     -17.210  22.567  27.730  1.00 51.06 LIG-0.35  N 
ATOM     15 H    LYS E 802     -17.813  22.533  28.341  1.00 51.06 LIG 0.16  HD
ATOM     16  C   ALA E 801     -17.137  21.752  26.670  1.00 50.59 LIG 0.25  C 
ATOM     17 O    ALA E 801     -16.215  21.806  25.855  1.00 51.18 LIG-0.27  OA
BRANCH 16 18
ATOM     18  CA  ALA E 801     -18.225  20.700  26.499  1.00 50.00 LIG 0.27  C 
ATOM     19  CB  ALA E 801     -17.807  19.398  27.204  1.00 45.45 LIG 0.05  C 
BRANCH 18 20
ATOM     20  N   ALA E 801     -18.479  20.435  25.061  1.00 50.21 LIG-0.07  N 
ATOM     21 H3   ALA E 801     -19.044  21.043  24.743  1.00 50.21 LIG 0.28  HD
ATOM     22 H2   ALA E 801     -18.832  19.623  24.966  1.00 50.21 LIG 0.28  HD
ATOM     23 H1   ALA E 801     -17.712  20.479  24.611  1.00 50.21 LIG 0.28  HD
ENDBRANCH 18 20
ENDBRANCH 16 18
ENDBRANCH 5 14
ENDBRANCH 1 5
BRANCH 3 24
ATOM     24  CA  ALA E 803     -14.113  22.000  30.683  1.00 57.29 LIG 0.17  C 
ATOM     25  CB  ALA E 803     -14.223  22.911  31.909  1.00 55.60 LIG 0.04  C 
BRANCH 24 26
ATOM     26  C   ALA E 803     -13.829  20.581  31.177  1.00 59.81 LIG 0.24  C 
ATOM     27 O    ALA E 803     -13.194  20.352  32.204  1.00 62.26 LIG-0.27  OA
ATOM     28  N   ILE E 804     -14.293  19.641  30.356  1.00 62.20 LIG-0.35  N 
ATOM     29 H    ILE E 804     -14.731  19.844  29.645  1.00 62.20 LIG 0.16  HD
BRANCH 28 30
ATOM     30  CA  ILE E 804     -14.145  18.194  30.515  1.00 63.57 LIG 0.18  C 
BRANCH 30 31
ATOM     31  CB  ILE E 804     -12.704  17.773  30.885  1.00 63.71 LIG 0.01  C 
ATOM     32  CG2 ILE E 804     -12.619  16.258  31.005  1.00 63.48 LIG 0.01  C 
BRANCH 31 33
ATOM     33  CG1 ILE E 804     -11.717  18.259  29.827  1.00 63.94 LIG 0.00  C 
ATOM     34  CD1 ILE E 804     -11.722  17.437  28.578  1.00 63.94 LIG 0.01  C 
ENDBRANCH 31 33
ENDBRANCH 30 31
BRANCH 30 35
ATOM     35  C   ILE E 804     -15.049  17.877  31.709  1.00 65.71 LIG 0.24  C 
ATOM     36  N   ALA E 805     -14.536  18.058  32.923  1.00 67.46 LIG-0.35  N 
ATOM     37 H    ALA E 805     -13.738  18.340  33.073  1.00 67.46 LIG 0.16  HD
ATOM     38 O    ILE E 804     -16.198  17.460  31.525  1.00 65.35 LIG-0.27  OA
BRANCH 36 39
ATOM     39  CA  ALA E 805     -15.319  17.779  34.125  1.00 69.21 LIG 0.16  C 
ATOM     40  CB  ALA E 805     -14.962  16.395  34.675  1.00 68.65 LIG 0.04  C 
BRANCH 39 41
ATOM     41  C   ALA E 805     -15.095  18.842  35.199  1.00 70.07 LIG 0.22  C 
ATOM     42 O    ALA E 805     -14.325  19.790  34.922  1.00 70.08 LIG-0.29  OA
ENDBRANCH 39 41
ENDBRANCH 36 39
ENDBRANCH 30 35
ENDBRANCH 28 30
ENDBRANCH 24 26
ENDBRANCH 3 24
TORSDOF 17
ENDMDL
MODEL 18
USER: ADFR SOLUTION from run 43
USER: SCORE 12.903767 LL:  -1.908 LR: -11.494 RR:   0.000 FEB:  -6.423
USER: RMSD 10.145285
USER: SEED 42
USER: STATUS no improvement in best 8 clusters for 5 generations
USER: GENES 19
USER: genes 0 Translation |==|  0.44293 0.60218 0.33650
USER: genes 1 Rotation |==|  0.25270 0.17669 0.77363 0.59716
USER: genes 2 Torsion [N]-C--CA-[N] |==|  1.00000
USER: genes 3 Torsion [C]-CA--CB-[CG] |==|  0.59409
USER: genes 4 Torsion [CA]-CB--CG-[CD] |==|  0.30960
USER: genes 5 Torsion [CB]-CG--CD-[CE] |==|  0.44332
USER: genes 6 Torsion [CG]-CD--CE-[NZ] |==|  0.72459
USER: genes 7 Torsion [CD]-CE--NZ-[HZ2] |==|  0.99766
USER: genes 8 Torsion [C]-CA--N-[C] |==|  0.75928
USER: genes 9 Torsion [N]-C--CA-[N] |==|  0.11037
USER: genes 10 Torsion [C]-CA--N-[H1] |==|  0.41664
USER: genes 11 Torsion [C]-N--CA-[CB] |==|  0.78771
USER: genes 12 Torsion [N]-CA--C-[N] |==|  0.44119
USER: genes 13 Torsion [C]-N--CA-[CB] |==|  0.79819
USER: genes 14 Torsion [N]-CA--CB-[CG1] |==|  0.77881
USER: genes 15 Torsion [CA]-CB--CG1-[CD1] |==|  0.04378
USER: genes 16 Torsion [N]-CA--C-[N] |==|  0.22939
USER: genes 17 Torsion [C]-N--CA-[CB] |==|  0.46928
USER: genes 18 Torsion [N]-CA--C-[O] |==|  0.33260
ROOT
ATOM      1  C   LYS E 802     -14.552  24.625  29.575  1.00 51.37 LIG 0.24  C 
ATOM      2 O    LYS E 802     -13.328  24.658  29.503  1.00 54.76 LIG-0.27  OA
ATOM      3  N   ALA E 803     -15.205  24.172  30.643  1.00 53.01 LIG-0.35  N 
ATOM      4 H    ALA E 803     -16.061  24.214  30.719  1.00 53.01 LIG 0.16  HD
ENDROOT
BRANCH 1 5
ATOM      5  CA  LYS E 802     -15.418  25.110  28.407  1.00 50.80 LIG 0.18  C 
BRANCH 5 6
ATOM      6  CB  LYS E 802     -15.007  26.554  28.111  1.00 49.65 LIG 0.04  C 
BRANCH 6 7
ATOM      7  CG  LYS E 802     -16.117  27.448  27.646  1.00 48.72 LIG 0.00  C 
BRANCH 7 8
ATOM      8  CD  LYS E 802     -16.424  28.483  28.704  1.00 52.85 LIG 0.03  C 
BRANCH 8 9
ATOM      9  CE  LYS E 802     -17.147  29.667  28.109  1.00 52.25 LIG 0.23  C 
BRANCH 9 10
ATOM     10  NZ  LYS E 802     -16.215  30.792  27.848  1.00 53.26 LIG-0.08  N 
ATOM     11 HZ1  LYS E 802     -16.478  31.508  28.306  1.00 53.26 LIG 0.27  HD
ATOM     12 HZ2  LYS E 802     -15.394  30.563  28.105  1.00 53.26 LIG 0.27  HD
ATOM     13 HZ3  LYS E 802     -16.213  30.979  26.979  1.00 53.26 LIG 0.27  HD
ENDBRANCH 9 10
ENDBRANCH 8 9
ENDBRANCH 7 8
ENDBRANCH 6 7
ENDBRANCH 5 6
BRANCH 5 14
ATOM     14  N   LYS E 802     -16.878  25.062  28.496  1.00 51.06 LIG-0.35  N 
ATOM     15 H    LYS E 802     -17.256  25.781  28.777  1.00 51.06 LIG 0.16  HD
ATOM     16  C   ALA E 801     -17.517  23.939  28.147  1.00 50.59 LIG 0.25  C 
ATOM     17 O    ALA E 801     -16.921  22.916  27.807  1.00 51.18 LIG-0.27  OA
BRANCH 16 18
ATOM     18  CA  ALA E 801     -19.039  23.930  28.209  1.00 50.00 LIG 0.27  C 
ATOM     19  CB  ALA E 801     -19.589  22.776  27.355  1.00 45.45 LIG 0.05  C 
BRANCH 18 20
ATOM     20  N   ALA E 801     -19.592  25.221  27.730  1.00 50.21 LIG-0.07  N 
ATOM     21 H3   ALA E 801     -19.045  25.571  27.122  1.00 50.21 LIG 0.28  HD
ATOM     22 H2   ALA E 801     -19.672  25.783  28.416  1.00 50.21 LIG 0.28  HD
ATOM     23 H1   ALA E 801     -20.392  25.084  27.364  1.00 50.21 LIG 0.28  HD
ENDBRANCH 18 20
ENDBRANCH 16 18
ENDBRANCH 5 14
ENDBRANCH 1 5
BRANCH 3 24
ATOM     24  CA  ALA E 803     -14.546  23.554  31.804  1.00 57.29 LIG 0.17  C 
ATOM     25  CB  ALA E 803     -14.140  22.126  31.431  1.00 55.60 LIG 0.04  C 
BRANCH 24 26
ATOM     26  C   ALA E 803     -13.407  24.169  32.617  1.00 59.81 LIG 0.24  C 
ATOM     27 O    ALA E 803     -12.651  25.022  32.156  1.00 62.26 LIG-0.27  OA
ATOM     28  N   ILE E 804     -13.296  23.647  33.837  1.00 62.20 LIG-0.35  N 
ATOM     29 H    ILE E 804     -13.845  23.050  34.120  1.00 62.20 LIG 0.16  HD
BRANCH 28 30
ATOM     30  CA  ILE E 804     -12.284  23.982  34.840  1.00 63.57 LIG 0.18  C 
BRANCH 30 31
ATOM     31  CB  ILE E 804     -10.885  23.424  34.493  1.00 63.71 LIG 0.01  C 
ATOM     32  CG2 ILE E 804      -9.813  24.200  35.246  1.00 63.48 LIG 0.01  C 
BRANCH 31 33
ATOM     33  CG1 ILE E 804     -10.795  21.943  34.855  1.00 63.94 LIG 0.00  C 
ATOM     34  CD1 ILE E 804     -12.125  21.301  35.089  1.00 63.94 LIG 0.01  C 
ENDBRANCH 31 33
ENDBRANCH 30 31
BRANCH 30 35
ATOM     35  C   ILE E 804     -12.211  25.509  34.769  1.00 65.71 LIG 0.24  C 
ATOM     36  N   ALA E 805     -13.127  26.193  35.451  1.00 67.46 LIG-0.35  N 
ATOM     37 H    ALA E 805     -13.747  25.830  35.925  1.00 67.46 LIG 0.16  HD
ATOM     38 O    ILE E 804     -11.338  26.060  34.090  1.00 65.35 LIG-0.27  OA
BRANCH 36 39
ATOM     39  CA  ALA E 805     -13.144  27.654  35.444  1.00 69.21 LIG 0.16  C 
ATOM     40  CB  ALA E 805     -14.442  28.167  36.072  1.00 68.65 LIG 0.04  C 
BRANCH 39 41
ATOM     41  C   ALA E 805     -11.940  28.233  36.185  1.00 70.07 LIG 0.22  C 
ATOM     42 O    ALA E 805     -11.157  28.963  35.535  1.00 70.08 LIG-0.29  OA
ENDBRANCH 39 41
ENDBRANCH 36 39
ENDBRANCH 30 35
ENDBRANCH 28 30
ENDBRANCH 24 26
ENDBRANCH 3 24
TORSDOF 17
ENDMDL
MODEL 19
USER: ADFR SOLUTION from run 111
USER: SCORE 12.017668 LL:  -2.529 LR: -11.480 RR:   0.000 FEB:  -6.409
USER: RMSD 10.144894
USER: SEED 110
USER: STATUS no improvement in best 18 clusters for 5 generations
USER: GENES 19
USER: genes 0 Translation |==|  0.39639 0.62443 0.31538
USER: genes 1 Rotation |==|  0.36063 0.95583 0.60224 0.61109
USER: genes 2 Torsion [N]-C--CA-[N] |==|  0.36218
USER: genes 3 Torsion [C]-CA--CB-[CG] |==|  0.70355
USER: genes 4 Torsion [CA]-CB--CG-[CD] |==|  0.47698
USER: genes 5 Torsion [CB]-CG--CD-[CE] |==|  0.88829
USER: genes 6 Torsion [CG]-CD--CE-[NZ] |==|  0.40769
USER: genes 7 Torsion [CD]-CE--NZ-[HZ2] |==|  0.81842
USER: genes 8 Torsion [C]-CA--N-[C] |==|  0.85882
USER: genes 9 Torsion [N]-C--CA-[N] |==|  0.13413
USER: genes 10 Torsion [C]-CA--N-[H1] |==|  0.30531
USER: genes 11 Torsion [C]-N--CA-[CB] |==|  0.68113
USER: genes 12 Torsion [N]-CA--C-[N] |==|  0.73390
USER: genes 13 Torsion [C]-N--CA-[CB] |==|  0.89687
USER: genes 14 Torsion [N]-CA--CB-[CG1] |==|  0.84172
USER: genes 15 Torsion [CA]-CB--CG1-[CD1] |==|  0.89609
USER: genes 16 Torsion [N]-CA--C-[N] |==|  0.72793
USER: genes 17 Torsion [C]-N--CA-[CB] |==|  0.14651
USER: genes 18 Torsion [N]-CA--C-[O] |==|  0.30154
ROOT
ATOM      1  C   LYS E 802     -15.948  25.293  28.941  1.00 51.37 LIG 0.24  C 
ATOM      2 O    LYS E 802     -16.218  25.461  30.126  1.00 54.76 LIG-0.27  OA
ATOM      3  N   ALA E 803     -14.804  24.752  28.526  1.00 53.01 LIG-0.35  N 
ATOM      4 H    ALA E 803     -14.647  24.573  27.700  1.00 53.01 LIG 0.16  HD
ENDROOT
BRANCH 1 5
ATOM      5  CA  LYS E 802     -16.935  25.714  27.846  1.00 50.80 LIG 0.18  C 
BRANCH 5 6
ATOM      6  CB  LYS E 802     -16.889  27.241  27.762  1.00 49.65 LIG 0.04  C 
BRANCH 6 7
ATOM      7  CG  LYS E 802     -18.086  27.945  28.327  1.00 48.72 LIG 0.00  C 
BRANCH 7 8
ATOM      8  CD  LYS E 802     -17.834  29.435  28.371  1.00 52.85 LIG 0.03  C 
BRANCH 8 9
ATOM      9  CE  LYS E 802     -16.418  29.731  28.804  1.00 52.25 LIG 0.23  C 
BRANCH 9 10
ATOM     10  NZ  LYS E 802     -15.897  30.953  28.144  1.00 53.26 LIG-0.08  N 
ATOM     11 HZ1  LYS E 802     -15.093  31.148  28.472  1.00 53.26 LIG 0.27  HD
ATOM     12 HZ2  LYS E 802     -15.832  30.813  27.268  1.00 53.26 LIG 0.27  HD
ATOM     13 HZ3  LYS E 802     -16.452  31.631  28.296  1.00 53.26 LIG 0.27  HD
ENDBRANCH 9 10
ENDBRANCH 8 9
ENDBRANCH 7 8
ENDBRANCH 6 7
ENDBRANCH 5 6
BRANCH 5 14
ATOM     14  N   LYS E 802     -18.339  25.304  27.916  1.00 51.06 LIG-0.35  N 
ATOM     15 H    LYS E 802     -18.914  25.936  27.823  1.00 51.06 LIG 0.16  HD
ATOM     16  C   ALA E 801     -18.633  24.014  28.113  1.00 50.59 LIG 0.25  C 
ATOM     17 O    ALA E 801     -17.767  23.157  28.300  1.00 51.18 LIG-0.27  OA
BRANCH 16 18
ATOM     18  CA  ALA E 801     -20.101  23.609  28.139  1.00 50.00 LIG 0.27  C 
ATOM     19  CB  ALA E 801     -20.220  22.076  28.120  1.00 45.45 LIG 0.05  C 
BRANCH 18 20
ATOM     20  N   ALA E 801     -20.826  24.185  26.980  1.00 50.21 LIG-0.07  N 
ATOM     21 H3   ALA E 801     -20.304  24.776  26.567  1.00 50.21 LIG 0.28  HD
ATOM     22 H2   ALA E 801     -21.566  24.591  27.264  1.00 50.21 LIG 0.28  HD
ATOM     23 H1   ALA E 801     -21.044  23.535  26.412  1.00 50.21 LIG 0.28  HD
ENDBRANCH 18 20
ENDBRANCH 16 18
ENDBRANCH 5 14
ENDBRANCH 1 5
BRANCH 3 24
ATOM     24  CA  ALA E 803     -13.691  24.404  29.422  1.00 57.29 LIG 0.17  C 
ATOM     25  CB  ALA E 803     -12.492  25.292  29.078  1.00 55.60 LIG 0.04  C 
BRANCH 24 26
ATOM     26  C   ALA E 803     -13.771  24.292  30.945  1.00 59.81 LIG 0.24  C 
ATOM     27 O    ALA E 803     -14.194  23.288  31.513  1.00 62.26 LIG-0.27  OA
ATOM     28  N   ILE E 804     -13.391  25.405  31.569  1.00 62.20 LIG-0.35  N 
ATOM     29 H    ILE E 804     -13.104  26.088  31.133  1.00 62.20 LIG 0.16  HD
BRANCH 28 30
ATOM     30  CA  ILE E 804     -13.395  25.639  33.014  1.00 63.57 LIG 0.18  C 
BRANCH 30 31
ATOM     31  CB  ILE E 804     -14.607  24.993  33.725  1.00 63.71 LIG 0.01  C 
ATOM     32  CG2 ILE E 804     -14.570  25.315  35.212  1.00 63.48 LIG 0.01  C 
BRANCH 31 33
ATOM     33  CG1 ILE E 804     -15.914  25.501  33.123  1.00 63.94 LIG 0.00  C 
ATOM     34  CD1 ILE E 804     -15.877  26.946  32.741  1.00 63.94 LIG 0.01  C 
ENDBRANCH 31 33
ENDBRANCH 30 31
BRANCH 30 35
ATOM     35  C   ILE E 804     -12.131  24.920  33.491  1.00 65.71 LIG 0.24  C 
ATOM     36  N   ALA E 805     -12.281  23.696  33.991  1.00 67.46 LIG-0.35  N 
ATOM     37 H    ALA E 805     -13.037  23.292  34.059  1.00 67.46 LIG 0.16  HD
ATOM     38 O    ILE E 804     -11.032  25.479  33.416  1.00 65.35 LIG-0.27  OA
BRANCH 36 39
ATOM     39  CA  ALA E 805     -11.135  22.930  34.477  1.00 69.21 LIG 0.16  C 
ATOM     40  CB  ALA E 805     -10.340  23.760  35.488  1.00 68.65 LIG 0.04  C 
BRANCH 39 41
ATOM     41  C   ALA E 805     -11.571  21.610  35.110  1.00 70.07 LIG 0.22  C 
ATOM     42 O    ALA E 805     -11.319  20.557  34.482  1.00 70.08 LIG-0.29  OA
ENDBRANCH 39 41
ENDBRANCH 36 39
ENDBRANCH 30 35
ENDBRANCH 28 30
ENDBRANCH 24 26
ENDBRANCH 3 24
TORSDOF 17
ENDMDL
MODEL 20
USER: ADFR SOLUTION from run 10
USER: SCORE 12.006597 LL:  -2.491 LR: -11.458 RR:   0.000 FEB:  -6.387
USER: RMSD 3.777858
USER: SEED 802762
USER: STATUS no improvement in best 11 clusters for 5 generations
USER: GENES 19
USER: genes 0 Translation |==|  0.52435 0.54467 0.49814
USER: genes 1 Rotation |==|  0.52604 0.52850 0.61476 0.98512
USER: genes 2 Torsion [N]-C--CA-[N] |==|  0.83403
USER: genes 3 Torsion [C]-CA--CB-[CG] |==|  0.59537
USER: genes 4 Torsion [CA]-CB--CG-[CD] |==|  0.73021
USER: genes 5 Torsion [CB]-CG--CD-[CE] |==|  0.51242
USER: genes 6 Torsion [CG]-CD--CE-[NZ] |==|  0.40795
USER: genes 7 Torsion [CD]-CE--NZ-[HZ2] |==|  0.54047
USER: genes 8 Torsion [C]-CA--N-[C] |==|  0.64677
USER: genes 9 Torsion [N]-C--CA-[N] |==|  0.95093
USER: genes 10 Torsion [C]-CA--N-[H1] |==|  0.28960
USER: genes 11 Torsion [C]-N--CA-[CB] |==|  0.75556
USER: genes 12 Torsion [N]-CA--C-[N] |==|  0.32952
USER: genes 13 Torsion [C]-N--CA-[CB] |==|  0.40134
USER: genes 14 Torsion [N]-CA--CB-[CG1] |==|  0.49681
USER: genes 15 Torsion [CA]-CB--CG1-[CD1] |==|  0.73449
USER: genes 16 Torsion [N]-CA--C-[N] |==|  0.91869
USER: genes 17 Torsion [C]-N--CA-[CB] |==|  0.22304
USER: genes 18 Torsion [N]-CA--C-[O] |==|  0.05846
ROOT
ATOM      1  C   LYS E 802     -12.110  22.900  34.424  1.00 51.37 LIG 0.24  C 
ATOM      2 O    LYS E 802     -12.926  23.274  33.588  1.00 54.76 LIG-0.27  OA
ATOM      3  N   ALA E 803     -11.894  21.617  34.706  1.00 53.01 LIG-0.35  N 
ATOM      4 H    ALA E 803     -11.274  21.355  35.242  1.00 53.01 LIG 0.16  HD
ENDROOT
BRANCH 1 5
ATOM      5  CA  LYS E 802     -11.278  23.917  35.215  1.00 50.80 LIG 0.18  C 
BRANCH 5 6
ATOM      6  CB  LYS E 802      -9.813  23.692  34.834  1.00 49.65 LIG 0.04  C 
BRANCH 6 7
ATOM      7  CG  LYS E 802      -8.826  23.923  35.940  1.00 48.72 LIG 0.00  C 
BRANCH 7 8
ATOM      8  CD  LYS E 802      -8.246  25.315  35.830  1.00 52.85 LIG 0.03  C 
BRANCH 8 9
ATOM      9  CE  LYS E 802      -7.170  25.535  36.866  1.00 52.25 LIG 0.23  C 
BRANCH 9 10
ATOM     10  NZ  LYS E 802      -6.107  26.435  36.355  1.00 53.26 LIG-0.08  N 
ATOM     11 HZ1  LYS E 802      -6.407  27.273  36.344  1.00 53.26 LIG 0.27  HD
ATOM     12 HZ2  LYS E 802      -5.394  26.383  36.885  1.00 53.26 LIG 0.27  HD
ATOM     13 HZ3  LYS E 802      -5.882  26.190  35.530  1.00 53.26 LIG 0.27  HD
ENDBRANCH 9 10
ENDBRANCH 8 9
ENDBRANCH 7 8
ENDBRANCH 6 7
ENDBRANCH 5 6
BRANCH 5 14
ATOM     14  N   LYS E 802     -11.365  23.971  36.675  1.00 51.06 LIG-0.35  N 
ATOM     15 H    LYS E 802     -11.239  23.225  37.082  1.00 51.06 LIG 0.16  HD
ATOM     16  C   ALA E 801     -11.629  25.141  37.270  1.00 50.59 LIG 0.25  C 
ATOM     17 O    ALA E 801     -11.862  26.170  36.634  1.00 51.18 LIG-0.27  OA
BRANCH 16 18
ATOM     18  CA  ALA E 801     -11.673  25.177  38.792  1.00 50.00 LIG 0.27  C 
ATOM     19  CB  ALA E 801     -10.386  25.821  39.335  1.00 45.45 LIG 0.05  C 
BRANCH 18 20
ATOM     20  N   ALA E 801     -11.825  23.809  39.346  1.00 50.21 LIG-0.07  N 
ATOM     21 H3   ALA E 801     -12.088  23.255  38.702  1.00 50.21 LIG 0.28  HD
ATOM     22 H2   ALA E 801     -12.434  23.818  39.996  1.00 50.21 LIG 0.28  HD
ATOM     23 H1   ALA E 801     -11.045  23.533  39.674  1.00 50.21 LIG 0.28  HD
ENDBRANCH 18 20
ENDBRANCH 16 18
ENDBRANCH 5 14
ENDBRANCH 1 5
BRANCH 3 24
ATOM     24  CA  ALA E 803     -12.682  20.511  34.141  1.00 57.29 LIG 0.17  C 
ATOM     25  CB  ALA E 803     -13.896  20.268  35.042  1.00 55.60 LIG 0.04  C 
BRANCH 24 26
ATOM     26  C   ALA E 803     -13.144  20.395  32.689  1.00 59.81 LIG 0.24  C 
ATOM     27 O    ALA E 803     -13.928  21.191  32.178  1.00 62.26 LIG-0.27  OA
ATOM     28  N   ILE E 804     -12.653  19.322  32.070  1.00 62.20 LIG-0.35  N 
ATOM     29 H    ILE E 804     -12.109  18.787  32.465  1.00 62.20 LIG 0.16  HD
BRANCH 28 30
ATOM     30  CA  ILE E 804     -12.939  18.900  30.698  1.00 63.57 LIG 0.18  C 
BRANCH 30 31
ATOM     31  CB  ILE E 804     -11.718  18.262  29.997  1.00 63.71 LIG 0.01  C 
ATOM     32  CG2 ILE E 804     -11.225  17.065  30.798  1.00 63.48 LIG 0.01  C 
BRANCH 31 33
ATOM     33  CG1 ILE E 804     -12.085  17.817  28.583  1.00 63.94 LIG 0.00  C 
ATOM     34  CD1 ILE E 804     -12.469  16.375  28.489  1.00 63.94 LIG 0.01  C 
ENDBRANCH 31 33
ENDBRANCH 30 31
BRANCH 30 35
ATOM     35  C   ILE E 804     -14.000  17.811  30.880  1.00 65.71 LIG 0.24  C 
ATOM     36  N   ALA E 805     -13.965  17.112  32.011  1.00 67.46 LIG-0.35  N 
ATOM     37 H    ALA E 805     -13.390  17.237  32.638  1.00 67.46 LIG 0.16  HD
ATOM     38 O    ILE E 804     -14.834  17.601  29.992  1.00 65.35 LIG-0.27  OA
BRANCH 36 39
ATOM     39  CA  ALA E 805     -14.932  16.049  32.276  1.00 69.21 LIG 0.16  C 
ATOM     40  CB  ALA E 805     -14.515  14.768  31.548  1.00 68.65 LIG 0.04  C 
BRANCH 39 41
ATOM     41  C   ALA E 805     -15.072  15.778  33.772  1.00 70.07 LIG 0.22  C 
ATOM     42 O    ALA E 805     -14.717  16.685  34.559  1.00 70.08 LIG-0.29  OA
ENDBRANCH 39 41
ENDBRANCH 36 39
ENDBRANCH 30 35
ENDBRANCH 28 30
ENDBRANCH 24 26
ENDBRANCH 3 24
TORSDOF 17
ENDMDL
MODEL 21
USER: ADFR SOLUTION from run 57
USER: SCORE 12.961410 LL:  -2.305 LR: -11.414 RR:   0.000 FEB:  -6.343
USER: RMSD 10.604600
USER: SEED 56
USER: STATUS no improvement in best 9 clusters for 5 generations
USER: GENES 19
USER: genes 0 Translation |==|  0.40233 0.79892 0.34461
USER: genes 1 Rotation |==|  0.18370 0.14505 0.36463 0.57513
USER: genes 2 Torsion [N]-C--CA-[N] |==|  0.93282
USER: genes 3 Torsion [C]-CA--CB-[CG] |==|  0.61663
USER: genes 4 Torsion [CA]-CB--CG-[CD] |==|  0.42463
USER: genes 5 Torsion [CB]-CG--CD-[CE] |==|  0.80589
USER: genes 6 Torsion [CG]-CD--CE-[NZ] |==|  0.88724
USER: genes 7 Torsion [CD]-CE--NZ-[HZ2] |==|  0.54675
USER: genes 8 Torsion [C]-CA--N-[C] |==|  0.63435
USER: genes 9 Torsion [N]-C--CA-[N] |==|  0.77413
USER: genes 10 Torsion [C]-CA--N-[H1] |==|  0.64739
USER: genes 11 Torsion [C]-N--CA-[CB] |==|  0.52260
USER: genes 12 Torsion [N]-CA--C-[N] |==|  0.45772
USER: genes 13 Torsion [C]-N--CA-[CB] |==|  0.17222
USER: genes 14 Torsion [N]-CA--CB-[CG1] |==|  0.09073
USER: genes 15 Torsion [CA]-CB--CG1-[CD1] |==|  0.59273
USER: genes 16 Torsion [N]-CA--C-[N] |==|  0.11323
USER: genes 17 Torsion [C]-N--CA-[CB] |==|  0.37464
USER: genes 18 Torsion [N]-CA--C-[O] |==|  0.20747
ROOT
ATOM      1  C   LYS E 802     -15.770  30.528  29.818  1.00 51.37 LIG 0.24  C 
ATOM      2 O    LYS E 802     -15.247  29.610  30.442  1.00 54.76 LIG-0.27  OA
ATOM      3  N   ALA E 803     -16.830  30.360  29.030  1.00 53.01 LIG-0.35  N 
ATOM      4 H    ALA E 803     -17.236  31.015  28.648  1.00 53.01 LIG 0.16  HD
ENDROOT
BRANCH 1 5
ATOM      5  CA  LYS E 802     -15.213  31.953  29.910  1.00 50.80 LIG 0.18  C 
BRANCH 5 6
ATOM      6  CB  LYS E 802     -15.747  32.562  31.207  1.00 49.65 LIG 0.04  C 
BRANCH 6 7
ATOM      7  CG  LYS E 802     -16.204  33.986  31.100  1.00 48.72 LIG 0.00  C 
BRANCH 7 8
ATOM      8  CD  LYS E 802     -17.266  34.267  32.139  1.00 52.85 LIG 0.03  C 
BRANCH 8 9
ATOM      9  CE  LYS E 802     -18.550  33.544  31.809  1.00 52.25 LIG 0.23  C 
BRANCH 9 10
ATOM     10  NZ  LYS E 802     -18.838  33.596  30.355  1.00 53.26 LIG-0.08  N 
ATOM     11 HZ1  LYS E 802     -18.319  33.013  29.928  1.00 53.26 LIG 0.27  HD
ATOM     12 HZ2  LYS E 802     -19.692  33.389  30.214  1.00 53.26 LIG 0.27  HD
ATOM     13 HZ3  LYS E 802     -18.677  34.416  30.050  1.00 53.26 LIG 0.27  HD
ENDBRANCH 9 10
ENDBRANCH 8 9
ENDBRANCH 7 8
ENDBRANCH 6 7
ENDBRANCH 5 6
BRANCH 5 14
ATOM     14  N   LYS E 802     -15.446  32.911  28.828  1.00 51.06 LIG-0.35  N 
ATOM     15 H    LYS E 802     -16.258  32.970  28.553  1.00 51.06 LIG 0.16  HD
ATOM     16  C   ALA E 801     -14.414  33.614  28.346  1.00 50.59 LIG 0.25  C 
ATOM     17 O    ALA E 801     -13.257  33.446  28.735  1.00 51.18 LIG-0.27  OA
BRANCH 16 18
ATOM     18  CA  ALA E 801     -14.692  34.634  27.249  1.00 50.00 LIG 0.27  C 
ATOM     19  CB  ALA E 801     -16.005  35.377  27.548  1.00 45.45 LIG 0.05  C 
BRANCH 18 20
ATOM     20  N   ALA E 801     -14.778  33.972  25.924  1.00 50.21 LIG-0.07  N 
ATOM     21 H3   ALA E 801     -15.611  34.030  25.616  1.00 50.21 LIG 0.28  HD
ATOM     22 H2   ALA E 801     -14.552  33.114  26.005  1.00 50.21 LIG 0.28  HD
ATOM     23 H1   ALA E 801     -14.223  34.372  25.355  1.00 50.21 LIG 0.28  HD
ENDBRANCH 18 20
ENDBRANCH 16 18
ENDBRANCH 5 14
ENDBRANCH 1 5
BRANCH 3 24
ATOM     24  CA  ALA E 803     -17.422  29.048  28.723  1.00 57.29 LIG 0.17  C 
ATOM     25  CB  ALA E 803     -18.483  29.236  27.635  1.00 55.60 LIG 0.04  C 
BRANCH 24 26
ATOM     26  C   ALA E 803     -16.646  27.770  28.408  1.00 59.81 LIG 0.24  C 
ATOM     27 O    ALA E 803     -15.464  27.779  28.071  1.00 62.26 LIG-0.27  OA
ATOM     28  N   ILE E 804     -17.397  26.672  28.485  1.00 62.20 LIG-0.35  N 
ATOM     29 H    ILE E 804     -18.222  26.710  28.722  1.00 62.20 LIG 0.16  HD
BRANCH 28 30
ATOM     30  CA  ILE E 804     -16.970  25.302  28.197  1.00 63.57 LIG 0.18  C 
BRANCH 30 31
ATOM     31  CB  ILE E 804     -15.842  24.813  29.135  1.00 63.71 LIG 0.01  C 
ATOM     32  CG2 ILE E 804     -14.485  25.178  28.551  1.00 63.48 LIG 0.01  C 
BRANCH 31 33
ATOM     33  CG1 ILE E 804     -15.990  25.438  30.520  1.00 63.94 LIG 0.00  C 
ATOM     34  CD1 ILE E 804     -14.685  25.702  31.201  1.00 63.94 LIG 0.01  C 
ENDBRANCH 31 33
ENDBRANCH 30 31
BRANCH 30 35
ATOM     35  C   ILE E 804     -18.222  24.474  28.496  1.00 65.71 LIG 0.24  C 
ATOM     36  N   ALA E 805     -19.390  24.976  28.103  1.00 67.46 LIG-0.35  N 
ATOM     37 H    ALA E 805     -19.479  25.728  27.695  1.00 67.46 LIG 0.16  HD
ATOM     38 O    ILE E 804     -18.127  23.395  29.090  1.00 65.35 LIG-0.27  OA
BRANCH 36 39
ATOM     39  CA  ALA E 805     -20.643  24.263  28.347  1.00 69.21 LIG 0.16  C 
ATOM     40  CB  ALA E 805     -21.703  25.232  28.877  1.00 68.65 LIG 0.04  C 
BRANCH 39 41
ATOM     41  C   ALA E 805     -21.150  23.574  27.081  1.00 70.07 LIG 0.22  C 
ATOM     42 O    ALA E 805     -20.558  22.534  26.713  1.00 70.08 LIG-0.29  OA
ENDBRANCH 39 41
ENDBRANCH 36 39
ENDBRANCH 30 35
ENDBRANCH 28 30
ENDBRANCH 24 26
ENDBRANCH 3 24
TORSDOF 17
ENDMDL
MODEL 22
USER: ADFR SOLUTION from run 90
USER: SCORE 12.085147 LL:  -2.866 LR: -11.407 RR:   0.000 FEB:  -6.336
USER: RMSD 9.498062
USER: SEED 89
USER: STATUS no improvement in best 4 clusters for 5 generations
USER: GENES 19
USER: genes 0 Translation |==|  0.45004 0.56984 0.36542
USER: genes 1 Rotation |==|  0.64166 0.65929 0.06657 0.62921
USER: genes 2 Torsion [N]-C--CA-[N] |==|  0.87623
USER: genes 3 Torsion [C]-CA--CB-[CG] |==|  0.09761
USER: genes 4 Torsion [CA]-CB--CG-[CD] |==|  0.63668
USER: genes 5 Torsion [CB]-CG--CD-[CE] |==|  0.53236
USER: genes 6 Torsion [CG]-CD--CE-[NZ] |==|  0.40774
USER: genes 7 Torsion [CD]-CE--NZ-[HZ2] |==|  0.59891
USER: genes 8 Torsion [C]-CA--N-[C] |==|  0.82919
USER: genes 9 Torsion [N]-C--CA-[N] |==|  0.45758
USER: genes 10 Torsion [C]-CA--N-[H1] |==|  0.93314
USER: genes 11 Torsion [C]-N--CA-[CB] |==|  0.38215
USER: genes 12 Torsion [N]-CA--C-[N] |==|  0.05711
USER: genes 13 Torsion [C]-N--CA-[CB] |==|  0.51865
USER: genes 14 Torsion [N]-CA--CB-[CG1] |==|  0.72895
USER: genes 15 Torsion [CA]-CB--CG1-[CD1] |==|  0.02384
USER: genes 16 Torsion [N]-CA--C-[N] |==|  0.44152
USER: genes 17 Torsion [C]-N--CA-[CB] |==|  0.51602
USER: genes 18 Torsion [N]-CA--C-[O] |==|  0.33140
ROOT
ATOM      1  C   LYS E 802     -14.339  23.655  30.442  1.00 51.37 LIG 0.24  C 
ATOM      2 O    LYS E 802     -13.315  24.070  29.909  1.00 54.76 LIG-0.27  OA
ATOM      3  N   ALA E 803     -14.934  24.279  31.457  1.00 53.01 LIG-0.35  N 
ATOM      4 H    ALA E 803     -15.688  24.024  31.783  1.00 53.01 LIG 0.16  HD
ENDROOT
BRANCH 1 5
ATOM      5  CA  LYS E 802     -15.001  22.358  29.963  1.00 50.80 LIG 0.18  C 
BRANCH 5 6
ATOM      6  CB  LYS E 802     -16.184  22.758  29.080  1.00 49.65 LIG 0.04  C 
BRANCH 6 7
ATOM      7  CG  LYS E 802     -15.972  23.990  28.252  1.00 48.72 LIG 0.00  C 
BRANCH 7 8
ATOM      8  CD  LYS E 802     -17.146  24.929  28.415  1.00 52.85 LIG 0.03  C 
BRANCH 8 9
ATOM      9  CE  LYS E 802     -17.100  26.035  27.388  1.00 52.25 LIG 0.23  C 
BRANCH 9 10
ATOM     10  NZ  LYS E 802     -18.465  26.448  26.980  1.00 53.26 LIG-0.08  N 
ATOM     11 HZ1  LYS E 802     -18.717  27.155  27.458  1.00 53.26 LIG 0.27  HD
ATOM     12 HZ2  LYS E 802     -18.465  26.661  26.116  1.00 53.26 LIG 0.27  HD
ATOM     13 HZ3  LYS E 802     -19.032  25.778  27.121  1.00 53.26 LIG 0.27  HD
ENDBRANCH 9 10
ENDBRANCH 8 9
ENDBRANCH 7 8
ENDBRANCH 6 7
ENDBRANCH 5 6
BRANCH 5 14
ATOM     14  N   LYS E 802     -15.469  21.364  30.929  1.00 51.06 LIG-0.35  N 
ATOM     15 H    LYS E 802     -16.313  21.201  30.914  1.00 51.06 LIG 0.16  HD
ATOM     16  C   ALA E 801     -14.585  20.786  31.751  1.00 50.59 LIG 0.25  C 
ATOM     17 O    ALA E 801     -13.394  21.100  31.771  1.00 51.18 LIG-0.27  OA
BRANCH 16 18
ATOM     18  CA  ALA E 801     -15.093  19.723  32.717  1.00 50.00 LIG 0.27  C 
ATOM     19  CB  ALA E 801     -15.885  20.389  33.855  1.00 45.45 LIG 0.05  C 
BRANCH 18 20
ATOM     20  N   ALA E 801     -13.965  18.941  33.280  1.00 50.21 LIG-0.07  N 
ATOM     21 H3   ALA E 801     -14.214  18.093  33.383  1.00 50.21 LIG 0.28  HD
ATOM     22 H2   ALA E 801     -13.733  19.280  34.069  1.00 50.21 LIG 0.28  HD
ATOM     23 H1   ALA E 801     -13.271  18.980  32.724  1.00 50.21 LIG 0.28  HD
ENDBRANCH 18 20
ENDBRANCH 16 18
ENDBRANCH 5 14
ENDBRANCH 1 5
BRANCH 3 24
ATOM     24  CA  ALA E 803     -14.378  25.464  32.128  1.00 57.29 LIG 0.17  C 
ATOM     25  CB  ALA E 803     -15.513  26.463  32.372  1.00 55.60 LIG 0.04  C 
BRANCH 24 26
ATOM     26  C   ALA E 803     -13.488  25.451  33.371  1.00 59.81 LIG 0.24  C 
ATOM     27 O    ALA E 803     -13.317  26.446  34.073  1.00 62.26 LIG-0.27  OA
ATOM     28  N   ILE E 804     -12.889  24.279  33.571  1.00 62.20 LIG-0.35  N 
ATOM     29 H    ILE E 804     -13.034  23.608  33.054  1.00 62.20 LIG 0.16  HD
BRANCH 28 30
ATOM     30  CA  ILE E 804     -11.941  23.954  34.639  1.00 63.57 LIG 0.18  C 
BRANCH 30 31
ATOM     31  CB  ILE E 804     -11.312  22.551  34.480  1.00 63.71 LIG 0.01  C 
ATOM     32  CG2 ILE E 804      -9.843  22.592  34.875  1.00 63.48 LIG 0.01  C 
BRANCH 31 33
ATOM     33  CG1 ILE E 804     -12.048  21.534  35.348  1.00 63.94 LIG 0.00  C 
ATOM     34  CD1 ILE E 804     -13.298  22.068  35.971  1.00 63.94 LIG 0.01  C 
ENDBRANCH 31 33
ENDBRANCH 30 31
BRANCH 30 35
ATOM     35  C   ILE E 804     -10.832  24.992  34.451  1.00 65.71 LIG 0.24  C 
ATOM     36  N   ALA E 805     -10.050  25.241  35.498  1.00 67.46 LIG-0.35  N 
ATOM     37 H    ALA E 805     -10.130  24.856  36.263  1.00 67.46 LIG 0.16  HD
ATOM     38 O    ILE E 804     -10.698  25.569  33.366  1.00 65.35 LIG-0.27  OA
BRANCH 36 39
ATOM     39  CA  ALA E 805      -8.966  26.218  35.419  1.00 69.21 LIG 0.16  C 
ATOM     40  CB  ALA E 805      -8.146  26.198  36.712  1.00 68.65 LIG 0.04  C 
BRANCH 39 41
ATOM     41  C   ALA E 805      -8.057  25.952  34.220  1.00 70.07 LIG 0.22  C 
ATOM     42 O    ALA E 805      -7.964  26.853  33.355  1.00 70.08 LIG-0.29  OA
ENDBRANCH 39 41
ENDBRANCH 36 39
ENDBRANCH 30 35
ENDBRANCH 28 30
ENDBRANCH 24 26
ENDBRANCH 3 24
TORSDOF 17
ENDMDL
MODEL 23
USER: ADFR SOLUTION from run 30
USER: SCORE 12.368222 LL:  -2.251 LR: -11.414 RR:   0.000 FEB:  -6.343
USER: RMSD 6.229504
USER: SEED 29
USER: STATUS searching
USER: GENES 19
USER: genes 0 Translation |==|  0.53789 0.60441 0.47781
USER: genes 1 Rotation |==|  0.59948 0.48835 0.27003 0.93253
USER: genes 2 Torsion [N]-C--CA-[N] |==|  0.64233
USER: genes 3 Torsion [C]-CA--CB-[CG] |==|  0.30552
USER: genes 4 Torsion [CA]-CB--CG-[CD] |==|  0.60729
USER: genes 5 Torsion [CB]-CG--CD-[CE] |==|  0.27229
USER: genes 6 Torsion [CG]-CD--CE-[NZ] |==|  0.34253
USER: genes 7 Torsion [CD]-CE--NZ-[HZ2] |==|  0.77335
USER: genes 8 Torsion [C]-CA--N-[C] |==|  0.76667
USER: genes 9 Torsion [N]-C--CA-[N] |==|  0.56340
USER: genes 10 Torsion [C]-CA--N-[H1] |==|  0.78404
USER: genes 11 Torsion [C]-N--CA-[CB] |==|  0.84432
USER: genes 12 Torsion [N]-CA--C-[N] |==|  0.39688
USER: genes 13 Torsion [C]-N--CA-[CB] |==|  0.87209
USER: genes 14 Torsion [N]-CA--CB-[CG1] |==|  0.76298
USER: genes 15 Torsion [CA]-CB--CG1-[CD1] |==|  0.65731
USER: genes 16 Torsion [N]-CA--C-[N] |==|  0.35180
USER: genes 17 Torsion [C]-N--CA-[CB] |==|  0.38616
USER: genes 18 Torsion [N]-CA--C-[O] |==|  0.54778
ROOT
ATOM      1  C   LYS E 802     -11.703  24.692  33.814  1.00 51.37 LIG 0.24  C 
ATOM      2 O    LYS E 802     -11.307  25.684  33.211  1.00 54.76 LIG-0.27  OA
ATOM      3  N   ALA E 803     -12.975  24.296  33.806  1.00 53.01 LIG-0.35  N 
ATOM      4 H    ALA E 803     -13.237  23.564  34.172  1.00 53.01 LIG 0.16  HD
ENDROOT
BRANCH 1 5
ATOM      5  CA  LYS E 802     -10.733  23.838  34.638  1.00 50.80 LIG 0.18  C 
BRANCH 5 6
ATOM      6  CB  LYS E 802     -11.568  22.774  35.355  1.00 49.65 LIG 0.04  C 
BRANCH 6 7
ATOM      7  CG  LYS E 802     -11.379  21.374  34.853  1.00 48.72 LIG 0.00  C 
BRANCH 7 8
ATOM      8  CD  LYS E 802     -12.705  20.647  34.844  1.00 52.85 LIG 0.03  C 
BRANCH 8 9
ATOM      9  CE  LYS E 802     -13.320  20.662  33.465  1.00 52.25 LIG 0.23  C 
BRANCH 9 10
ATOM     10  NZ  LYS E 802     -13.590  19.287  32.980  1.00 53.26 LIG-0.08  N 
ATOM     11 HZ1  LYS E 802     -14.210  19.313  32.343  1.00 53.26 LIG 0.27  HD
ATOM     12 HZ2  LYS E 802     -12.842  18.936  32.650  1.00 53.26 LIG 0.27  HD
ATOM     13 HZ3  LYS E 802     -13.879  18.786  33.656  1.00 53.26 LIG 0.27  HD
ENDBRANCH 9 10
ENDBRANCH 8 9
ENDBRANCH 7 8
ENDBRANCH 6 7
ENDBRANCH 5 6
BRANCH 5 14
ATOM     14  N   LYS E 802      -9.849  24.462  35.623  1.00 51.06 LIG-0.35  N 
ATOM     15 H    LYS E 802     -10.134  24.457  36.434  1.00 51.06 LIG 0.16  HD
ATOM     16  C   ALA E 801      -8.686  24.986  35.217  1.00 50.59 LIG 0.25  C 
ATOM     17 O    ALA E 801      -8.352  25.019  34.032  1.00 51.18 LIG-0.27  OA
BRANCH 16 18
ATOM     18  CA  ALA E 801      -7.766  25.591  36.270  1.00 50.00 LIG 0.27  C 
ATOM     19  CB  ALA E 801      -8.603  26.275  37.363  1.00 45.45 LIG 0.05  C 
BRANCH 18 20
ATOM     20  N   ALA E 801      -6.840  26.574  35.656  1.00 50.21 LIG-0.07  N 
ATOM     21 H3   ALA E 801      -6.497  27.096  36.290  1.00 50.21 LIG 0.28  HD
ATOM     22 H2   ALA E 801      -7.284  27.075  35.069  1.00 50.21 LIG 0.28  HD
ATOM     23 H1   ALA E 801      -6.181  26.143  35.240  1.00 50.21 LIG 0.28  HD
ENDBRANCH 18 20
ENDBRANCH 16 18
ENDBRANCH 5 14
ENDBRANCH 1 5
BRANCH 3 24
ATOM     24  CA  ALA E 803     -14.064  25.057  33.176  1.00 57.29 LIG 0.17  C 
ATOM     25  CB  ALA E 803     -14.085  26.466  33.775  1.00 55.60 LIG 0.04  C 
BRANCH 24 26
ATOM     26  C   ALA E 803     -14.313  25.183  31.673  1.00 59.81 LIG 0.24  C 
ATOM     27 O    ALA E 803     -13.401  25.313  30.859  1.00 62.26 LIG-0.27  OA
ATOM     28  N   ILE E 804     -15.607  25.190  31.358  1.00 62.20 LIG-0.35  N 
ATOM     29 H    ILE E 804     -16.215  25.099  31.959  1.00 62.20 LIG 0.16  HD
BRANCH 28 30
ATOM     30  CA  ILE E 804     -16.178  25.344  30.019  1.00 63.57 LIG 0.18  C 
BRANCH 30 31
ATOM     31  CB  ILE E 804     -15.528  26.495  29.216  1.00 63.71 LIG 0.01  C 
ATOM     32  CG2 ILE E 804     -15.645  26.219  27.723  1.00 63.48 LIG 0.01  C 
BRANCH 31 33
ATOM     33  CG1 ILE E 804     -16.202  27.824  29.546  1.00 63.94 LIG 0.00  C 
ATOM     34  CD1 ILE E 804     -16.753  28.531  28.349  1.00 63.94 LIG 0.01  C 
ENDBRANCH 31 33
ENDBRANCH 30 31
BRANCH 30 35
ATOM     35  C   ILE E 804     -15.816  24.027  29.329  1.00 65.71 LIG 0.24  C 
ATOM     36  N   ALA E 805     -16.810  23.342  28.769  1.00 67.46 LIG-0.35  N 
ATOM     37 H    ALA E 805     -17.632  23.595  28.771  1.00 67.46 LIG 0.16  HD
ATOM     38 O    ILE E 804     -14.645  23.631  29.318  1.00 65.35 LIG-0.27  OA
BRANCH 36 39
ATOM     39  CA  ALA E 805     -16.566  22.070  28.091  1.00 69.21 LIG 0.16  C 
ATOM     40  CB  ALA E 805     -17.678  21.073  28.431  1.00 68.65 LIG 0.04  C 
BRANCH 39 41
ATOM     41  C   ALA E 805     -16.472  22.252  26.577  1.00 70.07 LIG 0.22  C 
ATOM     42 O    ALA E 805     -16.596  21.230  25.864  1.00 70.08 LIG-0.29  OA
ENDBRANCH 39 41
ENDBRANCH 36 39
ENDBRANCH 30 35
ENDBRANCH 28 30
ENDBRANCH 24 26
ENDBRANCH 3 24
TORSDOF 17
ENDMDL
MODEL 24
USER: ADFR SOLUTION from run 2
USER: SCORE 11.648241 LL:  -2.455 LR: -11.392 RR:   0.000 FEB:  -6.321
USER: RMSD 10.032921
USER: SEED 411954
USER: STATUS no improvement in best 32 clusters for 5 generations
USER: GENES 19
USER: genes 0 Translation |==|  0.41394 0.77965 0.41366
USER: genes 1 Rotation |==|  0.36665 0.12279 0.78070 0.60553
USER: genes 2 Torsion [N]-C--CA-[N] |==|  0.33602
USER: genes 3 Torsion [C]-CA--CB-[CG] |==|  0.41446
USER: genes 4 Torsion [CA]-CB--CG-[CD] |==|  0.73943
USER: genes 5 Torsion [CB]-CG--CD-[CE] |==|  0.71757
USER: genes 6 Torsion [CG]-CD--CE-[NZ] |==|  0.75482
USER: genes 7 Torsion [CD]-CE--NZ-[HZ2] |==|  0.77938
USER: genes 8 Torsion [C]-CA--N-[C] |==|  0.78448
USER: genes 9 Torsion [N]-C--CA-[N] |==|  0.09990
USER: genes 10 Torsion [C]-CA--N-[H1] |==|  0.99936
USER: genes 11 Torsion [C]-N--CA-[CB] |==|  0.25000
USER: genes 12 Torsion [N]-CA--C-[N] |==|  0.15722
USER: genes 13 Torsion [C]-N--CA-[CB] |==|  0.46164
USER: genes 14 Torsion [N]-CA--CB-[CG1] |==|  0.51805
USER: genes 15 Torsion [CA]-CB--CG1-[CD1] |==|  0.59203
USER: genes 16 Torsion [N]-CA--C-[N] |==|  0.43728
USER: genes 17 Torsion [C]-N--CA-[CB] |==|  0.21160
USER: genes 18 Torsion [N]-CA--C-[O] |==|  0.99306
ROOT
ATOM      1  C   LYS E 802     -15.422  29.950  31.890  1.00 51.37 LIG 0.24  C 
ATOM      2 O    LYS E 802     -14.357  30.481  31.590  1.00 54.76 LIG-0.27  OA
ATOM      3  N   ALA E 803     -15.553  29.116  32.920  1.00 53.01 LIG-0.35  N 
ATOM      4 H    ALA E 803     -16.313  28.800  33.170  1.00 53.01 LIG 0.16  HD
ENDROOT
BRANCH 1 5
ATOM      5  CA  LYS E 802     -16.689  30.217  31.069  1.00 50.80 LIG 0.18  C 
BRANCH 5 6
ATOM      6  CB  LYS E 802     -16.444  29.653  29.668  1.00 49.65 LIG 0.04  C 
BRANCH 6 7
ATOM      7  CG  LYS E 802     -17.667  29.150  28.962  1.00 48.72 LIG 0.00  C 
BRANCH 7 8
ATOM      8  CD  LYS E 802     -17.827  27.666  29.199  1.00 52.85 LIG 0.03  C 
BRANCH 8 9
ATOM      9  CE  LYS E 802     -17.364  26.874  28.000  1.00 52.25 LIG 0.23  C 
BRANCH 9 10
ATOM     10  NZ  LYS E 802     -18.465  26.680  27.025  1.00 53.26 LIG-0.08  N 
ATOM     11 HZ1  LYS E 802     -18.125  26.472  26.230  1.00 53.26 LIG 0.27  HD
ATOM     12 HZ2  LYS E 802     -18.994  26.020  27.302  1.00 53.26 LIG 0.27  HD
ATOM     13 HZ3  LYS E 802     -18.938  27.431  26.958  1.00 53.26 LIG 0.27  HD
ENDBRANCH 9 10
ENDBRANCH 8 9
ENDBRANCH 7 8
ENDBRANCH 6 7
ENDBRANCH 5 6
BRANCH 5 14
ATOM     14  N   LYS E 802     -17.207  31.578  30.927  1.00 51.06 LIG-0.35  N 
ATOM     15 H    LYS E 802     -17.041  31.962  30.177  1.00 51.06 LIG 0.16  HD
ATOM     16  C   ALA E 801     -17.887  32.126  31.942  1.00 50.59 LIG 0.25  C 
ATOM     17 O    ALA E 801     -18.045  31.553  33.020  1.00 51.18 LIG-0.27  OA
BRANCH 16 18
ATOM     18  CA  ALA E 801     -18.451  33.528  31.751  1.00 50.00 LIG 0.27  C 
ATOM     19  CB  ALA E 801     -19.620  33.756  32.725  1.00 45.45 LIG 0.05  C 
BRANCH 18 20
ATOM     20  N   ALA E 801     -18.913  33.724  30.355  1.00 50.21 LIG-0.07  N 
ATOM     21 H3   ALA E 801     -18.464  34.398  29.986  1.00 50.21 LIG 0.28  HD
ATOM     22 H2   ALA E 801     -19.783  33.912  30.353  1.00 50.21 LIG 0.28  HD
ATOM     23 H1   ALA E 801     -18.769  32.981  29.887  1.00 50.21 LIG 0.28  HD
ENDBRANCH 18 20
ENDBRANCH 16 18
ENDBRANCH 5 14
ENDBRANCH 1 5
BRANCH 3 24
ATOM     24  CA  ALA E 803     -14.427  28.647  33.742  1.00 57.29 LIG 0.17  C 
ATOM     25  CB  ALA E 803     -14.234  29.624  34.906  1.00 55.60 LIG 0.04  C 
BRANCH 24 26
ATOM     26  C   ALA E 803     -14.245  27.230  34.283  1.00 59.81 LIG 0.24  C 
ATOM     27 O    ALA E 803     -14.064  26.995  35.476  1.00 62.26 LIG-0.27  OA
ATOM     28  N   ILE E 804     -14.251  26.302  33.327  1.00 62.20 LIG-0.35  N 
ATOM     29 H    ILE E 804     -14.379  26.509  32.503  1.00 62.20 LIG 0.16  HD
BRANCH 28 30
ATOM     30  CA  ILE E 804     -14.054  24.863  33.508  1.00 63.57 LIG 0.18  C 
BRANCH 30 31
ATOM     31  CB  ILE E 804     -14.454  24.040  32.261  1.00 63.71 LIG 0.01  C 
ATOM     32  CG2 ILE E 804     -13.530  24.374  31.099  1.00 63.48 LIG 0.01  C 
BRANCH 31 33
ATOM     33  CG1 ILE E 804     -14.380  22.545  32.562  1.00 63.94 LIG 0.00  C 
ATOM     34  CD1 ILE E 804     -13.973  21.716  31.386  1.00 63.94 LIG 0.01  C 
ENDBRANCH 31 33
ENDBRANCH 30 31
BRANCH 30 35
ATOM     35  C   ILE E 804     -12.540  24.736  33.690  1.00 65.71 LIG 0.24  C 
ATOM     36  N   ALA E 805     -12.093  23.652  34.319  1.00 67.46 LIG-0.35  N 
ATOM     37 H    ALA E 805     -12.600  23.027  34.623  1.00 67.46 LIG 0.16  HD
ATOM     38 O    ILE E 804     -11.787  25.623  33.274  1.00 65.35 LIG-0.27  OA
BRANCH 36 39
ATOM     39  CA  ALA E 805     -10.664  23.442  34.546  1.00 69.21 LIG 0.16  C 
ATOM     40  CB  ALA E 805     -10.178  24.334  35.691  1.00 68.65 LIG 0.04  C 
BRANCH 39 41
ATOM     41  C   ALA E 805     -10.355  21.978  34.855  1.00 70.07 LIG 0.22  C 
ATOM     42 O    ALA E 805     -11.322  21.185  34.923  1.00 70.08 LIG-0.29  OA
ENDBRANCH 39 41
ENDBRANCH 36 39
ENDBRANCH 30 35
ENDBRANCH 28 30
ENDBRANCH 24 26
ENDBRANCH 3 24
TORSDOF 17
ENDMDL
MODEL 25
USER: ADFR SOLUTION from run 91
USER: SCORE 12.282117 LL:  -2.327 LR: -11.358 RR:   0.000 FEB:  -6.287
USER: RMSD 9.805939
USER: SEED 90
USER: STATUS no improvement in best 3 clusters for 5 generations
USER: GENES 19
USER: genes 0 Translation |==|  0.41484 0.77456 0.41272
USER: genes 1 Rotation |==|  0.39748 0.08919 0.76105 0.55078
USER: genes 2 Torsion [N]-C--CA-[N] |==|  0.87011
USER: genes 3 Torsion [C]-CA--CB-[CG] |==|  0.52910
USER: genes 4 Torsion [CA]-CB--CG-[CD] |==|  0.61023
USER: genes 5 Torsion [CB]-CG--CD-[CE] |==|  0.05081
USER: genes 6 Torsion [CG]-CD--CE-[NZ] |==|  0.28117
USER: genes 7 Torsion [CD]-CE--NZ-[HZ2] |==|  0.11884
USER: genes 8 Torsion [C]-CA--N-[C] |==|  0.64923
USER: genes 9 Torsion [N]-C--CA-[N] |==|  0.35400
USER: genes 10 Torsion [C]-CA--N-[H1] |==|  0.70194
USER: genes 11 Torsion [C]-N--CA-[CB] |==|  0.24536
USER: genes 12 Torsion [N]-CA--C-[N] |==|  0.05944
USER: genes 13 Torsion [C]-N--CA-[CB] |==|  0.53333
USER: genes 14 Torsion [N]-CA--CB-[CG1] |==|  0.48727
USER: genes 15 Torsion [CA]-CB--CG1-[CD1] |==|  0.48392
USER: genes 16 Torsion [N]-CA--C-[N] |==|  0.43220
USER: genes 17 Torsion [C]-N--CA-[CB] |==|  0.19307
USER: genes 18 Torsion [N]-CA--C-[O] |==|  0.04667
ROOT
ATOM      1  C   LYS E 802     -15.395  29.797  31.862  1.00 51.37 LIG 0.24  C 
ATOM      2 O    LYS E 802     -14.459  30.586  31.777  1.00 54.76 LIG-0.27  OA
ATOM      3  N   ALA E 803     -15.457  28.840  32.785  1.00 53.01 LIG-0.35  N 
ATOM      4 H    ALA E 803     -16.144  28.333  32.886  1.00 53.01 LIG 0.16  HD
ENDROOT
BRANCH 1 5
ATOM      5  CA  LYS E 802     -16.569  29.867  30.879  1.00 50.80 LIG 0.18  C 
BRANCH 5 6
ATOM      6  CB  LYS E 802     -17.735  30.526  31.618  1.00 49.65 LIG 0.04  C 
BRANCH 6 7
ATOM      7  CG  LYS E 802     -19.055  30.465  30.907  1.00 48.72 LIG 0.00  C 
BRANCH 7 8
ATOM      8  CD  LYS E 802     -19.793  31.773  31.079  1.00 52.85 LIG 0.03  C 
BRANCH 8 9
ATOM      9  CE  LYS E 802     -18.850  32.874  31.502  1.00 52.25 LIG 0.23  C 
BRANCH 9 10
ATOM     10  NZ  LYS E 802     -18.487  33.742  30.355  1.00 53.26 LIG-0.08  N 
ATOM     11 HZ1  LYS E 802     -17.883  33.329  29.849  1.00 53.26 LIG 0.27  HD
ATOM     12 HZ2  LYS E 802     -19.213  33.912  29.869  1.00 53.26 LIG 0.27  HD
ATOM     13 HZ3  LYS E 802     -18.147  34.507  30.657  1.00 53.26 LIG 0.27  HD
ENDBRANCH 9 10
ENDBRANCH 8 9
ENDBRANCH 7 8
ENDBRANCH 6 7
ENDBRANCH 5 6
BRANCH 5 14
ATOM     14  N   LYS E 802     -17.069  28.653  30.232  1.00 51.06 LIG-0.35  N 
ATOM     15 H    LYS E 802     -17.280  28.010  30.763  1.00 51.06 LIG 0.16  HD
ATOM     16  C   ALA E 801     -17.164  28.616  28.898  1.00 50.59 LIG 0.25  C 
ATOM     17 O    ALA E 801     -16.791  29.545  28.180  1.00 51.18 LIG-0.27  OA
BRANCH 16 18
ATOM     18  CA  ALA E 801     -17.727  27.355  28.254  1.00 50.00 LIG 0.27  C 
ATOM     19  CB  ALA E 801     -16.613  26.619  27.489  1.00 45.45 LIG 0.05  C 
BRANCH 18 20
ATOM     20  N   ALA E 801     -18.838  27.687  27.329  1.00 50.21 LIG-0.07  N 
ATOM     21 H3   ALA E 801     -18.722  27.259  26.559  1.00 50.21 LIG 0.28  HD
ATOM     22 H2   ALA E 801     -18.849  28.565  27.182  1.00 50.21 LIG 0.28  HD
ATOM     23 H1   ALA E 801     -19.611  27.438  27.693  1.00 50.21 LIG 0.28  HD
ENDBRANCH 18 20
ENDBRANCH 16 18
ENDBRANCH 5 14
ENDBRANCH 1 5
BRANCH 3 24
ATOM     24  CA  ALA E 803     -14.369  28.542  33.730  1.00 57.29 LIG 0.17  C 
ATOM     25  CB  ALA E 803     -14.548  29.423  34.970  1.00 55.60 LIG 0.04  C 
BRANCH 24 26
ATOM     26  C   ALA E 803     -13.949  27.150  34.199  1.00 59.81 LIG 0.24  C 
ATOM     27 O    ALA E 803     -13.284  26.967  35.216  1.00 62.26 LIG-0.27  OA
ATOM     28  N   ILE E 804     -14.331  26.182  33.367  1.00 62.20 LIG-0.35  N 
ATOM     29 H    ILE E 804     -14.794  26.354  32.663  1.00 62.20 LIG 0.16  HD
BRANCH 28 30
ATOM     30  CA  ILE E 804     -14.046  24.753  33.503  1.00 63.57 LIG 0.18  C 
BRANCH 30 31
ATOM     31  CB  ILE E 804     -14.378  23.949  32.225  1.00 63.71 LIG 0.01  C 
ATOM     32  CG2 ILE E 804     -13.664  24.559  31.026  1.00 63.48 LIG 0.01  C 
BRANCH 31 33
ATOM     33  CG1 ILE E 804     -13.956  22.491  32.386  1.00 63.94 LIG 0.00  C 
ATOM     34  CD1 ILE E 804     -14.368  21.617  31.244  1.00 63.94 LIG 0.01  C 
ENDBRANCH 31 33
ENDBRANCH 30 31
BRANCH 30 35
ATOM     35  C   ILE E 804     -12.529  24.715  33.702  1.00 65.71 LIG 0.24  C 
ATOM     36  N   ALA E 805     -12.026  23.658  34.335  1.00 67.46 LIG-0.35  N 
ATOM     37 H    ALA E 805     -12.499  23.003  34.631  1.00 67.46 LIG 0.16  HD
ATOM     38 O    ILE E 804     -11.825  25.645  33.295  1.00 65.35 LIG-0.27  OA
BRANCH 36 39
ATOM     39  CA  ALA E 805     -10.590  23.531  34.577  1.00 69.21 LIG 0.16  C 
ATOM     40  CB  ALA E 805     -10.141  24.565  35.613  1.00 68.65 LIG 0.04  C 
BRANCH 39 41
ATOM     41  C   ALA E 805     -10.223  22.125  35.047  1.00 70.07 LIG 0.22  C 
ATOM     42 O    ALA E 805     -11.063  21.215  34.859  1.00 70.08 LIG-0.29  OA
ENDBRANCH 39 41
ENDBRANCH 36 39
ENDBRANCH 30 35
ENDBRANCH 28 30
ENDBRANCH 24 26
ENDBRANCH 3 24
TORSDOF 17
ENDMDL
MODEL 26
USER: ADFR SOLUTION from run 127
USER: SCORE 11.638055 LL:  -2.303 LR: -11.361 RR:   0.000 FEB:  -6.290
USER: RMSD 10.009105
USER: SEED 126
USER: STATUS no improvement in best 3 clusters for 5 generations
USER: GENES 19
USER: genes 0 Translation |==|  0.38846 0.79158 0.30789
USER: genes 1 Rotation |==|  0.38229 0.38815 0.59531 0.96319
USER: genes 2 Torsion [N]-C--CA-[N] |==|  0.78210
USER: genes 3 Torsion [C]-CA--CB-[CG] |==|  0.43889
USER: genes 4 Torsion [CA]-CB--CG-[CD] |==|  0.73241
USER: genes 5 Torsion [CB]-CG--CD-[CE] |==|  0.48177
USER: genes 6 Torsion [CG]-CD--CE-[NZ] |==|  0.64131
USER: genes 7 Torsion [CD]-CE--NZ-[HZ2] |==|  0.99996
USER: genes 8 Torsion [C]-CA--N-[C] |==|  0.17791
USER: genes 9 Torsion [N]-C--CA-[N] |==|  0.07715
USER: genes 10 Torsion [C]-CA--N-[H1] |==|  0.31709
USER: genes 11 Torsion [C]-N--CA-[CB] |==|  0.82532
USER: genes 12 Torsion [N]-CA--C-[N] |==|  0.41427
USER: genes 13 Torsion [C]-N--CA-[CB] |==|  0.25478
USER: genes 14 Torsion [N]-CA--CB-[CG1] |==|  0.23403
USER: genes 15 Torsion [CA]-CB--CG1-[CD1] |==|  0.63065
USER: genes 16 Torsion [N]-CA--C-[N] |==|  0.44442
USER: genes 17 Torsion [C]-N--CA-[CB] |==|  0.18450
USER: genes 18 Torsion [N]-CA--C-[O] |==|  0.98824
ROOT
ATOM      1  C   LYS E 802     -16.186  30.307  28.717  1.00 51.37 LIG 0.24  C 
ATOM      2 O    LYS E 802     -16.245  30.225  27.494  1.00 54.76 LIG-0.27  OA
ATOM      3  N   ALA E 803     -16.433  29.281  29.527  1.00 53.01 LIG-0.35  N 
ATOM      4 H    ALA E 803     -16.324  29.323  30.379  1.00 53.01 LIG 0.16  HD
ENDROOT
BRANCH 1 5
ATOM      5  CA  LYS E 802     -15.823  31.634  29.395  1.00 50.80 LIG 0.18  C 
BRANCH 5 6
ATOM      6  CB  LYS E 802     -14.800  31.314  30.487  1.00 49.65 LIG 0.04  C 
BRANCH 6 7
ATOM      7  CG  LYS E 802     -13.943  32.469  30.913  1.00 48.72 LIG 0.00  C 
BRANCH 7 8
ATOM      8  CD  LYS E 802     -12.625  32.434  30.174  1.00 52.85 LIG 0.03  C 
BRANCH 8 9
ATOM      9  CE  LYS E 802     -11.810  33.670  30.464  1.00 52.25 LIG 0.23  C 
BRANCH 9 10
ATOM     10  NZ  LYS E 802     -11.340  34.312  29.212  1.00 53.26 LIG-0.08  N 
ATOM     11 HZ1  LYS E 802     -10.450  34.334  29.205  1.00 53.26 LIG 0.27  HD
ATOM     12 HZ2  LYS E 802     -11.629  33.844  28.512  1.00 53.26 LIG 0.27  HD
ATOM     13 HZ3  LYS E 802     -11.658  35.141  29.166  1.00 53.26 LIG 0.27  HD
ENDBRANCH 9 10
ENDBRANCH 8 9
ENDBRANCH 7 8
ENDBRANCH 6 7
ENDBRANCH 5 6
BRANCH 5 14
ATOM     14  N   LYS E 802     -16.865  32.477  29.980  1.00 51.06 LIG-0.35  N 
ATOM     15 H    LYS E 802     -16.967  33.248  29.614  1.00 51.06 LIG 0.16  HD
ATOM     16  C   ALA E 801     -17.574  32.014  31.017  1.00 50.59 LIG 0.25  C 
ATOM     17 O    ALA E 801     -17.345  30.924  31.542  1.00 51.18 LIG-0.27  OA
BRANCH 16 18
ATOM     18  CA  ALA E 801     -18.681  32.896  31.579  1.00 50.00 LIG 0.27  C 
ATOM     19  CB  ALA E 801     -19.808  32.019  32.151  1.00 45.45 LIG 0.05  C 
BRANCH 18 20
ATOM     20  N   ALA E 801     -19.225  33.792  30.529  1.00 50.21 LIG-0.07  N 
ATOM     21 H3   ALA E 801     -18.743  33.705  29.786  1.00 50.21 LIG 0.28  HD
ATOM     22 H2   ALA E 801     -19.186  34.636  30.809  1.00 50.21 LIG 0.28  HD
ATOM     23 H1   ALA E 801     -20.071  33.574  30.360  1.00 50.21 LIG 0.28  HD
ENDBRANCH 18 20
ENDBRANCH 16 18
ENDBRANCH 5 14
ENDBRANCH 1 5
BRANCH 3 24
ATOM     24  CA  ALA E 803     -16.915  27.970  29.064  1.00 57.29 LIG 0.17  C 
ATOM     25  CB  ALA E 803     -18.293  28.157  28.423  1.00 55.60 LIG 0.04  C 
BRANCH 24 26
ATOM     26  C   ALA E 803     -16.128  26.981  28.206  1.00 59.81 LIG 0.24  C 
ATOM     27 O    ALA E 803     -15.325  27.342  27.348  1.00 62.26 LIG-0.27  OA
ATOM     28  N   ILE E 804     -16.445  25.711  28.451  1.00 62.20 LIG-0.35  N 
ATOM     29 H    ILE E 804     -17.015  25.501  29.059  1.00 62.20 LIG 0.16  HD
BRANCH 28 30
ATOM     30  CA  ILE E 804     -15.910  24.531  27.769  1.00 63.57 LIG 0.18  C 
BRANCH 30 31
ATOM     31  CB  ILE E 804     -14.664  23.943  28.471  1.00 63.71 LIG 0.01  C 
ATOM     32  CG2 ILE E 804     -13.802  25.067  29.029  1.00 63.48 LIG 0.01  C 
BRANCH 31 33
ATOM     33  CG1 ILE E 804     -15.080  23.006  29.602  1.00 63.94 LIG 0.00  C 
ATOM     34  CD1 ILE E 804     -14.342  23.244  30.880  1.00 63.94 LIG 0.01  C 
ENDBRANCH 31 33
ENDBRANCH 30 31
BRANCH 30 35
ATOM     35  C   ILE E 804     -17.044  23.511  27.890  1.00 65.71 LIG 0.24  C 
ATOM     36  N   ALA E 805     -17.037  22.491  27.035  1.00 67.46 LIG-0.35  N 
ATOM     37 H    ALA E 805     -16.439  22.374  26.428  1.00 67.46 LIG 0.16  HD
ATOM     38 O    ILE E 804     -17.924  23.657  28.746  1.00 65.35 LIG-0.27  OA
BRANCH 36 39
ATOM     39  CA  ALA E 805     -18.080  21.467  27.069  1.00 69.21 LIG 0.16  C 
ATOM     40  CB  ALA E 805     -19.427  22.077  26.673  1.00 68.65 LIG 0.04  C 
BRANCH 39 41
ATOM     41  C   ALA E 805     -17.745  20.296  26.146  1.00 70.07 LIG 0.22  C 
ATOM     42 O    ALA E 805     -16.712  20.391  25.445  1.00 70.08 LIG-0.29  OA
ENDBRANCH 39 41
ENDBRANCH 36 39
ENDBRANCH 30 35
ENDBRANCH 28 30
ENDBRANCH 24 26
ENDBRANCH 3 24
TORSDOF 17
ENDMDL
MODEL 27
USER: ADFR SOLUTION from run 67
USER: SCORE 11.407492 LL:  -2.148 LR: -11.334 RR:   0.000 FEB:  -6.263
USER: RMSD 10.730848
USER: SEED 66
USER: STATUS no improvement in best 27 clusters for 5 generations
USER: GENES 19
USER: genes 0 Translation |==|  0.51214 0.49125 0.49374
USER: genes 1 Rotation |==|  0.16040 0.70276 0.80410 0.53297
USER: genes 2 Torsion [N]-C--CA-[N] |==|  0.37823
USER: genes 3 Torsion [C]-CA--CB-[CG] |==|  0.77238
USER: genes 4 Torsion [CA]-CB--CG-[CD] |==|  0.68169
USER: genes 5 Torsion [CB]-CG--CD-[CE] |==|  0.87638
USER: genes 6 Torsion [CG]-CD--CE-[NZ] |==|  0.42416
USER: genes 7 Torsion [CD]-CE--NZ-[HZ2] |==|  0.32049
USER: genes 8 Torsion [C]-CA--N-[C] |==|  0.67001
USER: genes 9 Torsion [N]-C--CA-[N] |==|  0.90646
USER: genes 10 Torsion [C]-CA--N-[H1] |==|  0.86159
USER: genes 11 Torsion [C]-N--CA-[CB] |==|  0.13333
USER: genes 12 Torsion [N]-CA--C-[N] |==|  0.52340
USER: genes 13 Torsion [C]-N--CA-[CB] |==|  0.20983
USER: genes 14 Torsion [N]-CA--CB-[CG1] |==|  0.53475
USER: genes 15 Torsion [CA]-CB--CG1-[CD1] |==|  0.10686
USER: genes 16 Torsion [N]-CA--C-[N] |==|  0.47788
USER: genes 17 Torsion [C]-N--CA-[CB] |==|  0.51144
USER: genes 18 Torsion [N]-CA--C-[O] |==|  0.47005
ROOT
ATOM      1  C   LYS E 802     -12.476  21.297  34.292  1.00 51.37 LIG 0.24  C 
ATOM      2 O    LYS E 802     -12.067  20.576  35.196  1.00 54.76 LIG-0.27  OA
ATOM      3  N   ALA E 803     -12.003  22.522  34.068  1.00 53.01 LIG-0.35  N 
ATOM      4 H    ALA E 803     -12.242  22.998  33.394  1.00 53.01 LIG 0.16  HD
ENDROOT
BRANCH 1 5
ATOM      5  CA  LYS E 802     -13.588  20.819  33.351  1.00 50.80 LIG 0.18  C 
BRANCH 5 6
ATOM      6  CB  LYS E 802     -14.914  21.005  34.092  1.00 49.65 LIG 0.04  C 
BRANCH 6 7
ATOM      7  CG  LYS E 802     -15.263  19.910  35.055  1.00 48.72 LIG 0.00  C 
BRANCH 7 8
ATOM      8  CD  LYS E 802     -16.501  19.182  34.580  1.00 52.85 LIG 0.03  C 
BRANCH 8 9
ATOM      9  CE  LYS E 802     -17.558  20.157  34.120  1.00 52.25 LIG 0.23  C 
BRANCH 9 10
ATOM     10  NZ  LYS E 802     -18.444  19.548  33.099  1.00 53.26 LIG-0.08  N 
ATOM     11 HZ1  LYS E 802     -18.148  18.734  32.895  1.00 53.26 LIG 0.27  HD
ATOM     12 HZ2  LYS E 802     -19.272  19.488  33.421  1.00 53.26 LIG 0.27  HD
ATOM     13 HZ3  LYS E 802     -18.446  20.054  32.367  1.00 53.26 LIG 0.27  HD
ENDBRANCH 9 10
ENDBRANCH 8 9
ENDBRANCH 7 8
ENDBRANCH 6 7
ENDBRANCH 5 6
BRANCH 5 14
ATOM     14  N   LYS E 802     -13.561  19.464  32.800  1.00 51.06 LIG-0.35  N 
ATOM     15 H    LYS E 802     -13.590  18.828  33.378  1.00 51.06 LIG 0.16  HD
ATOM     16  C   ALA E 801     -13.493  19.300  31.474  1.00 50.59 LIG 0.25  C 
ATOM     17 O    ALA E 801     -13.392  20.247  30.693  1.00 51.18 LIG-0.27  OA
BRANCH 16 18
ATOM     18  CA  ALA E 801     -13.509  17.878  30.925  1.00 50.00 LIG 0.27  C 
ATOM     19  CB  ALA E 801     -14.960  17.419  30.709  1.00 45.45 LIG 0.05  C 
BRANCH 18 20
ATOM     20  N   ALA E 801     -12.819  16.949  31.853  1.00 50.21 LIG-0.07  N 
ATOM     21 H3   ALA E 801     -12.707  16.161  31.456  1.00 50.21 LIG 0.28  HD
ATOM     22 H2   ALA E 801     -13.311  16.843  32.588  1.00 50.21 LIG 0.28  HD
ATOM     23 H1   ALA E 801     -12.025  17.284  32.074  1.00 50.21 LIG 0.28  HD
ENDBRANCH 18 20
ENDBRANCH 16 18
ENDBRANCH 5 14
ENDBRANCH 1 5
BRANCH 3 24
ATOM     24  CA  ALA E 803     -11.026  23.193  34.940  1.00 57.29 LIG 0.17  C 
ATOM     25  CB  ALA E 803      -9.880  22.220  35.229  1.00 55.60 LIG 0.04  C 
BRANCH 24 26
ATOM     26  C   ALA E 803     -10.419  24.576  34.703  1.00 59.81 LIG 0.24  C 
ATOM     27 O    ALA E 803     -10.784  25.310  33.787  1.00 62.26 LIG-0.27  OA
ATOM     28  N   ILE E 804      -9.433  24.865  35.550  1.00 62.20 LIG-0.35  N 
ATOM     29 H    ILE E 804      -9.207  24.321  36.176  1.00 62.20 LIG 0.16  HD
BRANCH 28 30
ATOM     30  CA  ILE E 804      -8.619  26.081  35.559  1.00 63.57 LIG 0.18  C 
BRANCH 30 31
ATOM     31  CB  ILE E 804      -9.371  27.305  36.132  1.00 63.71 LIG 0.01  C 
ATOM     32  CG2 ILE E 804      -9.549  27.150  37.635  1.00 63.48 LIG 0.01  C 
BRANCH 31 33
ATOM     33  CG1 ILE E 804      -8.603  28.591  35.836  1.00 63.94 LIG 0.00  C 
ATOM     34  CD1 ILE E 804      -7.965  28.612  34.484  1.00 63.94 LIG 0.01  C 
ENDBRANCH 31 33
ENDBRANCH 30 31
BRANCH 30 35
ATOM     35  C   ILE E 804      -7.481  25.735  36.522  1.00 65.71 LIG 0.24  C 
ATOM     36  N   ALA E 805      -6.477  26.603  36.612  1.00 67.46 LIG-0.35  N 
ATOM     37 H    ALA E 805      -6.433  27.338  36.168  1.00 67.46 LIG 0.16  HD
ATOM     38 O    ILE E 804      -7.511  24.681  37.167  1.00 65.35 LIG-0.27  OA
BRANCH 36 39
ATOM     39  CA  ALA E 805      -5.342  26.360  37.501  1.00 69.21 LIG 0.16  C 
ATOM     40  CB  ALA E 805      -4.393  27.562  37.480  1.00 68.65 LIG 0.04  C 
BRANCH 39 41
ATOM     41  C   ALA E 805      -5.800  26.079  38.931  1.00 70.07 LIG 0.22  C 
ATOM     42 O    ALA E 805      -4.942  25.654  39.739  1.00 70.08 LIG-0.29  OA
ENDBRANCH 39 41
ENDBRANCH 36 39
ENDBRANCH 30 35
ENDBRANCH 28 30
ENDBRANCH 24 26
ENDBRANCH 3 24
TORSDOF 17
ENDMDL
MODEL 28
USER: ADFR SOLUTION from run 143
USER: SCORE 11.656434 LL:  -1.957 LR: -11.332 RR:   0.000 FEB:  -6.261
USER: RMSD 10.206515
USER: SEED 142
USER: STATUS no improvement in best 32 clusters for 5 generations
USER: GENES 19
USER: genes 0 Translation |==|  0.38814 0.77915 0.30485
USER: genes 1 Rotation |==|  0.45027 0.51483 0.66249 0.97000
USER: genes 2 Torsion [N]-C--CA-[N] |==|  0.43102
USER: genes 3 Torsion [C]-CA--CB-[CG] |==|  0.45456
USER: genes 4 Torsion [CA]-CB--CG-[CD] |==|  0.44139
USER: genes 5 Torsion [CB]-CG--CD-[CE] |==|  0.73592
USER: genes 6 Torsion [CG]-CD--CE-[NZ] |==|  0.15087
USER: genes 7 Torsion [CD]-CE--NZ-[HZ2] |==|  0.15416
USER: genes 8 Torsion [C]-CA--N-[C] |==|  0.61135
USER: genes 9 Torsion [N]-C--CA-[N] |==|  0.85313
USER: genes 10 Torsion [C]-CA--N-[H1] |==|  0.98094
USER: genes 11 Torsion [C]-N--CA-[CB] |==|  0.20084
USER: genes 12 Torsion [N]-CA--C-[N] |==|  0.58431
USER: genes 13 Torsion [C]-N--CA-[CB] |==|  0.51667
USER: genes 14 Torsion [N]-CA--CB-[CG1] |==|  0.89745
USER: genes 15 Torsion [CA]-CB--CG1-[CD1] |==|  0.71332
USER: genes 16 Torsion [N]-CA--C-[N] |==|  0.28196
USER: genes 17 Torsion [C]-N--CA-[CB] |==|  0.78660
USER: genes 18 Torsion [N]-CA--C-[O] |==|  0.39305
ROOT
ATOM      1  C   LYS E 802     -16.196  29.934  28.626  1.00 51.37 LIG 0.24  C 
ATOM      2 O    LYS E 802     -16.929  29.893  27.642  1.00 54.76 LIG-0.27  OA
ATOM      3  N   ALA E 803     -15.783  28.846  29.272  1.00 53.01 LIG-0.35  N 
ATOM      4 H    ALA E 803     -15.216  28.874  29.917  1.00 53.01 LIG 0.16  HD
ENDROOT
BRANCH 1 5
ATOM      5  CA  LYS E 802     -15.709  31.277  29.182  1.00 50.80 LIG 0.18  C 
BRANCH 5 6
ATOM      6  CB  LYS E 802     -16.612  31.628  30.366  1.00 49.65 LIG 0.04  C 
BRANCH 6 7
ATOM      7  CG  LYS E 802     -16.080  32.692  31.279  1.00 48.72 LIG 0.00  C 
BRANCH 7 8
ATOM      8  CD  LYS E 802     -17.213  33.310  32.065  1.00 52.85 LIG 0.03  C 
BRANCH 8 9
ATOM      9  CE  LYS E 802     -17.716  34.564  31.392  1.00 52.25 LIG 0.23  C 
BRANCH 9 10
ATOM     10  NZ  LYS E 802     -18.090  34.304  29.980  1.00 53.26 LIG-0.08  N 
ATOM     11 HZ1  LYS E 802     -17.366  34.071  29.519  1.00 53.26 LIG 0.27  HD
ATOM     12 HZ2  LYS E 802     -18.686  33.644  29.947  1.00 53.26 LIG 0.27  HD
ATOM     13 HZ3  LYS E 802     -18.442  35.040  29.626  1.00 53.26 LIG 0.27  HD
ENDBRANCH 9 10
ENDBRANCH 8 9
ENDBRANCH 7 8
ENDBRANCH 6 7
ENDBRANCH 5 6
BRANCH 5 14
ATOM     14  N   LYS E 802     -15.621  32.452  28.313  1.00 51.06 LIG-0.35  N 
ATOM     15 H    LYS E 802     -16.267  32.548  27.754  1.00 51.06 LIG 0.16  HD
ATOM     16  C   ALA E 801     -14.576  33.279  28.437  1.00 50.59 LIG 0.25  C 
ATOM     17 O    ALA E 801     -13.647  33.061  29.215  1.00 51.18 LIG-0.27  OA
BRANCH 16 18
ATOM     18  CA  ALA E 801     -14.532  34.516  27.549  1.00 50.00 LIG 0.27  C 
ATOM     19  CB  ALA E 801     -15.640  35.498  27.967  1.00 45.45 LIG 0.05  C 
BRANCH 18 20
ATOM     20  N   ALA E 801     -14.699  34.146  26.122  1.00 50.21 LIG-0.07  N 
ATOM     21 H3   ALA E 801     -14.031  34.489  25.646  1.00 50.21 LIG 0.28  HD
ATOM     22 H2   ALA E 801     -15.473  34.467  25.820  1.00 50.21 LIG 0.28  HD
ATOM     23 H1   ALA E 801     -14.695  33.259  26.043  1.00 50.21 LIG 0.28  HD
ENDBRANCH 18 20
ENDBRANCH 16 18
ENDBRANCH 5 14
ENDBRANCH 1 5
BRANCH 3 24
ATOM     24  CA  ALA E 803     -16.246  27.485  28.960  1.00 57.29 LIG 0.17  C 
ATOM     25  CB  ALA E 803     -15.620  27.050  27.631  1.00 55.60 LIG 0.04  C 
BRANCH 24 26
ATOM     26  C   ALA E 803     -16.208  26.288  29.910  1.00 59.81 LIG 0.24  C 
ATOM     27 O    ALA E 803     -16.261  26.411  31.132  1.00 62.26 LIG-0.27  OA
ATOM     28  N   ILE E 804     -16.058  25.125  29.278  1.00 62.20 LIG-0.35  N 
ATOM     29 H    ILE E 804     -16.022  25.083  28.420  1.00 62.20 LIG 0.16  HD
BRANCH 28 30
ATOM     30  CA  ILE E 804     -15.937  23.805  29.898  1.00 63.57 LIG 0.18  C 
BRANCH 30 31
ATOM     31  CB  ILE E 804     -15.627  22.686  28.878  1.00 63.71 LIG 0.01  C 
ATOM     32  CG2 ILE E 804     -16.039  21.335  29.445  1.00 63.48 LIG 0.01  C 
BRANCH 31 33
ATOM     33  CG1 ILE E 804     -16.368  22.938  27.566  1.00 63.94 LIG 0.00  C 
ATOM     34  CD1 ILE E 804     -17.575  22.076  27.383  1.00 63.94 LIG 0.01  C 
ENDBRANCH 31 33
ENDBRANCH 30 31
BRANCH 30 35
ATOM     35  C   ILE E 804     -14.719  23.957  30.813  1.00 65.71 LIG 0.24  C 
ATOM     36  N   ALA E 805     -14.953  24.136  32.111  1.00 67.46 LIG-0.35  N 
ATOM     37 H    ALA E 805     -15.739  24.168  32.460  1.00 67.46 LIG 0.16  HD
ATOM     38 O    ILE E 804     -13.578  23.925  30.340  1.00 65.35 LIG-0.27  OA
BRANCH 36 39
ATOM     39  CA  ALA E 805     -13.857  24.295  33.064  1.00 69.21 LIG 0.16  C 
ATOM     40  CB  ALA E 805     -13.216  22.936  33.359  1.00 68.65 LIG 0.04  C 
BRANCH 39 41
ATOM     41  C   ALA E 805     -12.801  25.270  32.546  1.00 70.07 LIG 0.22  C 
ATOM     42 O    ALA E 805     -12.275  26.046  33.377  1.00 70.08 LIG-0.29  OA
ENDBRANCH 39 41
ENDBRANCH 36 39
ENDBRANCH 30 35
ENDBRANCH 28 30
ENDBRANCH 24 26
ENDBRANCH 3 24
TORSDOF 17
ENDMDL
MODEL 29
USER: ADFR SOLUTION from run 113
USER: SCORE 12.800460 LL:  -2.462 LR: -11.306 RR:   0.000 FEB:  -6.234
USER: RMSD 9.560216
USER: SEED 112
USER: STATUS no improvement in best 4 clusters for 5 generations
USER: GENES 19
USER: genes 0 Translation |==|  0.38594 0.59041 0.32327
USER: genes 1 Rotation |==|  0.34589 0.91864 0.62325 0.68920
USER: genes 2 Torsion [N]-C--CA-[N] |==|  0.42080
USER: genes 3 Torsion [C]-CA--CB-[CG] |==|  0.74493
USER: genes 4 Torsion [CA]-CB--CG-[CD] |==|  0.44201
USER: genes 5 Torsion [CB]-CG--CD-[CE] |==|  0.31439
USER: genes 6 Torsion [CG]-CD--CE-[NZ] |==|  0.58034
USER: genes 7 Torsion [CD]-CE--NZ-[HZ2] |==|  0.33806
USER: genes 8 Torsion [C]-CA--N-[C] |==|  0.84006
USER: genes 9 Torsion [N]-C--CA-[N] |==|  0.34393
USER: genes 10 Torsion [C]-CA--N-[H1] |==|  0.56945
USER: genes 11 Torsion [C]-N--CA-[CB] |==|  0.79187
USER: genes 12 Torsion [N]-CA--C-[N] |==|  0.51620
USER: genes 13 Torsion [C]-N--CA-[CB] |==|  0.20549
USER: genes 14 Torsion [N]-CA--CB-[CG1] |==|  0.02635
USER: genes 15 Torsion [CA]-CB--CG1-[CD1] |==|  0.40900
USER: genes 16 Torsion [N]-CA--C-[N] |==|  0.09406
USER: genes 17 Torsion [C]-N--CA-[CB] |==|  0.14538
USER: genes 18 Torsion [N]-CA--C-[O] |==|  0.84566
ROOT
ATOM      1  C   LYS E 802     -16.262  24.272  29.178  1.00 51.37 LIG 0.24  C 
ATOM      2 O    LYS E 802     -16.884  24.212  30.234  1.00 54.76 LIG-0.27  OA
ATOM      3  N   ALA E 803     -15.008  23.843  29.047  1.00 53.01 LIG-0.35  N 
ATOM      4 H    ALA E 803     -14.599  23.823  28.291  1.00 53.01 LIG 0.16  HD
ENDROOT
BRANCH 1 5
ATOM      5  CA  LYS E 802     -16.908  24.868  27.922  1.00 50.80 LIG 0.18  C 
BRANCH 5 6
ATOM      6  CB  LYS E 802     -16.491  26.338  27.856  1.00 49.65 LIG 0.04  C 
BRANCH 6 7
ATOM      7  CG  LYS E 802     -17.435  27.297  28.519  1.00 48.72 LIG 0.00  C 
BRANCH 7 8
ATOM      8  CD  LYS E 802     -16.716  28.586  28.844  1.00 52.85 LIG 0.03  C 
BRANCH 8 9
ATOM      9  CE  LYS E 802     -17.255  29.730  28.019  1.00 52.25 LIG 0.23  C 
BRANCH 9 10
ATOM     10  NZ  LYS E 802     -16.215  30.760  27.781  1.00 53.26 LIG-0.08  N 
ATOM     11 HZ1  LYS E 802     -15.449  30.500  28.151  1.00 53.26 LIG 0.27  HD
ATOM     12 HZ2  LYS E 802     -16.098  30.867  26.905  1.00 53.26 LIG 0.27  HD
ATOM     13 HZ3  LYS E 802     -16.472  31.531  28.143  1.00 53.26 LIG 0.27  HD
ENDBRANCH 9 10
ENDBRANCH 8 9
ENDBRANCH 7 8
ENDBRANCH 6 7
ENDBRANCH 5 6
BRANCH 5 14
ATOM     14  N   LYS E 802     -18.357  24.797  27.730  1.00 51.06 LIG-0.35  N 
ATOM     15 H    LYS E 802     -18.755  25.552  27.626  1.00 51.06 LIG 0.16  HD
ATOM     16  C   ALA E 801     -18.957  23.600  27.727  1.00 50.59 LIG 0.25  C 
ATOM     17 O    ALA E 801     -18.347  22.552  27.941  1.00 51.18 LIG-0.27  OA
BRANCH 16 18
ATOM     18  CA  ALA E 801     -20.460  23.553  27.482  1.00 50.00 LIG 0.27  C 
ATOM     19  CB  ALA E 801     -21.178  23.039  28.742  1.00 45.45 LIG 0.05  C 
BRANCH 18 20
ATOM     20  N   ALA E 801     -20.778  22.676  26.328  1.00 50.21 LIG-0.07  N 
ATOM     21 H3   ALA E 801     -20.834  21.832  26.604  1.00 50.21 LIG 0.28  HD
ATOM     22 H2   ALA E 801     -20.135  22.745  25.716  1.00 50.21 LIG 0.28  HD
ATOM     23 H1   ALA E 801     -21.555  22.923  25.972  1.00 50.21 LIG 0.28  HD
ENDBRANCH 18 20
ENDBRANCH 16 18
ENDBRANCH 5 14
ENDBRANCH 1 5
BRANCH 3 24
ATOM     24  CA  ALA E 803     -14.188  23.358  30.168  1.00 57.29 LIG 0.17  C 
ATOM     25  CB  ALA E 803     -13.734  24.563  30.997  1.00 55.60 LIG 0.04  C 
BRANCH 24 26
ATOM     26  C   ALA E 803     -14.571  22.239  31.137  1.00 59.81 LIG 0.24  C 
ATOM     27 O    ALA E 803     -15.608  21.590  31.021  1.00 62.26 LIG-0.27  OA
ATOM     28  N   ILE E 804     -13.697  22.089  32.130  1.00 62.20 LIG-0.35  N 
ATOM     29 H    ILE E 804     -12.984  22.566  32.176  1.00 62.20 LIG 0.16  HD
BRANCH 28 30
ATOM     30  CA  ILE E 804     -13.797  21.143  33.243  1.00 63.57 LIG 0.18  C 
BRANCH 30 31
ATOM     31  CB  ILE E 804     -13.504  19.685  32.823  1.00 63.71 LIG 0.01  C 
ATOM     32  CG2 ILE E 804     -14.776  18.853  32.909  1.00 63.48 LIG 0.01  C 
BRANCH 31 33
ATOM     33  CG1 ILE E 804     -12.957  19.638  31.398  1.00 63.94 LIG 0.00  C 
ATOM     34  CD1 ILE E 804     -11.974  18.536  31.169  1.00 63.94 LIG 0.01  C 
ENDBRANCH 31 33
ENDBRANCH 30 31
BRANCH 30 35
ATOM     35  C   ILE E 804     -12.680  21.594  34.188  1.00 65.71 LIG 0.24  C 
ATOM     36  N   ALA E 805     -12.421  22.897  34.244  1.00 67.46 LIG-0.35  N 
ATOM     37 H    ALA E 805     -12.841  23.493  33.787  1.00 67.46 LIG 0.16  HD
ATOM     38 O    ILE E 804     -12.052  20.760  34.850  1.00 65.35 LIG-0.27  OA
BRANCH 36 39
ATOM     39  CA  ALA E 805     -11.371  23.425  35.112  1.00 69.21 LIG 0.16  C 
ATOM     40  CB  ALA E 805     -10.055  22.685  34.854  1.00 68.65 LIG 0.04  C 
BRANCH 39 41
ATOM     41  C   ALA E 805     -11.175  24.926  34.908  1.00 70.07 LIG 0.22  C 
ATOM     42 O    ALA E 805     -10.932  25.324  33.745  1.00 70.08 LIG-0.29  OA
ENDBRANCH 39 41
ENDBRANCH 36 39
ENDBRANCH 30 35
ENDBRANCH 28 30
ENDBRANCH 24 26
ENDBRANCH 3 24
TORSDOF 17
ENDMDL
MODEL 30
USER: ADFR SOLUTION from run 142
USER: SCORE 13.436010 LL:  -2.743 LR: -11.304 RR:   0.000 FEB:  -6.233
USER: RMSD 9.417418
USER: SEED 141
USER: STATUS no improvement in best 10 clusters for 5 generations
USER: GENES 19
USER: genes 0 Translation |==|  0.44395 0.60003 0.41632
USER: genes 1 Rotation |==|  0.07739 0.61440 0.72636 0.58414
USER: genes 2 Torsion [N]-C--CA-[N] |==|  0.03224
USER: genes 3 Torsion [C]-CA--CB-[CG] |==|  0.26216
USER: genes 4 Torsion [CA]-CB--CG-[CD] |==|  0.69408
USER: genes 5 Torsion [CB]-CG--CD-[CE] |==|  0.69069
USER: genes 6 Torsion [CG]-CD--CE-[NZ] |==|  0.52613
USER: genes 7 Torsion [CD]-CE--NZ-[HZ2] |==|  0.31178
USER: genes 8 Torsion [C]-CA--N-[C] |==|  0.70257
USER: genes 9 Torsion [N]-C--CA-[N] |==|  0.35422
USER: genes 10 Torsion [C]-CA--N-[H1] |==|  0.23803
USER: genes 11 Torsion [C]-N--CA-[CB] |==|  0.81413
USER: genes 12 Torsion [N]-CA--C-[N] |==|  0.88247
USER: genes 13 Torsion [C]-N--CA-[CB] |==|  0.51989
USER: genes 14 Torsion [N]-CA--CB-[CG1] |==|  0.78158
USER: genes 15 Torsion [CA]-CB--CG1-[CD1] |==|  0.39933
USER: genes 16 Torsion [N]-CA--C-[N] |==|  0.42244
USER: genes 17 Torsion [C]-N--CA-[CB] |==|  0.84330
USER: genes 18 Torsion [N]-CA--C-[O] |==|  0.64653
ROOT
ATOM      1  C   LYS E 802     -14.522  24.561  31.970  1.00 51.37 LIG 0.24  C 
ATOM      2 O    LYS E 802     -14.408  23.710  32.846  1.00 54.76 LIG-0.27  OA
ATOM      3  N   ALA E 803     -14.353  25.862  32.194  1.00 53.01 LIG-0.35  N 
ATOM      4 H    ALA E 803     -14.365  26.449  31.565  1.00 53.01 LIG 0.16  HD
ENDROOT
BRANCH 1 5
ATOM      5  CA  LYS E 802     -14.880  24.162  30.533  1.00 50.80 LIG 0.18  C 
BRANCH 5 6
ATOM      6  CB  LYS E 802     -14.017  22.951  30.174  1.00 49.65 LIG 0.04  C 
BRANCH 6 7
ATOM      7  CG  LYS E 802     -14.665  21.618  30.401  1.00 48.72 LIG 0.00  C 
BRANCH 7 8
ATOM      8  CD  LYS E 802     -14.000  20.912  31.561  1.00 52.85 LIG 0.03  C 
BRANCH 8 9
ATOM      9  CE  LYS E 802     -13.227  19.705  31.087  1.00 52.25 LIG 0.23  C 
BRANCH 9 10
ATOM     10  NZ  LYS E 802     -12.760  18.883  32.230  1.00 53.26 LIG-0.08  N 
ATOM     11 HZ1  LYS E 802     -12.927  19.311  32.992  1.00 53.26 LIG 0.27  HD
ATOM     12 HZ2  LYS E 802     -13.189  18.103  32.229  1.00 53.26 LIG 0.27  HD
ATOM     13 HZ3  LYS E 802     -11.885  18.740  32.155  1.00 53.26 LIG 0.27  HD
ENDBRANCH 9 10
ENDBRANCH 8 9
ENDBRANCH 7 8
ENDBRANCH 6 7
ENDBRANCH 5 6
BRANCH 5 14
ATOM     14  N   LYS E 802     -14.775  25.135  29.445  1.00 51.06 LIG-0.35  N 
ATOM     15 H    LYS E 802     -13.975  25.332  29.200  1.00 51.06 LIG 0.16  HD
ATOM     16  C   ALA E 801     -15.893  25.644  28.915  1.00 50.59 LIG 0.25  C 
ATOM     17 O    ALA E 801     -17.015  25.373  29.345  1.00 51.18 LIG-0.27  OA
BRANCH 16 18
ATOM     18  CA  ALA E 801     -15.755  26.623  27.755  1.00 50.00 LIG 0.27  C 
ATOM     19  CB  ALA E 801     -16.170  28.032  28.210  1.00 45.45 LIG 0.05  C 
BRANCH 18 20
ATOM     20  N   ALA E 801     -16.591  26.198  26.606  1.00 50.21 LIG-0.07  N 
ATOM     21 H3   ALA E 801     -16.613  25.310  26.567  1.00 50.21 LIG 0.28  HD
ATOM     22 H2   ALA E 801     -16.245  26.520  25.851  1.00 50.21 LIG 0.28  HD
ATOM     23 H1   ALA E 801     -17.419  26.509  26.709  1.00 50.21 LIG 0.28  HD
ENDBRANCH 18 20
ENDBRANCH 16 18
ENDBRANCH 5 14
ENDBRANCH 1 5
BRANCH 3 24
ATOM     24  CA  ALA E 803     -14.128  26.441  33.528  1.00 57.29 LIG 0.17  C 
ATOM     25  CB  ALA E 803     -15.401  26.255  34.359  1.00 55.60 LIG 0.04  C 
BRANCH 24 26
ATOM     26  C   ALA E 803     -12.930  26.158  34.434  1.00 59.81 LIG 0.24  C 
ATOM     27 O    ALA E 803     -12.327  27.047  35.030  1.00 62.26 LIG-0.27  OA
ATOM     28  N   ILE E 804     -12.588  24.871  34.459  1.00 62.20 LIG-0.35  N 
ATOM     29 H    ILE E 804     -13.035  24.280  34.024  1.00 62.20 LIG 0.16  HD
BRANCH 28 30
ATOM     30  CA  ILE E 804     -11.462  24.282  35.186  1.00 63.57 LIG 0.18  C 
BRANCH 30 31
ATOM     31  CB  ILE E 804     -11.248  22.787  34.856  1.00 63.71 LIG 0.01  C 
ATOM     32  CG2 ILE E 804      -9.833  22.369  35.230  1.00 63.48 LIG 0.01  C 
BRANCH 31 33
ATOM     33  CG1 ILE E 804     -12.254  21.923  35.612  1.00 63.94 LIG 0.00  C 
ATOM     34  CD1 ILE E 804     -12.733  20.739  34.834  1.00 63.94 LIG 0.01  C 
ENDBRANCH 31 33
ENDBRANCH 30 31
BRANCH 30 35
ATOM     35  C   ILE E 804     -10.255  25.059  34.654  1.00 65.71 LIG 0.24  C 
ATOM     36  N   ALA E 805      -9.208  25.185  35.465  1.00 67.46 LIG-0.35  N 
ATOM     37 H    ALA E 805      -9.171  24.857  36.259  1.00 67.46 LIG 0.16  HD
ATOM     38 O    ILE E 804     -10.282  25.550  33.520  1.00 65.35 LIG-0.27  OA
BRANCH 36 39
ATOM     39  CA  ALA E 805      -8.010  25.912  35.050  1.00 69.21 LIG 0.16  C 
ATOM     40  CB  ALA E 805      -7.454  25.312  33.756  1.00 68.65 LIG 0.04  C 
BRANCH 39 41
ATOM     41  C   ALA E 805      -8.297  27.400  34.855  1.00 70.07 LIG 0.22  C 
ATOM     42 O    ALA E 805      -7.965  27.914  33.762  1.00 70.08 LIG-0.29  OA
ENDBRANCH 39 41
ENDBRANCH 36 39
ENDBRANCH 30 35
ENDBRANCH 28 30
ENDBRANCH 24 26
ENDBRANCH 3 24
TORSDOF 17
ENDMDL
MODEL 31
USER: ADFR SOLUTION from run 82
USER: SCORE 12.621877 LL:  -2.422 LR: -11.304 RR:   0.000 FEB:  -6.233
USER: RMSD 10.714169
USER: SEED 81
USER: STATUS no improvement in best 5 clusters for 5 generations
USER: GENES 19
USER: genes 0 Translation |==|  0.38721 0.79790 0.33265
USER: genes 1 Rotation |==|  0.30902 0.49323 0.55666 0.95855
USER: genes 2 Torsion [N]-C--CA-[N] |==|  0.56603
USER: genes 3 Torsion [C]-CA--CB-[CG] |==|  0.69056
USER: genes 4 Torsion [CA]-CB--CG-[CD] |==|  0.40004
USER: genes 5 Torsion [CB]-CG--CD-[CE] |==|  0.76721
USER: genes 6 Torsion [CG]-CD--CE-[NZ] |==|  0.89523
USER: genes 7 Torsion [CD]-CE--NZ-[HZ2] |==|  0.62284
USER: genes 8 Torsion [C]-CA--N-[C] |==|  0.57325
USER: genes 9 Torsion [N]-C--CA-[N] |==|  0.81036
USER: genes 10 Torsion [C]-CA--N-[H1] |==|  0.65584
USER: genes 11 Torsion [C]-N--CA-[CB] |==|  0.80358
USER: genes 12 Torsion [N]-CA--C-[N] |==|  0.21412
USER: genes 13 Torsion [C]-N--CA-[CB] |==|  0.18321
USER: genes 14 Torsion [N]-CA--CB-[CG1] |==|  0.04412
USER: genes 15 Torsion [CA]-CB--CG1-[CD1] |==|  0.69000
USER: genes 16 Torsion [N]-CA--C-[N] |==|  0.08412
USER: genes 17 Torsion [C]-N--CA-[CB] |==|  0.81722
USER: genes 18 Torsion [N]-CA--C-[O] |==|  0.39983
ROOT
ATOM      1  C   LYS E 802     -16.224  30.497  29.460  1.00 51.37 LIG 0.24  C 
ATOM      2 O    LYS E 802     -16.703  30.118  28.395  1.00 54.76 LIG-0.27  OA
ATOM      3  N   ALA E 803     -16.433  29.870  30.615  1.00 53.01 LIG-0.35  N 
ATOM      4 H    ALA E 803     -16.041  30.097  31.346  1.00 53.01 LIG 0.16  HD
ENDROOT
BRANCH 1 5
ATOM      5  CA  LYS E 802     -15.341  31.749  29.519  1.00 50.80 LIG 0.18  C 
BRANCH 5 6
ATOM      6  CB  LYS E 802     -15.583  32.406  30.879  1.00 49.65 LIG 0.04  C 
BRANCH 6 7
ATOM      7  CG  LYS E 802     -16.300  33.722  30.832  1.00 48.72 LIG 0.00  C 
BRANCH 7 8
ATOM      8  CD  LYS E 802     -17.221  33.849  32.024  1.00 52.85 LIG 0.03  C 
BRANCH 8 9
ATOM      9  CE  LYS E 802     -18.542  33.167  31.761  1.00 52.25 LIG 0.23  C 
BRANCH 9 10
ATOM     10  NZ  LYS E 802     -18.975  33.356  30.355  1.00 53.26 LIG-0.08  N 
ATOM     11 HZ1  LYS E 802     -18.840  32.604  29.899  1.00 53.26 LIG 0.27  HD
ATOM     12 HZ2  LYS E 802     -19.841  33.561  30.336  1.00 53.26 LIG 0.27  HD
ATOM     13 HZ3  LYS E 802     -18.506  34.015  29.986  1.00 53.26 LIG 0.27  HD
ENDBRANCH 9 10
ENDBRANCH 8 9
ENDBRANCH 7 8
ENDBRANCH 6 7
ENDBRANCH 5 6
BRANCH 5 14
ATOM     14  N   LYS E 802     -15.452  32.783  28.489  1.00 51.06 LIG-0.35  N 
ATOM     15 H    LYS E 802     -16.215  32.836  28.097  1.00 51.06 LIG 0.16  HD
ATOM     16  C   ALA E 801     -14.394  33.560  28.227  1.00 50.59 LIG 0.25  C 
ATOM     17 O    ALA E 801     -13.303  33.402  28.778  1.00 51.18 LIG-0.27  OA
BRANCH 16 18
ATOM     18  CA  ALA E 801     -14.550  34.656  27.180  1.00 50.00 LIG 0.27  C 
ATOM     19  CB  ALA E 801     -15.765  35.534  27.522  1.00 45.45 LIG 0.05  C 
BRANCH 18 20
ATOM     20  N   ALA E 801     -14.715  34.070  25.827  1.00 50.21 LIG-0.07  N 
ATOM     21 H3   ALA E 801     -15.519  34.279  25.510  1.00 50.21 LIG 0.28  HD
ATOM     22 H2   ALA E 801     -14.636  33.185  25.874  1.00 50.21 LIG 0.28  HD
ATOM     23 H1   ALA E 801     -14.089  34.396  25.284  1.00 50.21 LIG 0.28  HD
ENDBRANCH 18 20
ENDBRANCH 16 18
ENDBRANCH 5 14
ENDBRANCH 1 5
BRANCH 3 24
ATOM     24  CA  ALA E 803     -17.348  28.729  30.773  1.00 57.29 LIG 0.17  C 
ATOM     25  CB  ALA E 803     -18.787  29.237  30.641  1.00 55.60 LIG 0.04  C 
BRANCH 24 26
ATOM     26  C   ALA E 803     -17.251  27.396  30.032  1.00 59.81 LIG 0.24  C 
ATOM     27 O    ALA E 803     -18.011  27.092  29.115  1.00 62.26 LIG-0.27  OA
ATOM     28  N   ILE E 804     -16.303  26.597  30.518  1.00 62.20 LIG-0.35  N 
ATOM     29 H    ILE E 804     -15.793  26.848  31.163  1.00 62.20 LIG 0.16  HD
BRANCH 28 30
ATOM     30  CA  ILE E 804     -15.988  25.241  30.065  1.00 63.57 LIG 0.18  C 
BRANCH 30 31
ATOM     31  CB  ILE E 804     -15.431  25.203  28.623  1.00 63.71 LIG 0.01  C 
ATOM     32  CG2 ILE E 804     -16.495  24.681  27.668  1.00 63.48 LIG 0.01  C 
BRANCH 31 33
ATOM     33  CG1 ILE E 804     -14.987  26.596  28.184  1.00 63.94 LIG 0.00  C 
ATOM     34  CD1 ILE E 804     -15.839  27.186  27.107  1.00 63.94 LIG 0.01  C 
ENDBRANCH 31 33
ENDBRANCH 30 31
BRANCH 30 35
ATOM     35  C   ILE E 804     -14.869  24.805  31.013  1.00 65.71 LIG 0.24  C 
ATOM     36  N   ALA E 805     -14.881  25.315  32.242  1.00 67.46 LIG-0.35  N 
ATOM     37 H    ALA E 805     -15.475  25.866  32.530  1.00 67.46 LIG 0.16  HD
ATOM     38 O    ILE E 804     -13.995  24.021  30.625  1.00 65.35 LIG-0.27  OA
BRANCH 36 39
ATOM     39  CA  ALA E 805     -13.853  24.963  33.219  1.00 69.21 LIG 0.16  C 
ATOM     40  CB  ALA E 805     -13.961  23.479  33.583  1.00 68.65 LIG 0.04  C 
BRANCH 39 41
ATOM     41  C   ALA E 805     -12.452  25.272  32.695  1.00 70.07 LIG 0.22  C 
ATOM     42 O    ALA E 805     -11.605  25.685  33.520  1.00 70.08 LIG-0.29  OA
ENDBRANCH 39 41
ENDBRANCH 36 39
ENDBRANCH 30 35
ENDBRANCH 28 30
ENDBRANCH 24 26
ENDBRANCH 3 24
TORSDOF 17
ENDMDL
MODEL 32
USER: ADFR SOLUTION from run 15
USER: SCORE 12.502148 LL:  -2.465 LR: -11.267 RR:   0.000 FEB:  -6.196
USER: RMSD 9.977644
USER: SEED 210767
USER: STATUS no improvement in best 24 clusters for 5 generations
USER: GENES 19
USER: genes 0 Translation |==|  0.43458 0.61852 0.33569
USER: genes 1 Rotation |==|  0.27235 0.17427 0.79311 0.57849
USER: genes 2 Torsion [N]-C--CA-[N] |==|  0.99029
USER: genes 3 Torsion [C]-CA--CB-[CG] |==|  0.76659
USER: genes 4 Torsion [CA]-CB--CG-[CD] |==|  0.57348
USER: genes 5 Torsion [CB]-CG--CD-[CE] |==|  0.61261
USER: genes 6 Torsion [CG]-CD--CE-[NZ] |==|  0.38657
USER: genes 7 Torsion [CD]-CE--NZ-[HZ2] |==|  0.72049
USER: genes 8 Torsion [C]-CA--N-[C] |==|  0.74445
USER: genes 9 Torsion [N]-C--CA-[N] |==|  0.15366
USER: genes 10 Torsion [C]-CA--N-[H1] |==|  0.56975
USER: genes 11 Torsion [C]-N--CA-[CB] |==|  0.78490
USER: genes 12 Torsion [N]-CA--C-[N] |==|  0.35203
USER: genes 13 Torsion [C]-N--CA-[CB] |==|  0.53178
USER: genes 14 Torsion [N]-CA--CB-[CG1] |==|  0.07799
USER: genes 15 Torsion [CA]-CB--CG1-[CD1] |==|  0.35161
USER: genes 16 Torsion [N]-CA--C-[N] |==|  0.78884
USER: genes 17 Torsion [C]-N--CA-[CB] |==|  0.23567
USER: genes 18 Torsion [N]-CA--C-[O] |==|  0.95917
ROOT
ATOM      1  C   LYS E 802     -14.803  25.116  29.551  1.00 51.37 LIG 0.24  C 
ATOM      2 O    LYS E 802     -13.592  25.278  29.433  1.00 54.76 LIG-0.27  OA
ATOM      3  N   ALA E 803     -15.371  24.667  30.668  1.00 53.01 LIG-0.35  N 
ATOM      4 H    ALA E 803     -16.224  24.619  30.771  1.00 53.01 LIG 0.16  HD
ENDROOT
BRANCH 1 5
ATOM      5  CA  LYS E 802     -15.750  25.421  28.384  1.00 50.80 LIG 0.18  C 
BRANCH 5 6
ATOM      6  CB  LYS E 802     -15.575  26.901  28.039  1.00 49.65 LIG 0.04  C 
BRANCH 6 7
ATOM      7  CG  LYS E 802     -16.384  27.848  28.875  1.00 48.72 LIG 0.00  C 
BRANCH 7 8
ATOM      8  CD  LYS E 802     -16.657  29.116  28.099  1.00 52.85 LIG 0.03  C 
BRANCH 8 9
ATOM      9  CE  LYS E 802     -16.526  30.331  28.986  1.00 52.25 LIG 0.23  C 
BRANCH 9 10
ATOM     10  NZ  LYS E 802     -15.840  31.441  28.281  1.00 53.26 LIG-0.08  N 
ATOM     11 HZ1  LYS E 802     -16.239  32.211  28.479  1.00 53.26 LIG 0.27  HD
ATOM     12 HZ2  LYS E 802     -14.989  31.475  28.538  1.00 53.26 LIG 0.27  HD
ATOM     13 HZ3  LYS E 802     -15.880  31.305  27.403  1.00 53.26 LIG 0.27  HD
ENDBRANCH 9 10
ENDBRANCH 8 9
ENDBRANCH 7 8
ENDBRANCH 6 7
ENDBRANCH 5 6
BRANCH 5 14
ATOM     14  N   LYS E 802     -17.182  25.147  28.501  1.00 51.06 LIG-0.35  N 
ATOM     15 H    LYS E 802     -17.656  25.782  28.836  1.00 51.06 LIG 0.16  HD
ATOM     16  C   ALA E 801     -17.656  23.962  28.095  1.00 50.59 LIG 0.25  C 
ATOM     17 O    ALA E 801     -16.924  23.063  27.678  1.00 51.18 LIG-0.27  OA
BRANCH 16 18
ATOM     18  CA  ALA E 801     -19.157  23.719  28.189  1.00 50.00 LIG 0.27  C 
ATOM     19  CB  ALA E 801     -19.499  22.340  27.602  1.00 45.45 LIG 0.05  C 
BRANCH 18 20
ATOM     20  N   ALA E 801     -19.907  24.775  27.465  1.00 50.21 LIG-0.07  N 
ATOM     21 H3   ALA E 801     -19.965  24.560  26.604  1.00 50.21 LIG 0.28  HD
ATOM     22 H2   ALA E 801     -19.481  25.552  27.548  1.00 50.21 LIG 0.28  HD
ATOM     23 H1   ALA E 801     -20.725  24.847  27.808  1.00 50.21 LIG 0.28  HD
ENDBRANCH 18 20
ENDBRANCH 16 18
ENDBRANCH 5 14
ENDBRANCH 1 5
BRANCH 3 24
ATOM     24  CA  ALA E 803     -14.615  24.207  31.843  1.00 57.29 LIG 0.17  C 
ATOM     25  CB  ALA E 803     -14.083  22.799  31.558  1.00 55.60 LIG 0.04  C 
BRANCH 24 26
ATOM     26  C   ALA E 803     -13.515  24.989  32.560  1.00 59.81 LIG 0.24  C 
ATOM     27 O    ALA E 803     -12.519  25.415  31.979  1.00 62.26 LIG-0.27  OA
ATOM     28  N   ILE E 804     -13.728  25.107  33.869  1.00 62.20 LIG-0.35  N 
ATOM     29 H    ILE E 804     -14.438  24.791  34.238  1.00 62.20 LIG 0.16  HD
BRANCH 28 30
ATOM     30  CA  ILE E 804     -12.845  25.752  34.842  1.00 63.57 LIG 0.18  C 
BRANCH 30 31
ATOM     31  CB  ILE E 804     -13.253  25.469  36.306  1.00 63.71 LIG 0.01  C 
ATOM     32  CG2 ILE E 804     -14.167  26.574  36.815  1.00 63.48 LIG 0.01  C 
BRANCH 31 33
ATOM     33  CG1 ILE E 804     -13.966  24.123  36.412  1.00 63.94 LIG 0.00  C 
ATOM     34  CD1 ILE E 804     -13.368  23.205  37.430  1.00 63.94 LIG 0.01  C 
ENDBRANCH 31 33
ENDBRANCH 30 31
BRANCH 30 35
ATOM     35  C   ILE E 804     -11.494  25.079  34.591  1.00 65.71 LIG 0.24  C 
ATOM     36  N   ALA E 805     -11.335  23.844  35.058  1.00 67.46 LIG-0.35  N 
ATOM     37 H    ALA E 805     -11.941  23.407  35.484  1.00 67.46 LIG 0.16  HD
ATOM     38 O    ILE E 804     -10.600  25.685  33.989  1.00 65.35 LIG-0.27  OA
BRANCH 36 39
ATOM     39  CA  ALA E 805     -10.079  23.119  34.872  1.00 69.21 LIG 0.16  C 
ATOM     40  CB  ALA E 805      -9.090  23.491  35.980  1.00 68.65 LIG 0.04  C 
BRANCH 39 41
ATOM     41  C   ALA E 805     -10.301  21.608  34.855  1.00 70.07 LIG 0.22  C 
ATOM     42 O    ALA E 805     -11.403  21.181  35.270  1.00 70.08 LIG-0.29  OA
ENDBRANCH 39 41
ENDBRANCH 36 39
ENDBRANCH 30 35
ENDBRANCH 28 30
ENDBRANCH 24 26
ENDBRANCH 3 24
TORSDOF 17
ENDMDL
MODEL 33
USER: ADFR SOLUTION from run 43
USER: SCORE 11.670817 LL:  -2.230 LR: -11.271 RR:   0.000 FEB:  -6.200
USER: RMSD 8.605872
USER: SEED 42
USER: STATUS no improvement in best 8 clusters for 5 generations
USER: GENES 19
USER: genes 0 Translation |==|  0.43104 0.59569 0.31377
USER: genes 1 Rotation |==|  0.32807 0.10443 0.73370 0.59668
USER: genes 2 Torsion [N]-C--CA-[N] |==|  0.04583
USER: genes 3 Torsion [C]-CA--CB-[CG] |==|  0.68226
USER: genes 4 Torsion [CA]-CB--CG-[CD] |==|  0.42086
USER: genes 5 Torsion [CB]-CG--CD-[CE] |==|  0.35752
USER: genes 6 Torsion [CG]-CD--CE-[NZ] |==|  0.60374
USER: genes 7 Torsion [CD]-CE--NZ-[HZ2] |==|  0.99743
USER: genes 8 Torsion [C]-CA--N-[C] |==|  0.75556
USER: genes 9 Torsion [N]-C--CA-[N] |==|  0.15735
USER: genes 10 Torsion [C]-CA--N-[H1] |==|  0.84513
USER: genes 11 Torsion [C]-N--CA-[CB] |==|  0.20628
USER: genes 12 Torsion [N]-CA--C-[N] |==|  0.46854
USER: genes 13 Torsion [C]-N--CA-[CB] |==|  0.89184
USER: genes 14 Torsion [N]-CA--CB-[CG1] |==|  0.73495
USER: genes 15 Torsion [CA]-CB--CG1-[CD1] |==|  0.06147
USER: genes 16 Torsion [N]-CA--C-[N] |==|  0.33967
USER: genes 17 Torsion [C]-N--CA-[CB] |==|  0.79898
USER: genes 18 Torsion [N]-CA--C-[O] |==|  0.14602
ROOT
ATOM      1  C   LYS E 802     -14.909  24.431  28.893  1.00 51.37 LIG 0.24  C 
ATOM      2 O    LYS E 802     -13.758  24.856  28.861  1.00 54.76 LIG-0.27  OA
ATOM      3  N   ALA E 803     -15.315  23.495  29.749  1.00 53.01 LIG-0.35  N 
ATOM      4 H    ALA E 803     -16.136  23.249  29.816  1.00 53.01 LIG 0.16  HD
ENDROOT
BRANCH 1 5
ATOM      5  CA  LYS E 802     -15.967  24.962  27.919  1.00 50.80 LIG 0.18  C 
BRANCH 5 6
ATOM      6  CB  LYS E 802     -15.744  26.470  27.792  1.00 49.65 LIG 0.04  C 
BRANCH 6 7
ATOM      7  CG  LYS E 802     -16.854  27.325  28.327  1.00 48.72 LIG 0.00  C 
BRANCH 7 8
ATOM      8  CD  LYS E 802     -16.303  28.652  28.796  1.00 52.85 LIG 0.03  C 
BRANCH 8 9
ATOM      9  CE  LYS E 802     -17.076  29.801  28.195  1.00 52.25 LIG 0.23  C 
BRANCH 9 10
ATOM     10  NZ  LYS E 802     -16.181  30.936  27.860  1.00 53.26 LIG-0.08  N 
ATOM     11 HZ1  LYS E 802     -16.442  31.661  28.305  1.00 53.26 LIG 0.27  HD
ATOM     12 HZ2  LYS E 802     -15.345  30.733  28.090  1.00 53.26 LIG 0.27  HD
ATOM     13 HZ3  LYS E 802     -16.217  31.095  26.986  1.00 53.26 LIG 0.27  HD
ENDBRANCH 9 10
ENDBRANCH 8 9
ENDBRANCH 7 8
ENDBRANCH 6 7
ENDBRANCH 5 6
BRANCH 5 14
ATOM     14  N   LYS E 802     -17.390  24.733  28.173  1.00 51.06 LIG-0.35  N 
ATOM     15 H    LYS E 802     -17.792  25.351  28.615  1.00 51.06 LIG 0.16  HD
ATOM     16  C   ALA E 801     -17.962  23.612  27.717  1.00 50.59 LIG 0.25  C 
ATOM     17 O    ALA E 801     -17.324  22.729  27.140  1.00 51.18 LIG-0.27  OA
BRANCH 16 18
ATOM     18  CA  ALA E 801     -19.453  23.418  27.958  1.00 50.00 LIG 0.27  C 
ATOM     19  CB  ALA E 801     -19.918  22.098  27.320  1.00 45.45 LIG 0.05  C 
BRANCH 18 20
ATOM     20  N   ALA E 801     -20.228  24.551  27.395  1.00 50.21 LIG-0.07  N 
ATOM     21 H3   ALA E 801     -21.089  24.452  27.598  1.00 50.21 LIG 0.28  HD
ATOM     22 H2   ALA E 801     -20.134  24.565  26.509  1.00 50.21 LIG 0.28  HD
ATOM     23 H1   ALA E 801     -19.929  25.316  27.737  1.00 50.21 LIG 0.28  HD
ENDBRANCH 18 20
ENDBRANCH 16 18
ENDBRANCH 5 14
ENDBRANCH 1 5
BRANCH 3 24
ATOM     24  CA  ALA E 803     -14.415  22.783  30.670  1.00 57.29 LIG 0.17  C 
ATOM     25  CB  ALA E 803     -14.028  23.735  31.805  1.00 55.60 LIG 0.04  C 
BRANCH 24 26
ATOM     26  C   ALA E 803     -14.668  21.404  31.279  1.00 59.81 LIG 0.24  C 
ATOM     27 O    ALA E 803     -15.770  20.860  31.248  1.00 62.26 LIG-0.27  OA
ATOM     28  N   ILE E 804     -13.595  20.895  31.881  1.00 62.20 LIG-0.35  N 
ATOM     29 H    ILE E 804     -12.843  21.310  31.881  1.00 62.20 LIG 0.16  HD
BRANCH 28 30
ATOM     30  CA  ILE E 804     -13.520  19.621  32.598  1.00 63.57 LIG 0.18  C 
BRANCH 30 31
ATOM     31  CB  ILE E 804     -14.788  19.324  33.432  1.00 63.71 LIG 0.01  C 
ATOM     32  CG2 ILE E 804     -15.099  17.834  33.392  1.00 63.48 LIG 0.01  C 
BRANCH 31 33
ATOM     33  CG1 ILE E 804     -14.592  19.768  34.879  1.00 63.94 LIG 0.00  C 
ATOM     34  CD1 ILE E 804     -13.532  20.808  35.050  1.00 63.94 LIG 0.01  C 
ENDBRANCH 31 33
ENDBRANCH 30 31
BRANCH 30 35
ATOM     35  C   ILE E 804     -13.444  18.588  31.472  1.00 65.71 LIG 0.24  C 
ATOM     36  N   ALA E 805     -12.389  17.777  31.462  1.00 67.46 LIG-0.35  N 
ATOM     37 H    ALA E 805     -11.758  17.799  32.045  1.00 67.46 LIG 0.16  HD
ATOM     38 O    ILE E 804     -14.331  18.538  30.613  1.00 65.35 LIG-0.27  OA
BRANCH 36 39
ATOM     39  CA  ALA E 805     -12.224  16.760  30.425  1.00 69.21 LIG 0.16  C 
ATOM     40  CB  ALA E 805     -13.224  15.621  30.644  1.00 68.65 LIG 0.04  C 
BRANCH 39 41
ATOM     41  C   ALA E 805     -12.402  17.350  29.027  1.00 70.07 LIG 0.22  C 
ATOM     42 O    ALA E 805     -11.718  18.357  28.735  1.00 70.08 LIG-0.29  OA
ENDBRANCH 39 41
ENDBRANCH 36 39
ENDBRANCH 30 35
ENDBRANCH 28 30
ENDBRANCH 24 26
ENDBRANCH 3 24
TORSDOF 17
ENDMDL
MODEL 34
USER: ADFR SOLUTION from run 98
USER: SCORE 11.428450 LL:  -2.546 LR: -11.253 RR:   0.000 FEB:  -6.182
USER: RMSD 10.422063
USER: SEED 97
USER: STATUS no improvement in best 10 clusters for 5 generations
USER: GENES 19
USER: genes 0 Translation |==|  0.53891 0.50840 0.51882
USER: genes 1 Rotation |==|  0.29497 0.55442 0.95275 0.50415
USER: genes 2 Torsion [N]-C--CA-[N] |==|  0.44157
USER: genes 3 Torsion [C]-CA--CB-[CG] |==|  0.24482
USER: genes 4 Torsion [CA]-CB--CG-[CD] |==|  0.71733
USER: genes 5 Torsion [CB]-CG--CD-[CE] |==|  0.74642
USER: genes 6 Torsion [CG]-CD--CE-[NZ] |==|  0.40884
USER: genes 7 Torsion [CD]-CE--NZ-[HZ2] |==|  0.28684
USER: genes 8 Torsion [C]-CA--N-[C] |==|  0.72931
USER: genes 9 Torsion [N]-C--CA-[N] |==|  0.81941
USER: genes 10 Torsion [C]-CA--N-[H1] |==|  0.32991
USER: genes 11 Torsion [C]-N--CA-[CB] |==|  0.18573
USER: genes 12 Torsion [N]-CA--C-[N] |==|  0.25819
USER: genes 13 Torsion [C]-N--CA-[CB] |==|  0.51669
USER: genes 14 Torsion [N]-CA--CB-[CG1] |==|  0.77435
USER: genes 15 Torsion [CA]-CB--CG1-[CD1] |==|  0.98025
USER: genes 16 Torsion [N]-CA--C-[N] |==|  0.79815
USER: genes 17 Torsion [C]-N--CA-[CB] |==|  0.14239
USER: genes 18 Torsion [N]-CA--C-[O] |==|  0.81225
ROOT
ATOM      1  C   LYS E 802     -11.673  21.812  35.045  1.00 51.37 LIG 0.24  C 
ATOM      2 O    LYS E 802     -10.698  21.080  34.899  1.00 54.76 LIG-0.27  OA
ATOM      3  N   ALA E 803     -11.573  23.096  35.381  1.00 53.01 LIG-0.35  N 
ATOM      4 H    ALA E 803     -12.252  23.623  35.415  1.00 53.01 LIG 0.16  HD
ENDROOT
BRANCH 1 5
ATOM      5  CA  LYS E 802     -13.094  21.271  34.849  1.00 50.80 LIG 0.18  C 
BRANCH 5 6
ATOM      6  CB  LYS E 802     -13.686  21.049  36.241  1.00 49.65 LIG 0.04  C 
BRANCH 6 7
ATOM      7  CG  LYS E 802     -14.377  22.239  36.836  1.00 48.72 LIG 0.00  C 
BRANCH 7 8
ATOM      8  CD  LYS E 802     -13.477  22.903  37.853  1.00 52.85 LIG 0.03  C 
BRANCH 8 9
ATOM      9  CE  LYS E 802     -13.718  22.343  39.234  1.00 52.25 LIG 0.23  C 
BRANCH 9 10
ATOM     10  NZ  LYS E 802     -12.469  22.332  40.035  1.00 53.26 LIG-0.08  N 
ATOM     11 HZ1  LYS E 802     -11.769  22.426  39.495  1.00 53.26 LIG 0.27  HD
ATOM     12 HZ2  LYS E 802     -12.484  23.004  40.619  1.00 53.26 LIG 0.27  HD
ATOM     13 HZ3  LYS E 802     -12.404  21.560  40.473  1.00 53.26 LIG 0.27  HD
ENDBRANCH 9 10
ENDBRANCH 8 9
ENDBRANCH 7 8
ENDBRANCH 6 7
ENDBRANCH 5 6
BRANCH 5 14
ATOM     14  N   LYS E 802     -13.324  20.061  34.058  1.00 51.06 LIG-0.35  N 
ATOM     15 H    LYS E 802     -13.207  19.318  34.474  1.00 51.06 LIG 0.16  HD
ATOM     16  C   ALA E 801     -13.690  20.180  32.776  1.00 50.59 LIG 0.25  C 
ATOM     17 O    ALA E 801     -13.784  21.270  32.211  1.00 51.18 LIG-0.27  OA
BRANCH 16 18
ATOM     18  CA  ALA E 801     -13.964  18.905  31.988  1.00 50.00 LIG 0.27  C 
ATOM     19  CB  ALA E 801     -15.045  18.074  32.699  1.00 45.45 LIG 0.05  C 
BRANCH 18 20
ATOM     20  N   ALA E 801     -12.726  18.100  31.842  1.00 50.21 LIG-0.07  N 
ATOM     21 H3   ALA E 801     -12.048  18.526  32.230  1.00 50.21 LIG 0.28  HD
ATOM     22 H2   ALA E 801     -12.547  17.985  30.977  1.00 50.21 LIG 0.28  HD
ATOM     23 H1   ALA E 801     -12.839  17.308  32.230  1.00 50.21 LIG 0.28  HD
ENDBRANCH 18 20
ENDBRANCH 16 18
ENDBRANCH 5 14
ENDBRANCH 1 5
BRANCH 3 24
ATOM     24  CA  ALA E 803     -10.305  23.755  35.730  1.00 57.29 LIG 0.17  C 
ATOM     25  CB  ALA E 803      -9.422  23.804  34.480  1.00 55.60 LIG 0.04  C 
BRANCH 24 26
ATOM     26  C   ALA E 803     -10.163  25.092  36.458  1.00 59.81 LIG 0.24  C 
ATOM     27 O    ALA E 803     -10.117  26.167  35.864  1.00 62.26 LIG-0.27  OA
ATOM     28  N   ILE E 804     -10.043  24.956  37.777  1.00 62.20 LIG-0.35  N 
ATOM     29 H    ILE E 804     -10.078  24.184  38.154  1.00 62.20 LIG 0.16  HD
BRANCH 28 30
ATOM     30  CA  ILE E 804      -9.844  26.032  38.750  1.00 63.57 LIG 0.18  C 
BRANCH 30 31
ATOM     31  CB  ILE E 804      -9.598  25.510  40.184  1.00 63.71 LIG 0.01  C 
ATOM     32  CG2 ILE E 804      -8.872  26.566  41.005  1.00 63.48 LIG 0.01  C 
BRANCH 31 33
ATOM     33  CG1 ILE E 804     -10.921  25.156  40.858  1.00 63.94 LIG 0.00  C 
ATOM     34  CD1 ILE E 804     -12.124  25.547  40.062  1.00 63.94 LIG 0.01  C 
ENDBRANCH 31 33
ENDBRANCH 30 31
BRANCH 30 35
ATOM     35  C   ILE E 804      -8.558  26.707  38.268  1.00 65.71 LIG 0.24  C 
ATOM     36  N   ALA E 805      -7.418  26.048  38.457  1.00 67.46 LIG-0.35  N 
ATOM     37 H    ALA E 805      -7.364  25.273  38.828  1.00 67.46 LIG 0.16  HD
ATOM     38 O    ILE E 804      -8.601  27.824  37.741  1.00 65.35 LIG-0.27  OA
BRANCH 36 39
ATOM     39  CA  ALA E 805      -6.137  26.611  38.036  1.00 69.21 LIG 0.16  C 
ATOM     40  CB  ALA E 805      -5.984  28.033  38.581  1.00 68.65 LIG 0.04  C 
BRANCH 39 41
ATOM     41  C   ALA E 805      -4.965  25.746  38.497  1.00 70.07 LIG 0.22  C 
ATOM     42 O    ALA E 805      -4.741  25.685  39.728  1.00 70.08 LIG-0.29  OA
ENDBRANCH 39 41
ENDBRANCH 36 39
ENDBRANCH 30 35
ENDBRANCH 28 30
ENDBRANCH 24 26
ENDBRANCH 3 24
TORSDOF 17
ENDMDL
MODEL 35
USER: ADFR SOLUTION from run 50
USER: SCORE 12.402076 LL:  -2.660 LR: -11.218 RR:   0.000 FEB:  -6.147
USER: RMSD 10.114614
USER: SEED 49
USER: STATUS no improvement in best 7 clusters for 5 generations
USER: GENES 19
USER: genes 0 Translation |==|  0.41307 0.76887 0.39998
USER: genes 1 Rotation |==|  0.61987 0.95123 0.33352 0.56566
USER: genes 2 Torsion [N]-C--CA-[N] |==|  0.09282
USER: genes 3 Torsion [C]-CA--CB-[CG] |==|  0.35143
USER: genes 4 Torsion [CA]-CB--CG-[CD] |==|  0.55321
USER: genes 5 Torsion [CB]-CG--CD-[CE] |==|  0.60142
USER: genes 6 Torsion [CG]-CD--CE-[NZ] |==|  0.86935
USER: genes 7 Torsion [CD]-CE--NZ-[HZ2] |==|  0.91133
USER: genes 8 Torsion [C]-CA--N-[C] |==|  0.66143
USER: genes 9 Torsion [N]-C--CA-[N] |==|  0.51274
USER: genes 10 Torsion [C]-CA--N-[H1] |==|  0.73286
USER: genes 11 Torsion [C]-N--CA-[CB] |==|  0.24444
USER: genes 12 Torsion [N]-CA--C-[N] |==|  0.05554
USER: genes 13 Torsion [C]-N--CA-[CB] |==|  0.51020
USER: genes 14 Torsion [N]-CA--CB-[CG1] |==|  0.05301
USER: genes 15 Torsion [CA]-CB--CG1-[CD1] |==|  0.70940
USER: genes 16 Torsion [N]-CA--C-[N] |==|  0.39835
USER: genes 17 Torsion [C]-N--CA-[CB] |==|  0.17599
USER: genes 18 Torsion [N]-CA--C-[O] |==|  0.03988
ROOT
ATOM      1  C   LYS E 802     -15.448  29.626  31.479  1.00 51.37 LIG 0.24  C 
ATOM      2 O    LYS E 802     -14.807  30.487  32.074  1.00 54.76 LIG-0.27  OA
ATOM      3  N   ALA E 803     -15.690  28.420  31.988  1.00 53.01 LIG-0.35  N 
ATOM      4 H    ALA E 803     -16.197  27.843  31.600  1.00 53.01 LIG 0.16  HD
ENDROOT
BRANCH 1 5
ATOM      5  CA  LYS E 802     -16.013  29.897  30.080  1.00 50.80 LIG 0.18  C 
BRANCH 5 6
ATOM      6  CB  LYS E 802     -16.137  31.415  29.932  1.00 49.65 LIG 0.04  C 
BRANCH 6 7
ATOM      7  CG  LYS E 802     -15.465  31.993  28.722  1.00 48.72 LIG 0.00  C 
BRANCH 7 8
ATOM      8  CD  LYS E 802     -15.243  33.476  28.914  1.00 52.85 LIG 0.03  C 
BRANCH 8 9
ATOM      9  CE  LYS E 802     -15.434  34.223  27.617  1.00 52.25 LIG 0.23  C 
BRANCH 9 10
ATOM     10  NZ  LYS E 802     -14.715  33.560  26.502  1.00 53.26 LIG-0.08  N 
ATOM     11 HZ1  LYS E 802     -14.490  34.166  25.891  1.00 53.26 LIG 0.27  HD
ATOM     12 HZ2  LYS E 802     -13.979  33.168  26.814  1.00 53.26 LIG 0.27  HD
ATOM     13 HZ3  LYS E 802     -15.243  32.948  26.131  1.00 53.26 LIG 0.27  HD
ENDBRANCH 9 10
ENDBRANCH 8 9
ENDBRANCH 7 8
ENDBRANCH 6 7
ENDBRANCH 5 6
BRANCH 5 14
ATOM     14  N   LYS E 802     -17.279  29.294  29.662  1.00 51.06 LIG-0.35  N 
ATOM     15 H    LYS E 802     -17.959  29.481  30.154  1.00 51.06 LIG 0.16  HD
ATOM     16  C   ALA E 801     -17.302  28.514  28.575  1.00 50.59 LIG 0.25  C 
ATOM     17 O    ALA E 801     -16.285  28.230  27.940  1.00 51.18 LIG-0.27  OA
BRANCH 16 18
ATOM     18  CA  ALA E 801     -18.641  27.933  28.138  1.00 50.00 LIG 0.27  C 
ATOM     19  CB  ALA E 801     -19.294  27.185  29.313  1.00 45.45 LIG 0.05  C 
BRANCH 18 20
ATOM     20  N   ALA E 801     -18.465  27.011  26.989  1.00 50.21 LIG-0.07  N 
ATOM     21 H3   ALA E 801     -19.035  26.332  27.063  1.00 50.21 LIG 0.28  HD
ATOM     22 H2   ALA E 801     -17.631  26.698  26.984  1.00 50.21 LIG 0.28  HD
ATOM     23 H1   ALA E 801     -18.623  27.448  26.230  1.00 50.21 LIG 0.28  HD
ENDBRANCH 18 20
ENDBRANCH 16 18
ENDBRANCH 5 14
ENDBRANCH 1 5
BRANCH 3 24
ATOM     24  CA  ALA E 803     -15.126  27.939  33.258  1.00 57.29 LIG 0.17  C 
ATOM     25  CB  ALA E 803     -16.064  28.354  34.396  1.00 55.60 LIG 0.04  C 
BRANCH 24 26
ATOM     26  C   ALA E 803     -14.647  26.515  33.541  1.00 59.81 LIG 0.24  C 
ATOM     27 O    ALA E 803     -14.480  26.087  34.681  1.00 62.26 LIG-0.27  OA
ATOM     28  N   ILE E 804     -14.384  25.824  32.433  1.00 62.20 LIG-0.35  N 
ATOM     29 H    ILE E 804     -14.511  26.162  31.653  1.00 62.20 LIG 0.16  HD
BRANCH 28 30
ATOM     30  CA  ILE E 804     -13.865  24.457  32.361  1.00 63.57 LIG 0.18  C 
BRANCH 30 31
ATOM     31  CB  ILE E 804     -13.590  23.994  30.912  1.00 63.71 LIG 0.01  C 
ATOM     32  CG2 ILE E 804     -14.711  23.081  30.436  1.00 63.48 LIG 0.01  C 
BRANCH 31 33
ATOM     33  CG1 ILE E 804     -13.477  25.196  29.978  1.00 63.94 LIG 0.00  C 
ATOM     34  CD1 ILE E 804     -14.680  25.401  29.114  1.00 63.94 LIG 0.01  C 
ENDBRANCH 31 33
ENDBRANCH 30 31
BRANCH 30 35
ATOM     35  C   ILE E 804     -12.521  24.552  33.087  1.00 65.71 LIG 0.24  C 
ATOM     36  N   ALA E 805     -12.158  23.511  33.831  1.00 67.46 LIG-0.35  N 
ATOM     37 H    ALA E 805     -12.628  22.796  33.923  1.00 67.46 LIG 0.16  HD
ATOM     38 O    ILE E 804     -11.828  25.570  32.982  1.00 65.35 LIG-0.27  OA
BRANCH 36 39
ATOM     39  CA  ALA E 805     -10.895  23.508  34.567  1.00 69.21 LIG 0.16  C 
ATOM     40  CB  ALA E 805     -10.900  24.617  35.622  1.00 68.65 LIG 0.04  C 
BRANCH 39 41
ATOM     41  C   ALA E 805     -10.635  22.156  35.229  1.00 70.07 LIG 0.22  C 
ATOM     42 O    ALA E 805     -11.333  21.186  34.855  1.00 70.08 LIG-0.29  OA
ENDBRANCH 39 41
ENDBRANCH 36 39
ENDBRANCH 30 35
ENDBRANCH 28 30
ENDBRANCH 24 26
ENDBRANCH 3 24
TORSDOF 17
ENDMDL
MODEL 36
USER: ADFR SOLUTION from run 121
USER: SCORE 11.043871 LL:  -1.927 LR: -11.196 RR:   0.000 FEB:  -6.125
USER: RMSD 10.228082
USER: SEED 120
USER: STATUS no improvement in best 15 clusters for 5 generations
USER: GENES 19
USER: genes 0 Translation |==|  0.38684 0.59314 0.35827
USER: genes 1 Rotation |==|  0.34568 0.97107 0.50882 0.56484
USER: genes 2 Torsion [N]-C--CA-[N] |==|  0.63932
USER: genes 3 Torsion [C]-CA--CB-[CG] |==|  0.25376
USER: genes 4 Torsion [CA]-CB--CG-[CD] |==|  0.33899
USER: genes 5 Torsion [CB]-CG--CD-[CE] |==|  0.76922
USER: genes 6 Torsion [CG]-CD--CE-[NZ] |==|  0.48575
USER: genes 7 Torsion [CD]-CE--NZ-[HZ2] |==|  0.30126
USER: genes 8 Torsion [C]-CA--N-[C] |==|  0.14518
USER: genes 9 Torsion [N]-C--CA-[N] |==|  0.98997
USER: genes 10 Torsion [C]-CA--N-[H1] |==|  0.61131
USER: genes 11 Torsion [C]-N--CA-[CB] |==|  0.79444
USER: genes 12 Torsion [N]-CA--C-[N] |==|  0.55375
USER: genes 13 Torsion [C]-N--CA-[CB] |==|  0.19358
USER: genes 14 Torsion [N]-CA--CB-[CG1] |==|  0.58586
USER: genes 15 Torsion [CA]-CB--CG1-[CD1] |==|  0.25661
USER: genes 16 Torsion [N]-CA--C-[N] |==|  0.52860
USER: genes 17 Torsion [C]-N--CA-[CB] |==|  0.51154
USER: genes 18 Torsion [N]-CA--C-[O] |==|  0.26294
ROOT
ATOM      1  C   LYS E 802     -16.235  24.354  30.228  1.00 51.37 LIG 0.24  C 
ATOM      2 O    LYS E 802     -16.427  24.998  31.255  1.00 54.76 LIG-0.27  OA
ATOM      3  N   ALA E 803     -15.117  23.667  29.999  1.00 53.01 LIG-0.35  N 
ATOM      4 H    ALA E 803     -15.013  23.163  29.311  1.00 53.01 LIG 0.16  HD
ENDROOT
BRANCH 1 5
ATOM      5  CA  LYS E 802     -17.295  24.312  29.121  1.00 50.80 LIG 0.18  C 
BRANCH 5 6
ATOM      6  CB  LYS E 802     -16.678  23.566  27.937  1.00 49.65 LIG 0.04  C 
BRANCH 6 7
ATOM      7  CG  LYS E 802     -16.919  22.086  27.922  1.00 48.72 LIG 0.00  C 
BRANCH 7 8
ATOM      8  CD  LYS E 802     -17.620  21.690  26.643  1.00 52.85 LIG 0.03  C 
BRANCH 8 9
ATOM      9  CE  LYS E 802     -19.110  21.907  26.754  1.00 52.25 LIG 0.23  C 
BRANCH 9 10
ATOM     10  NZ  LYS E 802     -19.791  21.638  25.464  1.00 53.26 LIG-0.08  N 
ATOM     11 HZ1  LYS E 802     -19.183  21.558  24.818  1.00 53.26 LIG 0.27  HD
ATOM     12 HZ2  LYS E 802     -20.256  20.882  25.525  1.00 53.26 LIG 0.27  HD
ATOM     13 HZ3  LYS E 802     -20.341  22.310  25.272  1.00 53.26 LIG 0.27  HD
ENDBRANCH 9 10
ENDBRANCH 8 9
ENDBRANCH 7 8
ENDBRANCH 6 7
ENDBRANCH 5 6
BRANCH 5 14
ATOM     14  N   LYS E 802     -17.891  25.551  28.618  1.00 51.06 LIG-0.35  N 
ATOM     15 H    LYS E 802     -18.750  25.573  28.613  1.00 51.06 LIG 0.16  HD
ATOM     16  C   ALA E 801     -17.089  26.542  28.209  1.00 50.59 LIG 0.25  C 
ATOM     17 O    ALA E 801     -15.863  26.434  28.182  1.00 51.18 LIG-0.27  OA
BRANCH 16 18
ATOM     18  CA  ALA E 801     -17.736  27.835  27.730  1.00 50.00 LIG 0.27  C 
ATOM     19  CB  ALA E 801     -17.307  29.000  28.638  1.00 45.45 LIG 0.05  C 
BRANCH 18 20
ATOM     20  N   ALA E 801     -19.215  27.715  27.730  1.00 50.21 LIG-0.07  N 
ATOM     21 H3   ALA E 801     -19.544  28.106  28.458  1.00 50.21 LIG 0.28  HD
ATOM     22 H2   ALA E 801     -19.443  26.855  27.727  1.00 50.21 LIG 0.28  HD
ATOM     23 H1   ALA E 801     -19.545  28.113  27.005  1.00 50.21 LIG 0.28  HD
ENDBRANCH 18 20
ENDBRANCH 16 18
ENDBRANCH 5 14
ENDBRANCH 1 5
BRANCH 3 24
ATOM     24  CA  ALA E 803     -13.946  23.691  30.888  1.00 57.29 LIG 0.17  C 
ATOM     25  CB  ALA E 803     -13.229  25.034  30.713  1.00 55.60 LIG 0.04  C 
BRANCH 24 26
ATOM     26  C   ALA E 803     -13.947  23.350  32.378  1.00 59.81 LIG 0.24  C 
ATOM     27 O    ALA E 803     -14.866  22.736  32.915  1.00 62.26 LIG-0.27  OA
ATOM     28  N   ILE E 804     -12.887  23.832  33.024  1.00 62.20 LIG-0.35  N 
ATOM     29 H    ILE E 804     -12.266  24.260  32.610  1.00 62.20 LIG 0.16  HD
BRANCH 28 30
ATOM     30  CA  ILE E 804     -12.615  23.722  34.458  1.00 63.57 LIG 0.18  C 
BRANCH 30 31
ATOM     31  CB  ILE E 804     -12.275  22.279  34.898  1.00 63.71 LIG 0.01  C 
ATOM     32  CG2 ILE E 804     -10.775  22.044  34.796  1.00 63.48 LIG 0.01  C 
BRANCH 31 33
ATOM     33  CG1 ILE E 804     -12.737  22.035  36.332  1.00 63.94 LIG 0.00  C 
ATOM     34  CD1 ILE E 804     -14.113  21.458  36.430  1.00 63.94 LIG 0.01  C 
ENDBRANCH 31 33
ENDBRANCH 30 31
BRANCH 30 35
ATOM     35  C   ILE E 804     -11.361  24.579  34.644  1.00 65.71 LIG 0.24  C 
ATOM     36  N   ALA E 805     -10.745  24.506  35.821  1.00 67.46 LIG-0.35  N 
ATOM     37 H    ALA E 805     -11.007  24.009  36.473  1.00 67.46 LIG 0.16  HD
ATOM     38 O    ILE E 804     -10.965  25.310  33.730  1.00 65.35 LIG-0.27  OA
BRANCH 36 39
ATOM     39  CA  ALA E 805      -9.542  25.288  36.098  1.00 69.21 LIG 0.16  C 
ATOM     40  CB  ALA E 805      -8.991  24.932  37.481  1.00 68.65 LIG 0.04  C 
BRANCH 39 41
ATOM     41  C   ALA E 805      -8.469  25.063  35.034  1.00 70.07 LIG 0.22  C 
ATOM     42 O    ALA E 805      -8.420  25.876  34.083  1.00 70.08 LIG-0.29  OA
ENDBRANCH 39 41
ENDBRANCH 36 39
ENDBRANCH 30 35
ENDBRANCH 28 30
ENDBRANCH 24 26
ENDBRANCH 3 24
TORSDOF 17
ENDMDL
MODEL 37
USER: ADFR SOLUTION from run 33
USER: SCORE 12.103202 LL:  -2.705 LR: -11.184 RR:   0.000 FEB:  -6.113
USER: RMSD 2.457781
USER: SEED 32
USER: STATUS no improvement in best 25 clusters for 5 generations
USER: GENES 19
USER: genes 0 Translation |==|  0.54792 0.54231 0.51270
USER: genes 1 Rotation |==|  0.45762 0.45204 0.53252 0.99482
USER: genes 2 Torsion [N]-C--CA-[N] |==|  0.42794
USER: genes 3 Torsion [C]-CA--CB-[CG] |==|  0.94309
USER: genes 4 Torsion [CA]-CB--CG-[CD] |==|  0.32869
USER: genes 5 Torsion [CB]-CG--CD-[CE] |==|  0.10294
USER: genes 6 Torsion [CG]-CD--CE-[NZ] |==|  0.72794
USER: genes 7 Torsion [CD]-CE--NZ-[HZ2] |==|  0.99744
USER: genes 8 Torsion [C]-CA--N-[C] |==|  0.57833
USER: genes 9 Torsion [N]-C--CA-[N] |==|  0.50347
USER: genes 10 Torsion [C]-CA--N-[H1] |==|  0.63322
USER: genes 11 Torsion [C]-N--CA-[CB] |==|  0.68172
USER: genes 12 Torsion [N]-CA--C-[N] |==|  0.31745
USER: genes 13 Torsion [C]-N--CA-[CB] |==|  0.39364
USER: genes 14 Torsion [N]-CA--CB-[CG1] |==|  0.50514
USER: genes 15 Torsion [CA]-CB--CG1-[CD1] |==|  0.69149
USER: genes 16 Torsion [N]-CA--C-[N] |==|  0.90040
USER: genes 17 Torsion [C]-N--CA-[CB] |==|  0.26124
USER: genes 18 Torsion [N]-CA--C-[O] |==|  0.02259
ROOT
ATOM      1  C   LYS E 802     -11.403  22.829  34.861  1.00 51.37 LIG 0.24  C 
ATOM      2 O    LYS E 802     -11.746  23.181  33.737  1.00 54.76 LIG-0.27  OA
ATOM      3  N   ALA E 803     -11.750  21.660  35.394  1.00 53.01 LIG-0.35  N 
ATOM      4 H    ALA E 803     -11.452  21.387  36.153  1.00 53.01 LIG 0.16  HD
ENDROOT
BRANCH 1 5
ATOM      5  CA  LYS E 802     -10.540  23.744  35.738  1.00 50.80 LIG 0.18  C 
BRANCH 5 6
ATOM      6  CB  LYS E 802     -11.487  24.478  36.689  1.00 49.65 LIG 0.04  C 
BRANCH 6 7
ATOM      7  CG  LYS E 802     -12.919  24.527  36.249  1.00 48.72 LIG 0.00  C 
BRANCH 7 8
ATOM      8  CD  LYS E 802     -13.793  23.818  37.258  1.00 52.85 LIG 0.03  C 
BRANCH 8 9
ATOM      9  CE  LYS E 802     -13.303  24.066  38.665  1.00 52.25 LIG 0.23  C 
BRANCH 9 10
ATOM     10  NZ  LYS E 802     -12.470  22.939  39.151  1.00 53.26 LIG-0.08  N 
ATOM     11 HZ1  LYS E 802     -12.836  22.594  39.885  1.00 53.26 LIG 0.27  HD
ATOM     12 HZ2  LYS E 802     -12.423  22.311  38.521  1.00 53.26 LIG 0.27  HD
ATOM     13 HZ3  LYS E 802     -11.652  23.234  39.338  1.00 53.26 LIG 0.27  HD
ENDBRANCH 9 10
ENDBRANCH 8 9
ENDBRANCH 7 8
ENDBRANCH 6 7
ENDBRANCH 5 6
BRANCH 5 14
ATOM     14  N   LYS E 802      -9.651  24.734  35.127  1.00 51.06 LIG-0.35  N 
ATOM     15 H    LYS E 802      -9.898  25.030  34.359  1.00 51.06 LIG 0.16  HD
ATOM     16  C   ALA E 801      -8.543  25.106  35.779  1.00 50.59 LIG 0.25  C 
ATOM     17 O    ALA E 801      -8.205  24.604  36.852  1.00 51.18 LIG-0.27  OA
BRANCH 16 18
ATOM     18  CA  ALA E 801      -7.658  26.169  35.140  1.00 50.00 LIG 0.27  C 
ATOM     19  CB  ALA E 801      -7.218  25.707  33.740  1.00 45.45 LIG 0.05  C 
BRANCH 18 20
ATOM     20  N   ALA E 801      -6.465  26.435  35.981  1.00 50.21 LIG-0.07  N 
ATOM     21 H3   ALA E 801      -5.743  26.095  35.588  1.00 50.21 LIG 0.28  HD
ATOM     22 H2   ALA E 801      -6.574  26.056  36.779  1.00 50.21 LIG 0.28  HD
ATOM     23 H1   ALA E 801      -6.362  27.313  36.081  1.00 50.21 LIG 0.28  HD
ENDBRANCH 18 20
ENDBRANCH 16 18
ENDBRANCH 5 14
ENDBRANCH 1 5
BRANCH 3 24
ATOM     24  CA  ALA E 803     -12.672  20.710  34.754  1.00 57.29 LIG 0.17  C 
ATOM     25  CB  ALA E 803     -13.932  20.598  35.616  1.00 55.60 LIG 0.04  C 
BRANCH 24 26
ATOM     26  C   ALA E 803     -13.107  20.737  33.288  1.00 59.81 LIG 0.24  C 
ATOM     27 O    ALA E 803     -13.820  21.624  32.826  1.00 62.26 LIG-0.27  OA
ATOM     28  N   ILE E 804     -12.679  19.681  32.598  1.00 62.20 LIG-0.35  N 
ATOM     29 H    ILE E 804     -12.183  19.080  32.961  1.00 62.20 LIG 0.16  HD
BRANCH 28 30
ATOM     30  CA  ILE E 804     -12.961  19.385  31.193  1.00 63.57 LIG 0.18  C 
BRANCH 30 31
ATOM     31  CB  ILE E 804     -11.749  18.778  30.450  1.00 63.71 LIG 0.01  C 
ATOM     32  CG2 ILE E 804     -11.341  17.466  31.105  1.00 63.48 LIG 0.01  C 
BRANCH 31 33
ATOM     33  CG1 ILE E 804     -12.090  18.533  28.982  1.00 63.94 LIG 0.00  C 
ATOM     34  CD1 ILE E 804     -12.182  17.086  28.620  1.00 63.94 LIG 0.01  C 
ENDBRANCH 31 33
ENDBRANCH 30 31
BRANCH 30 35
ATOM     35  C   ILE E 804     -14.050  18.313  31.272  1.00 65.71 LIG 0.24  C 
ATOM     36  N   ALA E 805     -13.967  17.435  32.268  1.00 67.46 LIG-0.35  N 
ATOM     37 H    ALA E 805     -13.345  17.437  32.862  1.00 67.46 LIG 0.16  HD
ATOM     38 O    ILE E 804     -14.952  18.278  30.427  1.00 65.35 LIG-0.27  OA
BRANCH 36 39
ATOM     39  CA  ALA E 805     -14.956  16.371  32.426  1.00 69.21 LIG 0.16  C 
ATOM     40  CB  ALA E 805     -14.468  15.093  31.738  1.00 68.65 LIG 0.04  C 
BRANCH 39 41
ATOM     41  C   ALA E 805     -15.249  16.092  33.899  1.00 70.07 LIG 0.22  C 
ATOM     42 O    ALA E 805     -14.758  16.874  34.744  1.00 70.08 LIG-0.29  OA
ENDBRANCH 39 41
ENDBRANCH 36 39
ENDBRANCH 30 35
ENDBRANCH 28 30
ENDBRANCH 24 26
ENDBRANCH 3 24
TORSDOF 17
ENDMDL
MODEL 38
USER: ADFR SOLUTION from run 38
USER: SCORE 12.129461 LL:  -2.139 LR: -11.128 RR:   0.000 FEB:  -6.057
USER: RMSD 9.832446
USER: SEED 37
USER: STATUS no improvement in best 8 clusters for 5 generations
USER: GENES 19
USER: genes 0 Translation |==|  0.42253 0.53165 0.33210
USER: genes 1 Rotation |==|  0.34776 0.08633 0.73357 0.53389
USER: genes 2 Torsion [N]-C--CA-[N] |==|  0.96203
USER: genes 3 Torsion [C]-CA--CB-[CG] |==|  0.34324
USER: genes 4 Torsion [CA]-CB--CG-[CD] |==|  0.61631
USER: genes 5 Torsion [CB]-CG--CD-[CE] |==|  0.71247
USER: genes 6 Torsion [CG]-CD--CE-[NZ] |==|  0.93636
USER: genes 7 Torsion [CD]-CE--NZ-[HZ2] |==|  0.24310
USER: genes 8 Torsion [C]-CA--N-[C] |==|  0.66340
USER: genes 9 Torsion [N]-C--CA-[N] |==|  0.35785
USER: genes 10 Torsion [C]-CA--N-[H1] |==|  0.52839
USER: genes 11 Torsion [C]-N--CA-[CB] |==|  0.80003
USER: genes 12 Torsion [N]-CA--C-[N] |==|  0.36955
USER: genes 13 Torsion [C]-N--CA-[CB] |==|  0.51683
USER: genes 14 Torsion [N]-CA--CB-[CG1] |==|  0.95586
USER: genes 15 Torsion [CA]-CB--CG1-[CD1] |==|  0.60290
USER: genes 16 Torsion [N]-CA--C-[N] |==|  0.28611
USER: genes 17 Torsion [C]-N--CA-[CB] |==|  0.49656
USER: genes 18 Torsion [N]-CA--C-[O] |==|  0.69220
ROOT
ATOM      1  C   LYS E 802     -15.164  22.509  29.443  1.00 51.37 LIG 0.24  C 
ATOM      2 O    LYS E 802     -14.134  23.161  29.585  1.00 54.76 LIG-0.27  OA
ATOM      3  N   ALA E 803     -15.521  21.526  30.267  1.00 53.01 LIG-0.35  N 
ATOM      4 H    ALA E 803     -16.275  21.118  30.206  1.00 53.01 LIG 0.16  HD
ENDROOT
BRANCH 1 5
ATOM      5  CA  LYS E 802     -16.116  22.794  28.275  1.00 50.80 LIG 0.18  C 
BRANCH 5 6
ATOM      6  CB  LYS E 802     -16.774  24.147  28.551  1.00 49.65 LIG 0.04  C 
BRANCH 6 7
ATOM      7  CG  LYS E 802     -16.598  25.171  27.469  1.00 48.72 LIG 0.00  C 
BRANCH 7 8
ATOM      8  CD  LYS E 802     -16.301  26.521  28.081  1.00 52.85 LIG 0.03  C 
BRANCH 8 9
ATOM      9  CE  LYS E 802     -17.520  27.412  28.042  1.00 52.25 LIG 0.23  C 
BRANCH 9 10
ATOM     10  NZ  LYS E 802     -18.465  26.985  26.982  1.00 53.26 LIG-0.08  N 
ATOM     11 HZ1  LYS E 802     -18.010  26.642  26.298  1.00 53.26 LIG 0.27  HD
ATOM     12 HZ2  LYS E 802     -19.018  26.368  27.307  1.00 53.26 LIG 0.27  HD
ATOM     13 HZ3  LYS E 802     -18.935  27.687  26.703  1.00 53.26 LIG 0.27  HD
ENDBRANCH 9 10
ENDBRANCH 8 9
ENDBRANCH 7 8
ENDBRANCH 6 7
ENDBRANCH 5 6
BRANCH 5 14
ATOM     14  N   LYS E 802     -17.169  21.838  27.928  1.00 51.06 LIG-0.35  N 
ATOM     15 H    LYS E 802     -17.732  21.664  28.553  1.00 51.06 LIG 0.16  HD
ATOM     16  C   ALA E 801     -17.190  21.310  26.698  1.00 50.59 LIG 0.25  C 
ATOM     17 O    ALA E 801     -16.322  21.549  25.858  1.00 51.18 LIG-0.27  OA
BRANCH 16 18
ATOM     18  CA  ALA E 801     -18.322  20.351  26.350  1.00 50.00 LIG 0.27  C 
ATOM     19  CB  ALA E 801     -17.771  18.921  26.220  1.00 45.45 LIG 0.05  C 
BRANCH 18 20
ATOM     20  N   ALA E 801     -18.982  20.753  25.084  1.00 50.21 LIG-0.07  N 
ATOM     21 H3   ALA E 801     -18.431  20.605  24.402  1.00 50.21 LIG 0.28  HD
ATOM     22 H2   ALA E 801     -19.185  21.620  25.117  1.00 50.21 LIG 0.28  HD
ATOM     23 H1   ALA E 801     -19.726  20.278  24.972  1.00 50.21 LIG 0.28  HD
ENDBRANCH 18 20
ENDBRANCH 16 18
ENDBRANCH 5 14
ENDBRANCH 1 5
BRANCH 3 24
ATOM     24  CA  ALA E 803     -14.676  21.032  31.365  1.00 57.29 LIG 0.17  C 
ATOM     25  CB  ALA E 803     -13.509  20.243  30.765  1.00 55.60 LIG 0.04  C 
BRANCH 24 26
ATOM     26  C   ALA E 803     -14.131  21.871  32.520  1.00 59.81 LIG 0.24  C 
ATOM     27 O    ALA E 803     -13.553  22.942  32.345  1.00 62.26 LIG-0.27  OA
ATOM     28  N   ILE E 804     -14.301  21.295  33.709  1.00 62.20 LIG-0.35  N 
ATOM     29 H    ILE E 804     -14.709  20.542  33.788  1.00 62.20 LIG 0.16  HD
BRANCH 28 30
ATOM     30  CA  ILE E 804     -13.850  21.813  35.002  1.00 63.57 LIG 0.18  C 
BRANCH 30 31
ATOM     31  CB  ILE E 804     -14.083  20.819  36.163  1.00 63.71 LIG 0.01  C 
ATOM     32  CG2 ILE E 804     -14.626  21.557  37.378  1.00 63.48 LIG 0.01  C 
BRANCH 31 33
ATOM     33  CG1 ILE E 804     -15.064  19.727  35.744  1.00 63.94 LIG 0.00  C 
ATOM     34  CD1 ILE E 804     -15.991  19.302  36.838  1.00 63.94 LIG 0.01  C 
ENDBRANCH 31 33
ENDBRANCH 30 31
BRANCH 30 35
ATOM     35  C   ILE E 804     -12.340  21.969  34.811  1.00 65.71 LIG 0.24  C 
ATOM     36  N   ALA E 805     -11.877  23.200  34.608  1.00 67.46 LIG-0.35  N 
ATOM     37 H    ALA E 805     -12.372  23.903  34.580  1.00 67.46 LIG 0.16  HD
ATOM     38 O    ILE E 804     -11.604  20.976  34.835  1.00 65.35 LIG-0.27  OA
BRANCH 36 39
ATOM     39  CA  ALA E 805     -10.451  23.451  34.410  1.00 69.21 LIG 0.16  C 
ATOM     40  CB  ALA E 805     -10.210  24.944  34.170  1.00 68.65 LIG 0.04  C 
BRANCH 39 41
ATOM     41  C   ALA E 805      -9.627  22.974  35.605  1.00 70.07 LIG 0.22  C 
ATOM     42 O    ALA E 805      -9.089  23.849  36.321  1.00 70.08 LIG-0.29  OA
ENDBRANCH 39 41
ENDBRANCH 36 39
ENDBRANCH 30 35
ENDBRANCH 28 30
ENDBRANCH 24 26
ENDBRANCH 3 24
TORSDOF 17
ENDMDL
MODEL 39
USER: ADFR SOLUTION from run 70
USER: SCORE 12.479231 LL:  -2.580 LR: -11.090 RR:   0.000 FEB:  -6.019
USER: RMSD 8.891567
USER: SEED 69
USER: STATUS no improvement in best 18 clusters for 5 generations
USER: GENES 19
USER: genes 0 Translation |==|  0.39432 0.54379 0.33642
USER: genes 1 Rotation |==|  0.14890 0.77245 0.66021 0.66381
USER: genes 2 Torsion [N]-C--CA-[N] |==|  0.45266
USER: genes 3 Torsion [C]-CA--CB-[CG] |==|  0.19142
USER: genes 4 Torsion [CA]-CB--CG-[CD] |==|  0.65626
USER: genes 5 Torsion [CB]-CG--CD-[CE] |==|  0.71392
USER: genes 6 Torsion [CG]-CD--CE-[NZ] |==|  0.13638
USER: genes 7 Torsion [CD]-CE--NZ-[HZ2] |==|  0.42972
USER: genes 8 Torsion [C]-CA--N-[C] |==|  0.60293
USER: genes 9 Torsion [N]-C--CA-[N] |==|  0.34500
USER: genes 10 Torsion [C]-CA--N-[H1] |==|  0.85155
USER: genes 11 Torsion [C]-N--CA-[CB] |==|  0.79997
USER: genes 12 Torsion [N]-CA--C-[N] |==|  0.99809
USER: genes 13 Torsion [C]-N--CA-[CB] |==|  0.22956
USER: genes 14 Torsion [N]-CA--CB-[CG1] |==|  0.66221
USER: genes 15 Torsion [CA]-CB--CG1-[CD1] |==|  0.21415
USER: genes 16 Torsion [N]-CA--C-[N] |==|  0.41948
USER: genes 17 Torsion [C]-N--CA-[CB] |==|  0.82229
USER: genes 18 Torsion [N]-CA--C-[O] |==|  0.49526
ROOT
ATOM      1  C   LYS E 802     -16.010  22.874  29.573  1.00 51.37 LIG 0.24  C 
ATOM      2 O    LYS E 802     -16.589  22.250  30.457  1.00 54.76 LIG-0.27  OA
ATOM      3  N   ALA E 803     -14.960  23.659  29.804  1.00 53.01 LIG-0.35  N 
ATOM      4 H    ALA E 803     -14.516  24.040  29.174  1.00 53.01 LIG 0.16  HD
ENDROOT
BRANCH 1 5
ATOM      5  CA  LYS E 802     -16.483  22.786  28.117  1.00 50.80 LIG 0.18  C 
BRANCH 5 6
ATOM      6  CB  LYS E 802     -17.171  24.111  27.787  1.00 49.65 LIG 0.04  C 
BRANCH 6 7
ATOM      7  CG  LYS E 802     -16.260  25.300  27.714  1.00 48.72 LIG 0.00  C 
BRANCH 7 8
ATOM      8  CD  LYS E 802     -16.732  26.371  28.671  1.00 52.85 LIG 0.03  C 
BRANCH 8 9
ATOM      9  CE  LYS E 802     -17.443  27.479  27.934  1.00 52.25 LIG 0.23  C 
BRANCH 9 10
ATOM     10  NZ  LYS E 802     -18.465  26.938  27.004  1.00 53.26 LIG-0.08  N 
ATOM     11 HZ1  LYS E 802     -18.834  26.211  27.359  1.00 53.26 LIG 0.27  HD
ATOM     12 HZ2  LYS E 802     -19.095  27.551  26.866  1.00 53.26 LIG 0.27  HD
ATOM     13 HZ3  LYS E 802     -18.080  26.729  26.230  1.00 53.26 LIG 0.27  HD
ENDBRANCH 9 10
ENDBRANCH 8 9
ENDBRANCH 7 8
ENDBRANCH 6 7
ENDBRANCH 5 6
BRANCH 5 14
ATOM     14  N   LYS E 802     -17.362  21.697  27.687  1.00 51.06 LIG-0.35  N 
ATOM     15 H    LYS E 802     -17.955  21.452  28.259  1.00 51.06 LIG 0.16  HD
ATOM     16  C   ALA E 801     -17.195  21.165  26.470  1.00 50.59 LIG 0.25  C 
ATOM     17 O    ALA E 801     -16.288  21.514  25.713  1.00 51.18 LIG-0.27  OA
BRANCH 16 18
ATOM     18  CA  ALA E 801     -18.151  20.063  26.033  1.00 50.00 LIG 0.27  C 
ATOM     19  CB  ALA E 801     -17.382  18.741  25.868  1.00 45.45 LIG 0.05  C 
BRANCH 18 20
ATOM     20  N   ALA E 801     -18.817  20.420  24.756  1.00 50.21 LIG-0.07  N 
ATOM     21 H3   ALA E 801     -19.438  19.813  24.565  1.00 50.21 LIG 0.28  HD
ATOM     22 H2   ALA E 801     -18.213  20.441  24.102  1.00 50.21 LIG 0.28  HD
ATOM     23 H1   ALA E 801     -19.199  21.220  24.834  1.00 50.21 LIG 0.28  HD
ENDBRANCH 18 20
ENDBRANCH 16 18
ENDBRANCH 5 14
ENDBRANCH 1 5
BRANCH 3 24
ATOM     24  CA  ALA E 803     -14.446  23.963  31.148  1.00 57.29 LIG 0.17  C 
ATOM     25  CB  ALA E 803     -15.432  24.903  31.846  1.00 55.60 LIG 0.04  C 
BRANCH 24 26
ATOM     26  C   ALA E 803     -13.969  22.936  32.175  1.00 59.81 LIG 0.24  C 
ATOM     27 O    ALA E 803     -13.495  23.258  33.262  1.00 62.26 LIG-0.27  OA
ATOM     28  N   ILE E 804     -14.073  21.680  31.743  1.00 62.20 LIG-0.35  N 
ATOM     29 H    ILE E 804     -14.408  21.497  30.973  1.00 62.20 LIG 0.16  HD
BRANCH 28 30
ATOM     30  CA  ILE E 804     -13.660  20.474  32.462  1.00 63.57 LIG 0.18  C 
BRANCH 30 31
ATOM     31  CB  ILE E 804     -14.718  19.987  33.479  1.00 63.71 LIG 0.01  C 
ATOM     32  CG2 ILE E 804     -15.219  18.604  33.087  1.00 63.48 LIG 0.01  C 
BRANCH 31 33
ATOM     33  CG1 ILE E 804     -14.125  19.938  34.885  1.00 63.94 LIG 0.00  C 
ATOM     34  CD1 ILE E 804     -14.008  21.279  35.535  1.00 63.94 LIG 0.01  C 
ENDBRANCH 31 33
ENDBRANCH 30 31
BRANCH 30 35
ATOM     35  C   ILE E 804     -13.553  19.424  31.354  1.00 65.71 LIG 0.24  C 
ATOM     36  N   ALA E 805     -12.678  18.438  31.534  1.00 67.46 LIG-0.35  N 
ATOM     37 H    ALA E 805     -12.177  18.358  32.228  1.00 67.46 LIG 0.16  HD
ATOM     38 O    ILE E 804     -14.253  19.517  30.340  1.00 65.35 LIG-0.27  OA
BRANCH 36 39
ATOM     39  CA  ALA E 805     -12.500  17.390  30.531  1.00 69.21 LIG 0.16  C 
ATOM     40  CB  ALA E 805     -13.790  16.578  30.386  1.00 68.65 LIG 0.04  C 
BRANCH 39 41
ATOM     41  C   ALA E 805     -12.093  17.971  29.178  1.00 70.07 LIG 0.22  C 
ATOM     42 O    ALA E 805     -11.879  17.165  28.244  1.00 70.08 LIG-0.29  OA
ENDBRANCH 39 41
ENDBRANCH 36 39
ENDBRANCH 30 35
ENDBRANCH 28 30
ENDBRANCH 24 26
ENDBRANCH 3 24
TORSDOF 17
ENDMDL
MODEL 40
USER: ADFR SOLUTION from run 155
USER: SCORE 12.561246 LL:  -2.121 LR: -11.093 RR:   0.000 FEB:  -6.021
USER: RMSD 10.580056
USER: SEED 154
USER: STATUS no improvement in best 6 clusters for 5 generations
USER: GENES 19
USER: genes 0 Translation |==|  0.39422 0.72760 0.39382
USER: genes 1 Rotation |==|  0.39290 0.01456 0.54104 0.53453
USER: genes 2 Torsion [N]-C--CA-[N] |==|  0.41678
USER: genes 3 Torsion [C]-CA--CB-[CG] |==|  0.37205
USER: genes 4 Torsion [CA]-CB--CG-[CD] |==|  0.93293
USER: genes 5 Torsion [CB]-CG--CD-[CE] |==|  0.78072
USER: genes 6 Torsion [CG]-CD--CE-[NZ] |==|  0.71154
USER: genes 7 Torsion [CD]-CE--NZ-[HZ2] |==|  0.62250
USER: genes 8 Torsion [C]-CA--N-[C] |==|  0.61673
USER: genes 9 Torsion [N]-C--CA-[N] |==|  0.26286
USER: genes 10 Torsion [C]-CA--N-[H1] |==|  0.23945
USER: genes 11 Torsion [C]-N--CA-[CB] |==|  0.72344
USER: genes 12 Torsion [N]-CA--C-[N] |==|  0.44147
USER: genes 13 Torsion [C]-N--CA-[CB] |==|  0.52778
USER: genes 14 Torsion [N]-CA--CB-[CG1] |==|  0.38464
USER: genes 15 Torsion [CA]-CB--CG1-[CD1] |==|  0.60730
USER: genes 16 Torsion [N]-CA--C-[N] |==|  0.41338
USER: genes 17 Torsion [C]-N--CA-[CB] |==|  0.47762
USER: genes 18 Torsion [N]-CA--C-[O] |==|  0.26388
ROOT
ATOM      1  C   LYS E 802     -16.013  28.388  31.295  1.00 51.37 LIG 0.24  C 
ATOM      2 O    LYS E 802     -15.178  28.830  32.078  1.00 54.76 LIG-0.27  OA
ATOM      3  N   ALA E 803     -16.197  27.086  31.086  1.00 53.01 LIG-0.35  N 
ATOM      4 H    ALA E 803     -16.828  26.778  30.589  1.00 53.01 LIG 0.16  HD
ENDROOT
BRANCH 1 5
ATOM      5  CA  LYS E 802     -16.908  29.336  30.487  1.00 50.80 LIG 0.18  C 
BRANCH 5 6
ATOM      6  CB  LYS E 802     -16.219  29.566  29.141  1.00 49.65 LIG 0.04  C 
BRANCH 6 7
ATOM      7  CG  LYS E 802     -17.115  29.459  27.942  1.00 48.72 LIG 0.00  C 
BRANCH 7 8
ATOM      8  CD  LYS E 802     -18.313  28.597  28.269  1.00 52.85 LIG 0.03  C 
BRANCH 8 9
ATOM      9  CE  LYS E 802     -17.953  27.131  28.218  1.00 52.25 LIG 0.23  C 
BRANCH 9 10
ATOM     10  NZ  LYS E 802     -18.465  26.494  26.980  1.00 53.26 LIG-0.08  N 
ATOM     11 HZ1  LYS E 802     -17.793  26.371  26.410  1.00 53.26 LIG 0.27  HD
ATOM     12 HZ2  LYS E 802     -18.831  25.708  27.180  1.00 53.26 LIG 0.27  HD
ATOM     13 HZ3  LYS E 802     -19.078  27.020  26.607  1.00 53.26 LIG 0.27  HD
ENDBRANCH 9 10
ENDBRANCH 8 9
ENDBRANCH 7 8
ENDBRANCH 6 7
ENDBRANCH 5 6
BRANCH 5 14
ATOM     14  N   LYS E 802     -17.288  30.640  31.032  1.00 51.06 LIG-0.35  N 
ATOM     15 H    LYS E 802     -16.661  31.072  31.432  1.00 51.06 LIG 0.16  HD
ATOM     16  C   ALA E 801     -18.547  31.069  30.881  1.00 50.59 LIG 0.25  C 
ATOM     17 O    ALA E 801     -19.422  30.382  30.351  1.00 51.18 LIG-0.27  OA
BRANCH 16 18
ATOM     18  CA  ALA E 801     -18.904  32.448  31.421  1.00 50.00 LIG 0.27  C 
ATOM     19  CB  ALA E 801     -20.335  32.432  31.986  1.00 45.45 LIG 0.05  C 
BRANCH 18 20
ATOM     20  N   ALA E 801     -18.795  33.474  30.355  1.00 50.21 LIG-0.07  N 
ATOM     21 H3   ALA E 801     -18.132  33.258  29.802  1.00 50.21 LIG 0.28  HD
ATOM     22 H2   ALA E 801     -18.628  34.268  30.722  1.00 50.21 LIG 0.28  HD
ATOM     23 H1   ALA E 801     -19.559  33.513  29.900  1.00 50.21 LIG 0.28  HD
ENDBRANCH 18 20
ENDBRANCH 16 18
ENDBRANCH 5 14
ENDBRANCH 1 5
BRANCH 3 24
ATOM     24  CA  ALA E 803     -15.352  26.036  31.675  1.00 57.29 LIG 0.17  C 
ATOM     25  CB  ALA E 803     -14.338  25.580  30.622  1.00 55.60 LIG 0.04  C 
BRANCH 24 26
ATOM     26  C   ALA E 803     -14.628  26.120  33.018  1.00 59.81 LIG 0.24  C 
ATOM     27 O    ALA E 803     -14.331  27.190  33.544  1.00 62.26 LIG-0.27  OA
ATOM     28  N   ILE E 804     -14.314  24.926  33.517  1.00 62.20 LIG-0.35  N 
ATOM     29 H    ILE E 804     -14.539  24.199  33.116  1.00 62.20 LIG 0.16  HD
BRANCH 28 30
ATOM     30  CA  ILE E 804     -13.581  24.663  34.756  1.00 63.57 LIG 0.18  C 
BRANCH 30 31
ATOM     31  CB  ILE E 804     -13.176  23.180  34.914  1.00 63.71 LIG 0.01  C 
ATOM     32  CG2 ILE E 804     -13.265  22.470  33.570  1.00 63.48 LIG 0.01  C 
BRANCH 31 33
ATOM     33  CG1 ILE E 804     -11.754  23.068  35.459  1.00 63.94 LIG 0.00  C 
ATOM     34  CD1 ILE E 804     -10.963  21.956  34.849  1.00 63.94 LIG 0.01  C 
ENDBRANCH 31 33
ENDBRANCH 30 31
BRANCH 30 35
ATOM     35  C   ILE E 804     -12.300  25.485  34.587  1.00 65.71 LIG 0.24  C 
ATOM     36  N   ALA E 805     -11.744  25.977  35.691  1.00 67.46 LIG-0.35  N 
ATOM     37 H    ALA E 805     -12.058  25.859  36.483  1.00 67.46 LIG 0.16  HD
ATOM     38 O    ILE E 804     -11.831  25.680  33.460  1.00 65.35 LIG-0.27  OA
BRANCH 36 39
ATOM     39  CA  ALA E 805     -10.523  26.778  35.632  1.00 69.21 LIG 0.16  C 
ATOM     40  CB  ALA E 805     -10.221  27.375  37.009  1.00 68.65 LIG 0.04  C 
BRANCH 39 41
ATOM     41  C   ALA E 805      -9.333  25.951  35.149  1.00 70.07 LIG 0.22  C 
ATOM     42 O    ALA E 805      -9.058  25.994  33.928  1.00 70.08 LIG-0.29  OA
ENDBRANCH 39 41
ENDBRANCH 36 39
ENDBRANCH 30 35
ENDBRANCH 28 30
ENDBRANCH 24 26
ENDBRANCH 3 24
TORSDOF 17
ENDMDL
MODEL 41
USER: ADFR SOLUTION from run 149
USER: SCORE 11.873758 LL:  -2.516 LR: -11.073 RR:   0.000 FEB:  -6.002
USER: RMSD 10.576586
USER: SEED 148
USER: STATUS no improvement in best 18 clusters for 5 generations
USER: GENES 19
USER: genes 0 Translation |==|  0.38250 0.74320 0.38791
USER: genes 1 Rotation |==|  0.36427 0.02890 0.59626 0.51947
USER: genes 2 Torsion [N]-C--CA-[N] |==|  0.39340
USER: genes 3 Torsion [C]-CA--CB-[CG] |==|  0.28579
USER: genes 4 Torsion [CA]-CB--CG-[CD] |==|  0.77347
USER: genes 5 Torsion [CB]-CG--CD-[CE] |==|  0.33562
USER: genes 6 Torsion [CG]-CD--CE-[NZ] |==|  0.13099
USER: genes 7 Torsion [CD]-CE--NZ-[HZ2] |==|  0.75737
USER: genes 8 Torsion [C]-CA--N-[C] |==|  0.82169
USER: genes 9 Torsion [N]-C--CA-[N] |==|  0.08368
USER: genes 10 Torsion [C]-CA--N-[H1] |==|  0.25879
USER: genes 11 Torsion [C]-N--CA-[CB] |==|  0.72531
USER: genes 12 Torsion [N]-CA--C-[N] |==|  0.60079
USER: genes 13 Torsion [C]-N--CA-[CB] |==|  0.21667
USER: genes 14 Torsion [N]-CA--CB-[CG1] |==|  0.08512
USER: genes 15 Torsion [CA]-CB--CG1-[CD1] |==|  0.27298
USER: genes 16 Torsion [N]-CA--C-[N] |==|  0.59209
USER: genes 17 Torsion [C]-N--CA-[CB] |==|  0.29658
USER: genes 18 Torsion [N]-CA--C-[O] |==|  0.17749
ROOT
ATOM      1  C   LYS E 802     -16.365  28.856  31.117  1.00 51.37 LIG 0.24  C 
ATOM      2 O    LYS E 802     -15.492  29.386  31.798  1.00 54.76 LIG-0.27  OA
ATOM      3  N   ALA E 803     -16.683  27.567  31.218  1.00 53.01 LIG-0.35  N 
ATOM      4 H    ALA E 803     -17.340  27.214  30.791  1.00 53.01 LIG 0.16  HD
ENDROOT
BRANCH 1 5
ATOM      5  CA  LYS E 802     -17.152  29.669  30.083  1.00 50.80 LIG 0.18  C 
BRANCH 5 6
ATOM      6  CB  LYS E 802     -16.327  29.676  28.795  1.00 49.65 LIG 0.04  C 
BRANCH 6 7
ATOM      7  CG  LYS E 802     -16.812  28.743  27.725  1.00 48.72 LIG 0.00  C 
BRANCH 7 8
ATOM      8  CD  LYS E 802     -16.316  27.341  27.999  1.00 52.85 LIG 0.03  C 
BRANCH 8 9
ATOM      9  CE  LYS E 802     -17.471  26.380  28.150  1.00 52.25 LIG 0.23  C 
BRANCH 9 10
ATOM     10  NZ  LYS E 802     -18.462  26.555  27.061  1.00 53.26 LIG-0.08  N 
ATOM     11 HZ1  LYS E 802     -18.891  25.788  26.923  1.00 53.26 LIG 0.27  HD
ATOM     12 HZ2  LYS E 802     -19.049  27.183  27.291  1.00 53.26 LIG 0.27  HD
ATOM     13 HZ3  LYS E 802     -18.044  26.799  26.315  1.00 53.26 LIG 0.27  HD
ENDBRANCH 9 10
ENDBRANCH 8 9
ENDBRANCH 7 8
ENDBRANCH 6 7
ENDBRANCH 5 6
BRANCH 5 14
ATOM     14  N   LYS E 802     -17.555  31.046  30.373  1.00 51.06 LIG-0.35  N 
ATOM     15 H    LYS E 802     -17.204  31.648  29.870  1.00 51.06 LIG 0.16  HD
ATOM     16  C   ALA E 801     -18.417  31.277  31.370  1.00 50.59 LIG 0.25  C 
ATOM     17 O    ALA E 801     -18.843  30.381  32.100  1.00 51.18 LIG-0.27  OA
BRANCH 16 18
ATOM     18  CA  ALA E 801     -18.851  32.716  31.623  1.00 50.00 LIG 0.27  C 
ATOM     19  CB  ALA E 801     -20.261  32.734  32.237  1.00 45.45 LIG 0.05  C 
BRANCH 18 20
ATOM     20  N   ALA E 801     -18.841  33.497  30.361  1.00 50.21 LIG-0.07  N 
ATOM     21 H3   ALA E 801     -18.249  33.145  29.799  1.00 50.21 LIG 0.28  HD
ATOM     22 H2   ALA E 801     -18.618  34.341  30.536  1.00 50.21 LIG 0.28  HD
ATOM     23 H1   ALA E 801     -19.650  33.475  29.992  1.00 50.21 LIG 0.28  HD
ENDBRANCH 18 20
ENDBRANCH 16 18
ENDBRANCH 5 14
ENDBRANCH 1 5
BRANCH 3 24
ATOM     24  CA  ALA E 803     -15.954  26.608  32.063  1.00 57.29 LIG 0.17  C 
ATOM     25  CB  ALA E 803     -14.977  25.826  31.181  1.00 55.60 LIG 0.04  C 
BRANCH 24 26
ATOM     26  C   ALA E 803     -15.243  26.935  33.376  1.00 59.81 LIG 0.24  C 
ATOM     27 O    ALA E 803     -15.657  27.788  34.158  1.00 62.26 LIG-0.27  OA
ATOM     28  N   ILE E 804     -14.119  26.242  33.547  1.00 62.20 LIG-0.35  N 
ATOM     29 H    ILE E 804     -13.863  25.655  32.973  1.00 62.20 LIG 0.16  HD
BRANCH 28 30
ATOM     30  CA  ILE E 804     -13.186  26.356  34.669  1.00 63.57 LIG 0.18  C 
BRANCH 30 31
ATOM     31  CB  ILE E 804     -13.683  25.629  35.940  1.00 63.71 LIG 0.01  C 
ATOM     32  CG2 ILE E 804     -14.497  26.585  36.801  1.00 63.48 LIG 0.01  C 
BRANCH 31 33
ATOM     33  CG1 ILE E 804     -14.537  24.421  35.567  1.00 63.94 LIG 0.00  C 
ATOM     34  CD1 ILE E 804     -13.791  23.125  35.598  1.00 63.94 LIG 0.01  C 
ENDBRANCH 31 33
ENDBRANCH 30 31
BRANCH 30 35
ATOM     35  C   ILE E 804     -11.940  25.624  34.166  1.00 65.71 LIG 0.24  C 
ATOM     36  N   ALA E 805     -11.214  24.969  35.068  1.00 67.46 LIG-0.35  N 
ATOM     37 H    ALA E 805     -11.404  24.933  35.906  1.00 67.46 LIG 0.16  HD
ATOM     38 O    ILE E 804     -11.635  25.666  32.968  1.00 65.35 LIG-0.27  OA
BRANCH 36 39
ATOM     39  CA  ALA E 805     -10.004  24.244  34.686  1.00 69.21 LIG 0.16  C 
ATOM     40  CB  ALA E 805      -8.764  25.004  35.164  1.00 68.65 LIG 0.04  C 
BRANCH 39 41
ATOM     41  C   ALA E 805      -9.998  22.825  35.253  1.00 70.07 LIG 0.22  C 
ATOM     42 O    ALA E 805     -10.888  22.040  34.853  1.00 70.08 LIG-0.29  OA
ENDBRANCH 39 41
ENDBRANCH 36 39
ENDBRANCH 30 35
ENDBRANCH 28 30
ENDBRANCH 24 26
ENDBRANCH 3 24
TORSDOF 17
ENDMDL
MODEL 42
USER: ADFR SOLUTION from run 155
USER: SCORE 12.660457 LL:  -2.499 LR: -11.055 RR:   0.000 FEB:  -5.984
USER: RMSD 9.888849
USER: SEED 154
USER: STATUS no improvement in best 6 clusters for 5 generations
USER: GENES 19
USER: genes 0 Translation |==|  0.38991 0.72309 0.39213
USER: genes 1 Rotation |==|  0.21592 0.48486 0.80048 0.78068
USER: genes 2 Torsion [N]-C--CA-[N] |==|  0.98848
USER: genes 3 Torsion [C]-CA--CB-[CG] |==|  0.36751
USER: genes 4 Torsion [CA]-CB--CG-[CD] |==|  0.94952
USER: genes 5 Torsion [CB]-CG--CD-[CE] |==|  0.79373
USER: genes 6 Torsion [CG]-CD--CE-[NZ] |==|  0.69738
USER: genes 7 Torsion [CD]-CE--NZ-[HZ2] |==|  0.64505
USER: genes 8 Torsion [C]-CA--N-[C] |==|  0.65846
USER: genes 9 Torsion [N]-C--CA-[N] |==|  0.23754
USER: genes 10 Torsion [C]-CA--N-[H1] |==|  0.23341
USER: genes 11 Torsion [C]-N--CA-[CB] |==|  0.73034
USER: genes 12 Torsion [N]-CA--C-[N] |==|  0.35790
USER: genes 13 Torsion [C]-N--CA-[CB] |==|  0.51680
USER: genes 14 Torsion [N]-CA--CB-[CG1] |==|  0.58652
USER: genes 15 Torsion [CA]-CB--CG1-[CD1] |==|  0.73458
USER: genes 16 Torsion [N]-CA--C-[N] |==|  0.42809
USER: genes 17 Torsion [C]-N--CA-[CB] |==|  0.32167
USER: genes 18 Torsion [N]-CA--C-[O] |==|  0.91502
ROOT
ATOM      1  C   LYS E 802     -16.143  28.253  31.244  1.00 51.37 LIG 0.24  C 
ATOM      2 O    LYS E 802     -15.960  27.114  30.824  1.00 54.76 LIG-0.27  OA
ATOM      3  N   ALA E 803     -15.778  28.645  32.463  1.00 53.01 LIG-0.35  N 
ATOM      4 H    ALA E 803     -15.844  29.460  32.730  1.00 53.01 LIG 0.16  HD
ENDROOT
BRANCH 1 5
ATOM      5  CA  LYS E 802     -16.826  29.310  30.369  1.00 50.80 LIG 0.18  C 
BRANCH 5 6
ATOM      6  CB  LYS E 802     -15.958  29.490  29.122  1.00 49.65 LIG 0.04  C 
BRANCH 6 7
ATOM      7  CG  LYS E 802     -16.702  29.469  27.820  1.00 48.72 LIG 0.00  C 
BRANCH 7 8
ATOM      8  CD  LYS E 802     -18.062  28.838  28.014  1.00 52.85 LIG 0.03  C 
BRANCH 8 9
ATOM      9  CE  LYS E 802     -17.945  27.341  28.174  1.00 52.25 LIG 0.23  C 
BRANCH 9 10
ATOM     10  NZ  LYS E 802     -18.465  26.630  26.980  1.00 53.26 LIG-0.08  N 
ATOM     11 HZ1  LYS E 802     -17.793  26.230  26.556  1.00 53.26 LIG 0.27  HD
ATOM     12 HZ2  LYS E 802     -19.060  26.019  27.234  1.00 53.26 LIG 0.27  HD
ATOM     13 HZ3  LYS E 802     -18.854  27.214  26.433  1.00 53.26 LIG 0.27  HD
ENDBRANCH 9 10
ENDBRANCH 8 9
ENDBRANCH 7 8
ENDBRANCH 6 7
ENDBRANCH 5 6
BRANCH 5 14
ATOM     14  N   LYS E 802     -17.129  30.636  30.908  1.00 51.06 LIG-0.35  N 
ATOM     15 H    LYS E 802     -16.457  31.072  31.219  1.00 51.06 LIG 0.16  HD
ATOM     16  C   ALA E 801     -18.393  31.075  30.887  1.00 50.59 LIG 0.25  C 
ATOM     17 O    ALA E 801     -19.329  30.383  30.484  1.00 51.18 LIG-0.27  OA
BRANCH 16 18
ATOM     18  CA  ALA E 801     -18.674  32.476  31.416  1.00 50.00 LIG 0.27  C 
ATOM     19  CB  ALA E 801     -20.119  32.557  31.937  1.00 45.45 LIG 0.05  C 
BRANCH 18 20
ATOM     20  N   ALA E 801     -18.464  33.491  30.355  1.00 50.21 LIG-0.07  N 
ATOM     21 H3   ALA E 801     -17.780  33.246  29.841  1.00 50.21 LIG 0.28  HD
ATOM     22 H2   ALA E 801     -18.286  34.280  30.729  1.00 50.21 LIG 0.28  HD
ATOM     23 H1   ALA E 801     -19.199  33.558  29.858  1.00 50.21 LIG 0.28  HD
ENDBRANCH 18 20
ENDBRANCH 16 18
ENDBRANCH 5 14
ENDBRANCH 1 5
BRANCH 3 24
ATOM     24  CA  ALA E 803     -15.224  27.740  33.482  1.00 57.29 LIG 0.17  C 
ATOM     25  CB  ALA E 803     -16.356  27.310  34.418  1.00 55.60 LIG 0.04  C 
BRANCH 24 26
ATOM     26  C   ALA E 803     -14.348  26.517  33.210  1.00 59.81 LIG 0.24  C 
ATOM     27 O    ALA E 803     -14.684  25.622  32.438  1.00 62.26 LIG-0.27  OA
ATOM     28  N   ILE E 804     -13.229  26.506  33.932  1.00 62.20 LIG-0.35  N 
ATOM     29 H    ILE E 804     -13.033  27.152  34.464  1.00 62.20 LIG 0.16  HD
BRANCH 28 30
ATOM     30  CA  ILE E 804     -12.208  25.458  33.941  1.00 63.57 LIG 0.18  C 
BRANCH 30 31
ATOM     31  CB  ILE E 804     -11.112  25.694  35.005  1.00 63.71 LIG 0.01  C 
ATOM     32  CG2 ILE E 804     -11.510  25.035  36.319  1.00 63.48 LIG 0.01  C 
BRANCH 31 33
ATOM     33  CG1 ILE E 804      -9.775  25.127  34.532  1.00 63.94 LIG 0.00  C 
ATOM     34  CD1 ILE E 804      -9.496  23.748  35.037  1.00 63.94 LIG 0.01  C 
ENDBRANCH 31 33
ENDBRANCH 30 31
BRANCH 30 35
ATOM     35  C   ILE E 804     -12.992  24.207  34.344  1.00 65.71 LIG 0.24  C 
ATOM     36  N   ALA E 805     -12.508  23.033  33.946  1.00 67.46 LIG-0.35  N 
ATOM     37 H    ALA E 805     -11.789  22.938  33.485  1.00 67.46 LIG 0.16  HD
ATOM     38 O    ILE E 804     -14.035  24.310  34.999  1.00 65.35 LIG-0.27  OA
BRANCH 36 39
ATOM     39  CA  ALA E 805     -13.188  21.781  34.277  1.00 69.21 LIG 0.16  C 
ATOM     40  CB  ALA E 805     -13.678  21.097  32.998  1.00 68.65 LIG 0.04  C 
BRANCH 39 41
ATOM     41  C   ALA E 805     -12.275  20.838  35.058  1.00 70.07 LIG 0.22  C 
ATOM     42 O    ALA E 805     -11.046  20.901  34.829  1.00 70.08 LIG-0.29  OA
ENDBRANCH 39 41
ENDBRANCH 36 39
ENDBRANCH 30 35
ENDBRANCH 28 30
ENDBRANCH 24 26
ENDBRANCH 3 24
TORSDOF 17
ENDMDL
MODEL 43
USER: ADFR SOLUTION from run 132
USER: SCORE 11.123659 LL:  -2.440 LR: -11.038 RR:   0.000 FEB:  -5.967
USER: RMSD 10.262906
USER: SEED 131
USER: STATUS no improvement in best 9 clusters for 5 generations
USER: GENES 19
USER: genes 0 Translation |==|  0.36676 0.78137 0.41641
USER: genes 1 Rotation |==|  0.55337 0.97552 0.44127 0.63261
USER: genes 2 Torsion [N]-C--CA-[N] |==|  0.51370
USER: genes 3 Torsion [C]-CA--CB-[CG] |==|  0.43771
USER: genes 4 Torsion [CA]-CB--CG-[CD] |==|  0.84138
USER: genes 5 Torsion [CB]-CG--CD-[CE] |==|  0.76179
USER: genes 6 Torsion [CG]-CD--CE-[NZ] |==|  0.59790
USER: genes 7 Torsion [CD]-CE--NZ-[HZ2] |==|  0.09517
USER: genes 8 Torsion [C]-CA--N-[C] |==|  0.14007
USER: genes 9 Torsion [N]-C--CA-[N] |==|  0.95493
USER: genes 10 Torsion [C]-CA--N-[H1] |==|  0.82919
USER: genes 11 Torsion [C]-N--CA-[CB] |==|  0.17375
USER: genes 12 Torsion [N]-CA--C-[N] |==|  0.07703
USER: genes 13 Torsion [C]-N--CA-[CB] |==|  0.49445
USER: genes 14 Torsion [N]-CA--CB-[CG1] |==|  0.86525
USER: genes 15 Torsion [CA]-CB--CG1-[CD1] |==|  0.35090
USER: genes 16 Torsion [N]-CA--C-[N] |==|  0.26966
USER: genes 17 Torsion [C]-N--CA-[CB] |==|  0.79461
USER: genes 18 Torsion [N]-CA--C-[O] |==|  0.72348
ROOT
ATOM      1  C   LYS E 802     -16.837  30.001  31.972  1.00 51.37 LIG 0.24  C 
ATOM      2 O    LYS E 802     -16.739  30.758  32.933  1.00 54.76 LIG-0.27  OA
ATOM      3  N   ALA E 803     -16.617  28.690  32.054  1.00 53.01 LIG-0.35  N 
ATOM      4 H    ALA E 803     -16.753  28.153  31.397  1.00 53.01 LIG 0.16  HD
ENDROOT
BRANCH 1 5
ATOM      5  CA  LYS E 802     -17.221  30.538  30.588  1.00 50.80 LIG 0.18  C 
BRANCH 5 6
ATOM      6  CB  LYS E 802     -16.176  30.017  29.599  1.00 49.65 LIG 0.04  C 
BRANCH 6 7
ATOM      7  CG  LYS E 802     -16.623  29.970  28.168  1.00 48.72 LIG 0.00  C 
BRANCH 7 8
ATOM      8  CD  LYS E 802     -17.868  29.121  28.045  1.00 52.85 LIG 0.03  C 
BRANCH 8 9
ATOM      9  CE  LYS E 802     -17.513  27.662  27.892  1.00 52.25 LIG 0.23  C 
BRANCH 9 10
ATOM     10  NZ  LYS E 802     -18.465  26.968  26.989  1.00 53.26 LIG-0.08  N 
ATOM     11 HZ1  LYS E 802     -19.172  26.697  27.456  1.00 53.26 LIG 0.27  HD
ATOM     12 HZ2  LYS E 802     -18.730  27.528  26.350  1.00 53.26 LIG 0.27  HD
ATOM     13 HZ3  LYS E 802     -18.065  26.264  26.621  1.00 53.26 LIG 0.27  HD
ENDBRANCH 9 10
ENDBRANCH 8 9
ENDBRANCH 7 8
ENDBRANCH 6 7
ENDBRANCH 5 6
BRANCH 5 14
ATOM     14  N   LYS E 802     -17.378  31.976  30.368  1.00 51.06 LIG-0.35  N 
ATOM     15 H    LYS E 802     -18.108  32.215  29.983  1.00 51.06 LIG 0.16  HD
ATOM     16  C   ALA E 801     -16.407  32.807  30.767  1.00 50.59 LIG 0.25  C 
ATOM     17 O    ALA E 801     -15.352  32.406  31.261  1.00 51.18 LIG-0.27  OA
BRANCH 16 18
ATOM     18  CA  ALA E 801     -16.616  34.303  30.564  1.00 50.00 LIG 0.27  C 
ATOM     19  CB  ALA E 801     -16.939  34.972  31.911  1.00 45.45 LIG 0.05  C 
BRANCH 18 20
ATOM     20  N   ALA E 801     -17.715  34.554  29.600  1.00 50.21 LIG-0.07  N 
ATOM     21 H3   ALA E 801     -17.836  35.431  29.510  1.00 50.21 LIG 0.28  HD
ATOM     22 H2   ALA E 801     -18.465  34.181  29.900  1.00 50.21 LIG 0.28  HD
ATOM     23 H1   ALA E 801     -17.504  34.202  28.810  1.00 50.21 LIG 0.28  HD
ENDBRANCH 18 20
ENDBRANCH 16 18
ENDBRANCH 5 14
ENDBRANCH 1 5
BRANCH 3 24
ATOM     24  CA  ALA E 803     -16.122  28.018  33.266  1.00 57.29 LIG 0.17  C 
ATOM     25  CB  ALA E 803     -17.154  28.205  34.382  1.00 55.60 LIG 0.04  C 
BRANCH 24 26
ATOM     26  C   ALA E 803     -15.603  26.583  33.342  1.00 59.81 LIG 0.24  C 
ATOM     27 O    ALA E 803     -15.627  25.925  34.380  1.00 62.26 LIG-0.27  OA
ATOM     28  N   ILE E 804     -15.082  26.155  32.193  1.00 62.20 LIG-0.35  N 
ATOM     29 H    ILE E 804     -15.083  26.649  31.490  1.00 62.20 LIG 0.16  HD
BRANCH 28 30
ATOM     30  CA  ILE E 804     -14.460  24.853  31.949  1.00 63.57 LIG 0.18  C 
BRANCH 30 31
ATOM     31  CB  ILE E 804     -14.004  24.669  30.483  1.00 63.71 LIG 0.01  C 
ATOM     32  CG2 ILE E 804     -13.606  23.220  30.240  1.00 63.48 LIG 0.01  C 
BRANCH 31 33
ATOM     33  CG1 ILE E 804     -15.124  25.061  29.522  1.00 63.94 LIG 0.00  C 
ATOM     34  CD1 ILE E 804     -14.710  26.072  28.500  1.00 63.94 LIG 0.01  C 
ENDBRANCH 31 33
ENDBRANCH 30 31
BRANCH 30 35
ATOM     35  C   ILE E 804     -13.209  24.891  32.829  1.00 65.71 LIG 0.24  C 
ATOM     36  N   ALA E 805     -13.290  24.312  34.024  1.00 67.46 LIG-0.35  N 
ATOM     37 H    ALA E 805     -13.995  23.921  34.325  1.00 67.46 LIG 0.16  HD
ATOM     38 O    ILE E 804     -12.184  25.454  32.429  1.00 65.35 LIG-0.27  OA
BRANCH 36 39
ATOM     39  CA  ALA E 805     -12.150  24.299  34.940  1.00 69.21 LIG 0.16  C 
ATOM     40  CB  ALA E 805     -11.097  23.301  34.451  1.00 68.65 LIG 0.04  C 
BRANCH 39 41
ATOM     41  C   ALA E 805     -11.529  25.687  35.081  1.00 70.07 LIG 0.22  C 
ATOM     42 O    ALA E 805     -10.498  25.930  34.413  1.00 70.08 LIG-0.29  OA
ENDBRANCH 39 41
ENDBRANCH 36 39
ENDBRANCH 30 35
ENDBRANCH 28 30
ENDBRANCH 24 26
ENDBRANCH 3 24
TORSDOF 17
ENDMDL
MODEL 44
USER: ADFR SOLUTION from run 32
USER: SCORE 12.618511 LL:  -2.023 LR: -11.007 RR:   0.000 FEB:  -5.936
USER: RMSD 10.188617
USER: SEED 31
USER: STATUS no improvement in best 11 clusters for 5 generations
USER: GENES 19
USER: genes 0 Translation |==|  0.41343 0.56476 0.34530
USER: genes 1 Rotation |==|  0.29938 0.18864 0.81729 0.61016
USER: genes 2 Torsion [N]-C--CA-[N] |==|  0.36434
USER: genes 3 Torsion [C]-CA--CB-[CG] |==|  0.34541
USER: genes 4 Torsion [CA]-CB--CG-[CD] |==|  0.44627
USER: genes 5 Torsion [CB]-CG--CD-[CE] |==|  0.55088
USER: genes 6 Torsion [CG]-CD--CE-[NZ] |==|  0.31523
USER: genes 7 Torsion [CD]-CE--NZ-[HZ2] |==|  0.82028
USER: genes 8 Torsion [C]-CA--N-[C] |==|  0.72226
USER: genes 9 Torsion [N]-C--CA-[N] |==|  0.33988
USER: genes 10 Torsion [C]-CA--N-[H1] |==|  0.01923
USER: genes 11 Torsion [C]-N--CA-[CB] |==|  0.81045
USER: genes 12 Torsion [N]-CA--C-[N] |==|  0.40262
USER: genes 13 Torsion [C]-N--CA-[CB] |==|  0.77896
USER: genes 14 Torsion [N]-CA--CB-[CG1] |==|  0.83661
USER: genes 15 Torsion [CA]-CB--CG1-[CD1] |==|  0.92176
USER: genes 16 Torsion [N]-CA--C-[N] |==|  0.19644
USER: genes 17 Torsion [C]-N--CA-[CB] |==|  0.41776
USER: genes 18 Torsion [N]-CA--C-[O] |==|  0.38652
ROOT
ATOM      1  C   LYS E 802     -15.437  23.503  29.839  1.00 51.37 LIG 0.24  C 
ATOM      2 O    LYS E 802     -14.272  23.643  29.481  1.00 54.76 LIG-0.27  OA
ATOM      3  N   ALA E 803     -15.779  23.087  31.057  1.00 53.01 LIG-0.35  N 
ATOM      4 H    ALA E 803     -16.594  23.055  31.327  1.00 53.01 LIG 0.16  HD
ENDROOT
BRANCH 1 5
ATOM      5  CA  LYS E 802     -16.593  23.800  28.876  1.00 50.80 LIG 0.18  C 
BRANCH 5 6
ATOM      6  CB  LYS E 802     -16.654  22.643  27.877  1.00 49.65 LIG 0.04  C 
BRANCH 6 7
ATOM      7  CG  LYS E 802     -17.980  21.948  27.790  1.00 48.72 LIG 0.00  C 
BRANCH 7 8
ATOM      8  CD  LYS E 802     -18.075  21.179  26.492  1.00 52.85 LIG 0.03  C 
BRANCH 8 9
ATOM      9  CE  LYS E 802     -19.511  20.848  26.164  1.00 52.25 LIG 0.23  C 
BRANCH 9 10
ATOM     10  NZ  LYS E 802     -19.965  21.566  24.948  1.00 53.26 LIG-0.08  N 
ATOM     11 HZ1  LYS E 802     -20.789  21.304  24.738  1.00 53.26 LIG 0.27  HD
ATOM     12 HZ2  LYS E 802     -19.965  22.443  25.104  1.00 53.26 LIG 0.27  HD
ATOM     13 HZ3  LYS E 802     -19.415  21.384  24.273  1.00 53.26 LIG 0.27  HD
ENDBRANCH 9 10
ENDBRANCH 8 9
ENDBRANCH 7 8
ENDBRANCH 6 7
ENDBRANCH 5 6
BRANCH 5 14
ATOM     14  N   LYS E 802     -16.626  25.054  28.123  1.00 51.06 LIG-0.35  N 
ATOM     15 H    LYS E 802     -16.130  25.078  27.421  1.00 51.06 LIG 0.16  HD
ATOM     16  C   ALA E 801     -17.400  26.056  28.557  1.00 50.59 LIG 0.25  C 
ATOM     17 O    ALA E 801     -18.046  25.989  29.604  1.00 51.18 LIG-0.27  OA
BRANCH 16 18
ATOM     18  CA  ALA E 801     -17.448  27.335  27.730  1.00 50.00 LIG 0.27  C 
ATOM     19  CB  ALA E 801     -16.873  28.505  28.546  1.00 45.45 LIG 0.05  C 
BRANCH 18 20
ATOM     20  N   ALA E 801     -18.840  27.643  27.319  1.00 50.21 LIG-0.07  N 
ATOM     21 H3   ALA E 801     -18.914  27.561  26.436  1.00 50.21 LIG 0.28  HD
ATOM     22 H2   ALA E 801     -19.042  28.477  27.556  1.00 50.21 LIG 0.28  HD
ATOM     23 H1   ALA E 801     -19.400  27.077  27.717  1.00 50.21 LIG 0.28  HD
ENDBRANCH 18 20
ENDBRANCH 16 18
ENDBRANCH 5 14
ENDBRANCH 1 5
BRANCH 3 24
ATOM     24  CA  ALA E 803     -14.810  22.638  32.069  1.00 57.29 LIG 0.17  C 
ATOM     25  CB  ALA E 803     -14.191  21.319  31.599  1.00 55.60 LIG 0.04  C 
BRANCH 24 26
ATOM     26  C   ALA E 803     -13.697  23.488  32.680  1.00 59.81 LIG 0.24  C 
ATOM     27 O    ALA E 803     -13.057  24.309  32.026  1.00 62.26 LIG-0.27  OA
ATOM     28  N   ILE E 804     -13.468  23.206  33.961  1.00 62.20 LIG-0.35  N 
ATOM     29 H    ILE E 804     -13.938  22.622  34.382  1.00 62.20 LIG 0.16  HD
BRANCH 28 30
ATOM     30  CA  ILE E 804     -12.443  23.805  34.817  1.00 63.57 LIG 0.18  C 
BRANCH 30 31
ATOM     31  CB  ILE E 804     -11.039  23.197  34.590  1.00 63.71 LIG 0.01  C 
ATOM     32  CG2 ILE E 804     -10.028  23.866  35.510  1.00 63.48 LIG 0.01  C 
BRANCH 31 33
ATOM     33  CG1 ILE E 804     -11.058  21.694  34.855  1.00 63.94 LIG 0.00  C 
ATOM     34  CD1 ILE E 804     -12.094  21.272  35.847  1.00 63.94 LIG 0.01  C 
ENDBRANCH 31 33
ENDBRANCH 30 31
BRANCH 30 35
ATOM     35  C   ILE E 804     -12.405  25.262  34.352  1.00 65.71 LIG 0.24  C 
ATOM     36  N   ALA E 805     -13.450  26.025  34.659  1.00 67.46 LIG-0.35  N 
ATOM     37 H    ALA E 805     -14.136  25.750  35.100  1.00 67.46 LIG 0.16  HD
ATOM     38 O    ILE E 804     -11.438  25.685  33.708  1.00 65.35 LIG-0.27  OA
BRANCH 36 39
ATOM     39  CA  ALA E 805     -13.510  27.429  34.256  1.00 69.21 LIG 0.16  C 
ATOM     40  CB  ALA E 805     -14.966  27.854  34.051  1.00 68.65 LIG 0.04  C 
BRANCH 39 41
ATOM     41  C   ALA E 805     -12.840  28.337  35.286  1.00 70.07 LIG 0.22  C 
ATOM     42 O    ALA E 805     -12.135  29.278  34.855  1.00 70.08 LIG-0.29  OA
ENDBRANCH 39 41
ENDBRANCH 36 39
ENDBRANCH 30 35
ENDBRANCH 28 30
ENDBRANCH 24 26
ENDBRANCH 3 24
TORSDOF 17
ENDMDL
MODEL 45
USER: ADFR SOLUTION from run 70
USER: SCORE 11.814598 LL:  -2.278 LR: -11.010 RR:   0.000 FEB:  -5.939
USER: RMSD 8.713475
USER: SEED 69
USER: STATUS no improvement in best 18 clusters for 5 generations
USER: GENES 19
USER: genes 0 Translation |==|  0.45451 0.61487 0.35460
USER: genes 1 Rotation |==|  0.16526 0.34181 0.83078 0.55923
USER: genes 2 Torsion [N]-C--CA-[N] |==|  0.84122
USER: genes 3 Torsion [C]-CA--CB-[CG] |==|  0.63396
USER: genes 4 Torsion [CA]-CB--CG-[CD] |==|  0.42219
USER: genes 5 Torsion [CB]-CG--CD-[CE] |==|  0.57053
USER: genes 6 Torsion [CG]-CD--CE-[NZ] |==|  0.86919
USER: genes 7 Torsion [CD]-CE--NZ-[HZ2] |==|  0.67883
USER: genes 8 Torsion [C]-CA--N-[C] |==|  0.64732
USER: genes 9 Torsion [N]-C--CA-[N] |==|  0.46961
USER: genes 10 Torsion [C]-CA--N-[H1] |==|  0.98843
USER: genes 11 Torsion [C]-N--CA-[CB] |==|  0.64700
USER: genes 12 Torsion [N]-CA--C-[N] |==|  0.73860
USER: genes 13 Torsion [C]-N--CA-[CB] |==|  0.20811
USER: genes 14 Torsion [N]-CA--CB-[CG1] |==|  0.58937
USER: genes 15 Torsion [CA]-CB--CG1-[CD1] |==|  0.20040
USER: genes 16 Torsion [N]-CA--C-[N] |==|  0.01159
USER: genes 17 Torsion [C]-N--CA-[CB] |==|  0.81521
USER: genes 18 Torsion [N]-CA--C-[O] |==|  0.08995
ROOT
ATOM      1  C   LYS E 802     -14.205  25.006  30.118  1.00 51.37 LIG 0.24  C 
ATOM      2 O    LYS E 802     -13.086  24.524  30.266  1.00 54.76 LIG-0.27  OA
ATOM      3  N   ALA E 803     -14.882  25.588  31.106  1.00 53.01 LIG-0.35  N 
ATOM      4 H    ALA E 803     -15.635  25.985  30.984  1.00 53.01 LIG 0.16  HD
ENDROOT
BRANCH 1 5
ATOM      5  CA  LYS E 802     -14.904  24.956  28.755  1.00 50.80 LIG 0.18  C 
BRANCH 5 6
ATOM      6  CB  LYS E 802     -15.021  26.397  28.256  1.00 49.65 LIG 0.04  C 
BRANCH 6 7
ATOM      7  CG  LYS E 802     -16.380  26.789  27.756  1.00 48.72 LIG 0.00  C 
BRANCH 7 8
ATOM      8  CD  LYS E 802     -16.589  28.275  27.943  1.00 52.85 LIG 0.03  C 
BRANCH 8 9
ATOM      9  CE  LYS E 802     -18.058  28.604  28.050  1.00 52.25 LIG 0.23  C 
BRANCH 9 10
ATOM     10  NZ  LYS E 802     -18.840  27.930  26.985  1.00 53.26 LIG-0.08  N 
ATOM     11 HZ1  LYS E 802     -19.487  27.443  27.354  1.00 53.26 LIG 0.27  HD
ATOM     12 HZ2  LYS E 802     -19.200  28.541  26.448  1.00 53.26 LIG 0.27  HD
ATOM     13 HZ3  LYS E 802     -18.303  27.400  26.513  1.00 53.26 LIG 0.27  HD
ENDBRANCH 9 10
ENDBRANCH 8 9
ENDBRANCH 7 8
ENDBRANCH 6 7
ENDBRANCH 5 6
BRANCH 5 14
ATOM     14  N   LYS E 802     -16.215  24.319  28.617  1.00 51.06 LIG-0.35  N 
ATOM     15 H    LYS E 802     -16.821  24.598  29.159  1.00 51.06 LIG 0.16  HD
ATOM     16  C   ALA E 801     -16.386  23.372  27.687  1.00 50.59 LIG 0.25  C 
ATOM     17 O    ALA E 801     -15.466  22.968  26.975  1.00 51.18 LIG-0.27  OA
BRANCH 16 18
ATOM     18  CA  ALA E 801     -17.772  22.756  27.537  1.00 50.00 LIG 0.27  C 
ATOM     19  CB  ALA E 801     -18.094  21.892  28.768  1.00 45.45 LIG 0.05  C 
BRANCH 18 20
ATOM     20  N   ALA E 801     -17.850  21.930  26.307  1.00 50.21 LIG-0.07  N 
ATOM     21 H3   ALA E 801     -18.522  22.217  25.800  1.00 50.21 LIG 0.28  HD
ATOM     22 H2   ALA E 801     -17.988  21.079  26.529  1.00 50.21 LIG 0.28  HD
ATOM     23 H1   ALA E 801     -17.087  21.999  25.854  1.00 50.21 LIG 0.28  HD
ENDBRANCH 18 20
ENDBRANCH 16 18
ENDBRANCH 5 14
ENDBRANCH 1 5
BRANCH 3 24
ATOM     24  CA  ALA E 803     -14.425  25.619  32.504  1.00 57.29 LIG 0.17  C 
ATOM     25  CB  ALA E 803     -15.549  25.082  33.395  1.00 55.60 LIG 0.04  C 
BRANCH 24 26
ATOM     26  C   ALA E 803     -13.103  25.056  33.024  1.00 59.81 LIG 0.24  C 
ATOM     27 O    ALA E 803     -12.049  25.685  32.971  1.00 62.26 LIG-0.27  OA
ATOM     28  N   ILE E 804     -13.212  23.810  33.483  1.00 62.20 LIG-0.35  N 
ATOM     29 H    ILE E 804     -13.969  23.404  33.501  1.00 62.20 LIG 0.16  HD
BRANCH 28 30
ATOM     30  CA  ILE E 804     -12.128  22.975  34.003  1.00 63.57 LIG 0.18  C 
BRANCH 30 31
ATOM     31  CB  ILE E 804     -11.674  23.392  35.421  1.00 63.71 LIG 0.01  C 
ATOM     32  CG2 ILE E 804     -12.465  22.622  36.469  1.00 63.48 LIG 0.01  C 
BRANCH 31 33
ATOM     33  CG1 ILE E 804     -10.182  23.122  35.605  1.00 63.94 LIG 0.00  C 
ATOM     34  CD1 ILE E 804      -9.304  24.065  34.846  1.00 63.94 LIG 0.01  C 
ENDBRANCH 31 33
ENDBRANCH 30 31
BRANCH 30 35
ATOM     35  C   ILE E 804     -12.770  21.589  34.103  1.00 65.71 LIG 0.24  C 
ATOM     36  N   ALA E 805     -14.015  21.462  33.650  1.00 67.46 LIG-0.35  N 
ATOM     37 H    ALA E 805     -14.471  22.105  33.307  1.00 67.46 LIG 0.16  HD
ATOM     38 O    ILE E 804     -12.143  20.647  34.601  1.00 65.35 LIG-0.27  OA
BRANCH 36 39
ATOM     39  CA  ALA E 805     -14.715  20.180  33.706  1.00 69.21 LIG 0.16  C 
ATOM     40  CB  ALA E 805     -14.039  19.172  32.772  1.00 68.65 LIG 0.04  C 
BRANCH 39 41
ATOM     41  C   ALA E 805     -14.759  19.627  35.129  1.00 70.07 LIG 0.22  C 
ATOM     42 O    ALA E 805     -14.817  20.453  36.068  1.00 70.08 LIG-0.29  OA
ENDBRANCH 39 41
ENDBRANCH 36 39
ENDBRANCH 30 35
ENDBRANCH 28 30
ENDBRANCH 24 26
ENDBRANCH 3 24
TORSDOF 17
ENDMDL
MODEL 46
USER: ADFR SOLUTION from run 105
USER: SCORE 11.205336 LL:  -2.085 LR: -10.954 RR:   0.000 FEB:  -5.883
USER: RMSD 9.887596
USER: SEED 104
USER: STATUS no improvement in best 13 clusters for 5 generations
USER: GENES 19
USER: genes 0 Translation |==|  0.34238 0.75093 0.31211
USER: genes 1 Rotation |==|  0.54357 0.25189 0.66505 0.89912
USER: genes 2 Torsion [N]-C--CA-[N] |==|  0.47584
USER: genes 3 Torsion [C]-CA--CB-[CG] |==|  0.49569
USER: genes 4 Torsion [CA]-CB--CG-[CD] |==|  0.60404
USER: genes 5 Torsion [CB]-CG--CD-[CE] |==|  0.80721
USER: genes 6 Torsion [CG]-CD--CE-[NZ] |==|  0.85878
USER: genes 7 Torsion [CD]-CE--NZ-[HZ2] |==|  0.42520
USER: genes 8 Torsion [C]-CA--N-[C] |==|  0.65268
USER: genes 9 Torsion [N]-C--CA-[N] |==|  0.90246
USER: genes 10 Torsion [C]-CA--N-[H1] |==|  0.48921
USER: genes 11 Torsion [C]-N--CA-[CB] |==|  0.15486
USER: genes 12 Torsion [N]-CA--C-[N] |==|  0.84707
USER: genes 13 Torsion [C]-N--CA-[CB] |==|  0.56111
USER: genes 14 Torsion [N]-CA--CB-[CG1] |==|  0.83618
USER: genes 15 Torsion [CA]-CB--CG1-[CD1] |==|  0.93841
USER: genes 16 Torsion [N]-CA--C-[N] |==|  0.28613
USER: genes 17 Torsion [C]-N--CA-[CB] |==|  0.17873
USER: genes 18 Torsion [N]-CA--C-[O] |==|  0.99940
ROOT
ATOM      1  C   LYS E 802     -17.569  29.088  28.843  1.00 51.37 LIG 0.24  C 
ATOM      2 O    LYS E 802     -17.360  29.773  27.847  1.00 54.76 LIG-0.27  OA
ATOM      3  N   ALA E 803     -17.249  27.798  28.918  1.00 53.01 LIG-0.35  N 
ATOM      4 H    ALA E 803     -17.333  27.338  29.640  1.00 53.01 LIG 0.16  HD
ENDROOT
BRANCH 1 5
ATOM      5  CA  LYS E 802     -18.234  29.694  30.084  1.00 50.80 LIG 0.18  C 
BRANCH 5 6
ATOM      6  CB  LYS E 802     -19.585  28.997  30.256  1.00 49.65 LIG 0.04  C 
BRANCH 6 7
ATOM      7  CG  LYS E 802     -20.379  29.433  31.451  1.00 48.72 LIG 0.00  C 
BRANCH 7 8
ATOM      8  CD  LYS E 802     -21.094  28.247  32.055  1.00 52.85 LIG 0.03  C 
BRANCH 8 9
ATOM      9  CE  LYS E 802     -22.198  27.761  31.146  1.00 52.25 LIG 0.23  C 
BRANCH 9 10
ATOM     10  NZ  LYS E 802     -23.083  28.876  30.731  1.00 53.26 LIG-0.08  N 
ATOM     11 HZ1  LYS E 802     -22.605  29.624  30.659  1.00 53.26 LIG 0.27  HD
ATOM     12 HZ2  LYS E 802     -23.451  28.685  29.943  1.00 53.26 LIG 0.27  HD
ATOM     13 HZ3  LYS E 802     -23.722  28.990  31.338  1.00 53.26 LIG 0.27  HD
ENDBRANCH 9 10
ENDBRANCH 8 9
ENDBRANCH 7 8
ENDBRANCH 6 7
ENDBRANCH 5 6
BRANCH 5 14
ATOM     14  N   LYS E 802     -18.452  31.138  30.178  1.00 51.06 LIG-0.35  N 
ATOM     15 H    LYS E 802     -18.891  31.490  29.529  1.00 51.06 LIG 0.16  HD
ATOM     16  C   ALA E 801     -17.970  31.804  31.235  1.00 50.59 LIG 0.25  C 
ATOM     17 O    ALA E 801     -17.294  31.259  32.109  1.00 51.18 LIG-0.27  OA
BRANCH 16 18
ATOM     18  CA  ALA E 801     -18.247  33.299  31.328  1.00 50.00 LIG 0.27  C 
ATOM     19  CB  ALA E 801     -19.606  33.535  32.008  1.00 45.45 LIG 0.05  C 
BRANCH 18 20
ATOM     20  N   ALA E 801     -18.244  33.919  29.980  1.00 50.21 LIG-0.07  N 
ATOM     21 H3   ALA E 801     -18.835  33.504  29.461  1.00 50.21 LIG 0.28  HD
ATOM     22 H2   ALA E 801     -17.432  33.847  29.622  1.00 50.21 LIG 0.28  HD
ATOM     23 H1   ALA E 801     -18.463  34.779  30.048  1.00 50.21 LIG 0.28  HD
ENDBRANCH 18 20
ENDBRANCH 16 18
ENDBRANCH 5 14
ENDBRANCH 1 5
BRANCH 3 24
ATOM     24  CA  ALA E 803     -16.719  27.019  27.788  1.00 57.29 LIG 0.17  C 
ATOM     25  CB  ALA E 803     -15.465  27.720  27.258  1.00 55.60 LIG 0.04  C 
BRANCH 24 26
ATOM     26  C   ALA E 803     -16.451  25.514  27.788  1.00 59.81 LIG 0.24  C 
ATOM     27 O    ALA E 803     -16.974  24.749  26.980  1.00 62.26 LIG-0.27  OA
ATOM     28  N   ILE E 804     -15.646  25.128  28.776  1.00 62.20 LIG-0.35  N 
ATOM     29 H    ILE E 804     -15.303  25.696  29.322  1.00 62.20 LIG 0.16  HD
BRANCH 28 30
ATOM     30  CA  ILE E 804     -15.235  23.756  29.080  1.00 63.57 LIG 0.18  C 
BRANCH 30 31
ATOM     31  CB  ILE E 804     -14.769  23.578  30.543  1.00 63.71 LIG 0.01  C 
ATOM     32  CG2 ILE E 804     -14.361  22.131  30.786  1.00 63.48 LIG 0.01  C 
BRANCH 31 33
ATOM     33  CG1 ILE E 804     -13.591  24.500  30.846  1.00 63.94 LIG 0.00  C 
ATOM     34  CD1 ILE E 804     -12.841  24.936  29.627  1.00 63.94 LIG 0.01  C 
ENDBRANCH 31 33
ENDBRANCH 30 31
BRANCH 30 35
ATOM     35  C   ILE E 804     -16.524  22.954  28.895  1.00 65.71 LIG 0.24  C 
ATOM     36  N   ALA E 805     -16.643  22.244  27.776  1.00 67.46 LIG-0.35  N 
ATOM     37 H    ALA E 805     -16.044  22.210  27.160  1.00 67.46 LIG 0.16  HD
ATOM     38 O    ILE E 804     -17.409  22.990  29.758  1.00 65.35 LIG-0.27  OA
BRANCH 36 39
ATOM     39  CA  ALA E 805     -17.839  21.448  27.506  1.00 69.21 LIG 0.16  C 
ATOM     40  CB  ALA E 805     -19.058  22.364  27.365  1.00 68.65 LIG 0.04  C 
BRANCH 39 41
ATOM     41  C   ALA E 805     -17.675  20.599  26.247  1.00 70.07 LIG 0.22  C 
ATOM     42 O    ALA E 805     -16.590  20.687  25.629  1.00 70.08 LIG-0.29  OA
ENDBRANCH 39 41
ENDBRANCH 36 39
ENDBRANCH 30 35
ENDBRANCH 28 30
ENDBRANCH 24 26
ENDBRANCH 3 24
TORSDOF 17
ENDMDL
MODEL 47
USER: ADFR SOLUTION from run 25
USER: SCORE 11.771172 LL:  -2.132 LR: -10.909 RR:   0.000 FEB:  -5.838
USER: RMSD 10.391225
USER: SEED 24
USER: STATUS no improvement in best 35 clusters for 5 generations
USER: GENES 19
USER: genes 0 Translation |==|  0.39684 0.64218 0.33033
USER: genes 1 Rotation |==|  0.42953 0.98909 0.45166 0.55908
USER: genes 2 Torsion [N]-C--CA-[N] |==|  0.21435
USER: genes 3 Torsion [C]-CA--CB-[CG] |==|  0.17765
USER: genes 4 Torsion [CA]-CB--CG-[CD] |==|  0.50501
USER: genes 5 Torsion [CB]-CG--CD-[CE] |==|  0.32920
USER: genes 6 Torsion [CG]-CD--CE-[NZ] |==|  0.40171
USER: genes 7 Torsion [CD]-CE--NZ-[HZ2] |==|  0.94851
USER: genes 8 Torsion [C]-CA--N-[C] |==|  0.77160
USER: genes 9 Torsion [N]-C--CA-[N] |==|  0.14637
USER: genes 10 Torsion [C]-CA--N-[H1] |==|  0.98497
USER: genes 11 Torsion [C]-N--CA-[CB] |==|  0.73189
USER: genes 12 Torsion [N]-CA--C-[N] |==|  0.38785
USER: genes 13 Torsion [C]-N--CA-[CB] |==|  0.46668
USER: genes 14 Torsion [N]-CA--CB-[CG1] |==|  0.29942
USER: genes 15 Torsion [CA]-CB--CG1-[CD1] |==|  0.60813
USER: genes 16 Torsion [N]-CA--C-[N] |==|  0.46158
USER: genes 17 Torsion [C]-N--CA-[CB] |==|  0.50484
USER: genes 18 Torsion [N]-CA--C-[O] |==|  0.25925
ROOT
ATOM      1  C   LYS E 802     -15.935  25.825  29.390  1.00 51.37 LIG 0.24  C 
ATOM      2 O    LYS E 802     -15.880  26.671  30.277  1.00 54.76 LIG-0.27  OA
ATOM      3  N   ALA E 803     -15.143  24.756  29.356  1.00 53.01 LIG-0.35  N 
ATOM      4 H    ALA E 803     -15.229  24.130  28.772  1.00 53.01 LIG 0.16  HD
ENDROOT
BRANCH 1 5
ATOM      5  CA  LYS E 802     -16.938  25.963  28.239  1.00 50.80 LIG 0.18  C 
BRANCH 5 6
ATOM      6  CB  LYS E 802     -17.342  27.437  28.168  1.00 49.65 LIG 0.04  C 
BRANCH 6 7
ATOM      7  CG  LYS E 802     -16.232  28.384  27.824  1.00 48.72 LIG 0.00  C 
BRANCH 7 8
ATOM      8  CD  LYS E 802     -16.747  29.805  27.829  1.00 52.85 LIG 0.03  C 
BRANCH 8 9
ATOM      9  CE  LYS E 802     -16.031  30.636  28.867  1.00 52.25 LIG 0.23  C 
BRANCH 9 10
ATOM     10  NZ  LYS E 802     -15.840  32.031  28.402  1.00 53.26 LIG-0.08  N 
ATOM     11 HZ1  LYS E 802     -15.025  32.310  28.625  1.00 53.26 LIG 0.27  HD
ATOM     12 HZ2  LYS E 802     -15.932  32.065  27.517  1.00 53.26 LIG 0.27  HD
ATOM     13 HZ3  LYS E 802     -16.447  32.557  28.784  1.00 53.26 LIG 0.27  HD
ENDBRANCH 9 10
ENDBRANCH 8 9
ENDBRANCH 7 8
ENDBRANCH 6 7
ENDBRANCH 5 6
BRANCH 5 14
ATOM     14  N   LYS E 802     -18.158  25.155  28.218  1.00 51.06 LIG-0.35  N 
ATOM     15 H    LYS E 802     -18.866  25.545  28.511  1.00 51.06 LIG 0.16  HD
ATOM     16  C   ALA E 801     -18.101  23.898  27.760  1.00 50.59 LIG 0.25  C 
ATOM     17 O    ALA E 801     -17.047  23.368  27.408  1.00 51.18 LIG-0.27  OA
BRANCH 16 18
ATOM     18  CA  ALA E 801     -19.394  23.094  27.711  1.00 50.00 LIG 0.27  C 
ATOM     19  CB  ALA E 801     -19.141  21.741  27.025  1.00 45.45 LIG 0.05  C 
BRANCH 18 20
ATOM     20  N   ALA E 801     -20.449  23.840  26.981  1.00 50.21 LIG-0.07  N 
ATOM     21 H3   ALA E 801     -21.172  23.911  27.494  1.00 50.21 LIG 0.28  HD
ATOM     22 H2   ALA E 801     -20.659  23.403  26.233  1.00 50.21 LIG 0.28  HD
ATOM     23 H1   ALA E 801     -20.151  24.653  26.775  1.00 50.21 LIG 0.28  HD
ENDBRANCH 18 20
ENDBRANCH 16 18
ENDBRANCH 5 14
ENDBRANCH 1 5
BRANCH 3 24
ATOM     24  CA  ALA E 803     -14.042  24.522  30.303  1.00 57.29 LIG 0.17  C 
ATOM     25  CB  ALA E 803     -12.737  25.001  29.660  1.00 55.60 LIG 0.04  C 
BRANCH 24 26
ATOM     26  C   ALA E 803     -14.023  24.942  31.772  1.00 59.81 LIG 0.24  C 
ATOM     27 O    ALA E 803     -14.422  26.041  32.152  1.00 62.26 LIG-0.27  OA
ATOM     28  N   ILE E 804     -13.486  24.021  32.571  1.00 62.20 LIG-0.35  N 
ATOM     29 H    ILE E 804     -13.216  23.265  32.264  1.00 62.20 LIG 0.16  HD
BRANCH 28 30
ATOM     30  CA  ILE E 804     -13.277  24.134  34.015  1.00 63.57 LIG 0.18  C 
BRANCH 30 31
ATOM     31  CB  ILE E 804     -12.908  22.786  34.677  1.00 63.71 LIG 0.01  C 
ATOM     32  CG2 ILE E 804     -13.179  21.640  33.712  1.00 63.48 LIG 0.01  C 
BRANCH 31 33
ATOM     33  CG1 ILE E 804     -11.436  22.776  35.084  1.00 63.94 LIG 0.00  C 
ATOM     34  CD1 ILE E 804     -10.759  21.463  34.855  1.00 63.94 LIG 0.01  C 
ENDBRANCH 31 33
ENDBRANCH 30 31
BRANCH 30 35
ATOM     35  C   ILE E 804     -12.064  25.060  34.124  1.00 65.71 LIG 0.24  C 
ATOM     36  N   ALA E 805     -11.801  25.579  35.320  1.00 67.46 LIG-0.35  N 
ATOM     37 H    ALA E 805     -12.267  25.423  36.026  1.00 67.46 LIG 0.16  HD
ATOM     38 O    ILE E 804     -11.381  25.310  33.124  1.00 65.35 LIG-0.27  OA
BRANCH 36 39
ATOM     39  CA  ALA E 805     -10.667  26.478  35.524  1.00 69.21 LIG 0.16  C 
ATOM     40  CB  ALA E 805     -10.579  26.885  36.998  1.00 68.65 LIG 0.04  C 
BRANCH 39 41
ATOM     41  C   ALA E 805      -9.354  25.834  35.081  1.00 70.07 LIG 0.22  C 
ATOM     42 O    ALA E 805      -8.969  26.056  33.910  1.00 70.08 LIG-0.29  OA
ENDBRANCH 39 41
ENDBRANCH 36 39
ENDBRANCH 30 35
ENDBRANCH 28 30
ENDBRANCH 24 26
ENDBRANCH 3 24
TORSDOF 17
ENDMDL
MODEL 48
USER: ADFR SOLUTION from run 149
USER: SCORE 11.650106 LL:  -2.377 LR: -10.896 RR:   0.000 FEB:  -5.825
USER: RMSD 9.664024
USER: SEED 148
USER: STATUS no improvement in best 18 clusters for 5 generations
USER: GENES 19
USER: genes 0 Translation |==|  0.43700 0.61430 0.31561
USER: genes 1 Rotation |==|  0.31225 0.16185 0.79816 0.60726
USER: genes 2 Torsion [N]-C--CA-[N] |==|  0.88219
USER: genes 3 Torsion [C]-CA--CB-[CG] |==|  0.27728
USER: genes 4 Torsion [CA]-CB--CG-[CD] |==|  0.46673
USER: genes 5 Torsion [CB]-CG--CD-[CE] |==|  0.89548
USER: genes 6 Torsion [CG]-CD--CE-[NZ] |==|  0.85659
USER: genes 7 Torsion [CD]-CE--NZ-[HZ2] |==|  0.36860
USER: genes 8 Torsion [C]-CA--N-[C] |==|  0.83080
USER: genes 9 Torsion [N]-C--CA-[N] |==|  0.42106
USER: genes 10 Torsion [C]-CA--N-[H1] |==|  0.64120
USER: genes 11 Torsion [C]-N--CA-[CB] |==|  0.17022
USER: genes 12 Torsion [N]-CA--C-[N] |==|  0.58094
USER: genes 13 Torsion [C]-N--CA-[CB] |==|  0.19245
USER: genes 14 Torsion [N]-CA--CB-[CG1] |==|  0.58191
USER: genes 15 Torsion [CA]-CB--CG1-[CD1] |==|  0.20684
USER: genes 16 Torsion [N]-CA--C-[N] |==|  0.92801
USER: genes 17 Torsion [C]-N--CA-[CB] |==|  0.24356
USER: genes 18 Torsion [N]-CA--C-[O] |==|  0.00117
ROOT
ATOM      1  C   LYS E 802     -14.730  24.989  28.948  1.00 51.37 LIG 0.24  C 
ATOM      2 O    LYS E 802     -13.568  25.246  28.648  1.00 54.76 LIG-0.27  OA
ATOM      3  N   ALA E 803     -15.073  24.406  30.095  1.00 53.01 LIG-0.35  N 
ATOM      4 H    ALA E 803     -15.891  24.289  30.333  1.00 53.01 LIG 0.16  HD
ENDROOT
BRANCH 1 5
ATOM      5  CA  LYS E 802     -15.879  25.328  27.991  1.00 50.80 LIG 0.18  C 
BRANCH 5 6
ATOM      6  CB  LYS E 802     -16.491  26.645  28.473  1.00 49.65 LIG 0.04  C 
BRANCH 6 7
ATOM      7  CG  LYS E 802     -16.049  27.865  27.720  1.00 48.72 LIG 0.00  C 
BRANCH 7 8
ATOM      8  CD  LYS E 802     -16.927  29.040  28.083  1.00 52.85 LIG 0.03  C 
BRANCH 8 9
ATOM      9  CE  LYS E 802     -18.362  28.607  28.263  1.00 52.25 LIG 0.23  C 
BRANCH 9 10
ATOM     10  NZ  LYS E 802     -18.840  27.828  27.094  1.00 53.26 LIG-0.08  N 
ATOM     11 HZ1  LYS E 802     -18.147  27.600  26.586  1.00 53.26 LIG 0.27  HD
ATOM     12 HZ2  LYS E 802     -19.254  27.093  27.377  1.00 53.26 LIG 0.27  HD
ATOM     13 HZ3  LYS E 802     -19.406  28.323  26.619  1.00 53.26 LIG 0.27  HD
ENDBRANCH 9 10
ENDBRANCH 8 9
ENDBRANCH 7 8
ENDBRANCH 6 7
ENDBRANCH 5 6
BRANCH 5 14
ATOM     14  N   LYS E 802     -16.966  24.374  27.771  1.00 51.06 LIG-0.35  N 
ATOM     15 H    LYS E 802     -17.751  24.650  27.989  1.00 51.06 LIG 0.16  HD
ATOM     16  C   ALA E 801     -16.684  23.170  27.260  1.00 50.59 LIG 0.25  C 
ATOM     17 O    ALA E 801     -15.533  22.804  27.021  1.00 51.18 LIG-0.27  OA
BRANCH 16 18
ATOM     18  CA  ALA E 801     -17.841  22.212  27.002  1.00 50.00 LIG 0.27  C 
ATOM     19  CB  ALA E 801     -18.144  21.405  28.275  1.00 45.45 LIG 0.05  C 
BRANCH 18 20
ATOM     20  N   ALA E 801     -17.520  21.289  25.885  1.00 50.21 LIG-0.07  N 
ATOM     21 H3   ALA E 801     -17.415  20.465  26.202  1.00 50.21 LIG 0.28  HD
ATOM     22 H2   ALA E 801     -16.767  21.552  25.489  1.00 50.21 LIG 0.28  HD
ATOM     23 H1   ALA E 801     -18.185  21.296  25.294  1.00 50.21 LIG 0.28  HD
ENDBRANCH 18 20
ENDBRANCH 16 18
ENDBRANCH 5 14
ENDBRANCH 1 5
BRANCH 3 24
ATOM     24  CA  ALA E 803     -14.102  23.898  31.077  1.00 57.29 LIG 0.17  C 
ATOM     25  CB  ALA E 803     -13.250  25.071  31.570  1.00 55.60 LIG 0.04  C 
BRANCH 24 26
ATOM     26  C   ALA E 803     -14.428  23.016  32.282  1.00 59.81 LIG 0.24  C 
ATOM     27 O    ALA E 803     -15.400  22.263  32.307  1.00 62.26 LIG-0.27  OA
ATOM     28  N   ILE E 804     -13.588  23.192  33.299  1.00 62.20 LIG-0.35  N 
ATOM     29 H    ILE E 804     -12.921  23.731  33.241  1.00 62.20 LIG 0.16  HD
BRANCH 28 30
ATOM     30  CA  ILE E 804     -13.653  22.538  34.607  1.00 63.57 LIG 0.18  C 
BRANCH 30 31
ATOM     31  CB  ILE E 804     -13.330  21.028  34.543  1.00 63.71 LIG 0.01  C 
ATOM     32  CG2 ILE E 804     -11.831  20.809  34.692  1.00 63.48 LIG 0.01  C 
BRANCH 31 33
ATOM     33  CG1 ILE E 804     -14.070  20.275  35.646  1.00 63.94 LIG 0.00  C 
ATOM     34  CD1 ILE E 804     -15.533  20.110  35.382  1.00 63.94 LIG 0.01  C 
ENDBRANCH 31 33
ENDBRANCH 30 31
BRANCH 30 35
ATOM     35  C   ILE E 804     -12.537  23.225  35.399  1.00 65.71 LIG 0.24  C 
ATOM     36  N   ALA E 805     -11.527  23.739  34.703  1.00 67.46 LIG-0.35  N 
ATOM     37 H    ALA E 805     -11.468  23.711  33.846  1.00 67.46 LIG 0.16  HD
ATOM     38 O    ILE E 804     -12.589  23.273  36.633  1.00 65.35 LIG-0.27  OA
BRANCH 36 39
ATOM     39  CA  ALA E 805     -10.412  24.411  35.368  1.00 69.21 LIG 0.16  C 
ATOM     40  CB  ALA E 805      -9.337  23.389  35.749  1.00 68.65 LIG 0.04  C 
BRANCH 39 41
ATOM     41  C   ALA E 805      -9.808  25.502  34.487  1.00 70.07 LIG 0.22  C 
ATOM     42 O    ALA E 805     -10.323  25.685  33.360  1.00 70.08 LIG-0.29  OA
ENDBRANCH 39 41
ENDBRANCH 36 39
ENDBRANCH 30 35
ENDBRANCH 28 30
ENDBRANCH 24 26
ENDBRANCH 3 24
TORSDOF 17
ENDMDL
MODEL 49
USER: ADFR SOLUTION from run 133
USER: SCORE 11.725241 LL:  -2.441 LR: -10.896 RR:   0.000 FEB:  -5.825
USER: RMSD 8.795217
USER: SEED 132
USER: STATUS no improvement in best 22 clusters for 5 generations
USER: GENES 19
USER: genes 0 Translation |==|  0.42010 0.56773 0.30954
USER: genes 1 Rotation |==|  0.40892 0.06833 0.73254 0.53588
USER: genes 2 Torsion [N]-C--CA-[N] |==|  0.98898
USER: genes 3 Torsion [C]-CA--CB-[CG] |==|  0.24044
USER: genes 4 Torsion [CA]-CB--CG-[CD] |==|  0.59999
USER: genes 5 Torsion [CB]-CG--CD-[CE] |==|  0.70948
USER: genes 6 Torsion [CG]-CD--CE-[NZ] |==|  0.07951
USER: genes 7 Torsion [CD]-CE--NZ-[HZ2] |==|  0.80141
USER: genes 8 Torsion [C]-CA--N-[C] |==|  0.72654
USER: genes 9 Torsion [N]-C--CA-[N] |==|  0.38358
USER: genes 10 Torsion [C]-CA--N-[H1] |==|  0.44833
USER: genes 11 Torsion [C]-N--CA-[CB] |==|  0.21701
USER: genes 12 Torsion [N]-CA--C-[N] |==|  0.79660
USER: genes 13 Torsion [C]-N--CA-[CB] |==|  0.56674
USER: genes 14 Torsion [N]-CA--CB-[CG1] |==|  0.03312
USER: genes 15 Torsion [CA]-CB--CG1-[CD1] |==|  0.25413
USER: genes 16 Torsion [N]-CA--C-[N] |==|  0.33572
USER: genes 17 Torsion [C]-N--CA-[CB] |==|  0.80625
USER: genes 18 Torsion [N]-CA--C-[O] |==|  0.15822
ROOT
ATOM      1  C   LYS E 802     -15.237  23.592  28.766  1.00 51.37 LIG 0.24  C 
ATOM      2 O    LYS E 802     -14.362  24.449  28.840  1.00 54.76 LIG-0.27  OA
ATOM      3  N   ALA E 803     -15.272  22.520  29.555  1.00 53.01 LIG-0.35  N 
ATOM      4 H    ALA E 803     -15.923  21.957  29.548  1.00 53.01 LIG 0.16  HD
ENDROOT
BRANCH 1 5
ATOM      5  CA  LYS E 802     -16.361  23.708  27.730  1.00 50.80 LIG 0.18  C 
BRANCH 5 6
ATOM      6  CB  LYS E 802     -17.111  25.008  28.023  1.00 49.65 LIG 0.04  C 
BRANCH 6 7
ATOM      7  CG  LYS E 802     -16.536  26.233  27.377  1.00 48.72 LIG 0.00  C 
BRANCH 7 8
ATOM      8  CD  LYS E 802     -16.685  27.421  28.300  1.00 52.85 LIG 0.03  C 
BRANCH 8 9
ATOM      9  CE  LYS E 802     -17.796  28.331  27.835  1.00 52.25 LIG 0.23  C 
BRANCH 9 10
ATOM     10  NZ  LYS E 802     -18.840  27.574  27.101  1.00 53.26 LIG-0.08  N 
ATOM     11 HZ1  LYS E 802     -19.554  28.092  26.984  1.00 53.26 LIG 0.27  HD
ATOM     12 HZ2  LYS E 802     -18.523  27.324  26.308  1.00 53.26 LIG 0.27  HD
ATOM     13 HZ3  LYS E 802     -19.069  26.854  27.570  1.00 53.26 LIG 0.27  HD
ENDBRANCH 9 10
ENDBRANCH 8 9
ENDBRANCH 7 8
ENDBRANCH 6 7
ENDBRANCH 5 6
BRANCH 5 14
ATOM     14  N   LYS E 802     -17.347  22.637  27.583  1.00 51.06 LIG-0.35  N 
ATOM     15 H    LYS E 802     -17.992  22.646  28.151  1.00 51.06 LIG 0.16  HD
ATOM     16  C   ALA E 801     -17.192  21.736  26.606  1.00 50.59 LIG 0.25  C 
ATOM     17 O    ALA E 801     -16.215  21.733  25.855  1.00 51.18 LIG-0.27  OA
BRANCH 16 18
ATOM     18  CA  ALA E 801     -18.256  20.657  26.449  1.00 50.00 LIG 0.27  C 
ATOM     19  CB  ALA E 801     -17.766  19.345  27.085  1.00 45.45 LIG 0.05  C 
BRANCH 18 20
ATOM     20  N   ALA E 801     -18.574  20.434  25.017  1.00 50.21 LIG-0.07  N 
ATOM     21 H3   ALA E 801     -17.822  20.443  24.542  1.00 50.21 LIG 0.28  HD
ATOM     22 H2   ALA E 801     -19.114  21.080  24.729  1.00 50.21 LIG 0.28  HD
ATOM     23 H1   ALA E 801     -18.975  19.646  24.921  1.00 50.21 LIG 0.28  HD
ENDBRANCH 18 20
ENDBRANCH 16 18
ENDBRANCH 5 14
ENDBRANCH 1 5
BRANCH 3 24
ATOM     24  CA  ALA E 803     -14.216  22.178  30.519  1.00 57.29 LIG 0.17  C 
ATOM     25  CB  ALA E 803     -14.380  23.066  31.756  1.00 55.60 LIG 0.04  C 
BRANCH 24 26
ATOM     26  C   ALA E 803     -13.862  20.769  30.996  1.00 59.81 LIG 0.24  C 
ATOM     27 O    ALA E 803     -12.867  20.167  30.598  1.00 62.26 LIG-0.27  OA
ATOM     28  N   ILE E 804     -14.765  20.260  31.831  1.00 62.20 LIG-0.35  N 
ATOM     29 H    ILE E 804     -15.449  20.715  32.083  1.00 62.20 LIG 0.16  HD
BRANCH 28 30
ATOM     30  CA  ILE E 804     -14.746  18.922  32.426  1.00 63.57 LIG 0.18  C 
BRANCH 30 31
ATOM     31  CB  ILE E 804     -16.150  18.429  32.844  1.00 63.71 LIG 0.01  C 
ATOM     32  CG2 ILE E 804     -16.262  18.405  34.362  1.00 63.48 LIG 0.01  C 
BRANCH 31 33
ATOM     33  CG1 ILE E 804     -17.231  19.338  32.264  1.00 63.94 LIG 0.00  C 
ATOM     34  CD1 ILE E 804     -17.739  18.891  30.931  1.00 63.94 LIG 0.01  C 
ENDBRANCH 31 33
ENDBRANCH 30 31
BRANCH 30 35
ATOM     35  C   ILE E 804     -14.257  18.035  31.279  1.00 65.71 LIG 0.24  C 
ATOM     36  N   ALA E 805     -13.140  17.341  31.481  1.00 67.46 LIG-0.35  N 
ATOM     37 H    ALA E 805     -12.685  17.362  32.210  1.00 67.46 LIG 0.16  HD
ATOM     38 O    ILE E 804     -14.885  17.992  30.215  1.00 65.35 LIG-0.27  OA
BRANCH 36 39
ATOM     39  CA  ALA E 805     -12.591  16.469  30.445  1.00 69.21 LIG 0.16  C 
ATOM     40  CB  ALA E 805     -13.496  15.249  30.252  1.00 68.65 LIG 0.04  C 
BRANCH 39 41
ATOM     41  C   ALA E 805     -12.423  17.209  29.119  1.00 70.07 LIG 0.22  C 
ATOM     42 O    ALA E 805     -11.715  18.242  29.120  1.00 70.08 LIG-0.29  OA
ENDBRANCH 39 41
ENDBRANCH 36 39
ENDBRANCH 30 35
ENDBRANCH 28 30
ENDBRANCH 24 26
ENDBRANCH 3 24
TORSDOF 17
ENDMDL
MODEL 50
USER: ADFR SOLUTION from run 142
USER: SCORE 11.898976 LL:  -2.299 LR: -10.904 RR:   0.000 FEB:  -5.833
USER: RMSD 10.906023
USER: SEED 141
USER: STATUS no improvement in best 10 clusters for 5 generations
USER: GENES 19
USER: genes 0 Translation |==|  0.51319 0.59191 0.59226
USER: genes 1 Rotation |==|  0.26444 0.81330 0.34874 0.77106
USER: genes 2 Torsion [N]-C--CA-[N] |==|  0.41438
USER: genes 3 Torsion [C]-CA--CB-[CG] |==|  0.44402
USER: genes 4 Torsion [CA]-CB--CG-[CD] |==|  0.53263
USER: genes 5 Torsion [CB]-CG--CD-[CE] |==|  0.20436
USER: genes 6 Torsion [CG]-CD--CE-[NZ] |==|  0.47472
USER: genes 7 Torsion [CD]-CE--NZ-[HZ2] |==|  0.02687
USER: genes 8 Torsion [C]-CA--N-[C] |==|  0.63606
USER: genes 9 Torsion [N]-C--CA-[N] |==|  0.52243
USER: genes 10 Torsion [C]-CA--N-[H1] |==|  0.57789
USER: genes 11 Torsion [C]-N--CA-[CB] |==|  0.20550
USER: genes 12 Torsion [N]-CA--C-[N] |==|  0.05970
USER: genes 13 Torsion [C]-N--CA-[CB] |==|  0.23883
USER: genes 14 Torsion [N]-CA--CB-[CG1] |==|  0.78930
USER: genes 15 Torsion [CA]-CB--CG1-[CD1] |==|  0.39068
USER: genes 16 Torsion [N]-CA--C-[N] |==|  0.87256
USER: genes 17 Torsion [C]-N--CA-[CB] |==|  0.88108
USER: genes 18 Torsion [N]-CA--C-[O] |==|  0.93631
ROOT
ATOM      1  C   LYS E 802     -12.444  24.317  37.248  1.00 51.37 LIG 0.24  C 
ATOM      2 O    LYS E 802     -13.543  24.853  37.139  1.00 54.76 LIG-0.27  OA
ATOM      3  N   ALA E 803     -11.753  24.301  38.386  1.00 53.01 LIG-0.35  N 
ATOM      4 H    ALA E 803     -11.016  23.867  38.477  1.00 53.01 LIG 0.16  HD
ENDROOT
BRANCH 1 5
ATOM      5  CA  LYS E 802     -11.788  23.626  36.047  1.00 50.80 LIG 0.18  C 
BRANCH 5 6
ATOM      6  CB  LYS E 802     -10.892  24.663  35.367  1.00 49.65 LIG 0.04  C 
BRANCH 6 7
ATOM      7  CG  LYS E 802      -9.820  24.095  34.484  1.00 48.72 LIG 0.00  C 
BRANCH 7 8
ATOM      8  CD  LYS E 802      -8.835  25.179  34.107  1.00 52.85 LIG 0.03  C 
BRANCH 8 9
ATOM      9  CE  LYS E 802      -7.950  25.535  35.277  1.00 52.25 LIG 0.23  C 
BRANCH 9 10
ATOM     10  NZ  LYS E 802      -6.846  26.434  34.862  1.00 53.26 LIG-0.08  N 
ATOM     11 HZ1  LYS E 802      -6.074  25.994  34.900  1.00 53.26 LIG 0.27  HD
ATOM     12 HZ2  LYS E 802      -6.986  26.712  34.028  1.00 53.26 LIG 0.27  HD
ATOM     13 HZ3  LYS E 802      -6.814  27.136  35.407  1.00 53.26 LIG 0.27  HD
ENDBRANCH 9 10
ENDBRANCH 8 9
ENDBRANCH 7 8
ENDBRANCH 6 7
ENDBRANCH 5 6
BRANCH 5 14
ATOM     14  N   LYS E 802     -12.611  22.991  35.017  1.00 51.06 LIG-0.35  N 
ATOM     15 H    LYS E 802     -13.256  23.469  34.710  1.00 51.06 LIG 0.16  HD
ATOM     16  C   ALA E 801     -12.320  21.744  34.627  1.00 50.59 LIG 0.25  C 
ATOM     17 O    ALA E 801     -11.420  21.080  35.143  1.00 51.18 LIG-0.27  OA
BRANCH 16 18
ATOM     18  CA  ALA E 801     -13.167  21.122  33.523  1.00 50.00 LIG 0.27  C 
ATOM     19  CB  ALA E 801     -14.659  21.278  33.860  1.00 45.45 LIG 0.05  C 
BRANCH 18 20
ATOM     20  N   ALA E 801     -12.837  19.685  33.353  1.00 50.21 LIG-0.07  N 
ATOM     21 H3   ALA E 801     -13.338  19.199  33.904  1.00 50.21 LIG 0.28  HD
ATOM     22 H2   ALA E 801     -11.976  19.554  33.542  1.00 50.21 LIG 0.28  HD
ATOM     23 H1   ALA E 801     -12.997  19.441  32.513  1.00 50.21 LIG 0.28  HD
ENDBRANCH 18 20
ENDBRANCH 16 18
ENDBRANCH 5 14
ENDBRANCH 1 5
BRANCH 3 24
ATOM     24  CA  ALA E 803     -12.165  25.016  39.603  1.00 57.29 LIG 0.17  C 
ATOM     25  CB  ALA E 803     -13.341  24.266  40.235  1.00 55.60 LIG 0.04  C 
BRANCH 24 26
ATOM     26  C   ALA E 803     -11.237  25.469  40.731  1.00 59.81 LIG 0.24  C 
ATOM     27 O    ALA E 803     -11.648  25.749  41.854  1.00 62.26 LIG-0.27  OA
ATOM     28  N   ILE E 804      -9.966  25.575  40.348  1.00 62.20 LIG-0.35  N 
ATOM     29 H    ILE E 804      -9.719  25.372  39.550  1.00 62.20 LIG 0.16  HD
BRANCH 28 30
ATOM     30  CA  ILE E 804      -8.843  26.028  41.171  1.00 63.57 LIG 0.18  C 
BRANCH 30 31
ATOM     31  CB  ILE E 804      -8.206  24.890  42.000  1.00 63.71 LIG 0.01  C 
ATOM     32  CG2 ILE E 804      -6.826  25.310  42.488  1.00 63.48 LIG 0.01  C 
BRANCH 31 33
ATOM     33  CG1 ILE E 804      -9.088  24.541  43.196  1.00 63.94 LIG 0.00  C 
ATOM     34  CD1 ILE E 804      -9.162  23.075  43.480  1.00 63.94 LIG 0.01  C 
ENDBRANCH 31 33
ENDBRANCH 30 31
BRANCH 30 35
ATOM     35  C   ILE E 804      -7.813  26.490  40.136  1.00 65.71 LIG 0.24  C 
ATOM     36  N   ALA E 805      -7.593  25.687  39.099  1.00 67.46 LIG-0.35  N 
ATOM     37 H    ALA E 805      -7.993  24.935  38.977  1.00 67.46 LIG 0.16  HD
ATOM     38 O    ILE E 804      -7.215  27.561  40.288  1.00 65.35 LIG-0.27  OA
BRANCH 36 39
ATOM     39  CA  ALA E 805      -6.626  26.037  38.060  1.00 69.21 LIG 0.16  C 
ATOM     40  CB  ALA E 805      -6.764  27.517  37.693  1.00 68.65 LIG 0.04  C 
BRANCH 39 41
ATOM     41  C   ALA E 805      -5.195  25.739  38.503  1.00 70.07 LIG 0.22  C 
ATOM     42 O    ALA E 805      -4.971  25.683  39.734  1.00 70.08 LIG-0.29  OA
ENDBRANCH 39 41
ENDBRANCH 36 39
ENDBRANCH 30 35
ENDBRANCH 28 30
ENDBRANCH 24 26
ENDBRANCH 3 24
TORSDOF 17
ENDMDL
MODEL 51
USER: ADFR SOLUTION from run 6
USER: SCORE 12.416528 LL:  -2.231 LR: -10.889 RR:   0.000 FEB:  -5.817
USER: RMSD 9.515347
USER: SEED 856088
USER: STATUS no improvement in best 14 clusters for 5 generations
USER: GENES 19
USER: genes 0 Translation |==|  0.36037 0.51298 0.31669
USER: genes 1 Rotation |==|  0.32461 0.05569 0.64352 0.53506
USER: genes 2 Torsion [N]-C--CA-[N] |==|  0.47749
USER: genes 3 Torsion [C]-CA--CB-[CG] |==|  0.21397
USER: genes 4 Torsion [CA]-CB--CG-[CD] |==|  0.42032
USER: genes 5 Torsion [CB]-CG--CD-[CE] |==|  0.69792
USER: genes 6 Torsion [CG]-CD--CE-[NZ] |==|  0.34987
USER: genes 7 Torsion [CD]-CE--NZ-[HZ2] |==|  0.53973
USER: genes 8 Torsion [C]-CA--N-[C] |==|  0.75556
USER: genes 9 Torsion [N]-C--CA-[N] |==|  0.34263
USER: genes 10 Torsion [C]-CA--N-[H1] |==|  0.06473
USER: genes 11 Torsion [C]-N--CA-[CB] |==|  0.57162
USER: genes 12 Torsion [N]-CA--C-[N] |==|  0.47954
USER: genes 13 Torsion [C]-N--CA-[CB] |==|  0.86176
USER: genes 14 Torsion [N]-CA--CB-[CG1] |==|  0.76437
USER: genes 15 Torsion [CA]-CB--CG1-[CD1] |==|  0.29093
USER: genes 16 Torsion [N]-CA--C-[N] |==|  0.32790
USER: genes 17 Torsion [C]-N--CA-[CB] |==|  0.37560
USER: genes 18 Torsion [N]-CA--C-[O] |==|  0.03836
ROOT
ATOM      1  C   LYS E 802     -17.029  21.949  28.981  1.00 51.37 LIG 0.24  C 
ATOM      2 O    LYS E 802     -16.013  22.417  29.486  1.00 54.76 LIG-0.27  OA
ATOM      3  N   ALA E 803     -17.554  20.783  29.350  1.00 53.01 LIG-0.35  N 
ATOM      4 H    ALA E 803     -18.302  20.490  29.043  1.00 53.01 LIG 0.16  HD
ENDROOT
BRANCH 1 5
ATOM      5  CA  LYS E 802     -17.763  22.699  27.862  1.00 50.80 LIG 0.18  C 
BRANCH 5 6
ATOM      6  CB  LYS E 802     -17.668  21.833  26.605  1.00 49.65 LIG 0.04  C 
BRANCH 6 7
ATOM      7  CG  LYS E 802     -18.599  20.657  26.571  1.00 48.72 LIG 0.00  C 
BRANCH 7 8
ATOM      8  CD  LYS E 802     -18.948  20.317  25.140  1.00 52.85 LIG 0.03  C 
BRANCH 8 9
ATOM      9  CE  LYS E 802     -20.380  20.681  24.832  1.00 52.25 LIG 0.23  C 
BRANCH 9 10
ATOM     10  NZ  LYS E 802     -20.468  21.560  23.640  1.00 53.26 LIG-0.08  N 
ATOM     11 HZ1  LYS E 802     -20.324  21.080  22.905  1.00 53.26 LIG 0.27  HD
ATOM     12 HZ2  LYS E 802     -21.278  21.926  23.600  1.00 53.26 LIG 0.27  HD
ATOM     13 HZ3  LYS E 802     -19.855  22.202  23.699  1.00 53.26 LIG 0.27  HD
ENDBRANCH 9 10
ENDBRANCH 8 9
ENDBRANCH 7 8
ENDBRANCH 6 7
ENDBRANCH 5 6
BRANCH 5 14
ATOM     14  N   LYS E 802     -17.374  24.064  27.505  1.00 51.06 LIG-0.35  N 
ATOM     15 H    LYS E 802     -16.790  24.131  26.878  1.00 51.06 LIG 0.16  HD
ATOM     16  C   ALA E 801     -17.932  25.092  28.155  1.00 50.59 LIG 0.25  C 
ATOM     17 O    ALA E 801     -18.720  24.937  29.089  1.00 51.18 LIG-0.27  OA
BRANCH 16 18
ATOM     18  CA  ALA E 801     -17.540  26.503  27.735  1.00 50.00 LIG 0.27  C 
ATOM     19  CB  ALA E 801     -16.799  27.203  28.886  1.00 45.45 LIG 0.05  C 
BRANCH 18 20
ATOM     20  N   ALA E 801     -18.739  27.290  27.355  1.00 50.21 LIG-0.07  N 
ATOM     21 H3   ALA E 801     -18.842  27.267  26.472  1.00 50.21 LIG 0.28  HD
ATOM     22 H2   ALA E 801     -18.637  28.134  27.619  1.00 50.21 LIG 0.28  HD
ATOM     23 H1   ALA E 801     -19.459  26.942  27.746  1.00 50.21 LIG 0.28  HD
ENDBRANCH 18 20
ENDBRANCH 16 18
ENDBRANCH 5 14
ENDBRANCH 1 5
BRANCH 3 24
ATOM     24  CA  ALA E 803     -16.922  19.870  30.315  1.00 57.29 LIG 0.17  C 
ATOM     25  CB  ALA E 803     -17.403  18.446  30.025  1.00 55.60 LIG 0.04  C 
BRANCH 24 26
ATOM     26  C   ALA E 803     -15.429  19.805  30.639  1.00 59.81 LIG 0.24  C 
ATOM     27 O    ALA E 803     -14.583  20.406  29.980  1.00 62.26 LIG-0.27  OA
ATOM     28  N   ILE E 804     -15.152  18.998  31.660  1.00 62.20 LIG-0.35  N 
ATOM     29 H    ILE E 804     -15.775  18.593  32.094  1.00 62.20 LIG 0.16  HD
BRANCH 28 30
ATOM     30  CA  ILE E 804     -13.823  18.681  32.186  1.00 63.57 LIG 0.18  C 
BRANCH 30 31
ATOM     31  CB  ILE E 804     -12.825  18.257  31.084  1.00 63.71 LIG 0.01  C 
ATOM     32  CG2 ILE E 804     -11.401  18.560  31.528  1.00 63.48 LIG 0.01  C 
BRANCH 31 33
ATOM     33  CG1 ILE E 804     -12.962  16.766  30.784  1.00 63.94 LIG 0.00  C 
ATOM     34  CD1 ILE E 804     -13.671  16.476  29.500  1.00 63.94 LIG 0.01  C 
ENDBRANCH 31 33
ENDBRANCH 30 31
BRANCH 30 35
ATOM     35  C   ILE E 804     -13.347  20.016  32.763  1.00 65.71 LIG 0.24  C 
ATOM     36  N   ALA E 805     -13.103  20.060  34.071  1.00 67.46 LIG-0.35  N 
ATOM     37 H    ALA E 805     -13.195  19.389  34.602  1.00 67.46 LIG 0.16  HD
ATOM     38 O    ILE E 804     -13.215  21.001  32.028  1.00 65.35 LIG-0.27  OA
BRANCH 36 39
ATOM     39  CA  ALA E 805     -12.649  21.290  34.717  1.00 69.21 LIG 0.16  C 
ATOM     40  CB  ALA E 805     -13.423  21.515  36.018  1.00 68.65 LIG 0.04  C 
BRANCH 39 41
ATOM     41  C   ALA E 805     -11.148  21.253  35.000  1.00 70.07 LIG 0.22  C 
ATOM     42 O    ALA E 805     -10.476  20.360  34.435  1.00 70.08 LIG-0.29  OA
ENDBRANCH 39 41
ENDBRANCH 36 39
ENDBRANCH 30 35
ENDBRANCH 28 30
ENDBRANCH 24 26
ENDBRANCH 3 24
TORSDOF 17
ENDMDL
MODEL 52
USER: ADFR SOLUTION from run 7
USER: SCORE 11.981258 LL:  -2.626 LR: -10.891 RR:   0.000 FEB:  -5.820
USER: RMSD 10.570372
USER: SEED 879625
USER: STATUS no improvement in best 15 clusters for 5 generations
USER: GENES 19
USER: genes 0 Translation |==|  0.41250 0.56401 0.30938
USER: genes 1 Rotation |==|  0.18214 0.80098 0.70500 0.62789
USER: genes 2 Torsion [N]-C--CA-[N] |==|  0.45464
USER: genes 3 Torsion [C]-CA--CB-[CG] |==|  0.93302
USER: genes 4 Torsion [CA]-CB--CG-[CD] |==|  0.36412
USER: genes 5 Torsion [CB]-CG--CD-[CE] |==|  0.28649
USER: genes 6 Torsion [CG]-CD--CE-[NZ] |==|  0.86333
USER: genes 7 Torsion [CD]-CE--NZ-[HZ2] |==|  0.45208
USER: genes 8 Torsion [C]-CA--N-[C] |==|  0.68379
USER: genes 9 Torsion [N]-C--CA-[N] |==|  0.34548
USER: genes 10 Torsion [C]-CA--N-[H1] |==|  0.13925
USER: genes 11 Torsion [C]-N--CA-[CB] |==|  0.49444
USER: genes 12 Torsion [N]-CA--C-[N] |==|  0.45811
USER: genes 13 Torsion [C]-N--CA-[CB] |==|  0.20969
USER: genes 14 Torsion [N]-CA--CB-[CG1] |==|  0.07377
USER: genes 15 Torsion [CA]-CB--CG1-[CD1] |==|  0.26983
USER: genes 16 Torsion [N]-CA--C-[N] |==|  0.59762
USER: genes 17 Torsion [C]-N--CA-[CB] |==|  0.81236
USER: genes 18 Torsion [N]-CA--C-[O] |==|  0.04018
ROOT
ATOM      1  C   LYS E 802     -15.465  23.480  28.762  1.00 51.37 LIG 0.24  C 
ATOM      2 O    LYS E 802     -15.800  22.875  29.775  1.00 54.76 LIG-0.27  OA
ATOM      3  N   ALA E 803     -14.356  24.213  28.686  1.00 53.01 LIG-0.35  N 
ATOM      4 H    ALA E 803     -14.088  24.579  27.955  1.00 53.01 LIG 0.16  HD
ENDROOT
BRANCH 1 5
ATOM      5  CA  LYS E 802     -16.331  23.430  27.497  1.00 50.80 LIG 0.18  C 
BRANCH 5 6
ATOM      6  CB  LYS E 802     -17.006  24.796  27.360  1.00 49.65 LIG 0.04  C 
BRANCH 6 7
ATOM      7  CG  LYS E 802     -17.151  25.565  28.639  1.00 48.72 LIG 0.00  C 
BRANCH 7 8
ATOM      8  CD  LYS E 802     -16.658  26.981  28.448  1.00 52.85 LIG 0.03  C 
BRANCH 8 9
ATOM      9  CE  LYS E 802     -17.815  27.941  28.309  1.00 52.25 LIG 0.23  C 
BRANCH 9 10
ATOM     10  NZ  LYS E 802     -18.801  27.455  27.313  1.00 53.26 LIG-0.08  N 
ATOM     11 HZ1  LYS E 802     -18.932  26.583  27.426  1.00 53.26 LIG 0.27  HD
ATOM     12 HZ2  LYS E 802     -19.572  27.886  27.423  1.00 53.26 LIG 0.27  HD
ATOM     13 HZ3  LYS E 802     -18.492  27.605  26.492  1.00 53.26 LIG 0.27  HD
ENDBRANCH 9 10
ENDBRANCH 8 9
ENDBRANCH 7 8
ENDBRANCH 6 7
ENDBRANCH 5 6
BRANCH 5 14
ATOM     14  N   LYS E 802     -17.357  22.398  27.343  1.00 51.06 LIG-0.35  N 
ATOM     15 H    LYS E 802     -18.016  22.444  27.892  1.00 51.06 LIG 0.16  HD
ATOM     16  C   ALA E 801     -17.213  21.472  26.386  1.00 50.59 LIG 0.25  C 
ATOM     17 O    ALA E 801     -16.217  21.416  25.663  1.00 51.18 LIG-0.27  OA
BRANCH 16 18
ATOM     18  CA  ALA E 801     -18.316  20.435  26.220  1.00 50.00 LIG 0.27  C 
ATOM     19  CB  ALA E 801     -17.778  19.040  26.577  1.00 45.45 LIG 0.05  C 
BRANCH 18 20
ATOM     20  N   ALA E 801     -18.833  20.435  24.829  1.00 50.21 LIG-0.07  N 
ATOM     21 H3   ALA E 801     -19.287  21.185  24.681  1.00 50.21 LIG 0.28  HD
ATOM     22 H2   ALA E 801     -19.370  19.735  24.711  1.00 50.21 LIG 0.28  HD
ATOM     23 H1   ALA E 801     -18.151  20.385  24.259  1.00 50.21 LIG 0.28  HD
ENDBRANCH 18 20
ENDBRANCH 16 18
ENDBRANCH 5 14
ENDBRANCH 1 5
BRANCH 3 24
ATOM     24  CA  ALA E 803     -13.470  24.478  29.830  1.00 57.29 LIG 0.17  C 
ATOM     25  CB  ALA E 803     -12.281  25.311  29.343  1.00 55.60 LIG 0.04  C 
BRANCH 24 26
ATOM     26  C   ALA E 803     -13.905  25.030  31.188  1.00 59.81 LIG 0.24  C 
ATOM     27 O    ALA E 803     -14.982  25.599  31.357  1.00 62.26 LIG-0.27  OA
ATOM     28  N   ILE E 804     -12.981  24.876  32.133  1.00 62.20 LIG-0.35  N 
ATOM     29 H    ILE E 804     -12.238  24.474  31.973  1.00 62.20 LIG 0.16  HD
BRANCH 28 30
ATOM     30  CA  ILE E 804     -13.067  25.336  33.520  1.00 63.57 LIG 0.18  C 
BRANCH 30 31
ATOM     31  CB  ILE E 804     -13.998  24.459  34.389  1.00 63.71 LIG 0.01  C 
ATOM     32  CG2 ILE E 804     -15.394  25.062  34.428  1.00 63.48 LIG 0.01  C 
BRANCH 31 33
ATOM     33  CG1 ILE E 804     -14.068  23.039  33.832  1.00 63.94 LIG 0.00  C 
ATOM     34  CD1 ILE E 804     -13.144  22.081  34.513  1.00 63.94 LIG 0.01  C 
ENDBRANCH 31 33
ENDBRANCH 30 31
BRANCH 30 35
ATOM     35  C   ILE E 804     -11.637  25.161  34.038  1.00 65.71 LIG 0.24  C 
ATOM     36  N   ALA E 805     -11.492  24.796  35.309  1.00 67.46 LIG-0.35  N 
ATOM     37 H    ALA E 805     -12.147  24.653  35.848  1.00 67.46 LIG 0.16  HD
ATOM     38 O    ILE E 804     -10.675  25.368  33.290  1.00 65.35 LIG-0.27  OA
BRANCH 36 39
ATOM     39  CA  ALA E 805     -10.167  24.607  35.897  1.00 69.21 LIG 0.16  C 
ATOM     40  CB  ALA E 805      -9.481  23.394  35.264  1.00 68.65 LIG 0.04  C 
BRANCH 39 41
ATOM     41  C   ALA E 805      -9.296  25.850  35.727  1.00 70.07 LIG 0.22  C 
ATOM     42 O    ALA E 805      -9.865  26.913  35.391  1.00 70.08 LIG-0.29  OA
ENDBRANCH 39 41
ENDBRANCH 36 39
ENDBRANCH 30 35
ENDBRANCH 28 30
ENDBRANCH 24 26
ENDBRANCH 3 24
TORSDOF 17
ENDMDL
MODEL 53
USER: ADFR SOLUTION from run 81
USER: SCORE 12.012551 LL:  -2.292 LR: -10.886 RR:   0.000 FEB:  -5.815
USER: RMSD 7.465106
USER: SEED 80
USER: STATUS no improvement in best 12 clusters for 5 generations
USER: GENES 19
USER: genes 0 Translation |==|  0.53649 0.60875 0.49020
USER: genes 1 Rotation |==|  0.58090 0.43297 0.27022 0.93146
USER: genes 2 Torsion [N]-C--CA-[N] |==|  0.88572
USER: genes 3 Torsion [C]-CA--CB-[CG] |==|  0.71731
USER: genes 4 Torsion [CA]-CB--CG-[CD] |==|  0.25059
USER: genes 5 Torsion [CB]-CG--CD-[CE] |==|  0.56330
USER: genes 6 Torsion [CG]-CD--CE-[NZ] |==|  0.65485
USER: genes 7 Torsion [CD]-CE--NZ-[HZ2] |==|  0.36941
USER: genes 8 Torsion [C]-CA--N-[C] |==|  0.85368
USER: genes 9 Torsion [N]-C--CA-[N] |==|  0.01732
USER: genes 10 Torsion [C]-CA--N-[H1] |==|  0.23496
USER: genes 11 Torsion [C]-N--CA-[CB] |==|  0.79920
USER: genes 12 Torsion [N]-CA--C-[N] |==|  0.43858
USER: genes 13 Torsion [C]-N--CA-[CB] |==|  0.22457
USER: genes 14 Torsion [N]-CA--CB-[CG1] |==|  0.36335
USER: genes 15 Torsion [CA]-CB--CG1-[CD1] |==|  0.56682
USER: genes 16 Torsion [N]-CA--C-[N] |==|  0.35627
USER: genes 17 Torsion [C]-N--CA-[CB] |==|  0.17597
USER: genes 18 Torsion [N]-CA--C-[O] |==|  0.97209
ROOT
ATOM      1  C   LYS E 802     -11.745  24.822  34.186  1.00 51.37 LIG 0.24  C 
ATOM      2 O    LYS E 802     -11.203  25.685  33.503  1.00 54.76 LIG-0.27  OA
ATOM      3  N   ALA E 803     -13.022  24.474  34.037  1.00 53.01 LIG-0.35  N 
ATOM      4 H    ALA E 803     -13.381  23.823  34.470  1.00 53.01 LIG 0.16  HD
ENDROOT
BRANCH 1 5
ATOM      5  CA  LYS E 802     -10.965  24.086  35.281  1.00 50.80 LIG 0.18  C 
BRANCH 5 6
ATOM      6  CB  LYS E 802     -10.498  22.757  34.684  1.00 49.65 LIG 0.04  C 
BRANCH 6 7
ATOM      7  CG  LYS E 802     -11.306  21.560  35.087  1.00 48.72 LIG 0.00  C 
BRANCH 7 8
ATOM      8  CD  LYS E 802     -12.436  21.347  34.105  1.00 52.85 LIG 0.03  C 
BRANCH 8 9
ATOM      9  CE  LYS E 802     -13.555  20.553  34.734  1.00 52.25 LIG 0.23  C 
BRANCH 9 10
ATOM     10  NZ  LYS E 802     -13.866  19.339  33.941  1.00 53.26 LIG-0.08  N 
ATOM     11 HZ1  LYS E 802     -13.219  19.198  33.347  1.00 53.26 LIG 0.27  HD
ATOM     12 HZ2  LYS E 802     -13.927  18.636  34.484  1.00 53.26 LIG 0.27  HD
ATOM     13 HZ3  LYS E 802     -14.639  19.453  33.515  1.00 53.26 LIG 0.27  HD
ENDBRANCH 9 10
ENDBRANCH 8 9
ENDBRANCH 7 8
ENDBRANCH 6 7
ENDBRANCH 5 6
BRANCH 5 14
ATOM     14  N   LYS E 802     -11.588  23.809  36.576  1.00 51.06 LIG-0.35  N 
ATOM     15 H    LYS E 802     -11.558  22.990  36.834  1.00 51.06 LIG 0.16  HD
ATOM     16  C   ALA E 801     -12.149  24.815  37.259  1.00 50.59 LIG 0.25  C 
ATOM     17 O    ALA E 801     -12.217  25.961  36.815  1.00 51.18 LIG-0.27  OA
BRANCH 16 18
ATOM     18  CA  ALA E 801     -12.753  24.506  38.624  1.00 50.00 LIG 0.27  C 
ATOM     19  CB  ALA E 801     -12.186  25.474  39.676  1.00 45.45 LIG 0.05  C 
BRANCH 18 20
ATOM     20  N   ALA E 801     -12.465  23.105  39.021  1.00 50.21 LIG-0.07  N 
ATOM     21 H3   ALA E 801     -12.478  22.584  38.300  1.00 50.21 LIG 0.28  HD
ATOM     22 H2   ALA E 801     -13.082  22.827  39.599  1.00 50.21 LIG 0.28  HD
ATOM     23 H1   ALA E 801     -11.662  23.064  39.402  1.00 50.21 LIG 0.28  HD
ENDBRANCH 18 20
ENDBRANCH 16 18
ENDBRANCH 5 14
ENDBRANCH 1 5
BRANCH 3 24
ATOM     24  CA  ALA E 803     -13.955  25.154  33.126  1.00 57.29 LIG 0.17  C 
ATOM     25  CB  ALA E 803     -14.298  26.525  33.715  1.00 55.60 LIG 0.04  C 
BRANCH 24 26
ATOM     26  C   ALA E 803     -13.768  25.324  31.619  1.00 59.81 LIG 0.24  C 
ATOM     27 O    ALA E 803     -12.662  25.310  31.084  1.00 62.26 LIG-0.27  OA
ATOM     28  N   ILE E 804     -14.912  25.540  30.973  1.00 62.20 LIG-0.35  N 
ATOM     29 H    ILE E 804     -15.666  25.545  31.386  1.00 62.20 LIG 0.16  HD
BRANCH 28 30
ATOM     30  CA  ILE E 804     -15.071  25.789  29.539  1.00 63.57 LIG 0.18  C 
BRANCH 30 31
ATOM     31  CB  ILE E 804     -15.045  24.493  28.696  1.00 63.71 LIG 0.01  C 
ATOM     32  CG2 ILE E 804     -15.097  23.276  29.610  1.00 63.48 LIG 0.01  C 
BRANCH 31 33
ATOM     33  CG1 ILE E 804     -16.226  24.460  27.729  1.00 63.94 LIG 0.00  C 
ATOM     34  CD1 ILE E 804     -16.615  23.080  27.304  1.00 63.94 LIG 0.01  C 
ENDBRANCH 31 33
ENDBRANCH 30 31
BRANCH 30 35
ATOM     35  C   ILE E 804     -16.476  26.386  29.439  1.00 65.71 LIG 0.24  C 
ATOM     36  N   ALA E 805     -16.602  27.536  28.782  1.00 67.46 LIG-0.35  N 
ATOM     37 H    ALA E 805     -15.947  27.956  28.414  1.00 67.46 LIG 0.16  HD
ATOM     38 O    ILE E 804     -17.435  25.812  29.967  1.00 65.35 LIG-0.27  OA
BRANCH 36 39
ATOM     39  CA  ALA E 805     -17.902  28.188  28.637  1.00 69.21 LIG 0.16  C 
ATOM     40  CB  ALA E 805     -18.443  28.591  30.011  1.00 68.65 LIG 0.04  C 
BRANCH 39 41
ATOM     41  C   ALA E 805     -17.816  29.414  27.729  1.00 70.07 LIG 0.22  C 
ATOM     42 O    ALA E 805     -16.674  29.810  27.400  1.00 70.08 LIG-0.29  OA
ENDBRANCH 39 41
ENDBRANCH 36 39
ENDBRANCH 30 35
ENDBRANCH 28 30
ENDBRANCH 24 26
ENDBRANCH 3 24
TORSDOF 17
ENDMDL
MODEL 54
USER: ADFR SOLUTION from run 23
USER: SCORE 11.362569 LL:  -2.348 LR: -10.869 RR:   0.000 FEB:  -5.798
USER: RMSD 11.181316
USER: SEED 22
USER: STATUS no improvement in best 14 clusters for 5 generations
USER: GENES 19
USER: genes 0 Translation |==|  0.38067 0.78689 0.33890
USER: genes 1 Rotation |==|  0.17094 0.17719 0.35886 0.63264
USER: genes 2 Torsion [N]-C--CA-[N] |==|  0.88711
USER: genes 3 Torsion [C]-CA--CB-[CG] |==|  0.57646
USER: genes 4 Torsion [CA]-CB--CG-[CD] |==|  0.42387
USER: genes 5 Torsion [CB]-CG--CD-[CE] |==|  0.86456
USER: genes 6 Torsion [CG]-CD--CE-[NZ] |==|  0.86112
USER: genes 7 Torsion [CD]-CE--NZ-[HZ2] |==|  0.26259
USER: genes 8 Torsion [C]-CA--N-[C] |==|  0.63911
USER: genes 9 Torsion [N]-C--CA-[N] |==|  0.75887
USER: genes 10 Torsion [C]-CA--N-[H1] |==|  0.29117
USER: genes 11 Torsion [C]-N--CA-[CB] |==|  0.84995
USER: genes 12 Torsion [N]-CA--C-[N] |==|  0.43458
USER: genes 13 Torsion [C]-N--CA-[CB] |==|  0.42118
USER: genes 14 Torsion [N]-CA--CB-[CG1] |==|  0.66093
USER: genes 15 Torsion [CA]-CB--CG1-[CD1] |==|  0.87211
USER: genes 16 Torsion [N]-CA--C-[N] |==|  0.90033
USER: genes 17 Torsion [C]-N--CA-[CB] |==|  0.83504
USER: genes 18 Torsion [N]-CA--C-[O] |==|  0.12450
ROOT
ATOM      1  C   LYS E 802     -16.420  30.167  29.647  1.00 51.37 LIG 0.24  C 
ATOM      2 O    LYS E 802     -15.866  29.125  29.985  1.00 54.76 LIG-0.27  OA
ATOM      3  N   ALA E 803     -17.611  30.197  29.052  1.00 53.01 LIG-0.35  N 
ATOM      4 H    ALA E 803     -18.026  30.930  28.878  1.00 53.01 LIG 0.16  HD
ENDROOT
BRANCH 1 5
ATOM      5  CA  LYS E 802     -15.750  31.524  29.891  1.00 50.80 LIG 0.18  C 
BRANCH 5 6
ATOM      6  CB  LYS E 802     -16.334  32.087  31.188  1.00 49.65 LIG 0.04  C 
BRANCH 6 7
ATOM      7  CG  LYS E 802     -16.339  33.583  31.287  1.00 48.72 LIG 0.00  C 
BRANCH 7 8
ATOM      8  CD  LYS E 802     -17.464  34.037  32.189  1.00 52.85 LIG 0.03  C 
BRANCH 8 9
ATOM      9  CE  LYS E 802     -18.763  33.366  31.811  1.00 52.25 LIG 0.23  C 
BRANCH 9 10
ATOM     10  NZ  LYS E 802     -19.026  33.484  30.356  1.00 53.26 LIG-0.08  N 
ATOM     11 HZ1  LYS E 802     -18.607  34.200  30.035  1.00 53.26 LIG 0.27  HD
ATOM     12 HZ2  LYS E 802     -18.726  32.756  29.940  1.00 53.26 LIG 0.27  HD
ATOM     13 HZ3  LYS E 802     -19.901  33.565  30.218  1.00 53.26 LIG 0.27  HD
ENDBRANCH 9 10
ENDBRANCH 8 9
ENDBRANCH 7 8
ENDBRANCH 6 7
ENDBRANCH 5 6
BRANCH 5 14
ATOM     14  N   LYS E 802     -15.808  32.573  28.873  1.00 51.06 LIG-0.35  N 
ATOM     15 H    LYS E 802     -16.590  32.743  28.560  1.00 51.06 LIG 0.16  HD
ATOM     16  C   ALA E 801     -14.677  33.186  28.501  1.00 50.59 LIG 0.25  C 
ATOM     17 O    ALA E 801     -13.572  32.861  28.939  1.00 51.18 LIG-0.27  OA
BRANCH 16 18
ATOM     18  CA  ALA E 801     -14.772  34.303  27.470  1.00 50.00 LIG 0.27  C 
ATOM     19  CB  ALA E 801     -16.082  35.084  27.668  1.00 45.45 LIG 0.05  C 
BRANCH 18 20
ATOM     20  N   ALA E 801     -14.715  33.754  26.093  1.00 50.21 LIG-0.07  N 
ATOM     21 H3   ALA E 801     -14.420  32.916  26.120  1.00 50.21 LIG 0.28  HD
ATOM     22 H2   ALA E 801     -14.163  34.248  25.599  1.00 50.21 LIG 0.28  HD
ATOM     23 H1   ALA E 801     -15.529  33.770  25.733  1.00 50.21 LIG 0.28  HD
ENDBRANCH 18 20
ENDBRANCH 16 18
ENDBRANCH 5 14
ENDBRANCH 1 5
BRANCH 3 24
ATOM     24  CA  ALA E 803     -18.344  28.995  28.627  1.00 57.29 LIG 0.17  C 
ATOM     25  CB  ALA E 803     -17.428  28.157  27.731  1.00 55.60 LIG 0.04  C 
BRANCH 24 26
ATOM     26  C   ALA E 803     -19.103  28.040  29.548  1.00 59.81 LIG 0.24  C 
ATOM     27 O    ALA E 803     -18.815  27.895  30.734  1.00 62.26 LIG-0.27  OA
ATOM     28  N   ILE E 804     -20.056  27.356  28.917  1.00 62.20 LIG-0.35  N 
ATOM     29 H    ILE E 804     -20.224  27.486  28.084  1.00 62.20 LIG 0.16  HD
BRANCH 28 30
ATOM     30  CA  ILE E 804     -20.926  26.333  29.500  1.00 63.57 LIG 0.18  C 
BRANCH 30 31
ATOM     31  CB  ILE E 804     -22.299  26.237  28.797  1.00 63.71 LIG 0.01  C 
ATOM     32  CG2 ILE E 804     -22.460  24.868  28.151  1.00 63.48 LIG 0.01  C 
BRANCH 31 33
ATOM     33  CG1 ILE E 804     -23.429  26.469  29.797  1.00 63.94 LIG 0.00  C 
ATOM     34  CD1 ILE E 804     -23.265  25.709  31.074  1.00 63.94 LIG 0.01  C 
ENDBRANCH 31 33
ENDBRANCH 30 31
BRANCH 30 35
ATOM     35  C   ILE E 804     -20.167  25.032  29.229  1.00 65.71 LIG 0.24  C 
ATOM     36  N   ALA E 805     -19.498  24.946  28.082  1.00 67.46 LIG-0.35  N 
ATOM     37 H    ALA E 805     -19.467  25.573  27.494  1.00 67.46 LIG 0.16  HD
ATOM     38 O    ILE E 804     -20.201  24.109  30.051  1.00 65.35 LIG-0.27  OA
BRANCH 36 39
ATOM     39  CA  ALA E 805     -18.746  23.743  27.731  1.00 69.21 LIG 0.16  C 
ATOM     40  CB  ALA E 805     -17.674  23.467  28.788  1.00 68.65 LIG 0.04  C 
BRANCH 39 41
ATOM     41  C   ALA E 805     -19.664  22.530  27.588  1.00 70.07 LIG 0.22  C 
ATOM     42 O    ALA E 805     -20.730  22.684  26.948  1.00 70.08 LIG-0.29  OA
ENDBRANCH 39 41
ENDBRANCH 36 39
ENDBRANCH 30 35
ENDBRANCH 28 30
ENDBRANCH 24 26
ENDBRANCH 3 24
TORSDOF 17
ENDMDL
MODEL 55
USER: ADFR SOLUTION from run 43
USER: SCORE 11.851271 LL:  -2.164 LR: -10.861 RR:   0.000 FEB:  -5.790
USER: RMSD 9.002867
USER: SEED 42
USER: STATUS no improvement in best 8 clusters for 5 generations
USER: GENES 19
USER: genes 0 Translation |==|  0.36604 0.56972 0.30229
USER: genes 1 Rotation |==|  0.37488 0.27117 0.84087 0.75649
USER: genes 2 Torsion [N]-C--CA-[N] |==|  0.35015
USER: genes 3 Torsion [C]-CA--CB-[CG] |==|  0.08930
USER: genes 4 Torsion [CA]-CB--CG-[CD] |==|  0.64947
USER: genes 5 Torsion [CB]-CG--CD-[CE] |==|  0.76519
USER: genes 6 Torsion [CG]-CD--CE-[NZ] |==|  0.36941
USER: genes 7 Torsion [CD]-CE--NZ-[HZ2] |==|  0.08502
USER: genes 8 Torsion [C]-CA--N-[C] |==|  0.85524
USER: genes 9 Torsion [N]-C--CA-[N] |==|  0.01970
USER: genes 10 Torsion [C]-CA--N-[H1] |==|  0.15780
USER: genes 11 Torsion [C]-N--CA-[CB] |==|  0.24887
USER: genes 12 Torsion [N]-CA--C-[N] |==|  0.56546
USER: genes 13 Torsion [C]-N--CA-[CB] |==|  0.87222
USER: genes 14 Torsion [N]-CA--CB-[CG1] |==|  0.70518
USER: genes 15 Torsion [CA]-CB--CG1-[CD1] |==|  0.16079
USER: genes 16 Torsion [N]-CA--C-[N] |==|  0.37393
USER: genes 17 Torsion [C]-N--CA-[CB] |==|  0.85372
USER: genes 18 Torsion [N]-CA--C-[O] |==|  0.11490
ROOT
ATOM      1  C   LYS E 802     -16.859  23.651  28.549  1.00 51.37 LIG 0.24  C 
ATOM      2 O    LYS E 802     -16.184  23.524  27.532  1.00 54.76 LIG-0.27  OA
ATOM      3  N   ALA E 803     -16.478  23.186  29.737  1.00 53.01 LIG-0.35  N 
ATOM      4 H    ALA E 803     -16.920  23.337  30.460  1.00 53.01 LIG 0.16  HD
ENDROOT
BRANCH 1 5
ATOM      5  CA  LYS E 802     -18.215  24.365  28.503  1.00 50.80 LIG 0.18  C 
BRANCH 5 6
ATOM      6  CB  LYS E 802     -19.174  23.458  27.729  1.00 49.65 LIG 0.04  C 
BRANCH 6 7
ATOM      7  CG  LYS E 802     -18.921  21.988  27.881  1.00 48.72 LIG 0.00  C 
BRANCH 7 8
ATOM      8  CD  LYS E 802     -18.777  21.346  26.520  1.00 52.85 LIG 0.03  C 
BRANCH 8 9
ATOM      9  CE  LYS E 802     -20.127  20.995  25.942  1.00 52.25 LIG 0.23  C 
BRANCH 9 10
ATOM     10  NZ  LYS E 802     -20.240  21.437  24.531  1.00 53.26 LIG-0.08  N 
ATOM     11 HZ1  LYS E 802     -20.555  22.269  24.504  1.00 53.26 LIG 0.27  HD
ATOM     12 HZ2  LYS E 802     -19.437  21.413  24.147  1.00 53.26 LIG 0.27  HD
ATOM     13 HZ3  LYS E 802     -20.795  20.896  24.094  1.00 53.26 LIG 0.27  HD
ENDBRANCH 9 10
ENDBRANCH 8 9
ENDBRANCH 7 8
ENDBRANCH 6 7
ENDBRANCH 5 6
BRANCH 5 14
ATOM     14  N   LYS E 802     -18.324  25.717  27.954  1.00 51.06 LIG-0.35  N 
ATOM     15 H    LYS E 802     -18.924  25.823  27.347  1.00 51.06 LIG 0.16  HD
ATOM     16  C   ALA E 801     -17.510  26.675  28.412  1.00 50.59 LIG 0.25  C 
ATOM     17 O    ALA E 801     -16.626  26.453  29.241  1.00 51.18 LIG-0.27  OA
BRANCH 16 18
ATOM     18  CA  ALA E 801     -17.673  28.083  27.853  1.00 50.00 LIG 0.27  C 
ATOM     19  CB  ALA E 801     -17.798  29.091  29.008  1.00 45.45 LIG 0.05  C 
BRANCH 18 20
ATOM     20  N   ALA E 801     -18.870  28.166  26.980  1.00 50.21 LIG-0.07  N 
ATOM     21 H3   ALA E 801     -18.763  27.630  26.278  1.00 50.21 LIG 0.28  HD
ATOM     22 H2   ALA E 801     -18.975  29.004  26.699  1.00 50.21 LIG 0.28  HD
ATOM     23 H1   ALA E 801     -19.590  27.914  27.438  1.00 50.21 LIG 0.28  HD
ENDBRANCH 18 20
ENDBRANCH 16 18
ENDBRANCH 5 14
ENDBRANCH 1 5
BRANCH 3 24
ATOM     24  CA  ALA E 803     -15.272  22.371  29.949  1.00 57.29 LIG 0.17  C 
ATOM     25  CB  ALA E 803     -14.095  23.308  30.232  1.00 55.60 LIG 0.04  C 
BRANCH 24 26
ATOM     26  C   ALA E 803     -15.157  21.174  30.892  1.00 59.81 LIG 0.24  C 
ATOM     27 O    ALA E 803     -16.137  20.543  31.283  1.00 62.26 LIG-0.27  OA
ATOM     28  N   ILE E 804     -13.905  20.931  31.276  1.00 62.20 LIG-0.35  N 
ATOM     29 H    ILE E 804     -13.248  21.399  30.980  1.00 62.20 LIG 0.16  HD
BRANCH 28 30
ATOM     30  CA  ILE E 804     -13.465  19.892  32.208  1.00 63.57 LIG 0.18  C 
BRANCH 30 31
ATOM     31  CB  ILE E 804     -14.334  19.821  33.485  1.00 63.71 LIG 0.01  C 
ATOM     32  CG2 ILE E 804     -14.715  18.376  33.775  1.00 63.48 LIG 0.01  C 
BRANCH 31 33
ATOM     33  CG1 ILE E 804     -13.580  20.402  34.678  1.00 63.94 LIG 0.00  C 
ATOM     34  CD1 ILE E 804     -13.146  21.819  34.481  1.00 63.94 LIG 0.01  C 
ENDBRANCH 31 33
ENDBRANCH 30 31
BRANCH 30 35
ATOM     35  C   ILE E 804     -13.681  18.598  31.419  1.00 65.71 LIG 0.24  C 
ATOM     36  N   ALA E 805     -12.699  17.701  31.444  1.00 67.46 LIG-0.35  N 
ATOM     37 H    ALA E 805     -11.961  17.804  31.875  1.00 67.46 LIG 0.16  HD
ATOM     38 O    ILE E 804     -14.726  18.425  30.782  1.00 65.35 LIG-0.27  OA
BRANCH 36 39
ATOM     39  CA  ALA E 805     -12.809  16.436  30.719  1.00 69.21 LIG 0.16  C 
ATOM     40  CB  ALA E 805     -14.110  15.725  31.099  1.00 68.65 LIG 0.04  C 
BRANCH 39 41
ATOM     41  C   ALA E 805     -12.751  16.650  29.208  1.00 70.07 LIG 0.22  C 
ATOM     42 O    ALA E 805     -11.919  17.478  28.773  1.00 70.08 LIG-0.29  OA
ENDBRANCH 39 41
ENDBRANCH 36 39
ENDBRANCH 30 35
ENDBRANCH 28 30
ENDBRANCH 24 26
ENDBRANCH 3 24
TORSDOF 17
ENDMDL
MODEL 56
USER: ADFR SOLUTION from run 44
USER: SCORE 11.608698 LL:  -2.160 LR: -10.861 RR:   0.000 FEB:  -5.790
USER: RMSD 9.161836
USER: SEED 43
USER: STATUS no improvement in best 11 clusters for 5 generations
USER: GENES 19
USER: genes 0 Translation |==|  0.39176 0.53994 0.31551
USER: genes 1 Rotation |==|  0.23423 0.81930 0.70091 0.69248
USER: genes 2 Torsion [N]-C--CA-[N] |==|  0.44045
USER: genes 3 Torsion [C]-CA--CB-[CG] |==|  0.16547
USER: genes 4 Torsion [CA]-CB--CG-[CD] |==|  0.43730
USER: genes 5 Torsion [CB]-CG--CD-[CE] |==|  0.14788
USER: genes 6 Torsion [CG]-CD--CE-[NZ] |==|  0.69501
USER: genes 7 Torsion [CD]-CE--NZ-[HZ2] |==|  0.66472
USER: genes 8 Torsion [C]-CA--N-[C] |==|  0.73260
USER: genes 9 Torsion [N]-C--CA-[N] |==|  0.19842
USER: genes 10 Torsion [C]-CA--N-[H1] |==|  0.81472
USER: genes 11 Torsion [C]-N--CA-[CB] |==|  0.68984
USER: genes 12 Torsion [N]-CA--C-[N] |==|  0.22980
USER: genes 13 Torsion [C]-N--CA-[CB] |==|  0.52178
USER: genes 14 Torsion [N]-CA--CB-[CG1] |==|  0.95210
USER: genes 15 Torsion [CA]-CB--CG1-[CD1] |==|  0.43895
USER: genes 16 Torsion [N]-CA--C-[N] |==|  0.27780
USER: genes 17 Torsion [C]-N--CA-[CB] |==|  0.14755
USER: genes 18 Torsion [N]-CA--C-[O] |==|  0.92840
ROOT
ATOM      1  C   LYS E 802     -16.087  22.758  28.945  1.00 51.37 LIG 0.24  C 
ATOM      2 O    LYS E 802     -16.660  22.113  29.818  1.00 54.76 LIG-0.27  OA
ATOM      3  N   ALA E 803     -14.818  23.149  29.045  1.00 53.01 LIG-0.35  N 
ATOM      4 H    ALA E 803     -14.399  23.540  28.405  1.00 53.01 LIG 0.16  HD
ENDROOT
BRANCH 1 5
ATOM      5  CA  LYS E 802     -16.822  23.166  27.663  1.00 50.80 LIG 0.18  C 
BRANCH 5 6
ATOM      6  CB  LYS E 802     -17.199  24.642  27.811  1.00 49.65 LIG 0.04  C 
BRANCH 6 7
ATOM      7  CG  LYS E 802     -16.043  25.576  28.009  1.00 48.72 LIG 0.00  C 
BRANCH 7 8
ATOM      8  CD  LYS E 802     -16.436  26.977  27.596  1.00 52.85 LIG 0.03  C 
BRANCH 8 9
ATOM      9  CE  LYS E 802     -17.699  27.413  28.299  1.00 52.25 LIG 0.23  C 
BRANCH 9 10
ATOM     10  NZ  LYS E 802     -18.840  27.494  27.355  1.00 53.26 LIG-0.08  N 
ATOM     11 HZ1  LYS E 802     -19.479  26.930  27.612  1.00 53.26 LIG 0.27  HD
ATOM     12 HZ2  LYS E 802     -19.163  28.323  27.350  1.00 53.26 LIG 0.27  HD
ATOM     13 HZ3  LYS E 802     -18.565  27.277  26.537  1.00 53.26 LIG 0.27  HD
ENDBRANCH 9 10
ENDBRANCH 8 9
ENDBRANCH 7 8
ENDBRANCH 6 7
ENDBRANCH 5 6
BRANCH 5 14
ATOM     14  N   LYS E 802     -18.012  22.435  27.226  1.00 51.06 LIG-0.35  N 
ATOM     15 H    LYS E 802     -18.751  22.678  27.590  1.00 51.06 LIG 0.16  HD
ATOM     16  C   ALA E 801     -17.882  21.463  26.315  1.00 50.59 LIG 0.25  C 
ATOM     17 O    ALA E 801     -16.788  21.114  25.869  1.00 51.18 LIG-0.27  OA
BRANCH 16 18
ATOM     18  CA  ALA E 801     -19.142  20.746  25.847  1.00 50.00 LIG 0.27  C 
ATOM     19  CB  ALA E 801     -18.761  19.476  25.068  1.00 45.45 LIG 0.05  C 
BRANCH 18 20
ATOM     20  N   ALA E 801     -19.965  21.635  24.990  1.00 50.21 LIG-0.07  N 
ATOM     21 H3   ALA E 801     -20.644  21.172  24.648  1.00 50.21 LIG 0.28  HD
ATOM     22 H2   ALA E 801     -19.464  21.957  24.329  1.00 50.21 LIG 0.28  HD
ATOM     23 H1   ALA E 801     -20.282  22.308  25.478  1.00 50.21 LIG 0.28  HD
ENDBRANCH 18 20
ENDBRANCH 16 18
ENDBRANCH 5 14
ENDBRANCH 1 5
BRANCH 3 24
ATOM     24  CA  ALA E 803     -13.996  22.957  30.250  1.00 57.29 LIG 0.17  C 
ATOM     25  CB  ALA E 803     -13.715  24.329  30.871  1.00 55.60 LIG 0.04  C 
BRANCH 24 26
ATOM     26  C   ALA E 803     -14.290  21.979  31.386  1.00 59.81 LIG 0.24  C 
ATOM     27 O    ALA E 803     -14.809  22.329  32.444  1.00 62.26 LIG-0.27  OA
ATOM     28  N   ILE E 804     -13.878  20.739  31.126  1.00 62.20 LIG-0.35  N 
ATOM     29 H    ILE E 804     -13.516  20.536  30.373  1.00 62.20 LIG 0.16  HD
BRANCH 28 30
ATOM     30  CA  ILE E 804     -13.966  19.585  32.022  1.00 63.57 LIG 0.18  C 
BRANCH 30 31
ATOM     31  CB  ILE E 804     -13.221  18.343  31.480  1.00 63.71 LIG 0.01  C 
ATOM     32  CG2 ILE E 804     -14.049  17.091  31.726  1.00 63.48 LIG 0.01  C 
BRANCH 31 33
ATOM     33  CG1 ILE E 804     -12.948  18.493  29.985  1.00 63.94 LIG 0.00  C 
ATOM     34  CD1 ILE E 804     -11.823  17.641  29.492  1.00 63.94 LIG 0.01  C 
ENDBRANCH 31 33
ENDBRANCH 30 31
BRANCH 30 35
ATOM     35  C   ILE E 804     -13.235  20.060  33.280  1.00 65.71 LIG 0.24  C 
ATOM     36  N   ALA E 805     -13.985  20.476  34.297  1.00 67.46 LIG-0.35  N 
ATOM     37 H    ALA E 805     -14.845  20.491  34.289  1.00 67.46 LIG 0.16  HD
ATOM     38 O    ILE E 804     -12.000  20.060  33.319  1.00 65.35 LIG-0.27  OA
BRANCH 36 39
ATOM     39  CA  ALA E 805     -13.381  20.953  35.540  1.00 69.21 LIG 0.16  C 
ATOM     40  CB  ALA E 805     -12.356  22.049  35.238  1.00 68.65 LIG 0.04  C 
BRANCH 39 41
ATOM     41  C   ALA E 805     -14.437  21.477  36.512  1.00 70.07 LIG 0.22  C 
ATOM     42 O    ALA E 805     -15.509  21.902  36.025  1.00 70.08 LIG-0.29  OA
ENDBRANCH 39 41
ENDBRANCH 36 39
ENDBRANCH 30 35
ENDBRANCH 28 30
ENDBRANCH 24 26
ENDBRANCH 3 24
TORSDOF 17
ENDMDL
MODEL 57
USER: ADFR SOLUTION from run 100
USER: SCORE 11.832535 LL:  -2.156 LR: -10.850 RR:   0.000 FEB:  -5.779
USER: RMSD 9.112030
USER: SEED 99
USER: STATUS no improvement in best 9 clusters for 5 generations
USER: GENES 19
USER: genes 0 Translation |==|  0.38818 0.53227 0.31914
USER: genes 1 Rotation |==|  0.18898 0.78797 0.66808 0.70516
USER: genes 2 Torsion [N]-C--CA-[N] |==|  0.50737
USER: genes 3 Torsion [C]-CA--CB-[CG] |==|  0.88305
USER: genes 4 Torsion [CA]-CB--CG-[CD] |==|  0.42817
USER: genes 5 Torsion [CB]-CG--CD-[CE] |==|  0.28590
USER: genes 6 Torsion [CG]-CD--CE-[NZ] |==|  0.92427
USER: genes 7 Torsion [CD]-CE--NZ-[HZ2] |==|  0.84711
USER: genes 8 Torsion [C]-CA--N-[C] |==|  0.68391
USER: genes 9 Torsion [N]-C--CA-[N] |==|  0.16601
USER: genes 10 Torsion [C]-CA--N-[H1] |==|  0.54500
USER: genes 11 Torsion [C]-N--CA-[CB] |==|  0.80797
USER: genes 12 Torsion [N]-CA--C-[N] |==|  0.47184
USER: genes 13 Torsion [C]-N--CA-[CB] |==|  0.51112
USER: genes 14 Torsion [N]-CA--CB-[CG1] |==|  0.71095
USER: genes 15 Torsion [CA]-CB--CG1-[CD1] |==|  0.35336
USER: genes 16 Torsion [N]-CA--C-[N] |==|  0.37202
USER: genes 17 Torsion [C]-N--CA-[CB] |==|  0.19116
USER: genes 18 Torsion [N]-CA--C-[O] |==|  0.88957
ROOT
ATOM      1  C   LYS E 802     -16.195  22.528  29.054  1.00 51.37 LIG 0.24  C 
ATOM      2 O    LYS E 802     -16.881  21.876  29.835  1.00 54.76 LIG-0.27  OA
ATOM      3  N   ALA E 803     -15.027  23.072  29.393  1.00 53.01 LIG-0.35  N 
ATOM      4 H    ALA E 803     -14.517  23.469  28.826  1.00 53.01 LIG 0.16  HD
ENDROOT
BRANCH 1 5
ATOM      5  CA  LYS E 802     -16.659  22.764  27.613  1.00 50.80 LIG 0.18  C 
BRANCH 5 6
ATOM      6  CB  LYS E 802     -16.629  24.274  27.372  1.00 49.65 LIG 0.04  C 
BRANCH 6 7
ATOM      7  CG  LYS E 802     -17.152  25.109  28.503  1.00 48.72 LIG 0.00  C 
BRANCH 7 8
ATOM      8  CD  LYS E 802     -16.525  26.484  28.461  1.00 52.85 LIG 0.03  C 
BRANCH 8 9
ATOM      9  CE  LYS E 802     -17.490  27.501  27.902  1.00 52.25 LIG 0.23  C 
BRANCH 9 10
ATOM     10  NZ  LYS E 802     -18.465  26.868  26.980  1.00 53.26 LIG-0.08  N 
ATOM     11 HZ1  LYS E 802     -18.974  27.496  26.609  1.00 53.26 LIG 0.27  HD
ATOM     12 HZ2  LYS E 802     -18.028  26.427  26.342  1.00 53.26 LIG 0.27  HD
ATOM     13 HZ3  LYS E 802     -18.978  26.301  27.435  1.00 53.26 LIG 0.27  HD
ENDBRANCH 9 10
ENDBRANCH 8 9
ENDBRANCH 7 8
ENDBRANCH 6 7
ENDBRANCH 5 6
BRANCH 5 14
ATOM     14  N   LYS E 802     -17.955  22.257  27.159  1.00 51.06 LIG-0.35  N 
ATOM     15 H    LYS E 802     -18.643  22.617  27.527  1.00 51.06 LIG 0.16  HD
ATOM     16  C   ALA E 801     -17.990  21.295  26.229  1.00 50.59 LIG 0.25  C 
ATOM     17 O    ALA E 801     -16.971  20.771  25.778  1.00 51.18 LIG-0.27  OA
BRANCH 16 18
ATOM     18  CA  ALA E 801     -19.353  20.816  25.745  1.00 50.00 LIG 0.27  C 
ATOM     19  CB  ALA E 801     -19.173  19.694  24.708  1.00 45.45 LIG 0.05  C 
BRANCH 18 20
ATOM     20  N   ALA E 801     -20.122  21.935  25.147  1.00 50.21 LIG-0.07  N 
ATOM     21 H3   ALA E 801     -19.805  22.113  24.335  1.00 50.21 LIG 0.28  HD
ATOM     22 H2   ALA E 801     -20.043  22.658  25.661  1.00 50.21 LIG 0.28  HD
ATOM     23 H1   ALA E 801     -20.980  21.707  25.086  1.00 50.21 LIG 0.28  HD
ENDBRANCH 18 20
ENDBRANCH 16 18
ENDBRANCH 5 14
ENDBRANCH 1 5
BRANCH 3 24
ATOM     24  CA  ALA E 803     -14.482  23.056  30.759  1.00 57.29 LIG 0.17  C 
ATOM     25  CB  ALA E 803     -15.344  23.969  31.637  1.00 55.60 LIG 0.04  C 
BRANCH 24 26
ATOM     26  C   ALA E 803     -14.143  21.807  31.571  1.00 59.81 LIG 0.24  C 
ATOM     27 O    ALA E 803     -14.507  20.681  31.237  1.00 62.26 LIG-0.27  OA
ATOM     28  N   ILE E 804     -13.469  22.078  32.687  1.00 62.20 LIG-0.35  N 
ATOM     29 H    ILE E 804     -13.236  22.881  32.886  1.00 62.20 LIG 0.16  HD
BRANCH 28 30
ATOM     30  CA  ILE E 804     -13.038  21.114  33.702  1.00 63.57 LIG 0.18  C 
BRANCH 30 31
ATOM     31  CB  ILE E 804     -12.362  21.784  34.920  1.00 63.71 LIG 0.01  C 
ATOM     32  CG2 ILE E 804     -12.902  21.183  36.210  1.00 63.48 LIG 0.01  C 
BRANCH 31 33
ATOM     33  CG1 ILE E 804     -10.848  21.597  34.861  1.00 63.94 LIG 0.00  C 
ATOM     34  CD1 ILE E 804     -10.080  22.874  34.984  1.00 63.94 LIG 0.01  C 
ENDBRANCH 31 33
ENDBRANCH 30 31
BRANCH 30 35
ATOM     35  C   ILE E 804     -14.354  20.492  34.176  1.00 65.71 LIG 0.24  C 
ATOM     36  N   ALA E 805     -14.393  19.167  34.289  1.00 67.46 LIG-0.35  N 
ATOM     37 H    ALA E 805     -13.730  18.648  34.115  1.00 67.46 LIG 0.16  HD
ATOM     38 O    ILE E 804     -15.328  21.211  34.425  1.00 65.35 LIG-0.27  OA
BRANCH 36 39
ATOM     39  CA  ALA E 805     -15.604  18.479  34.731  1.00 69.21 LIG 0.16  C 
ATOM     40  CB  ALA E 805     -16.692  18.593  33.660  1.00 68.65 LIG 0.04  C 
BRANCH 39 41
ATOM     41  C   ALA E 805     -15.332  17.009  35.045  1.00 70.07 LIG 0.22  C 
ATOM     42 O    ALA E 805     -14.555  16.390  34.282  1.00 70.08 LIG-0.29  OA
ENDBRANCH 39 41
ENDBRANCH 36 39
ENDBRANCH 30 35
ENDBRANCH 28 30
ENDBRANCH 24 26
ENDBRANCH 3 24
TORSDOF 17
ENDMDL
MODEL 58
USER: ADFR SOLUTION from run 89
USER: SCORE 13.326726 LL:  -3.086 LR: -10.837 RR:   0.000 FEB:  -5.766
USER: RMSD 9.227815
USER: SEED 88
USER: STATUS no improvement in best 6 clusters for 5 generations
USER: GENES 19
USER: genes 0 Translation |==|  0.44226 0.55118 0.39116
USER: genes 1 Rotation |==|  0.10153 0.79323 0.52791 0.56676
USER: genes 2 Torsion [N]-C--CA-[N] |==|  0.36336
USER: genes 3 Torsion [C]-CA--CB-[CG] |==|  0.10602
USER: genes 4 Torsion [CA]-CB--CG-[CD] |==|  0.49690
USER: genes 5 Torsion [CB]-CG--CD-[CE] |==|  0.50485
USER: genes 6 Torsion [CG]-CD--CE-[NZ] |==|  0.47509
USER: genes 7 Torsion [CD]-CE--NZ-[HZ2] |==|  0.73191
USER: genes 8 Torsion [C]-CA--N-[C] |==|  0.80465
USER: genes 9 Torsion [N]-C--CA-[N] |==|  0.54196
USER: genes 10 Torsion [C]-CA--N-[H1] |==|  0.04047
USER: genes 11 Torsion [C]-N--CA-[CB] |==|  0.87136
USER: genes 12 Torsion [N]-CA--C-[N] |==|  0.89097
USER: genes 13 Torsion [C]-N--CA-[CB] |==|  0.55001
USER: genes 14 Torsion [N]-CA--CB-[CG1] |==|  0.08525
USER: genes 15 Torsion [CA]-CB--CG1-[CD1] |==|  0.64222
USER: genes 16 Torsion [N]-CA--C-[N] |==|  0.36402
USER: genes 17 Torsion [C]-N--CA-[CB] |==|  0.17762
USER: genes 18 Torsion [N]-CA--C-[O] |==|  0.04535
ROOT
ATOM      1  C   LYS E 802     -14.572  23.095  31.215  1.00 51.37 LIG 0.24  C 
ATOM      2 O    LYS E 802     -15.341  23.111  32.171  1.00 54.76 LIG-0.27  OA
ATOM      3  N   ALA E 803     -13.531  23.918  31.106  1.00 53.01 LIG-0.35  N 
ATOM      4 H    ALA E 803     -12.956  23.860  30.470  1.00 53.01 LIG 0.16  HD
ENDROOT
BRANCH 1 5
ATOM      5  CA  LYS E 802     -14.779  22.107  30.061  1.00 50.80 LIG 0.18  C 
BRANCH 5 6
ATOM      6  CB  LYS E 802     -15.964  22.617  29.239  1.00 49.65 LIG 0.04  C 
BRANCH 6 7
ATOM      7  CG  LYS E 802     -16.037  24.107  29.085  1.00 48.72 LIG 0.00  C 
BRANCH 7 8
ATOM      8  CD  LYS E 802     -17.230  24.480  28.235  1.00 52.85 LIG 0.03  C 
BRANCH 8 9
ATOM      9  CE  LYS E 802     -17.301  25.974  28.028  1.00 52.25 LIG 0.23  C 
BRANCH 9 10
ATOM     10  NZ  LYS E 802     -18.335  26.330  27.027  1.00 53.26 LIG-0.08  N 
ATOM     11 HZ1  LYS E 802     -18.733  27.089  27.267  1.00 53.26 LIG 0.27  HD
ATOM     12 HZ2  LYS E 802     -17.953  26.437  26.230  1.00 53.26 LIG 0.27  HD
ATOM     13 HZ3  LYS E 802     -18.940  25.680  26.980  1.00 53.26 LIG 0.27  HD
ENDBRANCH 9 10
ENDBRANCH 8 9
ENDBRANCH 7 8
ENDBRANCH 6 7
ENDBRANCH 5 6
BRANCH 5 14
ATOM     14  N   LYS E 802     -14.991  20.685  30.331  1.00 51.06 LIG-0.35  N 
ATOM     15 H    LYS E 802     -15.784  20.392  30.175  1.00 51.06 LIG 0.16  HD
ATOM     16  C   ALA E 801     -13.971  19.949  30.790  1.00 50.59 LIG 0.25  C 
ATOM     17 O    ALA E 801     -12.870  20.433  31.054  1.00 51.18 LIG-0.27  OA
BRANCH 16 18
ATOM     18  CA  ALA E 801     -14.209  18.462  31.023  1.00 50.00 LIG 0.27  C 
ATOM     19  CB  ALA E 801     -15.567  18.253  31.713  1.00 45.45 LIG 0.05  C 
BRANCH 18 20
ATOM     20  N   ALA E 801     -13.126  17.881  31.855  1.00 50.21 LIG-0.07  N 
ATOM     21 H3   ALA E 801     -12.587  17.393  31.342  1.00 50.21 LIG 0.28  HD
ATOM     22 H2   ALA E 801     -13.482  17.364  32.487  1.00 50.21 LIG 0.28  HD
ATOM     23 H1   ALA E 801     -12.659  18.536  32.236  1.00 50.21 LIG 0.28  HD
ENDBRANCH 18 20
ENDBRANCH 16 18
ENDBRANCH 5 14
ENDBRANCH 1 5
BRANCH 3 24
ATOM     24  CA  ALA E 803     -13.249  25.010  32.050  1.00 57.29 LIG 0.17  C 
ATOM     25  CB  ALA E 803     -14.549  25.778  32.310  1.00 55.60 LIG 0.04  C 
BRANCH 24 26
ATOM     26  C   ALA E 803     -12.512  24.872  33.382  1.00 59.81 LIG 0.24  C 
ATOM     27 O    ALA E 803     -11.679  25.690  33.766  1.00 62.26 LIG-0.27  OA
ATOM     28  N   ILE E 804     -12.829  23.758  34.040  1.00 62.20 LIG-0.35  N 
ATOM     29 H    ILE E 804     -13.416  23.209  33.735  1.00 62.20 LIG 0.16  HD
BRANCH 28 30
ATOM     30  CA  ILE E 804     -12.267  23.307  35.314  1.00 63.57 LIG 0.18  C 
BRANCH 30 31
ATOM     31  CB  ILE E 804     -12.507  21.803  35.580  1.00 63.71 LIG 0.01  C 
ATOM     32  CG2 ILE E 804     -13.815  21.611  36.335  1.00 63.48 LIG 0.01  C 
BRANCH 31 33
ATOM     33  CG1 ILE E 804     -12.555  21.028  34.266  1.00 63.94 LIG 0.00  C 
ATOM     34  CD1 ILE E 804     -13.760  20.154  34.128  1.00 63.94 LIG 0.01  C 
ENDBRANCH 31 33
ENDBRANCH 30 31
BRANCH 30 35
ATOM     35  C   ILE E 804     -10.763  23.518  35.128  1.00 65.71 LIG 0.24  C 
ATOM     36  N   ALA E 805     -10.115  24.158  36.098  1.00 67.46 LIG-0.35  N 
ATOM     37 H    ALA E 805     -10.488  24.454  36.814  1.00 67.46 LIG 0.16  HD
ATOM     38 O    ILE E 804     -10.199  23.112  34.105  1.00 65.35 LIG-0.27  OA
BRANCH 36 39
ATOM     39  CA  ALA E 805      -8.678  24.411  36.011  1.00 69.21 LIG 0.16  C 
ATOM     40  CB  ALA E 805      -8.379  25.340  34.831  1.00 68.65 LIG 0.04  C 
BRANCH 39 41
ATOM     41  C   ALA E 805      -8.136  25.018  37.304  1.00 70.07 LIG 0.22  C 
ATOM     42 O    ALA E 805      -8.852  24.930  38.327  1.00 70.08 LIG-0.29  OA
ENDBRANCH 39 41
ENDBRANCH 36 39
ENDBRANCH 30 35
ENDBRANCH 28 30
ENDBRANCH 24 26
ENDBRANCH 3 24
TORSDOF 17
ENDMDL
MODEL 59
USER: ADFR SOLUTION from run 110
USER: SCORE 11.013567 LL:  -3.699 LR: -10.835 RR:   0.000 FEB:  -5.764
USER: RMSD 10.890935
USER: SEED 109
USER: STATUS no improvement in best 15 clusters for 5 generations
USER: GENES 19
USER: genes 0 Translation |==|  0.68021 0.63064 0.56348
USER: genes 1 Rotation |==|  0.17136 0.81930 0.60733 0.66890
USER: genes 2 Torsion [N]-C--CA-[N] |==|  0.42425
USER: genes 3 Torsion [C]-CA--CB-[CG] |==|  0.95873
USER: genes 4 Torsion [CA]-CB--CG-[CD] |==|  0.35321
USER: genes 5 Torsion [CB]-CG--CD-[CE] |==|  0.60337
USER: genes 6 Torsion [CG]-CD--CE-[NZ] |==|  0.29033
USER: genes 7 Torsion [CD]-CE--NZ-[HZ2] |==|  0.28958
USER: genes 8 Torsion [C]-CA--N-[C] |==|  0.16667
USER: genes 9 Torsion [N]-C--CA-[N] |==|  0.26816
USER: genes 10 Torsion [C]-CA--N-[H1] |==|  0.55412
USER: genes 11 Torsion [C]-N--CA-[CB] |==|  0.51831
USER: genes 12 Torsion [N]-CA--C-[N] |==|  0.23463
USER: genes 13 Torsion [C]-N--CA-[CB] |==|  0.30322
USER: genes 14 Torsion [N]-CA--CB-[CG1] |==|  0.10557
USER: genes 15 Torsion [CA]-CB--CG1-[CD1] |==|  0.58481
USER: genes 16 Torsion [N]-CA--C-[N] |==|  0.64935
USER: genes 17 Torsion [C]-N--CA-[CB] |==|  0.18744
USER: genes 18 Torsion [N]-CA--C-[O] |==|  0.27424
ROOT
ATOM      1  C   LYS E 802      -7.434  25.479  36.384  1.00 51.37 LIG 0.24  C 
ATOM      2 O    LYS E 802      -8.198  25.149  37.285  1.00 54.76 LIG-0.27  OA
ATOM      3  N   ALA E 803      -6.230  26.003  36.608  1.00 53.01 LIG-0.35  N 
ATOM      4 H    ALA E 803      -5.670  26.170  35.977  1.00 53.01 LIG 0.16  HD
ENDROOT
BRANCH 1 5
ATOM      5  CA  LYS E 802      -7.837  25.310  34.915  1.00 50.80 LIG 0.18  C 
BRANCH 5 6
ATOM      6  CB  LYS E 802      -8.387  26.657  34.442  1.00 49.65 LIG 0.04  C 
BRANCH 6 7
ATOM      7  CG  LYS E 802      -8.719  27.628  35.535  1.00 48.72 LIG 0.00  C 
BRANCH 7 8
ATOM      8  CD  LYS E 802      -8.032  28.949  35.278  1.00 52.85 LIG 0.03  C 
BRANCH 8 9
ATOM      9  CE  LYS E 802      -7.558  29.572  36.569  1.00 52.25 LIG 0.23  C 
BRANCH 9 10
ATOM     10  NZ  LYS E 802      -6.090  29.430  36.729  1.00 53.26 LIG-0.08  N 
ATOM     11 HZ1  LYS E 802      -5.788  28.816  36.160  1.00 53.26 LIG 0.27  HD
ATOM     12 HZ2  LYS E 802      -5.696  30.210  36.559  1.00 53.26 LIG 0.27  HD
ATOM     13 HZ3  LYS E 802      -5.905  29.179  37.562  1.00 53.26 LIG 0.27  HD
ENDBRANCH 9 10
ENDBRANCH 8 9
ENDBRANCH 7 8
ENDBRANCH 6 7
ENDBRANCH 5 6
BRANCH 5 14
ATOM     14  N   LYS E 802      -8.786  24.268  34.522  1.00 51.06 LIG-0.35  N 
ATOM     15 H    LYS E 802      -8.488  23.687  33.962  1.00 51.06 LIG 0.16  HD
ATOM     16  C   ALA E 801     -10.020  24.279  35.039  1.00 50.59 LIG 0.25  C 
ATOM     17 O    ALA E 801     -10.414  25.171  35.793  1.00 51.18 LIG-0.27  OA
BRANCH 16 18
ATOM     18  CA  ALA E 801     -10.973  23.158  34.645  1.00 50.00 LIG 0.27  C 
ATOM     19  CB  ALA E 801     -12.395  23.719  34.476  1.00 45.45 LIG 0.05  C 
BRANCH 18 20
ATOM     20  N   ALA E 801     -10.974  22.084  35.669  1.00 50.21 LIG-0.07  N 
ATOM     21 H3   ALA E 801     -11.485  22.328  36.355  1.00 50.21 LIG 0.28  HD
ATOM     22 H2   ALA E 801     -10.142  21.945  35.954  1.00 50.21 LIG 0.28  HD
ATOM     23 H1   ALA E 801     -11.295  21.335  35.313  1.00 50.21 LIG 0.28  HD
ENDBRANCH 18 20
ENDBRANCH 16 18
ENDBRANCH 5 14
ENDBRANCH 1 5
BRANCH 3 24
ATOM     24  CA  ALA E 803      -5.725  26.352  37.944  1.00 57.29 LIG 0.17  C 
ATOM     25  CB  ALA E 803      -4.384  27.075  37.785  1.00 55.60 LIG 0.04  C 
BRANCH 24 26
ATOM     26  C   ALA E 803      -6.516  27.068  39.039  1.00 59.81 LIG 0.24  C 
ATOM     27 O    ALA E 803      -6.421  28.276  39.243  1.00 62.26 LIG-0.27  OA
ATOM     28  N   ILE E 804      -7.263  26.240  39.768  1.00 62.20 LIG-0.35  N 
ATOM     29 H    ILE E 804      -7.300  25.399  39.594  1.00 62.20 LIG 0.16  HD
BRANCH 28 30
ATOM     30  CA  ILE E 804      -8.096  26.599  40.916  1.00 63.57 LIG 0.18  C 
BRANCH 30 31
ATOM     31  CB  ILE E 804      -9.610  26.516  40.612  1.00 63.71 LIG 0.01  C 
ATOM     32  CG2 ILE E 804     -10.075  27.796  39.932  1.00 63.48 LIG 0.01  C 
BRANCH 31 33
ATOM     33  CG1 ILE E 804      -9.909  25.320  39.712  1.00 63.94 LIG 0.00  C 
ATOM     34  CD1 ILE E 804     -11.082  25.527  38.808  1.00 63.94 LIG 0.01  C 
ENDBRANCH 31 33
ENDBRANCH 30 31
BRANCH 30 35
ATOM     35  C   ILE E 804      -7.763  25.516  41.945  1.00 65.71 LIG 0.24  C 
ATOM     36  N   ALA E 805      -8.782  24.837  42.463  1.00 67.46 LIG-0.35  N 
ATOM     37 H    ALA E 805      -9.606  24.968  42.254  1.00 67.46 LIG 0.16  HD
ATOM     38 O    ILE E 804      -6.589  25.310  42.273  1.00 65.35 LIG-0.27  OA
BRANCH 36 39
ATOM     39  CA  ALA E 805      -8.567  23.786  43.456  1.00 69.21 LIG 0.16  C 
ATOM     40  CB  ALA E 805      -8.050  24.396  44.762  1.00 68.65 LIG 0.04  C 
BRANCH 39 41
ATOM     41  C   ALA E 805      -9.845  22.993  43.720  1.00 70.07 LIG 0.22  C 
ATOM     42 O    ALA E 805      -9.976  21.896  43.130  1.00 70.08 LIG-0.29  OA
ENDBRANCH 39 41
ENDBRANCH 36 39
ENDBRANCH 30 35
ENDBRANCH 28 30
ENDBRANCH 24 26
ENDBRANCH 3 24
TORSDOF 17
ENDMDL
MODEL 60
USER: ADFR SOLUTION from run 58
USER: SCORE 11.644202 LL:  -2.408 LR: -10.824 RR:   0.000 FEB:  -5.753
USER: RMSD 9.660953
USER: SEED 57
USER: STATUS no improvement in best 19 clusters for 5 generations
USER: GENES 19
USER: genes 0 Translation |==|  0.38059 0.77072 0.29866
USER: genes 1 Rotation |==|  0.48623 0.49930 0.65533 0.97506
USER: genes 2 Torsion [N]-C--CA-[N] |==|  0.41045
USER: genes 3 Torsion [C]-CA--CB-[CG] |==|  0.41538
USER: genes 4 Torsion [CA]-CB--CG-[CD] |==|  0.30655
USER: genes 5 Torsion [CB]-CG--CD-[CE] |==|  0.16383
USER: genes 6 Torsion [CG]-CD--CE-[NZ] |==|  0.73975
USER: genes 7 Torsion [CD]-CE--NZ-[HZ2] |==|  0.18845
USER: genes 8 Torsion [C]-CA--N-[C] |==|  0.61727
USER: genes 9 Torsion [N]-C--CA-[N] |==|  0.85637
USER: genes 10 Torsion [C]-CA--N-[H1] |==|  0.63499
USER: genes 11 Torsion [C]-N--CA-[CB] |==|  0.21277
USER: genes 12 Torsion [N]-CA--C-[N] |==|  0.52842
USER: genes 13 Torsion [C]-N--CA-[CB] |==|  0.50566
USER: genes 14 Torsion [N]-CA--CB-[CG1] |==|  0.49047
USER: genes 15 Torsion [CA]-CB--CG1-[CD1] |==|  0.17664
USER: genes 16 Torsion [N]-CA--C-[N] |==|  0.40060
USER: genes 17 Torsion [C]-N--CA-[CB] |==|  0.30397
USER: genes 18 Torsion [N]-CA--C-[O] |==|  0.07373
ROOT
ATOM      1  C   LYS E 802     -16.422  29.682  28.440  1.00 51.37 LIG 0.24  C 
ATOM      2 O    LYS E 802     -17.139  29.818  27.453  1.00 54.76 LIG-0.27  OA
ATOM      3  N   ALA E 803     -16.055  28.493  28.913  1.00 53.01 LIG-0.35  N 
ATOM      4 H    ALA E 803     -15.498  28.401  29.562  1.00 53.01 LIG 0.16  HD
ENDROOT
BRANCH 1 5
ATOM      5  CA  LYS E 802     -15.905  30.905  29.205  1.00 50.80 LIG 0.18  C 
BRANCH 5 6
ATOM      6  CB  LYS E 802     -16.921  31.209  30.307  1.00 49.65 LIG 0.04  C 
BRANCH 6 7
ATOM      7  CG  LYS E 802     -16.348  31.827  31.548  1.00 48.72 LIG 0.00  C 
BRANCH 7 8
ATOM      8  CD  LYS E 802     -16.798  33.265  31.662  1.00 52.85 LIG 0.03  C 
BRANCH 8 9
ATOM      9  CE  LYS E 802     -18.304  33.359  31.708  1.00 52.25 LIG 0.23  C 
BRANCH 9 10
ATOM     10  NZ  LYS E 802     -18.871  33.578  30.355  1.00 53.26 LIG-0.08  N 
ATOM     11 HZ1  LYS E 802     -18.466  34.272  29.972  1.00 53.26 LIG 0.27  HD
ATOM     12 HZ2  LYS E 802     -18.744  32.851  29.858  1.00 53.26 LIG 0.27  HD
ATOM     13 HZ3  LYS E 802     -19.743  33.743  30.422  1.00 53.26 LIG 0.27  HD
ENDBRANCH 9 10
ENDBRANCH 8 9
ENDBRANCH 7 8
ENDBRANCH 6 7
ENDBRANCH 5 6
BRANCH 5 14
ATOM     14  N   LYS E 802     -15.613  32.153  28.498  1.00 51.06 LIG-0.35  N 
ATOM     15 H    LYS E 802     -16.187  32.384  27.902  1.00 51.06 LIG 0.16  HD
ATOM     16  C   ALA E 801     -14.507  32.838  28.812  1.00 50.59 LIG 0.25  C 
ATOM     17 O    ALA E 801     -13.686  32.430  29.635  1.00 51.18 LIG-0.27  OA
BRANCH 16 18
ATOM     18  CA  ALA E 801     -14.250  34.155  28.091  1.00 50.00 LIG 0.27  C 
ATOM     19  CB  ALA E 801     -15.270  35.209  28.552  1.00 45.45 LIG 0.05  C 
BRANCH 18 20
ATOM     20  N   ALA E 801     -14.340  33.975  26.621  1.00 50.21 LIG-0.07  N 
ATOM     21 H3   ALA E 801     -15.080  34.366  26.319  1.00 50.21 LIG 0.28  HD
ATOM     22 H2   ALA E 801     -14.364  33.106  26.428  1.00 50.21 LIG 0.28  HD
ATOM     23 H1   ALA E 801     -13.630  34.346  26.232  1.00 50.21 LIG 0.28  HD
ENDBRANCH 18 20
ENDBRANCH 16 18
ENDBRANCH 5 14
ENDBRANCH 1 5
BRANCH 3 24
ATOM     24  CA  ALA E 803     -16.553  27.213  28.386  1.00 57.29 LIG 0.17  C 
ATOM     25  CB  ALA E 803     -15.837  26.918  27.065  1.00 55.60 LIG 0.04  C 
BRANCH 24 26
ATOM     26  C   ALA E 803     -16.653  25.903  29.168  1.00 59.81 LIG 0.24  C 
ATOM     27 O    ALA E 803     -16.445  25.837  30.377  1.00 62.26 LIG-0.27  OA
ATOM     28  N   ILE E 804     -16.931  24.855  28.395  1.00 62.20 LIG-0.35  N 
ATOM     29 H    ILE E 804     -17.067  24.944  27.551  1.00 62.20 LIG 0.16  HD
BRANCH 28 30
ATOM     30  CA  ILE E 804     -17.047  23.461  28.825  1.00 63.57 LIG 0.18  C 
BRANCH 30 31
ATOM     31  CB  ILE E 804     -17.332  22.491  27.655  1.00 63.71 LIG 0.01  C 
ATOM     32  CG2 ILE E 804     -16.266  22.644  26.580  1.00 63.48 LIG 0.01  C 
BRANCH 31 33
ATOM     33  CG1 ILE E 804     -17.358  21.047  28.151  1.00 63.94 LIG 0.00  C 
ATOM     34  CD1 ILE E 804     -18.455  20.767  29.128  1.00 63.94 LIG 0.01  C 
ENDBRANCH 31 33
ENDBRANCH 30 31
BRANCH 30 35
ATOM     35  C   ILE E 804     -15.651  23.144  29.369  1.00 65.71 LIG 0.24  C 
ATOM     36  N   ALA E 805     -15.579  22.336  30.423  1.00 67.46 LIG-0.35  N 
ATOM     37 H    ALA E 805     -16.262  21.984  30.809  1.00 67.46 LIG 0.16  HD
ATOM     38 O    ILE E 804     -14.651  23.642  28.841  1.00 65.35 LIG-0.27  OA
BRANCH 36 39
ATOM     39  CA  ALA E 805     -14.293  21.978  31.017  1.00 69.21 LIG 0.16  C 
ATOM     40  CB  ALA E 805     -14.140  22.652  32.383  1.00 68.65 LIG 0.04  C 
BRANCH 39 41
ATOM     41  C   ALA E 805     -14.144  20.464  31.161  1.00 70.07 LIG 0.22  C 
ATOM     42 O    ALA E 805     -14.787  19.742  30.366  1.00 70.08 LIG-0.29  OA
ENDBRANCH 39 41
ENDBRANCH 36 39
ENDBRANCH 30 35
ENDBRANCH 28 30
ENDBRANCH 24 26
ENDBRANCH 3 24
TORSDOF 17
ENDMDL
MODEL 61
USER: ADFR SOLUTION from run 140
USER: SCORE 11.643543 LL:  -2.178 LR: -10.798 RR:   0.000 FEB:  -5.727
USER: RMSD 10.268236
USER: SEED 139
USER: STATUS no improvement in best 10 clusters for 5 generations
USER: GENES 19
USER: genes 0 Translation |==|  0.51237 0.49402 0.48431
USER: genes 1 Rotation |==|  0.11149 0.60379 0.79643 0.52039
USER: genes 2 Torsion [N]-C--CA-[N] |==|  0.47122
USER: genes 3 Torsion [C]-CA--CB-[CG] |==|  0.25710
USER: genes 4 Torsion [CA]-CB--CG-[CD] |==|  0.09066
USER: genes 5 Torsion [CB]-CG--CD-[CE] |==|  0.38577
USER: genes 6 Torsion [CG]-CD--CE-[NZ] |==|  0.82640
USER: genes 7 Torsion [CD]-CE--NZ-[HZ2] |==|  0.01443
USER: genes 8 Torsion [C]-CA--N-[C] |==|  0.64857
USER: genes 9 Torsion [N]-C--CA-[N] |==|  0.03330
USER: genes 10 Torsion [C]-CA--N-[H1] |==|  0.68773
USER: genes 11 Torsion [C]-N--CA-[CB] |==|  0.82079
USER: genes 12 Torsion [N]-CA--C-[N] |==|  0.45418
USER: genes 13 Torsion [C]-N--CA-[CB] |==|  0.25555
USER: genes 14 Torsion [N]-CA--CB-[CG1] |==|  0.87197
USER: genes 15 Torsion [CA]-CB--CG1-[CD1] |==|  0.45307
USER: genes 16 Torsion [N]-CA--C-[N] |==|  0.38188
USER: genes 17 Torsion [C]-N--CA-[CB] |==|  0.16633
USER: genes 18 Torsion [N]-CA--C-[O] |==|  0.34636
ROOT
ATOM      1  C   LYS E 802     -12.469  21.381  34.009  1.00 51.37 LIG 0.24  C 
ATOM      2 O    LYS E 802     -11.916  20.682  34.853  1.00 54.76 LIG-0.27  OA
ATOM      3  N   ALA E 803     -12.476  22.711  34.058  1.00 53.01 LIG-0.35  N 
ATOM      4 H    ALA E 803     -12.804  23.199  33.430  1.00 53.01 LIG 0.16  HD
ENDROOT
BRANCH 1 5
ATOM      5  CA  LYS E 802     -13.207  20.742  32.827  1.00 50.80 LIG 0.18  C 
BRANCH 5 6
ATOM      6  CB  LYS E 802     -14.694  21.053  33.004  1.00 49.65 LIG 0.04  C 
BRANCH 6 7
ATOM      7  CG  LYS E 802     -15.170  22.296  32.313  1.00 48.72 LIG 0.00  C 
BRANCH 7 8
ATOM      8  CD  LYS E 802     -14.388  22.508  31.037  1.00 52.85 LIG 0.03  C 
BRANCH 8 9
ATOM      9  CE  LYS E 802     -15.293  22.967  29.918  1.00 52.25 LIG 0.23  C 
BRANCH 9 10
ATOM     10  NZ  LYS E 802     -16.316  21.941  29.599  1.00 53.26 LIG-0.08  N 
ATOM     11 HZ1  LYS E 802     -16.180  21.632  28.775  1.00 53.26 LIG 0.27  HD
ATOM     12 HZ2  LYS E 802     -16.255  21.270  30.180  1.00 53.26 LIG 0.27  HD
ATOM     13 HZ3  LYS E 802     -17.126  22.304  29.649  1.00 53.26 LIG 0.27  HD
ENDBRANCH 9 10
ENDBRANCH 8 9
ENDBRANCH 7 8
ENDBRANCH 6 7
ENDBRANCH 5 6
BRANCH 5 14
ATOM     14  N   LYS E 802     -13.071  19.311  32.554  1.00 51.06 LIG-0.35  N 
ATOM     15 H    LYS E 802     -13.243  18.789  33.215  1.00 51.06 LIG 0.16  HD
ATOM     16  C   ALA E 801     -12.699  18.912  31.331  1.00 50.59 LIG 0.25  C 
ATOM     17 O    ALA E 801     -12.407  19.705  30.435  1.00 51.18 LIG-0.27  OA
BRANCH 16 18
ATOM     18  CA  ALA E 801     -12.607  17.415  31.063  1.00 50.00 LIG 0.27  C 
ATOM     19  CB  ALA E 801     -13.299  17.081  29.731  1.00 45.45 LIG 0.05  C 
BRANCH 18 20
ATOM     20  N   ALA E 801     -13.234  16.644  32.164  1.00 50.21 LIG-0.07  N 
ATOM     21 H3   ALA E 801     -13.827  16.073  31.827  1.00 50.21 LIG 0.28  HD
ATOM     22 H2   ALA E 801     -13.644  17.202  32.722  1.00 50.21 LIG 0.28  HD
ATOM     23 H1   ALA E 801     -12.606  16.192  32.605  1.00 50.21 LIG 0.28  HD
ENDBRANCH 18 20
ENDBRANCH 16 18
ENDBRANCH 5 14
ENDBRANCH 1 5
BRANCH 3 24
ATOM     24  CA  ALA E 803     -11.929  23.492  35.178  1.00 57.29 LIG 0.17  C 
ATOM     25  CB  ALA E 803     -12.759  23.193  36.430  1.00 55.60 LIG 0.04  C 
BRANCH 24 26
ATOM     26  C   ALA E 803     -10.459  23.552  35.592  1.00 59.81 LIG 0.24  C 
ATOM     27 O    ALA E 803      -9.640  22.702  35.249  1.00 62.26 LIG-0.27  OA
ATOM     28  N   ILE E 804     -10.185  24.579  36.394  1.00 62.20 LIG-0.35  N 
ATOM     29 H    ILE E 804     -10.789  25.151  36.612  1.00 62.20 LIG 0.16  HD
BRANCH 28 30
ATOM     30  CA  ILE E 804      -8.890  24.889  37.002  1.00 63.57 LIG 0.18  C 
BRANCH 30 31
ATOM     31  CB  ILE E 804      -8.036  25.850  36.142  1.00 63.71 LIG 0.01  C 
ATOM     32  CG2 ILE E 804      -6.606  25.881  36.662  1.00 63.48 LIG 0.01  C 
BRANCH 31 33
ATOM     33  CG1 ILE E 804      -8.041  25.408  34.681  1.00 63.94 LIG 0.00  C 
ATOM     34  CD1 ILE E 804      -7.590  26.471  33.731  1.00 63.94 LIG 0.01  C 
ENDBRANCH 31 33
ENDBRANCH 30 31
BRANCH 30 35
ATOM     35  C   ILE E 804      -9.273  25.624  38.289  1.00 65.71 LIG 0.24  C 
ATOM     36  N   ALA E 805      -8.598  25.310  39.391  1.00 67.46 LIG-0.35  N 
ATOM     37 H    ALA E 805      -7.965  24.727  39.420  1.00 67.46 LIG 0.16  HD
ATOM     38 O    ILE E 804     -10.184  26.460  38.280  1.00 65.35 LIG-0.27  OA
BRANCH 36 39
ATOM     39  CA  ALA E 805      -8.892  25.953  40.670  1.00 69.21 LIG 0.16  C 
ATOM     40  CB  ALA E 805     -10.346  25.687  41.068  1.00 68.65 LIG 0.04  C 
BRANCH 39 41
ATOM     41  C   ALA E 805      -7.951  25.469  41.771  1.00 70.07 LIG 0.22  C 
ATOM     42 O    ALA E 805      -7.302  26.336  42.399  1.00 70.08 LIG-0.29  OA
ENDBRANCH 39 41
ENDBRANCH 36 39
ENDBRANCH 30 35
ENDBRANCH 28 30
ENDBRANCH 24 26
ENDBRANCH 3 24
TORSDOF 17
ENDMDL
MODEL 62
USER: ADFR SOLUTION from run 57
USER: SCORE 11.395633 LL:  -2.244 LR: -10.787 RR:   0.000 FEB:  -5.716
USER: RMSD 10.847115
USER: SEED 56
USER: STATUS no improvement in best 9 clusters for 5 generations
USER: GENES 19
USER: genes 0 Translation |==|  0.38765 0.78456 0.32948
USER: genes 1 Rotation |==|  0.17693 0.22581 0.39128 0.74213
USER: genes 2 Torsion [N]-C--CA-[N] |==|  0.82624
USER: genes 3 Torsion [C]-CA--CB-[CG] |==|  0.67869
USER: genes 4 Torsion [CA]-CB--CG-[CD] |==|  0.42386
USER: genes 5 Torsion [CB]-CG--CD-[CE] |==|  0.67505
USER: genes 6 Torsion [CG]-CD--CE-[NZ] |==|  0.99003
USER: genes 7 Torsion [CD]-CE--NZ-[HZ2] |==|  0.48195
USER: genes 8 Torsion [C]-CA--N-[C] |==|  0.61714
USER: genes 9 Torsion [N]-C--CA-[N] |==|  0.77696
USER: genes 10 Torsion [C]-CA--N-[H1] |==|  0.34631
USER: genes 11 Torsion [C]-N--CA-[CB] |==|  0.76942
USER: genes 12 Torsion [N]-CA--C-[N] |==|  0.51511
USER: genes 13 Torsion [C]-N--CA-[CB] |==|  0.50617
USER: genes 14 Torsion [N]-CA--CB-[CG1] |==|  0.77066
USER: genes 15 Torsion [CA]-CB--CG1-[CD1] |==|  0.71751
USER: genes 16 Torsion [N]-CA--C-[N] |==|  0.38552
USER: genes 17 Torsion [C]-N--CA-[CB] |==|  0.85235
USER: genes 18 Torsion [N]-CA--C-[O] |==|  0.62830
ROOT
ATOM      1  C   LYS E 802     -16.210  30.097  29.364  1.00 51.37 LIG 0.24  C 
ATOM      2 O    LYS E 802     -15.579  29.064  29.165  1.00 54.76 LIG-0.27  OA
ATOM      3  N   ALA E 803     -17.540  30.156  29.318  1.00 53.01 LIG-0.35  N 
ATOM      4 H    ALA E 803     -17.982  30.864  29.525  1.00 53.01 LIG 0.16  HD
ENDROOT
BRANCH 1 5
ATOM      5  CA  LYS E 802     -15.484  31.410  29.677  1.00 50.80 LIG 0.18  C 
BRANCH 5 6
ATOM      6  CB  LYS E 802     -15.943  31.858  31.066  1.00 49.65 LIG 0.04  C 
BRANCH 6 7
ATOM      7  CG  LYS E 802     -16.708  33.148  31.098  1.00 48.72 LIG 0.00  C 
BRANCH 7 8
ATOM      8  CD  LYS E 802     -17.647  33.161  32.282  1.00 52.85 LIG 0.03  C 
BRANCH 8 9
ATOM      9  CE  LYS E 802     -19.086  33.232  31.830  1.00 52.25 LIG 0.23  C 
BRANCH 9 10
ATOM     10  NZ  LYS E 802     -19.181  33.357  30.355  1.00 53.26 LIG-0.08  N 
ATOM     11 HZ1  LYS E 802     -18.719  32.700  29.971  1.00 53.26 LIG 0.27  HD
ATOM     12 HZ2  LYS E 802     -20.034  33.302  30.107  1.00 53.26 LIG 0.27  HD
ATOM     13 HZ3  LYS E 802     -18.847  34.141  30.101  1.00 53.26 LIG 0.27  HD
ENDBRANCH 9 10
ENDBRANCH 8 9
ENDBRANCH 7 8
ENDBRANCH 6 7
ENDBRANCH 5 6
BRANCH 5 14
ATOM     14  N   LYS E 802     -15.596  32.553  28.770  1.00 51.06 LIG-0.35  N 
ATOM     15 H    LYS E 802     -16.383  32.703  28.458  1.00 51.06 LIG 0.16  HD
ATOM     16  C   ALA E 801     -14.503  33.274  28.490  1.00 50.59 LIG 0.25  C 
ATOM     17 O    ALA E 801     -13.387  32.978  28.918  1.00 51.18 LIG-0.27  OA
BRANCH 16 18
ATOM     18  CA  ALA E 801     -14.657  34.483  27.577  1.00 50.00 LIG 0.27  C 
ATOM     19  CB  ALA E 801     -15.943  35.246  27.934  1.00 45.45 LIG 0.05  C 
BRANCH 18 20
ATOM     20  N   ALA E 801     -14.697  34.066  26.153  1.00 50.21 LIG-0.07  N 
ATOM     21 H3   ALA E 801     -14.692  33.178  26.104  1.00 50.21 LIG 0.28  HD
ATOM     22 H2   ALA E 801     -13.985  34.390  25.728  1.00 50.21 LIG 0.28  HD
ATOM     23 H1   ALA E 801     -15.438  34.379  25.773  1.00 50.21 LIG 0.28  HD
ENDBRANCH 18 20
ENDBRANCH 16 18
ENDBRANCH 5 14
ENDBRANCH 1 5
BRANCH 3 24
ATOM     24  CA  ALA E 803     -18.396  29.031  28.913  1.00 57.29 LIG 0.17  C 
ATOM     25  CB  ALA E 803     -18.468  29.000  27.384  1.00 55.60 LIG 0.04  C 
BRANCH 24 26
ATOM     26  C   ALA E 803     -18.269  27.589  29.406  1.00 59.81 LIG 0.24  C 
ATOM     27 O    ALA E 803     -17.444  27.249  30.251  1.00 62.26 LIG-0.27  OA
ATOM     28  N   ILE E 804     -19.101  26.752  28.789  1.00 62.20 LIG-0.35  N 
ATOM     29 H    ILE E 804     -19.662  27.031  28.200  1.00 62.20 LIG 0.16  HD
BRANCH 28 30
ATOM     30  CA  ILE E 804     -19.195  25.306  28.995  1.00 63.57 LIG 0.18  C 
BRANCH 30 31
ATOM     31  CB  ILE E 804     -20.235  24.632  28.070  1.00 63.71 LIG 0.01  C 
ATOM     32  CG2 ILE E 804     -19.896  23.159  27.892  1.00 63.48 LIG 0.01  C 
BRANCH 31 33
ATOM     33  CG1 ILE E 804     -21.638  24.769  28.655  1.00 63.94 LIG 0.00  C 
ATOM     34  CD1 ILE E 804     -22.131  23.528  29.327  1.00 63.94 LIG 0.01  C 
ENDBRANCH 31 33
ENDBRANCH 30 31
BRANCH 30 35
ATOM     35  C   ILE E 804     -17.808  24.803  28.588  1.00 65.71 LIG 0.24  C 
ATOM     36  N   ALA E 805     -17.260  23.857  29.346  1.00 67.46 LIG-0.35  N 
ATOM     37 H    ALA E 805     -17.636  23.515  30.040  1.00 67.46 LIG 0.16  HD
ATOM     38 O    ILE E 804     -17.237  25.281  27.602  1.00 65.35 LIG-0.27  OA
BRANCH 36 39
ATOM     39  CA  ALA E 805     -15.937  23.314  29.043  1.00 69.21 LIG 0.16  C 
ATOM     40  CB  ALA E 805     -15.888  22.833  27.590  1.00 68.65 LIG 0.04  C 
BRANCH 39 41
ATOM     41  C   ALA E 805     -14.837  24.345  29.290  1.00 70.07 LIG 0.22  C 
ATOM     42 O    ALA E 805     -13.961  24.478  28.405  1.00 70.08 LIG-0.29  OA
ENDBRANCH 39 41
ENDBRANCH 36 39
ENDBRANCH 30 35
ENDBRANCH 28 30
ENDBRANCH 24 26
ENDBRANCH 3 24
TORSDOF 17
ENDMDL
MODEL 63
USER: ADFR SOLUTION from run 124
USER: SCORE 11.900772 LL:  -2.549 LR: -10.775 RR:   0.000 FEB:  -5.704
USER: RMSD 8.316085
USER: SEED 123
USER: STATUS no improvement in best 4 clusters for 5 generations
USER: GENES 19
USER: genes 0 Translation |==|  0.41807 0.56929 0.32010
USER: genes 1 Rotation |==|  0.40422 0.07394 0.73419 0.56676
USER: genes 2 Torsion [N]-C--CA-[N] |==|  0.44758
USER: genes 3 Torsion [C]-CA--CB-[CG] |==|  0.28458
USER: genes 4 Torsion [CA]-CB--CG-[CD] |==|  0.14452
USER: genes 5 Torsion [CB]-CG--CD-[CE] |==|  0.38789
USER: genes 6 Torsion [CG]-CD--CE-[NZ] |==|  0.74333
USER: genes 7 Torsion [CD]-CE--NZ-[HZ2] |==|  0.86982
USER: genes 8 Torsion [C]-CA--N-[C] |==|  0.81536
USER: genes 9 Torsion [N]-C--CA-[N] |==|  0.23516
USER: genes 10 Torsion [C]-CA--N-[H1] |==|  0.69975
USER: genes 11 Torsion [C]-N--CA-[CB] |==|  0.20556
USER: genes 12 Torsion [N]-CA--C-[N] |==|  0.06173
USER: genes 13 Torsion [C]-N--CA-[CB] |==|  0.87635
USER: genes 14 Torsion [N]-CA--CB-[CG1] |==|  0.83919
USER: genes 15 Torsion [CA]-CB--CG1-[CD1] |==|  0.64309
USER: genes 16 Torsion [N]-CA--C-[N] |==|  0.77254
USER: genes 17 Torsion [C]-N--CA-[CB] |==|  0.26774
USER: genes 18 Torsion [N]-CA--C-[O] |==|  0.96766
ROOT
ATOM      1  C   LYS E 802     -15.298  23.639  29.083  1.00 51.37 LIG 0.24  C 
ATOM      2 O    LYS E 802     -14.357  24.426  29.070  1.00 54.76 LIG-0.27  OA
ATOM      3  N   ALA E 803     -15.337  22.565  29.870  1.00 53.01 LIG-0.35  N 
ATOM      4 H    ALA E 803     -16.026  22.054  29.928  1.00 53.01 LIG 0.16  HD
ENDROOT
BRANCH 1 5
ATOM      5  CA  LYS E 802     -16.508  23.850  28.165  1.00 50.80 LIG 0.18  C 
BRANCH 5 6
ATOM      6  CB  LYS E 802     -16.391  22.835  27.027  1.00 49.65 LIG 0.04  C 
BRANCH 6 7
ATOM      7  CG  LYS E 802     -17.284  21.636  27.149  1.00 48.72 LIG 0.00  C 
BRANCH 7 8
ATOM      8  CD  LYS E 802     -18.711  22.079  27.378  1.00 52.85 LIG 0.03  C 
BRANCH 8 9
ATOM      9  CE  LYS E 802     -19.675  21.223  26.592  1.00 52.25 LIG 0.23  C 
BRANCH 9 10
ATOM     10  NZ  LYS E 802     -19.965  21.818  25.265  1.00 53.26 LIG-0.08  N 
ATOM     11 HZ1  LYS E 802     -20.668  21.410  24.903  1.00 53.26 LIG 0.27  HD
ATOM     12 HZ2  LYS E 802     -20.144  22.685  25.361  1.00 53.26 LIG 0.27  HD
ATOM     13 HZ3  LYS E 802     -19.258  21.718  24.734  1.00 53.26 LIG 0.27  HD
ENDBRANCH 9 10
ENDBRANCH 8 9
ENDBRANCH 7 8
ENDBRANCH 6 7
ENDBRANCH 5 6
BRANCH 5 14
ATOM     14  N   LYS E 802     -16.772  25.164  27.578  1.00 51.06 LIG-0.35  N 
ATOM     15 H    LYS E 802     -16.692  25.211  26.723  1.00 51.06 LIG 0.16  HD
ATOM     16  C   ALA E 801     -17.112  26.181  28.379  1.00 50.59 LIG 0.25  C 
ATOM     17 O    ALA E 801     -17.154  26.073  29.606  1.00 51.18 LIG-0.27  OA
BRANCH 16 18
ATOM     18  CA  ALA E 801     -17.423  27.527  27.737  1.00 50.00 LIG 0.27  C 
ATOM     19  CB  ALA E 801     -17.148  28.659  28.741  1.00 45.45 LIG 0.05  C 
BRANCH 18 20
ATOM     20  N   ALA E 801     -18.837  27.582  27.290  1.00 50.21 LIG-0.07  N 
ATOM     21 H3   ALA E 801     -19.206  28.342  27.568  1.00 50.21 LIG 0.28  HD
ATOM     22 H2   ALA E 801     -19.284  26.892  27.632  1.00 50.21 LIG 0.28  HD
ATOM     23 H1   ALA E 801     -18.869  27.546  26.401  1.00 50.21 LIG 0.28  HD
ENDBRANCH 18 20
ENDBRANCH 16 18
ENDBRANCH 5 14
ENDBRANCH 1 5
BRANCH 3 24
ATOM     24  CA  ALA E 803     -14.218  22.135  30.723  1.00 57.29 LIG 0.17  C 
ATOM     25  CB  ALA E 803     -14.125  23.086  31.920  1.00 55.60 LIG 0.04  C 
BRANCH 24 26
ATOM     26  C   ALA E 803     -13.978  20.714  31.232  1.00 59.81 LIG 0.24  C 
ATOM     27 O    ALA E 803     -13.261  20.470  32.200  1.00 62.26 LIG-0.27  OA
ATOM     28  N   ILE E 804     -14.579  19.786  30.490  1.00 62.20 LIG-0.35  N 
ATOM     29 H    ILE E 804     -15.072  19.999  29.818  1.00 62.20 LIG 0.16  HD
BRANCH 28 30
ATOM     30  CA  ILE E 804     -14.508  18.336  30.681  1.00 63.57 LIG 0.18  C 
BRANCH 30 31
ATOM     31  CB  ILE E 804     -13.073  17.836  30.964  1.00 63.71 LIG 0.01  C 
ATOM     32  CG2 ILE E 804     -13.073  16.322  31.128  1.00 63.48 LIG 0.01  C 
BRANCH 31 33
ATOM     33  CG1 ILE E 804     -12.135  18.228  29.826  1.00 63.94 LIG 0.00  C 
ATOM     34  CD1 ILE E 804     -11.340  17.085  29.282  1.00 63.94 LIG 0.01  C 
ENDBRANCH 31 33
ENDBRANCH 30 31
BRANCH 30 35
ATOM     35  C   ILE E 804     -15.345  18.106  31.941  1.00 65.71 LIG 0.24  C 
ATOM     36  N   ALA E 805     -14.748  18.313  33.112  1.00 67.46 LIG-0.35  N 
ATOM     37 H    ALA E 805     -13.931  18.567  33.199  1.00 67.46 LIG 0.16  HD
ATOM     38 O    ILE E 804     -16.519  17.732  31.849  1.00 65.35 LIG-0.27  OA
BRANCH 36 39
ATOM     39  CA  ALA E 805     -15.461  18.116  34.373  1.00 69.21 LIG 0.16  C 
ATOM     40  CB  ALA E 805     -15.164  16.722  34.932  1.00 68.65 LIG 0.04  C 
BRANCH 39 41
ATOM     41  C   ALA E 805     -15.088  19.183  35.401  1.00 70.07 LIG 0.22  C 
ATOM     42 O    ALA E 805     -14.104  19.913  35.144  1.00 70.08 LIG-0.29  OA
ENDBRANCH 39 41
ENDBRANCH 36 39
ENDBRANCH 30 35
ENDBRANCH 28 30
ENDBRANCH 24 26
ENDBRANCH 3 24
TORSDOF 17
ENDMDL
MODEL 64
USER: ADFR SOLUTION from run 72
USER: SCORE 11.348237 LL:  -1.513 LR: -10.734 RR:   0.000 FEB:  -5.663
USER: RMSD 10.207129
USER: SEED 71
USER: STATUS no improvement in best 12 clusters for 5 generations
USER: GENES 19
USER: genes 0 Translation |==|  0.44531 0.62468 0.39862
USER: genes 1 Rotation |==|  0.24020 0.39811 0.91120 0.55511
USER: genes 2 Torsion [N]-C--CA-[N] |==|  0.28478
USER: genes 3 Torsion [C]-CA--CB-[CG] |==|  0.68259
USER: genes 4 Torsion [CA]-CB--CG-[CD] |==|  0.70599
USER: genes 5 Torsion [CB]-CG--CD-[CE] |==|  0.44590
USER: genes 6 Torsion [CG]-CD--CE-[NZ] |==|  0.42801
USER: genes 7 Torsion [CD]-CE--NZ-[HZ2] |==|  0.94928
USER: genes 8 Torsion [C]-CA--N-[C] |==|  0.75118
USER: genes 9 Torsion [N]-C--CA-[N] |==|  0.06725
USER: genes 10 Torsion [C]-CA--N-[H1] |==|  0.94616
USER: genes 11 Torsion [C]-N--CA-[CB] |==|  0.60467
USER: genes 12 Torsion [N]-CA--C-[N] |==|  0.66595
USER: genes 13 Torsion [C]-N--CA-[CB] |==|  0.84043
USER: genes 14 Torsion [N]-CA--CB-[CG1] |==|  0.85186
USER: genes 15 Torsion [CA]-CB--CG1-[CD1] |==|  0.65929
USER: genes 16 Torsion [N]-CA--C-[N] |==|  0.34444
USER: genes 17 Torsion [C]-N--CA-[CB] |==|  0.82811
USER: genes 18 Torsion [N]-CA--C-[O] |==|  0.73699
ROOT
ATOM      1  C   LYS E 802     -14.481  25.300  31.439  1.00 51.37 LIG 0.24  C 
ATOM      2 O    LYS E 802     -13.385  24.801  31.204  1.00 54.76 LIG-0.27  OA
ATOM      3  N   ALA E 803     -14.701  26.120  32.464  1.00 53.01 LIG-0.35  N 
ATOM      4 H    ALA E 803     -15.451  26.523  32.586  1.00 53.01 LIG 0.16  HD
ENDROOT
BRANCH 1 5
ATOM      5  CA  LYS E 802     -15.688  24.993  30.545  1.00 50.80 LIG 0.18  C 
BRANCH 5 6
ATOM      6  CB  LYS E 802     -15.707  23.480  30.319  1.00 49.65 LIG 0.04  C 
BRANCH 6 7
ATOM      7  CG  LYS E 802     -15.464  23.046  28.904  1.00 48.72 LIG 0.00  C 
BRANCH 7 8
ATOM      8  CD  LYS E 802     -16.759  22.579  28.280  1.00 52.85 LIG 0.03  C 
BRANCH 8 9
ATOM      9  CE  LYS E 802     -16.666  22.589  26.773  1.00 52.25 LIG 0.23  C 
BRANCH 9 10
ATOM     10  NZ  LYS E 802     -17.601  21.608  26.169  1.00 53.26 LIG-0.08  N 
ATOM     11 HZ1  LYS E 802     -17.196  21.184  25.500  1.00 53.26 LIG 0.27  HD
ATOM     12 HZ2  LYS E 802     -17.850  21.017  26.786  1.00 53.26 LIG 0.27  HD
ATOM     13 HZ3  LYS E 802     -18.318  22.034  25.860  1.00 53.26 LIG 0.27  HD
ENDBRANCH 9 10
ENDBRANCH 8 9
ENDBRANCH 7 8
ENDBRANCH 6 7
ENDBRANCH 5 6
BRANCH 5 14
ATOM     14  N   LYS E 802     -15.834  25.650  29.245  1.00 51.06 LIG-0.35  N 
ATOM     15 H    LYS E 802     -15.481  25.236  28.579  1.00 51.06 LIG 0.16  HD
ATOM     16  C   ALA E 801     -16.487  26.816  29.172  1.00 50.59 LIG 0.25  C 
ATOM     17 O    ALA E 801     -16.922  27.395  30.168  1.00 51.18 LIG-0.27  OA
BRANCH 16 18
ATOM     18  CA  ALA E 801     -16.661  27.456  27.801  1.00 50.00 LIG 0.27  C 
ATOM     19  CB  ALA E 801     -18.012  28.187  27.734  1.00 45.45 LIG 0.05  C 
BRANCH 18 20
ATOM     20  N   ALA E 801     -16.590  26.431  26.730  1.00 50.21 LIG-0.07  N 
ATOM     21 H3   ALA E 801     -16.124  26.752  26.043  1.00 50.21 LIG 0.28  HD
ATOM     22 H2   ALA E 801     -17.413  26.226  26.460  1.00 50.21 LIG 0.28  HD
ATOM     23 H1   ALA E 801     -16.189  25.701  27.043  1.00 50.21 LIG 0.28  HD
ENDBRANCH 18 20
ENDBRANCH 16 18
ENDBRANCH 5 14
ENDBRANCH 1 5
BRANCH 3 24
ATOM     24  CA  ALA E 803     -13.698  26.430  33.495  1.00 57.29 LIG 0.17  C 
ATOM     25  CB  ALA E 803     -14.407  26.537  34.848  1.00 55.60 LIG 0.04  C 
BRANCH 24 26
ATOM     26  C   ALA E 803     -12.382  25.684  33.713  1.00 59.81 LIG 0.24  C 
ATOM     27 O    ALA E 803     -11.536  25.562  32.829  1.00 62.26 LIG-0.27  OA
ATOM     28  N   ILE E 804     -12.282  25.147  34.927  1.00 62.20 LIG-0.35  N 
ATOM     29 H    ILE E 804     -12.898  25.253  35.516  1.00 62.20 LIG 0.16  HD
BRANCH 28 30
ATOM     30  CA  ILE E 804     -11.174  24.334  35.432  1.00 63.57 LIG 0.18  C 
BRANCH 30 31
ATOM     31  CB  ILE E 804     -10.909  23.077  34.573  1.00 63.71 LIG 0.01  C 
ATOM     32  CG2 ILE E 804      -9.841  22.213  35.229  1.00 63.48 LIG 0.01  C 
BRANCH 31 33
ATOM     33  CG1 ILE E 804     -12.190  22.265  34.401  1.00 63.94 LIG 0.00  C 
ATOM     34  CD1 ILE E 804     -12.075  20.853  34.879  1.00 63.94 LIG 0.01  C 
ENDBRANCH 31 33
ENDBRANCH 30 31
BRANCH 30 35
ATOM     35  C   ILE E 804      -9.966  25.262  35.295  1.00 65.71 LIG 0.24  C 
ATOM     36  N   ALA E 805      -9.256  25.502  36.394  1.00 67.46 LIG-0.35  N 
ATOM     37 H    ALA E 805      -9.434  25.167  37.166  1.00 67.46 LIG 0.16  HD
ATOM     38 O    ILE E 804      -9.690  25.766  34.200  1.00 65.35 LIG-0.27  OA
BRANCH 36 39
ATOM     39  CA  ALA E 805      -8.086  26.378  36.365  1.00 69.21 LIG 0.16  C 
ATOM     40  CB  ALA E 805      -7.020  25.800  35.431  1.00 68.65 LIG 0.04  C 
BRANCH 39 41
ATOM     41  C   ALA E 805      -8.457  27.793  35.924  1.00 70.07 LIG 0.22  C 
ATOM     42 O    ALA E 805      -8.325  28.073  34.711  1.00 70.08 LIG-0.29  OA
ENDBRANCH 39 41
ENDBRANCH 36 39
ENDBRANCH 30 35
ENDBRANCH 28 30
ENDBRANCH 24 26
ENDBRANCH 3 24
TORSDOF 17
ENDMDL
MODEL 65
USER: ADFR SOLUTION from run 75
USER: SCORE 11.187898 LL:  -2.076 LR: -10.734 RR:   0.000 FEB:  -5.662
USER: RMSD 4.369242
USER: SEED 74
USER: STATUS searching
USER: GENES 19
USER: genes 0 Translation |==|  0.51253 0.49929 0.49349
USER: genes 1 Rotation |==|  0.20652 0.18140 0.28461 0.62636
USER: genes 2 Torsion [N]-C--CA-[N] |==|  0.31151
USER: genes 3 Torsion [C]-CA--CB-[CG] |==|  0.54060
USER: genes 4 Torsion [CA]-CB--CG-[CD] |==|  0.64395
USER: genes 5 Torsion [CB]-CG--CD-[CE] |==|  0.50110
USER: genes 6 Torsion [CG]-CD--CE-[NZ] |==|  0.42124
USER: genes 7 Torsion [CD]-CE--NZ-[HZ2] |==|  0.27659
USER: genes 8 Torsion [C]-CA--N-[C] |==|  0.77955
USER: genes 9 Torsion [N]-C--CA-[N] |==|  0.91138
USER: genes 10 Torsion [C]-CA--N-[H1] |==|  0.59760
USER: genes 11 Torsion [C]-N--CA-[CB] |==|  0.54080
USER: genes 12 Torsion [N]-CA--C-[N] |==|  0.52583
USER: genes 13 Torsion [C]-N--CA-[CB] |==|  0.18050
USER: genes 14 Torsion [N]-CA--CB-[CG1] |==|  0.64443
USER: genes 15 Torsion [CA]-CB--CG1-[CD1] |==|  0.07912
USER: genes 16 Torsion [N]-CA--C-[N] |==|  0.46723
USER: genes 17 Torsion [C]-N--CA-[CB] |==|  0.86613
USER: genes 18 Torsion [N]-CA--C-[O] |==|  0.21461
ROOT
ATOM      1  C   LYS E 802     -12.464  21.539  34.285  1.00 51.37 LIG 0.24  C 
ATOM      2 O    LYS E 802     -11.987  20.431  34.515  1.00 54.76 LIG-0.27  OA
ATOM      3  N   ALA E 803     -13.473  21.734  33.439  1.00 53.01 LIG-0.35  N 
ATOM      4 H    ALA E 803     -13.850  22.499  33.331  1.00 53.01 LIG 0.16  HD
ENDROOT
BRANCH 1 5
ATOM      5  CA  LYS E 802     -11.904  22.790  34.971  1.00 50.80 LIG 0.18  C 
BRANCH 5 6
ATOM      6  CB  LYS E 802     -10.406  22.840  34.662  1.00 49.65 LIG 0.04  C 
BRANCH 6 7
ATOM      7  CG  LYS E 802      -9.612  23.786  35.513  1.00 48.72 LIG 0.00  C 
BRANCH 7 8
ATOM      8  CD  LYS E 802      -8.788  24.700  34.635  1.00 52.85 LIG 0.03  C 
BRANCH 8 9
ATOM      9  CE  LYS E 802      -7.971  25.657  35.470  1.00 52.25 LIG 0.23  C 
BRANCH 9 10
ATOM     10  NZ  LYS E 802      -6.728  26.058  34.766  1.00 53.26 LIG-0.08  N 
ATOM     11 HZ1  LYS E 802      -6.538  25.461  34.135  1.00 53.26 LIG 0.27  HD
ATOM     12 HZ2  LYS E 802      -6.843  26.857  34.392  1.00 53.26 LIG 0.27  HD
ATOM     13 HZ3  LYS E 802      -6.057  26.096  35.349  1.00 53.26 LIG 0.27  HD
ENDBRANCH 9 10
ENDBRANCH 8 9
ENDBRANCH 7 8
ENDBRANCH 6 7
ENDBRANCH 5 6
BRANCH 5 14
ATOM     14  N   LYS E 802     -12.078  22.986  36.411  1.00 51.06 LIG-0.35  N 
ATOM     15 H    LYS E 802     -11.395  22.795  36.896  1.00 51.06 LIG 0.16  HD
ATOM     16  C   ALA E 801     -13.251  23.437  36.871  1.00 50.59 LIG 0.25  C 
ATOM     17 O    ALA E 801     -14.219  23.638  36.135  1.00 51.18 LIG-0.27  OA
BRANCH 16 18
ATOM     18  CA  ALA E 801     -13.391  23.672  38.370  1.00 50.00 LIG 0.27  C 
ATOM     19  CB  ALA E 801     -12.974  25.112  38.712  1.00 45.45 LIG 0.05  C 
BRANCH 18 20
ATOM     20  N   ALA E 801     -12.558  22.711  39.133  1.00 50.21 LIG-0.07  N 
ATOM     21 H3   ALA E 801     -11.774  23.086  39.326  1.00 50.21 LIG 0.28  HD
ATOM     22 H2   ALA E 801     -12.424  21.980  38.644  1.00 50.21 LIG 0.28  HD
ATOM     23 H1   ALA E 801     -12.974  22.491  39.888  1.00 50.21 LIG 0.28  HD
ENDBRANCH 18 20
ENDBRANCH 16 18
ENDBRANCH 5 14
ENDBRANCH 1 5
BRANCH 3 24
ATOM     24  CA  ALA E 803     -14.054  20.675  32.599  1.00 57.29 LIG 0.17  C 
ATOM     25  CB  ALA E 803     -14.916  21.329  31.516  1.00 55.60 LIG 0.04  C 
BRANCH 24 26
ATOM     26  C   ALA E 803     -13.284  19.523  31.954  1.00 59.81 LIG 0.24  C 
ATOM     27 O    ALA E 803     -12.096  19.310  32.184  1.00 62.26 LIG-0.27  OA
ATOM     28  N   ILE E 804     -14.019  18.824  31.090  1.00 62.20 LIG-0.35  N 
ATOM     29 H    ILE E 804     -14.848  19.008  30.956  1.00 62.20 LIG 0.16  HD
BRANCH 28 30
ATOM     30  CA  ILE E 804     -13.567  17.696  30.275  1.00 63.57 LIG 0.18  C 
BRANCH 30 31
ATOM     31  CB  ILE E 804     -13.164  16.465  31.120  1.00 63.71 LIG 0.01  C 
ATOM     32  CG2 ILE E 804     -14.169  15.341  30.915  1.00 63.48 LIG 0.01  C 
BRANCH 31 33
ATOM     33  CG1 ILE E 804     -11.769  15.983  30.730  1.00 63.94 LIG 0.00  C 
ATOM     34  CD1 ILE E 804     -10.882  17.068  30.209  1.00 63.94 LIG 0.01  C 
ENDBRANCH 31 33
ENDBRANCH 30 31
BRANCH 30 35
ATOM     35  C   ILE E 804     -14.813  17.324  29.468  1.00 65.71 LIG 0.24  C 
ATOM     36  N   ALA E 805     -14.651  16.479  28.454  1.00 67.46 LIG-0.35  N 
ATOM     37 H    ALA E 805     -13.896  16.132  28.231  1.00 67.46 LIG 0.16  HD
ATOM     38 O    ILE E 804     -15.911  17.814  29.758  1.00 65.35 LIG-0.27  OA
BRANCH 36 39
ATOM     39  CA  ALA E 805     -15.780  16.067  27.622  1.00 69.21 LIG 0.16  C 
ATOM     40  CB  ALA E 805     -16.956  15.642  28.506  1.00 68.65 LIG 0.04  C 
BRANCH 39 41
ATOM     41  C   ALA E 805     -16.214  17.183  26.674  1.00 70.07 LIG 0.22  C 
ATOM     42 O    ALA E 805     -15.514  17.380  25.654  1.00 70.08 LIG-0.29  OA
ENDBRANCH 39 41
ENDBRANCH 36 39
ENDBRANCH 30 35
ENDBRANCH 28 30
ENDBRANCH 24 26
ENDBRANCH 3 24
TORSDOF 17
ENDMDL
