MODEL 1
USER: ADFR SOLUTION from run 143
USER: SCORE 17.447856 LL:  -1.799 LR: -15.946 RR:   0.000 FEB: -10.875
USER: RMSD 1.926407
USER: SEED 142
USER: STATUS 1 or 2 clusters left
USER: GENES 19
USER: genes 0 Translation |==|  0.54610 0.50675 0.52996
USER: genes 1 Rotation |==|  0.52165 0.55029 0.53086 0.99603
USER: genes 2 Torsion [N]-CA--C-[N] |==|  0.46109
USER: genes 3 Torsion [C]-N--CA-[C] |==|  0.71793
USER: genes 4 Torsion [N]-CA--C-[N] |==|  0.44035
USER: genes 5 Torsion [C]-N--CA-[CB] |==|  0.42844
USER: genes 6 Torsion [N]-CA--C-[O] |==|  0.13277
USER: genes 7 Torsion [CA]-C--O-[HO] |==|  0.40891
USER: genes 8 Torsion [N]-CA--CB-[CG] |==|  0.67749
USER: genes 9 Torsion [CA]-CB--CG-[OD1] |==|  0.03393
USER: genes 10 Torsion [N]-CA--CB-[CG1] |==|  0.82268
USER: genes 11 Torsion [C]-CA--CB-[CG] |==|  0.99682
USER: genes 12 Torsion [CA]-CB--CG-[CD] |==|  0.31265
USER: genes 13 Torsion [CB]-CG--CD-[OE1] |==|  0.40617
USER: genes 14 Torsion [C]-CA--N-[C] |==|  0.62643
USER: genes 15 Torsion [N]-C--CA-[N] |==|  0.44325
USER: genes 16 Torsion [C]-CA--N-[C] |==|  0.61259
USER: genes 17 Torsion [C]-CA--CB-[CG] |==|  0.29773
USER: genes 18 Torsion [CA]-CB--CG-[OD1] |==|  0.21492
ROOT
ATOM      1  CA  GLU C 503      40.993  95.652  22.789  1.00 22.23 LIG 0.18  C 
ENDROOT
BRANCH 1 2
ATOM      2  C   GLU C 503      40.266  95.823  21.459  1.00 22.23 LIG 0.24  C 
ATOM      3 O    GLU C 503      39.989  96.949  21.054  1.00 30.39 LIG-0.27  OA
ATOM      4  N   VAL C 504      39.956  94.717  20.785  1.00 14.81 LIG-0.35  N 
ATOM      5 H    VAL C 504      40.134  93.923  21.062  1.00 14.81 LIG 0.16  HD
BRANCH 4 6
ATOM      6  CA  VAL C 504      39.272  94.763  19.490  1.00 14.81 LIG 0.18  C 
BRANCH 6 7
ATOM      7  C   VAL C 504      37.774  94.454  19.570  1.00 14.81 LIG 0.26  C 
ATOM      8 O    VAL C 504      37.321  93.827  20.524  1.00 11.58 LIG-0.27  OA
ATOM      9 N    ASJ C 505      37.022  94.896  18.561  1.00  2.62 LIG-0.25  NA
BRANCH 9 10
ATOM     10  CA  ASJ C 505      35.566  94.701  18.473  1.00  2.62 LIG 0.15  C 
BRANCH 10 11
ATOM     11  C   ASJ C 505      35.206  93.367  17.844  1.00  2.62 LIG 0.17  C 
BRANCH 11 12
ATOM     12 O    ASJ C 505      35.978  92.326  18.458  1.00 19.56 LIG-0.39  OA
ATOM     13 HO   ASJ C 505      35.527  91.617  18.479  1.00 19.56 LIG 0.21  HD
ENDBRANCH 11 12
ENDBRANCH 10 11
BRANCH 10 14
ATOM     14  CB  ASJ C 505      34.930  95.793  17.622  1.00 12.55 LIG 0.14  C 
BRANCH 14 15
ATOM     15  CG  ASJ C 505      33.991  96.654  18.395  1.00 14.75 LIG 0.17  C 
ATOM     16 OD1  ASJ C 505      33.985  96.575  19.640  1.00 17.98 LIG-0.65  OA
ATOM     17 OD2  ASJ C 505      33.235  97.398  17.748  1.00 18.38 LIG-0.65  OA
ENDBRANCH 14 15
ENDBRANCH 10 14
ENDBRANCH 9 10
ENDBRANCH 6 7
BRANCH 6 18
ATOM     18  CB  VAL C 504      39.931  93.805  18.487  1.00 11.58 LIG 0.01  C 
ATOM     19  CG2 VAL C 504      39.907  92.384  19.028  1.00 11.58 LIG 0.01  C 
ATOM     20  CG1 VAL C 504      41.361  94.241  18.197  1.00 11.58 LIG 0.01  C 
ENDBRANCH 6 18
ENDBRANCH 4 6
ENDBRANCH 1 2
BRANCH 1 21
ATOM     21  CB  GLU C 503      40.027  95.129  23.853  1.00 30.39 LIG 0.04  C 
BRANCH 21 22
ATOM     22  CG  GLU C 503      38.606  94.937  23.347  1.00 30.39 LIG 0.12  C 
BRANCH 22 23
ATOM     23  CD  GLU C 503      38.176  93.484  23.292  1.00 30.39 LIG 0.17  C 
ATOM     24 OE1  GLU C 503      36.985  93.185  23.523  1.00 30.39 LIG-0.65  OA
ATOM     25 OE2  GLU C 503      39.035  92.632  22.998  1.00 30.39 LIG-0.65  OA
ENDBRANCH 22 23
ENDBRANCH 21 22
ENDBRANCH 1 21
BRANCH 1 26
ATOM     26  N   GLU C 503      41.527  96.951  23.186  1.00 22.23 LIG-0.35  N 
ATOM     27 H    GLU C 503      40.963  97.594  23.097  1.00 22.23 LIG 0.16  HD
ATOM     28  C   ASP C 502      42.764  97.132  23.644  1.00 15.66 LIG 0.24  C 
ATOM     29 O    ASP C 502      43.592  96.219  23.767  1.00 17.69 LIG-0.27  OA
BRANCH 28 30
ATOM     30  CA  ASP C 502      43.132  98.572  24.000  1.00 16.73 LIG 0.19  C 
BRANCH 30 31
ATOM     31  N   ASP C 502      44.266  98.662  24.907  1.00 28.47 LIG-0.35  N 
ATOM     32 H    ASP C 502      44.900  98.107  24.735  1.00 28.47 LIG 0.16  HD
ATOM     33  C   ACE C 501      44.300  99.533  25.907  1.00  7.47 LIG 0.21  C 
ATOM     34 O    ACE C 501      43.378 100.311  26.157  1.00 12.06 LIG-0.27  OA
ATOM     35  CH3 ACE C 501      45.550  99.528  26.765  1.00  7.47 LIG 0.12  C 
ENDBRANCH 30 31
BRANCH 30 36
ATOM     36  CB  ASP C 502      43.411  99.379  22.728  1.00 14.36 LIG 0.15  C 
BRANCH 36 37
ATOM     37  CG  ASP C 502      42.302 100.373  22.405  1.00 17.50 LIG 0.17  C 
ATOM     38 OD1  ASP C 502      42.229 101.443  23.044  1.00 20.94 LIG-0.65  OA
ATOM     39 OD2  ASP C 502      41.486 100.076  21.514  1.00 19.93 LIG-0.65  OA
ENDBRANCH 36 37
ENDBRANCH 30 36
ENDBRANCH 28 30
ENDBRANCH 1 26
TORSDOF 17
ENDMDL
MODEL 2
USER: ADFR SOLUTION from run 111
USER: SCORE 16.771106 LL:  -1.936 LR: -15.664 RR:   0.000 FEB: -10.593
USER: RMSD 9.357187
USER: SEED 110
USER: STATUS no improvement in best 5 clusters for 5 generations
USER: GENES 19
USER: genes 0 Translation |==|  0.39330 0.43653 0.38750
USER: genes 1 Rotation |==|  0.93816 0.43645 0.27145 0.54171
USER: genes 2 Torsion [N]-CA--C-[N] |==|  0.30818
USER: genes 3 Torsion [C]-N--CA-[C] |==|  0.77370
USER: genes 4 Torsion [N]-CA--C-[N] |==|  0.36917
USER: genes 5 Torsion [C]-N--CA-[CB] |==|  0.39349
USER: genes 6 Torsion [N]-CA--C-[O] |==|  0.14365
USER: genes 7 Torsion [CA]-C--O-[HO] |==|  0.16544
USER: genes 8 Torsion [N]-CA--CB-[CG] |==|  0.62485
USER: genes 9 Torsion [CA]-CB--CG-[OD1] |==|  0.48114
USER: genes 10 Torsion [N]-CA--CB-[CG1] |==|  0.67093
USER: genes 11 Torsion [C]-CA--CB-[CG] |==|  0.36736
USER: genes 12 Torsion [CA]-CB--CG-[CD] |==|  0.62160
USER: genes 13 Torsion [CB]-CG--CD-[OE1] |==|  0.50083
USER: genes 14 Torsion [C]-CA--N-[C] |==|  0.83998
USER: genes 15 Torsion [N]-C--CA-[N] |==|  0.87550
USER: genes 16 Torsion [C]-CA--N-[C] |==|  0.71667
USER: genes 17 Torsion [C]-CA--CB-[CG] |==|  0.79214
USER: genes 18 Torsion [CA]-CB--CG-[OD1] |==|  0.22130
ROOT
ATOM      1  CA  GLU C 503      36.409  93.546  18.515  1.00 22.23 LIG 0.18  C 
ENDROOT
BRANCH 1 2
ATOM      2  C   GLU C 503      37.358  93.602  19.709  1.00 22.23 LIG 0.24  C 
ATOM      3 O    GLU C 503      36.990  93.181  20.802  1.00 30.39 LIG-0.27  OA
ATOM      4  N   VAL C 504      38.567  94.120  19.504  1.00 14.81 LIG-0.35  N 
ATOM      5 H    VAL C 504      38.833  94.428  18.747  1.00 14.81 LIG 0.16  HD
BRANCH 4 6
ATOM      6  CA  VAL C 504      39.565  94.209  20.574  1.00 14.81 LIG 0.18  C 
BRANCH 6 7
ATOM      7  C   VAL C 504      39.372  95.413  21.501  1.00 14.81 LIG 0.26  C 
ATOM      8 O    VAL C 504      39.177  96.531  21.031  1.00 11.58 LIG-0.27  OA
ATOM      9 N    ASJ C 505      39.434  95.170  22.810  1.00  2.62 LIG-0.25  NA
BRANCH 9 10
ATOM     10  CA  ASJ C 505      39.264  96.200  23.847  1.00  2.62 LIG 0.15  C 
BRANCH 10 11
ATOM     11  C   ASJ C 505      40.595  96.701  24.379  1.00  2.62 LIG 0.17  C 
BRANCH 11 12
ATOM     12 O    ASJ C 505      41.430  97.092  23.280  1.00 19.56 LIG-0.39  OA
ATOM     13 HO   ASJ C 505      41.051  97.700  22.841  1.00 19.56 LIG 0.21  HD
ENDBRANCH 11 12
ENDBRANCH 10 11
BRANCH 10 14
ATOM     14  CB  ASJ C 505      38.481  95.644  25.030  1.00 12.55 LIG 0.14  C 
BRANCH 14 15
ATOM     15  CG  ASJ C 505      37.421  96.576  25.510  1.00 14.75 LIG 0.17  C 
ATOM     16 OD1  ASJ C 505      36.627  96.184  26.390  1.00 17.98 LIG-0.65  OA
ATOM     17 OD2  ASJ C 505      37.367  97.700  24.985  1.00 18.38 LIG-0.65  OA
ENDBRANCH 14 15
ENDBRANCH 10 14
ENDBRANCH 9 10
ENDBRANCH 6 7
BRANCH 6 18
ATOM     18  CB  VAL C 504      40.987  94.240  19.996  1.00 11.58 LIG 0.01  C 
ATOM     19  CG2 VAL C 504      40.935  94.263  18.476  1.00 11.58 LIG 0.01  C 
ATOM     20  CG1 VAL C 504      41.784  93.038  20.483  1.00 11.58 LIG 0.01  C 
ENDBRANCH 6 18
ENDBRANCH 4 6
ENDBRANCH 1 2
BRANCH 1 21
ATOM     21  CB  GLU C 503      35.063  94.172  18.883  1.00 30.39 LIG 0.04  C 
BRANCH 21 22
ATOM     22  CG  GLU C 503      34.549  95.165  17.852  1.00 30.39 LIG 0.12  C 
BRANCH 22 23
ATOM     23  CD  GLU C 503      33.985  96.433  18.466  1.00 30.39 LIG 0.17  C 
ATOM     24 OE1  GLU C 503      33.526  97.325  17.722  1.00 30.39 LIG-0.65  OA
ATOM     25 OE2  GLU C 503      33.985  96.531  19.707  1.00 30.39 LIG-0.65  OA
ENDBRANCH 22 23
ENDBRANCH 21 22
ENDBRANCH 1 21
BRANCH 1 26
ATOM     26  N   GLU C 503      36.230  92.147  18.140  1.00 22.23 LIG-0.35  N 
ATOM     27 H    GLU C 503      35.409  91.892  18.155  1.00 22.23 LIG 0.16  HD
ATOM     28  C   ASP C 502      37.233  91.338  17.807  1.00 15.66 LIG 0.24  C 
ATOM     29 O    ASP C 502      38.421  91.686  17.793  1.00 17.69 LIG-0.27  OA
BRANCH 28 30
ATOM     30  CA  ASP C 502      36.836  89.905  17.453  1.00 16.73 LIG 0.19  C 
BRANCH 30 31
ATOM     31  N   ASP C 502      35.875  89.334  18.384  1.00 28.47 LIG-0.35  N 
ATOM     32 H    ASP C 502      35.067  89.601  18.264  1.00 28.47 LIG 0.16  HD
ATOM     33  C   ACE C 501      36.235  88.477  19.331  1.00  7.47 LIG 0.21  C 
ATOM     34 O    ACE C 501      37.400  88.117  19.509  1.00 12.06 LIG-0.27  OA
ATOM     35  CH3 ACE C 501      35.128  87.950  20.222  1.00  7.47 LIG 0.12  C 
ENDBRANCH 30 31
BRANCH 30 36
ATOM     36  CB  ASP C 502      36.286  89.844  16.025  1.00 14.36 LIG 0.15  C 
BRANCH 36 37
ATOM     37  CG  ASP C 502      34.876  90.412  15.910  1.00 17.50 LIG 0.17  C 
ATOM     38 OD1  ASP C 502      34.714  91.649  15.856  1.00 20.94 LIG-0.65  OA
ATOM     39 OD2  ASP C 502      33.921  89.616  15.889  1.00 19.93 LIG-0.65  OA
ENDBRANCH 36 37
ENDBRANCH 30 36
ENDBRANCH 28 30
ENDBRANCH 1 26
TORSDOF 17
ENDMDL
MODEL 3
USER: ADFR SOLUTION from run 140
USER: SCORE 16.458205 LL:  -1.610 LR: -15.349 RR:   0.000 FEB: -10.278
USER: RMSD 2.122675
USER: SEED 139
USER: STATUS no improvement in best 3 clusters for 5 generations
USER: GENES 19
USER: genes 0 Translation |==|  0.54013 0.51847 0.55049
USER: genes 1 Rotation |==|  0.48675 0.51117 0.49412 0.99967
USER: genes 2 Torsion [N]-CA--C-[N] |==|  0.47436
USER: genes 3 Torsion [C]-N--CA-[C] |==|  0.68237
USER: genes 4 Torsion [N]-CA--C-[N] |==|  0.38886
USER: genes 5 Torsion [C]-N--CA-[CB] |==|  0.47154
USER: genes 6 Torsion [N]-CA--C-[O] |==|  0.49316
USER: genes 7 Torsion [CA]-C--O-[HO] |==|  0.17273
USER: genes 8 Torsion [N]-CA--CB-[CG] |==|  0.64996
USER: genes 9 Torsion [CA]-CB--CG-[OD1] |==|  0.68810
USER: genes 10 Torsion [N]-CA--CB-[CG1] |==|  0.36742
USER: genes 11 Torsion [C]-CA--CB-[CG] |==|  0.47636
USER: genes 12 Torsion [CA]-CB--CG-[CD] |==|  0.16180
USER: genes 13 Torsion [CB]-CG--CD-[OE1] |==|  0.18414
USER: genes 14 Torsion [C]-CA--N-[C] |==|  0.68474
USER: genes 15 Torsion [N]-C--CA-[N] |==|  0.42020
USER: genes 16 Torsion [C]-CA--N-[C] |==|  0.69337
USER: genes 17 Torsion [C]-CA--CB-[CG] |==|  0.29012
USER: genes 18 Torsion [CA]-CB--CG-[OD1] |==|  0.70255
ROOT
ATOM      1  CA  GLU C 503      40.814  96.004  23.405  1.00 22.23 LIG 0.18  C 
ENDROOT
BRANCH 1 2
ATOM      2  C   GLU C 503      40.325  96.059  21.960  1.00 22.23 LIG 0.24  C 
ATOM      3 O    GLU C 503      40.365  97.119  21.341  1.00 30.39 LIG-0.27  OA
ATOM      4  N   VAL C 504      39.864  94.929  21.428  1.00 14.81 LIG-0.35  N 
ATOM      5 H    VAL C 504      39.820  94.183  21.854  1.00 14.81 LIG 0.16  HD
BRANCH 4 6
ATOM      6  CA  VAL C 504      39.384  94.861  20.046  1.00 14.81 LIG 0.18  C 
BRANCH 6 7
ATOM      7  C   VAL C 504      37.885  94.566  19.924  1.00 14.81 LIG 0.26  C 
ATOM      8 O    VAL C 504      37.353  93.748  20.669  1.00 11.58 LIG-0.27  OA
ATOM      9 N    ASJ C 505      37.223  95.237  18.980  1.00  2.62 LIG-0.25  NA
BRANCH 9 10
ATOM     10  CA  ASJ C 505      35.781  95.090  18.726  1.00  2.62 LIG 0.15  C 
BRANCH 10 11
ATOM     11  C   ASJ C 505      35.444  93.745  18.107  1.00  2.62 LIG 0.17  C 
BRANCH 11 12
ATOM     12 O    ASJ C 505      34.023  93.642  17.937  1.00 19.56 LIG-0.39  OA
ATOM     13 HO   ASJ C 505      33.760  94.240  17.409  1.00 19.56 LIG 0.21  HD
ENDBRANCH 11 12
ENDBRANCH 10 11
BRANCH 10 14
ATOM     14  CB  ASJ C 505      35.295  96.168  17.765  1.00 12.55 LIG 0.14  C 
BRANCH 14 15
ATOM     15  CG  ASJ C 505      34.142  96.944  18.303  1.00 14.75 LIG 0.17  C 
ATOM     16 OD1  ASJ C 505      33.027  96.825  17.756  1.00 17.98 LIG-0.65  OA
ATOM     17 OD2  ASJ C 505      34.361  97.700  19.264  1.00 18.38 LIG-0.65  OA
ENDBRANCH 14 15
ENDBRANCH 10 14
ENDBRANCH 9 10
ENDBRANCH 6 7
BRANCH 6 18
ATOM     18  CB  VAL C 504      40.170  93.815  19.242  1.00 11.58 LIG 0.01  C 
ATOM     19  CG2 VAL C 504      41.141  94.504  18.296  1.00 11.58 LIG 0.01  C 
ATOM     20  CG1 VAL C 504      39.217  92.916  18.465  1.00 11.58 LIG 0.01  C 
ENDBRANCH 6 18
ENDBRANCH 4 6
ENDBRANCH 1 2
BRANCH 1 21
ATOM     21  CB  GLU C 503      39.634  95.778  24.351  1.00 30.39 LIG 0.04  C 
BRANCH 21 22
ATOM     22  CG  GLU C 503      40.048  95.506  25.789  1.00 30.39 LIG 0.12  C 
BRANCH 22 23
ATOM     23  CD  GLU C 503      40.879  96.619  26.399  1.00 30.39 LIG 0.17  C 
ATOM     24 OE1  GLU C 503      40.360  97.738  26.595  1.00 30.39 LIG-0.65  OA
ATOM     25 OE2  GLU C 503      42.060  96.367  26.701  1.00 30.39 LIG-0.65  OA
ENDBRANCH 22 23
ENDBRANCH 21 22
ENDBRANCH 1 21
BRANCH 1 26
ATOM     26  N   GLU C 503      41.471  97.270  23.711  1.00 22.23 LIG-0.35  N 
ATOM     27 H    GLU C 503      40.935  97.942  23.715  1.00 22.23 LIG 0.16  HD
ATOM     28  C   ASP C 502      42.774  97.384  23.961  1.00 15.66 LIG 0.24  C 
ATOM     29 O    ASP C 502      43.562  96.429  23.947  1.00 17.69 LIG-0.27  OA
BRANCH 28 30
ATOM     30  CA  ASP C 502      43.269  98.800  24.254  1.00 16.73 LIG 0.19  C 
BRANCH 30 31
ATOM     31  N   ASP C 502      44.432  98.827  25.127  1.00 28.47 LIG-0.35  N 
ATOM     32 H    ASP C 502      45.152  98.528  24.764  1.00 28.47 LIG 0.16  HD
ATOM     33  C   ACE C 501      44.368  99.279  26.373  1.00  7.47 LIG 0.21  C 
ATOM     34 O    ACE C 501      43.327  99.687  26.891  1.00 12.06 LIG-0.27  OA
ATOM     35  CH3 ACE C 501      45.660  99.264  27.166  1.00  7.47 LIG 0.12  C 
ENDBRANCH 30 31
BRANCH 30 36
ATOM     36  CB  ASP C 502      43.575  99.536  22.946  1.00 14.36 LIG 0.15  C 
BRANCH 36 37
ATOM     37  CG  ASP C 502      42.508 100.561  22.582  1.00 17.50 LIG 0.17  C 
ATOM     38 OD1  ASP C 502      41.723 100.323  21.640  1.00 20.94 LIG-0.65  OA
ATOM     39 OD2  ASP C 502      42.462 101.621  23.232  1.00 19.93 LIG-0.65  OA
ENDBRANCH 36 37
ENDBRANCH 30 36
ENDBRANCH 28 30
ENDBRANCH 1 26
TORSDOF 17
ENDMDL
MODEL 4
USER: ADFR SOLUTION from run 37
USER: SCORE 16.605475 LL:  -2.408 LR: -14.879 RR:   0.000 FEB:  -9.808
USER: RMSD 2.004433
USER: SEED 36
USER: STATUS no improvement in best 2 clusters for 5 generations
USER: GENES 19
USER: genes 0 Translation |==|  0.51669 0.50679 0.54749
USER: genes 1 Rotation |==|  0.50074 0.47116 0.51620 0.99890
USER: genes 2 Torsion [N]-CA--C-[N] |==|  0.52514
USER: genes 3 Torsion [C]-N--CA-[C] |==|  0.64276
USER: genes 4 Torsion [N]-CA--C-[N] |==|  0.40328
USER: genes 5 Torsion [C]-N--CA-[CB] |==|  0.86432
USER: genes 6 Torsion [N]-CA--C-[O] |==|  0.42974
USER: genes 7 Torsion [CA]-C--O-[HO] |==|  0.08535
USER: genes 8 Torsion [N]-CA--CB-[CG] |==|  0.60279
USER: genes 9 Torsion [CA]-CB--CG-[OD1] |==|  0.42026
USER: genes 10 Torsion [N]-CA--CB-[CG1] |==|  0.33953
USER: genes 11 Torsion [C]-CA--CB-[CG] |==|  0.60065
USER: genes 12 Torsion [CA]-CB--CG-[CD] |==|  0.34937
USER: genes 13 Torsion [CB]-CG--CD-[OE1] |==|  0.81618
USER: genes 14 Torsion [C]-CA--N-[C] |==|  0.76241
USER: genes 15 Torsion [N]-C--CA-[N] |==|  0.28282
USER: genes 16 Torsion [C]-CA--N-[C] |==|  0.74888
USER: genes 17 Torsion [C]-CA--CB-[CG] |==|  0.49242
USER: genes 18 Torsion [CA]-CB--CG-[OD1] |==|  0.75313
ROOT
ATOM      1  CA  GLU C 503      40.111  95.654  23.315  1.00 22.23 LIG 0.18  C 
ENDROOT
BRANCH 1 2
ATOM      2  C   GLU C 503      39.849  95.757  21.815  1.00 22.23 LIG 0.24  C 
ATOM      3 O    GLU C 503      40.202  96.759  21.201  1.00 30.39 LIG-0.27  OA
ATOM      4  N   VAL C 504      39.231  94.732  21.231  1.00 14.81 LIG-0.35  N 
ATOM      5 H    VAL C 504      38.968  94.030  21.652  1.00 14.81 LIG 0.16  HD
BRANCH 4 6
ATOM      6  CA  VAL C 504      38.942  94.716  19.795  1.00 14.81 LIG 0.18  C 
BRANCH 6 7
ATOM      7  C   VAL C 504      37.482  94.398  19.460  1.00 14.81 LIG 0.26  C 
ATOM      8 O    VAL C 504      36.846  93.607  20.152  1.00 11.58 LIG-0.27  OA
ATOM      9 N    ASJ C 505      36.968  95.018  18.397  1.00  2.62 LIG-0.25  NA
BRANCH 9 10
ATOM     10  CA  ASJ C 505      35.582  94.842  17.933  1.00  2.62 LIG 0.15  C 
BRANCH 10 11
ATOM     11  C   ASJ C 505      34.579  95.488  18.872  1.00  2.62 LIG 0.17  C 
BRANCH 11 12
ATOM     12 O    ASJ C 505      33.387  95.815  18.143  1.00 19.56 LIG-0.39  OA
ATOM     13 HO   ASJ C 505      33.279  95.262  17.520  1.00 19.56 LIG 0.21  HD
ENDBRANCH 11 12
ENDBRANCH 10 11
BRANCH 10 14
ATOM     14  CB  ASJ C 505      35.233  93.362  17.841  1.00 12.55 LIG 0.14  C 
BRANCH 14 15
ATOM     15  CG  ASJ C 505      34.356  93.047  16.678  1.00 14.75 LIG 0.17  C 
ATOM     16 OD1  ASJ C 505      34.424  91.913  16.161  1.00 17.98 LIG-0.65  OA
ATOM     17 OD2  ASJ C 505      33.611  93.950  16.262  1.00 18.38 LIG-0.65  OA
ENDBRANCH 14 15
ENDBRANCH 10 14
ENDBRANCH 9 10
ENDBRANCH 6 7
BRANCH 6 18
ATOM     18  CB  VAL C 504      39.855  93.722  19.062  1.00 11.58 LIG 0.01  C 
ATOM     19  CG2 VAL C 504      40.765  94.463  18.095  1.00 11.58 LIG 0.01  C 
ATOM     20  CG1 VAL C 504      39.024  92.683  18.322  1.00 11.58 LIG 0.01  C 
ENDBRANCH 6 18
ENDBRANCH 4 6
ENDBRANCH 1 2
BRANCH 1 21
ATOM     21  CB  GLU C 503      38.826  95.267  24.048  1.00 30.39 LIG 0.04  C 
BRANCH 21 22
ATOM     22  CG  GLU C 503      38.675  95.932  25.408  1.00 30.39 LIG 0.12  C 
BRANCH 22 23
ATOM     23  CD  GLU C 503      37.366  96.683  25.570  1.00 30.39 LIG 0.17  C 
ATOM     24 OE1  GLU C 503      37.147  97.696  24.873  1.00 30.39 LIG-0.65  OA
ATOM     25 OE2  GLU C 503      36.540  96.244  26.391  1.00 30.39 LIG-0.65  OA
ENDBRANCH 22 23
ENDBRANCH 21 22
ENDBRANCH 1 21
BRANCH 1 26
ATOM     26  N   GLU C 503      40.589  96.950  23.784  1.00 22.23 LIG-0.35  N 
ATOM     27 H    GLU C 503      39.965  97.453  24.095  1.00 22.23 LIG 0.16  HD
ATOM     28  C   ASP C 502      41.866  97.327  23.738  1.00 15.66 LIG 0.24  C 
ATOM     29 O    ASP C 502      42.774  96.621  23.281  1.00 17.69 LIG-0.27  OA
BRANCH 28 30
ATOM     30  CA  ASP C 502      42.160  98.728  24.272  1.00 16.73 LIG 0.19  C 
BRANCH 30 31
ATOM     31  N   ASP C 502      42.726  98.718  25.612  1.00 28.47 LIG-0.35  N 
ATOM     32 H    ASP C 502      43.584  98.675  25.632  1.00 28.47 LIG 0.16  HD
ATOM     33  C   ACE C 501      41.966  98.773  26.698  1.00  7.47 LIG 0.21  C 
ATOM     34 O    ACE C 501      40.735  98.813  26.660  1.00 12.06 LIG-0.27  OA
ATOM     35  CH3 ACE C 501      42.689  98.770  28.031  1.00  7.47 LIG 0.12  C 
ENDBRANCH 30 31
BRANCH 30 36
ATOM     36  CB  ASP C 502      43.091  99.477  23.314  1.00 14.36 LIG 0.15  C 
BRANCH 36 37
ATOM     37  CG  ASP C 502      43.370 100.908  23.759  1.00 17.50 LIG 0.17  C 
ATOM     38 OD1  ASP C 502      42.609 101.827  23.390  1.00 20.94 LIG-0.65  OA
ATOM     39 OD2  ASP C 502      44.367 101.118  24.472  1.00 19.93 LIG-0.65  OA
ENDBRANCH 36 37
ENDBRANCH 30 36
ENDBRANCH 28 30
ENDBRANCH 1 26
TORSDOF 17
ENDMDL
MODEL 5
USER: ADFR SOLUTION from run 50
USER: SCORE 15.349791 LL:  -1.735 LR: -14.586 RR:   0.000 FEB:  -9.515
USER: RMSD 7.783868
USER: SEED 49
USER: STATUS 1 or 2 clusters left
USER: GENES 19
USER: genes 0 Translation |==|  0.35609 0.43502 0.36639
USER: genes 1 Rotation |==|  0.25553 0.33487 0.22139 0.79213
USER: genes 2 Torsion [N]-CA--C-[N] |==|  0.06667
USER: genes 3 Torsion [C]-N--CA-[C] |==|  0.66927
USER: genes 4 Torsion [N]-CA--C-[N] |==|  0.91680
USER: genes 5 Torsion [C]-N--CA-[CB] |==|  0.40032
USER: genes 6 Torsion [N]-CA--C-[O] |==|  0.58705
USER: genes 7 Torsion [CA]-C--O-[HO] |==|  0.37409
USER: genes 8 Torsion [N]-CA--CB-[CG] |==|  0.72530
USER: genes 9 Torsion [CA]-CB--CG-[OD1] |==|  0.30010
USER: genes 10 Torsion [N]-CA--CB-[CG1] |==|  0.30445
USER: genes 11 Torsion [C]-CA--CB-[CG] |==|  0.53364
USER: genes 12 Torsion [CA]-CB--CG-[CD] |==|  0.77707
USER: genes 13 Torsion [CB]-CG--CD-[OE1] |==|  0.62540
USER: genes 14 Torsion [C]-CA--N-[C] |==|  0.68335
USER: genes 15 Torsion [N]-C--CA-[N] |==|  0.07695
USER: genes 16 Torsion [C]-CA--N-[C] |==|  0.59917
USER: genes 17 Torsion [C]-CA--CB-[CG] |==|  0.75703
USER: genes 18 Torsion [CA]-CB--CG-[OD1] |==|  0.83126
ROOT
ATOM      1  CA  GLU C 503      35.293  93.501  17.882  1.00 22.23 LIG 0.18  C 
ENDROOT
BRANCH 1 2
ATOM      2  C   GLU C 503      35.110  92.257  17.017  1.00 22.23 LIG 0.24  C 
ATOM      3 O    GLU C 503      34.198  92.212  16.196  1.00 30.39 LIG-0.27  OA
ATOM      4  N   VAL C 504      35.966  91.254  17.201  1.00 14.81 LIG-0.35  N 
ATOM      5 H    VAL C 504      36.602  91.268  17.779  1.00 14.81 LIG 0.16  HD
BRANCH 4 6
ATOM      6  CA  VAL C 504      35.895  90.019  16.416  1.00 14.81 LIG 0.18  C 
BRANCH 6 7
ATOM      7  C   VAL C 504      35.651  88.763  17.258  1.00 14.81 LIG 0.26  C 
ATOM      8 O    VAL C 504      35.043  87.807  16.784  1.00 11.58 LIG-0.27  OA
ATOM      9 N    ASJ C 505      36.128  88.782  18.504  1.00  2.62 LIG-0.25  NA
BRANCH 9 10
ATOM     10  CA  ASJ C 505      35.996  87.664  19.452  1.00  2.62 LIG 0.15  C 
BRANCH 10 11
ATOM     11  C   ASJ C 505      34.806  87.838  20.379  1.00  2.62 LIG 0.17  C 
BRANCH 11 12
ATOM     12 O    ASJ C 505      35.098  87.233  21.647  1.00 19.56 LIG-0.39  OA
ATOM     13 HO   ASJ C 505      34.866  87.753  22.265  1.00 19.56 LIG 0.21  HD
ENDBRANCH 11 12
ENDBRANCH 10 11
BRANCH 10 14
ATOM     14  CB  ASJ C 505      37.240  87.553  20.324  1.00 12.55 LIG 0.14  C 
BRANCH 14 15
ATOM     15  CG  ASJ C 505      38.189  86.508  19.846  1.00 14.75 LIG 0.17  C 
ATOM     16 OD1  ASJ C 505      39.261  86.863  19.315  1.00 17.98 LIG-0.65  OA
ATOM     17 OD2  ASJ C 505      37.848  85.321  19.981  1.00 18.38 LIG-0.65  OA
ENDBRANCH 14 15
ENDBRANCH 10 14
ENDBRANCH 9 10
ENDBRANCH 6 7
BRANCH 6 18
ATOM     18  CB  VAL C 504      37.169  89.825  15.580  1.00 11.58 LIG 0.01  C 
ATOM     19  CG2 VAL C 504      36.806  89.572  14.125  1.00 11.58 LIG 0.01  C 
ATOM     20  CG1 VAL C 504      37.995  88.671  16.131  1.00 11.58 LIG 0.01  C 
ENDBRANCH 6 18
ENDBRANCH 4 6
ENDBRANCH 1 2
BRANCH 1 21
ATOM     21  CB  GLU C 503      34.942  94.755  17.080  1.00 30.39 LIG 0.04  C 
BRANCH 21 22
ATOM     22  CG  GLU C 503      35.368  96.050  17.755  1.00 30.39 LIG 0.12  C 
BRANCH 22 23
ATOM     23  CD  GLU C 503      34.411  96.508  18.839  1.00 30.39 LIG 0.17  C 
ATOM     24 OE1  GLU C 503      34.068  97.708  18.891  1.00 30.39 LIG-0.65  OA
ATOM     25 OE2  GLU C 503      33.984  95.655  19.639  1.00 30.39 LIG-0.65  OA
ENDBRANCH 22 23
ENDBRANCH 21 22
ENDBRANCH 1 21
BRANCH 1 26
ATOM     26  N   GLU C 503      36.684  93.552  18.317  1.00 22.23 LIG-0.35  N 
ATOM     27 H    GLU C 503      37.240  93.676  17.672  1.00 22.23 LIG 0.16  HD
ATOM     28  C   ASP C 502      37.067  93.422  19.586  1.00 15.66 LIG 0.24  C 
ATOM     29 O    ASP C 502      36.282  93.231  20.524  1.00 17.69 LIG-0.27  OA
BRANCH 28 30
ATOM     30  CA  ASP C 502      38.573  93.499  19.833  1.00 16.73 LIG 0.19  C 
BRANCH 30 31
ATOM     31  N   ASP C 502      39.272  94.301  18.841  1.00 28.47 LIG-0.35  N 
ATOM     32 H    ASP C 502      38.829  94.982  18.562  1.00 28.47 LIG 0.16  HD
ATOM     33  C   ACE C 501      40.490  93.990  18.416  1.00  7.47 LIG 0.21  C 
ATOM     34 O    ACE C 501      41.110  92.999  18.806  1.00 12.06 LIG-0.27  OA
ATOM     35  CH3 ACE C 501      41.107  94.922  17.390  1.00  7.47 LIG 0.12  C 
ENDBRANCH 30 31
BRANCH 30 36
ATOM     36  CB  ASP C 502      38.854  94.038  21.238  1.00 14.36 LIG 0.15  C 
BRANCH 36 37
ATOM     37  CG  ASP C 502      38.917  95.560  21.286  1.00 17.50 LIG 0.17  C 
ATOM     38 OD1  ASP C 502      39.778  96.162  20.609  1.00 20.94 LIG-0.65  OA
ATOM     39 OD2  ASP C 502      38.110  96.161  22.017  1.00 19.93 LIG-0.65  OA
ENDBRANCH 36 37
ENDBRANCH 30 36
ENDBRANCH 28 30
ENDBRANCH 1 26
TORSDOF 17
ENDMDL
MODEL 6
USER: ADFR SOLUTION from run 10
USER: SCORE 16.384695 LL:  -2.298 LR: -14.505 RR:   0.000 FEB:  -9.434
USER: RMSD 4.726501
USER: SEED 664715
USER: STATUS 1 or 2 clusters left
USER: GENES 19
USER: genes 0 Translation |==|  0.51407 0.52502 0.53981
USER: genes 1 Rotation |==|  0.60650 0.50020 0.98290 0.57393
USER: genes 2 Torsion [N]-CA--C-[N] |==|  0.01175
USER: genes 3 Torsion [C]-N--CA-[C] |==|  0.58333
USER: genes 4 Torsion [N]-CA--C-[N] |==|  0.39024
USER: genes 5 Torsion [C]-N--CA-[CB] |==|  0.22630
USER: genes 6 Torsion [N]-CA--C-[O] |==|  0.44961
USER: genes 7 Torsion [CA]-C--O-[HO] |==|  0.21490
USER: genes 8 Torsion [N]-CA--CB-[CG] |==|  0.17499
USER: genes 9 Torsion [CA]-CB--CG-[OD1] |==|  0.27932
USER: genes 10 Torsion [N]-CA--CB-[CG1] |==|  0.73062
USER: genes 11 Torsion [C]-CA--CB-[CG] |==|  0.47850
USER: genes 12 Torsion [CA]-CB--CG-[CD] |==|  0.86267
USER: genes 13 Torsion [CB]-CG--CD-[OE1] |==|  0.35744
USER: genes 14 Torsion [C]-CA--N-[C] |==|  0.66127
USER: genes 15 Torsion [N]-C--CA-[N] |==|  0.00968
USER: genes 16 Torsion [C]-CA--N-[C] |==|  0.76058
USER: genes 17 Torsion [C]-CA--CB-[CG] |==|  0.32029
USER: genes 18 Torsion [CA]-CB--CG-[OD1] |==|  0.49099
ROOT
ATOM      1  CA  GLU C 503      40.032  96.201  23.084  1.00 22.23 LIG 0.18  C 
ENDROOT
BRANCH 1 2
ATOM      2  C   GLU C 503      39.765  96.054  21.589  1.00 22.23 LIG 0.24  C 
ATOM      3 O    GLU C 503      40.335  96.794  20.791  1.00 30.39 LIG-0.27  OA
ATOM      4  N   VAL C 504      38.905  95.111  21.212  1.00 14.81 LIG-0.35  N 
ATOM      5 H    VAL C 504      38.491  94.594  21.761  1.00 14.81 LIG 0.16  HD
BRANCH 4 6
ATOM      6  CA  VAL C 504      38.585  94.871  19.802  1.00 14.81 LIG 0.18  C 
BRANCH 6 7
ATOM      7  C   VAL C 504      37.166  94.342  19.570  1.00 14.81 LIG 0.26  C 
ATOM      8 O    VAL C 504      36.680  93.516  20.337  1.00 11.58 LIG-0.27  OA
ATOM      9 N    ASJ C 505      36.519  94.826  18.509  1.00  2.62 LIG-0.25  NA
BRANCH 9 10
ATOM     10  CA  ASJ C 505      35.149  94.442  18.136  1.00  2.62 LIG 0.15  C 
BRANCH 10 11
ATOM     11  C   ASJ C 505      34.856  94.717  16.672  1.00  2.62 LIG 0.17  C 
BRANCH 11 12
ATOM     12 O    ASJ C 505      33.708  93.959  16.265  1.00 19.56 LIG-0.39  OA
ATOM     13 HO   ASJ C 505      33.011  94.334  16.548  1.00 19.56 LIG 0.21  HD
ENDBRANCH 11 12
ENDBRANCH 10 11
BRANCH 10 14
ATOM     14  CB  ASJ C 505      34.132  95.224  18.958  1.00 12.55 LIG 0.14  C 
BRANCH 14 15
ATOM     15  CG  ASJ C 505      34.196  96.692  18.712  1.00 14.75 LIG 0.17  C 
ATOM     16 OD1  ASJ C 505      33.355  97.214  17.951  1.00 17.98 LIG-0.65  OA
ATOM     17 OD2  ASJ C 505      35.110  97.325  19.265  1.00 18.38 LIG-0.65  OA
ENDBRANCH 14 15
ENDBRANCH 10 14
ENDBRANCH 9 10
ENDBRANCH 6 7
BRANCH 6 18
ATOM     18  CB  VAL C 504      39.593  93.901  19.168  1.00 11.58 LIG 0.01  C 
ATOM     19  CG2 VAL C 504      40.210  93.013  20.239  1.00 11.58 LIG 0.01  C 
ATOM     20  CG1 VAL C 504      40.677  94.671  18.426  1.00 11.58 LIG 0.01  C 
ENDBRANCH 6 18
ENDBRANCH 4 6
ENDBRANCH 1 2
BRANCH 1 21
ATOM     21  CB  GLU C 503      41.531  96.089  23.365  1.00 30.39 LIG 0.04  C 
BRANCH 21 22
ATOM     22  CG  GLU C 503      41.909  96.408  24.803  1.00 30.39 LIG 0.12  C 
BRANCH 22 23
ATOM     23  CD  GLU C 503      41.313  97.708  25.309  1.00 30.39 LIG 0.17  C 
ATOM     24 OE1  GLU C 503      40.686  97.718  26.390  1.00 30.39 LIG-0.65  OA
ATOM     25 OE2  GLU C 503      41.489  98.734  24.628  1.00 30.39 LIG-0.65  OA
ENDBRANCH 22 23
ENDBRANCH 21 22
ENDBRANCH 1 21
BRANCH 1 26
ATOM     26  N   GLU C 503      39.308  95.144  23.782  1.00 22.23 LIG-0.35  N 
ATOM     27 H    GLU C 503      39.526  94.352  23.525  1.00 22.23 LIG 0.16  HD
ATOM     28  C   ASP C 502      38.397  95.372  24.726  1.00 15.66 LIG 0.24  C 
ATOM     29 O    ASP C 502      38.062  96.504  25.099  1.00 17.69 LIG-0.27  OA
BRANCH 28 30
ATOM     30  CA  ASP C 502      37.746  94.128  25.330  1.00 16.73 LIG 0.19  C 
BRANCH 30 31
ATOM     31  N   ASP C 502      38.303  92.887  24.815  1.00 28.47 LIG-0.35  N 
ATOM     32 H    ASP C 502      38.937  92.559  25.294  1.00 28.47 LIG 0.16  HD
ATOM     33  C   ACE C 501      37.856  92.324  23.699  1.00  7.47 LIG 0.21  C 
ATOM     34 O    ACE C 501      36.961  92.812  23.007  1.00 12.06 LIG-0.27  OA
ATOM     35  CH3 ACE C 501      38.518  91.024  23.286  1.00  7.47 LIG 0.12  C 
ENDBRANCH 30 31
BRANCH 30 36
ATOM     36  CB  ASP C 502      37.855  94.159  26.857  1.00 14.36 LIG 0.15  C 
BRANCH 36 37
ATOM     37  CG  ASP C 502      36.499  94.259  27.545  1.00 17.50 LIG 0.17  C 
ATOM     38 OD1  ASP C 502      36.438  94.233  28.792  1.00 20.94 LIG-0.65  OA
ATOM     39 OD2  ASP C 502      35.483  94.350  26.833  1.00 19.93 LIG-0.65  OA
ENDBRANCH 36 37
ENDBRANCH 30 36
ENDBRANCH 28 30
ENDBRANCH 1 26
TORSDOF 17
ENDMDL
MODEL 7
USER: ADFR SOLUTION from run 61
USER: SCORE 15.158676 LL:  -1.866 LR: -14.383 RR:   0.000 FEB:  -9.312
USER: RMSD 8.667547
USER: SEED 60
USER: STATUS no improvement in best 10 clusters for 5 generations
USER: GENES 19
USER: genes 0 Translation |==|  0.44366 0.47485 0.40732
USER: genes 1 Rotation |==|  0.85738 0.30768 0.23800 0.62900
USER: genes 2 Torsion [N]-CA--C-[N] |==|  0.92952
USER: genes 3 Torsion [C]-N--CA-[C] |==|  0.16968
USER: genes 4 Torsion [N]-CA--C-[N] |==|  0.43461
USER: genes 5 Torsion [C]-N--CA-[CB] |==|  0.41481
USER: genes 6 Torsion [N]-CA--C-[O] |==|  0.79942
USER: genes 7 Torsion [CA]-C--O-[HO] |==|  0.60528
USER: genes 8 Torsion [N]-CA--CB-[CG] |==|  0.74208
USER: genes 9 Torsion [CA]-CB--CG-[OD1] |==|  0.61303
USER: genes 10 Torsion [N]-CA--CB-[CG1] |==|  0.56001
USER: genes 11 Torsion [C]-CA--CB-[CG] |==|  0.44409
USER: genes 12 Torsion [CA]-CB--CG-[CD] |==|  0.38134
USER: genes 13 Torsion [CB]-CG--CD-[OE1] |==|  0.23273
USER: genes 14 Torsion [C]-CA--N-[C] |==|  0.81763
USER: genes 15 Torsion [N]-C--CA-[N] |==|  0.44387
USER: genes 16 Torsion [C]-CA--N-[C] |==|  0.80521
USER: genes 17 Torsion [C]-CA--CB-[CG] |==|  0.18975
USER: genes 18 Torsion [CA]-CB--CG-[OD1] |==|  0.09339
ROOT
ATOM      1  CA  GLU C 503      37.920  94.695  19.110  1.00 22.23 LIG 0.18  C 
ENDROOT
BRANCH 1 2
ATOM      2  C   GLU C 503      39.203  94.926  19.902  1.00 22.23 LIG 0.24  C 
ATOM      3 O    GLU C 503      40.128  95.556  19.397  1.00 30.39 LIG-0.27  OA
ATOM      4  N   VAL C 504      39.263  94.417  21.131  1.00 14.81 LIG-0.35  N 
ATOM      5 H    VAL C 504      38.627  93.964  21.492  1.00 14.81 LIG 0.16  HD
BRANCH 4 6
ATOM      6  CA  VAL C 504      40.439  94.590  21.986  1.00 14.81 LIG 0.18  C 
BRANCH 6 7
ATOM      7  C   VAL C 504      40.760  96.053  22.309  1.00 14.81 LIG 0.26  C 
ATOM      8 O    VAL C 504      40.375  96.950  21.564  1.00 11.58 LIG-0.27  OA
ATOM      9 N    ASJ C 505      41.467  96.274  23.418  1.00  2.62 LIG-0.25  NA
BRANCH 9 10
ATOM     10  CA  ASJ C 505      41.858  97.612  23.890  1.00  2.62 LIG 0.15  C 
BRANCH 10 11
ATOM     11  C   ASJ C 505      43.212  98.035  23.348  1.00  2.62 LIG 0.17  C 
BRANCH 11 12
ATOM     12 O    ASJ C 505      44.243  97.279  24.000  1.00 19.56 LIG-0.39  OA
ATOM     13 HO   ASJ C 505      44.909  97.773  24.136  1.00 19.56 LIG 0.21  HD
ENDBRANCH 11 12
ENDBRANCH 10 11
BRANCH 10 14
ATOM     14  CB  ASJ C 505      41.948  97.638  25.411  1.00 12.55 LIG 0.14  C 
BRANCH 14 15
ATOM     15  CG  ASJ C 505      40.678  98.075  26.057  1.00 14.75 LIG 0.17  C 
ATOM     16 OD1  ASJ C 505      40.735  98.842  27.040  1.00 17.98 LIG-0.65  OA
ATOM     17 OD2  ASJ C 505      39.617  97.627  25.593  1.00 18.38 LIG-0.65  OA
ENDBRANCH 14 15
ENDBRANCH 10 14
ENDBRANCH 9 10
ENDBRANCH 6 7
BRANCH 6 18
ATOM     18  CB  VAL C 504      41.676  93.930  21.359  1.00 11.58 LIG 0.01  C 
ATOM     19  CG2 VAL C 504      41.278  92.649  20.641  1.00 11.58 LIG 0.01  C 
ATOM     20  CG1 VAL C 504      42.722  93.639  22.427  1.00 11.58 LIG 0.01  C 
ENDBRANCH 6 18
ENDBRANCH 4 6
ENDBRANCH 1 2
BRANCH 1 21
ATOM     21  CB  GLU C 503      36.983  95.894  19.265  1.00 30.39 LIG 0.04  C 
BRANCH 21 22
ATOM     22  CG  GLU C 503      35.931  95.993  18.172  1.00 30.39 LIG 0.12  C 
BRANCH 22 23
ATOM     23  CD  GLU C 503      34.552  96.353  18.692  1.00 30.39 LIG 0.17  C 
ATOM     24 OE1  GLU C 503      34.262  97.551  18.890  1.00 30.39 LIG-0.65  OA
ATOM     25 OE2  GLU C 503      33.743  95.427  18.890  1.00 30.39 LIG-0.65  OA
ENDBRANCH 22 23
ENDBRANCH 21 22
ENDBRANCH 1 21
BRANCH 1 26
ATOM     26  N   GLU C 503      37.281  93.487  19.619  1.00 22.23 LIG-0.35  N 
ATOM     27 H    GLU C 503      36.525  93.635  20.001  1.00 22.23 LIG 0.16  HD
ATOM     28  C   ASP C 502      37.809  92.270  19.509  1.00 15.66 LIG 0.24  C 
ATOM     29 O    ASP C 502      38.902  92.041  18.973  1.00 17.69 LIG-0.27  OA
BRANCH 28 30
ATOM     30  CA  ASP C 502      36.985  91.134  20.115  1.00 16.73 LIG 0.19  C 
BRANCH 30 31
ATOM     31  N   ASP C 502      37.338  89.827  19.582  1.00 28.47 LIG-0.35  N 
ATOM     32 H    ASP C 502      37.743  89.316  20.143  1.00 28.47 LIG 0.16  HD
ATOM     33  C   ACE C 501      37.050  89.473  18.336  1.00  7.47 LIG 0.21  C 
ATOM     34 O    ACE C 501      36.488  90.220  17.534  1.00 12.06 LIG-0.27  OA
ATOM     35  CH3 ACE C 501      37.463  88.075  17.918  1.00  7.47 LIG 0.12  C 
ENDBRANCH 30 31
BRANCH 30 36
ATOM     36  CB  ASP C 502      37.121  91.135  21.640  1.00 14.36 LIG 0.15  C 
BRANCH 36 37
ATOM     37  CG  ASP C 502      36.459  92.343  22.292  1.00 17.50 LIG 0.17  C 
ATOM     38 OD1  ASP C 502      35.424  92.825  21.786  1.00 20.94 LIG-0.65  OA
ATOM     39 OD2  ASP C 502      36.986  92.825  23.311  1.00 19.93 LIG-0.65  OA
ENDBRANCH 36 37
ENDBRANCH 30 36
ENDBRANCH 28 30
ENDBRANCH 1 26
TORSDOF 17
ENDMDL
MODEL 8
USER: ADFR SOLUTION from run 156
USER: SCORE 15.462796 LL:  -1.962 LR: -14.302 RR:   0.000 FEB:  -9.231
USER: RMSD 8.500644
USER: SEED 155
USER: STATUS no improvement in best 6 clusters for 5 generations
USER: GENES 19
USER: genes 0 Translation |==|  0.51244 0.52649 0.55767
USER: genes 1 Rotation |==|  0.26444 0.32608 0.90184 0.55279
USER: genes 2 Torsion [N]-CA--C-[N] |==|  0.35557
USER: genes 3 Torsion [C]-N--CA-[C] |==|  0.70114
USER: genes 4 Torsion [N]-CA--C-[N] |==|  0.99159
USER: genes 5 Torsion [C]-N--CA-[CB] |==|  0.51715
USER: genes 6 Torsion [N]-CA--C-[O] |==|  0.25345
USER: genes 7 Torsion [CA]-C--O-[HO] |==|  0.78443
USER: genes 8 Torsion [N]-CA--CB-[CG] |==|  0.88629
USER: genes 9 Torsion [CA]-CB--CG-[OD1] |==|  0.69597
USER: genes 10 Torsion [N]-CA--CB-[CG1] |==|  0.96564
USER: genes 11 Torsion [C]-CA--CB-[CG] |==|  0.31351
USER: genes 12 Torsion [CA]-CB--CG-[CD] |==|  0.16508
USER: genes 13 Torsion [CB]-CG--CD-[OE1] |==|  0.83812
USER: genes 14 Torsion [C]-CA--N-[C] |==|  0.83991
USER: genes 15 Torsion [N]-C--CA-[N] |==|  0.62222
USER: genes 16 Torsion [C]-CA--N-[C] |==|  0.18287
USER: genes 17 Torsion [C]-CA--CB-[CG] |==|  0.23999
USER: genes 18 Torsion [CA]-CB--CG-[OD1] |==|  0.69797
ROOT
ATOM      1  CA  GLU C 503      39.983  96.245  23.620  1.00 22.23 LIG 0.18  C 
ENDROOT
BRANCH 1 2
ATOM      2  C   GLU C 503      41.442  96.615  23.373  1.00 22.23 LIG 0.24  C 
ATOM      3 O    GLU C 503      42.260  95.737  23.112  1.00 30.39 LIG-0.27  OA
ATOM      4  N   VAL C 504      41.769  97.903  23.458  1.00 14.81 LIG-0.35  N 
ATOM      5 H    VAL C 504      41.209  98.526  23.651  1.00 14.81 LIG 0.16  HD
BRANCH 4 6
ATOM      6  CA  VAL C 504      43.136  98.374  23.225  1.00 14.81 LIG 0.18  C 
BRANCH 6 7
ATOM      7  C   VAL C 504      43.865  98.816  24.498  1.00 14.81 LIG 0.26  C 
ATOM      8 O    VAL C 504      45.038  99.176  24.447  1.00 11.58 LIG-0.27  OA
ATOM      9 N    ASJ C 505      43.159  98.778  25.629  1.00  2.62 LIG-0.25  NA
BRANCH 9 10
ATOM     10  CA  ASJ C 505      43.690  99.174  26.943  1.00  2.62 LIG 0.15  C 
BRANCH 10 11
ATOM     11  C   ASJ C 505      44.972  98.436  27.287  1.00  2.62 LIG 0.17  C 
BRANCH 11 12
ATOM     12 O    ASJ C 505      46.098  99.201  26.833  1.00 19.56 LIG-0.39  OA
ATOM     13 HO   ASJ C 505      46.186  99.105  26.003  1.00 19.56 LIG 0.21  HD
ENDBRANCH 11 12
ENDBRANCH 10 11
BRANCH 10 14
ATOM     14  CB  ASJ C 505      42.680  98.869  28.042  1.00 12.55 LIG 0.14  C 
BRANCH 14 15
ATOM     15  CG  ASJ C 505      41.281  99.196  27.648  1.00 14.75 LIG 0.17  C 
ATOM     16 OD1  ASJ C 505      40.714 100.169  28.187  1.00 17.98 LIG-0.65  OA
ATOM     17 OD2  ASJ C 505      40.735  98.458  26.811  1.00 18.38 LIG-0.65  OA
ENDBRANCH 14 15
ENDBRANCH 10 14
ENDBRANCH 9 10
ENDBRANCH 6 7
BRANCH 6 18
ATOM     18  CB  VAL C 504      43.155  99.526  22.209  1.00 11.58 LIG 0.01  C 
ATOM     19  CG2 VAL C 504      43.510 100.831  22.905  1.00 11.58 LIG 0.01  C 
ATOM     20  CG1 VAL C 504      41.805  99.644  21.515  1.00 11.58 LIG 0.01  C 
ENDBRANCH 6 18
ENDBRANCH 4 6
ENDBRANCH 1 2
BRANCH 1 21
ATOM     21  CB  GLU C 503      39.853  95.460  24.926  1.00 30.39 LIG 0.04  C 
BRANCH 21 22
ATOM     22  CG  GLU C 503      39.097  96.206  26.015  1.00 30.39 LIG 0.12  C 
BRANCH 22 23
ATOM     23  CD  GLU C 503      37.680  96.575  25.620  1.00 30.39 LIG 0.17  C 
ATOM     24 OE1  GLU C 503      37.486  97.284  24.610  1.00 30.39 LIG-0.65  OA
ATOM     25 OE2  GLU C 503      36.747  96.137  26.318  1.00 30.39 LIG-0.65  OA
ENDBRANCH 22 23
ENDBRANCH 21 22
ENDBRANCH 1 21
BRANCH 1 26
ATOM     26  N   GLU C 503      39.522  95.436  22.497  1.00 22.23 LIG-0.35  N 
ATOM     27 H    GLU C 503      39.226  94.663  22.731  1.00 22.23 LIG 0.16  HD
ATOM     28  C   ASP C 502      39.552  95.846  21.230  1.00 15.66 LIG 0.24  C 
ATOM     29 O    ASP C 502      39.985  96.950  20.875  1.00 17.69 LIG-0.27  OA
BRANCH 28 30
ATOM     30  CA  ASP C 502      39.029  94.846  20.200  1.00 16.73 LIG 0.19  C 
BRANCH 30 31
ATOM     31  N   ASP C 502      39.872  94.752  19.018  1.00 28.47 LIG-0.35  N 
ATOM     32 H    ASP C 502      39.498  95.030  18.295  1.00 28.47 LIG 0.16  HD
ATOM     33  C   ACE C 501      41.109  94.277  19.071  1.00  7.47 LIG 0.21  C 
ATOM     34 O    ACE C 501      41.630  93.862  20.107  1.00 12.06 LIG-0.27  OA
ATOM     35  CH3 ACE C 501      41.880  94.250  17.765  1.00  7.47 LIG 0.12  C 
ENDBRANCH 30 31
BRANCH 30 36
ATOM     36  CB  ASP C 502      38.864  93.463  20.838  1.00 14.36 LIG 0.15  C 
BRANCH 36 37
ATOM     37  CG  ASP C 502      37.511  93.284  21.517  1.00 17.50 LIG 0.17  C 
ATOM     38 OD1  ASP C 502      37.448  93.246  22.764  1.00 20.94 LIG-0.65  OA
ATOM     39 OD2  ASP C 502      36.503  93.164  20.799  1.00 19.93 LIG-0.65  OA
ENDBRANCH 36 37
ENDBRANCH 30 36
ENDBRANCH 28 30
ENDBRANCH 1 26
TORSDOF 17
ENDMDL
MODEL 9
USER: ADFR SOLUTION from run 87
USER: SCORE 15.513098 LL:  -1.978 LR: -14.240 RR:   0.000 FEB:  -9.169
USER: RMSD 9.295736
USER: SEED 86
USER: STATUS no improvement in best 5 clusters for 5 generations
USER: GENES 19
USER: genes 0 Translation |==|  0.49367 0.46204 0.41830
USER: genes 1 Rotation |==|  0.72877 0.07499 0.63024 0.50834
USER: genes 2 Torsion [N]-CA--C-[N] |==|  0.42190
USER: genes 3 Torsion [C]-N--CA-[C] |==|  0.61476
USER: genes 4 Torsion [N]-CA--C-[N] |==|  0.41359
USER: genes 5 Torsion [C]-N--CA-[CB] |==|  0.76169
USER: genes 6 Torsion [N]-CA--C-[O] |==|  0.40103
USER: genes 7 Torsion [CA]-C--O-[HO] |==|  0.25252
USER: genes 8 Torsion [N]-CA--CB-[CG] |==|  0.91002
USER: genes 9 Torsion [CA]-CB--CG-[OD1] |==|  0.81181
USER: genes 10 Torsion [N]-CA--CB-[CG1] |==|  0.23964
USER: genes 11 Torsion [C]-CA--CB-[CG] |==|  0.31978
USER: genes 12 Torsion [CA]-CB--CG-[CD] |==|  0.97736
USER: genes 13 Torsion [CB]-CG--CD-[OE1] |==|  0.30501
USER: genes 14 Torsion [C]-CA--N-[C] |==|  0.81640
USER: genes 15 Torsion [N]-C--CA-[N] |==|  0.27778
USER: genes 16 Torsion [C]-CA--N-[C] |==|  0.54575
USER: genes 17 Torsion [C]-CA--CB-[CG] |==|  0.26629
USER: genes 18 Torsion [CA]-CB--CG-[OD1] |==|  0.81102
ROOT
ATOM      1  CA  GLU C 503      39.420  94.311  19.439  1.00 22.23 LIG 0.18  C 
ENDROOT
BRANCH 1 2
ATOM      2  C   GLU C 503      39.266  95.362  20.535  1.00 22.23 LIG 0.24  C 
ATOM      3 O    GLU C 503      38.475  96.289  20.385  1.00 30.39 LIG-0.27  OA
ATOM      4  N   VAL C 504      40.016  95.221  21.626  1.00 14.81 LIG-0.35  N 
ATOM      5 H    VAL C 504      40.581  94.583  21.738  1.00 14.81 LIG 0.16  HD
BRANCH 4 6
ATOM      6  CA  VAL C 504      39.939  96.161  22.747  1.00 14.81 LIG 0.18  C 
BRANCH 6 7
ATOM      7  C   VAL C 504      41.302  96.524  23.346  1.00 14.81 LIG 0.26  C 
ATOM      8 O    VAL C 504      42.219  95.707  23.337  1.00 11.58 LIG-0.27  OA
ATOM      9 N    ASJ C 505      41.416  97.747  23.863  1.00  2.62 LIG-0.25  NA
BRANCH 9 10
ATOM     10  CA  ASJ C 505      42.649  98.271  24.472  1.00  2.62 LIG 0.15  C 
BRANCH 10 11
ATOM     11  C   ASJ C 505      43.895  97.739  23.786  1.00  2.62 LIG 0.17  C 
BRANCH 11 12
ATOM     12 O    ASJ C 505      44.901  98.762  23.765  1.00 19.56 LIG-0.39  OA
ATOM     13 HO   ASJ C 505      45.380  98.699  24.453  1.00 19.56 LIG 0.21  HD
ENDBRANCH 11 12
ENDBRANCH 10 11
BRANCH 10 14
ATOM     14  CB  ASJ C 505      42.732  97.874  25.940  1.00 12.55 LIG 0.14  C 
BRANCH 14 15
ATOM     15  CG  ASJ C 505      41.395  97.785  26.592  1.00 14.75 LIG 0.17  C 
ATOM     16 OD1  ASJ C 505      40.735  98.831  26.759  1.00 17.98 LIG-0.65  OA
ATOM     17 OD2  ASJ C 505      41.012  96.663  26.961  1.00 18.38 LIG-0.65  OA
ENDBRANCH 14 15
ENDBRANCH 10 14
ENDBRANCH 9 10
ENDBRANCH 6 7
BRANCH 6 18
ATOM     18  CB  VAL C 504      39.029  95.617  23.858  1.00 11.58 LIG 0.01  C 
ATOM     19  CG2 VAL C 504      38.396  96.767  24.626  1.00 11.58 LIG 0.01  C 
ATOM     20  CG1 VAL C 504      39.820  94.719  24.800  1.00 11.58 LIG 0.01  C 
ENDBRANCH 6 18
ENDBRANCH 4 6
ENDBRANCH 1 2
BRANCH 1 21
ATOM     21  CB  GLU C 503      40.548  94.707  18.485  1.00 30.39 LIG 0.04  C 
BRANCH 21 22
ATOM     22  CG  GLU C 503      41.729  93.749  18.504  1.00 30.39 LIG 0.12  C 
BRANCH 22 23
ATOM     23  CD  GLU C 503      41.641  92.705  19.601  1.00 30.39 LIG 0.17  C 
ATOM     24 OE1  GLU C 503      41.428  91.511  19.300  1.00 30.39 LIG-0.65  OA
ATOM     25 OE2  GLU C 503      41.804  93.079  20.777  1.00 30.39 LIG-0.65  OA
ENDBRANCH 22 23
ENDBRANCH 21 22
ENDBRANCH 1 21
BRANCH 1 26
ATOM     26  N   GLU C 503      38.157  94.219  18.715  1.00 22.23 LIG-0.35  N 
ATOM     27 H    GLU C 503      38.210  94.482  17.898  1.00 22.23 LIG 0.16  HD
ATOM     28  C   ASP C 502      37.026  93.771  19.258  1.00 15.66 LIG 0.24  C 
ATOM     29 O    ASP C 502      36.929  93.400  20.435  1.00 17.69 LIG-0.27  OA
BRANCH 28 30
ATOM     30  CA  ASP C 502      35.809  93.760  18.333  1.00 16.73 LIG 0.19  C 
BRANCH 30 31
ATOM     31  N   ASP C 502      35.527  92.445  17.780  1.00 28.47 LIG-0.35  N 
ATOM     32 H    ASP C 502      35.916  91.798  18.191  1.00 28.47 LIG 0.16  HD
ATOM     33  C   ACE C 501      34.735  92.278  16.728  1.00  7.47 LIG 0.21  C 
ATOM     34 O    ACE C 501      34.199  93.213  16.131  1.00 12.06 LIG-0.27  OA
ATOM     35  CH3 ACE C 501      34.517  90.851  16.265  1.00  7.47 LIG 0.12  C 
ENDBRANCH 30 31
BRANCH 30 36
ATOM     36  CB  ASP C 502      34.578  94.296  19.069  1.00 14.36 LIG 0.15  C 
BRANCH 36 37
ATOM     37  CG  ASP C 502      34.333  95.777  18.811  1.00 17.50 LIG 0.17  C 
ATOM     38 OD1  ASP C 502      35.137  96.621  19.260  1.00 20.94 LIG-0.65  OA
ATOM     39 OD2  ASP C 502      33.320  96.104  18.168  1.00 19.93 LIG-0.65  OA
ENDBRANCH 36 37
ENDBRANCH 30 36
ENDBRANCH 28 30
ENDBRANCH 1 26
TORSDOF 17
ENDMDL
MODEL 10
USER: ADFR SOLUTION from run 100
USER: SCORE 15.491833 LL:  -1.806 LR: -14.186 RR:   0.000 FEB:  -9.115
USER: RMSD 8.539721
USER: SEED 99
USER: STATUS no improvement in best 3 clusters for 5 generations
USER: GENES 19
USER: genes 0 Translation |==|  0.45759 0.49778 0.42563
USER: genes 1 Rotation |==|  0.91588 0.32914 0.33576 0.64449
USER: genes 2 Torsion [N]-CA--C-[N] |==|  0.93035
USER: genes 3 Torsion [C]-N--CA-[C] |==|  0.89444
USER: genes 4 Torsion [N]-CA--C-[N] |==|  0.34653
USER: genes 5 Torsion [C]-N--CA-[CB] |==|  0.39316
USER: genes 6 Torsion [N]-CA--C-[O] |==|  0.53892
USER: genes 7 Torsion [CA]-C--O-[HO] |==|  0.62203
USER: genes 8 Torsion [N]-CA--CB-[CG] |==|  0.17668
USER: genes 9 Torsion [CA]-CB--CG-[OD1] |==|  0.95353
USER: genes 10 Torsion [N]-CA--CB-[CG1] |==|  0.40005
USER: genes 11 Torsion [C]-CA--CB-[CG] |==|  0.55262
USER: genes 12 Torsion [CA]-CB--CG-[CD] |==|  0.41954
USER: genes 13 Torsion [CB]-CG--CD-[OE1] |==|  0.10843
USER: genes 14 Torsion [C]-CA--N-[C] |==|  0.80279
USER: genes 15 Torsion [N]-C--CA-[N] |==|  0.43075
USER: genes 16 Torsion [C]-CA--N-[C] |==|  0.80774
USER: genes 17 Torsion [C]-CA--CB-[CG] |==|  0.23098
USER: genes 18 Torsion [CA]-CB--CG-[OD1] |==|  0.02516
ROOT
ATOM      1  CA  GLU C 503      38.338  95.383  19.659  1.00 22.23 LIG 0.18  C 
ENDROOT
BRANCH 1 2
ATOM      2  C   GLU C 503      39.144  96.008  20.794  1.00 22.23 LIG 0.24  C 
ATOM      3 O    GLU C 503      39.985  96.867  20.545  1.00 30.39 LIG-0.27  OA
ATOM      4  N   VAL C 504      38.892  95.579  22.029  1.00 14.81 LIG-0.35  N 
ATOM      5 H    VAL C 504      38.314  94.971  22.216  1.00 14.81 LIG 0.16  HD
BRANCH 4 6
ATOM      6  CA  VAL C 504      39.595  96.119  23.196  1.00 14.81 LIG 0.18  C 
BRANCH 6 7
ATOM      7  C   VAL C 504      41.076  96.417  22.944  1.00 14.81 LIG 0.26  C 
ATOM      8 O    VAL C 504      41.822  95.535  22.526  1.00 11.58 LIG-0.27  OA
ATOM      9 N    ASJ C 505      41.485  97.659  23.206  1.00  2.62 LIG-0.25  NA
BRANCH 9 10
ATOM     10  CA  ASJ C 505      42.867  98.127  23.015  1.00  2.62 LIG 0.15  C 
BRANCH 10 11
ATOM     11  C   ASJ C 505      43.655  98.125  24.313  1.00  2.62 LIG 0.17  C 
BRANCH 11 12
ATOM     12 O    ASJ C 505      44.860  98.884  24.139  1.00 19.56 LIG-0.39  OA
ATOM     13 HO   ASJ C 505      45.505  98.470  24.486  1.00 19.56 LIG 0.21  HD
ENDBRANCH 11 12
ENDBRANCH 10 11
BRANCH 10 14
ATOM     14  CB  ASJ C 505      42.880  99.551  22.476  1.00 12.55 LIG 0.14  C 
BRANCH 14 15
ATOM     15  CG  ASJ C 505      42.285 100.534  23.426  1.00 14.75 LIG 0.17  C 
ATOM     16 OD1  ASJ C 505      41.577 100.115  24.363  1.00 17.98 LIG-0.65  OA
ATOM     17 OD2  ASJ C 505      42.509 101.738  23.216  1.00 18.38 LIG-0.65  OA
ENDBRANCH 14 15
ENDBRANCH 10 14
ENDBRANCH 9 10
ENDBRANCH 6 7
BRANCH 6 18
ATOM     18  CB  VAL C 504      39.468  95.174  24.400  1.00 11.58 LIG 0.01  C 
ATOM     19  CG2 VAL C 504      38.286  95.584  25.265  1.00 11.58 LIG 0.01  C 
ATOM     20  CG1 VAL C 504      40.753  95.179  25.216  1.00 11.58 LIG 0.01  C 
ENDBRANCH 6 18
ENDBRANCH 4 6
ENDBRANCH 1 2
BRANCH 1 21
ATOM     21  CB  GLU C 503      37.130  96.260  19.326  1.00 30.39 LIG 0.04  C 
BRANCH 21 22
ATOM     22  CG  GLU C 503      36.039  95.532  18.556  1.00 30.39 LIG 0.12  C 
BRANCH 22 23
ATOM     23  CD  GLU C 503      34.649  96.082  18.813  1.00 30.39 LIG 0.17  C 
ATOM     24 OE1  GLU C 503      34.486  97.315  18.924  1.00 30.39 LIG-0.65  OA
ATOM     25 OE2  GLU C 503      33.706  95.273  18.888  1.00 30.39 LIG-0.65  OA
ENDBRANCH 22 23
ENDBRANCH 21 22
ENDBRANCH 1 21
BRANCH 1 26
ATOM     26  N   GLU C 503      37.898  94.060  20.087  1.00 22.23 LIG-0.35  N 
ATOM     27 H    GLU C 503      37.053  94.013  20.241  1.00 22.23 LIG 0.16  HD
ATOM     28  C   ASP C 502      38.717  93.019  20.229  1.00 15.66 LIG 0.24  C 
ATOM     29 O    ASP C 502      39.936  93.072  20.024  1.00 17.69 LIG-0.27  OA
BRANCH 28 30
ATOM     30  CA  ASP C 502      38.060  91.721  20.695  1.00 16.73 LIG 0.19  C 
BRANCH 30 31
ATOM     31  N   ASP C 502      38.800  90.533  20.297  1.00 28.47 LIG-0.35  N 
ATOM     32 H    ASP C 502      39.173  90.115  20.950  1.00 28.47 LIG 0.16  HD
ATOM     33  C   ACE C 501      38.883  90.145  19.031  1.00  7.47 LIG 0.21  C 
ATOM     34 O    ACE C 501      38.364  90.763  18.100  1.00 12.06 LIG-0.27  OA
ATOM     35  CH3 ACE C 501      39.676  88.881  18.761  1.00  7.47 LIG 0.12  C 
ENDBRANCH 30 31
BRANCH 30 36
ATOM     36  CB  ASP C 502      37.868  91.737  22.214  1.00 14.36 LIG 0.15  C 
BRANCH 36 37
ATOM     37  CG  ASP C 502      36.605  92.473  22.643  1.00 17.50 LIG 0.17  C 
ATOM     38 OD1  ASP C 502      35.777  92.830  21.778  1.00 20.94 LIG-0.65  OA
ATOM     39 OD2  ASP C 502      36.444  92.711  23.853  1.00 19.93 LIG-0.65  OA
ENDBRANCH 36 37
ENDBRANCH 30 36
ENDBRANCH 28 30
ENDBRANCH 1 26
TORSDOF 17
ENDMDL
MODEL 11
USER: ADFR SOLUTION from run 16
USER: SCORE 15.599090 LL:  -1.802 LR: -14.178 RR:   0.000 FEB:  -9.106
USER: RMSD 7.176582
USER: SEED 64001
USER: STATUS no improvement in best 7 clusters for 5 generations
USER: GENES 19
USER: genes 0 Translation |==|  0.38356 0.46903 0.38588
USER: genes 1 Rotation |==|  0.18464 0.32441 0.23898 0.72712
USER: genes 2 Torsion [N]-CA--C-[N] |==|  0.00758
USER: genes 3 Torsion [C]-N--CA-[C] |==|  0.55594
USER: genes 4 Torsion [N]-CA--C-[N] |==|  0.44489
USER: genes 5 Torsion [C]-N--CA-[CB] |==|  0.35416
USER: genes 6 Torsion [N]-CA--C-[O] |==|  0.72158
USER: genes 7 Torsion [CA]-C--O-[HO] |==|  0.32120
USER: genes 8 Torsion [N]-CA--CB-[CG] |==|  0.88344
USER: genes 9 Torsion [CA]-CB--CG-[OD1] |==|  0.87659
USER: genes 10 Torsion [N]-CA--CB-[CG1] |==|  0.29341
USER: genes 11 Torsion [C]-CA--CB-[CG] |==|  0.25027
USER: genes 12 Torsion [CA]-CB--CG-[CD] |==|  0.12476
USER: genes 13 Torsion [CB]-CG--CD-[OE1] |==|  0.32469
USER: genes 14 Torsion [C]-CA--N-[C] |==|  0.78233
USER: genes 15 Torsion [N]-C--CA-[N] |==|  0.03223
USER: genes 16 Torsion [C]-CA--N-[C] |==|  0.66111
USER: genes 17 Torsion [C]-CA--CB-[CG] |==|  0.83130
USER: genes 18 Torsion [CA]-CB--CG-[OD1] |==|  0.29676
ROOT
ATOM      1  CA  GLU C 503      36.117  94.521  18.466  1.00 22.23 LIG 0.18  C 
ENDROOT
BRANCH 1 2
ATOM      2  C   GLU C 503      35.644  93.121  18.087  1.00 22.23 LIG 0.24  C 
ATOM      3 O    GLU C 503      34.482  92.945  17.730  1.00 30.39 LIG-0.27  OA
ATOM      4  N   VAL C 504      36.533  92.133  18.165  1.00 14.81 LIG-0.35  N 
ATOM      5 H    VAL C 504      37.346  92.241  18.424  1.00 14.81 LIG 0.16  HD
BRANCH 4 6
ATOM      6  CA  VAL C 504      36.193  90.753  17.810  1.00 14.81 LIG 0.18  C 
BRANCH 6 7
ATOM      7  C   VAL C 504      37.142  89.708  18.407  1.00 14.81 LIG 0.26  C 
ATOM      8 O    VAL C 504      38.261  90.036  18.789  1.00 11.58 LIG-0.27  OA
ATOM      9 N    ASJ C 505      36.681  88.459  18.475  1.00  2.62 LIG-0.25  NA
BRANCH 9 10
ATOM     10  CA  ASJ C 505      37.446  87.329  19.026  1.00  2.62 LIG 0.15  C 
BRANCH 10 11
ATOM     11  C   ASJ C 505      37.814  86.314  17.958  1.00  2.62 LIG 0.17  C 
BRANCH 11 12
ATOM     12 O    ASJ C 505      36.905  85.205  18.023  1.00 19.56 LIG-0.39  OA
ATOM     13 HO   ASJ C 505      36.458  85.168  17.312  1.00 19.56 LIG 0.21  HD
ENDBRANCH 11 12
ENDBRANCH 10 11
BRANCH 10 14
ATOM     14  CB  ASJ C 505      36.634  86.600  20.088  1.00 12.55 LIG 0.14  C 
BRANCH 14 15
ATOM     15  CG  ASJ C 505      35.904  87.528  20.997  1.00 14.75 LIG 0.17  C 
ATOM     16 OD1  ASJ C 505      36.501  88.528  21.445  1.00 17.98 LIG-0.65  OA
ATOM     17 OD2  ASJ C 505      34.730  87.241  21.284  1.00 18.38 LIG-0.65  OA
ENDBRANCH 14 15
ENDBRANCH 10 14
ENDBRANCH 9 10
ENDBRANCH 6 7
BRANCH 6 18
ATOM     18  CB  VAL C 504      36.142  90.575  16.286  1.00 11.58 LIG 0.01  C 
ATOM     19  CG2 VAL C 504      34.870  89.843  15.886  1.00 11.58 LIG 0.01  C 
ATOM     20  CG1 VAL C 504      37.369  89.816  15.799  1.00 11.58 LIG 0.01  C 
ENDBRANCH 6 18
ENDBRANCH 4 6
ENDBRANCH 1 2
BRANCH 1 21
ATOM     21  CB  GLU C 503      35.885  95.488  17.305  1.00 30.39 LIG 0.04  C 
BRANCH 21 22
ATOM     22  CG  GLU C 503      34.525  96.170  17.340  1.00 30.39 LIG 0.12  C 
BRANCH 22 23
ATOM     23  CD  GLU C 503      34.144  96.685  18.715  1.00 30.39 LIG 0.17  C 
ATOM     24 OE1  GLU C 503      33.986  97.912  18.890  1.00 30.39 LIG-0.65  OA
ATOM     25 OE2  GLU C 503      33.985  95.853  19.627  1.00 30.39 LIG-0.65  OA
ENDBRANCH 22 23
ENDBRANCH 21 22
ENDBRANCH 1 21
BRANCH 1 26
ATOM     26  N   GLU C 503      37.538  94.450  18.787  1.00 22.23 LIG-0.35  N 
ATOM     27 H    GLU C 503      38.047  94.731  18.153  1.00 22.23 LIG 0.16  HD
ATOM     28  C   ASP C 502      38.012  93.995  19.946  1.00 15.66 LIG 0.24  C 
ATOM     29 O    ASP C 502      37.296  93.575  20.864  1.00 17.69 LIG-0.27  OA
BRANCH 28 30
ATOM     30  CA  ASP C 502      39.534  93.996  20.082  1.00 16.73 LIG 0.19  C 
BRANCH 30 31
ATOM     31  N   ASP C 502      40.201  94.742  19.026  1.00 28.47 LIG-0.35  N 
ATOM     32 H    ASP C 502      39.960  95.565  18.971  1.00 28.47 LIG 0.16  HD
ATOM     33  C   ACE C 501      41.100  94.181  18.228  1.00  7.47 LIG 0.21  C 
ATOM     34 O    ACE C 501      41.423  92.995  18.302  1.00 12.06 LIG-0.27  OA
ATOM     35  CH3 ACE C 501      41.726  95.080  17.179  1.00  7.47 LIG 0.12  C 
ENDBRANCH 30 31
BRANCH 30 36
ATOM     36  CB  ASP C 502      39.944  94.544  21.453  1.00 14.36 LIG 0.15  C 
BRANCH 36 37
ATOM     37  CG  ASP C 502      39.483  95.979  21.678  1.00 17.50 LIG 0.17  C 
ATOM     38 OD1  ASP C 502      38.537  96.205  22.461  1.00 20.94 LIG-0.65  OA
ATOM     39 OD2  ASP C 502      40.060  96.887  21.054  1.00 19.93 LIG-0.65  OA
ENDBRANCH 36 37
ENDBRANCH 30 36
ENDBRANCH 28 30
ENDBRANCH 1 26
TORSDOF 17
ENDMDL
MODEL 12
USER: ADFR SOLUTION from run 146
USER: SCORE 15.419256 LL:  -1.935 LR: -14.169 RR:   0.000 FEB:  -9.098
USER: RMSD 5.049193
USER: SEED 145
USER: STATUS no improvement in best 4 clusters for 5 generations
USER: GENES 19
USER: genes 0 Translation |==|  0.54891 0.49007 0.53025
USER: genes 1 Rotation |==|  0.67982 0.45709 0.91982 0.69894
USER: genes 2 Torsion [N]-CA--C-[N] |==|  0.84444
USER: genes 3 Torsion [C]-N--CA-[C] |==|  0.67949
USER: genes 4 Torsion [N]-CA--C-[N] |==|  0.44923
USER: genes 5 Torsion [C]-N--CA-[CB] |==|  0.43160
USER: genes 6 Torsion [N]-CA--C-[O] |==|  0.66500
USER: genes 7 Torsion [CA]-C--O-[HO] |==|  0.32337
USER: genes 8 Torsion [N]-CA--CB-[CG] |==|  0.68650
USER: genes 9 Torsion [CA]-CB--CG-[OD1] |==|  0.52480
USER: genes 10 Torsion [N]-CA--CB-[CG1] |==|  0.81065
USER: genes 11 Torsion [C]-CA--CB-[CG] |==|  0.38402
USER: genes 12 Torsion [CA]-CB--CG-[CD] |==|  0.54182
USER: genes 13 Torsion [CB]-CG--CD-[OE1] |==|  0.30735
USER: genes 14 Torsion [C]-CA--N-[C] |==|  0.82650
USER: genes 15 Torsion [N]-C--CA-[N] |==|  0.93800
USER: genes 16 Torsion [C]-CA--N-[C] |==|  0.72446
USER: genes 17 Torsion [C]-CA--CB-[CG] |==|  0.33686
USER: genes 18 Torsion [CA]-CB--CG-[OD1] |==|  0.87172
ROOT
ATOM      1  CA  GLU C 503      41.077  95.152  22.797  1.00 22.23 LIG 0.18  C 
ENDROOT
BRANCH 1 2
ATOM      2  C   GLU C 503      40.388  95.441  21.467  1.00 22.23 LIG 0.24  C 
ATOM      3 O    GLU C 503      40.360  96.588  21.030  1.00 30.39 LIG-0.27  OA
ATOM      4  N   VAL C 504      39.832  94.412  20.831  1.00 14.81 LIG-0.35  N 
ATOM      5 H    VAL C 504      39.835  93.606  21.131  1.00 14.81 LIG 0.16  HD
BRANCH 4 6
ATOM      6  CA  VAL C 504      39.158  94.570  19.540  1.00 14.81 LIG 0.18  C 
BRANCH 6 7
ATOM      7  C   VAL C 504      37.657  94.269  19.584  1.00 14.81 LIG 0.26  C 
ATOM      8 O    VAL C 504      37.183  93.620  20.512  1.00 11.58 LIG-0.27  OA
ATOM      9 N    ASJ C 505      36.926  94.744  18.575  1.00  2.62 LIG-0.25  NA
BRANCH 9 10
ATOM     10  CA  ASJ C 505      35.471  94.562  18.456  1.00  2.62 LIG 0.15  C 
BRANCH 10 11
ATOM     11  C   ASJ C 505      35.112  93.236  17.809  1.00  2.62 LIG 0.17  C 
BRANCH 11 12
ATOM     12 O    ASJ C 505      34.353  93.478  16.616  1.00 19.56 LIG-0.39  OA
ATOM     13 HO   ASJ C 505      34.782  93.200  15.949  1.00 19.56 LIG 0.21  HD
ENDBRANCH 11 12
ENDBRANCH 10 11
BRANCH 10 14
ATOM     14  CB  ASJ C 505      34.861  95.665  17.601  1.00 12.55 LIG 0.14  C 
BRANCH 14 15
ATOM     15  CG  ASJ C 505      33.973  96.575  18.379  1.00 14.75 LIG 0.17  C 
ATOM     16 OD1  ASJ C 505      33.283  97.414  17.765  1.00 17.98 LIG-0.65  OA
ATOM     17 OD2  ASJ C 505      33.985  96.465  19.616  1.00 18.38 LIG-0.65  OA
ENDBRANCH 14 15
ENDBRANCH 10 14
ENDBRANCH 9 10
ENDBRANCH 6 7
BRANCH 6 18
ATOM     18  CB  VAL C 504      39.816  93.692  18.465  1.00 11.58 LIG 0.01  C 
ATOM     19  CG2 VAL C 504      39.872  92.246  18.934  1.00 11.58 LIG 0.01  C 
ATOM     20  CG1 VAL C 504      41.214  94.202  18.145  1.00 11.58 LIG 0.01  C 
ENDBRANCH 6 18
ENDBRANCH 4 6
ENDBRANCH 1 2
BRANCH 1 21
ATOM     21  CB  GLU C 503      42.285  94.240  22.577  1.00 30.39 LIG 0.04  C 
BRANCH 21 22
ATOM     22  CG  GLU C 503      43.507  94.638  23.390  1.00 30.39 LIG 0.12  C 
BRANCH 22 23
ATOM     23  CD  GLU C 503      44.788  93.979  22.915  1.00 30.39 LIG 0.17  C 
ATOM     24 OE1  GLU C 503      45.670  94.672  22.366  1.00 30.39 LIG-0.65  OA
ATOM     25 OE2  GLU C 503      44.922  92.756  23.109  1.00 30.39 LIG-0.65  OA
ENDBRANCH 22 23
ENDBRANCH 21 22
ENDBRANCH 1 21
BRANCH 1 26
ATOM     26  N   GLU C 503      40.112  94.506  23.680  1.00 22.23 LIG-0.35  N 
ATOM     27 H    GLU C 503      40.338  93.709  23.910  1.00 22.23 LIG 0.16  HD
ATOM     28  C   ASP C 502      38.987  95.087  24.095  1.00 15.66 LIG 0.24  C 
ATOM     29 O    ASP C 502      38.641  96.228  23.765  1.00 17.69 LIG-0.27  OA
BRANCH 28 30
ATOM     30  CA  ASP C 502      38.106  94.239  25.011  1.00 16.73 LIG 0.19  C 
BRANCH 30 31
ATOM     31  N   ASP C 502      38.350  92.811  24.874  1.00 28.47 LIG-0.35  N 
ATOM     32 H    ASP C 502      39.035  92.527  25.309  1.00 28.47 LIG 0.16  HD
ATOM     33  C   ACE C 501      37.570  92.031  24.137  1.00  7.47 LIG 0.21  C 
ATOM     34 O    ACE C 501      36.602  92.450  23.501  1.00 12.06 LIG-0.27  OA
ATOM     35  CH3 ACE C 501      37.932  90.559  24.095  1.00  7.47 LIG 0.12  C 
ENDBRANCH 30 31
BRANCH 30 36
ATOM     36  CB  ASP C 502      38.290  94.666  26.470  1.00 14.36 LIG 0.15  C 
BRANCH 36 37
ATOM     37  CG  ASP C 502      36.989  95.120  27.122  1.00 17.50 LIG 0.17  C 
ATOM     38 OD1  ASP C 502      36.235  95.905  26.510  1.00 20.94 LIG-0.65  OA
ATOM     39 OD2  ASP C 502      36.724  94.700  28.263  1.00 19.93 LIG-0.65  OA
ENDBRANCH 36 37
ENDBRANCH 30 36
ENDBRANCH 28 30
ENDBRANCH 1 26
TORSDOF 17
ENDMDL
MODEL 13
USER: ADFR SOLUTION from run 26
USER: SCORE 16.040292 LL:  -2.424 LR: -14.033 RR:   0.000 FEB:  -8.962
USER: RMSD 4.190109
USER: SEED 25
USER: STATUS 1 or 2 clusters left
USER: GENES 19
USER: genes 0 Translation |==|  0.54242 0.46418 0.40978
USER: genes 1 Rotation |==|  0.71870 0.69740 0.84857 0.70421
USER: genes 2 Torsion [N]-CA--C-[N] |==|  0.93333
USER: genes 3 Torsion [C]-N--CA-[C] |==|  0.77118
USER: genes 4 Torsion [N]-CA--C-[N] |==|  0.29099
USER: genes 5 Torsion [C]-N--CA-[CB] |==|  0.25531
USER: genes 6 Torsion [N]-CA--C-[O] |==|  0.05586
USER: genes 7 Torsion [CA]-C--O-[HO] |==|  0.11952
USER: genes 8 Torsion [N]-CA--CB-[CG] |==|  0.59695
USER: genes 9 Torsion [CA]-CB--CG-[OD1] |==|  0.68003
USER: genes 10 Torsion [N]-CA--CB-[CG1] |==|  0.75112
USER: genes 11 Torsion [C]-CA--CB-[CG] |==|  0.95178
USER: genes 12 Torsion [CA]-CB--CG-[CD] |==|  0.79004
USER: genes 13 Torsion [CB]-CG--CD-[OE1] |==|  0.50401
USER: genes 14 Torsion [C]-CA--N-[C] |==|  0.75113
USER: genes 15 Torsion [N]-C--CA-[N] |==|  0.34206
USER: genes 16 Torsion [C]-CA--N-[C] |==|  0.73995
USER: genes 17 Torsion [C]-CA--CB-[CG] |==|  0.60609
USER: genes 18 Torsion [CA]-CB--CG-[OD1] |==|  0.84801
ROOT
ATOM      1  CA  GLU C 503      40.883  94.375  19.183  1.00 22.23 LIG 0.18  C 
ENDROOT
BRANCH 1 2
ATOM      2  C   GLU C 503      39.615  93.661  18.725  1.00 22.23 LIG 0.24  C 
ATOM      3 O    GLU C 503      39.235  93.776  17.563  1.00 30.39 LIG-0.27  OA
ATOM      4  N   VAL C 504      38.964  92.931  19.628  1.00 14.81 LIG-0.35  N 
ATOM      5 H    VAL C 504      39.213  92.851  20.447  1.00 14.81 LIG 0.16  HD
BRANCH 4 6
ATOM      6  CA  VAL C 504      37.745  92.190  19.295  1.00 14.81 LIG 0.18  C 
BRANCH 6 7
ATOM      7  C   VAL C 504      36.474  93.045  19.320  1.00 14.81 LIG 0.26  C 
ATOM      8 O    VAL C 504      35.972  93.377  20.390  1.00 11.58 LIG-0.27  OA
ATOM      9 N    ASJ C 505      35.966  93.388  18.136  1.00  2.62 LIG-0.25  NA
BRANCH 9 10
ATOM     10  CA  ASJ C 505      34.759  94.212  17.966  1.00  2.62 LIG 0.15  C 
BRANCH 10 11
ATOM     11  C   ASJ C 505      33.985  93.841  16.713  1.00  2.62 LIG 0.17  C 
BRANCH 11 12
ATOM     12 O    ASJ C 505      34.359  92.520  16.296  1.00 19.56 LIG-0.39  OA
ATOM     13 HO   ASJ C 505      34.403  92.016  16.967  1.00 19.56 LIG 0.21  HD
ENDBRANCH 11 12
ENDBRANCH 10 11
BRANCH 10 14
ATOM     14  CB  ASJ C 505      35.128  95.685  17.854  1.00 12.55 LIG 0.14  C 
BRANCH 14 15
ATOM     15  CG  ASJ C 505      34.120  96.584  18.484  1.00 14.75 LIG 0.17  C 
ATOM     16 OD1  ASJ C 505      33.480  97.374  17.761  1.00 17.98 LIG-0.65  OA
ATOM     17 OD2  ASJ C 505      33.985  96.516  19.717  1.00 18.38 LIG-0.65  OA
ENDBRANCH 14 15
ENDBRANCH 10 14
ENDBRANCH 9 10
ENDBRANCH 6 7
BRANCH 6 18
ATOM     18  CB  VAL C 504      37.561  90.986  20.231  1.00 11.58 LIG 0.01  C 
ATOM     19  CG2 VAL C 504      38.113  91.309  21.612  1.00 11.58 LIG 0.01  C 
ATOM     20  CG1 VAL C 504      38.249  89.756  19.657  1.00 11.58 LIG 0.01  C 
ENDBRANCH 6 18
ENDBRANCH 4 6
ENDBRANCH 1 2
BRANCH 1 21
ATOM     21  CB  GLU C 503      42.114  93.542  18.828  1.00 30.39 LIG 0.04  C 
BRANCH 21 22
ATOM     22  CG  GLU C 503      41.799  92.088  18.515  1.00 30.39 LIG 0.12  C 
BRANCH 22 23
ATOM     23  CD  GLU C 503      41.499  91.256  19.747  1.00 30.39 LIG 0.17  C 
ATOM     24 OE1  GLU C 503      41.251  90.038  19.623  1.00 30.39 LIG-0.65  OA
ATOM     25 OE2  GLU C 503      41.528  91.823  20.855  1.00 30.39 LIG-0.65  OA
ENDBRANCH 22 23
ENDBRANCH 21 22
ENDBRANCH 1 21
BRANCH 1 26
ATOM     26  N   GLU C 503      40.801  94.565  20.628  1.00 22.23 LIG-0.35  N 
ATOM     27 H    GLU C 503      41.140  93.915  21.078  1.00 22.23 LIG 0.16  HD
ATOM     28  C   ASP C 502      40.257  95.637  21.202  1.00 15.66 LIG 0.24  C 
ATOM     29 O    ASP C 502      39.755  96.575  20.570  1.00 17.69 LIG-0.27  OA
BRANCH 28 30
ATOM     30  CA  ASP C 502      40.264  95.641  22.730  1.00 16.73 LIG 0.19  C 
BRANCH 30 31
ATOM     31  N   ASP C 502      40.932  96.804  23.293  1.00 28.47 LIG-0.35  N 
ATOM     32 H    ASP C 502      40.424  97.492  23.386  1.00 28.47 LIG 0.16  HD
ATOM     33  C   ACE C 501      42.215  96.786  23.629  1.00  7.47 LIG 0.21  C 
ATOM     34 O    ACE C 501      42.940  95.802  23.473  1.00 12.06 LIG-0.27  OA
ATOM     35  CH3 ACE C 501      42.779  98.064  24.218  1.00  7.47 LIG 0.12  C 
ENDBRANCH 30 31
BRANCH 30 36
ATOM     36  CB  ASP C 502      38.833  95.545  23.268  1.00 14.36 LIG 0.15  C 
BRANCH 36 37
ATOM     37  CG  ASP C 502      38.608  96.404  24.507  1.00 17.50 LIG 0.17  C 
ATOM     38 OD1  ASP C 502      39.354  96.261  25.498  1.00 20.94 LIG-0.65  OA
ATOM     39 OD2  ASP C 502      37.668  97.218  24.496  1.00 19.93 LIG-0.65  OA
ENDBRANCH 36 37
ENDBRANCH 30 36
ENDBRANCH 28 30
ENDBRANCH 1 26
TORSDOF 17
ENDMDL
