MODEL 1
USER: ADFR SOLUTION from run 93
USER: SCORE 13.235425 LL:  -1.451 LR: -11.966 RR:   0.000 FEB:  -8.983
USER: RMSD 6.537718
USER: SEED 92
USER: STATUS no improvement in best 17 clusters for 5 generations
USER: GENES 12
USER: genes 0 Translation |==|  0.49562 0.39194 0.52195
USER: genes 1 Rotation |==|  0.52284 0.93856 0.26347 0.53458
USER: genes 2 Torsion [C]-CA--N-[C] |==|  0.69808
USER: genes 3 Torsion [N]-C--CA-[N] |==|  0.94171
USER: genes 4 Torsion [C]-CA--N-[H1] |==|  0.09573
USER: genes 5 Torsion [N]-CA--C-[N] |==|  0.33061
USER: genes 6 Torsion [C]-N--CA-[CB] |==|  0.12141
USER: genes 7 Torsion [N]-CA--CB-[CG] |==|  0.50805
USER: genes 8 Torsion [CA]-CB--CG-[CD2] |==|  0.23622
USER: genes 9 Torsion [N]-CA--C-[OXT] |==|  0.23741
USER: genes 10 Torsion [N]-CA--CB-[CG2] |==|  0.38148
USER: genes 11 Torsion [CA]-CB--CG1-[CD1] |==|  0.27193
ROOT
ATOM      1  CA  ILE B   2      75.938  43.588  17.518  1.00 64.17 LIG 0.18  C 
ENDROOT
BRANCH 1 2
ATOM      2  N   ILE B   2      76.760  44.768  17.281  1.00 64.56 LIG-0.35  N 
ATOM      3  C   ALA B   1      76.310  45.996  17.525  1.00 64.53 LIG 0.25  C 
ATOM      4 O    ALA B   1      75.184  46.220  17.971  1.00 64.21 LIG-0.27  OA
ATOM      5 H    ILE B   2      77.546  44.598  16.976  1.00 64.56 LIG 0.16  HD
BRANCH 3 6
ATOM      6  CA  ALA B   1      77.281  47.139  17.224  1.00 64.34 LIG 0.27  C 
ATOM      7  CB  ALA B   1      76.922  47.795  15.896  1.00 65.15 LIG 0.05  C 
BRANCH 6 8
ATOM      8  N   ALA B   1      78.695  46.667  17.191  1.00 63.44 LIG-0.07  N 
ATOM      9 H1   ALA B   1      78.724  45.841  16.860  1.00 63.44 LIG 0.28  HD
ATOM     10 H2   ALA B   1      79.177  47.210  16.678  1.00 63.44 LIG 0.28  HD
ATOM     11 H3   ALA B   1      79.027  46.667  18.017  1.00 63.44 LIG 0.28  HD
ENDBRANCH 6 8
ENDBRANCH 3 6
ENDBRANCH 1 2
BRANCH 1 12
ATOM     12  C   ILE B   2      76.437  42.794  18.722  1.00 63.93 LIG 0.24  C 
ATOM     13  N   HIS B   3      75.583  42.662  19.731  1.00 63.34 LIG-0.34  N 
ATOM     14 H    HIS B   3      74.788  42.993  19.738  1.00 63.34 LIG 0.16  HD
ATOM     15 O    ILE B   2      77.570  42.310  18.735  1.00 63.64 LIG-0.27  OA
BRANCH 13 16
ATOM     16  CA  HIS B   3      75.943  41.924  20.934  1.00 63.18 LIG 0.19  C 
BRANCH 16 17
ATOM     17  CB  HIS B   3      77.362  42.289  21.377  1.00 62.24 LIG 0.10  C 
BRANCH 17 18
ATOM     18  CG  HIS B   3      77.841  41.523  22.571  1.00 63.21 LIG 0.05  A 
ATOM     19  CD2 HIS B   3      78.426  40.305  22.674  1.00 62.69 LIG 0.12  A 
ATOM     20  NE2 HIS B   3      78.663  40.080  24.008  1.00 63.05 LIG-0.36  N 
ATOM     21 HE2  HIS B   3      79.028  39.375  24.339  1.00 63.05 LIG 0.17  HD
ATOM     22  CE1 HIS B   3      78.240  41.122  24.701  1.00 63.79 LIG 0.21  A 
ATOM     23 ND1  HIS B   3      77.739  42.008  23.858  1.00 63.44 LIG-0.25  NA
ENDBRANCH 17 18
ENDBRANCH 16 17
BRANCH 16 24
ATOM     24  C   HIS B   3      74.958  42.239  22.053  1.00 63.55 LIG 0.20  C 
ATOM     25 OXT  HIS B   3      73.901  41.580  22.110  1.00 62.89 LIG-0.65  OA
ATOM     26 O    HIS B   3      75.260  43.141  22.865  1.00 64.85 LIG-0.65  OA
ENDBRANCH 16 24
ENDBRANCH 13 16
ENDBRANCH 1 12
BRANCH 1 27
ATOM     27  CB  ILE B   2      75.932  42.662  16.286  1.00 64.73 LIG 0.01  C 
ATOM     28  CG2 ILE B   2      76.070  41.206  16.724  1.00 64.62 LIG 0.01  C 
BRANCH 27 29
ATOM     29  CG1 ILE B   2      74.640  42.870  15.493  1.00 64.82 LIG 0.00  C 
ATOM     30  CD1 ILE B   2      74.787  43.800  14.310  1.00 66.82 LIG 0.01  C 
ENDBRANCH 27 29
ENDBRANCH 1 27
TORSDOF 10
ENDMDL
MODEL 2
USER: ADFR SOLUTION from run 30
USER: SCORE 12.988908 LL:  -1.795 LR: -11.410 RR:   0.000 FEB:  -8.427
USER: RMSD 5.881816
USER: SEED 29
USER: STATUS no improvement in best 18 clusters for 5 generations
USER: GENES 12
USER: genes 0 Translation |==|  0.51808 0.40961 0.43921
USER: genes 1 Rotation |==|  0.78987 0.23243 0.27415 0.70827
USER: genes 2 Torsion [C]-CA--N-[C] |==|  0.18332
USER: genes 3 Torsion [N]-C--CA-[N] |==|  0.07349
USER: genes 4 Torsion [C]-CA--N-[H1] |==|  0.96041
USER: genes 5 Torsion [N]-CA--C-[N] |==|  0.11607
USER: genes 6 Torsion [C]-N--CA-[CB] |==|  0.16061
USER: genes 7 Torsion [N]-CA--CB-[CG] |==|  0.69468
USER: genes 8 Torsion [CA]-CB--CG-[CD2] |==|  0.33581
USER: genes 9 Torsion [N]-CA--C-[OXT] |==|  0.61806
USER: genes 10 Torsion [N]-CA--CB-[CG2] |==|  0.50248
USER: genes 11 Torsion [CA]-CB--CG1-[CD1] |==|  0.87222
ROOT
ATOM      1  CA  ILE B   2      76.612  44.118  15.036  1.00 64.17 LIG 0.18  C 
ENDROOT
BRANCH 1 2
ATOM      2  N   ILE B   2      77.133  44.792  16.219  1.00 64.56 LIG-0.35  N 
ATOM      3  C   ALA B   1      76.633  45.949  16.644  1.00 64.53 LIG 0.25  C 
ATOM      4 O    ALA B   1      75.699  46.523  16.079  1.00 64.21 LIG-0.27  OA
ATOM      5 H    ILE B   2      77.779  44.379  16.607  1.00 64.56 LIG 0.16  HD
BRANCH 3 6
ATOM      6  CA  ALA B   1      77.281  46.542  17.895  1.00 64.34 LIG 0.27  C 
ATOM      7  CB  ALA B   1      77.221  48.065  17.844  1.00 65.15 LIG 0.05  C 
BRANCH 6 8
ATOM      8  N   ALA B   1      78.695  46.095  18.048  1.00 63.44 LIG-0.07  N 
ATOM      9 H1   ALA B   1      78.848  45.406  17.506  1.00 63.44 LIG 0.28  HD
ATOM     10 H2   ALA B   1      79.243  46.764  17.840  1.00 63.44 LIG 0.28  HD
ATOM     11 H3   ALA B   1      78.838  45.845  18.891  1.00 63.44 LIG 0.28  HD
ENDBRANCH 6 8
ENDBRANCH 3 6
ENDBRANCH 1 2
BRANCH 1 12
ATOM     12  C   ILE B   2      76.882  44.926  13.770  1.00 63.93 LIG 0.24  C 
ATOM     13  N   HIS B   3      78.082  45.487  13.678  1.00 63.34 LIG-0.34  N 
ATOM     14 H    HIS B   3      78.694  45.420  14.279  1.00 63.34 LIG 0.16  HD
ATOM     15 O    ILE B   2      76.021  45.035  12.895  1.00 63.64 LIG-0.27  OA
BRANCH 13 16
ATOM     16  CA  HIS B   3      78.458  46.280  12.515  1.00 63.18 LIG 0.19  C 
BRANCH 16 17
ATOM     17  CB  HIS B   3      77.481  47.443  12.326  1.00 62.24 LIG 0.10  C 
BRANCH 17 18
ATOM     18  CG  HIS B   3      76.590  47.300  11.130  1.00 63.21 LIG 0.05  A 
ATOM     19  CD2 HIS B   3      75.241  47.254  11.022  1.00 62.69 LIG 0.12  A 
ATOM     20  NE2 HIS B   3      74.945  47.112   9.689  1.00 63.05 LIG-0.36  N 
ATOM     21 HE2  HIS B   3      74.154  47.058   9.355  1.00 63.05 LIG 0.17  HD
ATOM     22  CE1 HIS B   3      76.072  47.073   9.000  1.00 63.79 LIG 0.21  A 
ATOM     23 ND1  HIS B   3      77.081  47.185   9.847  1.00 63.44 LIG-0.25  NA
ENDBRANCH 17 18
ENDBRANCH 16 17
BRANCH 16 24
ATOM     24  C   HIS B   3      79.872  46.819  12.687  1.00 63.55 LIG 0.20  C 
ATOM     25 OXT  HIS B   3      80.095  48.002  12.359  1.00 62.89 LIG-0.65  OA
ATOM     26 O    HIS B   3      80.741  46.052  13.155  1.00 64.85 LIG-0.65  OA
ENDBRANCH 16 24
ENDBRANCH 13 16
ENDBRANCH 1 12
BRANCH 1 27
ATOM     27  CB  ILE B   2      75.093  43.883  15.157  1.00 64.73 LIG 0.01  C 
ATOM     28  CG2 ILE B   2      74.576  43.157  13.917  1.00 64.62 LIG 0.01  C 
BRANCH 27 29
ATOM     29  CG1 ILE B   2      74.796  43.077  16.422  1.00 64.82 LIG 0.00  C 
ATOM     30  CD1 ILE B   2      75.702  41.884  16.620  1.00 66.82 LIG 0.01  C 
ENDBRANCH 27 29
ENDBRANCH 1 27
TORSDOF 10
ENDMDL
MODEL 3
USER: ADFR SOLUTION from run 119
USER: SCORE 13.322724 LL:  -1.998 LR: -11.369 RR:   0.000 FEB:  -8.386
USER: RMSD 6.848673
USER: SEED 118
USER: STATUS no improvement in best 8 clusters for 5 generations
USER: GENES 12
USER: genes 0 Translation |==|  0.47024 0.47649 0.38303
USER: genes 1 Rotation |==|  0.69557 0.23465 0.86780 0.57786
USER: genes 2 Torsion [C]-CA--N-[C] |==|  0.84084
USER: genes 3 Torsion [N]-C--CA-[N] |==|  0.10354
USER: genes 4 Torsion [C]-CA--N-[H1] |==|  0.47376
USER: genes 5 Torsion [N]-CA--C-[N] |==|  0.88956
USER: genes 6 Torsion [C]-N--CA-[CB] |==|  0.20891
USER: genes 7 Torsion [N]-CA--CB-[CG] |==|  0.52528
USER: genes 8 Torsion [CA]-CB--CG-[CD2] |==|  0.15101
USER: genes 9 Torsion [N]-CA--C-[OXT] |==|  0.42359
USER: genes 10 Torsion [N]-CA--CB-[CG2] |==|  0.40439
USER: genes 11 Torsion [CA]-CB--CG1-[CD1] |==|  0.63404
ROOT
ATOM      1  CA  ILE B   2      75.177  46.125  13.351  1.00 64.17 LIG 0.18  C 
ENDROOT
BRANCH 1 2
ATOM      2  N   ILE B   2      74.718  46.608  12.055  1.00 64.56 LIG-0.35  N 
ATOM      3  C   ALA B   1      74.552  47.905  11.809  1.00 64.53 LIG 0.25  C 
ATOM      4 O    ALA B   1      74.779  48.780  12.647  1.00 64.21 LIG-0.27  OA
ATOM      5 H    ILE B   2      74.569  45.988  11.478  1.00 64.56 LIG 0.16  HD
BRANCH 3 6
ATOM      6  CA  ALA B   1      74.061  48.265  10.406  1.00 64.34 LIG 0.27  C 
ATOM      7  CB  ALA B   1      73.445  49.660  10.409  1.00 65.15 LIG 0.05  C 
BRANCH 6 8
ATOM      8  N   ALA B   1      73.070  47.273   9.898  1.00 63.44 LIG-0.07  N 
ATOM      9 H1   ALA B   1      72.703  47.579   9.146  1.00 63.44 LIG 0.28  HD
ATOM     10 H2   ALA B   1      73.480  46.500   9.735  1.00 63.44 LIG 0.28  HD
ATOM     11 H3   ALA B   1      72.435  47.149  10.508  1.00 63.44 LIG 0.28  HD
ENDBRANCH 6 8
ENDBRANCH 3 6
ENDBRANCH 1 2
BRANCH 1 12
ATOM     12  C   ILE B   2      76.522  46.736  13.730  1.00 63.93 LIG 0.24  C 
ATOM     13  N   HIS B   3      77.406  46.864  12.747  1.00 63.34 LIG-0.34  N 
ATOM     14 H    HIS B   3      77.261  46.625  11.933  1.00 63.34 LIG 0.16  HD
ATOM     15 O    ILE B   2      76.752  47.087  14.889  1.00 63.64 LIG-0.27  OA
BRANCH 13 16
ATOM     16  CA  HIS B   3      78.724  47.437  12.986  1.00 63.18 LIG 0.19  C 
BRANCH 16 17
ATOM     17  CB  HIS B   3      79.619  46.429  13.710  1.00 62.24 LIG 0.10  C 
BRANCH 17 18
ATOM     18  CG  HIS B   3      80.917  47.003  14.188  1.00 63.21 LIG 0.05  A 
ATOM     19  CD2 HIS B   3      81.184  48.077  14.970  1.00 62.69 LIG 0.12  A 
ATOM     20  NE2 HIS B   3      82.550  48.156  15.096  1.00 63.05 LIG-0.36  N 
ATOM     21 HE2  HIS B   3      82.976  48.754  15.545  1.00 63.05 LIG 0.17  HD
ATOM     22  CE1 HIS B   3      83.103  47.166  14.418  1.00 63.79 LIG 0.21  A 
ATOM     23 ND1  HIS B   3      82.139  46.455  13.860  1.00 63.44 LIG-0.25  NA
ENDBRANCH 17 18
ENDBRANCH 16 17
BRANCH 16 24
ATOM     24  C   HIS B   3      79.365  47.836  11.663  1.00 63.55 LIG 0.20  C 
ATOM     25 OXT  HIS B   3      80.195  48.767  11.667  1.00 62.89 LIG-0.65  OA
ATOM     26 O    HIS B   3      79.033  47.206  10.635  1.00 64.85 LIG-0.65  OA
ENDBRANCH 16 24
ENDBRANCH 13 16
ENDBRANCH 1 12
BRANCH 1 27
ATOM     27  CB  ILE B   2      75.316  44.589  13.351  1.00 64.73 LIG 0.01  C 
ATOM     28  CG2 ILE B   2      76.491  44.170  14.232  1.00 64.62 LIG 0.01  C 
BRANCH 27 29
ATOM     29  CG1 ILE B   2      74.014  43.954  13.843  1.00 64.82 LIG 0.00  C 
ATOM     30  CD1 ILE B   2      74.208  42.895  14.904  1.00 66.82 LIG 0.01  C 
ENDBRANCH 27 29
ENDBRANCH 1 27
TORSDOF 10
ENDMDL
MODEL 4
USER: ADFR SOLUTION from run 11
USER: SCORE 12.810236 LL:  -2.199 LR: -11.018 RR:   0.000 FEB:  -8.035
USER: RMSD 5.619410
USER: SEED 598451
USER: STATUS no improvement in best 10 clusters for 5 generations
USER: GENES 12
USER: genes 0 Translation |==|  0.49631 0.38368 0.52034
USER: genes 1 Rotation |==|  0.53759 0.95530 0.30464 0.55588
USER: genes 2 Torsion [C]-CA--N-[C] |==|  0.69590
USER: genes 3 Torsion [N]-C--CA-[N] |==|  0.98543
USER: genes 4 Torsion [C]-CA--N-[H1] |==|  0.08170
USER: genes 5 Torsion [N]-CA--C-[N] |==|  0.25001
USER: genes 6 Torsion [C]-N--CA-[CB] |==|  0.15651
USER: genes 7 Torsion [N]-CA--CB-[CG] |==|  0.07380
USER: genes 8 Torsion [CA]-CB--CG-[CD2] |==|  0.17793
USER: genes 9 Torsion [N]-CA--C-[OXT] |==|  0.73160
USER: genes 10 Torsion [N]-CA--CB-[CG2] |==|  0.58800
USER: genes 11 Torsion [CA]-CB--CG1-[CD1] |==|  0.72426
ROOT
ATOM      1  CA  ILE B   2      75.959  43.340  17.470  1.00 64.17 LIG 0.18  C 
ENDROOT
BRANCH 1 2
ATOM      2  N   ILE B   2      76.787  44.539  17.531  1.00 64.56 LIG-0.35  N 
ATOM      3  C   ALA B   1      76.295  45.711  17.923  1.00 64.53 LIG 0.25  C 
ATOM      4 O    ALA B   1      75.121  45.864  18.266  1.00 64.21 LIG-0.27  OA
ATOM      5 H    ILE B   2      77.604  44.417  17.295  1.00 64.56 LIG 0.16  HD
BRANCH 3 6
ATOM      6  CA  ALA B   1      77.278  46.882  17.933  1.00 64.34 LIG 0.27  C 
ATOM      7  CB  ALA B   1      76.829  47.951  16.943  1.00 65.15 LIG 0.05  C 
BRANCH 6 8
ATOM      8  N   ALA B   1      78.665  46.440  17.609  1.00 63.44 LIG-0.07  N 
ATOM      9 H1   ALA B   1      78.632  45.728  17.075  1.00 63.44 LIG 0.28  HD
ATOM     10 H2   ALA B   1      79.098  47.100  17.198  1.00 63.44 LIG 0.28  HD
ATOM     11 H3   ALA B   1      79.092  46.228  18.360  1.00 63.44 LIG 0.28  HD
ENDBRANCH 6 8
ENDBRANCH 3 6
ENDBRANCH 1 2
BRANCH 1 12
ATOM     12  C   ILE B   2      76.338  42.345  18.562  1.00 63.93 LIG 0.24  C 
ATOM     13  N   HIS B   3      75.695  42.469  19.718  1.00 63.34 LIG-0.34  N 
ATOM     14 H    HIS B   3      75.096  43.066  19.875  1.00 63.34 LIG 0.16  HD
ATOM     15 O    ILE B   2      77.194  41.481  18.360  1.00 63.64 LIG-0.27  OA
BRANCH 13 16
ATOM     16  CA  HIS B   3      75.969  41.575  20.834  1.00 63.18 LIG 0.19  C 
BRANCH 16 17
ATOM     17  CB  HIS B   3      77.457  41.612  21.193  1.00 62.24 LIG 0.10  C 
BRANCH 17 18
ATOM     18  CG  HIS B   3      78.135  42.898  20.833  1.00 63.21 LIG 0.05  A 
ATOM     19  CD2 HIS B   3      77.948  44.162  21.282  1.00 62.69 LIG 0.12  A 
ATOM     20  NE2 HIS B   3      78.841  44.966  20.616  1.00 63.05 LIG-0.36  N 
ATOM     21 HE2  HIS B   3      78.924  45.815  20.721  1.00 63.05 LIG 0.17  HD
ATOM     22  CE1 HIS B   3      79.553  44.222  19.787  1.00 63.79 LIG 0.21  A 
ATOM     23 ND1  HIS B   3      79.147  42.970  19.899  1.00 63.44 LIG-0.25  NA
ENDBRANCH 17 18
ENDBRANCH 16 17
BRANCH 16 24
ATOM     24  C   HIS B   3      75.139  41.984  22.044  1.00 63.55 LIG 0.20  C 
ATOM     25 OXT  HIS B   3      75.673  42.706  22.909  1.00 62.89 LIG-0.65  OA
ATOM     26 O    HIS B   3      73.957  41.580  22.110  1.00 64.85 LIG-0.65  OA
ENDBRANCH 16 24
ENDBRANCH 13 16
ENDBRANCH 1 12
BRANCH 1 27
ATOM     27  CB  ILE B   2      76.093  42.645  16.101  1.00 64.73 LIG 0.01  C 
ATOM     28  CG2 ILE B   2      74.781  41.955  15.733  1.00 64.62 LIG 0.01  C 
BRANCH 27 29
ATOM     29  CG1 ILE B   2      76.483  43.673  15.037  1.00 64.82 LIG 0.00  C 
ATOM     30  CD1 ILE B   2      75.322  44.167  14.204  1.00 66.82 LIG 0.01  C 
ENDBRANCH 27 29
ENDBRANCH 1 27
TORSDOF 10
ENDMDL
MODEL 5
USER: ADFR SOLUTION from run 37
USER: SCORE 12.102599 LL:  -1.549 LR: -10.981 RR:   0.000 FEB:  -7.998
USER: RMSD 6.153786
USER: SEED 36
USER: STATUS no improvement in best 9 clusters for 5 generations
USER: GENES 12
USER: genes 0 Translation |==|  0.47485 0.47767 0.41656
USER: genes 1 Rotation |==|  0.68772 0.20126 0.74986 0.75117
USER: genes 2 Torsion [C]-CA--N-[C] |==|  0.10965
USER: genes 3 Torsion [N]-C--CA-[N] |==|  0.64293
USER: genes 4 Torsion [C]-CA--N-[H1] |==|  0.59878
USER: genes 5 Torsion [N]-CA--C-[N] |==|  0.16111
USER: genes 6 Torsion [C]-N--CA-[CB] |==|  0.23102
USER: genes 7 Torsion [N]-CA--CB-[CG] |==|  0.18663
USER: genes 8 Torsion [CA]-CB--CG-[CD2] |==|  0.72643
USER: genes 9 Torsion [N]-CA--C-[OXT] |==|  0.05999
USER: genes 10 Torsion [N]-CA--CB-[CG2] |==|  0.18129
USER: genes 11 Torsion [CA]-CB--CG1-[CD1] |==|  0.55852
ROOT
ATOM      1  CA  ILE B   2      75.315  46.160  14.357  1.00 64.17 LIG 0.18  C 
ENDROOT
BRANCH 1 2
ATOM      2  N   ILE B   2      74.741  47.104  13.406  1.00 64.56 LIG-0.35  N 
ATOM      3  C   ALA B   1      74.953  46.998  12.098  1.00 64.53 LIG 0.25  C 
ATOM      4 O    ALA B   1      75.635  46.100  11.600  1.00 64.21 LIG-0.27  OA
ATOM      5 H    ILE B   2      74.262  47.721  13.766  1.00 64.56 LIG 0.16  HD
BRANCH 3 6
ATOM      6  CA  ALA B   1      74.290  48.061  11.221  1.00 64.34 LIG 0.27  C 
ATOM      7  CB  ALA B   1      73.383  48.948  12.068  1.00 65.15 LIG 0.05  C 
BRANCH 6 8
ATOM      8  N   ALA B   1      73.507  47.449  10.109  1.00 63.44 LIG-0.07  N 
ATOM      9 H1   ALA B   1      73.571  47.961   9.384  1.00 63.44 LIG 0.28  HD
ATOM     10 H2   ALA B   1      73.829  46.639   9.930  1.00 63.44 LIG 0.28  HD
ATOM     11 H3   ALA B   1      72.653  47.382  10.350  1.00 63.44 LIG 0.28  HD
ENDBRANCH 6 8
ENDBRANCH 3 6
ENDBRANCH 1 2
BRANCH 1 12
ATOM     12  C   ILE B   2      76.741  45.779  13.971  1.00 63.93 LIG 0.24  C 
ATOM     13  N   HIS B   3      77.608  46.780  13.868  1.00 63.34 LIG-0.34  N 
ATOM     14 H    HIS B   3      77.410  47.607  14.002  1.00 63.34 LIG 0.16  HD
ATOM     15 O    ILE B   2      77.049  44.602  13.773  1.00 63.64 LIG-0.27  OA
BRANCH 13 16
ATOM     16  CA  HIS B   3      78.999  46.541  13.508  1.00 63.18 LIG 0.19  C 
BRANCH 16 17
ATOM     17  CB  HIS B   3      79.144  46.430  11.988  1.00 62.24 LIG 0.10  C 
BRANCH 17 18
ATOM     18  CG  HIS B   3      78.876  47.710  11.258  1.00 63.21 LIG 0.05  A 
ATOM     19  CD2 HIS B   3      77.769  48.157  10.618  1.00 62.69 LIG 0.12  A 
ATOM     20  NE2 HIS B   3      78.064  49.402  10.119  1.00 63.05 LIG-0.36  N 
ATOM     21 HE2  HIS B   3      77.526  49.900   9.669  1.00 63.05 LIG 0.17  HD
ATOM     22  CE1 HIS B   3      79.307  49.711  10.442  1.00 63.79 LIG 0.21  A 
ATOM     23 ND1  HIS B   3      79.820  48.707  11.130  1.00 63.44 LIG-0.25  NA
ENDBRANCH 17 18
ENDBRANCH 16 17
BRANCH 16 24
ATOM     24  C   HIS B   3      79.873  47.676  14.026  1.00 63.55 LIG 0.20  C 
ATOM     25 OXT  HIS B   3      79.441  48.370  14.968  1.00 62.89 LIG-0.65  OA
ATOM     26 O    HIS B   3      80.987  47.855  13.485  1.00 64.85 LIG-0.65  OA
ENDBRANCH 16 24
ENDBRANCH 13 16
ENDBRANCH 1 12
BRANCH 1 27
ATOM     27  CB  ILE B   2      74.468  44.875  14.443  1.00 64.73 LIG 0.01  C 
ATOM     28  CG2 ILE B   2      74.507  44.132  13.110  1.00 64.62 LIG 0.01  C 
BRANCH 27 29
ATOM     29  CG1 ILE B   2      74.990  43.989  15.575  1.00 64.82 LIG 0.00  C 
ATOM     30  CD1 ILE B   2      74.599  42.534  15.449  1.00 66.82 LIG 0.01  C 
ENDBRANCH 27 29
ENDBRANCH 1 27
TORSDOF 10
ENDMDL
MODEL 6
USER: ADFR SOLUTION from run 16
USER: SCORE 12.873063 LL:  -2.097 LR: -10.936 RR:   0.000 FEB:  -7.953
USER: RMSD 6.069998
USER: SEED 697689
USER: STATUS no improvement in best 8 clusters for 5 generations
USER: GENES 12
USER: genes 0 Translation |==|  0.48204 0.38872 0.52976
USER: genes 1 Rotation |==|  0.44172 0.94171 0.28011 0.55605
USER: genes 2 Torsion [C]-CA--N-[C] |==|  0.72505
USER: genes 3 Torsion [N]-C--CA-[N] |==|  0.27496
USER: genes 4 Torsion [C]-CA--N-[H1] |==|  0.06462
USER: genes 5 Torsion [N]-CA--C-[N] |==|  0.31714
USER: genes 6 Torsion [C]-N--CA-[CB] |==|  0.17210
USER: genes 7 Torsion [N]-CA--CB-[CG] |==|  0.18891
USER: genes 8 Torsion [CA]-CB--CG-[CD2] |==|  0.87439
USER: genes 9 Torsion [N]-CA--C-[OXT] |==|  0.46125
USER: genes 10 Torsion [N]-CA--CB-[CG2] |==|  0.41591
USER: genes 11 Torsion [CA]-CB--CG1-[CD1] |==|  0.29765
ROOT
ATOM      1  CA  ILE B   2      75.531  43.491  17.753  1.00 64.17 LIG 0.18  C 
ENDROOT
BRANCH 1 2
ATOM      2  N   ILE B   2      75.904  44.881  17.519  1.00 64.56 LIG-0.35  N 
ATOM      3  C   ALA B   1      75.197  45.890  18.020  1.00 64.53 LIG 0.25  C 
ATOM      4 O    ALA B   1      74.193  45.724  18.716  1.00 64.21 LIG-0.27  OA
ATOM      5 H    ILE B   2      76.609  44.983  17.037  1.00 64.56 LIG 0.16  HD
BRANCH 3 6
ATOM      6  CA  ALA B   1      75.703  47.295  17.689  1.00 64.34 LIG 0.27  C 
ATOM      7  CB  ALA B   1      75.604  48.191  18.919  1.00 65.15 LIG 0.05  C 
BRANCH 6 8
ATOM      8  N   ALA B   1      74.945  47.901  16.557  1.00 63.44 LIG-0.07  N 
ATOM      9 H1   ALA B   1      74.147  47.513  16.493  1.00 63.44 LIG 0.28  HD
ATOM     10 H2   ALA B   1      74.841  48.773  16.702  1.00 63.44 LIG 0.28  HD
ATOM     11 H3   ALA B   1      75.395  47.778  15.799  1.00 63.44 LIG 0.28  HD
ENDBRANCH 6 8
ENDBRANCH 3 6
ENDBRANCH 1 2
BRANCH 1 12
ATOM     12  C   ILE B   2      76.356  42.875  18.878  1.00 63.93 LIG 0.24  C 
ATOM     13  N   HIS B   3      75.688  42.537  19.976  1.00 63.34 LIG-0.34  N 
ATOM     14 H    HIS B   3      74.841  42.647  20.080  1.00 63.34 LIG 0.16  HD
ATOM     15 O    ILE B   2      77.570  42.707  18.753  1.00 63.64 LIG-0.27  OA
BRANCH 13 16
ATOM     16  CA  HIS B   3      76.366  41.937  21.117  1.00 63.18 LIG 0.19  C 
BRANCH 16 17
ATOM     17  CB  HIS B   3      77.410  42.903  21.684  1.00 62.24 LIG 0.10  C 
BRANCH 17 18
ATOM     18  CG  HIS B   3      76.823  44.121  22.328  1.00 63.21 LIG 0.05  A 
ATOM     19  CD2 HIS B   3      75.836  44.957  21.925  1.00 62.69 LIG 0.12  A 
ATOM     20  NE2 HIS B   3      75.695  45.917  22.897  1.00 63.05 LIG-0.36  N 
ATOM     21 HE2  HIS B   3      75.132  46.567  22.879  1.00 63.05 LIG 0.17  HD
ATOM     22  CE1 HIS B   3      76.563  45.679  23.865  1.00 63.79 LIG 0.21  A 
ATOM     23 ND1  HIS B   3      77.256  44.600  23.547  1.00 63.44 LIG-0.25  NA
ENDBRANCH 17 18
ENDBRANCH 16 17
BRANCH 16 24
ATOM     24  C   HIS B   3      75.353  41.584  22.199  1.00 63.55 LIG 0.20  C 
ATOM     25 OXT  HIS B   3      75.715  40.830  23.123  1.00 62.89 LIG-0.65  OA
ATOM     26 O    HIS B   3      74.205  42.073  22.110  1.00 64.85 LIG-0.65  OA
ENDBRANCH 16 24
ENDBRANCH 13 16
ENDBRANCH 1 12
BRANCH 1 27
ATOM     27  CB  ILE B   2      75.725  42.645  16.479  1.00 64.73 LIG 0.01  C 
ATOM     28  CG2 ILE B   2      76.070  41.206  16.854  1.00 64.62 LIG 0.01  C 
BRANCH 27 29
ATOM     29  CG1 ILE B   2      74.454  42.695  15.629  1.00 64.82 LIG 0.00  C 
ATOM     30  CD1 ILE B   2      74.583  43.532  14.377  1.00 66.82 LIG 0.01  C 
ENDBRANCH 27 29
ENDBRANCH 1 27
TORSDOF 10
ENDMDL
MODEL 7
USER: ADFR SOLUTION from run 145
USER: SCORE 12.507503 LL:  -1.672 LR: -10.899 RR:   0.000 FEB:  -7.916
USER: RMSD 8.622702
USER: SEED 144
USER: STATUS no improvement in best 13 clusters for 5 generations
USER: GENES 12
USER: genes 0 Translation |==|  0.54335 0.51791 0.36008
USER: genes 1 Rotation |==|  0.82936 0.28864 0.73668 0.70207
USER: genes 2 Torsion [C]-CA--N-[C] |==|  0.16354
USER: genes 3 Torsion [N]-C--CA-[N] |==|  0.60046
USER: genes 4 Torsion [C]-CA--N-[H1] |==|  0.70374
USER: genes 5 Torsion [N]-CA--C-[N] |==|  0.09448
USER: genes 6 Torsion [C]-N--CA-[CB] |==|  0.43824
USER: genes 7 Torsion [N]-CA--CB-[CG] |==|  0.57676
USER: genes 8 Torsion [CA]-CB--CG-[CD2] |==|  0.45991
USER: genes 9 Torsion [N]-CA--C-[OXT] |==|  0.61006
USER: genes 10 Torsion [N]-CA--CB-[CG2] |==|  0.55718
USER: genes 11 Torsion [CA]-CB--CG1-[CD1] |==|  0.66860
ROOT
ATOM      1  CA  ILE B   2      77.371  47.367  12.662  1.00 64.17 LIG 0.18  C 
ENDROOT
BRANCH 1 2
ATOM      2  N   ILE B   2      76.096  47.935  12.241  1.00 64.56 LIG-0.35  N 
ATOM      3  C   ALA B   1      75.625  47.762  11.009  1.00 64.53 LIG 0.25  C 
ATOM      4 O    ALA B   1      76.221  47.110  10.149  1.00 64.21 LIG-0.27  OA
ATOM      5 H    ILE B   2      75.688  48.383  12.851  1.00 64.56 LIG 0.16  HD
BRANCH 3 6
ATOM      6  CA  ALA B   1      74.278  48.420  10.707  1.00 64.34 LIG 0.27  C 
ATOM      7  CB  ALA B   1      73.520  48.683  12.003  1.00 65.15 LIG 0.05  C 
BRANCH 6 8
ATOM      8  N   ALA B   1      73.448  47.580   9.795  1.00 63.44 LIG-0.07  N 
ATOM      9 H1   ALA B   1      73.431  47.949   8.985  1.00 63.44 LIG 0.28  HD
ATOM     10 H2   ALA B   1      73.798  46.763   9.743  1.00 63.44 LIG 0.28  HD
ATOM     11 H3   ALA B   1      72.618  47.527  10.114  1.00 63.44 LIG 0.28  HD
ENDBRANCH 6 8
ENDBRANCH 3 6
ENDBRANCH 1 2
BRANCH 1 12
ATOM     12  C   ILE B   2      78.520  47.872  11.796  1.00 63.93 LIG 0.24  C 
ATOM     13  N   HIS B   3      78.416  49.120  11.352  1.00 63.34 LIG-0.34  N 
ATOM     14 H    HIS B   3      77.753  49.639  11.524  1.00 63.34 LIG 0.16  HD
ATOM     15 O    ILE B   2      79.482  47.146  11.536  1.00 63.64 LIG-0.27  OA
BRANCH 13 16
ATOM     16  CA  HIS B   3      79.452  49.713  10.518  1.00 63.18 LIG 0.19  C 
BRANCH 16 17
ATOM     17  CB  HIS B   3      78.881  50.882   9.712  1.00 62.24 LIG 0.10  C 
BRANCH 17 18
ATOM     18  CG  HIS B   3      79.592  51.131   8.417  1.00 63.21 LIG 0.05  A 
ATOM     19  CD2 HIS B   3      79.246  51.872   7.337  1.00 62.69 LIG 0.12  A 
ATOM     20  NE2 HIS B   3      80.264  51.754   6.422  1.00 63.05 LIG-0.36  N 
ATOM     21 HE2  HIS B   3      80.286  52.131   5.649  1.00 63.05 LIG 0.17  HD
ATOM     22  CE1 HIS B   3      81.203  50.970   6.922  1.00 63.79 LIG 0.21  A 
ATOM     23 ND1  HIS B   3      80.822  50.581   8.125  1.00 63.44 LIG-0.25  NA
ENDBRANCH 17 18
ENDBRANCH 16 17
BRANCH 16 24
ATOM     24  C   HIS B   3      80.603  50.204  11.389  1.00 63.55 LIG 0.20  C 
ATOM     25 OXT  HIS B   3      81.145  51.287  11.093  1.00 62.89 LIG-0.65  OA
ATOM     26 O    HIS B   3      80.945  49.498  12.363  1.00 64.85 LIG-0.65  OA
ENDBRANCH 16 24
ENDBRANCH 13 16
ENDBRANCH 1 12
BRANCH 1 27
ATOM     27  CB  ILE B   2      77.340  45.828  12.594  1.00 64.73 LIG 0.01  C 
ATOM     28  CG2 ILE B   2      78.432  45.241  13.485  1.00 64.62 LIG 0.01  C 
BRANCH 27 29
ATOM     29  CG1 ILE B   2      75.961  45.320  13.019  1.00 64.82 LIG 0.00  C 
ATOM     30  CD1 ILE B   2      75.983  44.421  14.233  1.00 66.82 LIG 0.01  C 
ENDBRANCH 27 29
ENDBRANCH 1 27
TORSDOF 10
ENDMDL
MODEL 8
USER: ADFR SOLUTION from run 102
USER: SCORE 12.646658 LL:  -1.883 LR: -10.813 RR:   0.000 FEB:  -7.830
USER: RMSD 6.502488
USER: SEED 101
USER: STATUS no improvement in best 9 clusters for 5 generations
USER: GENES 12
USER: genes 0 Translation |==|  0.46830 0.47242 0.38305
USER: genes 1 Rotation |==|  0.67150 0.24199 0.89109 0.53272
USER: genes 2 Torsion [C]-CA--N-[C] |==|  0.84834
USER: genes 3 Torsion [N]-C--CA-[N] |==|  0.20526
USER: genes 4 Torsion [C]-CA--N-[H1] |==|  0.10454
USER: genes 5 Torsion [N]-CA--C-[N] |==|  0.89556
USER: genes 6 Torsion [C]-N--CA-[CB] |==|  0.13997
USER: genes 7 Torsion [N]-CA--CB-[CG] |==|  0.66450
USER: genes 8 Torsion [CA]-CB--CG-[CD2] |==|  0.34875
USER: genes 9 Torsion [N]-CA--C-[OXT] |==|  0.37483
USER: genes 10 Torsion [N]-CA--CB-[CG2] |==|  0.36448
USER: genes 11 Torsion [CA]-CB--CG1-[CD1] |==|  0.63136
ROOT
ATOM      1  CA  ILE B   2      75.119  46.003  13.351  1.00 64.17 LIG 0.18  C 
ENDROOT
BRANCH 1 2
ATOM      2  N   ILE B   2      74.878  46.428  11.978  1.00 64.56 LIG-0.35  N 
ATOM      3  C   ALA B   1      74.680  47.705  11.664  1.00 64.53 LIG 0.25  C 
ATOM      4 O    ALA B   1      74.695  48.610  12.500  1.00 64.21 LIG-0.27  OA
ATOM      5 H    ILE B   2      74.876  45.787  11.404  1.00 64.56 LIG 0.16  HD
BRANCH 3 6
ATOM      6  CA  ALA B   1      74.434  48.002  10.185  1.00 64.34 LIG 0.27  C 
ATOM      7  CB  ALA B   1      74.624  49.490   9.911  1.00 65.15 LIG 0.05  C 
BRANCH 6 8
ATOM      8  N   ALA B   1      73.070  47.578   9.756  1.00 63.44 LIG-0.07  N 
ATOM      9 H1   ALA B   1      72.489  47.741  10.410  1.00 63.44 LIG 0.28  HD
ATOM     10 H2   ALA B   1      72.833  48.032   9.028  1.00 63.44 LIG 0.28  HD
ATOM     11 H3   ALA B   1      73.074  46.707   9.574  1.00 63.44 LIG 0.28  HD
ENDBRANCH 6 8
ENDBRANCH 3 6
ENDBRANCH 1 2
BRANCH 1 12
ATOM     12  C   ILE B   2      76.290  46.759  13.971  1.00 63.93 LIG 0.24  C 
ATOM     13  N   HIS B   3      77.314  47.016  13.165  1.00 63.34 LIG-0.34  N 
ATOM     14 H    HIS B   3      77.348  46.784  12.338  1.00 63.34 LIG 0.16  HD
ATOM     15 O    ILE B   2      76.264  47.103  15.155  1.00 63.64 LIG-0.27  OA
BRANCH 13 16
ATOM     16  CA  HIS B   3      78.488  47.734  13.642  1.00 63.18 LIG 0.19  C 
BRANCH 16 17
ATOM     17  CB  HIS B   3      79.008  47.103  14.937  1.00 62.24 LIG 0.10  C 
BRANCH 17 18
ATOM     18  CG  HIS B   3      79.036  48.044  16.102  1.00 63.21 LIG 0.05  A 
ATOM     19  CD2 HIS B   3      78.495  47.948  17.340  1.00 62.69 LIG 0.12  A 
ATOM     20  NE2 HIS B   3      78.824  49.097  18.017  1.00 63.05 LIG-0.36  N 
ATOM     21 HE2  HIS B   3      78.599  49.282  18.826  1.00 63.05 LIG 0.17  HD
ATOM     22  CE1 HIS B   3      79.542  49.872  17.224  1.00 63.79 LIG 0.21  A 
ATOM     23 ND1  HIS B   3      79.685  49.260  16.062  1.00 63.44 LIG-0.25  NA
ENDBRANCH 17 18
ENDBRANCH 16 17
BRANCH 16 24
ATOM     24  C   HIS B   3      79.582  47.705  12.582  1.00 63.55 LIG 0.20  C 
ATOM     25 OXT  HIS B   3      80.190  48.766  12.333  1.00 62.89 LIG-0.65  OA
ATOM     26 O    HIS B   3      79.822  46.617  12.015  1.00 64.85 LIG-0.65  OA
ENDBRANCH 16 24
ENDBRANCH 13 16
ENDBRANCH 1 12
BRANCH 1 27
ATOM     27  CB  ILE B   2      75.417  44.492  13.419  1.00 64.73 LIG 0.01  C 
ATOM     28  CG2 ILE B   2      76.668  44.241  14.257  1.00 64.62 LIG 0.01  C 
BRANCH 27 29
ATOM     29  CG1 ILE B   2      74.212  43.755  14.008  1.00 64.82 LIG 0.00  C 
ATOM     30  CD1 ILE B   2      74.566  42.762  15.091  1.00 66.82 LIG 0.01  C 
ENDBRANCH 27 29
ENDBRANCH 1 27
TORSDOF 10
ENDMDL
MODEL 9
USER: ADFR SOLUTION from run 7
USER: SCORE 12.302123 LL:  -2.274 LR: -10.789 RR:   0.000 FEB:  -7.806
USER: RMSD 6.556930
USER: SEED 98099
USER: STATUS no improvement in best 18 clusters for 5 generations
USER: GENES 12
USER: genes 0 Translation |==|  0.50702 0.42052 0.40459
USER: genes 1 Rotation |==|  0.27391 0.82999 0.79785 0.53571
USER: genes 2 Torsion [C]-CA--N-[C] |==|  0.58366
USER: genes 3 Torsion [N]-C--CA-[N] |==|  0.62551
USER: genes 4 Torsion [C]-CA--N-[H1] |==|  0.93205
USER: genes 5 Torsion [N]-CA--C-[N] |==|  0.58846
USER: genes 6 Torsion [C]-N--CA-[CB] |==|  0.44108
USER: genes 7 Torsion [N]-CA--CB-[CG] |==|  0.04016
USER: genes 8 Torsion [CA]-CB--CG-[CD2] |==|  0.71285
USER: genes 9 Torsion [N]-CA--C-[OXT] |==|  0.01178
USER: genes 10 Torsion [N]-CA--CB-[CG2] |==|  0.70017
USER: genes 11 Torsion [CA]-CB--CG1-[CD1] |==|  0.38075
ROOT
ATOM      1  CA  ILE B   2      76.281  44.446  13.998  1.00 64.17 LIG 0.18  C 
ENDROOT
BRANCH 1 2
ATOM      2  N   ILE B   2      76.416  44.042  15.392  1.00 64.56 LIG-0.35  N 
ATOM      3  C   ALA B   1      75.697  43.047  15.906  1.00 64.53 LIG 0.25  C 
ATOM      4 O    ALA B   1      74.883  42.398  15.247  1.00 64.21 LIG-0.27  OA
ATOM      5 H    ILE B   2      76.991  44.498  15.839  1.00 64.56 LIG 0.16  HD
BRANCH 3 6
ATOM      6  CA  ALA B   1      75.941  42.737  17.383  1.00 64.34 LIG 0.27  C 
ATOM      7  CB  ALA B   1      77.195  43.455  17.870  1.00 65.15 LIG 0.05  C 
BRANCH 6 8
ATOM      8  N   ALA B   1      76.070  41.271  17.624  1.00 63.44 LIG-0.07  N 
ATOM      9 H1   ALA B   1      75.648  40.826  16.979  1.00 63.44 LIG 0.28  HD
ATOM     10 H2   ALA B   1      76.931  41.045  17.627  1.00 63.44 LIG 0.28  HD
ATOM     11 H3   ALA B   1      75.707  41.066  18.411  1.00 63.44 LIG 0.28  HD
ENDBRANCH 6 8
ENDBRANCH 3 6
ENDBRANCH 1 2
BRANCH 1 12
ATOM     12  C   ILE B   2      77.589  45.007  13.451  1.00 63.93 LIG 0.24  C 
ATOM     13  N   HIS B   3      77.480  45.954  12.526  1.00 63.34 LIG-0.34  N 
ATOM     14 H    HIS B   3      76.730  46.256  12.230  1.00 63.34 LIG 0.16  HD
ATOM     15 O    ILE B   2      78.675  44.591  13.859  1.00 63.64 LIG-0.27  OA
BRANCH 13 16
ATOM     16  CA  HIS B   3      78.659  46.569  11.931  1.00 63.18 LIG 0.19  C 
BRANCH 16 17
ATOM     17  CB  HIS B   3      78.305  47.205  10.584  1.00 62.24 LIG 0.10  C 
BRANCH 17 18
ATOM     18  CG  HIS B   3      76.833  47.358  10.354  1.00 63.21 LIG 0.05  A 
ATOM     19  CD2 HIS B   3      75.970  46.648   9.589  1.00 62.69 LIG 0.12  A 
ATOM     20  NE2 HIS B   3      74.729  47.218   9.741  1.00 63.05 LIG-0.36  N 
ATOM     21 HE2  HIS B   3      74.007  46.951   9.358  1.00 63.05 LIG 0.17  HD
ATOM     22  CE1 HIS B   3      74.825  48.242  10.570  1.00 63.79 LIG 0.21  A 
ATOM     23 ND1  HIS B   3      76.085  48.349  10.955  1.00 63.44 LIG-0.25  NA
ENDBRANCH 17 18
ENDBRANCH 16 17
BRANCH 16 24
ATOM     24  C   HIS B   3      79.221  47.630  12.868  1.00 63.55 LIG 0.20  C 
ATOM     25 OXT  HIS B   3      78.689  47.770  13.987  1.00 62.89 LIG-0.65  OA
ATOM     26 O    HIS B   3      80.195  48.308  12.472  1.00 64.85 LIG-0.65  OA
ENDBRANCH 16 24
ENDBRANCH 13 16
ENDBRANCH 1 12
BRANCH 1 27
ATOM     27  CB  ILE B   2      75.180  45.513  13.835  1.00 64.73 LIG 0.01  C 
ATOM     28  CG2 ILE B   2      73.959  44.906  13.149  1.00 64.62 LIG 0.01  C 
BRANCH 27 29
ATOM     29  CG1 ILE B   2      74.808  46.082  15.205  1.00 64.82 LIG 0.00  C 
ATOM     30  CD1 ILE B   2      74.638  47.584  15.223  1.00 66.82 LIG 0.01  C 
ENDBRANCH 27 29
ENDBRANCH 1 27
TORSDOF 10
ENDMDL
MODEL 10
USER: ADFR SOLUTION from run 135
USER: SCORE 12.727725 LL:  -2.261 LR: -10.706 RR:   0.000 FEB:  -7.723
USER: RMSD 5.897447
USER: SEED 134
USER: STATUS no improvement in best 10 clusters for 5 generations
USER: GENES 12
USER: genes 0 Translation |==|  0.51624 0.40411 0.43459
USER: genes 1 Rotation |==|  0.79660 0.26096 0.23739 0.68954
USER: genes 2 Torsion [C]-CA--N-[C] |==|  0.19437
USER: genes 3 Torsion [N]-C--CA-[N] |==|  0.21733
USER: genes 4 Torsion [C]-CA--N-[H1] |==|  0.56375
USER: genes 5 Torsion [N]-CA--C-[N] |==|  0.07808
USER: genes 6 Torsion [C]-N--CA-[CB] |==|  0.27989
USER: genes 7 Torsion [N]-CA--CB-[CG] |==|  0.86851
USER: genes 8 Torsion [CA]-CB--CG-[CD2] |==|  0.35979
USER: genes 9 Torsion [N]-CA--C-[OXT] |==|  0.62057
USER: genes 10 Torsion [N]-CA--CB-[CG2] |==|  0.51963
USER: genes 11 Torsion [CA]-CB--CG1-[CD1] |==|  0.89478
ROOT
ATOM      1  CA  ILE B   2      76.557  43.953  14.898  1.00 64.17 LIG 0.18  C 
ENDROOT
BRANCH 1 2
ATOM      2  N   ILE B   2      77.184  44.394  16.138  1.00 64.56 LIG-0.35  N 
ATOM      3  C   ALA B   1      76.697  45.408  16.847  1.00 64.53 LIG 0.25  C 
ATOM      4 O    ALA B   1      75.689  46.035  16.516  1.00 64.21 LIG-0.27  OA
ATOM      5 H    ILE B   2      77.882  43.945  16.361  1.00 64.56 LIG 0.16  HD
BRANCH 3 6
ATOM      6  CA  ALA B   1      77.461  45.762  18.124  1.00 64.34 LIG 0.27  C 
ATOM      7  CB  ALA B   1      76.561  46.549  19.071  1.00 65.15 LIG 0.05  C 
BRANCH 6 8
ATOM      8  N   ALA B   1      78.695  46.546  17.828  1.00 63.44 LIG-0.07  N 
ATOM      9 H1   ALA B   1      79.272  46.455  18.500  1.00 63.44 LIG 0.28  HD
ATOM     10 H2   ALA B   1      79.064  46.245  17.076  1.00 63.44 LIG 0.28  HD
ATOM     11 H3   ALA B   1      78.485  47.405  17.733  1.00 63.44 LIG 0.28  HD
ENDBRANCH 6 8
ENDBRANCH 3 6
ENDBRANCH 1 2
BRANCH 1 12
ATOM     12  C   ILE B   2      76.744  44.979  13.784  1.00 63.93 LIG 0.24  C 
ATOM     13  N   HIS B   3      77.830  45.739  13.863  1.00 63.34 LIG-0.34  N 
ATOM     14 H    HIS B   3      78.414  45.684  14.493  1.00 63.34 LIG 0.16  HD
ATOM     15 O    ILE B   2      75.922  45.076  12.871  1.00 63.64 LIG-0.27  OA
BRANCH 13 16
ATOM     16  CA  HIS B   3      78.118  46.752  12.857  1.00 63.18 LIG 0.19  C 
BRANCH 16 17
ATOM     17  CB  HIS B   3      77.726  48.139  13.371  1.00 62.24 LIG 0.10  C 
BRANCH 17 18
ATOM     18  CG  HIS B   3      76.364  48.194  13.991  1.00 63.21 LIG 0.05  A 
ATOM     19  CD2 HIS B   3      75.943  48.688  15.180  1.00 62.69 LIG 0.12  A 
ATOM     20  NE2 HIS B   3      74.588  48.480  15.249  1.00 63.05 LIG-0.36  N 
ATOM     21 HE2  HIS B   3      74.081  48.704  15.907  1.00 63.05 LIG 0.17  HD
ATOM     22  CE1 HIS B   3      74.188  47.881  14.142  1.00 63.79 LIG 0.21  A 
ATOM     23 ND1  HIS B   3      75.240  47.697  13.365  1.00 63.44 LIG-0.25  NA
ENDBRANCH 17 18
ENDBRANCH 16 17
BRANCH 16 24
ATOM     24  C   HIS B   3      79.601  46.733  12.509  1.00 63.55 LIG 0.20  C 
ATOM     25 OXT  HIS B   3      80.195  47.824  12.399  1.00 62.89 LIG-0.65  OA
ATOM     26 O    HIS B   3      80.155  45.622  12.355  1.00 64.85 LIG-0.65  OA
ENDBRANCH 16 24
ENDBRANCH 13 16
ENDBRANCH 1 12
BRANCH 1 27
ATOM     27  CB  ILE B   2      75.048  43.710  15.096  1.00 64.73 LIG 0.01  C 
ATOM     28  CG2 ILE B   2      74.448  43.086  13.839  1.00 64.62 LIG 0.01  C 
BRANCH 27 29
ATOM     29  CG1 ILE B   2      74.827  42.807  16.311  1.00 64.82 LIG 0.00  C 
ATOM     30  CD1 ILE B   2      75.858  41.712  16.460  1.00 66.82 LIG 0.01  C 
ENDBRANCH 27 29
ENDBRANCH 1 27
TORSDOF 10
ENDMDL
MODEL 11
USER: ADFR SOLUTION from run 123
USER: SCORE 11.692604 LL:  -2.049 LR: -10.698 RR:   0.000 FEB:  -7.715
USER: RMSD 6.998162
USER: SEED 122
USER: STATUS no improvement in best 14 clusters for 5 generations
USER: GENES 12
USER: genes 0 Translation |==|  0.51326 0.47763 0.31464
USER: genes 1 Rotation |==|  0.16619 0.74743 0.68522 0.70746
USER: genes 2 Torsion [C]-CA--N-[C] |==|  0.89117
USER: genes 3 Torsion [N]-C--CA-[N] |==|  0.19663
USER: genes 4 Torsion [C]-CA--N-[H1] |==|  0.97859
USER: genes 5 Torsion [N]-CA--C-[N] |==|  0.76170
USER: genes 6 Torsion [C]-N--CA-[CB] |==|  0.81596
USER: genes 7 Torsion [N]-CA--CB-[CG] |==|  0.85796
USER: genes 8 Torsion [CA]-CB--CG-[CD2] |==|  0.88732
USER: genes 9 Torsion [N]-CA--C-[OXT] |==|  0.59423
USER: genes 10 Torsion [N]-CA--CB-[CG2] |==|  0.67674
USER: genes 11 Torsion [CA]-CB--CG1-[CD1] |==|  0.22716
ROOT
ATOM      1  CA  ILE B   2      76.468  46.159  11.299  1.00 64.17 LIG 0.18  C 
ENDROOT
BRANCH 1 2
ATOM      2  N   ILE B   2      75.425  45.535  12.104  1.00 64.56 LIG-0.35  N 
ATOM      3  C   ALA B   1      75.713  44.777  13.158  1.00 64.53 LIG 0.25  C 
ATOM      4 O    ALA B   1      76.868  44.558  13.531  1.00 64.21 LIG-0.27  OA
ATOM      5 H    ILE B   2      74.625  45.701  11.838  1.00 64.56 LIG 0.16  HD
BRANCH 3 6
ATOM      6  CA  ALA B   1      74.518  44.183  13.906  1.00 64.34 LIG 0.27  C 
ATOM      7  CB  ALA B   1      74.967  43.623  15.251  1.00 65.15 LIG 0.05  C 
BRANCH 6 8
ATOM      8  N   ALA B   1      73.846  43.116  13.110  1.00 63.44 LIG-0.07  N 
ATOM      9 H1   ALA B   1      74.195  43.091  12.292  1.00 63.44 LIG 0.28  HD
ATOM     10 H2   ALA B   1      73.966  42.329  13.508  1.00 63.44 LIG 0.28  HD
ATOM     11 H3   ALA B   1      72.975  43.290  13.055  1.00 63.44 LIG 0.28  HD
ENDBRANCH 6 8
ENDBRANCH 3 6
ENDBRANCH 1 2
BRANCH 1 12
ATOM     12  C   ILE B   2      77.609  46.676  12.169  1.00 63.93 LIG 0.24  C 
ATOM     13  N   HIS B   3      77.455  47.896  12.674  1.00 63.34 LIG-0.34  N 
ATOM     14 H    HIS B   3      76.765  48.391  12.537  1.00 63.34 LIG 0.16  HD
ATOM     15 O    ILE B   2      78.607  45.984  12.379  1.00 63.64 LIG-0.27  OA
BRANCH 13 16
ATOM     16  CA  HIS B   3      78.476  48.496  13.522  1.00 63.18 LIG 0.19  C 
BRANCH 16 17
ATOM     17  CB  HIS B   3      78.593  47.726  14.840  1.00 62.24 LIG 0.10  C 
BRANCH 17 18
ATOM     18  CG  HIS B   3      77.285  47.519  15.539  1.00 63.21 LIG 0.05  A 
ATOM     19  CD2 HIS B   3      76.225  48.344  15.714  1.00 62.69 LIG 0.12  A 
ATOM     20  NE2 HIS B   3      75.284  47.650  16.434  1.00 63.05 LIG-0.36  N 
ATOM     21 HE2  HIS B   3      74.517  47.953  16.677  1.00 63.05 LIG 0.17  HD
ATOM     22  CE1 HIS B   3      75.748  46.440  16.692  1.00 63.79 LIG 0.21  A 
ATOM     23 ND1  HIS B   3      76.954  46.335  16.163  1.00 63.44 LIG-0.25  NA
ENDBRANCH 17 18
ENDBRANCH 16 17
BRANCH 16 24
ATOM     24  C   HIS B   3      79.819  48.490  12.802  1.00 63.55 LIG 0.20  C 
ATOM     25 OXT  HIS B   3      80.852  48.338  13.484  1.00 62.89 LIG-0.65  OA
ATOM     26 O    HIS B   3      79.821  48.632  11.560  1.00 64.85 LIG-0.65  OA
ENDBRANCH 16 24
ENDBRANCH 13 16
ENDBRANCH 1 12
BRANCH 1 27
ATOM     27  CB  ILE B   2      75.903  47.334  10.477  1.00 64.73 LIG 0.01  C 
ATOM     28  CG2 ILE B   2      76.024  47.036   8.985  1.00 64.62 LIG 0.01  C 
BRANCH 27 29
ATOM     29  CG1 ILE B   2      74.444  47.580  10.865  1.00 64.82 LIG 0.00  C 
ATOM     30  CD1 ILE B   2      74.271  48.404  12.121  1.00 66.82 LIG 0.01  C 
ENDBRANCH 27 29
ENDBRANCH 1 27
TORSDOF 10
ENDMDL
MODEL 12
USER: ADFR SOLUTION from run 54
USER: SCORE 11.801654 LL:  -1.614 LR: -10.608 RR:   0.000 FEB:  -7.625
USER: RMSD 6.047419
USER: SEED 53
USER: STATUS no improvement in best 17 clusters for 5 generations
USER: GENES 12
USER: genes 0 Translation |==|  0.51422 0.41204 0.46030
USER: genes 1 Rotation |==|  0.90757 0.34086 0.51136 0.74172
USER: genes 2 Torsion [C]-CA--N-[C] |==|  0.55185
USER: genes 3 Torsion [N]-C--CA-[N] |==|  0.38367
USER: genes 4 Torsion [C]-CA--N-[H1] |==|  0.04723
USER: genes 5 Torsion [N]-CA--C-[N] |==|  0.35104
USER: genes 6 Torsion [C]-N--CA-[CB] |==|  0.12536
USER: genes 7 Torsion [N]-CA--CB-[CG] |==|  0.65618
USER: genes 8 Torsion [CA]-CB--CG-[CD2] |==|  0.36001
USER: genes 9 Torsion [N]-CA--C-[OXT] |==|  0.62414
USER: genes 10 Torsion [N]-CA--CB-[CG2] |==|  0.76442
USER: genes 11 Torsion [CA]-CB--CG1-[CD1] |==|  0.24523
ROOT
ATOM      1  CA  ILE B   2      76.497  44.191  15.669  1.00 64.17 LIG 0.18  C 
ENDROOT
BRANCH 1 2
ATOM      2  N   ILE B   2      75.591  44.886  16.575  1.00 64.56 LIG-0.35  N 
ATOM      3  C   ALA B   1      75.575  44.632  17.881  1.00 64.53 LIG 0.25  C 
ATOM      4 O    ALA B   1      76.321  43.808  18.413  1.00 64.21 LIG-0.27  OA
ATOM      5 H    ILE B   2      75.080  45.462  16.193  1.00 64.56 LIG 0.16  HD
BRANCH 3 6
ATOM      6  CA  ALA B   1      74.569  45.433  18.709  1.00 64.34 LIG 0.27  C 
ATOM      7  CB  ALA B   1      75.268  46.601  19.395  1.00 65.15 LIG 0.05  C 
BRANCH 6 8
ATOM      8  N   ALA B   1      73.889  44.580  19.726  1.00 63.44 LIG-0.07  N 
ATOM      9 H1   ALA B   1      74.352  43.829  19.840  1.00 63.44 LIG 0.28  HD
ATOM     10 H2   ALA B   1      73.840  45.020  20.498  1.00 63.44 LIG 0.28  HD
ATOM     11 H3   ALA B   1      73.068  44.382  19.445  1.00 63.44 LIG 0.28  HD
ENDBRANCH 6 8
ENDBRANCH 3 6
ENDBRANCH 1 2
BRANCH 1 12
ATOM     12  C   ILE B   2      76.657  44.947  14.354  1.00 63.93 LIG 0.24  C 
ATOM     13  N   HIS B   3      77.904  45.223  13.985  1.00 63.34 LIG-0.34  N 
ATOM     14 H    HIS B   3      78.601  45.004  14.438  1.00 63.34 LIG 0.16  HD
ATOM     15 O    ILE B   2      75.673  45.271  13.687  1.00 63.64 LIG-0.27  OA
BRANCH 13 16
ATOM     16  CA  HIS B   3      78.184  45.938  12.747  1.00 63.18 LIG 0.19  C 
BRANCH 16 17
ATOM     17  CB  HIS B   3      77.245  47.139  12.603  1.00 62.24 LIG 0.10  C 
BRANCH 17 18
ATOM     18  CG  HIS B   3      76.450  47.138  11.334  1.00 63.21 LIG 0.05  A 
ATOM     19  CD2 HIS B   3      75.122  47.292  11.113  1.00 62.69 LIG 0.12  A 
ATOM     20  NE2 HIS B   3      74.924  47.205   9.756  1.00 63.05 LIG-0.36  N 
ATOM     21 HE2  HIS B   3      74.165  47.270   9.357  1.00 63.05 LIG 0.17  HD
ATOM     22  CE1 HIS B   3      76.088  47.006   9.164  1.00 63.79 LIG 0.21  A 
ATOM     23 ND1  HIS B   3      77.026  46.961  10.094  1.00 63.44 LIG-0.25  NA
ENDBRANCH 17 18
ENDBRANCH 16 17
BRANCH 16 24
ATOM     24  C   HIS B   3      79.631  46.413  12.737  1.00 63.55 LIG 0.20  C 
ATOM     25 OXT  HIS B   3      79.866  47.579  12.363  1.00 62.89 LIG-0.65  OA
ATOM     26 O    HIS B   3      80.516  45.611  13.110  1.00 64.85 LIG-0.65  OA
ENDBRANCH 16 24
ENDBRANCH 13 16
ENDBRANCH 1 12
BRANCH 1 27
ATOM     27  CB  ILE B   2      75.988  42.769  15.361  1.00 64.73 LIG 0.01  C 
ATOM     28  CG2 ILE B   2      76.445  41.802  16.451  1.00 64.62 LIG 0.01  C 
BRANCH 27 29
ATOM     29  CG1 ILE B   2      74.463  42.780  15.249  1.00 64.82 LIG 0.00  C 
ATOM     30  CD1 ILE B   2      73.949  43.081  13.860  1.00 66.82 LIG 0.01  C 
ENDBRANCH 27 29
ENDBRANCH 1 27
TORSDOF 10
ENDMDL
MODEL 13
USER: ADFR SOLUTION from run 34
USER: SCORE 12.300499 LL:  -1.850 LR: -10.569 RR:   0.000 FEB:  -7.586
USER: RMSD 7.211495
USER: SEED 33
USER: STATUS no improvement in best 12 clusters for 5 generations
USER: GENES 12
USER: genes 0 Translation |==|  0.50249 0.41639 0.41490
USER: genes 1 Rotation |==|  0.10782 0.71768 0.72040 0.51542
USER: genes 2 Torsion [C]-CA--N-[C] |==|  0.71462
USER: genes 3 Torsion [N]-C--CA-[N] |==|  0.38898
USER: genes 4 Torsion [C]-CA--N-[H1] |==|  0.52653
USER: genes 5 Torsion [N]-CA--C-[N] |==|  0.40021
USER: genes 6 Torsion [C]-N--CA-[CB] |==|  0.17078
USER: genes 7 Torsion [N]-CA--CB-[CG] |==|  0.42048
USER: genes 8 Torsion [CA]-CB--CG-[CD2] |==|  0.67552
USER: genes 9 Torsion [N]-CA--C-[OXT] |==|  0.39622
USER: genes 10 Torsion [N]-CA--CB-[CG2] |==|  0.90653
USER: genes 11 Torsion [CA]-CB--CG1-[CD1] |==|  0.32557
ROOT
ATOM      1  CA  ILE B   2      76.145  44.322  14.307  1.00 64.17 LIG 0.18  C 
ENDROOT
BRANCH 1 2
ATOM      2  N   ILE B   2      75.814  43.877  15.655  1.00 64.56 LIG-0.35  N 
ATOM      3  C   ALA B   1      76.495  42.909  16.261  1.00 64.53 LIG 0.25  C 
ATOM      4 O    ALA B   1      77.448  42.330  15.735  1.00 64.21 LIG-0.27  OA
ATOM      5 H    ILE B   2      75.152  44.293  16.013  1.00 64.56 LIG 0.16  HD
BRANCH 3 6
ATOM      6  CA  ALA B   1      76.033  42.544  17.672  1.00 64.34 LIG 0.27  C 
ATOM      7  CB  ALA B   1      76.901  43.251  18.707  1.00 65.15 LIG 0.05  C 
BRANCH 6 8
ATOM      8  N   ALA B   1      76.070  41.070  17.900  1.00 63.44 LIG-0.07  N 
ATOM      9 H1   ALA B   1      75.669  40.879  18.672  1.00 63.44 LIG 0.28  HD
ATOM     10 H2   ALA B   1      75.647  40.656  17.235  1.00 63.44 LIG 0.28  HD
ATOM     11 H3   ALA B   1      76.916  40.796  17.930  1.00 63.44 LIG 0.28  HD
ENDBRANCH 6 8
ENDBRANCH 3 6
ENDBRANCH 1 2
BRANCH 1 12
ATOM     12  C   ILE B   2      76.911  45.641  14.327  1.00 63.93 LIG 0.24  C 
ATOM     13  N   HIS B   3      77.854  45.784  13.402  1.00 63.34 LIG-0.34  N 
ATOM     14 H    HIS B   3      78.048  45.188  12.813  1.00 63.34 LIG 0.16  HD
ATOM     15 O    ILE B   2      76.651  46.510  15.160  1.00 63.64 LIG-0.27  OA
BRANCH 13 16
ATOM     16  CA  HIS B   3      78.650  47.001  13.319  1.00 63.18 LIG 0.19  C 
BRANCH 16 17
ATOM     17  CB  HIS B   3      79.447  47.204  14.610  1.00 62.24 LIG 0.10  C 
BRANCH 17 18
ATOM     18  CG  HIS B   3      80.730  47.953  14.420  1.00 63.21 LIG 0.05  A 
ATOM     19  CD2 HIS B   3      82.019  47.580  14.610  1.00 62.69 LIG 0.12  A 
ATOM     20  NE2 HIS B   3      82.806  48.657  14.285  1.00 63.05 LIG-0.36  N 
ATOM     21 HE2  HIS B   3      83.665  48.677  14.321  1.00 63.05 LIG 0.17  HD
ATOM     22  CE1 HIS B   3      82.030  49.657  13.906  1.00 63.79 LIG 0.21  A 
ATOM     23 ND1  HIS B   3      80.772  49.259  13.978  1.00 63.44 LIG-0.25  NA
ENDBRANCH 17 18
ENDBRANCH 16 17
BRANCH 16 24
ATOM     24  C   HIS B   3      79.604  46.918  12.134  1.00 63.55 LIG 0.20  C 
ATOM     25 OXT  HIS B   3      79.820  47.957  11.477  1.00 62.89 LIG-0.65  OA
ATOM     26 O    HIS B   3      80.131  45.813  11.879  1.00 64.85 LIG-0.65  OA
ENDBRANCH 16 24
ENDBRANCH 13 16
ENDBRANCH 1 12
BRANCH 1 27
ATOM     27  CB  ILE B   2      74.872  44.504  13.456  1.00 64.73 LIG 0.01  C 
ATOM     28  CG2 ILE B   2      73.820  43.473  13.860  1.00 64.62 LIG 0.01  C 
BRANCH 27 29
ATOM     29  CG1 ILE B   2      74.334  45.925  13.631  1.00 64.82 LIG 0.00  C 
ATOM     30  CD1 ILE B   2      74.330  46.743  12.360  1.00 66.82 LIG 0.01  C 
ENDBRANCH 27 29
ENDBRANCH 1 27
TORSDOF 10
ENDMDL
MODEL 14
USER: ADFR SOLUTION from run 10
USER: SCORE 12.276183 LL:  -1.911 LR: -10.544 RR:   0.000 FEB:  -7.561
USER: RMSD 8.006729
USER: SEED 206971
USER: STATUS no improvement in best 20 clusters for 5 generations
USER: GENES 12
USER: genes 0 Translation |==|  0.50158 0.39336 0.64197
USER: genes 1 Rotation |==|  0.30866 0.37453 0.68356 0.90491
USER: genes 2 Torsion [C]-CA--N-[C] |==|  0.72970
USER: genes 3 Torsion [N]-C--CA-[N] |==|  0.77727
USER: genes 4 Torsion [C]-CA--N-[H1] |==|  0.12433
USER: genes 5 Torsion [N]-CA--C-[N] |==|  0.29466
USER: genes 6 Torsion [C]-N--CA-[CB] |==|  0.38501
USER: genes 7 Torsion [N]-CA--CB-[CG] |==|  0.24267
USER: genes 8 Torsion [CA]-CB--CG-[CD2] |==|  0.26125
USER: genes 9 Torsion [N]-CA--C-[OXT] |==|  0.48790
USER: genes 10 Torsion [N]-CA--CB-[CG2] |==|  0.66253
USER: genes 11 Torsion [CA]-CB--CG1-[CD1] |==|  0.35624
ROOT
ATOM      1  CA  ILE B   2      76.118  43.631  21.119  1.00 64.17 LIG 0.18  C 
ENDROOT
BRANCH 1 2
ATOM      2  N   ILE B   2      75.820  43.113  19.790  1.00 64.56 LIG-0.35  N 
ATOM      3  C   ALA B   1      76.777  42.895  18.892  1.00 64.53 LIG 0.25  C 
ATOM      4 O    ALA B   1      77.970  43.104  19.121  1.00 64.21 LIG-0.27  OA
ATOM      5 H    ILE B   2      74.986  42.965  19.645  1.00 64.56 LIG 0.16  HD
BRANCH 3 6
ATOM      6  CA  ALA B   1      76.318  42.354  17.538  1.00 64.34 LIG 0.27  C 
ATOM      7  CB  ALA B   1      75.054  43.079  17.086  1.00 65.15 LIG 0.05  C 
BRANCH 6 8
ATOM      8  N   ALA B   1      76.070  40.884  17.586  1.00 63.44 LIG-0.07  N 
ATOM      9 H1   ALA B   1      75.612  40.685  18.323  1.00 63.44 LIG 0.28  HD
ATOM     10 H2   ALA B   1      75.603  40.638  16.870  1.00 63.44 LIG 0.28  HD
ATOM     11 H3   ALA B   1      76.848  40.452  17.596  1.00 63.44 LIG 0.28  HD
ENDBRANCH 6 8
ENDBRANCH 3 6
ENDBRANCH 1 2
BRANCH 1 12
ATOM     12  C   ILE B   2      76.205  42.508  22.148  1.00 63.93 LIG 0.24  C 
ATOM     13  N   HIS B   3      77.425  42.194  22.570  1.00 63.34 LIG-0.34  N 
ATOM     14 H    HIS B   3      78.144  42.579  22.298  1.00 63.34 LIG 0.16  HD
ATOM     15 O    ILE B   2      75.188  41.941  22.553  1.00 63.64 LIG-0.27  OA
BRANCH 13 16
ATOM     16  CA  HIS B   3      77.635  41.140  23.554  1.00 63.18 LIG 0.19  C 
BRANCH 16 17
ATOM     17  CB  HIS B   3      78.851  40.292  23.173  1.00 62.24 LIG 0.10  C 
BRANCH 17 18
ATOM     18  CG  HIS B   3      80.151  40.826  23.692  1.00 63.21 LIG 0.05  A 
ATOM     19  CD2 HIS B   3      80.845  40.544  24.820  1.00 62.69 LIG 0.12  A 
ATOM     20  NE2 HIS B   3      81.977  41.322  24.805  1.00 63.05 LIG-0.36  N 
ATOM     21 HE2  HIS B   3      82.586  41.330  25.413  1.00 63.05 LIG 0.17  HD
ATOM     22  CE1 HIS B   3      81.979  42.056  23.707  1.00 63.79 LIG 0.21  A 
ATOM     23 ND1  HIS B   3      80.888  41.776  23.017  1.00 63.44 LIG-0.25  NA
ENDBRANCH 17 18
ENDBRANCH 16 17
BRANCH 16 24
ATOM     24  C   HIS B   3      77.848  41.752  24.933  1.00 63.55 LIG 0.20  C 
ATOM     25 OXT  HIS B   3      77.960  40.982  25.908  1.00 62.89 LIG-0.65  OA
ATOM     26 O    HIS B   3      77.904  42.998  25.022  1.00 64.85 LIG-0.65  OA
ENDBRANCH 16 24
ENDBRANCH 13 16
ENDBRANCH 1 12
BRANCH 1 27
ATOM     27  CB  ILE B   2      75.040  44.635  21.576  1.00 64.73 LIG 0.01  C 
ATOM     28  CG2 ILE B   2      75.680  45.988  21.878  1.00 64.62 LIG 0.01  C 
BRANCH 27 29
ATOM     29  CG1 ILE B   2      73.970  44.770  20.491  1.00 64.82 LIG 0.00  C 
ATOM     30  CD1 ILE B   2      72.557  44.580  20.993  1.00 66.82 LIG 0.01  C 
ENDBRANCH 27 29
ENDBRANCH 1 27
TORSDOF 10
ENDMDL
MODEL 15
USER: ADFR SOLUTION from run 8
USER: SCORE 11.942173 LL:  -1.553 LR: -10.535 RR:   0.000 FEB:  -7.552
USER: RMSD 6.862563
USER: SEED 147196
USER: STATUS no improvement in best 14 clusters for 5 generations
USER: GENES 12
USER: genes 0 Translation |==|  0.50611 0.42066 0.41712
USER: genes 1 Rotation |==|  0.92359 0.32644 0.29959 0.51697
USER: genes 2 Torsion [C]-CA--N-[C] |==|  0.66118
USER: genes 3 Torsion [N]-C--CA-[N] |==|  0.38575
USER: genes 4 Torsion [C]-CA--N-[H1] |==|  0.20146
USER: genes 5 Torsion [N]-CA--C-[N] |==|  0.40001
USER: genes 6 Torsion [C]-N--CA-[CB] |==|  0.11249
USER: genes 7 Torsion [N]-CA--CB-[CG] |==|  0.71193
USER: genes 8 Torsion [CA]-CB--CG-[CD2] |==|  0.02655
USER: genes 9 Torsion [N]-CA--C-[OXT] |==|  0.54468
USER: genes 10 Torsion [N]-CA--CB-[CG2] |==|  0.91613
USER: genes 11 Torsion [CA]-CB--CG1-[CD1] |==|  0.26925
ROOT
ATOM      1  CA  ILE B   2      76.253  44.450  14.374  1.00 64.17 LIG 0.18  C 
ENDROOT
BRANCH 1 2
ATOM      2  N   ILE B   2      75.942  44.011  15.728  1.00 64.56 LIG-0.35  N 
ATOM      3  C   ALA B   1      76.580  42.994  16.299  1.00 64.53 LIG 0.25  C 
ATOM      4 O    ALA B   1      77.476  42.363  15.735  1.00 64.21 LIG-0.27  OA
ATOM      5 H    ILE B   2      75.319  44.462  16.113  1.00 64.56 LIG 0.16  HD
BRANCH 3 6
ATOM      6  CA  ALA B   1      76.145  42.641  17.722  1.00 64.34 LIG 0.27  C 
ATOM      7  CB  ALA B   1      77.108  43.256  18.732  1.00 65.15 LIG 0.05  C 
BRANCH 6 8
ATOM      8  N   ALA B   1      76.070  41.165  17.926  1.00 63.44 LIG-0.07  N 
ATOM      9 H1   ALA B   1      76.893  40.829  17.960  1.00 63.44 LIG 0.28  HD
ATOM     10 H2   ALA B   1      75.646  40.992  18.689  1.00 63.44 LIG 0.28  HD
ATOM     11 H3   ALA B   1      75.626  40.795  17.249  1.00 63.44 LIG 0.28  HD
ENDBRANCH 6 8
ENDBRANCH 3 6
ENDBRANCH 1 2
BRANCH 1 12
ATOM     12  C   ILE B   2      76.672  45.917  14.345  1.00 63.93 LIG 0.24  C 
ATOM     13  N   HIS B   3      77.618  46.239  13.471  1.00 63.34 LIG-0.34  N 
ATOM     14 H    HIS B   3      77.995  45.679  12.939  1.00 63.34 LIG 0.16  HD
ATOM     15 O    ILE B   2      76.145  46.738  15.098  1.00 63.64 LIG-0.27  OA
BRANCH 13 16
ATOM     16  CA  HIS B   3      78.099  47.609  13.350  1.00 63.18 LIG 0.19  C 
BRANCH 16 17
ATOM     17  CB  HIS B   3      78.235  48.250  14.734  1.00 62.24 LIG 0.10  C 
BRANCH 17 18
ATOM     18  CG  HIS B   3      77.137  49.212  15.068  1.00 63.21 LIG 0.05  A 
ATOM     19  CD2 HIS B   3      75.968  49.485  14.440  1.00 62.69 LIG 0.12  A 
ATOM     20  NE2 HIS B   3      75.331  50.456  15.173  1.00 63.05 LIG-0.36  N 
ATOM     21 HE2  HIS B   3      74.567  50.805  14.984  1.00 63.05 LIG 0.17  HD
ATOM     22  CE1 HIS B   3      76.080  50.769  16.216  1.00 63.79 LIG 0.21  A 
ATOM     23 ND1  HIS B   3      77.176  50.031  16.176  1.00 63.44 LIG-0.25  NA
ENDBRANCH 17 18
ENDBRANCH 16 17
BRANCH 16 24
ATOM     24  C   HIS B   3      79.447  47.627  12.641  1.00 63.55 LIG 0.20  C 
ATOM     25 OXT  HIS B   3      80.141  48.660  12.720  1.00 62.89 LIG-0.65  OA
ATOM     26 O    HIS B   3      79.797  46.601  12.017  1.00 64.85 LIG-0.65  OA
ENDBRANCH 16 24
ENDBRANCH 13 16
ENDBRANCH 1 12
BRANCH 1 27
ATOM     27  CB  ILE B   2      75.041  44.265  13.439  1.00 64.73 LIG 0.01  C 
ATOM     28  CG2 ILE B   2      74.198  43.080  13.903  1.00 64.62 LIG 0.01  C 
BRANCH 27 29
ATOM     29  CG1 ILE B   2      74.209  45.548  13.415  1.00 64.82 LIG 0.00  C 
ATOM     30  CD1 ILE B   2      74.510  46.456  12.245  1.00 66.82 LIG 0.01  C 
ENDBRANCH 27 29
ENDBRANCH 1 27
TORSDOF 10
ENDMDL
MODEL 16
USER: ADFR SOLUTION from run 88
USER: SCORE 12.650831 LL:  -2.164 LR: -10.506 RR:   0.000 FEB:  -7.523
USER: RMSD 5.752349
USER: SEED 87
USER: STATUS no improvement in best 15 clusters for 5 generations
USER: GENES 12
USER: genes 0 Translation |==|  0.51270 0.46284 0.43656
USER: genes 1 Rotation |==|  0.77698 0.18649 0.55922 0.76737
USER: genes 2 Torsion [C]-CA--N-[C] |==|  0.79570
USER: genes 3 Torsion [N]-C--CA-[N] |==|  0.06299
USER: genes 4 Torsion [C]-CA--N-[H1] |==|  0.07605
USER: genes 5 Torsion [N]-CA--C-[N] |==|  0.96858
USER: genes 6 Torsion [C]-N--CA-[CB] |==|  0.43863
USER: genes 7 Torsion [N]-CA--CB-[CG] |==|  0.89949
USER: genes 8 Torsion [CA]-CB--CG-[CD2] |==|  0.70178
USER: genes 9 Torsion [N]-CA--C-[OXT] |==|  0.77641
USER: genes 10 Torsion [N]-CA--CB-[CG2] |==|  0.23848
USER: genes 11 Torsion [CA]-CB--CG1-[CD1] |==|  0.47410
ROOT
ATOM      1  CA  ILE B   2      76.451  45.715  14.957  1.00 64.17 LIG 0.18  C 
ENDROOT
BRANCH 1 2
ATOM      2  N   ILE B   2      75.949  47.077  15.097  1.00 64.56 LIG-0.35  N 
ATOM      3  C   ALA B   1      76.714  48.062  15.559  1.00 64.53 LIG 0.25  C 
ATOM      4 O    ALA B   1      77.890  47.898  15.889  1.00 64.21 LIG-0.27  OA
ATOM      5 H    ILE B   2      75.130  47.178  14.858  1.00 64.56 LIG 0.16  HD
BRANCH 3 6
ATOM      6  CA  ALA B   1      76.053  49.437  15.656  1.00 64.34 LIG 0.27  C 
ATOM      7  CB  ALA B   1      76.584  50.189  16.872  1.00 65.15 LIG 0.05  C 
BRANCH 6 8
ATOM      8  N   ALA B   1      74.567  49.329  15.735  1.00 63.44 LIG-0.07  N 
ATOM      9 H1   ALA B   1      74.345  48.548  16.100  1.00 63.44 LIG 0.28  HD
ATOM     10 H2   ALA B   1      74.248  49.992  16.235  1.00 63.44 LIG 0.28  HD
ATOM     11 H3   ALA B   1      74.222  49.382  14.917  1.00 63.44 LIG 0.28  HD
ENDBRANCH 6 8
ENDBRANCH 3 6
ENDBRANCH 1 2
BRANCH 1 12
ATOM     12  C   ILE B   2      77.407  45.592  13.774  1.00 63.93 LIG 0.24  C 
ATOM     13  N   HIS B   3      77.449  46.629  12.944  1.00 63.34 LIG-0.34  N 
ATOM     14 H    HIS B   3      76.978  47.342  13.039  1.00 63.34 LIG 0.16  HD
ATOM     15 O    ILE B   2      78.092  44.580  13.618  1.00 63.64 LIG-0.27  OA
BRANCH 13 16
ATOM     16  CA  HIS B   3      78.325  46.629  11.781  1.00 63.18 LIG 0.19  C 
BRANCH 16 17
ATOM     17  CB  HIS B   3      77.816  47.622  10.732  1.00 62.24 LIG 0.10  C 
BRANCH 17 18
ATOM     18  CG  HIS B   3      76.323  47.696  10.642  1.00 63.21 LIG 0.05  A 
ATOM     19  CD2 HIS B   3      75.462  47.245   9.698  1.00 62.69 LIG 0.12  A 
ATOM     20  NE2 HIS B   3      74.196  47.580  10.110  1.00 63.05 LIG-0.36  N 
ATOM     21 HE2  HIS B   3      73.469  47.405   9.684  1.00 63.05 LIG 0.17  HD
ATOM     22  CE1 HIS B   3      74.274  48.214  11.267  1.00 63.79 LIG 0.21  A 
ATOM     23 ND1  HIS B   3      75.547  48.298  11.610  1.00 63.44 LIG-0.25  NA
ENDBRANCH 17 18
ENDBRANCH 16 17
BRANCH 16 24
ATOM     24  C   HIS B   3      79.742  47.003  12.197  1.00 63.55 LIG 0.20  C 
ATOM     25 OXT  HIS B   3      80.009  48.211  12.360  1.00 62.89 LIG-0.65  OA
ATOM     26 O    HIS B   3      80.570  46.080  12.360  1.00 64.85 LIG-0.65  OA
ENDBRANCH 16 24
ENDBRANCH 13 16
ENDBRANCH 1 12
BRANCH 1 27
ATOM     27  CB  ILE B   2      75.294  44.716  14.761  1.00 64.73 LIG 0.01  C 
ATOM     28  CG2 ILE B   2      74.918  44.632  13.284  1.00 64.62 LIG 0.01  C 
BRANCH 27 29
ATOM     29  CG1 ILE B   2      75.703  43.343  15.297  1.00 64.82 LIG 0.00  C 
ATOM     30  CD1 ILE B   2      74.570  42.344  15.360  1.00 66.82 LIG 0.01  C 
ENDBRANCH 27 29
ENDBRANCH 1 27
TORSDOF 10
ENDMDL
MODEL 17
USER: ADFR SOLUTION from run 87
USER: SCORE 11.773561 LL:  -2.125 LR: -10.487 RR:   0.000 FEB:  -7.504
USER: RMSD 6.165009
USER: SEED 86
USER: STATUS no improvement in best 27 clusters for 5 generations
USER: GENES 12
USER: genes 0 Translation |==|  0.50332 0.32130 0.61428
USER: genes 1 Rotation |==|  0.27917 0.60981 0.17738 0.79171
USER: genes 2 Torsion [C]-CA--N-[C] |==|  0.22777
USER: genes 3 Torsion [N]-C--CA-[N] |==|  0.55830
USER: genes 4 Torsion [C]-CA--N-[H1] |==|  0.92542
USER: genes 5 Torsion [N]-CA--C-[N] |==|  0.91108
USER: genes 6 Torsion [C]-N--CA-[CB] |==|  0.45462
USER: genes 7 Torsion [N]-CA--CB-[CG] |==|  0.09096
USER: genes 8 Torsion [CA]-CB--CG-[CD2] |==|  0.69822
USER: genes 9 Torsion [N]-CA--C-[OXT] |==|  0.82281
USER: genes 10 Torsion [N]-CA--CB-[CG2] |==|  0.38270
USER: genes 11 Torsion [CA]-CB--CG1-[CD1] |==|  0.66972
ROOT
ATOM      1  CA  ILE B   2      76.170  41.469  20.288  1.00 64.17 LIG 0.18  C 
ENDROOT
BRANCH 1 2
ATOM      2  N   ILE B   2      75.998  41.784  18.876  1.00 64.56 LIG-0.35  N 
ATOM      3  C   ALA B   1      76.721  42.725  18.275  1.00 64.53 LIG 0.25  C 
ATOM      4 O    ALA B   1      77.583  43.384  18.860  1.00 64.21 LIG-0.27  OA
ATOM      5 H    ILE B   2      75.398  41.314  18.478  1.00 64.56 LIG 0.16  HD
BRANCH 3 6
ATOM      6  CA  ALA B   1      76.429  42.951  16.791  1.00 64.34 LIG 0.27  C 
ATOM      7  CB  ALA B   1      76.116  41.623  16.110  1.00 65.15 LIG 0.05  C 
BRANCH 6 8
ATOM      8  N   ALA B   1      77.570  43.619  16.101  1.00 63.44 LIG-0.07  N 
ATOM      9 H1   ALA B   1      78.029  44.105  16.688  1.00 63.44 LIG 0.28  HD
ATOM     10 H2   ALA B   1      78.103  43.002  15.744  1.00 63.44 LIG 0.28  HD
ATOM     11 H3   ALA B   1      77.258  44.149  15.457  1.00 63.44 LIG 0.28  HD
ENDBRANCH 6 8
ENDBRANCH 3 6
ENDBRANCH 1 2
BRANCH 1 12
ATOM     12  C   ILE B   2      75.404  42.446  21.175  1.00 63.93 LIG 0.24  C 
ATOM     13  N   HIS B   3      75.289  43.687  20.717  1.00 63.34 LIG-0.34  N 
ATOM     14 H    HIS B   3      75.616  43.958  19.968  1.00 63.34 LIG 0.16  HD
ATOM     15 O    ILE B   2      74.925  42.081  22.251  1.00 63.64 LIG-0.27  OA
BRANCH 13 16
ATOM     16  CA  HIS B   3      74.577  44.709  21.473  1.00 63.18 LIG 0.19  C 
BRANCH 16 17
ATOM     17  CB  HIS B   3      74.929  46.102  20.947  1.00 62.24 LIG 0.10  C 
BRANCH 17 18
ATOM     18  CG  HIS B   3      75.203  46.143  19.475  1.00 63.21 LIG 0.05  A 
ATOM     19  CD2 HIS B   3      76.357  46.316  18.786  1.00 62.69 LIG 0.12  A 
ATOM     20  NE2 HIS B   3      76.042  46.270  17.450  1.00 63.05 LIG-0.36  N 
ATOM     21 HE2  HIS B   3      76.602  46.354  16.801  1.00 63.05 LIG 0.17  HD
ATOM     22  CE1 HIS B   3      74.742  46.075  17.321  1.00 63.79 LIG 0.21  A 
ATOM     23 ND1  HIS B   3      74.212  45.995  18.528  1.00 63.44 LIG-0.25  NA
ENDBRANCH 17 18
ENDBRANCH 16 17
BRANCH 16 24
ATOM     24  C   HIS B   3      73.074  44.483  21.365  1.00 63.55 LIG 0.20  C 
ATOM     25 OXT  HIS B   3      72.543  44.582  20.241  1.00 62.89 LIG-0.65  OA
ATOM     26 O    HIS B   3      72.445  44.205  22.409  1.00 64.85 LIG-0.65  OA
ENDBRANCH 16 24
ENDBRANCH 13 16
ENDBRANCH 1 12
BRANCH 1 27
ATOM     27  CB  ILE B   2      77.659  41.505  20.687  1.00 64.73 LIG 0.01  C 
ATOM     28  CG2 ILE B   2      77.823  42.197  22.038  1.00 64.62 LIG 0.01  C 
BRANCH 27 29
ATOM     29  CG1 ILE B   2      78.214  40.080  20.734  1.00 64.82 LIG 0.00  C 
ATOM     30  CD1 ILE B   2      78.725  39.664  22.094  1.00 66.82 LIG 0.01  C 
ENDBRANCH 27 29
ENDBRANCH 1 27
TORSDOF 10
ENDMDL
MODEL 18
USER: ADFR SOLUTION from run 107
USER: SCORE 12.219304 LL:  -1.873 LR: -10.435 RR:   0.000 FEB:  -7.452
USER: RMSD 9.764508
USER: SEED 106
USER: STATUS no improvement in best 15 clusters for 5 generations
USER: GENES 12
USER: genes 0 Translation |==|  0.53705 0.32570 0.67879
USER: genes 1 Rotation |==|  0.24379 0.86662 0.29849 0.59665
USER: genes 2 Torsion [C]-CA--N-[C] |==|  0.62194
USER: genes 3 Torsion [N]-C--CA-[N] |==|  0.78954
USER: genes 4 Torsion [C]-CA--N-[H1] |==|  0.35736
USER: genes 5 Torsion [N]-CA--C-[N] |==|  0.42843
USER: genes 6 Torsion [C]-N--CA-[CB] |==|  0.38787
USER: genes 7 Torsion [N]-CA--CB-[CG] |==|  0.80838
USER: genes 8 Torsion [CA]-CB--CG-[CD2] |==|  0.95072
USER: genes 9 Torsion [N]-CA--C-[OXT] |==|  0.14999
USER: genes 10 Torsion [N]-CA--CB-[CG2] |==|  0.49573
USER: genes 11 Torsion [CA]-CB--CG1-[CD1] |==|  0.27820
ROOT
ATOM      1  CA  ILE B   2      77.182  41.601  22.224  1.00 64.17 LIG 0.18  C 
ENDROOT
BRANCH 1 2
ATOM      2  N   ILE B   2      76.357  42.741  21.844  1.00 64.56 LIG-0.35  N 
ATOM      3  C   ALA B   1      75.030  42.667  21.814  1.00 64.53 LIG 0.25  C 
ATOM      4 O    ALA B   1      74.409  41.645  22.110  1.00 64.21 LIG-0.27  OA
ATOM      5 H    ILE B   2      76.802  43.450  21.645  1.00 64.56 LIG 0.16  HD
BRANCH 3 6
ATOM      6  CA  ALA B   1      74.295  43.941  21.392  1.00 64.34 LIG 0.27  C 
ATOM      7  CB  ALA B   1      74.945  44.532  20.145  1.00 65.15 LIG 0.05  C 
BRANCH 6 8
ATOM      8  N   ALA B   1      74.278  44.955  22.485  1.00 63.44 LIG-0.07  N 
ATOM      9 H1   ALA B   1      74.569  45.735  22.170  1.00 63.44 LIG 0.28  HD
ATOM     10 H2   ALA B   1      73.448  45.049  22.790  1.00 63.44 LIG 0.28  HD
ATOM     11 H3   ALA B   1      74.809  44.686  23.147  1.00 63.44 LIG 0.28  HD
ENDBRANCH 6 8
ENDBRANCH 3 6
ENDBRANCH 1 2
BRANCH 1 12
ATOM     12  C   ILE B   2      78.303  42.015  23.172  1.00 63.93 LIG 0.24  C 
ATOM     13  N   HIS B   3      78.766  41.068  23.981  1.00 63.34 LIG-0.34  N 
ATOM     14 H    HIS B   3      78.472  40.259  23.995  1.00 63.34 LIG 0.16  HD
ATOM     15 O    ILE B   2      78.740  43.167  23.169  1.00 63.64 LIG-0.27  OA
BRANCH 13 16
ATOM     16  CA  HIS B   3      79.837  41.342  24.928  1.00 63.18 LIG 0.19  C 
BRANCH 16 17
ATOM     17  CB  HIS B   3      79.558  40.646  26.263  1.00 62.24 LIG 0.10  C 
BRANCH 17 18
ATOM     18  CG  HIS B   3      78.402  41.225  27.019  1.00 63.21 LIG 0.05  A 
ATOM     19  CD2 HIS B   3      77.767  42.416  26.904  1.00 62.69 LIG 0.12  A 
ATOM     20  NE2 HIS B   3      76.770  42.437  27.848  1.00 63.05 LIG-0.36  N 
ATOM     21 HE2  HIS B   3      76.221  43.086  27.981  1.00 63.05 LIG 0.17  HD
ATOM     22  CE1 HIS B   3      76.789  41.298  28.519  1.00 63.79 LIG 0.21  A 
ATOM     23 ND1  HIS B   3      77.765  40.549  28.038  1.00 63.44 LIG-0.25  NA
ENDBRANCH 17 18
ENDBRANCH 16 17
BRANCH 16 24
ATOM     24  C   HIS B   3      81.167  40.856  24.364  1.00 63.55 LIG 0.20  C 
ATOM     25 OXT  HIS B   3      81.510  41.259  23.235  1.00 62.89 LIG-0.65  OA
ATOM     26 O    HIS B   3      81.854  40.080  25.064  1.00 64.85 LIG-0.65  OA
ENDBRANCH 16 24
ENDBRANCH 13 16
ENDBRANCH 1 12
BRANCH 1 27
ATOM     27  CB  ILE B   2      77.807  40.932  20.984  1.00 64.73 LIG 0.01  C 
ATOM     28  CG2 ILE B   2      78.695  39.766  21.409  1.00 64.62 LIG 0.01  C 
BRANCH 27 29
ATOM     29  CG1 ILE B   2      76.699  40.456  20.042  1.00 64.82 LIG 0.00  C 
ATOM     30  CD1 ILE B   2      76.445  41.380  18.873  1.00 66.82 LIG 0.01  C 
ENDBRANCH 27 29
ENDBRANCH 1 27
TORSDOF 10
ENDMDL
MODEL 19
USER: ADFR SOLUTION from run 38
USER: SCORE 12.190862 LL:  -1.842 LR: -10.390 RR:   0.000 FEB:  -7.407
USER: RMSD 7.046332
USER: SEED 37
USER: STATUS no improvement in best 10 clusters for 5 generations
USER: GENES 12
USER: genes 0 Translation |==|  0.48434 0.48940 0.36790
USER: genes 1 Rotation |==|  0.72555 0.24499 0.83624 0.64505
USER: genes 2 Torsion [C]-CA--N-[C] |==|  0.83309
USER: genes 3 Torsion [N]-C--CA-[N] |==|  0.04834
USER: genes 4 Torsion [C]-CA--N-[H1] |==|  0.87225
USER: genes 5 Torsion [N]-CA--C-[N] |==|  0.89014
USER: genes 6 Torsion [C]-N--CA-[CB] |==|  0.82184
USER: genes 7 Torsion [N]-CA--CB-[CG] |==|  0.74274
USER: genes 8 Torsion [CA]-CB--CG-[CD2] |==|  0.22410
USER: genes 9 Torsion [N]-CA--C-[OXT] |==|  0.14696
USER: genes 10 Torsion [N]-CA--CB-[CG2] |==|  0.44940
USER: genes 11 Torsion [CA]-CB--CG1-[CD1] |==|  0.59264
ROOT
ATOM      1  CA  ILE B   2      75.600  46.512  12.897  1.00 64.17 LIG 0.18  C 
ENDROOT
BRANCH 1 2
ATOM      2  N   ILE B   2      74.856  47.018  11.750  1.00 64.56 LIG-0.35  N 
ATOM      3  C   ALA B   1      74.749  48.320  11.503  1.00 64.53 LIG 0.25  C 
ATOM      4 O    ALA B   1      75.272  49.182  12.212  1.00 64.21 LIG-0.27  OA
ATOM      5 H    ILE B   2      74.501  46.406  11.261  1.00 64.56 LIG 0.16  HD
BRANCH 3 6
ATOM      6  CA  ALA B   1      73.934  48.705  10.268  1.00 64.34 LIG 0.27  C 
ATOM      7  CB  ALA B   1      73.075  49.929  10.567  1.00 65.15 LIG 0.05  C 
BRANCH 6 8
ATOM      8  N   ALA B   1      73.070  47.580   9.806  1.00 63.44 LIG-0.07  N 
ATOM      9 H1   ALA B   1      73.545  46.827   9.793  1.00 63.44 LIG 0.28  HD
ATOM     10 H2   ALA B   1      72.381  47.487  10.361  1.00 63.44 LIG 0.28  HD
ATOM     11 H3   ALA B   1      72.769  47.754   8.987  1.00 63.44 LIG 0.28  HD
ENDBRANCH 6 8
ENDBRANCH 3 6
ENDBRANCH 1 2
BRANCH 1 12
ATOM     12  C   ILE B   2      77.065  46.936  12.842  1.00 63.93 LIG 0.24  C 
ATOM     13  N   HIS B   3      77.638  46.912  11.644  1.00 63.34 LIG-0.34  N 
ATOM     14 H    HIS B   3      77.236  46.675  10.921  1.00 63.34 LIG 0.16  HD
ATOM     15 O    ILE B   2      77.661  47.281  13.864  1.00 63.64 LIG-0.27  OA
BRANCH 13 16
ATOM     16  CA  HIS B   3      79.031  47.298  11.465  1.00 63.18 LIG 0.19  C 
BRANCH 16 17
ATOM     17  CB  HIS B   3      79.222  48.776  11.814  1.00 62.24 LIG 0.10  C 
BRANCH 17 18
ATOM     18  CG  HIS B   3      79.097  49.698  10.640  1.00 63.21 LIG 0.05  A 
ATOM     19  CD2 HIS B   3      78.007  50.205  10.015  1.00 62.69 LIG 0.12  A 
ATOM     20  NE2 HIS B   3      78.460  50.999   8.990  1.00 63.05 LIG-0.36  N 
ATOM     21 HE2  HIS B   3      77.964  51.437   8.441  1.00 63.05 LIG 0.17  HD
ATOM     22  CE1 HIS B   3      79.782  50.983   8.986  1.00 63.79 LIG 0.21  A 
ATOM     23 ND1  HIS B   3      80.191  50.205   9.972  1.00 63.44 LIG-0.25  NA
ENDBRANCH 17 18
ENDBRANCH 16 17
BRANCH 16 24
ATOM     24  C   HIS B   3      79.926  46.441  12.351  1.00 63.55 LIG 0.20  C 
ATOM     25 OXT  HIS B   3      79.818  45.201  12.274  1.00 62.89 LIG-0.65  OA
ATOM     26 O    HIS B   3      80.730  47.023  13.112  1.00 64.85 LIG-0.65  OA
ENDBRANCH 16 24
ENDBRANCH 13 16
ENDBRANCH 1 12
BRANCH 1 27
ATOM     27  CB  ILE B   2      75.535  44.973  12.964  1.00 64.73 LIG 0.01  C 
ATOM     28  CG2 ILE B   2      76.650  44.440  13.860  1.00 64.62 LIG 0.01  C 
BRANCH 27 29
ATOM     29  CG1 ILE B   2      74.164  44.538  13.486  1.00 64.82 LIG 0.00  C 
ATOM     30  CD1 ILE B   2      74.195  43.278  14.320  1.00 66.82 LIG 0.01  C 
ENDBRANCH 27 29
ENDBRANCH 1 27
TORSDOF 10
ENDMDL
MODEL 20
USER: ADFR SOLUTION from run 91
USER: SCORE 12.548822 LL:  -2.228 LR: -10.384 RR:   0.000 FEB:  -7.401
USER: RMSD 6.023580
USER: SEED 90
USER: STATUS no improvement in best 14 clusters for 5 generations
USER: GENES 12
USER: genes 0 Translation |==|  0.44595 0.46670 0.38943
USER: genes 1 Rotation |==|  0.34658 0.78777 0.12229 0.53144
USER: genes 2 Torsion [C]-CA--N-[C] |==|  0.84629
USER: genes 3 Torsion [N]-C--CA-[N] |==|  0.15080
USER: genes 4 Torsion [C]-CA--N-[H1] |==|  0.48492
USER: genes 5 Torsion [N]-CA--C-[N] |==|  0.91978
USER: genes 6 Torsion [C]-N--CA-[CB] |==|  0.29324
USER: genes 7 Torsion [N]-CA--CB-[CG] |==|  0.13413
USER: genes 8 Torsion [CA]-CB--CG-[CD2] |==|  0.57778
USER: genes 9 Torsion [N]-CA--C-[OXT] |==|  0.97575
USER: genes 10 Torsion [N]-CA--CB-[CG2] |==|  0.30315
USER: genes 11 Torsion [CA]-CB--CG1-[CD1] |==|  0.68255
ROOT
ATOM      1  CA  ILE B   2      74.449  45.831  13.543  1.00 64.17 LIG 0.18  C 
ENDROOT
BRANCH 1 2
ATOM      2  N   ILE B   2      74.381  46.512  12.256  1.00 64.56 LIG-0.35  N 
ATOM      3  C   ALA B   1      74.051  47.797  12.159  1.00 64.53 LIG 0.25  C 
ATOM      4 O    ALA B   1      73.791  48.497  13.139  1.00 64.21 LIG-0.27  OA
ATOM      5 H    ILE B   2      74.570  46.014  11.581  1.00 64.56 LIG 0.16  HD
BRANCH 3 6
ATOM      6  CA  ALA B   1      74.016  48.376  10.744  1.00 64.34 LIG 0.27  C 
ATOM      7  CB  ALA B   1      73.545  49.826  10.784  1.00 65.15 LIG 0.05  C 
BRANCH 6 8
ATOM      8  N   ALA B   1      73.132  47.580   9.845  1.00 63.44 LIG-0.07  N 
ATOM      9 H1   ALA B   1      73.071  47.985   9.055  1.00 63.44 LIG 0.28  HD
ATOM     10 H2   ALA B   1      73.476  46.767   9.735  1.00 63.44 LIG 0.28  HD
ATOM     11 H3   ALA B   1      72.322  47.513  10.207  1.00 63.44 LIG 0.28  HD
ENDBRANCH 6 8
ENDBRANCH 3 6
ENDBRANCH 1 2
BRANCH 1 12
ATOM     12  C   ILE B   2      75.388  46.551  14.506  1.00 63.93 LIG 0.24  C 
ATOM     13  N   HIS B   3      76.389  47.227  13.952  1.00 63.34 LIG-0.34  N 
ATOM     14 H    HIS B   3      76.529  47.275  13.105  1.00 63.34 LIG 0.16  HD
ATOM     15 O    ILE B   2      75.207  46.497  15.724  1.00 63.64 LIG-0.27  OA
BRANCH 13 16
ATOM     16  CA  HIS B   3      77.349  47.956  14.769  1.00 63.18 LIG 0.19  C 
BRANCH 16 17
ATOM     17  CB  HIS B   3      78.684  47.208  14.817  1.00 62.24 LIG 0.10  C 
BRANCH 17 18
ATOM     18  CG  HIS B   3      79.182  46.769  13.474  1.00 63.21 LIG 0.05  A 
ATOM     19  CD2 HIS B   3      79.970  45.729  13.110  1.00 62.69 LIG 0.12  A 
ATOM     20  NE2 HIS B   3      80.119  45.790  11.746  1.00 63.05 LIG-0.36  N 
ATOM     21 HE2  HIS B   3      80.576  45.240  11.268  1.00 63.05 LIG 0.17  HD
ATOM     22  CE1 HIS B   3      79.445  46.830  11.287  1.00 63.79 LIG 0.21  A 
ATOM     23 ND1  HIS B   3      78.870  47.438  12.309  1.00 63.44 LIG-0.25  NA
ENDBRANCH 17 18
ENDBRANCH 16 17
BRANCH 16 24
ATOM     24  C   HIS B   3      77.564  49.352  14.197  1.00 63.55 LIG 0.20  C 
ATOM     25 OXT  HIS B   3      77.065  49.617  13.085  1.00 62.89 LIG-0.65  OA
ATOM     26 O    HIS B   3      78.227  50.169  14.873  1.00 64.85 LIG-0.65  OA
ENDBRANCH 16 24
ENDBRANCH 13 16
ENDBRANCH 1 12
BRANCH 1 27
ATOM     27  CB  ILE B   2      74.934  44.377  13.375  1.00 64.73 LIG 0.01  C 
ATOM     28  CG2 ILE B   2      76.347  44.230  13.932  1.00 64.62 LIG 0.01  C 
BRANCH 27 29
ATOM     29  CG1 ILE B   2      73.968  43.427  14.085  1.00 64.82 LIG 0.00  C 
ATOM     30  CD1 ILE B   2      74.572  42.706  15.268  1.00 66.82 LIG 0.01  C 
ENDBRANCH 27 29
ENDBRANCH 1 27
TORSDOF 10
ENDMDL
MODEL 21
USER: ADFR SOLUTION from run 64
USER: SCORE 11.700869 LL:  -1.947 LR: -10.373 RR:   0.000 FEB:  -7.390
USER: RMSD 5.821267
USER: SEED 63
USER: STATUS no improvement in best 16 clusters for 5 generations
USER: GENES 12
USER: genes 0 Translation |==|  0.51271 0.46854 0.47216
USER: genes 1 Rotation |==|  0.65971 0.78043 0.87883 0.54839
USER: genes 2 Torsion [C]-CA--N-[C] |==|  0.65468
USER: genes 3 Torsion [N]-C--CA-[N] |==|  0.40610
USER: genes 4 Torsion [C]-CA--N-[H1] |==|  0.70507
USER: genes 5 Torsion [N]-CA--C-[N] |==|  0.77399
USER: genes 6 Torsion [C]-N--CA-[CB] |==|  0.15331
USER: genes 7 Torsion [N]-CA--CB-[CG] |==|  0.66119
USER: genes 8 Torsion [CA]-CB--CG-[CD2] |==|  0.29825
USER: genes 9 Torsion [N]-CA--C-[OXT] |==|  0.19154
USER: genes 10 Torsion [N]-CA--CB-[CG2] |==|  0.50939
USER: genes 11 Torsion [CA]-CB--CG1-[CD1] |==|  0.76986
ROOT
ATOM      1  CA  ILE B   2      76.451  45.886  16.025  1.00 64.17 LIG 0.18  C 
ENDROOT
BRANCH 1 2
ATOM      2  N   ILE B   2      76.771  44.541  16.486  1.00 64.56 LIG-0.35  N 
ATOM      3  C   ALA B   1      75.870  43.778  17.100  1.00 64.53 LIG 0.25  C 
ATOM      4 O    ALA B   1      74.713  44.147  17.312  1.00 64.21 LIG-0.27  OA
ATOM      5 H    ILE B   2      77.579  44.294  16.327  1.00 64.56 LIG 0.16  HD
BRANCH 3 6
ATOM      6  CA  ALA B   1      76.347  42.392  17.533  1.00 64.34 LIG 0.27  C 
ATOM      7  CB  ALA B   1      76.070  41.374  16.431  1.00 65.15 LIG 0.05  C 
BRANCH 6 8
ATOM      8  N   ALA B   1      75.695  41.956  18.802  1.00 63.44 LIG-0.07  N 
ATOM      9 H1   ALA B   1      76.282  42.006  19.469  1.00 63.44 LIG 0.28  HD
ATOM     10 H2   ALA B   1      75.001  42.485  18.976  1.00 63.44 LIG 0.28  HD
ATOM     11 H3   ALA B   1      75.413  41.116  18.717  1.00 63.44 LIG 0.28  HD
ENDBRANCH 6 8
ENDBRANCH 3 6
ENDBRANCH 1 2
BRANCH 1 12
ATOM     12  C   ILE B   2      76.739  46.048  14.535  1.00 63.93 LIG 0.24  C 
ATOM     13  N   HIS B   3      78.003  46.286  14.205  1.00 63.34 LIG-0.34  N 
ATOM     14 H    HIS B   3      78.646  46.352  14.772  1.00 63.34 LIG 0.16  HD
ATOM     15 O    ILE B   2      75.834  45.956  13.704  1.00 63.64 LIG-0.27  OA
BRANCH 13 16
ATOM     16  CA  HIS B   3      78.401  46.456  12.814  1.00 63.18 LIG 0.19  C 
BRANCH 16 17
ATOM     17  CB  HIS B   3      77.573  47.563  12.156  1.00 62.24 LIG 0.10  C 
BRANCH 17 18
ATOM     18  CG  HIS B   3      76.808  47.113  10.949  1.00 63.21 LIG 0.05  A 
ATOM     19  CD2 HIS B   3      75.484  46.896  10.762  1.00 62.69 LIG 0.12  A 
ATOM     20  NE2 HIS B   3      75.320  46.490   9.460  1.00 63.05 LIG-0.36  N 
ATOM     21 HE2  HIS B   3      74.570  46.289   9.090  1.00 63.05 LIG 0.17  HD
ATOM     22  CE1 HIS B   3      76.501  46.459   8.867  1.00 63.79 LIG 0.21  A 
ATOM     23 ND1  HIS B   3      77.416  46.831   9.744  1.00 63.44 LIG-0.25  NA
ENDBRANCH 17 18
ENDBRANCH 16 17
BRANCH 16 24
ATOM     24  C   HIS B   3      79.882  46.805  12.735  1.00 63.55 LIG 0.20  C 
ATOM     25 OXT  HIS B   3      80.712  45.927  13.043  1.00 62.89 LIG-0.65  OA
ATOM     26 O    HIS B   3      80.195  47.956  12.360  1.00 64.85 LIG-0.65  OA
ENDBRANCH 16 24
ENDBRANCH 13 16
ENDBRANCH 1 12
BRANCH 1 27
ATOM     27  CB  ILE B   2      77.261  46.944  16.801  1.00 64.73 LIG 0.01  C 
ATOM     28  CG2 ILE B   2      76.850  48.346  16.359  1.00 64.62 LIG 0.01  C 
BRANCH 27 29
ATOM     29  CG1 ILE B   2      77.041  46.761  18.303  1.00 64.82 LIG 0.00  C 
ATOM     30  CD1 ILE B   2      75.780  47.411  18.825  1.00 66.82 LIG 0.01  C 
ENDBRANCH 27 29
ENDBRANCH 1 27
TORSDOF 10
ENDMDL
MODEL 22
USER: ADFR SOLUTION from run 124
USER: SCORE 12.266237 LL:  -2.098 LR: -10.336 RR:   0.000 FEB:  -7.353
USER: RMSD 6.580873
USER: SEED 123
USER: STATUS no improvement in best 13 clusters for 5 generations
USER: GENES 12
USER: genes 0 Translation |==|  0.48931 0.42220 0.62130
USER: genes 1 Rotation |==|  0.26209 0.37801 0.69109 0.87683
USER: genes 2 Torsion [C]-CA--N-[C] |==|  0.72236
USER: genes 3 Torsion [N]-C--CA-[N] |==|  0.77376
USER: genes 4 Torsion [C]-CA--N-[H1] |==|  0.76782
USER: genes 5 Torsion [N]-CA--C-[N] |==|  0.31322
USER: genes 6 Torsion [C]-N--CA-[CB] |==|  0.17583
USER: genes 7 Torsion [N]-CA--CB-[CG] |==|  0.09491
USER: genes 8 Torsion [CA]-CB--CG-[CD2] |==|  0.75082
USER: genes 9 Torsion [N]-CA--C-[OXT] |==|  0.51441
USER: genes 10 Torsion [N]-CA--CB-[CG2] |==|  0.76968
USER: genes 11 Torsion [CA]-CB--CG1-[CD1] |==|  0.28882
ROOT
ATOM      1  CA  ILE B   2      75.749  44.496  20.499  1.00 64.17 LIG 0.18  C 
ENDROOT
BRANCH 1 2
ATOM      2  N   ILE B   2      75.555  43.711  19.287  1.00 64.56 LIG-0.35  N 
ATOM      3  C   ALA B   1      76.572  43.378  18.497  1.00 64.53 LIG 0.25  C 
ATOM      4 O    ALA B   1      77.738  43.698  18.735  1.00 64.21 LIG-0.27  OA
ATOM      5 H    ILE B   2      74.739  43.489  19.135  1.00 64.56 LIG 0.16  HD
BRANCH 3 6
ATOM      6  CA  ALA B   1      76.219  42.556  17.257  1.00 64.34 LIG 0.27  C 
ATOM      7  CB  ALA B   1      74.933  43.082  16.628  1.00 65.15 LIG 0.05  C 
BRANCH 6 8
ATOM      8  N   ALA B   1      76.070  41.107  17.580  1.00 63.44 LIG-0.07  N 
ATOM      9 H1   ALA B   1      76.871  40.720  17.581  1.00 63.44 LIG 0.28  HD
ATOM     10 H2   ALA B   1      75.696  41.019  18.383  1.00 63.44 LIG 0.28  HD
ATOM     11 H3   ALA B   1      75.554  40.718  16.969  1.00 63.44 LIG 0.28  HD
ENDBRANCH 6 8
ENDBRANCH 3 6
ENDBRANCH 1 2
BRANCH 1 12
ATOM     12  C   ILE B   2      75.766  43.610  21.741  1.00 63.93 LIG 0.24  C 
ATOM     13  N   HIS B   3      76.926  43.525  22.384  1.00 63.34 LIG-0.34  N 
ATOM     14 H    HIS B   3      77.644  43.931  22.141  1.00 63.34 LIG 0.16  HD
ATOM     15 O    ILE B   2      74.750  43.018  22.109  1.00 63.64 LIG-0.27  OA
BRANCH 13 16
ATOM     16  CA  HIS B   3      77.065  42.712  23.585  1.00 63.18 LIG 0.19  C 
BRANCH 16 17
ATOM     17  CB  HIS B   3      76.821  41.236  23.259  1.00 62.24 LIG 0.10  C 
BRANCH 17 18
ATOM     18  CG  HIS B   3      77.291  40.830  21.896  1.00 63.21 LIG 0.05  A 
ATOM     19  CD2 HIS B   3      76.660  40.829  20.697  1.00 62.69 LIG 0.12  A 
ATOM     20  NE2 HIS B   3      77.554  40.356  19.768  1.00 63.05 LIG-0.36  N 
ATOM     21 HE2  HIS B   3      77.396  40.258  18.928  1.00 63.05 LIG 0.17  HD
ATOM     22  CE1 HIS B   3      78.695  40.077  20.373  1.00 63.79 LIG 0.21  A 
ATOM     23 ND1  HIS B   3      78.563  40.354  21.658  1.00 63.44 LIG-0.25  NA
ENDBRANCH 17 18
ENDBRANCH 16 17
BRANCH 16 24
ATOM     24  C   HIS B   3      78.460  42.885  24.171  1.00 63.55 LIG 0.20  C 
ATOM     25 OXT  HIS B   3      78.780  42.180  25.149  1.00 62.89 LIG-0.65  OA
ATOM     26 O    HIS B   3      79.222  43.722  23.639  1.00 64.85 LIG-0.65  OA
ENDBRANCH 16 24
ENDBRANCH 13 16
ENDBRANCH 1 12
BRANCH 1 27
ATOM     27  CB  ILE B   2      74.635  45.549  20.660  1.00 64.73 LIG 0.01  C 
ATOM     28  CG2 ILE B   2      74.963  46.789  19.832  1.00 64.62 LIG 0.01  C 
BRANCH 27 29
ATOM     29  CG1 ILE B   2      73.294  44.950  20.234  1.00 64.82 LIG 0.00  C 
ATOM     30  CD1 ILE B   2      72.390  44.580  21.387  1.00 66.82 LIG 0.01  C 
ENDBRANCH 27 29
ENDBRANCH 1 27
TORSDOF 10
ENDMDL
MODEL 23
USER: ADFR SOLUTION from run 149
USER: SCORE 12.456205 LL:  -2.213 LR: -10.333 RR:   0.000 FEB:  -7.350
USER: RMSD 6.779302
USER: SEED 148
USER: STATUS no improvement in best 12 clusters for 5 generations
USER: GENES 12
USER: genes 0 Translation |==|  0.47521 0.37652 0.53126
USER: genes 1 Rotation |==|  0.37980 0.92572 0.46406 0.73027
USER: genes 2 Torsion [C]-CA--N-[C] |==|  0.15057
USER: genes 3 Torsion [N]-C--CA-[N] |==|  0.30992
USER: genes 4 Torsion [C]-CA--N-[H1] |==|  0.00023
USER: genes 5 Torsion [N]-CA--C-[N] |==|  0.09395
USER: genes 6 Torsion [C]-N--CA-[CB] |==|  0.15112
USER: genes 7 Torsion [N]-CA--CB-[CG] |==|  0.45268
USER: genes 8 Torsion [CA]-CB--CG-[CD2] |==|  0.14938
USER: genes 9 Torsion [N]-CA--C-[OXT] |==|  0.44564
USER: genes 10 Torsion [N]-CA--CB-[CG2] |==|  0.53969
USER: genes 11 Torsion [CA]-CB--CG1-[CD1] |==|  0.74603
ROOT
ATOM      1  CA  ILE B   2      75.326  43.126  17.798  1.00 64.17 LIG 0.18  C 
ENDROOT
BRANCH 1 2
ATOM      2  N   ILE B   2      74.693  44.247  18.481  1.00 64.56 LIG-0.35  N 
ATOM      3  C   ALA B   1      75.395  45.112  19.207  1.00 64.53 LIG 0.25  C 
ATOM      4 O    ALA B   1      76.617  45.035  19.344  1.00 64.21 LIG-0.27  OA
ATOM      5 H    ILE B   2      73.841  44.292  18.372  1.00 64.56 LIG 0.16  HD
BRANCH 3 6
ATOM      6  CA  ALA B   1      74.597  46.235  19.870  1.00 64.34 LIG 0.27  C 
ATOM      7  CB  ALA B   1      75.186  47.590  19.493  1.00 65.15 LIG 0.05  C 
BRANCH 6 8
ATOM      8  N   ALA B   1      74.570  46.089  21.354  1.00 63.44 LIG-0.07  N 
ATOM      9 H1   ALA B   1      75.031  45.365  21.589  1.00 63.44 LIG 0.28  HD
ATOM     10 H2   ALA B   1      74.935  46.808  21.730  1.00 63.44 LIG 0.28  HD
ATOM     11 H3   ALA B   1      73.728  46.007  21.629  1.00 63.44 LIG 0.28  HD
ENDBRANCH 6 8
ENDBRANCH 3 6
ENDBRANCH 1 2
BRANCH 1 12
ATOM     12  C   ILE B   2      76.154  42.280  18.761  1.00 63.93 LIG 0.24  C 
ATOM     13  N   HIS B   3      75.689  42.181  20.002  1.00 63.34 LIG-0.34  N 
ATOM     14 H    HIS B   3      74.967  42.560  20.279  1.00 63.34 LIG 0.16  HD
ATOM     15 O    ILE B   2      77.190  41.728  18.387  1.00 63.64 LIG-0.27  OA
BRANCH 13 16
ATOM     16  CA  HIS B   3      76.390  41.399  21.011  1.00 63.18 LIG 0.19  C 
BRANCH 16 17
ATOM     17  CB  HIS B   3      77.846  41.859  21.123  1.00 62.24 LIG 0.10  C 
BRANCH 17 18
ATOM     18  CG  HIS B   3      78.528  41.413  22.379  1.00 63.21 LIG 0.05  A 
ATOM     19  CD2 HIS B   3      78.676  40.182  22.926  1.00 62.69 LIG 0.12  A 
ATOM     20  NE2 HIS B   3      79.389  40.338  24.090  1.00 63.05 LIG-0.36  N 
ATOM     21 HE2  HIS B   3      79.616  39.705  24.625  1.00 63.05 LIG 0.17  HD
ATOM     22  CE1 HIS B   3      79.670  41.619  24.253  1.00 63.79 LIG 0.21  A 
ATOM     23 ND1  HIS B   3      79.162  42.290  23.234  1.00 63.44 LIG-0.25  NA
ENDBRANCH 17 18
ENDBRANCH 16 17
BRANCH 16 24
ATOM     24  C   HIS B   3      75.698  41.551  22.360  1.00 63.55 LIG 0.20  C 
ATOM     25 OXT  HIS B   3      75.919  40.690  23.235  1.00 62.89 LIG-0.65  OA
ATOM     26 O    HIS B   3      74.945  42.535  22.527  1.00 64.85 LIG-0.65  OA
ENDBRANCH 16 24
ENDBRANCH 13 16
ENDBRANCH 1 12
BRANCH 1 27
ATOM     27  CB  ILE B   2      76.244  43.618  16.661  1.00 64.73 LIG 0.01  C 
ATOM     28  CG2 ILE B   2      76.613  42.454  15.744  1.00 64.62 LIG 0.01  C 
BRANCH 27 29
ATOM     29  CG1 ILE B   2      75.541  44.726  15.875  1.00 64.82 LIG 0.00  C 
ATOM     30  CD1 ILE B   2      74.743  44.231  14.691  1.00 66.82 LIG 0.01  C 
ENDBRANCH 27 29
ENDBRANCH 1 27
TORSDOF 10
ENDMDL
MODEL 24
USER: ADFR SOLUTION from run 4
USER: SCORE 12.318941 LL:  -2.233 LR: -10.316 RR:   0.000 FEB:  -7.333
USER: RMSD 5.855018
USER: SEED 997763
USER: STATUS no improvement in best 19 clusters for 5 generations
USER: GENES 12
USER: genes 0 Translation |==|  0.48827 0.47224 0.41718
USER: genes 1 Rotation |==|  0.74290 0.31115 0.74775 0.80652
USER: genes 2 Torsion [C]-CA--N-[C] |==|  0.77045
USER: genes 3 Torsion [N]-C--CA-[N] |==|  0.52007
USER: genes 4 Torsion [C]-CA--N-[H1] |==|  0.20083
USER: genes 5 Torsion [N]-CA--C-[N] |==|  0.19274
USER: genes 6 Torsion [C]-N--CA-[CB] |==|  0.36267
USER: genes 7 Torsion [N]-CA--CB-[CG] |==|  0.86391
USER: genes 8 Torsion [CA]-CB--CG-[CD2] |==|  0.89842
USER: genes 9 Torsion [N]-CA--C-[OXT] |==|  0.29220
USER: genes 10 Torsion [N]-CA--CB-[CG2] |==|  0.15031
USER: genes 11 Torsion [CA]-CB--CG1-[CD1] |==|  0.52822
ROOT
ATOM      1  CA  ILE B   2      75.718  45.997  14.375  1.00 64.17 LIG 0.18  C 
ENDROOT
BRANCH 1 2
ATOM      2  N   ILE B   2      74.597  46.621  13.683  1.00 64.56 LIG-0.35  N 
ATOM      3  C   ALA B   1      74.555  47.932  13.459  1.00 64.53 LIG 0.25  C 
ATOM      4 O    ALA B   1      75.452  48.701  13.807  1.00 64.21 LIG-0.27  OA
ATOM      5 H    ILE B   2      73.981  46.073  13.440  1.00 64.56 LIG 0.16  HD
BRANCH 3 6
ATOM      6  CA  ALA B   1      73.315  48.447  12.726  1.00 64.34 LIG 0.27  C 
ATOM      7  CB  ALA B   1      73.072  47.625  11.466  1.00 65.15 LIG 0.05  C 
BRANCH 6 8
ATOM      8  N   ALA B   1      73.445  49.891  12.373  1.00 63.44 LIG-0.07  N 
ATOM      9 H1   ALA B   1      74.032  49.982  11.710  1.00 63.44 LIG 0.28  HD
ATOM     10 H2   ALA B   1      72.654  50.205  12.114  1.00 63.44 LIG 0.28  HD
ATOM     11 H3   ALA B   1      73.727  50.346  13.083  1.00 63.44 LIG 0.28  HD
ENDBRANCH 6 8
ENDBRANCH 3 6
ENDBRANCH 1 2
BRANCH 1 12
ATOM     12  C   ILE B   2      76.882  45.731  13.425  1.00 63.93 LIG 0.24  C 
ATOM     13  N   HIS B   3      77.527  46.801  12.975  1.00 63.34 LIG-0.34  N 
ATOM     14 H    HIS B   3      77.326  47.611  13.185  1.00 63.34 LIG 0.16  HD
ATOM     15 O    ILE B   2      77.189  44.580  13.110  1.00 63.64 LIG-0.27  OA
BRANCH 13 16
ATOM     16  CA  HIS B   3      78.657  46.674  12.064  1.00 63.18 LIG 0.19  C 
BRANCH 16 17
ATOM     17  CB  HIS B   3      78.480  47.608  10.864  1.00 62.24 LIG 0.10  C 
BRANCH 17 18
ATOM     18  CG  HIS B   3      77.133  47.515  10.216  1.00 63.21 LIG 0.05  A 
ATOM     19  CD2 HIS B   3      76.314  46.456  10.006  1.00 62.69 LIG 0.12  A 
ATOM     20  NE2 HIS B   3      75.195  46.930   9.366  1.00 63.05 LIG-0.36  N 
ATOM     21 HE2  HIS B   3      74.522  46.455   9.120  1.00 63.05 LIG 0.17  HD
ATOM     22  CE1 HIS B   3      75.320  48.233   9.190  1.00 63.79 LIG 0.21  A 
ATOM     23 ND1  HIS B   3      76.481  48.612   9.694  1.00 63.44 LIG-0.25  NA
ENDBRANCH 17 18
ENDBRANCH 16 17
BRANCH 16 24
ATOM     24  C   HIS B   3      79.952  47.012  12.792  1.00 63.55 LIG 0.20  C 
ATOM     25 OXT  HIS B   3      80.711  46.075  13.110  1.00 62.89 LIG-0.65  OA
ATOM     26 O    HIS B   3      80.195  48.215  13.031  1.00 64.85 LIG-0.65  OA
ENDBRANCH 16 24
ENDBRANCH 13 16
ENDBRANCH 1 12
BRANCH 1 27
ATOM     27  CB  ILE B   2      75.295  44.663  15.023  1.00 64.73 LIG 0.01  C 
ATOM     28  CG2 ILE B   2      74.658  43.752  13.977  1.00 64.62 LIG 0.01  C 
BRANCH 27 29
ATOM     29  CG1 ILE B   2      76.513  43.991  15.659  1.00 64.82 LIG 0.00  C 
ATOM     30  CD1 ILE B   2      76.266  42.569  16.110  1.00 66.82 LIG 0.01  C 
ENDBRANCH 27 29
ENDBRANCH 1 27
TORSDOF 10
ENDMDL
MODEL 25
USER: ADFR SOLUTION from run 21
USER: SCORE 12.129939 LL:  -1.930 LR: -10.307 RR:   0.000 FEB:  -7.324
USER: RMSD 6.684671
USER: SEED 20
USER: STATUS no improvement in best 13 clusters for 5 generations
USER: GENES 12
USER: genes 0 Translation |==|  0.50848 0.44016 0.40997
USER: genes 1 Rotation |==|  0.82357 0.24059 0.23528 0.58907
USER: genes 2 Torsion [C]-CA--N-[C] |==|  0.61667
USER: genes 3 Torsion [N]-C--CA-[N] |==|  0.84245
USER: genes 4 Torsion [C]-CA--N-[H1] |==|  0.72413
USER: genes 5 Torsion [N]-CA--C-[N] |==|  0.41502
USER: genes 6 Torsion [C]-N--CA-[CB] |==|  0.86635
USER: genes 7 Torsion [N]-CA--CB-[CG] |==|  0.82333
USER: genes 8 Torsion [CA]-CB--CG-[CD2] |==|  0.91378
USER: genes 9 Torsion [N]-CA--C-[OXT] |==|  0.62416
USER: genes 10 Torsion [N]-CA--CB-[CG2] |==|  0.37180
USER: genes 11 Torsion [CA]-CB--CG1-[CD1] |==|  0.20298
ROOT
ATOM      1  CA  ILE B   2      76.325  45.035  14.159  1.00 64.17 LIG 0.18  C 
ENDROOT
BRANCH 1 2
ATOM      2  N   ILE B   2      76.625  45.047  15.585  1.00 64.56 LIG-0.35  N 
ATOM      3  C   ALA B   1      76.906  43.931  16.252  1.00 64.53 LIG 0.25  C 
ATOM      4 O    ALA B   1      76.940  42.821  15.717  1.00 64.21 LIG-0.27  OA
ATOM      5 H    ILE B   2      76.604  45.828  15.945  1.00 64.56 LIG 0.16  HD
BRANCH 3 6
ATOM      6  CA  ALA B   1      77.197  44.095  17.744  1.00 64.34 LIG 0.27  C 
ATOM      7  CB  ALA B   1      75.946  44.573  18.473  1.00 65.15 LIG 0.05  C 
BRANCH 6 8
ATOM      8  N   ALA B   1      78.320  45.047  17.985  1.00 63.44 LIG-0.07  N 
ATOM      9 H1   ALA B   1      79.070  44.591  18.131  1.00 63.44 LIG 0.28  HD
ATOM     10 H2   ALA B   1      78.424  45.570  17.272  1.00 63.44 LIG 0.28  HD
ATOM     11 H3   ALA B   1      78.136  45.549  18.696  1.00 63.44 LIG 0.28  HD
ENDBRANCH 6 8
ENDBRANCH 3 6
ENDBRANCH 1 2
BRANCH 1 12
ATOM     12  C   ILE B   2      77.005  46.192  13.435  1.00 63.93 LIG 0.24  C 
ATOM     13  N   HIS B   3      77.346  45.974  12.170  1.00 63.34 LIG-0.34  N 
ATOM     14 H    HIS B   3      77.206  45.234  11.754  1.00 63.34 LIG 0.16  HD
ATOM     15 O    ILE B   2      77.215  47.262  14.011  1.00 63.64 LIG-0.27  OA
BRANCH 13 16
ATOM     16  CA  HIS B   3      77.999  47.004  11.375  1.00 63.18 LIG 0.19  C 
BRANCH 16 17
ATOM     17  CB  HIS B   3      77.256  48.335  11.516  1.00 62.24 LIG 0.10  C 
BRANCH 17 18
ATOM     18  CG  HIS B   3      75.855  48.307  10.988  1.00 63.21 LIG 0.05  A 
ATOM     19  CD2 HIS B   3      75.296  47.600   9.976  1.00 62.69 LIG 0.12  A 
ATOM     20  NE2 HIS B   3      73.971  47.956   9.915  1.00 63.05 LIG-0.36  N 
ATOM     21 HE2  HIS B   3      73.396  47.647   9.355  1.00 63.05 LIG 0.17  HD
ATOM     22  CE1 HIS B   3      73.722  48.848  10.857  1.00 63.79 LIG 0.21  A 
ATOM     23 ND1  HIS B   3      74.843  49.078  11.519  1.00 63.44 LIG-0.25  NA
ENDBRANCH 17 18
ENDBRANCH 16 17
BRANCH 16 24
ATOM     24  C   HIS B   3      79.444  47.173  11.828  1.00 63.55 LIG 0.20  C 
ATOM     25 OXT  HIS B   3      79.884  48.330  11.976  1.00 62.89 LIG-0.65  OA
ATOM     26 O    HIS B   3      80.119  46.140  12.034  1.00 64.85 LIG-0.65  OA
ENDBRANCH 16 24
ENDBRANCH 13 16
ENDBRANCH 1 12
BRANCH 1 27
ATOM     27  CB  ILE B   2      74.805  45.125  13.913  1.00 64.73 LIG 0.01  C 
ATOM     28  CG2 ILE B   2      74.511  46.156  12.827  1.00 64.62 LIG 0.01  C 
BRANCH 27 29
ATOM     29  CG1 ILE B   2      74.265  43.749  13.518  1.00 64.82 LIG 0.00  C 
ATOM     30  CD1 ILE B   2      74.195  42.763  14.661  1.00 66.82 LIG 0.01  C 
ENDBRANCH 27 29
ENDBRANCH 1 27
TORSDOF 10
ENDMDL
MODEL 26
USER: ADFR SOLUTION from run 105
USER: SCORE 11.649189 LL:  -1.995 LR: -10.303 RR:   0.000 FEB:  -7.320
USER: RMSD 7.001592
USER: SEED 104
USER: STATUS no improvement in best 8 clusters for 5 generations
USER: GENES 12
USER: genes 0 Translation |==|  0.54371 0.55886 0.27073
USER: genes 1 Rotation |==|  0.32036 0.72492 0.65980 0.87630
USER: genes 2 Torsion [C]-CA--N-[C] |==|  0.21359
USER: genes 3 Torsion [N]-C--CA-[N] |==|  0.00152
USER: genes 4 Torsion [C]-CA--N-[H1] |==|  0.17984
USER: genes 5 Torsion [N]-CA--C-[N] |==|  0.83583
USER: genes 6 Torsion [C]-N--CA-[CB] |==|  0.82622
USER: genes 7 Torsion [N]-CA--CB-[CG] |==|  0.86893
USER: genes 8 Torsion [CA]-CB--CG-[CD2] |==|  0.17948
USER: genes 9 Torsion [N]-CA--C-[OXT] |==|  0.59205
USER: genes 10 Torsion [N]-CA--CB-[CG2] |==|  0.46521
USER: genes 11 Torsion [CA]-CB--CG1-[CD1] |==|  0.66776
ROOT
ATOM      1  CA  ILE B   2      77.381  48.596   9.982  1.00 64.17 LIG 0.18  C 
ENDROOT
BRANCH 1 2
ATOM      2  N   ILE B   2      75.957  48.336  10.154  1.00 64.56 LIG-0.35  N 
ATOM      3  C   ALA B   1      75.261  48.880  11.149  1.00 64.53 LIG 0.25  C 
ATOM      4 O    ALA B   1      75.762  49.639  11.980  1.00 64.21 LIG-0.27  OA
ATOM      5 H    ILE B   2      75.619  47.810   9.565  1.00 64.56 LIG 0.16  HD
BRANCH 3 6
ATOM      6  CA  ALA B   1      73.778  48.514  11.208  1.00 64.34 LIG 0.27  C 
ATOM      7  CB  ALA B   1      73.445  47.891  12.559  1.00 65.15 LIG 0.05  C 
BRANCH 6 8
ATOM      8  N   ALA B   1      73.396  47.580  10.110  1.00 63.44 LIG-0.07  N 
ATOM      9 H1   ALA B   1      73.821  46.806  10.219  1.00 63.44 LIG 0.28  HD
ATOM     10 H2   ALA B   1      72.517  47.442  10.130  1.00 63.44 LIG 0.28  HD
ATOM     11 H3   ALA B   1      73.622  47.935   9.326  1.00 63.44 LIG 0.28  HD
ENDBRANCH 6 8
ENDBRANCH 3 6
ENDBRANCH 1 2
BRANCH 1 12
ATOM     12  C   ILE B   2      78.218  47.798  10.977  1.00 63.93 LIG 0.24  C 
ATOM     13  N   HIS B   3      77.969  48.020  12.263  1.00 63.34 LIG-0.34  N 
ATOM     14 H    HIS B   3      77.379  48.575  12.552  1.00 63.34 LIG 0.16  HD
ATOM     15 O    ILE B   2      79.069  46.996  10.587  1.00 63.64 LIG-0.27  OA
BRANCH 13 16
ATOM     16  CA  HIS B   3      78.702  47.316  13.306  1.00 63.18 LIG 0.19  C 
BRANCH 16 17
ATOM     17  CB  HIS B   3      78.441  45.810  13.216  1.00 62.24 LIG 0.10  C 
BRANCH 17 18
ATOM     18  CG  HIS B   3      76.994  45.453  13.068  1.00 63.21 LIG 0.05  A 
ATOM     19  CD2 HIS B   3      76.110  45.705  12.072  1.00 62.69 LIG 0.12  A 
ATOM     20  NE2 HIS B   3      74.909  45.152  12.446  1.00 63.05 LIG-0.36  N 
ATOM     21 HE2  HIS B   3      74.184  45.175  11.985  1.00 63.05 LIG 0.17  HD
ATOM     22  CE1 HIS B   3      75.050  44.580  13.629  1.00 63.79 LIG 0.21  A 
ATOM     23 ND1  HIS B   3      76.299  44.747  14.026  1.00 63.44 LIG-0.25  NA
ENDBRANCH 17 18
ENDBRANCH 16 17
BRANCH 16 24
ATOM     24  C   HIS B   3      80.195  47.587  13.167  1.00 63.55 LIG 0.20  C 
ATOM     25 OXT  HIS B   3      80.991  46.681  13.485  1.00 62.89 LIG-0.65  OA
ATOM     26 O    HIS B   3      80.552  48.705  12.735  1.00 64.85 LIG-0.65  OA
ENDBRANCH 16 24
ENDBRANCH 13 16
ENDBRANCH 1 12
BRANCH 1 27
ATOM     27  CB  ILE B   2      77.697  50.094  10.163  1.00 64.73 LIG 0.01  C 
ATOM     28  CG2 ILE B   2      79.204  50.301  10.288  1.00 64.62 LIG 0.01  C 
BRANCH 27 29
ATOM     29  CG1 ILE B   2      77.136  50.885   8.979  1.00 64.82 LIG 0.00  C 
ATOM     30  CD1 ILE B   2      78.183  51.634   8.187  1.00 66.82 LIG 0.01  C 
ENDBRANCH 27 29
ENDBRANCH 1 27
TORSDOF 10
ENDMDL
MODEL 27
USER: ADFR SOLUTION from run 132
USER: SCORE 12.505405 LL:  -2.342 LR: -10.298 RR:   0.000 FEB:  -7.315
USER: RMSD 5.067800
USER: SEED 131
USER: STATUS no improvement in best 16 clusters for 5 generations
USER: GENES 12
USER: genes 0 Translation |==|  0.47651 0.39946 0.49984
USER: genes 1 Rotation |==|  0.42559 0.89665 0.21362 0.57155
USER: genes 2 Torsion [C]-CA--N-[C] |==|  0.72791
USER: genes 3 Torsion [N]-C--CA-[N] |==|  0.43564
USER: genes 4 Torsion [C]-CA--N-[H1] |==|  0.96079
USER: genes 5 Torsion [N]-CA--C-[N] |==|  0.33551
USER: genes 6 Torsion [C]-N--CA-[CB] |==|  0.28900
USER: genes 7 Torsion [N]-CA--CB-[CG] |==|  0.95715
USER: genes 8 Torsion [CA]-CB--CG-[CD2] |==|  0.17991
USER: genes 9 Torsion [N]-CA--C-[OXT] |==|  0.73311
USER: genes 10 Torsion [N]-CA--CB-[CG2] |==|  0.42198
USER: genes 11 Torsion [CA]-CB--CG1-[CD1] |==|  0.18408
ROOT
ATOM      1  CA  ILE B   2      75.365  43.814  16.855  1.00 64.17 LIG 0.18  C 
ENDROOT
BRANCH 1 2
ATOM      2  N   ILE B   2      75.670  45.091  16.223  1.00 64.56 LIG-0.35  N 
ATOM      3  C   ALA B   1      74.870  46.146  16.353  1.00 64.53 LIG 0.25  C 
ATOM      4 O    ALA B   1      73.831  46.122  17.016  1.00 64.21 LIG-0.27  OA
ATOM      5 H    ILE B   2      76.400  45.097  15.769  1.00 64.56 LIG 0.16  HD
BRANCH 3 6
ATOM      6  CA  ALA B   1      75.314  47.419  15.631  1.00 64.34 LIG 0.27  C 
ATOM      7  CB  ALA B   1      76.369  48.148  16.455  1.00 65.15 LIG 0.05  C 
BRANCH 6 8
ATOM      8  N   ALA B   1      74.163  48.328  15.360  1.00 63.44 LIG-0.07  N 
ATOM      9 H1   ALA B   1      73.400  47.885  15.481  1.00 63.44 LIG 0.28  HD
ATOM     10 H2   ALA B   1      74.195  49.021  15.917  1.00 63.44 LIG 0.28  HD
ATOM     11 H3   ALA B   1      74.206  48.620  14.520  1.00 63.44 LIG 0.28  HD
ENDBRANCH 6 8
ENDBRANCH 3 6
ENDBRANCH 1 2
BRANCH 1 12
ATOM     12  C   ILE B   2      76.124  43.646  18.168  1.00 63.93 LIG 0.24  C 
ATOM     13  N   HIS B   3      75.381  43.469  19.255  1.00 63.34 LIG-0.34  N 
ATOM     14 H    HIS B   3      74.521  43.446  19.254  1.00 63.34 LIG 0.16  HD
ATOM     15 O    ILE B   2      77.356  43.675  18.194  1.00 63.64 LIG-0.27  OA
BRANCH 13 16
ATOM     16  CA  HIS B   3      75.992  43.294  20.566  1.00 63.18 LIG 0.19  C 
BRANCH 16 17
ATOM     17  CB  HIS B   3      75.862  44.579  21.388  1.00 62.24 LIG 0.10  C 
BRANCH 17 18
ATOM     18  CG  HIS B   3      75.498  45.784  20.577  1.00 63.21 LIG 0.05  A 
ATOM     19  CD2 HIS B   3      74.380  46.081  19.871  1.00 62.69 LIG 0.12  A 
ATOM     20  NE2 HIS B   3      74.570  47.321  19.313  1.00 63.05 LIG-0.36  N 
ATOM     21 HE2  HIS B   3      74.005  47.738  18.816  1.00 63.05 LIG 0.17  HD
ATOM     22  CE1 HIS B   3      75.761  47.773  19.664  1.00 63.79 LIG 0.21  A 
ATOM     23 ND1  HIS B   3      76.342  46.864  20.427  1.00 63.44 LIG-0.25  NA
ENDBRANCH 17 18
ENDBRANCH 16 17
BRANCH 16 24
ATOM     24  C   HIS B   3      75.320  42.143  21.304  1.00 63.55 LIG 0.20  C 
ATOM     25 OXT  HIS B   3      74.407  42.412  22.110  1.00 62.89 LIG-0.65  OA
ATOM     26 O    HIS B   3      75.713  40.980  21.062  1.00 64.85 LIG-0.65  OA
ENDBRANCH 16 24
ENDBRANCH 13 16
ENDBRANCH 1 12
BRANCH 1 27
ATOM     27  CB  ILE B   2      75.723  42.637  15.926  1.00 64.73 LIG 0.01  C 
ATOM     28  CG2 ILE B   2      76.070  41.402  16.753  1.00 64.62 LIG 0.01  C 
BRANCH 27 29
ATOM     29  CG1 ILE B   2      74.551  42.349  14.985  1.00 64.82 LIG 0.00  C 
ATOM     30  CD1 ILE B   2      74.268  43.457  13.997  1.00 66.82 LIG 0.01  C 
ENDBRANCH 27 29
ENDBRANCH 1 27
TORSDOF 10
ENDMDL
MODEL 28
USER: ADFR SOLUTION from run 18
USER: SCORE 11.890472 LL:  -1.616 LR: -10.298 RR:   0.000 FEB:  -7.315
USER: RMSD 7.647402
USER: SEED 17
USER: STATUS no improvement in best 16 clusters for 5 generations
USER: GENES 12
USER: genes 0 Translation |==|  0.54435 0.49057 0.37209
USER: genes 1 Rotation |==|  0.63483 0.31931 0.91376 0.66726
USER: genes 2 Torsion [C]-CA--N-[C] |==|  0.79451
USER: genes 3 Torsion [N]-C--CA-[N] |==|  0.12166
USER: genes 4 Torsion [C]-CA--N-[H1] |==|  0.63263
USER: genes 5 Torsion [N]-CA--C-[N] |==|  0.42454
USER: genes 6 Torsion [C]-N--CA-[CB] |==|  0.86282
USER: genes 7 Torsion [N]-CA--CB-[CG] |==|  0.53203
USER: genes 8 Torsion [CA]-CB--CG-[CD2] |==|  0.21796
USER: genes 9 Torsion [N]-CA--C-[OXT] |==|  0.87763
USER: genes 10 Torsion [N]-CA--CB-[CG2] |==|  0.54962
USER: genes 11 Torsion [CA]-CB--CG1-[CD1] |==|  0.84013
ROOT
ATOM      1  CA  ILE B   2      77.400  46.547  13.023  1.00 64.17 LIG 0.18  C 
ENDROOT
BRANCH 1 2
ATOM      2  N   ILE B   2      76.994  46.399  11.631  1.00 64.56 LIG-0.35  N 
ATOM      3  C   ALA B   1      76.797  47.452  10.843  1.00 64.53 LIG 0.25  C 
ATOM      4 O    ALA B   1      76.951  48.614  11.225  1.00 64.21 LIG-0.27  OA
ATOM      5 H    ILE B   2      76.896  45.584  11.375  1.00 64.56 LIG 0.16  HD
BRANCH 3 6
ATOM      6  CA  ALA B   1      76.367  47.146   9.407  1.00 64.34 LIG 0.27  C 
ATOM      7  CB  ALA B   1      75.853  48.413   8.732  1.00 65.15 LIG 0.05  C 
BRANCH 6 8
ATOM      8  N   ALA B   1      75.320  46.085   9.360  1.00 63.44 LIG-0.07  N 
ATOM      9 H1   ALA B   1      75.541  45.478   8.748  1.00 63.44 LIG 0.28  HD
ATOM     10 H2   ALA B   1      75.257  45.695  10.157  1.00 63.44 LIG 0.28  HD
ATOM     11 H3   ALA B   1      74.537  46.450   9.146  1.00 63.44 LIG 0.28  HD
ENDBRANCH 6 8
ENDBRANCH 3 6
ENDBRANCH 1 2
BRANCH 1 12
ATOM     12  C   ILE B   2      78.866  46.955  13.135  1.00 63.93 LIG 0.24  C 
ATOM     13  N   HIS B   3      79.202  47.640  14.222  1.00 63.34 LIG-0.34  N 
ATOM     14 H    HIS B   3      78.650  47.859  14.845  1.00 63.34 LIG 0.16  HD
ATOM     15 O    ILE B   2      79.675  46.652  12.256  1.00 63.64 LIG-0.27  OA
BRANCH 13 16
ATOM     16  CA  HIS B   3      80.573  48.082  14.443  1.00 63.18 LIG 0.19  C 
BRANCH 16 17
ATOM     17  CB  HIS B   3      81.546  46.919  14.235  1.00 62.24 LIG 0.10  C 
BRANCH 17 18
ATOM     18  CG  HIS B   3      82.941  47.205  14.701  1.00 63.21 LIG 0.05  A 
ATOM     19  CD2 HIS B   3      83.484  47.207  15.942  1.00 62.69 LIG 0.12  A 
ATOM     20  NE2 HIS B   3      84.810  47.539  15.804  1.00 63.05 LIG-0.36  N 
ATOM     21 HE2  HIS B   3      85.377  47.609  16.447  1.00 63.05 LIG 0.17  HD
ATOM     22  CE1 HIS B   3      85.073  47.733  14.524  1.00 63.79 LIG 0.21  A 
ATOM     23 ND1  HIS B   3      83.962  47.537  13.836  1.00 63.44 LIG-0.25  NA
ENDBRANCH 17 18
ENDBRANCH 16 17
BRANCH 16 24
ATOM     24  C   HIS B   3      80.914  49.216  13.483  1.00 63.55 LIG 0.20  C 
ATOM     25 OXT  HIS B   3      80.566  49.103  12.291  1.00 62.89 LIG-0.65  OA
ATOM     26 O    HIS B   3      81.523  50.208  13.939  1.00 64.85 LIG-0.65  OA
ENDBRANCH 16 24
ENDBRANCH 13 16
ENDBRANCH 1 12
BRANCH 1 27
ATOM     27  CB  ILE B   2      77.193  45.233  13.802  1.00 64.73 LIG 0.01  C 
ATOM     28  CG2 ILE B   2      77.194  45.510  15.304  1.00 64.62 LIG 0.01  C 
BRANCH 27 29
ATOM     29  CG1 ILE B   2      75.879  44.580  13.371  1.00 64.82 LIG 0.00  C 
ATOM     30  CD1 ILE B   2      74.663  45.459  13.559  1.00 66.82 LIG 0.01  C 
ENDBRANCH 27 29
ENDBRANCH 1 27
TORSDOF 10
ENDMDL
MODEL 29
USER: ADFR SOLUTION from run 103
USER: SCORE 12.329716 LL:  -2.152 LR: -10.283 RR:   0.000 FEB:  -7.300
USER: RMSD 6.241630
USER: SEED 102
USER: STATUS no improvement in best 9 clusters for 5 generations
USER: GENES 12
USER: genes 0 Translation |==|  0.52356 0.46656 0.44103
USER: genes 1 Rotation |==|  0.58736 0.79741 0.87886 0.60191
USER: genes 2 Torsion [C]-CA--N-[C] |==|  0.60562
USER: genes 3 Torsion [N]-C--CA-[N] |==|  0.42833
USER: genes 4 Torsion [C]-CA--N-[H1] |==|  0.38261
USER: genes 5 Torsion [N]-CA--C-[N] |==|  0.45859
USER: genes 6 Torsion [C]-N--CA-[CB] |==|  0.47971
USER: genes 7 Torsion [N]-CA--CB-[CG] |==|  0.90230
USER: genes 8 Torsion [CA]-CB--CG-[CD2] |==|  0.70427
USER: genes 9 Torsion [N]-CA--C-[OXT] |==|  0.77828
USER: genes 10 Torsion [N]-CA--CB-[CG2] |==|  0.29264
USER: genes 11 Torsion [CA]-CB--CG1-[CD1] |==|  0.02690
ROOT
ATOM      1  CA  ILE B   2      76.777  45.827  15.091  1.00 64.17 LIG 0.18  C 
ENDROOT
BRANCH 1 2
ATOM      2  N   ILE B   2      76.922  44.577  15.826  1.00 64.56 LIG-0.35  N 
ATOM      3  C   ALA B   1      75.915  44.047  16.513  1.00 64.53 LIG 0.25  C 
ATOM      4 O    ALA B   1      74.797  44.563  16.570  1.00 64.21 LIG-0.27  OA
ATOM      5 H    ILE B   2      77.704  44.224  15.773  1.00 64.56 LIG 0.16  HD
BRANCH 3 6
ATOM      6  CA  ALA B   1      76.214  42.734  17.239  1.00 64.34 LIG 0.27  C 
ATOM      7  CB  ALA B   1      76.068  41.559  16.279  1.00 65.15 LIG 0.05  C 
BRANCH 6 8
ATOM      8  N   ALA B   1      75.320  42.541  18.418  1.00 63.44 LIG-0.07  N 
ATOM      9 H1   ALA B   1      75.047  41.694  18.447  1.00 63.44 LIG 0.28  HD
ATOM     10 H2   ALA B   1      75.766  42.735  19.163  1.00 63.44 LIG 0.28  HD
ATOM     11 H3   ALA B   1      74.614  43.078  18.346  1.00 63.44 LIG 0.28  HD
ENDBRANCH 6 8
ENDBRANCH 3 6
ENDBRANCH 1 2
BRANCH 1 12
ATOM     12  C   ILE B   2      77.538  45.789  13.770  1.00 63.93 LIG 0.24  C 
ATOM     13  N   HIS B   3      77.233  46.736  12.889  1.00 63.34 LIG-0.34  N 
ATOM     14 H    HIS B   3      76.644  47.348  13.024  1.00 63.34 LIG 0.16  HD
ATOM     15 O    ILE B   2      78.387  44.921  13.554  1.00 63.64 LIG-0.27  OA
BRANCH 13 16
ATOM     16  CA  HIS B   3      77.895  46.804  11.594  1.00 63.18 LIG 0.19  C 
BRANCH 16 17
ATOM     17  CB  HIS B   3      77.233  47.867  10.714  1.00 62.24 LIG 0.10  C 
BRANCH 17 18
ATOM     18  CG  HIS B   3      75.751  47.977  10.905  1.00 63.21 LIG 0.05  A 
ATOM     19  CD2 HIS B   3      74.718  47.585  10.121  1.00 62.69 LIG 0.12  A 
ATOM     20  NE2 HIS B   3      73.560  47.928  10.775  1.00 63.05 LIG-0.36  N 
ATOM     21 HE2  HIS B   3      72.762  47.788  10.485  1.00 63.05 LIG 0.17  HD
ATOM     22  CE1 HIS B   3      73.869  48.510  11.921  1.00 63.79 LIG 0.21  A 
ATOM     23 ND1  HIS B   3      75.186  48.551  12.024  1.00 63.44 LIG-0.25  NA
ENDBRANCH 17 18
ENDBRANCH 16 17
BRANCH 16 24
ATOM     24  C   HIS B   3      79.370  47.138  11.780  1.00 63.55 LIG 0.20  C 
ATOM     25 OXT  HIS B   3      79.683  48.328  11.983  1.00 62.89 LIG-0.65  OA
ATOM     26 O    HIS B   3      80.196  46.201  11.727  1.00 64.85 LIG-0.65  OA
ENDBRANCH 16 24
ENDBRANCH 13 16
ENDBRANCH 1 12
BRANCH 1 27
ATOM     27  CB  ILE B   2      77.290  47.020  15.921  1.00 64.73 LIG 0.01  C 
ATOM     28  CG2 ILE B   2      78.638  47.492  15.382  1.00 64.62 LIG 0.01  C 
BRANCH 27 29
ATOM     29  CG1 ILE B   2      76.263  48.153  15.884  1.00 64.82 LIG 0.00  C 
ATOM     30  CD1 ILE B   2      74.939  47.764  15.267  1.00 66.82 LIG 0.01  C 
ENDBRANCH 27 29
ENDBRANCH 1 27
TORSDOF 10
ENDMDL
MODEL 30
USER: ADFR SOLUTION from run 34
USER: SCORE 11.767253 LL:  -1.659 LR: -10.276 RR:   0.000 FEB:  -7.293
USER: RMSD 6.953909
USER: SEED 33
USER: STATUS no improvement in best 12 clusters for 5 generations
USER: GENES 12
USER: genes 0 Translation |==|  0.50611 0.41547 0.41040
USER: genes 1 Rotation |==|  0.81009 0.21945 0.22589 0.50147
USER: genes 2 Torsion [C]-CA--N-[C] |==|  0.57186
USER: genes 3 Torsion [N]-C--CA-[N] |==|  0.57174
USER: genes 4 Torsion [C]-CA--N-[H1] |==|  0.58647
USER: genes 5 Torsion [N]-CA--C-[N] |==|  0.47053
USER: genes 6 Torsion [C]-N--CA-[CB] |==|  0.81275
USER: genes 7 Torsion [N]-CA--CB-[CG] |==|  0.57041
USER: genes 8 Torsion [CA]-CB--CG-[CD2] |==|  0.30261
USER: genes 9 Torsion [N]-CA--C-[OXT] |==|  0.11114
USER: genes 10 Torsion [N]-CA--CB-[CG2] |==|  0.80718
USER: genes 11 Torsion [CA]-CB--CG1-[CD1] |==|  0.31651
ROOT
ATOM      1  CA  ILE B   2      76.253  44.294  14.172  1.00 64.17 LIG 0.18  C 
ENDROOT
BRANCH 1 2
ATOM      2  N   ILE B   2      76.303  43.980  15.594  1.00 64.56 LIG-0.35  N 
ATOM      3  C   ALA B   1      75.868  42.817  16.071  1.00 64.53 LIG 0.25  C 
ATOM      4 O    ALA B   1      75.404  41.930  15.351  1.00 64.21 LIG-0.27  OA
ATOM      5 H    ILE B   2      76.634  44.604  16.084  1.00 64.56 LIG 0.16  HD
BRANCH 3 6
ATOM      6  CA  ALA B   1      75.978  42.627  17.584  1.00 64.34 LIG 0.27  C 
ATOM      7  CB  ALA B   1      77.192  43.378  18.119  1.00 65.15 LIG 0.05  C 
BRANCH 6 8
ATOM      8  N   ALA B   1      76.070  41.185  17.953  1.00 63.44 LIG-0.07  N 
ATOM      9 H1   ALA B   1      75.694  41.058  18.750  1.00 63.44 LIG 0.28  HD
ATOM     10 H2   ALA B   1      75.646  40.695  17.343  1.00 63.44 LIG 0.28  HD
ATOM     11 H3   ALA B   1      76.925  40.942  17.987  1.00 63.44 LIG 0.28  HD
ENDBRANCH 6 8
ENDBRANCH 3 6
ENDBRANCH 1 2
BRANCH 1 12
ATOM     12  C   ILE B   2      77.319  45.316  13.789  1.00 63.93 LIG 0.24  C 
ATOM     13  N   HIS B   3      77.505  45.509  12.488  1.00 63.34 LIG-0.34  N 
ATOM     14 H    HIS B   3      77.068  45.098  11.871  1.00 63.34 LIG 0.16  HD
ATOM     15 O    ILE B   2      77.958  45.917  14.654  1.00 63.64 LIG-0.27  OA
BRANCH 13 16
ATOM     16  CA  HIS B   3      78.494  46.461  11.999  1.00 63.18 LIG 0.19  C 
BRANCH 16 17
ATOM     17  CB  HIS B   3      78.074  47.891  12.352  1.00 62.24 LIG 0.10  C 
BRANCH 17 18
ATOM     18  CG  HIS B   3      78.639  48.932  11.436  1.00 63.21 LIG 0.05  A 
ATOM     19  CD2 HIS B   3      78.050  49.703  10.490  1.00 62.69 LIG 0.12  A 
ATOM     20  NE2 HIS B   3      79.032  50.492   9.941  1.00 63.05 LIG-0.36  N 
ATOM     21 HE2  HIS B   3      78.916  51.072   9.317  1.00 63.05 LIG 0.17  HD
ATOM     22  CE1 HIS B   3      80.183  50.217  10.529  1.00 63.79 LIG 0.21  A 
ATOM     23 ND1  HIS B   3      79.973  49.279  11.435  1.00 63.44 LIG-0.25  NA
ENDBRANCH 17 18
ENDBRANCH 16 17
BRANCH 16 24
ATOM     24  C   HIS B   3      79.855  46.159  12.614  1.00 63.55 LIG 0.20  C 
ATOM     25 OXT  HIS B   3      80.195  44.966  12.735  1.00 62.89 LIG-0.65  OA
ATOM     26 O    HIS B   3      80.569  47.125  12.963  1.00 64.85 LIG-0.65  OA
ENDBRANCH 16 24
ENDBRANCH 13 16
ENDBRANCH 1 12
BRANCH 1 27
ATOM     27  CB  ILE B   2      74.872  44.852  13.777  1.00 64.73 LIG 0.01  C 
ATOM     28  CG2 ILE B   2      73.818  43.750  13.859  1.00 64.62 LIG 0.01  C 
BRANCH 27 29
ATOM     29  CG1 ILE B   2      74.507  46.022  14.693  1.00 64.82 LIG 0.00  C 
ATOM     30  CD1 ILE B   2      74.428  47.356  13.987  1.00 66.82 LIG 0.01  C 
ENDBRANCH 27 29
ENDBRANCH 1 27
TORSDOF 10
ENDMDL
MODEL 31
USER: ADFR SOLUTION from run 23
USER: SCORE 12.318569 LL:  -2.298 LR: -10.260 RR:   0.000 FEB:  -7.277
USER: RMSD 6.432277
USER: SEED 22
USER: STATUS no improvement in best 13 clusters for 5 generations
USER: GENES 12
USER: genes 0 Translation |==|  0.48754 0.62206 0.38080
USER: genes 1 Rotation |==|  0.39564 0.58302 0.80975 0.86915
USER: genes 2 Torsion [C]-CA--N-[C] |==|  0.77039
USER: genes 3 Torsion [N]-C--CA-[N] |==|  0.48153
USER: genes 4 Torsion [C]-CA--N-[H1] |==|  0.93335
USER: genes 5 Torsion [N]-CA--C-[N] |==|  0.23979
USER: genes 6 Torsion [C]-N--CA-[CB] |==|  0.27960
USER: genes 7 Torsion [N]-CA--CB-[CG] |==|  0.06767
USER: genes 8 Torsion [CA]-CB--CG-[CD2] |==|  0.66612
USER: genes 9 Torsion [N]-CA--C-[OXT] |==|  0.34883
USER: genes 10 Torsion [N]-CA--CB-[CG2] |==|  0.47056
USER: genes 11 Torsion [CA]-CB--CG1-[CD1] |==|  0.50116
ROOT
ATOM      1  CA  ILE B   2      75.696  50.492  13.284  1.00 64.17 LIG 0.18  C 
ENDROOT
BRANCH 1 2
ATOM      2  N   ILE B   2      74.626  49.586  12.884  1.00 64.56 LIG-0.35  N 
ATOM      3  C   ALA B   1      74.621  48.990  11.695  1.00 64.53 LIG 0.25  C 
ATOM      4 O    ALA B   1      75.513  49.151  10.860  1.00 64.21 LIG-0.27  OA
ATOM      5 H    ILE B   2      74.014  49.477  13.478  1.00 64.56 LIG 0.16  HD
BRANCH 3 6
ATOM      6  CA  ALA B   1      73.433  48.070  11.411  1.00 64.34 LIG 0.27  C 
ATOM      7  CB  ALA B   1      73.445  46.886  12.372  1.00 65.15 LIG 0.05  C 
BRANCH 6 8
ATOM      8  N   ALA B   1      73.440  47.580  10.002  1.00 63.44 LIG-0.07  N 
ATOM      9 H1   ALA B   1      73.898  48.149   9.493  1.00 63.44 LIG 0.28  HD
ATOM     10 H2   ALA B   1      73.823  46.777   9.969  1.00 63.44 LIG 0.28  HD
ATOM     11 H3   ALA B   1      72.604  47.522   9.704  1.00 63.44 LIG 0.28  HD
ENDBRANCH 6 8
ENDBRANCH 3 6
ENDBRANCH 1 2
BRANCH 1 12
ATOM     12  C   ILE B   2      76.904  49.728  13.818  1.00 63.93 LIG 0.24  C 
ATOM     13  N   HIS B   3      77.785  49.317  12.912  1.00 63.34 LIG-0.34  N 
ATOM     14 H    HIS B   3      77.709  49.456  12.067  1.00 63.34 LIG 0.16  HD
ATOM     15 O    ILE B   2      77.035  49.517  15.025  1.00 63.64 LIG-0.27  OA
BRANCH 13 16
ATOM     16  CA  HIS B   3      78.979  48.580  13.301  1.00 63.18 LIG 0.19  C 
BRANCH 16 17
ATOM     17  CB  HIS B   3      78.784  47.082  13.053  1.00 62.24 LIG 0.10  C 
BRANCH 17 18
ATOM     18  CG  HIS B   3      77.764  46.769  12.003  1.00 63.21 LIG 0.05  A 
ATOM     19  CD2 HIS B   3      76.610  46.061  12.061  1.00 62.69 LIG 0.12  A 
ATOM     20  NE2 HIS B   3      76.056  46.084  10.805  1.00 63.05 LIG-0.36  N 
ATOM     21 HE2  HIS B   3      75.317  45.706  10.578  1.00 63.05 LIG 0.17  HD
ATOM     22  CE1 HIS B   3      76.839  46.783  10.002  1.00 63.79 LIG 0.21  A 
ATOM     23 ND1  HIS B   3      77.877  47.207  10.700  1.00 63.44 LIG-0.25  NA
ENDBRANCH 17 18
ENDBRANCH 16 17
BRANCH 16 24
ATOM     24  C   HIS B   3      80.180  49.080  12.508  1.00 63.55 LIG 0.20  C 
ATOM     25 OXT  HIS B   3      81.187  49.459  13.139  1.00 62.89 LIG-0.65  OA
ATOM     26 O    HIS B   3      80.101  49.081  11.260  1.00 64.85 LIG-0.65  OA
ENDBRANCH 16 24
ENDBRANCH 13 16
ENDBRANCH 1 12
BRANCH 1 27
ATOM     27  CB  ILE B   2      75.214  51.473  14.371  1.00 64.73 LIG 0.01  C 
ATOM     28  CG2 ILE B   2      76.402  52.229  14.959  1.00 64.62 LIG 0.01  C 
BRANCH 27 29
ATOM     29  CG1 ILE B   2      74.194  52.444  13.773  1.00 64.82 LIG 0.00  C 
ATOM     30  CD1 ILE B   2      73.661  53.460  14.756  1.00 66.82 LIG 0.01  C 
ENDBRANCH 27 29
ENDBRANCH 1 27
TORSDOF 10
ENDMDL
MODEL 32
USER: ADFR SOLUTION from run 104
USER: SCORE 11.856428 LL:  -2.406 LR: -10.233 RR:   0.000 FEB:  -7.250
USER: RMSD 5.011022
USER: SEED 103
USER: STATUS no improvement in best 18 clusters for 5 generations
USER: GENES 12
USER: genes 0 Translation |==|  0.46740 0.50010 0.60918
USER: genes 1 Rotation |==|  0.66361 0.92607 0.55263 0.69730
USER: genes 2 Torsion [C]-CA--N-[C] |==|  0.20748
USER: genes 3 Torsion [N]-C--CA-[N] |==|  0.12996
USER: genes 4 Torsion [C]-CA--N-[H1] |==|  0.72306
USER: genes 5 Torsion [N]-CA--C-[N] |==|  0.89993
USER: genes 6 Torsion [C]-N--CA-[CB] |==|  0.30297
USER: genes 7 Torsion [N]-CA--CB-[CG] |==|  0.81112
USER: genes 8 Torsion [CA]-CB--CG-[CD2] |==|  0.22619
USER: genes 9 Torsion [N]-CA--C-[OXT] |==|  0.38911
USER: genes 10 Torsion [N]-CA--CB-[CG2] |==|  0.48874
USER: genes 11 Torsion [CA]-CB--CG1-[CD1] |==|  0.76485
ROOT
ATOM      1  CA  ILE B   2      75.092  46.833  20.135  1.00 64.17 LIG 0.18  C 
ENDROOT
BRANCH 1 2
ATOM      2  N   ILE B   2      75.317  47.147  21.541  1.00 64.56 LIG-0.35  N 
ATOM      3  C   ALA B   1      76.454  46.832  22.156  1.00 64.53 LIG 0.25  C 
ATOM      4 O    ALA B   1      77.390  46.267  21.586  1.00 64.21 LIG-0.27  OA
ATOM      5 H    ILE B   2      74.660  47.546  21.925  1.00 64.56 LIG 0.16  HD
BRANCH 3 6
ATOM      6  CA  ALA B   1      76.549  47.219  23.632  1.00 64.34 LIG 0.27  C 
ATOM      7  CB  ALA B   1      77.773  46.568  24.267  1.00 65.15 LIG 0.05  C 
BRANCH 6 8
ATOM      8  N   ALA B   1      75.320  46.830  24.383  1.00 63.44 LIG-0.07  N 
ATOM      9 H1   ALA B   1      74.794  47.542  24.480  1.00 63.44 LIG 0.28  HD
ATOM     10 H2   ALA B   1      74.885  46.198  23.933  1.00 63.44 LIG 0.28  HD
ATOM     11 H3   ALA B   1      75.548  46.519  25.185  1.00 63.44 LIG 0.28  HD
ENDBRANCH 6 8
ENDBRANCH 3 6
ENDBRANCH 1 2
BRANCH 1 12
ATOM     12  C   ILE B   2      74.818  45.346  19.933  1.00 63.93 LIG 0.24  C 
ATOM     13  N   HIS B   3      75.492  44.514  20.720  1.00 63.34 LIG-0.34  N 
ATOM     14 H    HIS B   3      76.058  44.765  21.317  1.00 63.34 LIG 0.16  HD
ATOM     15 O    ILE B   2      74.012  44.962  19.084  1.00 63.64 LIG-0.27  OA
BRANCH 13 16
ATOM     16  CA  HIS B   3      75.313  43.072  20.622  1.00 63.18 LIG 0.19  C 
BRANCH 16 17
ATOM     17  CB  HIS B   3      76.557  42.422  20.012  1.00 62.24 LIG 0.10  C 
BRANCH 17 18
ATOM     18  CG  HIS B   3      76.776  42.765  18.570  1.00 63.21 LIG 0.05  A 
ATOM     19  CD2 HIS B   3      77.332  43.854  17.986  1.00 62.69 LIG 0.12  A 
ATOM     20  NE2 HIS B   3      77.281  43.656  16.628  1.00 63.05 LIG-0.36  N 
ATOM     21 HE2  HIS B   3      77.571  44.205  16.032  1.00 63.05 LIG 0.17  HD
ATOM     22  CE1 HIS B   3      76.714  42.488  16.385  1.00 63.79 LIG 0.21  A 
ATOM     23 ND1  HIS B   3      76.400  41.929  17.540  1.00 63.44 LIG-0.25  NA
ENDBRANCH 17 18
ENDBRANCH 16 17
BRANCH 16 24
ATOM     24  C   HIS B   3      75.053  42.485  22.004  1.00 63.55 LIG 0.20  C 
ATOM     25 OXT  HIS B   3      74.201  41.580  22.109  1.00 62.89 LIG-0.65  OA
ATOM     26 O    HIS B   3      75.711  42.936  22.968  1.00 64.85 LIG-0.65  OA
ENDBRANCH 16 24
ENDBRANCH 13 16
ENDBRANCH 1 12
BRANCH 1 27
ATOM     27  CB  ILE B   2      76.309  47.231  19.277  1.00 64.73 LIG 0.01  C 
ATOM     28  CG2 ILE B   2      76.091  46.802  17.828  1.00 64.62 LIG 0.01  C 
BRANCH 27 29
ATOM     29  CG1 ILE B   2      76.531  48.742  19.369  1.00 64.82 LIG 0.00  C 
ATOM     30  CD1 ILE B   2      75.695  49.548  18.401  1.00 66.82 LIG 0.01  C 
ENDBRANCH 27 29
ENDBRANCH 1 27
TORSDOF 10
ENDMDL
MODEL 33
USER: ADFR SOLUTION from run 55
USER: SCORE 11.991188 LL:  -1.915 LR: -10.207 RR:   0.000 FEB:  -7.224
USER: RMSD 5.651342
USER: SEED 54
USER: STATUS no improvement in best 15 clusters for 5 generations
USER: GENES 12
USER: genes 0 Translation |==|  0.46884 0.37886 0.52015
USER: genes 1 Rotation |==|  0.37948 0.77968 0.12275 0.62222
USER: genes 2 Torsion [C]-CA--N-[C] |==|  0.55907
USER: genes 3 Torsion [N]-C--CA-[N] |==|  0.48719
USER: genes 4 Torsion [C]-CA--N-[H1] |==|  0.56309
USER: genes 5 Torsion [N]-CA--C-[N] |==|  0.44448
USER: genes 6 Torsion [C]-N--CA-[CB] |==|  0.23299
USER: genes 7 Torsion [N]-CA--CB-[CG] |==|  0.76783
USER: genes 8 Torsion [CA]-CB--CG-[CD2] |==|  0.74508
USER: genes 9 Torsion [N]-CA--C-[OXT] |==|  0.93677
USER: genes 10 Torsion [N]-CA--CB-[CG2] |==|  0.01721
USER: genes 11 Torsion [CA]-CB--CG1-[CD1] |==|  0.31419
ROOT
ATOM      1  CA  ILE B   2      75.135  43.196  17.465  1.00 64.17 LIG 0.18  C 
ENDROOT
BRANCH 1 2
ATOM      2  N   ILE B   2      75.301  44.009  16.266  1.00 64.56 LIG-0.35  N 
ATOM      3  C   ALA B   1      74.631  43.751  15.146  1.00 64.53 LIG 0.25  C 
ATOM      4 O    ALA B   1      73.826  42.824  15.045  1.00 64.21 LIG-0.27  OA
ATOM      5 H    ILE B   2      75.861  44.656  16.352  1.00 64.56 LIG 0.16  HD
BRANCH 3 6
ATOM      6  CA  ALA B   1      74.909  44.685  13.968  1.00 64.34 LIG 0.27  C 
ATOM      7  CB  ALA B   1      74.502  46.111  14.321  1.00 65.15 LIG 0.05  C 
BRANCH 6 8
ATOM      8  N   ALA B   1      74.195  44.244  12.735  1.00 63.44 LIG-0.07  N 
ATOM      9 H1   ALA B   1      74.607  44.574  12.019  1.00 63.44 LIG 0.28  HD
ATOM     10 H2   ALA B   1      74.195  43.355  12.694  1.00 63.44 LIG 0.28  HD
ATOM     11 H3   ALA B   1      73.356  44.539  12.757  1.00 63.44 LIG 0.28  HD
ENDBRANCH 6 8
ENDBRANCH 3 6
ENDBRANCH 1 2
BRANCH 1 12
ATOM     12  C   ILE B   2      75.568  43.953  18.716  1.00 63.93 LIG 0.24  C 
ATOM     13  N   HIS B   3      75.093  43.496  19.870  1.00 63.34 LIG-0.34  N 
ATOM     14 H    HIS B   3      74.570  42.818  19.943  1.00 63.34 LIG 0.16  HD
ATOM     15 O    ILE B   2      76.318  44.928  18.638  1.00 63.64 LIG-0.27  OA
BRANCH 13 16
ATOM     16  CA  HIS B   3      75.438  44.135  21.133  1.00 63.18 LIG 0.19  C 
BRANCH 16 17
ATOM     17  CB  HIS B   3      74.518  45.330  21.394  1.00 62.24 LIG 0.10  C 
BRANCH 17 18
ATOM     18  CG  HIS B   3      74.955  46.591  20.715  1.00 63.21 LIG 0.05  A 
ATOM     19  CD2 HIS B   3      75.745  47.607  21.140  1.00 62.69 LIG 0.12  A 
ATOM     20  NE2 HIS B   3      75.820  48.519  20.116  1.00 63.05 LIG-0.36  N 
ATOM     21 HE2  HIS B   3      76.262  49.256  20.135  1.00 63.05 LIG 0.17  HD
ATOM     22  CE1 HIS B   3      75.103  48.080  19.097  1.00 63.79 LIG 0.21  A 
ATOM     23 ND1  HIS B   3      74.570  46.918  19.432  1.00 63.44 LIG-0.25  NA
ENDBRANCH 17 18
ENDBRANCH 16 17
BRANCH 16 24
ATOM     24  C   HIS B   3      75.313  43.132  22.274  1.00 63.55 LIG 0.20  C 
ATOM     25 OXT  HIS B   3      74.573  42.142  22.110  1.00 62.89 LIG-0.65  OA
ATOM     26 O    HIS B   3      75.964  43.347  23.320  1.00 64.85 LIG-0.65  OA
ENDBRANCH 16 24
ENDBRANCH 13 16
ENDBRANCH 1 12
BRANCH 1 27
ATOM     27  CB  ILE B   2      75.955  41.894  17.368  1.00 64.73 LIG 0.01  C 
ATOM     28  CG2 ILE B   2      76.820  41.911  16.110  1.00 64.62 LIG 0.01  C 
BRANCH 27 29
ATOM     29  CG1 ILE B   2      76.820  41.736  18.620  1.00 64.82 LIG 0.00  C 
ATOM     30  CD1 ILE B   2      76.424  40.571  19.499  1.00 66.82 LIG 0.01  C 
ENDBRANCH 27 29
ENDBRANCH 1 27
TORSDOF 10
ENDMDL
MODEL 34
USER: ADFR SOLUTION from run 126
USER: SCORE 11.674753 LL:  -2.053 LR: -10.202 RR:   0.000 FEB:  -7.219
USER: RMSD 5.579929
USER: SEED 125
USER: STATUS no improvement in best 20 clusters for 5 generations
USER: GENES 12
USER: genes 0 Translation |==|  0.45069 0.42206 0.64905
USER: genes 1 Rotation |==|  0.52282 0.98733 0.52970 0.60541
USER: genes 2 Torsion [C]-CA--N-[C] |==|  0.15004
USER: genes 3 Torsion [N]-C--CA-[N] |==|  0.99498
USER: genes 4 Torsion [C]-CA--N-[H1] |==|  0.90281
USER: genes 5 Torsion [N]-CA--C-[N] |==|  0.65749
USER: genes 6 Torsion [C]-N--CA-[CB] |==|  0.39689
USER: genes 7 Torsion [N]-CA--CB-[CG] |==|  0.07619
USER: genes 8 Torsion [CA]-CB--CG-[CD2] |==|  0.60365
USER: genes 9 Torsion [N]-CA--C-[OXT] |==|  0.81563
USER: genes 10 Torsion [N]-CA--CB-[CG2] |==|  0.55907
USER: genes 11 Torsion [CA]-CB--CG1-[CD1] |==|  0.43779
ROOT
ATOM      1  CA  ILE B   2      74.591  44.492  21.332  1.00 64.17 LIG 0.18  C 
ENDROOT
BRANCH 1 2
ATOM      2  N   ILE B   2      75.005  45.280  22.485  1.00 64.56 LIG-0.35  N 
ATOM      3  C   ALA B   1      76.286  45.419  22.815  1.00 64.53 LIG 0.25  C 
ATOM      4 O    ALA B   1      77.203  44.905  22.172  1.00 64.21 LIG-0.27  OA
ATOM      5 H    ILE B   2      74.357  45.639  22.921  1.00 64.56 LIG 0.16  HD
BRANCH 3 6
ATOM      6  CA  ALA B   1      76.573  46.271  24.052  1.00 64.34 LIG 0.27  C 
ATOM      7  CB  ALA B   1      77.311  45.444  25.099  1.00 65.15 LIG 0.05  C 
BRANCH 6 8
ATOM      8  N   ALA B   1      75.320  46.830  24.638  1.00 63.44 LIG-0.07  N 
ATOM      9 H1   ALA B   1      74.747  47.021  23.985  1.00 63.44 LIG 0.28  HD
ATOM     10 H2   ALA B   1      74.956  46.231  25.187  1.00 63.44 LIG 0.28  HD
ATOM     11 H3   ALA B   1      75.510  47.571  25.092  1.00 63.44 LIG 0.28  HD
ENDBRANCH 6 8
ENDBRANCH 3 6
ENDBRANCH 1 2
BRANCH 1 12
ATOM     12  C   ILE B   2      75.160  43.078  21.389  1.00 63.93 LIG 0.24  C 
ATOM     13  N   HIS B   3      75.890  42.697  20.346  1.00 63.34 LIG-0.34  N 
ATOM     14 H    HIS B   3      76.050  43.194  19.662  1.00 63.34 LIG 0.16  HD
ATOM     15 O    ILE B   2      74.945  42.348  22.358  1.00 63.64 LIG-0.27  OA
BRANCH 13 16
ATOM     16  CA  HIS B   3      76.489  41.371  20.287  1.00 63.18 LIG 0.19  C 
BRANCH 16 17
ATOM     17  CB  HIS B   3      76.445  40.830  18.855  1.00 62.24 LIG 0.10  C 
BRANCH 17 18
ATOM     18  CG  HIS B   3      76.445  41.897  17.804  1.00 63.21 LIG 0.05  A 
ATOM     19  CD2 HIS B   3      75.802  41.978  16.614  1.00 62.69 LIG 0.12  A 
ATOM     20  NE2 HIS B   3      76.156  43.175  16.042  1.00 63.05 LIG-0.36  N 
ATOM     21 HE2  HIS B   3      75.881  43.466  15.281  1.00 63.05 LIG 0.17  HD
ATOM     22  CE1 HIS B   3      76.986  43.810  16.852  1.00 63.79 LIG 0.21  A 
ATOM     23 ND1  HIS B   3      77.177  43.060  17.923  1.00 63.44 LIG-0.25  NA
ENDBRANCH 17 18
ENDBRANCH 16 17
BRANCH 16 24
ATOM     24  C   HIS B   3      77.933  41.430  20.769  1.00 63.55 LIG 0.20  C 
ATOM     25 OXT  HIS B   3      78.758  42.067  20.084  1.00 62.89 LIG-0.65  OA
ATOM     26 O    HIS B   3      78.222  40.842  21.834  1.00 64.85 LIG-0.65  OA
ENDBRANCH 16 24
ENDBRANCH 13 16
ENDBRANCH 1 12
BRANCH 1 27
ATOM     27  CB  ILE B   2      75.046  45.154  20.016  1.00 64.73 LIG 0.01  C 
ATOM     28  CG2 ILE B   2      74.195  44.649  18.853  1.00 64.62 LIG 0.01  C 
BRANCH 27 29
ATOM     29  CG1 ILE B   2      74.945  46.675  20.143  1.00 64.82 LIG 0.00  C 
ATOM     30  CD1 ILE B   2      75.829  47.434  19.179  1.00 66.82 LIG 0.01  C 
ENDBRANCH 27 29
ENDBRANCH 1 27
TORSDOF 10
ENDMDL
MODEL 35
USER: ADFR SOLUTION from run 46
USER: SCORE 11.724844 LL:  -2.179 LR: -10.196 RR:   0.000 FEB:  -7.213
USER: RMSD 6.493214
USER: SEED 45
USER: STATUS no improvement in best 17 clusters for 5 generations
USER: GENES 12
USER: genes 0 Translation |==|  0.47411 0.55910 0.41374
USER: genes 1 Rotation |==|  0.72995 0.27265 0.86324 0.61617
USER: genes 2 Torsion [C]-CA--N-[C] |==|  0.20266
USER: genes 3 Torsion [N]-C--CA-[N] |==|  0.67381
USER: genes 4 Torsion [C]-CA--N-[H1] |==|  0.95813
USER: genes 5 Torsion [N]-CA--C-[N] |==|  0.86101
USER: genes 6 Torsion [C]-N--CA-[CB] |==|  0.22328
USER: genes 7 Torsion [N]-CA--CB-[CG] |==|  0.11338
USER: genes 8 Torsion [CA]-CB--CG-[CD2] |==|  0.75387
USER: genes 9 Torsion [N]-CA--C-[OXT] |==|  0.65603
USER: genes 10 Torsion [N]-CA--CB-[CG2] |==|  0.54904
USER: genes 11 Torsion [CA]-CB--CG1-[CD1] |==|  0.40979
ROOT
ATOM      1  CA  ILE B   2      75.293  48.603  14.272  1.00 64.17 LIG 0.18  C 
ENDROOT
BRANCH 1 2
ATOM      2  N   ILE B   2      74.557  48.898  13.049  1.00 64.56 LIG-0.35  N 
ATOM      3  C   ALA B   1      74.880  48.341  11.886  1.00 64.53 LIG 0.25  C 
ATOM      4 O    ALA B   1      75.808  47.539  11.761  1.00 64.21 LIG-0.27  OA
ATOM      5 H    ILE B   2      73.909  49.453  13.151  1.00 64.56 LIG 0.16  HD
BRANCH 3 6
ATOM      6  CA  ALA B   1      74.023  48.747  10.686  1.00 64.34 LIG 0.27  C 
ATOM      7  CB  ALA B   1      73.029  49.829  11.094  1.00 65.15 LIG 0.05  C 
BRANCH 6 8
ATOM      8  N   ALA B   1      73.294  47.580  10.110  1.00 63.44 LIG-0.07  N 
ATOM      9 H1   ALA B   1      73.649  46.825  10.422  1.00 63.44 LIG 0.28  HD
ATOM     10 H2   ALA B   1      72.436  47.623  10.341  1.00 63.44 LIG 0.28  HD
ATOM     11 H3   ALA B   1      73.363  47.595   9.223  1.00 63.44 LIG 0.28  HD
ENDBRANCH 6 8
ENDBRANCH 3 6
ENDBRANCH 1 2
BRANCH 1 12
ATOM     12  C   ILE B   2      76.668  49.265  14.269  1.00 63.93 LIG 0.24  C 
ATOM     13  N   HIS B   3      77.408  49.072  13.183  1.00 63.34 LIG-0.34  N 
ATOM     14 H    HIS B   3      77.158  48.607  12.504  1.00 63.34 LIG 0.16  HD
ATOM     15 O    ILE B   2      77.048  49.937  15.230  1.00 63.64 LIG-0.27  OA
BRANCH 13 16
ATOM     16  CA  HIS B   3      78.737  49.656  13.062  1.00 63.18 LIG 0.19  C 
BRANCH 16 17
ATOM     17  CB  HIS B   3      79.761  48.810  13.823  1.00 62.24 LIG 0.10  C 
BRANCH 17 18
ATOM     18  CG  HIS B   3      79.561  47.334  13.671  1.00 63.21 LIG 0.05  A 
ATOM     19  CD2 HIS B   3      78.814  46.455  14.381  1.00 62.69 LIG 0.12  A 
ATOM     20  NE2 HIS B   3      78.992  45.218  13.814  1.00 63.05 LIG-0.36  N 
ATOM     21 HE2  HIS B   3      78.625  44.487  14.081  1.00 63.05 LIG 0.17  HD
ATOM     22  CE1 HIS B   3      79.819  45.330  12.789  1.00 63.79 LIG 0.21  A 
ATOM     23 ND1  HIS B   3      80.178  46.597  12.681  1.00 63.44 LIG-0.25  NA
ENDBRANCH 17 18
ENDBRANCH 16 17
BRANCH 16 24
ATOM     24  C   HIS B   3      79.135  49.745  11.594  1.00 63.55 LIG 0.20  C 
ATOM     25 OXT  HIS B   3      80.195  49.194  11.236  1.00 62.89 LIG-0.65  OA
ATOM     26 O    HIS B   3      78.375  50.363  10.816  1.00 64.85 LIG-0.65  OA
ENDBRANCH 16 24
ENDBRANCH 13 16
ENDBRANCH 1 12
BRANCH 1 27
ATOM     27  CB  ILE B   2      75.478  47.083  14.454  1.00 64.73 LIG 0.01  C 
ATOM     28  CG2 ILE B   2      75.843  46.770  15.903  1.00 64.62 LIG 0.01  C 
BRANCH 27 29
ATOM     29  CG1 ILE B   2      74.195  46.356  14.048  1.00 64.82 LIG 0.00  C 
ATOM     30  CD1 ILE B   2      74.427  44.989  13.445  1.00 66.82 LIG 0.01  C 
ENDBRANCH 27 29
ENDBRANCH 1 27
TORSDOF 10
ENDMDL
MODEL 36
USER: ADFR SOLUTION from run 62
USER: SCORE 11.902756 LL:  -2.147 LR: -10.197 RR:   0.000 FEB:  -7.214
USER: RMSD 5.340253
USER: SEED 61
USER: STATUS no improvement in best 14 clusters for 5 generations
USER: GENES 12
USER: genes 0 Translation |==|  0.52943 0.46824 0.36715
USER: genes 1 Rotation |==|  0.38080 0.73061 0.41460 0.91871
USER: genes 2 Torsion [C]-CA--N-[C] |==|  0.65000
USER: genes 3 Torsion [N]-C--CA-[N] |==|  0.57417
USER: genes 4 Torsion [C]-CA--N-[H1] |==|  0.01331
USER: genes 5 Torsion [N]-CA--C-[N] |==|  0.86600
USER: genes 6 Torsion [C]-N--CA-[CB] |==|  0.18848
USER: genes 7 Torsion [N]-CA--CB-[CG] |==|  0.63803
USER: genes 8 Torsion [CA]-CB--CG-[CD2] |==|  0.09840
USER: genes 9 Torsion [N]-CA--C-[OXT] |==|  0.91936
USER: genes 10 Torsion [N]-CA--CB-[CG2] |==|  0.56897
USER: genes 11 Torsion [CA]-CB--CG1-[CD1] |==|  0.80315
ROOT
ATOM      1  CA  ILE B   2      76.953  45.877  12.874  1.00 64.17 LIG 0.18  C 
ENDROOT
BRANCH 1 2
ATOM      2  N   ILE B   2      75.949  46.863  12.494  1.00 64.56 LIG-0.35  N 
ATOM      3  C   ALA B   1      75.416  46.886  11.276  1.00 64.53 LIG 0.25  C 
ATOM      4 O    ALA B   1      75.721  46.079  10.395  1.00 64.21 LIG-0.27  OA
ATOM      5 H    ILE B   2      75.741  47.416  13.119  1.00 64.56 LIG 0.16  HD
BRANCH 3 6
ATOM      6  CA  ALA B   1      74.378  47.979  11.017  1.00 64.34 LIG 0.27  C 
ATOM      7  CB  ALA B   1      73.630  48.307  12.305  1.00 65.15 LIG 0.05  C 
BRANCH 6 8
ATOM      8  N   ALA B   1      73.410  47.580   9.955  1.00 63.44 LIG-0.07  N 
ATOM      9 H1   ALA B   1      73.571  46.740   9.708  1.00 63.44 LIG 0.28  HD
ATOM     10 H2   ALA B   1      72.581  47.644  10.271  1.00 63.44 LIG 0.28  HD
ATOM     11 H3   ALA B   1      73.502  48.118   9.252  1.00 63.44 LIG 0.28  HD
ENDBRANCH 6 8
ENDBRANCH 3 6
ENDBRANCH 1 2
BRANCH 1 12
ATOM     12  C   ILE B   2      76.543  45.122  14.135  1.00 63.93 LIG 0.24  C 
ATOM     13  N   HIS B   3      76.126  45.866  15.154  1.00 63.34 LIG-0.34  N 
ATOM     14 H    HIS B   3      76.078  46.725  15.137  1.00 63.34 LIG 0.16  HD
ATOM     15 O    ILE B   2      76.603  43.892  14.183  1.00 63.64 LIG-0.27  OA
BRANCH 13 16
ATOM     16  CA  HIS B   3      75.706  45.259  16.410  1.00 63.18 LIG 0.19  C 
BRANCH 16 17
ATOM     17  CB  HIS B   3      76.904  44.624  17.120  1.00 62.24 LIG 0.10  C 
BRANCH 17 18
ATOM     18  CG  HIS B   3      76.666  43.215  17.568  1.00 63.21 LIG 0.05  A 
ATOM     19  CD2 HIS B   3      75.958  42.206  17.004  1.00 62.69 LIG 0.12  A 
ATOM     20  NE2 HIS B   3      76.070  41.118  17.835  1.00 63.05 LIG-0.36  N 
ATOM     21 HE2  HIS B   3      75.710  40.349  17.702  1.00 63.05 LIG 0.17  HD
ATOM     22  CE1 HIS B   3      76.821  41.445  18.872  1.00 63.79 LIG 0.21  A 
ATOM     23 ND1  HIS B   3      77.194  42.705  18.735  1.00 63.44 LIG-0.25  NA
ENDBRANCH 17 18
ENDBRANCH 16 17
BRANCH 16 24
ATOM     24  C   HIS B   3      75.073  46.313  17.311  1.00 63.55 LIG 0.20  C 
ATOM     25 OXT  HIS B   3      75.457  47.494  17.195  1.00 62.89 LIG-0.65  OA
ATOM     26 O    HIS B   3      74.195  45.943  18.120  1.00 64.85 LIG-0.65  OA
ENDBRANCH 16 24
ENDBRANCH 13 16
ENDBRANCH 1 12
BRANCH 1 27
ATOM     27  CB  ILE B   2      78.320  46.546  13.122  1.00 64.73 LIG 0.01  C 
ATOM     28  CG2 ILE B   2      79.444  45.535  12.910  1.00 64.62 LIG 0.01  C 
BRANCH 27 29
ATOM     29  CG1 ILE B   2      78.484  47.745  12.186  1.00 64.82 LIG 0.00  C 
ATOM     30  CD1 ILE B   2      78.683  47.370  10.735  1.00 66.82 LIG 0.01  C 
ENDBRANCH 27 29
ENDBRANCH 1 27
TORSDOF 10
ENDMDL
MODEL 37
USER: ADFR SOLUTION from run 25
USER: SCORE 11.704008 LL:  -1.937 LR: -10.188 RR:   0.000 FEB:  -7.205
USER: RMSD 6.242164
USER: SEED 24
USER: STATUS no improvement in best 14 clusters for 5 generations
USER: GENES 12
USER: genes 0 Translation |==|  0.52012 0.40592 0.46471
USER: genes 1 Rotation |==|  0.92188 0.33349 0.42619 0.69708
USER: genes 2 Torsion [C]-CA--N-[C] |==|  0.57782
USER: genes 3 Torsion [N]-C--CA-[N] |==|  0.21029
USER: genes 4 Torsion [C]-CA--N-[H1] |==|  0.33026
USER: genes 5 Torsion [N]-CA--C-[N] |==|  0.30149
USER: genes 6 Torsion [C]-N--CA-[CB] |==|  0.25669
USER: genes 7 Torsion [N]-CA--CB-[CG] |==|  0.85100
USER: genes 8 Torsion [CA]-CB--CG-[CD2] |==|  0.76261
USER: genes 9 Torsion [N]-CA--C-[OXT] |==|  0.60246
USER: genes 10 Torsion [N]-CA--CB-[CG2] |==|  0.79622
USER: genes 11 Torsion [CA]-CB--CG1-[CD1] |==|  0.29522
ROOT
ATOM      1  CA  ILE B   2      76.674  44.007  15.801  1.00 64.17 LIG 0.18  C 
ENDROOT
BRANCH 1 2
ATOM      2  N   ILE B   2      76.097  44.519  17.038  1.00 64.56 LIG-0.35  N 
ATOM      3  C   ALA B   1      76.415  44.007  18.224  1.00 64.53 LIG 0.25  C 
ATOM      4 O    ALA B   1      77.216  43.080  18.361  1.00 64.21 LIG-0.27  OA
ATOM      5 H    ILE B   2      75.545  45.169  16.930  1.00 64.56 LIG 0.16  HD
BRANCH 3 6
ATOM      6  CA  ALA B   1      75.729  44.641  19.435  1.00 64.34 LIG 0.27  C 
ATOM      7  CB  ALA B   1      76.488  44.290  20.710  1.00 65.15 LIG 0.05  C 
BRANCH 6 8
ATOM      8  N   ALA B   1      74.308  44.205  19.554  1.00 63.44 LIG-0.07  N 
ATOM      9 H1   ALA B   1      74.192  43.778  20.326  1.00 63.44 LIG 0.28  HD
ATOM     10 H2   ALA B   1      73.775  44.918  19.526  1.00 63.44 LIG 0.28  HD
ATOM     11 H3   ALA B   1      74.107  43.659  18.880  1.00 63.44 LIG 0.28  HD
ENDBRANCH 6 8
ENDBRANCH 3 6
ENDBRANCH 1 2
BRANCH 1 12
ATOM     12  C   ILE B   2      76.737  45.088  14.726  1.00 63.93 LIG 0.24  C 
ATOM     13  N   HIS B   3      77.947  45.550  14.431  1.00 63.34 LIG-0.34  N 
ATOM     14 H    HIS B   3      78.672  45.279  14.805  1.00 63.34 LIG 0.16  HD
ATOM     15 O    ILE B   2      75.711  45.493  14.176  1.00 63.64 LIG-0.27  OA
BRANCH 13 16
ATOM     16  CA  HIS B   3      78.135  46.581  13.419  1.00 63.18 LIG 0.19  C 
BRANCH 16 17
ATOM     17  CB  HIS B   3      78.122  47.969  14.065  1.00 62.24 LIG 0.10  C 
BRANCH 17 18
ATOM     18  CG  HIS B   3      76.911  48.236  14.905  1.00 63.21 LIG 0.05  A 
ATOM     19  CD2 HIS B   3      75.679  48.695  14.576  1.00 62.69 LIG 0.12  A 
ATOM     20  NE2 HIS B   3      74.945  48.755  15.735  1.00 63.05 LIG-0.36  N 
ATOM     21 HE2  HIS B   3      74.128  49.016  15.796  1.00 63.05 LIG 0.17  HD
ATOM     22  CE1 HIS B   3      75.697  48.346  16.741  1.00 63.79 LIG 0.21  A 
ATOM     23 ND1  HIS B   3      76.888  48.026  16.268  1.00 63.44 LIG-0.25  NA
ENDBRANCH 17 18
ENDBRANCH 16 17
BRANCH 16 24
ATOM     24  C   HIS B   3      79.457  46.365  12.695  1.00 63.55 LIG 0.20  C 
ATOM     25 OXT  HIS B   3      80.118  47.368  12.361  1.00 62.89 LIG-0.65  OA
ATOM     26 O    HIS B   3      79.821  45.189  12.473  1.00 64.85 LIG-0.65  OA
ENDBRANCH 16 24
ENDBRANCH 13 16
ENDBRANCH 1 12
BRANCH 1 27
ATOM     27  CB  ILE B   2      75.854  42.820  15.258  1.00 64.73 LIG 0.01  C 
ATOM     28  CG2 ILE B   2      76.098  41.580  16.115  1.00 64.62 LIG 0.01  C 
BRANCH 27 29
ATOM     29  CG1 ILE B   2      74.368  43.185  15.241  1.00 64.82 LIG 0.00  C 
ATOM     30  CD1 ILE B   2      73.816  43.455  13.860  1.00 66.82 LIG 0.01  C 
ENDBRANCH 27 29
ENDBRANCH 1 27
TORSDOF 10
ENDMDL
MODEL 38
USER: ADFR SOLUTION from run 106
USER: SCORE 11.564112 LL:  -1.850 LR: -10.189 RR:   0.000 FEB:  -7.206
USER: RMSD 6.337858
USER: SEED 105
USER: STATUS no improvement in best 11 clusters for 5 generations
USER: GENES 12
USER: genes 0 Translation |==|  0.47397 0.51264 0.41680
USER: genes 1 Rotation |==|  0.32859 0.75539 0.11998 0.60478
USER: genes 2 Torsion [C]-CA--N-[C] |==|  0.59479
USER: genes 3 Torsion [N]-C--CA-[N] |==|  0.44933
USER: genes 4 Torsion [C]-CA--N-[H1] |==|  0.83904
USER: genes 5 Torsion [N]-CA--C-[N] |==|  0.25556
USER: genes 6 Torsion [C]-N--CA-[CB] |==|  0.86304
USER: genes 7 Torsion [N]-CA--CB-[CG] |==|  0.79900
USER: genes 8 Torsion [CA]-CB--CG-[CD2] |==|  0.72473
USER: genes 9 Torsion [N]-CA--C-[OXT] |==|  0.80156
USER: genes 10 Torsion [N]-CA--CB-[CG2] |==|  0.49703
USER: genes 11 Torsion [CA]-CB--CG1-[CD1] |==|  0.76680
ROOT
ATOM      1  CA  ILE B   2      75.289  47.209  14.364  1.00 64.17 LIG 0.18  C 
ENDROOT
BRANCH 1 2
ATOM      2  N   ILE B   2      75.185  47.840  13.054  1.00 64.56 LIG-0.35  N 
ATOM      3  C   ALA B   1      74.207  47.537  12.205  1.00 64.53 LIG 0.25  C 
ATOM      4 O    ALA B   1      73.325  46.717  12.466  1.00 64.21 LIG-0.27  OA
ATOM      5 H    ILE B   2      75.803  48.414  12.888  1.00 64.56 LIG 0.16  HD
BRANCH 3 6
ATOM      6  CA  ALA B   1      74.228  48.274  10.866  1.00 64.34 LIG 0.27  C 
ATOM      7  CB  ALA B   1      73.738  49.707  11.049  1.00 65.15 LIG 0.05  C 
BRANCH 6 8
ATOM      8  N   ALA B   1      73.394  47.580   9.842  1.00 63.44 LIG-0.07  N 
ATOM      9 H1   ALA B   1      73.689  46.747   9.735  1.00 63.44 LIG 0.28  HD
ATOM     10 H2   ALA B   1      72.546  47.563  10.112  1.00 63.44 LIG 0.28  HD
ATOM     11 H3   ALA B   1      73.451  48.016   9.068  1.00 63.44 LIG 0.28  HD
ENDBRANCH 6 8
ENDBRANCH 3 6
ENDBRANCH 1 2
BRANCH 1 12
ATOM     12  C   ILE B   2      75.843  48.176  15.406  1.00 63.93 LIG 0.24  C 
ATOM     13  N   HIS B   3      74.945  48.872  16.095  1.00 63.34 LIG-0.34  N 
ATOM     14 H    HIS B   3      74.094  48.807  15.983  1.00 63.34 LIG 0.16  HD
ATOM     15 O    ILE B   2      77.057  48.285  15.584  1.00 63.64 LIG-0.27  OA
BRANCH 13 16
ATOM     16  CA  HIS B   3      75.352  49.824  17.119  1.00 63.18 LIG 0.19  C 
BRANCH 16 17
ATOM     17  CB  HIS B   3      76.361  49.179  18.074  1.00 62.24 LIG 0.10  C 
BRANCH 17 18
ATOM     18  CG  HIS B   3      75.758  48.168  18.999  1.00 63.21 LIG 0.05  A 
ATOM     19  CD2 HIS B   3      75.367  48.263  20.293  1.00 62.69 LIG 0.12  A 
ATOM     20  NE2 HIS B   3      74.881  47.032  20.662  1.00 63.05 LIG-0.36  N 
ATOM     21 HE2  HIS B   3      74.570  46.830  21.438  1.00 63.05 LIG 0.17  HD
ATOM     22  CE1 HIS B   3      74.969  46.210  19.631  1.00 63.79 LIG 0.21  A 
ATOM     23 ND1  HIS B   3      75.495  46.870  18.615  1.00 63.44 LIG-0.25  NA
ENDBRANCH 17 18
ENDBRANCH 16 17
BRANCH 16 24
ATOM     24  C   HIS B   3      75.974  51.054  16.469  1.00 63.55 LIG 0.20  C 
ATOM     25 OXT  HIS B   3      77.101  50.938  15.947  1.00 62.89 LIG-0.65  OA
ATOM     26 O    HIS B   3      75.322  52.121  16.485  1.00 64.85 LIG-0.65  OA
ENDBRANCH 16 24
ENDBRANCH 13 16
ENDBRANCH 1 12
BRANCH 1 27
ATOM     27  CB  ILE B   2      76.201  45.967  14.309  1.00 64.73 LIG 0.01  C 
ATOM     28  CG2 ILE B   2      76.315  45.340  15.696  1.00 64.62 LIG 0.01  C 
BRANCH 27 29
ATOM     29  CG1 ILE B   2      75.641  44.961  13.302  1.00 64.82 LIG 0.00  C 
ATOM     30  CD1 ILE B   2      74.567  44.060  13.865  1.00 66.82 LIG 0.01  C 
ENDBRANCH 27 29
ENDBRANCH 1 27
TORSDOF 10
ENDMDL
MODEL 39
USER: ADFR SOLUTION from run 43
USER: SCORE 12.075500 LL:  -2.141 LR: -10.153 RR:   0.000 FEB:  -7.170
USER: RMSD 5.224265
USER: SEED 42
USER: STATUS no improvement in best 12 clusters for 5 generations
USER: GENES 12
USER: genes 0 Translation |==|  0.53940 0.49180 0.48184
USER: genes 1 Rotation |==|  0.69037 0.73603 0.88630 0.59392
USER: genes 2 Torsion [C]-CA--N-[C] |==|  0.70077
USER: genes 3 Torsion [N]-C--CA-[N] |==|  0.36090
USER: genes 4 Torsion [C]-CA--N-[H1] |==|  0.44018
USER: genes 5 Torsion [N]-CA--C-[N] |==|  0.94021
USER: genes 6 Torsion [C]-N--CA-[CB] |==|  0.85380
USER: genes 7 Torsion [N]-CA--CB-[CG] |==|  0.90810
USER: genes 8 Torsion [CA]-CB--CG-[CD2] |==|  0.41268
USER: genes 9 Torsion [N]-CA--C-[OXT] |==|  0.64623
USER: genes 10 Torsion [N]-CA--CB-[CG2] |==|  0.37752
USER: genes 11 Torsion [CA]-CB--CG1-[CD1] |==|  0.93992
ROOT
ATOM      1  CA  ILE B   2      77.252  46.584  16.315  1.00 64.17 LIG 0.18  C 
ENDROOT
BRANCH 1 2
ATOM      2  N   ILE B   2      77.193  45.163  16.635  1.00 64.56 LIG-0.35  N 
ATOM      3  C   ALA B   1      76.036  44.536  16.829  1.00 64.53 LIG 0.25  C 
ATOM      4 O    ALA B   1      74.945  45.102  16.745  1.00 64.21 LIG-0.27  OA
ATOM      5 H    ILE B   2      77.960  44.779  16.684  1.00 64.56 LIG 0.16  HD
BRANCH 3 6
ATOM      6  CA  ALA B   1      76.127  43.046  17.162  1.00 64.34 LIG 0.27  C 
ATOM      7  CB  ALA B   1      75.664  42.214  15.971  1.00 65.15 LIG 0.05  C 
BRANCH 6 8
ATOM      8  N   ALA B   1      75.320  42.701  18.367  1.00 63.44 LIG-0.07  N 
ATOM      9 H1   ALA B   1      75.133  41.831  18.359  1.00 63.44 LIG 0.28  HD
ATOM     10 H2   ALA B   1      75.783  42.899  19.101  1.00 63.44 LIG 0.28  HD
ATOM     11 H3   ALA B   1      74.562  43.167  18.360  1.00 63.44 LIG 0.28  HD
ENDBRANCH 6 8
ENDBRANCH 3 6
ENDBRANCH 1 2
BRANCH 1 12
ATOM     12  C   ILE B   2      77.644  46.812  14.859  1.00 63.93 LIG 0.24  C 
ATOM     13  N   HIS B   3      78.280  45.812  14.259  1.00 63.34 LIG-0.34  N 
ATOM     14 H    HIS B   3      78.476  45.066  14.641  1.00 63.34 LIG 0.16  HD
ATOM     15 O    ILE B   2      77.374  47.872  14.290  1.00 63.64 LIG-0.27  OA
BRANCH 13 16
ATOM     16  CA  HIS B   3      78.703  45.911  12.869  1.00 63.18 LIG 0.19  C 
BRANCH 16 17
ATOM     17  CB  HIS B   3      77.523  46.315  11.982  1.00 62.24 LIG 0.10  C 
BRANCH 17 18
ATOM     18  CG  HIS B   3      76.203  45.784  12.449  1.00 63.21 LIG 0.05  A 
ATOM     19  CD2 HIS B   3      74.950  46.291  12.351  1.00 62.69 LIG 0.12  A 
ATOM     20  NE2 HIS B   3      74.101  45.393  12.950  1.00 63.05 LIG-0.36  N 
ATOM     21 HE2  HIS B   3      73.248  45.483  13.020  1.00 63.05 LIG 0.17  HD
ATOM     22  CE1 HIS B   3      74.804  44.370  13.399  1.00 63.79 LIG 0.21  A 
ATOM     23 ND1  HIS B   3      76.076  44.580  13.110  1.00 63.44 LIG-0.25  NA
ENDBRANCH 17 18
ENDBRANCH 16 17
BRANCH 16 24
ATOM     24  C   HIS B   3      79.820  46.939  12.737  1.00 63.55 LIG 0.20  C 
ATOM     25 OXT  HIS B   3      79.687  47.849  11.894  1.00 62.89 LIG-0.65  OA
ATOM     26 O    HIS B   3      80.816  46.824  13.485  1.00 64.85 LIG-0.65  OA
ENDBRANCH 16 24
ENDBRANCH 13 16
ENDBRANCH 1 12
BRANCH 1 27
ATOM     27  CB  ILE B   2      78.267  47.313  17.219  1.00 64.73 LIG 0.01  C 
ATOM     28  CG2 ILE B   2      79.117  48.269  16.386  1.00 64.62 LIG 0.01  C 
BRANCH 27 29
ATOM     29  CG1 ILE B   2      77.524  48.067  18.323  1.00 64.82 LIG 0.00  C 
ATOM     30  CD1 ILE B   2      76.077  48.363  18.001  1.00 66.82 LIG 0.01  C 
ENDBRANCH 27 29
ENDBRANCH 1 27
TORSDOF 10
ENDMDL
MODEL 40
USER: ADFR SOLUTION from run 7
USER: SCORE 11.999485 LL:  -1.956 LR: -10.150 RR:   0.000 FEB:  -7.167
USER: RMSD 7.113471
USER: SEED 98099
USER: STATUS no improvement in best 18 clusters for 5 generations
USER: GENES 12
USER: genes 0 Translation |==|  0.44221 0.52701 0.42315
USER: genes 1 Rotation |==|  0.28375 0.75308 0.12693 0.50202
USER: genes 2 Torsion [C]-CA--N-[C] |==|  0.17757
USER: genes 3 Torsion [N]-C--CA-[N] |==|  0.76330
USER: genes 4 Torsion [C]-CA--N-[H1] |==|  0.91627
USER: genes 5 Torsion [N]-CA--C-[N] |==|  0.11111
USER: genes 6 Torsion [C]-N--CA-[CB] |==|  0.40364
USER: genes 7 Torsion [N]-CA--CB-[CG] |==|  0.14459
USER: genes 8 Torsion [CA]-CB--CG-[CD2] |==|  0.72909
USER: genes 9 Torsion [N]-CA--C-[OXT] |==|  0.06556
USER: genes 10 Torsion [N]-CA--CB-[CG2] |==|  0.55596
USER: genes 11 Torsion [CA]-CB--CG1-[CD1] |==|  0.56889
ROOT
ATOM      1  CA  ILE B   2      74.336  47.640  14.555  1.00 64.17 LIG 0.18  C 
ENDROOT
BRANCH 1 2
ATOM      2  N   ILE B   2      73.877  48.103  13.251  1.00 64.56 LIG-0.35  N 
ATOM      3  C   ALA B   1      74.694  48.171  12.204  1.00 64.53 LIG 0.25  C 
ATOM      4 O    ALA B   1      75.881  47.843  12.257  1.00 64.21 LIG-0.27  OA
ATOM      5 H    ILE B   2      73.046  48.322  13.225  1.00 64.56 LIG 0.16  HD
BRANCH 3 6
ATOM      6  CA  ALA B   1      74.075  48.679  10.901  1.00 64.34 LIG 0.27  C 
ATOM      7  CB  ALA B   1      73.067  49.784  11.196  1.00 65.15 LIG 0.05  C 
BRANCH 6 8
ATOM      8  N   ALA B   1      73.415  47.580  10.139  1.00 63.44 LIG-0.07  N 
ATOM      9 H1   ALA B   1      73.833  46.812  10.304  1.00 63.44 LIG 0.28  HD
ATOM     10 H2   ALA B   1      72.564  47.514  10.391  1.00 63.44 LIG 0.28  HD
ATOM     11 H3   ALA B   1      73.454  47.758   9.268  1.00 63.44 LIG 0.28  HD
ENDBRANCH 6 8
ENDBRANCH 3 6
ENDBRANCH 1 2
BRANCH 1 12
ATOM     12  C   ILE B   2      75.391  48.575  15.138  1.00 63.93 LIG 0.24  C 
ATOM     13  N   HIS B   3      75.185  49.875  14.961  1.00 63.34 LIG-0.34  N 
ATOM     14 H    HIS B   3      74.507  50.204  14.546  1.00 63.34 LIG 0.16  HD
ATOM     15 O    ILE B   2      76.371  48.126  15.737  1.00 63.64 LIG-0.27  OA
BRANCH 13 16
ATOM     16  CA  HIS B   3      76.121  50.865  15.476  1.00 63.18 LIG 0.19  C 
BRANCH 16 17
ATOM     17  CB  HIS B   3      76.205  52.062  14.525  1.00 62.24 LIG 0.10  C 
BRANCH 17 18
ATOM     18  CG  HIS B   3      74.874  52.652  14.174  1.00 63.21 LIG 0.05  A 
ATOM     19  CD2 HIS B   3      74.074  52.471  13.096  1.00 62.69 LIG 0.12  A 
ATOM     20  NE2 HIS B   3      72.963  53.258  13.278  1.00 63.05 LIG-0.36  N 
ATOM     21 HE2  HIS B   3      72.302  53.323  12.732  1.00 63.05 LIG 0.17  HD
ATOM     22  CE1 HIS B   3      73.076  53.900  14.427  1.00 63.79 LIG 0.21  A 
ATOM     23 ND1  HIS B   3      74.220  53.552  14.988  1.00 63.44 LIG-0.25  NA
ENDBRANCH 17 18
ENDBRANCH 16 17
BRANCH 16 24
ATOM     24  C   HIS B   3      75.676  51.335  16.855  1.00 63.55 LIG 0.20  C 
ATOM     25 OXT  HIS B   3      74.945  50.580  17.527  1.00 62.89 LIG-0.65  OA
ATOM     26 O    HIS B   3      76.070  52.454  17.250  1.00 64.85 LIG-0.65  OA
ENDBRANCH 16 24
ENDBRANCH 13 16
ENDBRANCH 1 12
BRANCH 1 27
ATOM     27  CB  ILE B   2      74.932  46.222  14.460  1.00 64.73 LIG 0.01  C 
ATOM     28  CG2 ILE B   2      74.943  45.565  15.838  1.00 64.62 LIG 0.01  C 
BRANCH 27 29
ATOM     29  CG1 ILE B   2      74.121  45.387  13.467  1.00 64.82 LIG 0.00  C 
ATOM     30  CD1 ILE B   2      74.200  43.897  13.706  1.00 66.82 LIG 0.01  C 
ENDBRANCH 27 29
ENDBRANCH 1 27
TORSDOF 10
ENDMDL
MODEL 41
USER: ADFR SOLUTION from run 104
USER: SCORE 11.956378 LL:  -1.862 LR: -10.096 RR:   0.000 FEB:  -7.113
USER: RMSD 7.617767
USER: SEED 103
USER: STATUS no improvement in best 18 clusters for 5 generations
USER: GENES 12
USER: genes 0 Translation |==|  0.49169 0.49298 0.32278
USER: genes 1 Rotation |==|  0.07395 0.64947 0.65995 0.64338
USER: genes 2 Torsion [C]-CA--N-[C] |==|  0.83644
USER: genes 3 Torsion [N]-C--CA-[N] |==|  0.14794
USER: genes 4 Torsion [C]-CA--N-[H1] |==|  0.05167
USER: genes 5 Torsion [N]-CA--C-[N] |==|  0.37232
USER: genes 6 Torsion [C]-N--CA-[CB] |==|  0.18973
USER: genes 7 Torsion [N]-CA--CB-[CG] |==|  0.71966
USER: genes 8 Torsion [CA]-CB--CG-[CD2] |==|  0.30131
USER: genes 9 Torsion [N]-CA--C-[OXT] |==|  0.94256
USER: genes 10 Torsion [N]-CA--CB-[CG2] |==|  0.23493
USER: genes 11 Torsion [CA]-CB--CG1-[CD1] |==|  0.23256
ROOT
ATOM      1  CA  ILE B   2      75.821  46.619  11.543  1.00 64.17 LIG 0.18  C 
ENDROOT
BRANCH 1 2
ATOM      2  N   ILE B   2      74.986  45.693  12.298  1.00 64.56 LIG-0.35  N 
ATOM      3  C   ALA B   1      75.439  45.063  13.378  1.00 64.53 LIG 0.25  C 
ATOM      4 O    ALA B   1      76.579  45.221  13.817  1.00 64.21 LIG-0.27  OA
ATOM      5 H    ILE B   2      74.191  45.597  11.985  1.00 64.56 LIG 0.16  HD
BRANCH 3 6
ATOM      6  CA  ALA B   1      74.453  44.118  14.067  1.00 64.34 LIG 0.27  C 
ATOM      7  CB  ALA B   1      75.141  43.389  15.216  1.00 65.15 LIG 0.05  C 
BRANCH 6 8
ATOM      8  N   ALA B   1      73.879  43.128  13.110  1.00 63.44 LIG-0.07  N 
ATOM      9 H1   ALA B   1      74.395  43.081  12.386  1.00 63.44 LIG 0.28  HD
ATOM     10 H2   ALA B   1      73.839  42.328  13.498  1.00 63.44 LIG 0.28  HD
ATOM     11 H3   ALA B   1      73.060  43.384  12.874  1.00 63.44 LIG 0.28  HD
ENDBRANCH 6 8
ENDBRANCH 3 6
ENDBRANCH 1 2
BRANCH 1 12
ATOM     12  C   ILE B   2      76.308  47.771  12.417  1.00 63.93 LIG 0.24  C 
ATOM     13  N   HIS B   3      77.597  48.078  12.316  1.00 63.34 LIG-0.34  N 
ATOM     14 H    HIS B   3      78.151  47.672  11.799  1.00 63.34 LIG 0.16  HD
ATOM     15 O    ILE B   2      75.533  48.368  13.166  1.00 63.64 LIG-0.27  OA
BRANCH 13 16
ATOM     16  CA  HIS B   3      78.178  49.160  13.099  1.00 63.18 LIG 0.19  C 
BRANCH 16 17
ATOM     17  CB  HIS B   3      78.199  48.791  14.584  1.00 62.24 LIG 0.10  C 
BRANCH 17 18
ATOM     18  CG  HIS B   3      77.097  49.418  15.381  1.00 63.21 LIG 0.05  A 
ATOM     19  CD2 HIS B   3      75.984  48.884  15.941  1.00 62.69 LIG 0.12  A 
ATOM     20  NE2 HIS B   3      75.311  49.908  16.561  1.00 63.05 LIG-0.36  N 
ATOM     21 HE2  HIS B   3      74.570  49.830  16.991  1.00 63.05 LIG 0.17  HD
ATOM     22  CE1 HIS B   3      75.985  51.032  16.390  1.00 63.79 LIG 0.21  A 
ATOM     23 ND1  HIS B   3      77.067  50.764  15.681  1.00 63.44 LIG-0.25  NA
ENDBRANCH 17 18
ENDBRANCH 16 17
BRANCH 16 24
ATOM     24  C   HIS B   3      79.596  49.444  12.620  1.00 63.55 LIG 0.20  C 
ATOM     25 OXT  HIS B   3      80.194  48.553  11.985  1.00 62.89 LIG-0.65  OA
ATOM     26 O    HIS B   3      80.093  50.562  12.883  1.00 64.85 LIG-0.65  OA
ENDBRANCH 16 24
ENDBRANCH 13 16
ENDBRANCH 1 12
BRANCH 1 27
ATOM     27  CB  ILE B   2      75.052  47.204  10.342  1.00 64.73 LIG 0.01  C 
ATOM     28  CG2 ILE B   2      74.225  48.408  10.785  1.00 64.62 LIG 0.01  C 
BRANCH 27 29
ATOM     29  CG1 ILE B   2      76.038  47.598   9.241  1.00 64.82 LIG 0.00  C 
ATOM     30  CD1 ILE B   2      76.445  46.455   8.340  1.00 66.82 LIG 0.01  C 
ENDBRANCH 27 29
ENDBRANCH 1 27
TORSDOF 10
ENDMDL
MODEL 42
USER: ADFR SOLUTION from run 141
USER: SCORE 12.116877 LL:  -2.074 LR: -10.076 RR:   0.000 FEB:  -7.093
USER: RMSD 8.069671
USER: SEED 140
USER: STATUS no improvement in best 14 clusters for 5 generations
USER: GENES 12
USER: genes 0 Translation |==|  0.49704 0.50692 0.29427
USER: genes 1 Rotation |==|  0.09584 0.67377 0.70325 0.62308
USER: genes 2 Torsion [C]-CA--N-[C] |==|  0.84999
USER: genes 3 Torsion [N]-C--CA-[N] |==|  0.11335
USER: genes 4 Torsion [C]-CA--N-[H1] |==|  0.60942
USER: genes 5 Torsion [N]-CA--C-[N] |==|  0.38685
USER: genes 6 Torsion [C]-N--CA-[CB] |==|  0.18996
USER: genes 7 Torsion [N]-CA--CB-[CG] |==|  0.09429
USER: genes 8 Torsion [CA]-CB--CG-[CD2] |==|  0.57259
USER: genes 9 Torsion [N]-CA--C-[OXT] |==|  0.15720
USER: genes 10 Torsion [N]-CA--CB-[CG2] |==|  0.15619
USER: genes 11 Torsion [CA]-CB--CG1-[CD1] |==|  0.65284
ROOT
ATOM      1  CA  ILE B   2      75.981  47.038  10.688  1.00 64.17 LIG 0.18  C 
ENDROOT
BRANCH 1 2
ATOM      2  N   ILE B   2      75.311  46.157  11.637  1.00 64.56 LIG-0.35  N 
ATOM      3  C   ALA B   1      75.959  45.607  12.660  1.00 64.53 LIG 0.25  C 
ATOM      4 O    ALA B   1      77.155  45.807  12.882  1.00 64.21 LIG-0.27  OA
ATOM      5 H    ILE B   2      74.477  46.031  11.475  1.00 64.56 LIG 0.16  HD
BRANCH 3 6
ATOM      6  CA  ALA B   1      75.130  44.701  13.571  1.00 64.34 LIG 0.27  C 
ATOM      7  CB  ALA B   1      76.048  43.830  14.421  1.00 65.15 LIG 0.05  C 
BRANCH 6 8
ATOM      8  N   ALA B   1      74.195  43.841  12.789  1.00 63.44 LIG-0.07  N 
ATOM      9 H1   ALA B   1      73.417  43.781  13.218  1.00 63.44 LIG 0.28  HD
ATOM     10 H2   ALA B   1      74.064  44.199  11.985  1.00 63.44 LIG 0.28  HD
ATOM     11 H3   ALA B   1      74.546  43.028  12.699  1.00 63.44 LIG 0.28  HD
ENDBRANCH 6 8
ENDBRANCH 3 6
ENDBRANCH 1 2
BRANCH 1 12
ATOM     12  C   ILE B   2      76.689  48.187  11.398  1.00 63.93 LIG 0.24  C 
ATOM     13  N   HIS B   3      77.888  48.517  10.929  1.00 63.34 LIG-0.34  N 
ATOM     14 H    HIS B   3      78.271  48.125  10.266  1.00 63.34 LIG 0.16  HD
ATOM     15 O    ILE B   2      76.159  48.765  12.349  1.00 63.64 LIG-0.27  OA
BRANCH 13 16
ATOM     16  CA  HIS B   3      78.659  49.600  11.523  1.00 63.18 LIG 0.19  C 
BRANCH 16 17
ATOM     17  CB  HIS B   3      79.120  49.215  12.931  1.00 62.24 LIG 0.10  C 
BRANCH 17 18
ATOM     18  CG  HIS B   3      79.430  47.758  13.091  1.00 63.21 LIG 0.05  A 
ATOM     19  CD2 HIS B   3      79.406  46.954  14.181  1.00 62.69 LIG 0.12  A 
ATOM     20  NE2 HIS B   3      79.780  45.699  13.768  1.00 63.05 LIG-0.36  N 
ATOM     21 HE2  HIS B   3      79.844  45.006  14.273  1.00 63.05 LIG 0.17  HD
ATOM     22  CE1 HIS B   3      80.024  45.728  12.470  1.00 63.79 LIG 0.21  A 
ATOM     23 ND1  HIS B   3      79.820  46.960  12.036  1.00 63.44 LIG-0.25  NA
ENDBRANCH 17 18
ENDBRANCH 16 17
BRANCH 16 24
ATOM     24  C   HIS B   3      79.870  49.913  10.654  1.00 63.55 LIG 0.20  C 
ATOM     25 OXT  HIS B   3      79.676  50.212   9.458  1.00 62.89 LIG-0.65  OA
ATOM     26 O    HIS B   3      81.003  49.861  11.182  1.00 64.85 LIG-0.65  OA
ENDBRANCH 16 24
ENDBRANCH 13 16
ENDBRANCH 1 12
BRANCH 1 27
ATOM     27  CB  ILE B   2      74.978  47.626   9.676  1.00 64.73 LIG 0.01  C 
ATOM     28  CG2 ILE B   2      73.856  48.354  10.413  1.00 64.62 LIG 0.01  C 
BRANCH 27 29
ATOM     29  CG1 ILE B   2      75.706  48.575   8.722  1.00 64.82 LIG 0.00  C 
ATOM     30  CD1 ILE B   2      75.115  49.965   8.666  1.00 66.82 LIG 0.01  C 
ENDBRANCH 27 29
ENDBRANCH 1 27
TORSDOF 10
ENDMDL
MODEL 43
USER: ADFR SOLUTION from run 146
USER: SCORE 12.200350 LL:  -2.294 LR: -10.078 RR:   0.000 FEB:  -7.095
USER: RMSD 6.294368
USER: SEED 145
USER: STATUS no improvement in best 16 clusters for 5 generations
USER: GENES 12
USER: genes 0 Translation |==|  0.51118 0.41629 0.43373
USER: genes 1 Rotation |==|  0.81410 0.28065 0.23396 0.68013
USER: genes 2 Torsion [C]-CA--N-[C] |==|  0.17707
USER: genes 3 Torsion [N]-C--CA-[N] |==|  0.10100
USER: genes 4 Torsion [C]-CA--N-[H1] |==|  0.22103
USER: genes 5 Torsion [N]-CA--C-[N] |==|  0.12220
USER: genes 6 Torsion [C]-N--CA-[CB] |==|  0.26789
USER: genes 7 Torsion [N]-CA--CB-[CG] |==|  0.13816
USER: genes 8 Torsion [CA]-CB--CG-[CD2] |==|  0.99453
USER: genes 9 Torsion [N]-CA--C-[OXT] |==|  0.00930
USER: genes 10 Torsion [N]-CA--CB-[CG2] |==|  0.51849
USER: genes 11 Torsion [CA]-CB--CG1-[CD1] |==|  0.88141
ROOT
ATOM      1  CA  ILE B   2      76.405  44.319  14.872  1.00 64.17 LIG 0.18  C 
ENDROOT
BRANCH 1 2
ATOM      2  N   ILE B   2      76.989  44.670  16.160  1.00 64.56 LIG-0.35  N 
ATOM      3  C   ALA B   1      76.508  45.666  16.899  1.00 64.53 LIG 0.25  C 
ATOM      4 O    ALA B   1      75.541  46.349  16.556  1.00 64.21 LIG-0.27  OA
ATOM      5 H    ILE B   2      77.658  44.182  16.391  1.00 64.56 LIG 0.16  HD
BRANCH 3 6
ATOM      6  CA  ALA B   1      77.223  45.924  18.226  1.00 64.34 LIG 0.27  C 
ATOM      7  CB  ALA B   1      76.948  47.346  18.702  1.00 65.15 LIG 0.05  C 
BRANCH 6 8
ATOM      8  N   ALA B   1      78.694  45.703  18.111  1.00 63.44 LIG-0.07  N 
ATOM      9 H1   ALA B   1      79.072  46.415  17.733  1.00 63.44 LIG 0.28  HD
ATOM     10 H2   ALA B   1      79.039  45.579  18.922  1.00 63.44 LIG 0.28  HD
ATOM     11 H3   ALA B   1      78.848  44.984  17.610  1.00 63.44 LIG 0.28  HD
ENDBRANCH 6 8
ENDBRANCH 3 6
ENDBRANCH 1 2
BRANCH 1 12
ATOM     12  C   ILE B   2      76.550  45.456  13.865  1.00 63.93 LIG 0.24  C 
ATOM     13  N   HIS B   3      77.734  46.057  13.826  1.00 63.34 LIG-0.34  N 
ATOM     14 H    HIS B   3      78.401  45.842  14.325  1.00 63.34 LIG 0.16  HD
ATOM     15 O    ILE B   2      75.609  45.780  13.139  1.00 63.64 LIG-0.27  OA
BRANCH 13 16
ATOM     16  CA  HIS B   3      77.994  47.154  12.904  1.00 63.18 LIG 0.19  C 
BRANCH 16 17
ATOM     17  CB  HIS B   3      77.799  48.498  13.609  1.00 62.24 LIG 0.10  C 
BRANCH 17 18
ATOM     18  CG  HIS B   3      78.518  48.607  14.919  1.00 63.21 LIG 0.05  A 
ATOM     19  CD2 HIS B   3      79.278  47.713  15.597  1.00 62.69 LIG 0.12  A 
ATOM     20  NE2 HIS B   3      79.698  48.329  16.750  1.00 63.05 LIG-0.36  N 
ATOM     21 HE2  HIS B   3      80.195  47.972  17.354  1.00 63.05 LIG 0.17  HD
ATOM     22  CE1 HIS B   3      79.216  49.559  16.780  1.00 63.79 LIG 0.21  A 
ATOM     23 ND1  HIS B   3      78.500  49.752  15.686  1.00 63.44 LIG-0.25  NA
ENDBRANCH 17 18
ENDBRANCH 16 17
BRANCH 16 24
ATOM     24  C   HIS B   3      79.417  47.057  12.367  1.00 63.55 LIG 0.20  C 
ATOM     25 OXT  HIS B   3      80.110  46.078  12.709  1.00 62.89 LIG-0.65  OA
ATOM     26 O    HIS B   3      79.820  47.962  11.604  1.00 64.85 LIG-0.65  OA
ENDBRANCH 16 24
ENDBRANCH 13 16
ENDBRANCH 1 12
BRANCH 1 27
ATOM     27  CB  ILE B   2      74.909  43.976  15.017  1.00 64.73 LIG 0.01  C 
ATOM     28  CG2 ILE B   2      74.361  43.454  13.691  1.00 64.62 LIG 0.01  C 
BRANCH 27 29
ATOM     29  CG1 ILE B   2      74.723  42.941  16.127  1.00 64.82 LIG 0.00  C 
ATOM     30  CD1 ILE B   2      75.747  41.829  16.111  1.00 66.82 LIG 0.01  C 
ENDBRANCH 27 29
ENDBRANCH 1 27
TORSDOF 10
ENDMDL
MODEL 44
USER: ADFR SOLUTION from run 75
USER: SCORE 11.810294 LL:  -1.799 LR: -10.058 RR:   0.000 FEB:  -7.075
USER: RMSD 6.627926
USER: SEED 74
USER: STATUS no improvement in best 8 clusters for 5 generations
USER: GENES 12
USER: genes 0 Translation |==|  0.49268 0.49730 0.38757
USER: genes 1 Rotation |==|  0.68826 0.25770 0.88540 0.58551
USER: genes 2 Torsion [C]-CA--N-[C] |==|  0.15000
USER: genes 3 Torsion [N]-C--CA-[N] |==|  0.92891
USER: genes 4 Torsion [C]-CA--N-[H1] |==|  0.03094
USER: genes 5 Torsion [N]-CA--C-[N] |==|  0.11603
USER: genes 6 Torsion [C]-N--CA-[CB] |==|  0.81288
USER: genes 7 Torsion [N]-CA--CB-[CG] |==|  0.94773
USER: genes 8 Torsion [CA]-CB--CG-[CD2] |==|  0.85594
USER: genes 9 Torsion [N]-CA--C-[OXT] |==|  0.66112
USER: genes 10 Torsion [N]-CA--CB-[CG2] |==|  0.53254
USER: genes 11 Torsion [CA]-CB--CG1-[CD1] |==|  0.62890
ROOT
ATOM      1  CA  ILE B   2      75.850  46.749  13.487  1.00 64.17 LIG 0.18  C 
ENDROOT
BRANCH 1 2
ATOM      2  N   ILE B   2      75.413  47.067  12.134  1.00 64.56 LIG-0.35  N 
ATOM      3  C   ALA B   1      76.192  46.855  11.077  1.00 64.53 LIG 0.25  C 
ATOM      4 O    ALA B   1      77.323  46.372  11.164  1.00 64.21 LIG-0.27  OA
ATOM      5 H    ILE B   2      74.620  47.397  12.086  1.00 64.56 LIG 0.16  HD
BRANCH 3 6
ATOM      6  CA  ALA B   1      75.603  47.241   9.720  1.00 64.34 LIG 0.27  C 
ATOM      7  CB  ALA B   1      76.084  48.630   9.315  1.00 65.15 LIG 0.05  C 
BRANCH 6 8
ATOM      8  N   ALA B   1      74.112  47.205   9.736  1.00 63.44 LIG-0.07  N 
ATOM      9 H1   ALA B   1      73.826  47.122  10.575  1.00 63.44 LIG 0.28  HD
ATOM     10 H2   ALA B   1      73.793  47.959   9.387  1.00 63.44 LIG 0.28  HD
ATOM     11 H3   ALA B   1      73.826  46.512   9.256  1.00 63.44 LIG 0.28  HD
ENDBRANCH 6 8
ENDBRANCH 3 6
ENDBRANCH 1 2
BRANCH 1 12
ATOM     12  C   ILE B   2      77.183  47.416  13.813  1.00 63.93 LIG 0.24  C 
ATOM     13  N   HIS B   3      77.327  48.671  13.401  1.00 63.34 LIG-0.34  N 
ATOM     14 H    HIS B   3      76.725  49.110  12.972  1.00 63.34 LIG 0.16  HD
ATOM     15 O    ILE B   2      78.061  46.807  14.427  1.00 63.64 LIG-0.27  OA
BRANCH 13 16
ATOM     16  CA  HIS B   3      78.554  49.413  13.656  1.00 63.18 LIG 0.19  C 
BRANCH 16 17
ATOM     17  CB  HIS B   3      78.713  49.679  15.155  1.00 62.24 LIG 0.10  C 
BRANCH 17 18
ATOM     18  CG  HIS B   3      77.440  49.544  15.933  1.00 63.21 LIG 0.05  A 
ATOM     19  CD2 HIS B   3      76.217  50.094  15.747  1.00 62.69 LIG 0.12  A 
ATOM     20  NE2 HIS B   3      75.407  49.635  16.756  1.00 63.05 LIG-0.36  N 
ATOM     21 HE2  HIS B   3      74.578  49.838  16.864  1.00 63.05 LIG 0.17  HD
ATOM     22  CE1 HIS B   3      76.106  48.829  17.535  1.00 63.79 LIG 0.21  A 
ATOM     23 ND1  HIS B   3      77.337  48.756  17.061  1.00 63.44 LIG-0.25  NA
ENDBRANCH 17 18
ENDBRANCH 16 17
BRANCH 16 24
ATOM     24  C   HIS B   3      79.754  48.626  13.144  1.00 63.55 LIG 0.20  C 
ATOM     25 OXT  HIS B   3      80.654  48.329  13.955  1.00 62.89 LIG-0.65  OA
ATOM     26 O    HIS B   3      79.777  48.310  11.934  1.00 64.85 LIG-0.65  OA
ENDBRANCH 16 24
ENDBRANCH 13 16
ENDBRANCH 1 12
BRANCH 1 27
ATOM     27  CB  ILE B   2      76.002  45.227  13.676  1.00 64.73 LIG 0.01  C 
ATOM     28  CG2 ILE B   2      76.175  44.898  15.157  1.00 64.62 LIG 0.01  C 
BRANCH 27 29
ATOM     29  CG1 ILE B   2      74.778  44.512  13.100  1.00 64.82 LIG 0.00  C 
ATOM     30  CD1 ILE B   2      74.201  43.450  14.008  1.00 66.82 LIG 0.01  C 
ENDBRANCH 27 29
ENDBRANCH 1 27
TORSDOF 10
ENDMDL
MODEL 45
USER: ADFR SOLUTION from run 76
USER: SCORE 12.238766 LL:  -2.239 LR: -10.057 RR:   0.000 FEB:  -7.074
USER: RMSD 8.098660
USER: SEED 75
USER: STATUS no improvement in best 14 clusters for 5 generations
USER: GENES 12
USER: genes 0 Translation |==|  0.55126 0.52032 0.36117
USER: genes 1 Rotation |==|  0.84760 0.31936 0.72183 0.71756
USER: genes 2 Torsion [C]-CA--N-[C] |==|  0.15018
USER: genes 3 Torsion [N]-C--CA-[N] |==|  0.56844
USER: genes 4 Torsion [C]-CA--N-[H1] |==|  0.72495
USER: genes 5 Torsion [N]-CA--C-[N] |==|  0.10264
USER: genes 6 Torsion [C]-N--CA-[CB] |==|  0.45546
USER: genes 7 Torsion [N]-CA--CB-[CG] |==|  0.89657
USER: genes 8 Torsion [CA]-CB--CG-[CD2] |==|  0.28389
USER: genes 9 Torsion [N]-CA--C-[OXT] |==|  0.03454
USER: genes 10 Torsion [N]-CA--CB-[CG2] |==|  0.52638
USER: genes 11 Torsion [CA]-CB--CG1-[CD1] |==|  0.26735
ROOT
ATOM      1  CA  ILE B   2      77.608  47.440  12.695  1.00 64.17 LIG 0.18  C 
ENDROOT
BRANCH 1 2
ATOM      2  N   ILE B   2      76.253  47.916  12.447  1.00 64.56 LIG-0.35  N 
ATOM      3  C   ALA B   1      75.651  47.739  11.274  1.00 64.53 LIG 0.25  C 
ATOM      4 O    ALA B   1      76.187  47.159  10.327  1.00 64.21 LIG-0.27  OA
ATOM      5 H    ILE B   2      75.888  48.312  13.117  1.00 64.56 LIG 0.16  HD
BRANCH 3 6
ATOM      6  CA  ALA B   1      74.231  48.295  11.157  1.00 64.34 LIG 0.27  C 
ATOM      7  CB  ALA B   1      73.517  48.196  12.500  1.00 65.15 LIG 0.05  C 
BRANCH 6 8
ATOM      8  N   ALA B   1      73.445  47.580  10.110  1.00 63.44 LIG-0.07  N 
ATOM      9 H1   ALA B   1      73.445  48.059   9.360  1.00 63.44 LIG 0.28  HD
ATOM     10 H2   ALA B   1      73.812  46.785   9.954  1.00 63.44 LIG 0.28  HD
ATOM     11 H3   ALA B   1      72.608  47.470  10.391  1.00 63.44 LIG 0.28  HD
ENDBRANCH 6 8
ENDBRANCH 3 6
ENDBRANCH 1 2
BRANCH 1 12
ATOM     12  C   ILE B   2      78.583  47.964  11.646  1.00 63.93 LIG 0.24  C 
ATOM     13  N   HIS B   3      78.374  49.204  11.218  1.00 63.34 LIG-0.34  N 
ATOM     14 H    HIS B   3      77.734  49.708  11.495  1.00 63.34 LIG 0.16  HD
ATOM     15 O    ILE B   2      79.508  47.259  11.235  1.00 63.64 LIG-0.27  OA
BRANCH 13 16
ATOM     16  CA  HIS B   3      79.241  49.814  10.220  1.00 63.18 LIG 0.19  C 
BRANCH 16 17
ATOM     17  CB  HIS B   3      78.571  51.054   9.621  1.00 62.24 LIG 0.10  C 
BRANCH 17 18
ATOM     18  CG  HIS B   3      77.092  50.914   9.434  1.00 63.21 LIG 0.05  A 
ATOM     19  CD2 HIS B   3      76.051  51.392  10.158  1.00 62.69 LIG 0.12  A 
ATOM     20  NE2 HIS B   3      74.899  50.965   9.544  1.00 63.05 LIG-0.36  N 
ATOM     21 HE2  HIS B   3      74.099  51.136   9.809  1.00 63.05 LIG 0.17  HD
ATOM     22  CE1 HIS B   3      75.219  50.251   8.479  1.00 63.79 LIG 0.21  A 
ATOM     23 ND1  HIS B   3      76.537  50.205   8.390  1.00 63.44 LIG-0.25  NA
ENDBRANCH 17 18
ENDBRANCH 16 17
BRANCH 16 24
ATOM     24  C   HIS B   3      80.570  50.205  10.854  1.00 63.55 LIG 0.20  C 
ATOM     25 OXT  HIS B   3      80.833  49.764  11.991  1.00 62.89 LIG-0.65  OA
ATOM     26 O    HIS B   3      81.338  50.946  10.202  1.00 64.85 LIG-0.65  OA
ENDBRANCH 16 24
ENDBRANCH 13 16
ENDBRANCH 1 12
BRANCH 1 27
ATOM     27  CB  ILE B   2      77.662  45.899  12.693  1.00 64.73 LIG 0.01  C 
ATOM     28  CG2 ILE B   2      79.027  45.422  13.183  1.00 64.62 LIG 0.01  C 
BRANCH 27 29
ATOM     29  CG1 ILE B   2      76.543  45.343  13.576  1.00 64.82 LIG 0.00  C 
ATOM     30  CD1 ILE B   2      75.297  44.951  12.816  1.00 66.82 LIG 0.01  C 
ENDBRANCH 27 29
ENDBRANCH 1 27
TORSDOF 10
ENDMDL
MODEL 46
USER: ADFR SOLUTION from run 151
USER: SCORE 11.823181 LL:  -1.890 LR: -10.049 RR:   0.000 FEB:  -7.066
USER: RMSD 5.731874
USER: SEED 150
USER: STATUS no improvement in best 11 clusters for 5 generations
USER: GENES 12
USER: genes 0 Translation |==|  0.43925 0.47037 0.39428
USER: genes 1 Rotation |==|  0.37092 0.77581 0.10420 0.52457
USER: genes 2 Torsion [C]-CA--N-[C] |==|  0.84391
USER: genes 3 Torsion [N]-C--CA-[N] |==|  0.17396
USER: genes 4 Torsion [C]-CA--N-[H1] |==|  0.10923
USER: genes 5 Torsion [N]-CA--C-[N] |==|  0.33889
USER: genes 6 Torsion [C]-N--CA-[CB] |==|  0.81686
USER: genes 7 Torsion [N]-CA--CB-[CG] |==|  0.82537
USER: genes 8 Torsion [CA]-CB--CG-[CD2] |==|  0.39657
USER: genes 9 Torsion [N]-CA--C-[OXT] |==|  0.06952
USER: genes 10 Torsion [N]-CA--CB-[CG2] |==|  0.20246
USER: genes 11 Torsion [CA]-CB--CG1-[CD1] |==|  0.56956
ROOT
ATOM      1  CA  ILE B   2      74.247  45.941  13.688  1.00 64.17 LIG 0.18  C 
ENDROOT
BRANCH 1 2
ATOM      2  N   ILE B   2      74.330  46.516  12.351  1.00 64.56 LIG-0.35  N 
ATOM      3  C   ALA B   1      74.084  47.803  12.125  1.00 64.53 LIG 0.25  C 
ATOM      4 O    ALA B   1      73.780  48.594  13.020  1.00 64.21 LIG-0.27  OA
ATOM      5 H    ILE B   2      74.549  45.955  11.738  1.00 64.56 LIG 0.16  HD
BRANCH 3 6
ATOM      6  CA  ALA B   1      74.205  48.265  10.673  1.00 64.34 LIG 0.27  C 
ATOM      7  CB  ALA B   1      74.017  49.776  10.586  1.00 65.15 LIG 0.05  C 
BRANCH 6 8
ATOM      8  N   ALA B   1      73.215  47.580   9.792  1.00 63.44 LIG-0.07  N 
ATOM      9 H1   ALA B   1      72.440  47.501  10.223  1.00 63.44 LIG 0.28  HD
ATOM     10 H2   ALA B   1      73.096  48.058   9.051  1.00 63.44 LIG 0.28  HD
ATOM     11 H3   ALA B   1      73.519  46.771   9.578  1.00 63.44 LIG 0.28  HD
ENDBRANCH 6 8
ENDBRANCH 3 6
ENDBRANCH 1 2
BRANCH 1 12
ATOM     12  C   ILE B   2      75.155  46.677  14.669  1.00 63.93 LIG 0.24  C 
ATOM     13  N   HIS B   3      74.561  47.205  15.734  1.00 63.34 LIG-0.34  N 
ATOM     14 H    HIS B   3      73.716  47.154  15.891  1.00 63.34 LIG 0.16  HD
ATOM     15 O    ILE B   2      76.367  46.763  14.466  1.00 63.64 LIG-0.27  OA
BRANCH 13 16
ATOM     16  CA  HIS B   3      75.323  47.929  16.742  1.00 63.18 LIG 0.19  C 
BRANCH 16 17
ATOM     17  CB  HIS B   3      76.282  46.981  17.466  1.00 62.24 LIG 0.10  C 
BRANCH 17 18
ATOM     18  CG  HIS B   3      75.596  45.889  18.228  1.00 63.21 LIG 0.05  A 
ATOM     19  CD2 HIS B   3      75.927  44.589  18.419  1.00 62.69 LIG 0.12  A 
ATOM     20  NE2 HIS B   3      74.946  44.030  19.200  1.00 63.05 LIG-0.36  N 
ATOM     21 HE2  HIS B   3      74.923  43.212  19.464  1.00 63.05 LIG 0.17  HD
ATOM     22  CE1 HIS B   3      74.042  44.953  19.481  1.00 63.79 LIG 0.21  A 
ATOM     23 ND1  HIS B   3      74.411  46.084  18.906  1.00 63.44 LIG-0.25  NA
ENDBRANCH 17 18
ENDBRANCH 16 17
BRANCH 16 24
ATOM     24  C   HIS B   3      76.112  49.056  16.088  1.00 63.55 LIG 0.20  C 
ATOM     25 OXT  HIS B   3      75.691  49.522  15.010  1.00 62.89 LIG-0.65  OA
ATOM     26 O    HIS B   3      77.142  49.465  16.666  1.00 64.85 LIG-0.65  OA
ENDBRANCH 16 24
ENDBRANCH 13 16
ENDBRANCH 1 12
BRANCH 1 27
ATOM     27  CB  ILE B   2      74.642  44.451  13.675  1.00 64.73 LIG 0.01  C 
ATOM     28  CG2 ILE B   2      76.150  44.310  13.484  1.00 64.62 LIG 0.01  C 
BRANCH 27 29
ATOM     29  CG1 ILE B   2      74.195  43.789  14.980  1.00 64.82 LIG 0.00  C 
ATOM     30  CD1 ILE B   2      75.000  42.566  15.357  1.00 66.82 LIG 0.01  C 
ENDBRANCH 27 29
ENDBRANCH 1 27
TORSDOF 10
ENDMDL
MODEL 47
USER: ADFR SOLUTION from run 55
USER: SCORE 11.737041 LL:  -2.339 LR:  -9.992 RR:   0.000 FEB:  -7.009
USER: RMSD 5.832193
USER: SEED 54
USER: STATUS no improvement in best 15 clusters for 5 generations
USER: GENES 12
USER: genes 0 Translation |==|  0.45714 0.39857 0.51120
USER: genes 1 Rotation |==|  0.40293 0.67963 0.09961 0.71908
USER: genes 2 Torsion [C]-CA--N-[C] |==|  0.62770
USER: genes 3 Torsion [N]-C--CA-[N] |==|  0.55876
USER: genes 4 Torsion [C]-CA--N-[H1] |==|  0.23803
USER: genes 5 Torsion [N]-CA--C-[N] |==|  0.55466
USER: genes 6 Torsion [C]-N--CA-[CB] |==|  0.48120
USER: genes 7 Torsion [N]-CA--CB-[CG] |==|  0.10551
USER: genes 8 Torsion [CA]-CB--CG-[CD2] |==|  0.22426
USER: genes 9 Torsion [N]-CA--C-[OXT] |==|  0.28229
USER: genes 10 Torsion [N]-CA--CB-[CG2] |==|  0.81438
USER: genes 11 Torsion [CA]-CB--CG1-[CD1] |==|  0.33831
ROOT
ATOM      1  CA  ILE B   2      74.784  43.787  17.196  1.00 64.17 LIG 0.18  C 
ENDROOT
BRANCH 1 2
ATOM      2  N   ILE B   2      75.236  44.399  15.952  1.00 64.56 LIG-0.35  N 
ATOM      3  C   ALA B   1      74.786  43.994  14.768  1.00 64.53 LIG 0.25  C 
ATOM      4 O    ALA B   1      73.959  43.089  14.639  1.00 64.21 LIG-0.27  OA
ATOM      5 H    ILE B   2      75.808  45.032  16.057  1.00 64.56 LIG 0.16  HD
BRANCH 3 6
ATOM      6  CA  ALA B   1      75.352  44.724  13.549  1.00 64.34 LIG 0.27  C 
ATOM      7  CB  ALA B   1      75.554  46.201  13.870  1.00 65.15 LIG 0.05  C 
BRANCH 6 8
ATOM      8  N   ALA B   1      74.463  44.580  12.360  1.00 63.44 LIG-0.07  N 
ATOM      9 H1   ALA B   1      73.834  45.210  12.382  1.00 63.44 LIG 0.28  HD
ATOM     10 H2   ALA B   1      74.945  44.667  11.617  1.00 63.44 LIG 0.28  HD
ATOM     11 H3   ALA B   1      74.079  43.777  12.372  1.00 63.44 LIG 0.28  HD
ENDBRANCH 6 8
ENDBRANCH 3 6
ENDBRANCH 1 2
BRANCH 1 12
ATOM     12  C   ILE B   2      74.433  44.841  18.241  1.00 63.93 LIG 0.24  C 
ATOM     13  N   HIS B   3      74.404  44.429  19.503  1.00 63.34 LIG-0.34  N 
ATOM     14 H    HIS B   3      74.567  43.622  19.751  1.00 63.34 LIG 0.16  HD
ATOM     15 O    ILE B   2      74.195  46.005  17.910  1.00 63.64 LIG-0.27  OA
BRANCH 13 16
ATOM     16  CA  HIS B   3      74.084  45.345  20.590  1.00 63.18 LIG 0.19  C 
BRANCH 16 17
ATOM     17  CB  HIS B   3      73.956  44.580  21.910  1.00 62.24 LIG 0.10  C 
BRANCH 17 18
ATOM     18  CG  HIS B   3      74.948  43.468  22.065  1.00 63.21 LIG 0.05  A 
ATOM     19  CD2 HIS B   3      76.249  43.479  22.442  1.00 62.69 LIG 0.12  A 
ATOM     20  NE2 HIS B   3      76.690  42.178  22.415  1.00 63.05 LIG-0.36  N 
ATOM     21 HE2  HIS B   3      77.485  41.916  22.613  1.00 63.05 LIG 0.17  HD
ATOM     22  CE1 HIS B   3      75.695  41.395  22.036  1.00 63.79 LIG 0.21  A 
ATOM     23 ND1  HIS B   3      74.632  42.149  21.819  1.00 63.44 LIG-0.25  NA
ENDBRANCH 17 18
ENDBRANCH 16 17
BRANCH 16 24
ATOM     24  C   HIS B   3      75.170  46.405  20.713  1.00 63.55 LIG 0.20  C 
ATOM     25 OXT  HIS B   3      74.945  47.538  20.241  1.00 62.89 LIG-0.65  OA
ATOM     26 O    HIS B   3      76.236  46.091  21.287  1.00 64.85 LIG-0.65  OA
ENDBRANCH 16 24
ENDBRANCH 13 16
ENDBRANCH 1 12
BRANCH 1 27
ATOM     27  CB  ILE B   2      75.866  42.856  17.780  1.00 64.73 LIG 0.01  C 
ATOM     28  CG2 ILE B   2      76.070  41.652  16.864  1.00 64.62 LIG 0.01  C 
BRANCH 27 29
ATOM     29  CG1 ILE B   2      77.172  43.632  17.956  1.00 64.82 LIG 0.00  C 
ATOM     30  CD1 ILE B   2      77.692  43.648  19.376  1.00 66.82 LIG 0.01  C 
ENDBRANCH 27 29
ENDBRANCH 1 27
TORSDOF 10
ENDMDL
MODEL 48
USER: ADFR SOLUTION from run 85
USER: SCORE 11.241850 LL:  -1.844 LR:  -9.989 RR:   0.000 FEB:  -7.006
USER: RMSD 6.129883
USER: SEED 84
USER: STATUS no improvement in best 5 clusters for 5 generations
USER: GENES 12
USER: genes 0 Translation |==|  0.50642 0.42450 0.52358
USER: genes 1 Rotation |==|  0.30712 0.51953 0.68474 0.92224
USER: genes 2 Torsion [C]-CA--N-[C] |==|  0.61712
USER: genes 3 Torsion [N]-C--CA-[N] |==|  0.48110
USER: genes 4 Torsion [C]-CA--N-[H1] |==|  0.70661
USER: genes 5 Torsion [N]-CA--C-[N] |==|  0.81217
USER: genes 6 Torsion [C]-N--CA-[CB] |==|  0.12476
USER: genes 7 Torsion [N]-CA--CB-[CG] |==|  0.56211
USER: genes 8 Torsion [CA]-CB--CG-[CD2] |==|  0.72795
USER: genes 9 Torsion [N]-CA--C-[OXT] |==|  0.35339
USER: genes 10 Torsion [N]-CA--CB-[CG2] |==|  0.61128
USER: genes 11 Torsion [CA]-CB--CG1-[CD1] |==|  0.76024
ROOT
ATOM      1  CA  ILE B   2      76.263  44.565  17.568  1.00 64.17 LIG 0.18  C 
ENDROOT
BRANCH 1 2
ATOM      2  N   ILE B   2      75.261  43.990  16.678  1.00 64.56 LIG-0.35  N 
ATOM      3  C   ALA B   1      75.341  44.120  15.357  1.00 64.53 LIG 0.25  C 
ATOM      4 O    ALA B   1      76.259  44.721  14.796  1.00 64.21 LIG-0.27  OA
ATOM      5 H    ILE B   2      74.630  43.569  17.081  1.00 64.56 LIG 0.16  HD
BRANCH 3 6
ATOM      6  CA  ALA B   1      74.217  43.469  14.549  1.00 64.34 LIG 0.27  C 
ATOM      7  CB  ALA B   1      74.251  41.955  14.729  1.00 65.15 LIG 0.05  C 
BRANCH 6 8
ATOM      8  N   ALA B   1      74.311  43.810  13.100  1.00 63.44 LIG-0.07  N 
ATOM      9 H1   ALA B   1      73.681  44.403  12.894  1.00 63.44 LIG 0.28  HD
ATOM     10 H2   ALA B   1      75.113  44.156  12.928  1.00 63.44 LIG 0.28  HD
ATOM     11 H3   ALA B   1      74.196  43.073  12.614  1.00 63.44 LIG 0.28  HD
ENDBRANCH 6 8
ENDBRANCH 3 6
ENDBRANCH 1 2
BRANCH 1 12
ATOM     12  C   ILE B   2      76.630  43.601  18.691  1.00 63.93 LIG 0.24  C 
ATOM     13  N   HIS B   3      75.678  43.350  19.583  1.00 63.34 LIG-0.34  N 
ATOM     14 H    HIS B   3      74.891  43.695  19.559  1.00 63.34 LIG 0.16  HD
ATOM     15 O    ILE B   2      77.752  43.093  18.746  1.00 63.64 LIG-0.27  OA
BRANCH 13 16
ATOM     16  CA  HIS B   3      75.910  42.444  20.700  1.00 63.18 LIG 0.19  C 
BRANCH 16 17
ATOM     17  CB  HIS B   3      77.268  42.731  21.345  1.00 62.24 LIG 0.10  C 
BRANCH 17 18
ATOM     18  CG  HIS B   3      77.830  41.576  22.115  1.00 63.21 LIG 0.05  A 
ATOM     19  CD2 HIS B   3      77.813  41.293  23.440  1.00 62.69 LIG 0.12  A 
ATOM     20  NE2 HIS B   3      78.478  40.103  23.609  1.00 63.05 LIG-0.36  N 
ATOM     21 HE2  HIS B   3      78.606  39.705  24.361  1.00 63.05 LIG 0.17  HD
ATOM     22  CE1 HIS B   3      78.889  39.669  22.430  1.00 63.79 LIG 0.21  A 
ATOM     23 ND1  HIS B   3      78.511  40.539  21.511  1.00 63.44 LIG-0.25  NA
ENDBRANCH 17 18
ENDBRANCH 16 17
BRANCH 16 24
ATOM     24  C   HIS B   3      74.805  42.602  21.736  1.00 63.55 LIG 0.20  C 
ATOM     25 OXT  HIS B   3      74.196  41.580  22.110  1.00 62.89 LIG-0.65  OA
ATOM     26 O    HIS B   3      74.563  43.751  22.167  1.00 64.85 LIG-0.65  OA
ENDBRANCH 16 24
ENDBRANCH 13 16
ENDBRANCH 1 12
BRANCH 1 27
ATOM     27  CB  ILE B   2      75.757  45.881  18.193  1.00 64.73 LIG 0.01  C 
ATOM     28  CG2 ILE B   2      76.888  46.905  18.244  1.00 64.62 LIG 0.01  C 
BRANCH 27 29
ATOM     29  CG1 ILE B   2      74.576  46.416  17.381  1.00 64.82 LIG 0.00  C 
ATOM     30  CD1 ILE B   2      74.977  47.275  16.204  1.00 66.82 LIG 0.01  C 
ENDBRANCH 27 29
ENDBRANCH 1 27
TORSDOF 10
ENDMDL
