MODEL 1
USER: ADFR SOLUTION from run 6
USER: SCORE 23.082618 LL:  -4.099 LR: -19.375 RR:   0.000 FEB: -12.813
USER: RMSD 9.892615
USER: SEED 295086
USER: STATUS no improvement in best 3 clusters for 5 generations
USER: GENES 24
USER: genes 0 Translation |==|  0.49497 0.52173 0.46193
USER: genes 1 Rotation |==|  0.25086 0.34941 0.09698 0.55315
USER: genes 2 Torsion [N]-CA--C-[N] |==|  0.44496
USER: genes 3 Torsion [C]-N--CA-[C] |==|  0.67860
USER: genes 4 Torsion [N]-CA--C-[N] |==|  0.39475
USER: genes 5 Torsion [C]-N--CA-[CB] |==|  0.33076
USER: genes 6 Torsion [N]-CA--C-[OXT] |==|  0.32821
USER: genes 7 Torsion [N]-CA--CB-[CG] |==|  0.01553
USER: genes 8 Torsion [CA]-CB--CG-[CD2] |==|  0.73357
USER: genes 9 Torsion [N]-CA--CB-[CG2] |==|  0.47063
USER: genes 10 Torsion [CA]-CB--CG1-[CD1] |==|  0.19363
USER: genes 11 Torsion [C]-CA--CB-[CG] |==|  0.52883
USER: genes 12 Torsion [CA]-CB--CG-[CD] |==|  0.72807
USER: genes 13 Torsion [CB]-CG--CD-[OE1] |==|  0.67519
USER: genes 14 Torsion [C]-CA--N-[C] |==|  0.68822
USER: genes 15 Torsion [N]-C--CA-[N] |==|  0.43889
USER: genes 16 Torsion [C]-CA--CB-[CG] |==|  0.55454
USER: genes 17 Torsion [CA]-CB--CG-[OD2] |==|  0.28978
USER: genes 18 Torsion [C]-CA--N-[C] |==|  0.60794
USER: genes 19 Torsion [N]-C--CA-[N] |==|  0.93944
USER: genes 20 Torsion [C]-CA--CB-[CG] |==|  0.16532
USER: genes 21 Torsion [CA]-CB--CG-[CD1] |==|  0.71237
USER: genes 22 Torsion [CE1]-CZ--OH-[HH] |==|  0.80993
USER: genes 23 Torsion [C]-CA--N-[H2] |==|  0.58624
ROOT
ATOM      1  CA  GLN I  61      17.969  18.692   5.838  1.00 12.54 LIG 0.18  C 
ENDROOT
BRANCH 1 2
ATOM      2  C   GLN I  61      17.941  17.240   5.290  1.00 13.13 LIG 0.24  C 
ATOM      3  N   ILE I  62      19.010  16.842   4.615  1.00 10.34 LIG-0.35  N 
ATOM      4 H    ILE I  62      19.707  17.326   4.479  1.00 10.34 LIG 0.16  HD
ATOM      5 O    GLN I  61      16.969  16.494   5.480  1.00 13.36 LIG-0.27  OA
BRANCH 3 6
ATOM      6  CA  ILE I  62      19.067  15.516   4.046  1.00 10.31 LIG 0.18  C 
BRANCH 6 7
ATOM      7  C   ILE I  62      20.187  14.746   4.735  1.00 12.98 LIG 0.24  C 
ATOM      8 O    ILE I  62      21.262  15.305   5.047  1.00 12.64 LIG-0.27  OA
ATOM      9  N   LEU I  63      19.933  13.456   4.966  1.00 10.93 LIG-0.34  N 
ATOM     10 H    LEU I  63      19.192  13.076   4.751  1.00 10.93 LIG 0.16  HD
BRANCH 9 11
ATOM     11  CA  LEU I  63      20.905  12.548   5.614  1.00 11.08 LIG 0.18  C 
BRANCH 11 12
ATOM     12  C   LEU I  63      21.294  11.376   4.703  1.00 13.00 LIG 0.20  C 
ATOM     13 O    LEU I  63      20.394  10.587   4.341  1.00 13.41 LIG-0.65  OA
ATOM     14 OXT  LEU I  63      22.493  11.259   4.355  1.00 16.16 LIG-0.65  OA
ENDBRANCH 11 12
BRANCH 11 15
ATOM     15  CB  LEU I  63      20.317  11.992   6.918  1.00 10.85 LIG 0.04  C 
BRANCH 15 16
ATOM     16  CG  LEU I  63      18.882  12.391   7.138  1.00 12.24 LIG-0.02  C 
ATOM     17  CD2 LEU I  63      18.868  13.631   8.043  1.00 14.99 LIG 0.01  C 
ATOM     18  CD1 LEU I  63      18.119  11.239   7.730  1.00 14.56 LIG 0.01  C 
ENDBRANCH 15 16
ENDBRANCH 11 15
ENDBRANCH 9 11
ENDBRANCH 6 7
BRANCH 6 19
ATOM     19  CB  ILE I  62      19.336  15.573   2.515  1.00 10.03 LIG 0.01  C 
ATOM     20  CG2 ILE I  62      19.651  14.184   1.987  1.00 11.01 LIG 0.01  C 
BRANCH 19 21
ATOM     21  CG1 ILE I  62      18.120  16.146   1.774  1.00 11.14 LIG 0.00  C 
ATOM     22  CD1 ILE I  62      17.869  17.605   2.008  1.00 11.65 LIG 0.01  C 
ENDBRANCH 19 21
ENDBRANCH 6 19
ENDBRANCH 3 6
ENDBRANCH 1 2
BRANCH 1 23
ATOM     23  CB  GLN I  61      18.818  18.809   7.110  1.00 14.90 LIG 0.04  C 
BRANCH 23 24
ATOM     24  CG  GLN I  61      18.738  20.096   7.874  1.00 19.56 LIG 0.10  C 
BRANCH 24 25
ATOM     25  CD  GLN I  61      19.909  20.994   7.507  1.00 24.89 LIG 0.21  C 
ATOM     26 OE1  GLN I  61      20.746  21.321   8.362  1.00 26.12 LIG-0.27  OA
ATOM     27  NE2 GLN I  61      19.995  21.376   6.224  1.00 17.87 LIG-0.37  N 
ATOM     28 22HE GLN I  61      20.651  21.867   5.963  1.00 17.87 LIG 0.16  HD
ATOM     29 21HE GLN I  61      19.394  21.129   5.660  1.00 17.87 LIG 0.16  HD
ENDBRANCH 24 25
ENDBRANCH 23 24
ENDBRANCH 1 23
BRANCH 1 30
ATOM     30  N   GLN I  61      16.657  19.243   6.160  1.00 13.65 LIG-0.35  N 
ATOM     31  C   ASP I  60      16.114  20.239   5.475  1.00 18.68 LIG 0.24  C 
ATOM     32 O    ASP I  60      16.661  20.745   4.486  1.00 17.48 LIG-0.27  OA
ATOM     33 H    GLN I  61      16.272  18.863   6.829  1.00 13.65 LIG 0.16  HD
BRANCH 31 34
ATOM     34  CA  ASP I  60      14.752  20.744   5.994  1.00 21.07 LIG 0.19  C 
BRANCH 34 35
ATOM     35  CB  ASP I  60      13.588  19.891   5.454  1.00 25.87 LIG 0.15  C 
BRANCH 35 36
ATOM     36  CG  ASP I  60      12.205  20.593   5.523  1.00 31.63 LIG 0.17  C 
ATOM     37 OD2  ASP I  60      11.731  21.040   4.452  1.00 32.10 LIG-0.65  OA
ATOM     38 OD1  ASP I  60      11.569  20.664   6.605  1.00 34.51 LIG-0.65  OA
ENDBRANCH 35 36
ENDBRANCH 34 35
BRANCH 34 39
ATOM     39  N   ASP I  60      14.647  22.115   5.454  1.00 22.02 LIG-0.34  N 
ATOM     40  C   TYR I  59      14.127  23.136   6.151  1.00 29.44 LIG 0.25  C 
ATOM     41 O    TYR I  59      13.666  23.022   7.296  1.00 29.64 LIG-0.27  OA
ATOM     42 H    ASP I  60      14.949  22.196   4.652  1.00 22.02 LIG 0.16  HD
BRANCH 40 43
ATOM     43  CA  TYR I  59      14.090  24.503   5.458  1.00 32.26 LIG 0.28  C 
BRANCH 43 44
ATOM     44  CB  TYR I  59      12.686  24.766   4.885  1.00 35.10 LIG 0.08  C 
BRANCH 44 45
ATOM     45  CG  TYR I  59      11.596  24.757   5.943  1.00 39.87 LIG-0.06  A 
ATOM     46  CD1 TYR I  59      10.740  23.657   6.080  1.00 40.08 LIG 0.01  A 
ATOM     47  CE1 TYR I  59       9.676  23.671   6.980  1.00 40.68 LIG 0.04  A 
ATOM     48  CZ  TYR I  59       9.447  24.786   7.764  1.00 42.21 LIG 0.07  A 
ATOM     49  CE2 TYR I  59      10.284  25.899   7.662  1.00 42.84 LIG 0.04  A 
ATOM     50  CD2 TYR I  59      11.362  25.877   6.750  1.00 40.94 LIG 0.01  A 
BRANCH 48 51
ATOM     51 OH   TYR I  59       8.376  24.778   8.634  1.00 42.12 LIG-0.36  OA
ATOM     52 HH   TYR I  59       7.659  24.790   8.196  1.00 42.12 LIG 0.22  HD
ENDBRANCH 48 51
ENDBRANCH 44 45
ENDBRANCH 43 44
BRANCH 43 53
ATOM     53  N   TYR I  59      15.121  24.514   4.355  1.00 33.30 LIG-0.07  N 
ATOM     54 H1   TYR I  59      14.746  24.242   3.595  1.00 33.30 LIG 0.28  HD
ATOM     55 H2   TYR I  59      15.436  25.340   4.251  1.00 33.30 LIG 0.28  HD
ATOM     56 H3   TYR I  59      15.791  23.967   4.568  1.00 33.30 LIG 0.28  HD
ENDBRANCH 43 53
ENDBRANCH 40 43
ENDBRANCH 34 39
ENDBRANCH 31 34
ENDBRANCH 1 30
TORSDOF 22
ENDMDL
MODEL 2
USER: ADFR SOLUTION from run 24
USER: SCORE 21.895350 LL:  -4.221 LR: -19.140 RR:   0.000 FEB: -12.577
USER: RMSD 9.539001
USER: SEED 23
USER: STATUS 1 or 2 clusters left
USER: GENES 24
USER: genes 0 Translation |==|  0.51553 0.48729 0.47673
USER: genes 1 Rotation |==|  0.63567 0.67804 0.94630 0.52671
USER: genes 2 Torsion [N]-CA--C-[N] |==|  0.23235
USER: genes 3 Torsion [C]-N--CA-[C] |==|  0.82222
USER: genes 4 Torsion [N]-CA--C-[N] |==|  0.45439
USER: genes 5 Torsion [C]-N--CA-[CB] |==|  0.27324
USER: genes 6 Torsion [N]-CA--C-[OXT] |==|  0.06988
USER: genes 7 Torsion [N]-CA--CB-[CG] |==|  0.03139
USER: genes 8 Torsion [CA]-CB--CG-[CD2] |==|  0.73624
USER: genes 9 Torsion [N]-CA--CB-[CG2] |==|  0.91264
USER: genes 10 Torsion [CA]-CB--CG1-[CD1] |==|  0.81135
USER: genes 11 Torsion [C]-CA--CB-[CG] |==|  0.49878
USER: genes 12 Torsion [CA]-CB--CG-[CD] |==|  0.78144
USER: genes 13 Torsion [CB]-CG--CD-[OE1] |==|  0.69348
USER: genes 14 Torsion [C]-CA--N-[C] |==|  0.63747
USER: genes 15 Torsion [N]-C--CA-[N] |==|  0.35502
USER: genes 16 Torsion [C]-CA--CB-[CG] |==|  0.08257
USER: genes 17 Torsion [CA]-CB--CG-[OD2] |==|  0.75678
USER: genes 18 Torsion [C]-CA--N-[C] |==|  0.49261
USER: genes 19 Torsion [N]-C--CA-[N] |==|  0.36934
USER: genes 20 Torsion [C]-CA--CB-[CG] |==|  0.80576
USER: genes 21 Torsion [CA]-CB--CG-[CD1] |==|  0.26195
USER: genes 22 Torsion [CE1]-CZ--OH-[HH] |==|  0.25722
USER: genes 23 Torsion [C]-CA--N-[H2] |==|  0.77594
ROOT
ATOM      1  CA  GLN I  61      18.586  17.659   6.282  1.00 12.54 LIG 0.18  C 
ENDROOT
BRANCH 1 2
ATOM      2  C   GLN I  61      18.675  16.139   5.980  1.00 13.13 LIG 0.24  C 
ATOM      3  N   ILE I  62      19.147  15.799   4.790  1.00 10.34 LIG-0.35  N 
ATOM      4 H    ILE I  62      19.412  16.359   4.193  1.00 10.34 LIG 0.16  HD
ATOM      5 O    GLN I  61      18.328  15.290   6.816  1.00 13.36 LIG-0.27  OA
BRANCH 3 6
ATOM      6  CA  ILE I  62      19.246  14.409   4.408  1.00 10.31 LIG 0.18  C 
BRANCH 6 7
ATOM      7  C   ILE I  62      20.245  13.728   5.333  1.00 12.98 LIG 0.24  C 
ATOM      8 O    ILE I  62      21.048  14.393   6.025  1.00 12.64 LIG-0.27  OA
ATOM      9  N   LEU I  63      20.198  12.394   5.339  1.00 10.93 LIG-0.34  N 
ATOM     10 H    LEU I  63      19.643  11.940   4.864  1.00 10.93 LIG 0.16  HD
BRANCH 9 11
ATOM     11  CA  LEU I  63      21.098  11.560   6.166  1.00 11.08 LIG 0.18  C 
BRANCH 11 12
ATOM     12  C   LEU I  63      21.574  10.309   5.415  1.00 13.00 LIG 0.20  C 
ATOM     13 O    LEU I  63      21.913   9.311   6.089  1.00 13.41 LIG-0.65  OA
ATOM     14 OXT  LEU I  63      21.600  10.334   4.162  1.00 16.16 LIG-0.65  OA
ENDBRANCH 11 12
BRANCH 11 15
ATOM     15  CB  LEU I  63      20.382  11.128   7.453  1.00 10.85 LIG 0.04  C 
BRANCH 15 16
ATOM     16  CG  LEU I  63      18.904  11.414   7.432  1.00 12.24 LIG-0.02  C 
ATOM     17  CD2 LEU I  63      18.673  12.767   8.119  1.00 14.99 LIG 0.01  C 
ATOM     18  CD1 LEU I  63      18.160  10.294   8.105  1.00 14.56 LIG 0.01  C 
ENDBRANCH 15 16
ENDBRANCH 11 15
ENDBRANCH 9 11
ENDBRANCH 6 7
BRANCH 6 19
ATOM     19  CB  ILE I  62      19.716  14.265   2.931  1.00 10.03 LIG 0.01  C 
ATOM     20  CG2 ILE I  62      19.218  15.441   2.107  1.00 11.01 LIG 0.01  C 
BRANCH 19 21
ATOM     21  CG1 ILE I  62      21.248  14.193   2.857  1.00 11.14 LIG 0.00  C 
ATOM     22  CD1 ILE I  62      21.957  15.459   3.230  1.00 11.65 LIG 0.01  C 
ENDBRANCH 19 21
ENDBRANCH 6 19
ENDBRANCH 3 6
ENDBRANCH 1 2
BRANCH 1 23
ATOM     23  CB  GLN I  61      18.640  17.950   7.787  1.00 14.90 LIG 0.04  C 
BRANCH 23 24
ATOM     24  CG  GLN I  61      18.573  19.386   8.212  1.00 19.56 LIG 0.10  C 
BRANCH 24 25
ATOM     25  CD  GLN I  61      19.928  20.049   8.024  1.00 24.89 LIG 0.21  C 
ATOM     26 OE1  GLN I  61      20.610  20.381   9.005  1.00 26.12 LIG-0.27  OA
ATOM     27  NE2 GLN I  61      20.344  20.219   6.760  1.00 17.87 LIG-0.37  N 
ATOM     28 22HE GLN I  61      21.113  20.571   6.603  1.00 17.87 LIG 0.16  HD
ATOM     29 21HE GLN I  61      19.842  19.976   6.105  1.00 17.87 LIG 0.16  HD
ENDBRANCH 24 25
ENDBRANCH 23 24
ENDBRANCH 1 23
BRANCH 1 30
ATOM     30  N   GLN I  61      17.381  18.306   5.774  1.00 13.65 LIG-0.35  N 
ATOM     31  C   ASP I  60      17.417  19.425   5.065  1.00 18.68 LIG 0.24  C 
ATOM     32 O    ASP I  60      18.478  19.978   4.745  1.00 17.48 LIG-0.27  OA
ATOM     33 H    GLN I  61      16.652  17.897   5.977  1.00 13.65 LIG 0.16  HD
BRANCH 31 34
ATOM     34  CA  ASP I  60      16.046  20.011   4.668  1.00 21.07 LIG 0.19  C 
BRANCH 34 35
ATOM     35  CB  ASP I  60      15.835  19.972   3.142  1.00 25.87 LIG 0.15  C 
BRANCH 35 36
ATOM     36  CG  ASP I  60      16.569  18.802   2.432  1.00 31.63 LIG 0.17  C 
ATOM     37 OD2  ASP I  60      17.753  19.000   2.070  1.00 32.10 LIG-0.65  OA
ATOM     38 OD1  ASP I  60      16.009  17.688   2.273  1.00 34.51 LIG-0.65  OA
ENDBRANCH 35 36
ENDBRANCH 34 35
BRANCH 34 39
ATOM     39  N   ASP I  60      16.111  21.416   5.118  1.00 22.02 LIG-0.34  N 
ATOM     40  C   TYR I  59      15.121  22.295   4.910  1.00 29.44 LIG 0.25  C 
ATOM     41 O    TYR I  59      14.075  22.022   4.302  1.00 29.64 LIG-0.27  OA
ATOM     42 H    ASP I  60      16.842  21.617   5.526  1.00 22.02 LIG 0.16  HD
BRANCH 40 43
ATOM     43  CA  TYR I  59      15.331  23.718   5.440  1.00 32.26 LIG 0.28  C 
BRANCH 43 44
ATOM     44  CB  TYR I  59      14.465  23.947   6.693  1.00 35.10 LIG 0.08  C 
BRANCH 44 45
ATOM     45  CG  TYR I  59      12.978  24.016   6.389  1.00 39.87 LIG-0.06  A 
ATOM     46  CD1 TYR I  59      12.172  22.875   6.490  1.00 40.08 LIG 0.01  A 
ATOM     47  CE1 TYR I  59      10.828  22.899   6.123  1.00 40.68 LIG 0.04  A 
ATOM     48  CZ  TYR I  59      10.261  24.067   5.648  1.00 42.21 LIG 0.07  A 
ATOM     49  CE2 TYR I  59      11.030  25.227   5.541  1.00 42.84 LIG 0.04  A 
ATOM     50  CD2 TYR I  59      12.391  25.197   5.917  1.00 40.94 LIG 0.01  A 
BRANCH 48 51
ATOM     51 OH   TYR I  59       8.933  24.057   5.276  1.00 42.12 LIG-0.36  OA
ATOM     52 HH   TYR I  59       8.457  24.288   5.929  1.00 42.12 LIG 0.22  HD
ENDBRANCH 48 51
ENDBRANCH 44 45
ENDBRANCH 43 44
BRANCH 43 53
ATOM     53  N   TYR I  59      14.957  24.699   4.355  1.00 33.30 LIG-0.07  N 
ATOM     54 H1   TYR I  59      14.785  25.492   4.719  1.00 33.30 LIG 0.28  HD
ATOM     55 H2   TYR I  59      15.633  24.777   3.780  1.00 33.30 LIG 0.28  HD
ATOM     56 H3   TYR I  59      14.235  24.406   3.925  1.00 33.30 LIG 0.28  HD
ENDBRANCH 43 53
ENDBRANCH 40 43
ENDBRANCH 34 39
ENDBRANCH 31 34
ENDBRANCH 1 30
TORSDOF 22
ENDMDL
MODEL 3
USER: ADFR SOLUTION from run 60
USER: SCORE 21.988011 LL:  -4.749 LR: -19.091 RR:   0.000 FEB: -12.529
USER: RMSD 9.702444
USER: SEED 59
USER: STATUS 1 or 2 clusters left
USER: GENES 24
USER: genes 0 Translation |==|  0.49510 0.54229 0.48650
USER: genes 1 Rotation |==|  0.33904 0.47634 0.04287 0.62070
USER: genes 2 Torsion [N]-CA--C-[N] |==|  0.88390
USER: genes 3 Torsion [C]-N--CA-[C] |==|  0.16514
USER: genes 4 Torsion [N]-CA--C-[N] |==|  0.21111
USER: genes 5 Torsion [C]-N--CA-[CB] |==|  0.41890
USER: genes 6 Torsion [N]-CA--C-[OXT] |==|  0.97260
USER: genes 7 Torsion [N]-CA--CB-[CG] |==|  0.14412
USER: genes 8 Torsion [CA]-CB--CG-[CD2] |==|  0.66769
USER: genes 9 Torsion [N]-CA--CB-[CG2] |==|  0.56471
USER: genes 10 Torsion [CA]-CB--CG1-[CD1] |==|  0.75678
USER: genes 11 Torsion [C]-CA--CB-[CG] |==|  0.91749
USER: genes 12 Torsion [CA]-CB--CG-[CD] |==|  0.31302
USER: genes 13 Torsion [CB]-CG--CD-[OE1] |==|  0.31260
USER: genes 14 Torsion [C]-CA--N-[C] |==|  0.80582
USER: genes 15 Torsion [N]-C--CA-[N] |==|  0.36378
USER: genes 16 Torsion [C]-CA--CB-[CG] |==|  0.56441
USER: genes 17 Torsion [CA]-CB--CG-[OD2] |==|  0.37888
USER: genes 18 Torsion [C]-CA--N-[C] |==|  0.19416
USER: genes 19 Torsion [N]-C--CA-[N] |==|  0.43982
USER: genes 20 Torsion [C]-CA--CB-[CG] |==|  0.84594
USER: genes 21 Torsion [CA]-CB--CG-[CD1] |==|  0.87754
USER: genes 22 Torsion [CE1]-CZ--OH-[HH] |==|  0.30317
USER: genes 23 Torsion [C]-CA--N-[H2] |==|  0.47941
ROOT
ATOM      1  CA  GLN I  61      17.973  19.309   6.575  1.00 12.54 LIG 0.18  C 
ENDROOT
BRANCH 1 2
ATOM      2  C   GLN I  61      18.255  18.499   5.281  1.00 13.13 LIG 0.24  C 
ATOM      3  N   ILE I  62      17.428  17.498   5.018  1.00 10.34 LIG-0.35  N 
ATOM      4 H    ILE I  62      16.751  17.285   5.504  1.00 10.34 LIG 0.16  HD
ATOM      5 O    GLN I  61      19.203  18.781   4.533  1.00 13.36 LIG-0.27  OA
BRANCH 3 6
ATOM      6  CA  ILE I  62      17.622  16.672   3.849  1.00 10.31 LIG 0.18  C 
BRANCH 6 7
ATOM      7  C   ILE I  62      18.998  16.025   3.942  1.00 12.98 LIG 0.24  C 
ATOM      8 O    ILE I  62      19.956  16.434   3.250  1.00 12.64 LIG-0.27  OA
ATOM      9  N   LEU I  63      19.091  15.005   4.799  1.00 10.93 LIG-0.34  N 
ATOM     10 H    LEU I  63      18.431  14.728   5.275  1.00 10.93 LIG 0.16  HD
BRANCH 9 11
ATOM     11  CA  LEU I  63      20.343  14.247   5.016  1.00 11.08 LIG 0.18  C 
BRANCH 11 12
ATOM     12  C   LEU I  63      20.488  13.082   4.028  1.00 13.00 LIG 0.20  C 
ATOM     13 O    LEU I  63      21.584  12.479   3.985  1.00 13.41 LIG-0.65  OA
ATOM     14 OXT  LEU I  63      19.508  12.778   3.309  1.00 16.16 LIG-0.65  OA
ENDBRANCH 11 12
BRANCH 11 15
ATOM     15  CB  LEU I  63      20.385  13.696   6.448  1.00 10.85 LIG 0.04  C 
BRANCH 15 16
ATOM     16  CG  LEU I  63      19.146  12.927   6.821  1.00 12.24 LIG-0.02  C 
ATOM     17  CD2 LEU I  63      18.495  13.629   8.022  1.00 14.99 LIG 0.01  C 
ATOM     18  CD1 LEU I  63      19.505  11.497   7.118  1.00 14.56 LIG 0.01  C 
ENDBRANCH 15 16
ENDBRANCH 11 15
ENDBRANCH 9 11
ENDBRANCH 6 7
BRANCH 6 19
ATOM     19  CB  ILE I  62      17.527  17.515   2.544  1.00 10.03 LIG 0.01  C 
ATOM     20  CG2 ILE I  62      17.160  16.622   1.371  1.00 11.01 LIG 0.01  C 
BRANCH 19 21
ATOM     21  CG1 ILE I  62      16.481  18.628   2.696  1.00 11.14 LIG 0.00  C 
ATOM     22  CD1 ILE I  62      15.081  18.229   2.340  1.00 11.65 LIG 0.01  C 
ENDBRANCH 19 21
ENDBRANCH 6 19
ENDBRANCH 3 6
ENDBRANCH 1 2
BRANCH 1 23
ATOM     23  CB  GLN I  61      18.492  18.590   7.827  1.00 14.90 LIG 0.04  C 
BRANCH 23 24
ATOM     24  CG  GLN I  61      18.528  17.092   7.795  1.00 19.56 LIG 0.10  C 
BRANCH 24 25
ATOM     25  CD  GLN I  61      19.969  16.605   7.811  1.00 24.89 LIG 0.21  C 
ATOM     26 OE1  GLN I  61      20.418  15.994   8.792  1.00 26.12 LIG-0.27  OA
ATOM     27  NE2 GLN I  61      20.697  16.845   6.709  1.00 17.87 LIG-0.37  N 
ATOM     28 22HE GLN I  61      21.511  16.571   6.663  1.00 17.87 LIG 0.16  HD
ATOM     29 21HE GLN I  61      20.350  17.273   6.049  1.00 17.87 LIG 0.16  HD
ENDBRANCH 24 25
ENDBRANCH 23 24
ENDBRANCH 1 23
BRANCH 1 30
ATOM     30  N   GLN I  61      16.562  19.597   6.813  1.00 13.65 LIG-0.35  N 
ATOM     31  C   ASP I  60      15.873  20.446   6.066  1.00 18.68 LIG 0.24  C 
ATOM     32 O    ASP I  60      16.361  21.024   5.086  1.00 17.48 LIG-0.27  OA
ATOM     33 H    GLN I  61      16.225  19.167   7.477  1.00 13.65 LIG 0.16  HD
BRANCH 31 34
ATOM     34  CA  ASP I  60      14.411  20.685   6.500  1.00 21.07 LIG 0.19  C 
BRANCH 34 35
ATOM     35  CB  ASP I  60      13.415  20.094   5.484  1.00 25.87 LIG 0.15  C 
BRANCH 35 36
ATOM     36  CG  ASP I  60      12.008  20.750   5.524  1.00 31.63 LIG 0.17  C 
ATOM     37 OD2  ASP I  60      11.467  21.019   4.425  1.00 32.10 LIG-0.65  OA
ATOM     38 OD1  ASP I  60      11.421  20.957   6.616  1.00 34.51 LIG-0.65  OA
ENDBRANCH 35 36
ENDBRANCH 34 35
BRANCH 34 39
ATOM     39  N   ASP I  60      14.277  22.156   6.519  1.00 22.02 LIG-0.34  N 
ATOM     40  C   TYR I  59      14.277  22.902   5.406  1.00 29.44 LIG 0.25  C 
ATOM     41 O    TYR I  59      14.414  22.435   4.265  1.00 29.64 LIG-0.27  OA
ATOM     42 H    ASP I  60      14.200  22.488   7.309  1.00 22.02 LIG 0.16  HD
BRANCH 40 43
ATOM     43  CA  TYR I  59      14.125  24.417   5.584  1.00 32.26 LIG 0.28  C 
BRANCH 43 44
ATOM     44  CB  TYR I  59      12.643  24.778   5.790  1.00 35.10 LIG 0.08  C 
BRANCH 44 45
ATOM     45  CG  TYR I  59      11.743  24.274   4.674  1.00 39.87 LIG-0.06  A 
ATOM     46  CD1 TYR I  59      12.121  24.409   3.333  1.00 40.08 LIG 0.01  A 
ATOM     47  CE1 TYR I  59      11.267  24.040   2.295  1.00 40.68 LIG 0.04  A 
ATOM     48  CZ  TYR I  59      10.016  23.525   2.579  1.00 42.21 LIG 0.07  A 
ATOM     49  CE2 TYR I  59       9.606  23.367   3.904  1.00 42.84 LIG 0.04  A 
ATOM     50  CD2 TYR I  59      10.478  23.741   4.951  1.00 40.94 LIG 0.01  A 
BRANCH 48 51
ATOM     51 OH   TYR I  59       9.185  23.184   1.532  1.00 42.12 LIG-0.36  OA
ATOM     52 HH   TYR I  59       9.118  22.347   1.489  1.00 42.12 LIG 0.22  HD
ENDBRANCH 48 51
ENDBRANCH 44 45
ENDBRANCH 43 44
BRANCH 43 53
ATOM     53  N   TYR I  59      14.669  25.106   4.355  1.00 33.30 LIG-0.07  N 
ATOM     54 H1   TYR I  59      14.288  24.761   3.628  1.00 33.30 LIG 0.28  HD
ATOM     55 H2   TYR I  59      14.489  25.977   4.398  1.00 33.30 LIG 0.28  HD
ATOM     56 H3   TYR I  59      15.550  24.987   4.313  1.00 33.30 LIG 0.28  HD
ENDBRANCH 43 53
ENDBRANCH 40 43
ENDBRANCH 34 39
ENDBRANCH 31 34
ENDBRANCH 1 30
TORSDOF 22
ENDMDL
MODEL 4
USER: ADFR SOLUTION from run 60
USER: SCORE 21.565864 LL:  -4.610 LR: -18.758 RR:   0.000 FEB: -12.196
USER: RMSD 9.482334
USER: SEED 59
USER: STATUS 1 or 2 clusters left
USER: GENES 24
USER: genes 0 Translation |==|  0.49524 0.54309 0.48612
USER: genes 1 Rotation |==|  0.33828 0.47683 0.04264 0.61886
USER: genes 2 Torsion [N]-CA--C-[N] |==|  0.88344
USER: genes 3 Torsion [C]-N--CA-[C] |==|  0.16463
USER: genes 4 Torsion [N]-CA--C-[N] |==|  0.21067
USER: genes 5 Torsion [C]-N--CA-[CB] |==|  0.41878
USER: genes 6 Torsion [N]-CA--C-[OXT] |==|  0.97187
USER: genes 7 Torsion [N]-CA--CB-[CG] |==|  0.14372
USER: genes 8 Torsion [CA]-CB--CG-[CD2] |==|  0.66794
USER: genes 9 Torsion [N]-CA--CB-[CG2] |==|  0.56450
USER: genes 10 Torsion [CA]-CB--CG1-[CD1] |==|  0.75627
USER: genes 11 Torsion [C]-CA--CB-[CG] |==|  0.92018
USER: genes 12 Torsion [CA]-CB--CG-[CD] |==|  0.31933
USER: genes 13 Torsion [CB]-CG--CD-[OE1] |==|  0.30269
USER: genes 14 Torsion [C]-CA--N-[C] |==|  0.80160
USER: genes 15 Torsion [N]-C--CA-[N] |==|  0.37900
USER: genes 16 Torsion [C]-CA--CB-[CG] |==|  0.55959
USER: genes 17 Torsion [CA]-CB--CG-[OD2] |==|  0.35795
USER: genes 18 Torsion [C]-CA--N-[C] |==|  0.20854
USER: genes 19 Torsion [N]-C--CA-[N] |==|  0.37019
USER: genes 20 Torsion [C]-CA--CB-[CG] |==|  0.26105
USER: genes 21 Torsion [CA]-CB--CG-[CD1] |==|  0.15986
USER: genes 22 Torsion [CE1]-CZ--OH-[HH] |==|  0.44685
USER: genes 23 Torsion [C]-CA--N-[H2] |==|  0.47974
ROOT
ATOM      1  CA  GLN I  61      17.977  19.333   6.564  1.00 12.54 LIG 0.18  C 
ENDROOT
BRANCH 1 2
ATOM      2  C   GLN I  61      18.250  18.519   5.270  1.00 13.13 LIG 0.24  C 
ATOM      3  N   ILE I  62      17.416  17.522   5.012  1.00 10.34 LIG-0.35  N 
ATOM      4 H    ILE I  62      16.741  17.313   5.501  1.00 10.34 LIG 0.16  HD
ATOM      5 O    GLN I  61      19.196  18.795   4.518  1.00 13.36 LIG-0.27  OA
BRANCH 3 6
ATOM      6  CA  ILE I  62      17.601  16.693   3.844  1.00 10.31 LIG 0.18  C 
BRANCH 6 7
ATOM      7  C   ILE I  62      18.975  16.042   3.930  1.00 12.98 LIG 0.24  C 
ATOM      8 O    ILE I  62      19.930  16.445   3.229  1.00 12.64 LIG-0.27  OA
ATOM      9  N   LEU I  63      19.072  15.026   4.791  1.00 10.93 LIG-0.34  N 
ATOM     10 H    LEU I  63      18.414  14.753   5.273  1.00 10.93 LIG 0.16  HD
BRANCH 9 11
ATOM     11  CA  LEU I  63      20.323  14.266   5.003  1.00 11.08 LIG 0.18  C 
BRANCH 11 12
ATOM     12  C   LEU I  63      20.458  13.095   4.020  1.00 13.00 LIG 0.20  C 
ATOM     13 O    LEU I  63      21.553  12.492   3.968  1.00 13.41 LIG-0.65  OA
ATOM     14 OXT  LEU I  63      19.469  12.787   3.313  1.00 16.16 LIG-0.65  OA
ENDBRANCH 11 12
BRANCH 11 15
ATOM     15  CB  LEU I  63      20.374  13.722   6.437  1.00 10.85 LIG 0.04  C 
BRANCH 15 16
ATOM     16  CG  LEU I  63      19.135  12.962   6.825  1.00 12.24 LIG-0.02  C 
ATOM     17  CD2 LEU I  63      18.497  13.675   8.026  1.00 14.99 LIG 0.01  C 
ATOM     18  CD1 LEU I  63      19.489  11.532   7.128  1.00 14.56 LIG 0.01  C 
ENDBRANCH 15 16
ENDBRANCH 11 15
ENDBRANCH 9 11
ENDBRANCH 6 7
BRANCH 6 19
ATOM     19  CB  ILE I  62      17.501  17.533   2.538  1.00 10.03 LIG 0.01  C 
ATOM     20  CG2 ILE I  62      17.126  16.638   1.369  1.00 11.01 LIG 0.01  C 
BRANCH 19 21
ATOM     21  CG1 ILE I  62      16.457  18.648   2.692  1.00 11.14 LIG 0.00  C 
ATOM     22  CD1 ILE I  62      15.055  18.252   2.341  1.00 11.65 LIG 0.01  C 
ENDBRANCH 19 21
ENDBRANCH 6 19
ENDBRANCH 3 6
ENDBRANCH 1 2
BRANCH 1 23
ATOM     23  CB  GLN I  61      18.494  18.612   7.816  1.00 14.90 LIG 0.04  C 
BRANCH 23 24
ATOM     24  CG  GLN I  61      18.540  17.114   7.776  1.00 19.56 LIG 0.10  C 
BRANCH 24 25
ATOM     25  CD  GLN I  61      19.981  16.634   7.855  1.00 24.89 LIG 0.21  C 
ATOM     26 OE1  GLN I  61      20.406  16.078   8.878  1.00 26.12 LIG-0.27  OA
ATOM     27  NE2 GLN I  61      20.735  16.818   6.760  1.00 17.87 LIG-0.37  N 
ATOM     28 22HE GLN I  61      21.551  16.545   6.749  1.00 17.87 LIG 0.16  HD
ATOM     29 21HE GLN I  61      20.404  17.209   6.070  1.00 17.87 LIG 0.16  HD
ENDBRANCH 24 25
ENDBRANCH 23 24
ENDBRANCH 1 23
BRANCH 1 30
ATOM     30  N   GLN I  61      16.570  19.632   6.805  1.00 13.65 LIG-0.35  N 
ATOM     31  C   ASP I  60      15.892  20.507   6.077  1.00 18.68 LIG 0.24  C 
ATOM     32 O    ASP I  60      16.391  21.103   5.113  1.00 17.48 LIG-0.27  OA
ATOM     33 H    GLN I  61      16.225  19.190   7.457  1.00 13.65 LIG 0.16  HD
BRANCH 31 34
ATOM     34  CA  ASP I  60      14.432  20.753   6.513  1.00 21.07 LIG 0.19  C 
BRANCH 34 35
ATOM     35  CB  ASP I  60      13.433  20.081   5.552  1.00 25.87 LIG 0.15  C 
BRANCH 35 36
ATOM     36  CG  ASP I  60      12.006  20.692   5.597  1.00 31.63 LIG 0.17  C 
ATOM     37 OD2  ASP I  60      11.487  21.025   4.505  1.00 32.10 LIG-0.65  OA
ATOM     38 OD1  ASP I  60      11.382  20.800   6.683  1.00 34.51 LIG-0.65  OA
ENDBRANCH 35 36
ENDBRANCH 34 35
BRANCH 34 39
ATOM     39  N   ASP I  60      14.276  22.220   6.437  1.00 22.02 LIG-0.34  N 
ATOM     40  C   TYR I  59      14.151  22.880   5.277  1.00 29.44 LIG 0.25  C 
ATOM     41 O    TYR I  59      14.178  22.330   4.166  1.00 29.64 LIG-0.27  OA
ATOM     42 H    ASP I  60      14.274  22.610   7.204  1.00 22.02 LIG 0.16  HD
BRANCH 40 43
ATOM     43  CA  TYR I  59      13.992  24.403   5.357  1.00 32.26 LIG 0.28  C 
BRANCH 43 44
ATOM     44  CB  TYR I  59      12.533  24.798   5.060  1.00 35.10 LIG 0.08  C 
BRANCH 44 45
ATOM     45  CG  TYR I  59      11.685  24.942   6.313  1.00 39.87 LIG-0.06  A 
ATOM     46  CD1 TYR I  59      12.051  25.837   7.327  1.00 40.08 LIG 0.01  A 
ATOM     47  CE1 TYR I  59      11.339  25.912   8.522  1.00 40.68 LIG 0.04  A 
ATOM     48  CZ  TYR I  59      10.244  25.093   8.728  1.00 42.21 LIG 0.07  A 
ATOM     49  CE2 TYR I  59       9.844  24.194   7.738  1.00 42.84 LIG 0.04  A 
ATOM     50  CD2 TYR I  59      10.569  24.125   6.527  1.00 40.94 LIG 0.01  A 
BRANCH 48 51
ATOM     51 OH   TYR I  59       9.569  25.177   9.928  1.00 42.12 LIG-0.36  OA
ATOM     52 HH   TYR I  59       8.801  24.846   9.841  1.00 42.12 LIG 0.22  HD
ENDBRANCH 48 51
ENDBRANCH 44 45
ENDBRANCH 43 44
BRANCH 43 53
ATOM     53  N   TYR I  59      14.925  25.040   4.355  1.00 33.30 LIG-0.07  N 
ATOM     54 H1   TYR I  59      14.790  24.679   3.553  1.00 33.30 LIG 0.28  HD
ATOM     55 H2   TYR I  59      14.766  25.915   4.317  1.00 33.30 LIG 0.28  HD
ATOM     56 H3   TYR I  59      15.768  24.902   4.605  1.00 33.30 LIG 0.28  HD
ENDBRANCH 43 53
ENDBRANCH 40 43
ENDBRANCH 34 39
ENDBRANCH 31 34
ENDBRANCH 1 30
TORSDOF 22
ENDMDL
MODEL 5
USER: ADFR SOLUTION from run 7
USER: SCORE 22.338239 LL:  -4.632 LR: -18.726 RR:   0.000 FEB: -12.163
USER: RMSD 10.249259
USER: SEED 795260
USER: STATUS no improvement in best 3 clusters for 5 generations
USER: GENES 24
USER: genes 0 Translation |==|  0.44176 0.51360 0.39787
USER: genes 1 Rotation |==|  0.22489 0.09297 0.58412 0.53960
USER: genes 2 Torsion [N]-CA--C-[N] |==|  0.12672
USER: genes 3 Torsion [C]-N--CA-[C] |==|  0.70873
USER: genes 4 Torsion [N]-CA--C-[N] |==|  0.39872
USER: genes 5 Torsion [C]-N--CA-[CB] |==|  0.32940
USER: genes 6 Torsion [N]-CA--C-[OXT] |==|  0.53645
USER: genes 7 Torsion [N]-CA--CB-[CG] |==|  0.80144
USER: genes 8 Torsion [CA]-CB--CG-[CD2] |==|  0.25747
USER: genes 9 Torsion [N]-CA--CB-[CG2] |==|  0.44373
USER: genes 10 Torsion [CA]-CB--CG1-[CD1] |==|  0.94025
USER: genes 11 Torsion [C]-CA--CB-[CG] |==|  0.20133
USER: genes 12 Torsion [CA]-CB--CG-[CD] |==|  0.03887
USER: genes 13 Torsion [CB]-CG--CD-[OE1] |==|  0.21439
USER: genes 14 Torsion [C]-CA--N-[C] |==|  0.16989
USER: genes 15 Torsion [N]-C--CA-[N] |==|  0.61896
USER: genes 16 Torsion [C]-CA--CB-[CG] |==|  0.60528
USER: genes 17 Torsion [CA]-CB--CG-[OD2] |==|  0.73666
USER: genes 18 Torsion [C]-CA--N-[C] |==|  0.63462
USER: genes 19 Torsion [N]-C--CA-[N] |==|  0.84684
USER: genes 20 Torsion [C]-CA--CB-[CG] |==|  0.22345
USER: genes 21 Torsion [CA]-CB--CG-[CD1] |==|  0.84905
USER: genes 22 Torsion [CE1]-CZ--OH-[HH] |==|  0.70536
USER: genes 23 Torsion [C]-CA--N-[H2] |==|  0.59827
ROOT
ATOM      1  CA  GLN I  61      16.373  18.448   3.916  1.00 12.54 LIG 0.18  C 
ENDROOT
BRANCH 1 2
ATOM      2  C   GLN I  61      17.764  18.362   4.598  1.00 13.13 LIG 0.24  C 
ATOM      3  N   ILE I  62      17.776  18.004   5.874  1.00 10.34 LIG-0.35  N 
ATOM      4 H    ILE I  62      17.075  17.808   6.331  1.00 10.34 LIG 0.16  HD
ATOM      5 O    GLN I  61      18.808  18.611   3.976  1.00 13.36 LIG-0.27  OA
BRANCH 3 6
ATOM      6  CA  ILE I  62      19.021  17.919   6.602  1.00 10.31 LIG 0.18  C 
BRANCH 6 7
ATOM      7  C   ILE I  62      19.378  16.448   6.771  1.00 12.98 LIG 0.24  C 
ATOM      8 O    ILE I  62      18.495  15.585   6.972  1.00 12.64 LIG-0.27  OA
ATOM      9  N   LEU I  63      20.681  16.165   6.695  1.00 10.93 LIG-0.34  N 
ATOM     10 H    LEU I  63      21.285  16.761   6.554  1.00 10.93 LIG 0.16  HD
BRANCH 9 11
ATOM     11  CA  LEU I  63      21.218  14.795   6.845  1.00 11.08 LIG 0.18  C 
BRANCH 11 12
ATOM     12  C   LEU I  63      22.195  14.686   8.023  1.00 13.00 LIG 0.20  C 
ATOM     13 O    LEU I  63      22.234  15.628   8.846  1.00 13.41 LIG-0.65  OA
ATOM     14 OXT  LEU I  63      22.911  13.661   8.118  1.00 16.16 LIG-0.65  OA
ENDBRANCH 11 12
BRANCH 11 15
ATOM     15  CB  LEU I  63      21.936  14.366   5.559  1.00 10.85 LIG 0.04  C 
BRANCH 15 16
ATOM     16  CG  LEU I  63      20.994  14.097   4.417  1.00 12.24 LIG-0.02  C 
ATOM     17  CD2 LEU I  63      20.850  15.393   3.606  1.00 14.99 LIG 0.01  C 
ATOM     18  CD1 LEU I  63      19.677  13.603   4.948  1.00 14.56 LIG 0.01  C 
ENDBRANCH 15 16
ENDBRANCH 11 15
ENDBRANCH 9 11
ENDBRANCH 6 7
BRANCH 6 19
ATOM     19  CB  ILE I  62      18.902  18.593   7.999  1.00 10.03 LIG 0.01  C 
ATOM     20  CG2 ILE I  62      19.995  18.080   8.922  1.00 11.01 LIG 0.01  C 
BRANCH 19 21
ATOM     21  CG1 ILE I  62      19.005  20.120   7.873  1.00 11.14 LIG 0.00  C 
ATOM     22  CD1 ILE I  62      19.677  20.605   6.624  1.00 11.65 LIG 0.01  C 
ENDBRANCH 19 21
ENDBRANCH 6 19
ENDBRANCH 3 6
ENDBRANCH 1 2
BRANCH 1 23
ATOM     23  CB  GLN I  61      16.441  19.163   2.561  1.00 14.90 LIG 0.04  C 
BRANCH 23 24
ATOM     24  CG  GLN I  61      17.080  18.423   1.425  1.00 19.56 LIG 0.10  C 
BRANCH 24 25
ATOM     25  CD  GLN I  61      17.231  16.952   1.780  1.00 24.89 LIG 0.21  C 
ATOM     26 OE1  GLN I  61      16.255  16.189   1.737  1.00 26.12 LIG-0.27  OA
ATOM     27  NE2 GLN I  61      18.465  16.536   2.105  1.00 17.87 LIG-0.37  N 
ATOM     28 22HE GLN I  61      18.605  15.709   2.294  1.00 17.87 LIG 0.16  HD
ATOM     29 21HE GLN I  61      19.117  17.097   2.124  1.00 17.87 LIG 0.16  HD
ENDBRANCH 24 25
ENDBRANCH 23 24
ENDBRANCH 1 23
BRANCH 1 30
ATOM     30  N   GLN I  61      15.355  19.138   4.702  1.00 13.65 LIG-0.35  N 
ATOM     31  C   ASP I  60      15.473  20.407   5.064  1.00 18.68 LIG 0.24  C 
ATOM     32 O    ASP I  60      16.433  21.112   4.725  1.00 17.48 LIG-0.27  OA
ATOM     33 H    GLN I  61      14.678  18.648   4.906  1.00 13.65 LIG 0.16  HD
BRANCH 31 34
ATOM     34  CA  ASP I  60      14.338  20.958   5.952  1.00 21.07 LIG 0.19  C 
BRANCH 34 35
ATOM     35  CB  ASP I  60      13.070  20.088   5.855  1.00 25.87 LIG 0.15  C 
BRANCH 35 36
ATOM     36  CG  ASP I  60      11.745  20.899   5.871  1.00 31.63 LIG 0.17  C 
ATOM     37 OD2  ASP I  60      11.172  21.045   6.977  1.00 32.10 LIG-0.65  OA
ATOM     38 OD1  ASP I  60      11.296  21.426   4.822  1.00 34.51 LIG-0.65  OA
ENDBRANCH 35 36
ENDBRANCH 34 35
BRANCH 34 39
ATOM     39  N   ASP I  60      14.060  22.296   5.390  1.00 22.02 LIG-0.34  N 
ATOM     40  C   TYR I  59      13.962  23.398   6.147  1.00 29.44 LIG 0.25  C 
ATOM     41 O    TYR I  59      14.070  23.396   7.382  1.00 29.64 LIG-0.27  OA
ATOM     42 H    ASP I  60      13.966  22.301   4.535  1.00 22.02 LIG 0.16  HD
BRANCH 40 43
ATOM     43  CA  TYR I  59      13.674  24.717   5.420  1.00 32.26 LIG 0.28  C 
BRANCH 43 44
ATOM     44  CB  TYR I  59      12.270  24.677   4.789  1.00 35.10 LIG 0.08  C 
BRANCH 44 45
ATOM     45  CG  TYR I  59      11.158  24.968   5.784  1.00 39.87 LIG-0.06  A 
ATOM     46  CD1 TYR I  59      11.045  24.229   6.968  1.00 40.08 LIG 0.01  A 
ATOM     47  CE1 TYR I  59       9.978  24.418   7.844  1.00 40.68 LIG 0.04  A 
ATOM     48  CZ  TYR I  59       9.002  25.353   7.554  1.00 42.21 LIG 0.07  A 
ATOM     49  CE2 TYR I  59       9.085  26.115   6.387  1.00 42.84 LIG 0.04  A 
ATOM     50  CD2 TYR I  59      10.170  25.920   5.504  1.00 40.94 LIG 0.01  A 
BRANCH 48 51
ATOM     51 OH   TYR I  59       7.948  25.507   8.431  1.00 42.12 LIG-0.36  OA
ATOM     52 HH   TYR I  59       7.256  25.165   8.100  1.00 42.12 LIG 0.22  HD
ENDBRANCH 48 51
ENDBRANCH 44 45
ENDBRANCH 43 44
BRANCH 43 53
ATOM     53  N   TYR I  59      14.725  24.921   4.355  1.00 33.30 LIG-0.07  N 
ATOM     54 H1   TYR I  59      14.419  24.622   3.575  1.00 33.30 LIG 0.28  HD
ATOM     55 H2   TYR I  59      14.913  25.789   4.286  1.00 33.30 LIG 0.28  HD
ATOM     56 H3   TYR I  59      15.463  24.475   4.576  1.00 33.30 LIG 0.28  HD
ENDBRANCH 43 53
ENDBRANCH 40 43
ENDBRANCH 34 39
ENDBRANCH 31 34
ENDBRANCH 1 30
TORSDOF 22
ENDMDL
MODEL 6
USER: ADFR SOLUTION from run 106
USER: SCORE 20.802656 LL:  -3.884 LR: -18.552 RR:   0.000 FEB: -11.989
USER: RMSD 9.458406
USER: SEED 105
USER: STATUS searching
USER: GENES 24
USER: genes 0 Translation |==|  0.51276 0.49844 0.47701
USER: genes 1 Rotation |==|  0.38139 0.38076 0.02931 0.51301
USER: genes 2 Torsion [N]-CA--C-[N] |==|  0.30446
USER: genes 3 Torsion [C]-N--CA-[C] |==|  0.63736
USER: genes 4 Torsion [N]-CA--C-[N] |==|  0.71328
USER: genes 5 Torsion [C]-N--CA-[CB] |==|  0.85605
USER: genes 6 Torsion [N]-CA--C-[OXT] |==|  0.67629
USER: genes 7 Torsion [N]-CA--CB-[CG] |==|  0.66484
USER: genes 8 Torsion [CA]-CB--CG-[CD2] |==|  0.40250
USER: genes 9 Torsion [N]-CA--CB-[CG2] |==|  0.53404
USER: genes 10 Torsion [CA]-CB--CG1-[CD1] |==|  0.26955
USER: genes 11 Torsion [C]-CA--CB-[CG] |==|  0.38699
USER: genes 12 Torsion [CA]-CB--CG-[CD] |==|  0.01193
USER: genes 13 Torsion [CB]-CG--CD-[OE1] |==|  0.29464
USER: genes 14 Torsion [C]-CA--N-[C] |==|  0.75167
USER: genes 15 Torsion [N]-C--CA-[N] |==|  0.29405
USER: genes 16 Torsion [C]-CA--CB-[CG] |==|  0.23442
USER: genes 17 Torsion [CA]-CB--CG-[OD2] |==|  0.46982
USER: genes 18 Torsion [C]-CA--N-[C] |==|  0.52240
USER: genes 19 Torsion [N]-C--CA-[N] |==|  0.33424
USER: genes 20 Torsion [C]-CA--CB-[CG] |==|  0.79749
USER: genes 21 Torsion [CA]-CB--CG-[CD1] |==|  0.75597
USER: genes 22 Torsion [CE1]-CZ--OH-[HH] |==|  0.39983
USER: genes 23 Torsion [C]-CA--N-[H2] |==|  0.70626
ROOT
ATOM      1  CA  GLN I  61      18.503  17.993   6.290  1.00 12.54 LIG 0.18  C 
ENDROOT
BRANCH 1 2
ATOM      2  C   GLN I  61      18.771  16.638   5.583  1.00 13.13 LIG 0.24  C 
ATOM      3  N   ILE I  62      19.740  16.624   4.680  1.00 10.34 LIG-0.35  N 
ATOM      4 H    ILE I  62      20.227  17.303   4.477  1.00 10.34 LIG 0.16  HD
ATOM      5 O    GLN I  61      18.113  15.622   5.857  1.00 13.36 LIG-0.27  OA
BRANCH 3 6
ATOM      6  CA  ILE I  62      20.049  15.415   3.952  1.00 10.31 LIG 0.18  C 
BRANCH 6 7
ATOM      7  C   ILE I  62      21.552  15.182   4.024  1.00 12.98 LIG 0.24  C 
ATOM      8 O    ILE I  62      22.091  14.734   5.061  1.00 12.64 LIG-0.27  OA
ATOM      9  N   LEU I  63      22.230  15.493   2.917  1.00 10.93 LIG-0.34  N 
ATOM     10 H    LEU I  63      21.857  15.799   2.205  1.00 10.93 LIG 0.16  HD
BRANCH 9 11
ATOM     11  CA  LEU I  63      23.698  15.344   2.804  1.00 11.08 LIG 0.18  C 
BRANCH 11 12
ATOM     12  C   LEU I  63      24.126  13.871   2.775  1.00 13.00 LIG 0.20  C 
ATOM     13 O    LEU I  63      23.745  13.165   1.815  1.00 13.41 LIG-0.65  OA
ATOM     14 OXT  LEU I  63      24.841  13.435   3.708  1.00 16.16 LIG-0.65  OA
ENDBRANCH 11 12
BRANCH 11 15
ATOM     15  CB  LEU I  63      24.392  16.043   3.981  1.00 10.85 LIG 0.04  C 
BRANCH 15 16
ATOM     16  CG  LEU I  63      25.341  17.128   3.548  1.00 12.24 LIG-0.02  C 
ATOM     17  CD2 LEU I  63      25.282  18.254   4.590  1.00 14.99 LIG 0.01  C 
ATOM     18  CD1 LEU I  63      24.977  17.602   2.168  1.00 14.56 LIG 0.01  C 
ENDBRANCH 15 16
ENDBRANCH 11 15
ENDBRANCH 9 11
ENDBRANCH 6 7
BRANCH 6 19
ATOM     19  CB  ILE I  62      19.606  15.527   2.464  1.00 10.03 LIG 0.01  C 
ATOM     20  CG2 ILE I  62      19.659  14.162   1.799  1.00 11.01 LIG 0.01  C 
BRANCH 19 21
ATOM     21  CG1 ILE I  62      18.184  16.098   2.365  1.00 11.14 LIG 0.00  C 
ATOM     22  CD1 ILE I  62      18.114  17.571   2.102  1.00 11.65 LIG 0.01  C 
ENDBRANCH 19 21
ENDBRANCH 6 19
ENDBRANCH 3 6
ENDBRANCH 1 2
BRANCH 1 23
ATOM     23  CB  GLN I  61      18.483  17.850   7.818  1.00 14.90 LIG 0.04  C 
BRANCH 23 24
ATOM     24  CG  GLN I  61      19.145  18.931   8.618  1.00 19.56 LIG 0.10  C 
BRANCH 24 25
ATOM     25  CD  GLN I  61      19.628  20.040   7.696  1.00 24.89 LIG 0.21  C 
ATOM     26 OE1  GLN I  61      19.032  21.126   7.648  1.00 26.12 LIG-0.27  OA
ATOM     27  NE2 GLN I  61      20.734  19.786   6.980  1.00 17.87 LIG-0.37  N 
ATOM     28 22HE GLN I  61      21.058  20.389   6.459  1.00 17.87 LIG 0.16  HD
ATOM     29 21HE GLN I  61      21.120  19.019   7.040  1.00 17.87 LIG 0.16  HD
ENDBRANCH 24 25
ENDBRANCH 23 24
ENDBRANCH 1 23
BRANCH 1 30
ATOM     30  N   GLN I  61      17.247  18.634   5.914  1.00 13.65 LIG-0.35  N 
ATOM     31  C   ASP I  60      17.153  19.474   4.894  1.00 18.68 LIG 0.24  C 
ATOM     32 O    ASP I  60      18.113  19.742   4.159  1.00 17.48 LIG-0.27  OA
ATOM     33 H    GLN I  61      16.580  18.417   6.412  1.00 13.65 LIG 0.16  HD
BRANCH 31 34
ATOM     34  CA  ASP I  60      15.766  20.114   4.679  1.00 21.07 LIG 0.19  C 
BRANCH 34 35
ATOM     35  CB  ASP I  60      15.370  20.120   3.189  1.00 25.87 LIG 0.15  C 
BRANCH 35 36
ATOM     36  CG  ASP I  60      14.720  18.796   2.703  1.00 31.63 LIG 0.17  C 
ATOM     37 OD2  ASP I  60      14.185  18.800   1.569  1.00 32.10 LIG-0.65  OA
ATOM     38 OD1  ASP I  60      14.773  17.754   3.403  1.00 34.51 LIG-0.65  OA
ENDBRANCH 35 36
ENDBRANCH 34 35
BRANCH 34 39
ATOM     39  N   ASP I  60      15.935  21.505   5.147  1.00 22.02 LIG-0.34  N 
ATOM     40  C   TYR I  59      14.911  22.360   5.275  1.00 29.44 LIG 0.25  C 
ATOM     41 O    TYR I  59      13.738  22.076   4.991  1.00 29.64 LIG-0.27  OA
ATOM     42 H    ASP I  60      16.749  21.713   5.329  1.00 22.02 LIG 0.16  HD
BRANCH 40 43
ATOM     43  CA  TYR I  59      15.241  23.770   5.779  1.00 32.26 LIG 0.28  C 
BRANCH 43 44
ATOM     44  CB  TYR I  59      14.512  24.041   7.107  1.00 35.10 LIG 0.08  C 
BRANCH 44 45
ATOM     45  CG  TYR I  59      13.017  24.256   6.936  1.00 39.87 LIG-0.06  A 
ATOM     46  CD1 TYR I  59      12.503  25.532   6.672  1.00 40.08 LIG 0.01  A 
ATOM     47  CE1 TYR I  59      11.130  25.763   6.608  1.00 40.68 LIG 0.04  A 
ATOM     48  CZ  TYR I  59      10.243  24.722   6.804  1.00 42.21 LIG 0.07  A 
ATOM     49  CE2 TYR I  59      10.717  23.434   7.061  1.00 42.84 LIG 0.04  A 
ATOM     50  CD2 TYR I  59      12.110  23.206   7.123  1.00 40.94 LIG 0.01  A 
BRANCH 48 51
ATOM     51 OH   TYR I  59       8.889  24.984   6.751  1.00 42.12 LIG-0.36  OA
ATOM     52 HH   TYR I  59       8.491  24.332   6.400  1.00 42.12 LIG 0.22  HD
ENDBRANCH 48 51
ENDBRANCH 44 45
ENDBRANCH 43 44
BRANCH 43 53
ATOM     53  N   TYR I  59      14.816  24.770   4.730  1.00 33.30 LIG-0.07  N 
ATOM     54 H1   TYR I  59      14.379  25.440   5.119  1.00 33.30 LIG 0.28  HD
ATOM     55 H2   TYR I  59      15.536  25.088   4.313  1.00 33.30 LIG 0.28  HD
ATOM     56 H3   TYR I  59      14.283  24.372   4.138  1.00 33.30 LIG 0.28  HD
ENDBRANCH 43 53
ENDBRANCH 40 43
ENDBRANCH 34 39
ENDBRANCH 31 34
ENDBRANCH 1 30
TORSDOF 22
ENDMDL
MODEL 7
USER: ADFR SOLUTION from run 25
USER: SCORE 20.648248 LL:  -2.923 LR: -18.354 RR:   0.000 FEB: -11.791
USER: RMSD 10.440467
USER: SEED 24
USER: STATUS no improvement in best 4 clusters for 5 generations
USER: GENES 24
USER: genes 0 Translation |==|  0.44783 0.55781 0.44932
USER: genes 1 Rotation |==|  0.15961 0.24295 0.73848 0.60577
USER: genes 2 Torsion [N]-CA--C-[N] |==|  0.31321
USER: genes 3 Torsion [C]-N--CA-[C] |==|  0.72634
USER: genes 4 Torsion [N]-CA--C-[N] |==|  0.39510
USER: genes 5 Torsion [C]-N--CA-[CB] |==|  0.45988
USER: genes 6 Torsion [N]-CA--C-[OXT] |==|  0.59420
USER: genes 7 Torsion [N]-CA--CB-[CG] |==|  0.07712
USER: genes 8 Torsion [CA]-CB--CG-[CD2] |==|  0.55171
USER: genes 9 Torsion [N]-CA--CB-[CG2] |==|  0.99977
USER: genes 10 Torsion [CA]-CB--CG1-[CD1] |==|  0.70042
USER: genes 11 Torsion [C]-CA--CB-[CG] |==|  0.14792
USER: genes 12 Torsion [CA]-CB--CG-[CD] |==|  0.64791
USER: genes 13 Torsion [CB]-CG--CD-[OE1] |==|  0.26256
USER: genes 14 Torsion [C]-CA--N-[C] |==|  0.72991
USER: genes 15 Torsion [N]-C--CA-[N] |==|  0.13821
USER: genes 16 Torsion [C]-CA--CB-[CG] |==|  0.86569
USER: genes 17 Torsion [CA]-CB--CG-[OD2] |==|  0.76759
USER: genes 18 Torsion [C]-CA--N-[C] |==|  0.11111
USER: genes 19 Torsion [N]-C--CA-[N] |==|  0.04707
USER: genes 20 Torsion [C]-CA--CB-[CG] |==|  0.37961
USER: genes 21 Torsion [CA]-CB--CG-[CD1] |==|  0.19911
USER: genes 22 Torsion [CE1]-CZ--OH-[HH] |==|  0.55797
USER: genes 23 Torsion [C]-CA--N-[H2] |==|  0.45623
ROOT
ATOM      1  CA  GLN I  61      16.555  19.774   5.460  1.00 12.54 LIG 0.18  C 
ENDROOT
BRANCH 1 2
ATOM      2  C   GLN I  61      17.925  19.046   5.494  1.00 13.13 LIG 0.24  C 
ATOM      3  N   ILE I  62      18.018  18.000   6.302  1.00 10.34 LIG-0.35  N 
ATOM      4 H    ILE I  62      17.375  17.700   6.787  1.00 10.34 LIG 0.16  HD
ATOM      5 O    GLN I  61      18.878  19.424   4.796  1.00 13.36 LIG-0.27  OA
BRANCH 3 6
ATOM      6  CA  ILE I  62      19.260  17.271   6.420  1.00 10.31 LIG 0.18  C 
BRANCH 6 7
ATOM      7  C   ILE I  62      19.178  16.036   5.533  1.00 12.98 LIG 0.24  C 
ATOM      8 O    ILE I  62      18.115  15.385   5.423  1.00 12.64 LIG-0.27  OA
ATOM      9  N   LEU I  63      20.309  15.710   4.903  1.00 10.93 LIG-0.34  N 
ATOM     10 H    LEU I  63      21.038  16.161   4.979  1.00 10.93 LIG 0.16  HD
BRANCH 9 11
ATOM     11  CA  LEU I  63      20.424  14.538   4.009  1.00 11.08 LIG 0.18  C 
BRANCH 11 12
ATOM     12  C   LEU I  63      20.437  13.217   4.790  1.00 13.00 LIG 0.20  C 
ATOM     13 O    LEU I  63      19.752  13.144   5.835  1.00 13.41 LIG-0.65  OA
ATOM     14 OXT  LEU I  63      21.127  12.266   4.353  1.00 16.16 LIG-0.65  OA
ENDBRANCH 11 12
BRANCH 11 15
ATOM     15  CB  LEU I  63      21.707  14.635   3.173  1.00 10.85 LIG 0.04  C 
BRANCH 15 16
ATOM     16  CG  LEU I  63      22.799  15.417   3.854  1.00 12.24 LIG-0.02  C 
ATOM     17  CD2 LEU I  63      23.814  15.844   2.785  1.00 14.99 LIG 0.01  C 
ATOM     18  CD1 LEU I  63      23.422  14.583   4.938  1.00 14.56 LIG 0.01  C 
ENDBRANCH 15 16
ENDBRANCH 11 15
ENDBRANCH 9 11
ENDBRANCH 6 7
BRANCH 6 19
ATOM     19  CB  ILE I  62      19.522  16.842   7.893  1.00 10.03 LIG 0.01  C 
ATOM     20  CG2 ILE I  62      18.388  17.320   8.785  1.00 11.01 LIG 0.01  C 
BRANCH 19 21
ATOM     21  CG1 ILE I  62      19.655  15.316   7.995  1.00 11.14 LIG 0.00  C 
ATOM     22  CD1 ILE I  62      18.495  14.625   8.646  1.00 11.65 LIG 0.01  C 
ENDBRANCH 19 21
ENDBRANCH 6 19
ENDBRANCH 3 6
ENDBRANCH 1 2
BRANCH 1 23
ATOM     23  CB  GLN I  61      16.000  19.889   4.034  1.00 14.90 LIG 0.04  C 
BRANCH 23 24
ATOM     24  CG  GLN I  61      15.894  18.625   3.235  1.00 19.56 LIG 0.10  C 
BRANCH 24 25
ATOM     25  CD  GLN I  61      16.601  18.793   1.899  1.00 24.89 LIG 0.21  C 
ATOM     26 OE1  GLN I  61      17.780  18.432   1.758  1.00 26.12 LIG-0.27  OA
ATOM     27  NE2 GLN I  61      15.876  19.313   0.896  1.00 17.87 LIG-0.37  N 
ATOM     28 22HE GLN I  61      16.226  19.408   0.116  1.00 17.87 LIG 0.16  HD
ATOM     29 21HE GLN I  61      15.061  19.551   1.033  1.00 17.87 LIG 0.16  HD
ENDBRANCH 24 25
ENDBRANCH 23 24
ENDBRANCH 1 23
BRANCH 1 30
ATOM     30  N   GLN I  61      16.574  21.125   6.010  1.00 13.65 LIG-0.35  N 
ATOM     31  C   ASP I  60      16.206  21.394   7.254  1.00 18.68 LIG 0.24  C 
ATOM     32 O    ASP I  60      15.861  20.513   8.054  1.00 17.48 LIG-0.27  OA
ATOM     33 H    GLN I  61      16.845  21.725   5.456  1.00 13.65 LIG 0.16  HD
BRANCH 31 34
ATOM     34  CA  ASP I  60      16.221  22.885   7.650  1.00 21.07 LIG 0.19  C 
BRANCH 34 35
ATOM     35  CB  ASP I  60      15.497  23.123   8.989  1.00 25.87 LIG 0.15  C 
BRANCH 35 36
ATOM     36  CG  ASP I  60      14.102  22.446   9.082  1.00 31.63 LIG 0.17  C 
ATOM     37 OD2  ASP I  60      13.129  23.061   8.586  1.00 32.10 LIG-0.65  OA
ATOM     38 OD1  ASP I  60      13.969  21.304   9.591  1.00 34.51 LIG-0.65  OA
ENDBRANCH 35 36
ENDBRANCH 34 35
BRANCH 34 39
ATOM     39  N   ASP I  60      15.476  23.553   6.564  1.00 22.02 LIG-0.34  N 
ATOM     40  C   TYR I  59      14.374  23.031   6.007  1.00 29.44 LIG 0.25  C 
ATOM     41 O    TYR I  59      13.894  21.935   6.331  1.00 29.64 LIG-0.27  OA
ATOM     42 H    ASP I  60      15.815  24.306   6.323  1.00 22.02 LIG 0.16  HD
BRANCH 40 43
ATOM     43  CA  TYR I  59      13.707  23.844   4.892  1.00 32.26 LIG 0.28  C 
BRANCH 43 44
ATOM     44  CB  TYR I  59      13.270  22.912   3.747  1.00 35.10 LIG 0.08  C 
BRANCH 44 45
ATOM     45  CG  TYR I  59      11.882  23.228   3.214  1.00 39.87 LIG-0.06  A 
ATOM     46  CD1 TYR I  59      11.653  24.380   2.452  1.00 40.08 LIG 0.01  A 
ATOM     47  CE1 TYR I  59      10.371  24.734   2.037  1.00 40.68 LIG 0.04  A 
ATOM     48  CZ  TYR I  59       9.290  23.941   2.375  1.00 42.21 LIG 0.07  A 
ATOM     49  CE2 TYR I  59       9.480  22.780   3.127  1.00 42.84 LIG 0.04  A 
ATOM     50  CD2 TYR I  59      10.783  22.426   3.542  1.00 40.94 LIG 0.01  A 
BRANCH 48 51
ATOM     51 OH   TYR I  59       8.030  24.325   1.965  1.00 42.12 LIG-0.36  OA
ATOM     52 HH   TYR I  59       7.453  23.952   2.448  1.00 42.12 LIG 0.22  HD
ENDBRANCH 48 51
ENDBRANCH 44 45
ENDBRANCH 43 44
BRANCH 43 53
ATOM     53  N   TYR I  59      14.691  24.873   4.388  1.00 33.30 LIG-0.07  N 
ATOM     54 H1   TYR I  59      15.489  24.495   4.286  1.00 33.30 LIG 0.28  HD
ATOM     55 H2   TYR I  59      14.411  25.193   3.605  1.00 33.30 LIG 0.28  HD
ATOM     56 H3   TYR I  59      14.751  25.539   4.976  1.00 33.30 LIG 0.28  HD
ENDBRANCH 43 53
ENDBRANCH 40 43
ENDBRANCH 34 39
ENDBRANCH 31 34
ENDBRANCH 1 30
TORSDOF 22
ENDMDL
MODEL 8
USER: ADFR SOLUTION from run 36
USER: SCORE 22.181851 LL:  -4.788 LR: -18.353 RR:   0.000 FEB: -11.790
USER: RMSD 8.637516
USER: SEED 35
USER: STATUS searching
USER: GENES 24
USER: genes 0 Translation |==|  0.51235 0.48897 0.48094
USER: genes 1 Rotation |==|  0.60332 0.64294 0.96765 0.51401
USER: genes 2 Torsion [N]-CA--C-[N] |==|  0.27138
USER: genes 3 Torsion [C]-N--CA-[C] |==|  0.79023
USER: genes 4 Torsion [N]-CA--C-[N] |==|  0.39237
USER: genes 5 Torsion [C]-N--CA-[CB] |==|  0.28998
USER: genes 6 Torsion [N]-CA--C-[OXT] |==|  0.10323
USER: genes 7 Torsion [N]-CA--CB-[CG] |==|  0.06165
USER: genes 8 Torsion [CA]-CB--CG-[CD2] |==|  0.70935
USER: genes 9 Torsion [N]-CA--CB-[CG2] |==|  0.38285
USER: genes 10 Torsion [CA]-CB--CG1-[CD1] |==|  0.17448
USER: genes 11 Torsion [C]-CA--CB-[CG] |==|  0.33802
USER: genes 12 Torsion [CA]-CB--CG-[CD] |==|  0.08833
USER: genes 13 Torsion [CB]-CG--CD-[OE1] |==|  0.26454
USER: genes 14 Torsion [C]-CA--N-[C] |==|  0.69528
USER: genes 15 Torsion [N]-C--CA-[N] |==|  0.33893
USER: genes 16 Torsion [C]-CA--CB-[CG] |==|  0.07784
USER: genes 17 Torsion [CA]-CB--CG-[OD2] |==|  0.25566
USER: genes 18 Torsion [C]-CA--N-[C] |==|  0.52785
USER: genes 19 Torsion [N]-C--CA-[N] |==|  0.36900
USER: genes 20 Torsion [C]-CA--CB-[CG] |==|  0.15839
USER: genes 21 Torsion [CA]-CB--CG-[CD1] |==|  0.23608
USER: genes 22 Torsion [CE1]-CZ--OH-[HH] |==|  0.19315
USER: genes 23 Torsion [C]-CA--N-[H2] |==|  0.77039
ROOT
ATOM      1  CA  GLN I  61      18.491  17.709   6.408  1.00 12.54 LIG 0.18  C 
ENDROOT
BRANCH 1 2
ATOM      2  C   GLN I  61      18.719  16.266   5.885  1.00 13.13 LIG 0.24  C 
ATOM      3  N   ILE I  62      19.590  16.127   4.896  1.00 10.34 LIG-0.35  N 
ATOM      4 H    ILE I  62      20.036  16.773   4.545  1.00 10.34 LIG 0.16  HD
ATOM      5 O    GLN I  61      18.120  15.296   6.373  1.00 13.36 LIG-0.27  OA
BRANCH 3 6
ATOM      6  CA  ILE I  62      19.854  14.825   4.326  1.00 10.31 LIG 0.18  C 
BRANCH 6 7
ATOM      7  C   ILE I  62      20.729  14.045   5.297  1.00 12.98 LIG 0.24  C 
ATOM      8 O    ILE I  62      21.653  14.602   5.931  1.00 12.64 LIG-0.27  OA
ATOM      9  N   LEU I  63      20.439  12.746   5.408  1.00 10.93 LIG-0.34  N 
ATOM     10 H    LEU I  63      19.802  12.367   4.973  1.00 10.93 LIG 0.16  HD
BRANCH 9 11
ATOM     11  CA  LEU I  63      21.188  11.827   6.293  1.00 11.08 LIG 0.18  C 
BRANCH 11 12
ATOM     12  C   LEU I  63      21.542  10.511   5.588  1.00 13.00 LIG 0.20  C 
ATOM     13 O    LEU I  63      21.498   9.454   6.256  1.00 13.41 LIG-0.65  OA
ATOM     14 OXT  LEU I  63      21.857  10.545   4.375  1.00 16.16 LIG-0.65  OA
ENDBRANCH 11 12
BRANCH 11 15
ATOM     15  CB  LEU I  63      20.362  11.514   7.548  1.00 10.85 LIG 0.04  C 
BRANCH 15 16
ATOM     16  CG  LEU I  63      18.885  11.736   7.355  1.00 12.24 LIG-0.02  C 
ATOM     17  CD2 LEU I  63      18.504  13.039   8.072  1.00 14.99 LIG 0.01  C 
ATOM     18  CD1 LEU I  63      18.120  10.551   7.873  1.00 14.56 LIG 0.01  C 
ENDBRANCH 15 16
ENDBRANCH 11 15
ENDBRANCH 9 11
ENDBRANCH 6 7
BRANCH 6 19
ATOM     19  CB  ILE I  62      20.576  14.950   2.953  1.00 10.03 LIG 0.01  C 
ATOM     20  CG2 ILE I  62      21.683  13.915   2.850  1.00 11.01 LIG 0.01  C 
BRANCH 19 21
ATOM     21  CG1 ILE I  62      19.580  14.760   1.800  1.00 11.14 LIG 0.00  C 
ATOM     22  CD1 ILE I  62      18.494  15.790   1.730  1.00 11.65 LIG 0.01  C 
ENDBRANCH 19 21
ENDBRANCH 6 19
ENDBRANCH 3 6
ENDBRANCH 1 2
BRANCH 1 23
ATOM     23  CB  GLN I  61      18.340  17.750   7.934  1.00 14.90 LIG 0.04  C 
BRANCH 23 24
ATOM     24  CG  GLN I  61      19.309  18.601   8.698  1.00 19.56 LIG 0.10  C 
BRANCH 24 25
ATOM     25  CD  GLN I  61      19.718  19.803   7.861  1.00 24.89 LIG 0.21  C 
ATOM     26 OE1  GLN I  61      19.136  20.891   7.992  1.00 26.12 LIG-0.27  OA
ATOM     27  NE2 GLN I  61      20.745  19.626   7.017  1.00 17.87 LIG-0.37  N 
ATOM     28 22HE GLN I  61      21.026  20.283   6.537  1.00 17.87 LIG 0.16  HD
ATOM     29 21HE GLN I  61      21.123  18.856   6.954  1.00 17.87 LIG 0.16  HD
ENDBRANCH 24 25
ENDBRANCH 23 24
ENDBRANCH 1 23
BRANCH 1 30
ATOM     30  N   GLN I  61      17.316  18.374   5.854  1.00 13.65 LIG-0.35  N 
ATOM     31  C   ASP I  60      17.404  19.384   5.001  1.00 18.68 LIG 0.24  C 
ATOM     32 O    ASP I  60      18.487  19.808   4.577  1.00 17.48 LIG-0.27  OA
ATOM     33 H    GLN I  61      16.568  18.052   6.132  1.00 13.65 LIG 0.16  HD
BRANCH 31 34
ATOM     34  CA  ASP I  60      16.063  20.015   4.570  1.00 21.07 LIG 0.19  C 
BRANCH 34 35
ATOM     35  CB  ASP I  60      15.856  19.918   3.046  1.00 25.87 LIG 0.15  C 
BRANCH 35 36
ATOM     36  CG  ASP I  60      16.572  18.708   2.387  1.00 31.63 LIG 0.17  C 
ATOM     37 OD2  ASP I  60      15.917  17.645   2.270  1.00 32.10 LIG-0.65  OA
ATOM     38 OD1  ASP I  60      17.745  18.810   1.947  1.00 34.51 LIG-0.65  OA
ENDBRANCH 35 36
ENDBRANCH 34 35
BRANCH 34 39
ATOM     39  N   ASP I  60      16.193  21.434   4.958  1.00 22.02 LIG-0.34  N 
ATOM     40  C   TYR I  59      15.164  22.294   4.933  1.00 29.44 LIG 0.25  C 
ATOM     41 O    TYR I  59      14.022  21.988   4.561  1.00 29.64 LIG-0.27  OA
ATOM     42 H    ASP I  60      16.988  21.657   5.200  1.00 22.02 LIG 0.16  HD
BRANCH 40 43
ATOM     43  CA  TYR I  59      15.452  23.735   5.369  1.00 32.26 LIG 0.28  C 
BRANCH 43 44
ATOM     44  CB  TYR I  59      14.855  23.993   6.765  1.00 35.10 LIG 0.08  C 
BRANCH 44 45
ATOM     45  CG  TYR I  59      15.368  23.029   7.822  1.00 39.87 LIG-0.06  A 
ATOM     46  CD1 TYR I  59      16.570  23.278   8.495  1.00 40.08 LIG 0.01  A 
ATOM     47  CE1 TYR I  59      17.102  22.358   9.397  1.00 40.68 LIG 0.04  A 
ATOM     48  CZ  TYR I  59      16.440  21.171   9.647  1.00 42.21 LIG 0.07  A 
ATOM     49  CE2 TYR I  59      15.234  20.891   9.002  1.00 42.84 LIG 0.04  A 
ATOM     50  CD2 TYR I  59      14.699  21.829   8.090  1.00 40.94 LIG 0.01  A 
BRANCH 48 51
ATOM     51 OH   TYR I  59      16.998  20.272  10.532  1.00 42.12 LIG-0.36  OA
ATOM     52 HH   TYR I  59      16.957  20.584  11.311  1.00 42.12 LIG 0.22  HD
ENDBRANCH 48 51
ENDBRANCH 44 45
ENDBRANCH 43 44
BRANCH 43 53
ATOM     53  N   TYR I  59      14.848  24.677   4.355  1.00 33.30 LIG-0.07  N 
ATOM     54 H1   TYR I  59      14.711  25.471   4.732  1.00 33.30 LIG 0.28  HD
ATOM     55 H2   TYR I  59      15.404  24.767   3.666  1.00 33.30 LIG 0.28  HD
ATOM     56 H3   TYR I  59      14.072  24.347   4.068  1.00 33.30 LIG 0.28  HD
ENDBRANCH 43 53
ENDBRANCH 40 43
ENDBRANCH 34 39
ENDBRANCH 31 34
ENDBRANCH 1 30
TORSDOF 22
ENDMDL
MODEL 9
USER: ADFR SOLUTION from run 58
USER: SCORE 21.477203 LL:  -4.086 LR: -18.279 RR:   0.000 FEB: -11.716
USER: RMSD 9.384862
USER: SEED 57
USER: STATUS searching
USER: GENES 24
USER: genes 0 Translation |==|  0.53291 0.48467 0.48558
USER: genes 1 Rotation |==|  0.66986 0.77320 0.87803 0.56005
USER: genes 2 Torsion [N]-CA--C-[N] |==|  0.52123
USER: genes 3 Torsion [C]-N--CA-[C] |==|  0.14057
USER: genes 4 Torsion [N]-CA--C-[N] |==|  0.14993
USER: genes 5 Torsion [C]-N--CA-[CB] |==|  0.39467
USER: genes 6 Torsion [N]-CA--C-[OXT] |==|  0.32281
USER: genes 7 Torsion [N]-CA--CB-[CG] |==|  0.82356
USER: genes 8 Torsion [CA]-CB--CG-[CD2] |==|  0.61513
USER: genes 9 Torsion [N]-CA--CB-[CG2] |==|  0.55987
USER: genes 10 Torsion [CA]-CB--CG1-[CD1] |==|  0.32121
USER: genes 11 Torsion [C]-CA--CB-[CG] |==|  0.38748
USER: genes 12 Torsion [CA]-CB--CG-[CD] |==|  0.34205
USER: genes 13 Torsion [CB]-CG--CD-[OE1] |==|  0.28723
USER: genes 14 Torsion [C]-CA--N-[C] |==|  0.57234
USER: genes 15 Torsion [N]-C--CA-[N] |==|  0.36411
USER: genes 16 Torsion [C]-CA--CB-[CG] |==|  0.06166
USER: genes 17 Torsion [CA]-CB--CG-[OD2] |==|  0.74559
USER: genes 18 Torsion [C]-CA--N-[C] |==|  0.56256
USER: genes 19 Torsion [N]-C--CA-[N] |==|  0.30126
USER: genes 20 Torsion [C]-CA--CB-[CG] |==|  0.77186
USER: genes 21 Torsion [CA]-CB--CG-[CD1] |==|  0.75261
USER: genes 22 Torsion [CE1]-CZ--OH-[HH] |==|  0.53795
USER: genes 23 Torsion [C]-CA--N-[H2] |==|  0.49861
ROOT
ATOM      1  CA  GLN I  61      19.107  17.580   6.547  1.00 12.54 LIG 0.18  C 
ENDROOT
BRANCH 1 2
ATOM      2  C   GLN I  61      19.084  16.086   6.965  1.00 13.13 LIG 0.24  C 
ATOM      3  N   ILE I  62      20.142  15.640   7.626  1.00 10.34 LIG-0.35  N 
ATOM      4 H    ILE I  62      20.819  16.123   7.844  1.00 10.34 LIG 0.16  HD
ATOM      5 O    GLN I  61      18.120  15.352   6.697  1.00 13.36 LIG-0.27  OA
BRANCH 3 6
ATOM      6  CA  ILE I  62      20.223  14.257   8.037  1.00 10.31 LIG 0.18  C 
BRANCH 6 7
ATOM      7  C   ILE I  62      19.924  13.379   6.830  1.00 12.98 LIG 0.24  C 
ATOM      8 O    ILE I  62      19.037  12.497   6.872  1.00 12.64 LIG-0.27  OA
ATOM      9  N   LEU I  63      20.673  13.618   5.751  1.00 10.93 LIG-0.34  N 
ATOM     10 H    LEU I  63      21.281  14.226   5.725  1.00 10.93 LIG 0.16  HD
BRANCH 9 11
ATOM     11  CA  LEU I  63      20.534  12.859   4.489  1.00 11.08 LIG 0.18  C 
BRANCH 11 12
ATOM     12  C   LEU I  63      21.554  11.717   4.390  1.00 13.00 LIG 0.20  C 
ATOM     13 O    LEU I  63      22.769  12.013   4.352  1.00 13.41 LIG-0.65  OA
ATOM     14 OXT  LEU I  63      21.133  10.536   4.354  1.00 16.16 LIG-0.65  OA
ENDBRANCH 11 12
BRANCH 11 15
ATOM     15  CB  LEU I  63      20.716  13.796   3.287  1.00 10.85 LIG 0.04  C 
BRANCH 15 16
ATOM     16  CG  LEU I  63      19.657  14.862   3.204  1.00 12.24 LIG-0.02  C 
ATOM     17  CD2 LEU I  63      19.245  15.008   1.732  1.00 14.99 LIG 0.01  C 
ATOM     18  CD1 LEU I  63      20.181  16.147   3.783  1.00 14.56 LIG 0.01  C 
ENDBRANCH 15 16
ENDBRANCH 11 15
ENDBRANCH 9 11
ENDBRANCH 6 7
BRANCH 6 19
ATOM     19  CB  ILE I  62      19.206  13.950   9.174  1.00 10.03 LIG 0.01  C 
ATOM     20  CG2 ILE I  62      19.640  12.714   9.944  1.00 11.01 LIG 0.01  C 
BRANCH 19 21
ATOM     21  CG1 ILE I  62      19.089  15.143  10.133  1.00 11.14 LIG 0.00  C 
ATOM     22  CD1 ILE I  62      17.742  15.799  10.162  1.00 11.65 LIG 0.01  C 
ENDBRANCH 19 21
ENDBRANCH 6 19
ENDBRANCH 3 6
ENDBRANCH 1 2
BRANCH 1 23
ATOM     23  CB  GLN I  61      19.445  18.502   7.727  1.00 14.90 LIG 0.04  C 
BRANCH 23 24
ATOM     24  CG  GLN I  61      20.365  19.654   7.456  1.00 19.56 LIG 0.10  C 
BRANCH 24 25
ATOM     25  CD  GLN I  61      19.690  20.961   7.843  1.00 24.89 LIG 0.21  C 
ATOM     26 OE1  GLN I  61      19.999  21.545   8.892  1.00 26.12 LIG-0.27  OA
ATOM     27  NE2 GLN I  61      18.784  21.447   6.980  1.00 17.87 LIG-0.37  N 
ATOM     28 22HE GLN I  61      18.391  22.194   7.144  1.00 17.87 LIG 0.16  HD
ATOM     29 21HE GLN I  61      18.597  21.013   6.262  1.00 17.87 LIG 0.16  HD
ENDBRANCH 24 25
ENDBRANCH 23 24
ENDBRANCH 1 23
BRANCH 1 30
ATOM     30  N   GLN I  61      17.855  18.069   5.981  1.00 13.65 LIG-0.35  N 
ATOM     31  C   ASP I  60      17.805  19.089   5.136  1.00 18.68 LIG 0.24  C 
ATOM     32 O    ASP I  60      18.819  19.673   4.732  1.00 17.48 LIG-0.27  OA
ATOM     33 H    GLN I  61      17.159  17.637   6.244  1.00 13.65 LIG 0.16  HD
BRANCH 31 34
ATOM     34  CA  ASP I  60      16.392  19.519   4.689  1.00 21.07 LIG 0.19  C 
BRANCH 34 35
ATOM     35  CB  ASP I  60      16.146  19.198   3.202  1.00 25.87 LIG 0.15  C 
BRANCH 35 36
ATOM     36  CG  ASP I  60      17.066  18.082   2.637  1.00 31.63 LIG 0.17  C 
ATOM     37 OD2  ASP I  60      18.147  18.438   2.109  1.00 32.10 LIG-0.65  OA
ATOM     38 OD1  ASP I  60      16.756  16.869   2.750  1.00 34.51 LIG-0.65  OA
ENDBRANCH 35 36
ENDBRANCH 34 35
BRANCH 34 39
ATOM     39  N   ASP I  60      16.384  20.984   4.883  1.00 22.02 LIG-0.34  N 
ATOM     40  C   TYR I  59      15.256  21.693   5.036  1.00 29.44 LIG 0.25  C 
ATOM     41 O    TYR I  59      14.121  21.195   5.005  1.00 29.64 LIG-0.27  OA
ATOM     42 H    ASP I  60      17.168  21.338   4.887  1.00 22.02 LIG 0.16  HD
BRANCH 40 43
ATOM     43  CA  TYR I  59      15.408  23.205   5.232  1.00 32.26 LIG 0.28  C 
BRANCH 43 44
ATOM     44  CB  TYR I  59      14.582  23.665   6.448  1.00 35.10 LIG 0.08  C 
BRANCH 44 45
ATOM     45  CG  TYR I  59      13.112  23.880   6.126  1.00 39.87 LIG-0.06  A 
ATOM     46  CD1 TYR I  59      12.651  25.124   5.677  1.00 40.08 LIG 0.01  A 
ATOM     47  CE1 TYR I  59      11.295  25.365   5.469  1.00 40.68 LIG 0.04  A 
ATOM     48  CZ  TYR I  59      10.370  24.366   5.705  1.00 42.21 LIG 0.07  A 
ATOM     49  CE2 TYR I  59      10.791  23.109   6.145  1.00 42.84 LIG 0.04  A 
ATOM     50  CD2 TYR I  59      12.168  22.871   6.352  1.00 40.94 LIG 0.01  A 
BRANCH 48 51
ATOM     51 OH   TYR I  59       9.032  24.638   5.507  1.00 42.12 LIG-0.36  OA
ATOM     52 HH   TYR I  59       8.568  24.030   5.855  1.00 42.12 LIG 0.22  HD
ENDBRANCH 48 51
ENDBRANCH 44 45
ENDBRANCH 43 44
BRANCH 43 53
ATOM     53  N   TYR I  59      14.937  23.905   3.980  1.00 33.30 LIG-0.07  N 
ATOM     54 H1   TYR I  59      14.085  23.698   3.826  1.00 33.30 LIG 0.28  HD
ATOM     55 H2   TYR I  59      15.013  24.786   4.085  1.00 33.30 LIG 0.28  HD
ATOM     56 H3   TYR I  59      15.434  23.645   3.289  1.00 33.30 LIG 0.28  HD
ENDBRANCH 43 53
ENDBRANCH 40 43
ENDBRANCH 34 39
ENDBRANCH 31 34
ENDBRANCH 1 30
TORSDOF 22
ENDMDL
MODEL 10
USER: ADFR SOLUTION from run 36
USER: SCORE 21.329724 LL:  -4.048 LR: -18.266 RR:   0.000 FEB: -11.704
USER: RMSD 9.308745
USER: SEED 35
USER: STATUS searching
USER: GENES 24
USER: genes 0 Translation |==|  0.51813 0.49159 0.48117
USER: genes 1 Rotation |==|  0.39709 0.35758 0.03189 0.50154
USER: genes 2 Torsion [N]-CA--C-[N] |==|  0.36189
USER: genes 3 Torsion [C]-N--CA-[C] |==|  0.65634
USER: genes 4 Torsion [N]-CA--C-[N] |==|  0.93998
USER: genes 5 Torsion [C]-N--CA-[CB] |==|  0.32783
USER: genes 6 Torsion [N]-CA--C-[OXT] |==|  0.58350
USER: genes 7 Torsion [N]-CA--CB-[CG] |==|  0.00846
USER: genes 8 Torsion [CA]-CB--CG-[CD2] |==|  0.72764
USER: genes 9 Torsion [N]-CA--CB-[CG2] |==|  0.42357
USER: genes 10 Torsion [CA]-CB--CG1-[CD1] |==|  0.21475
USER: genes 11 Torsion [C]-CA--CB-[CG] |==|  0.34465
USER: genes 12 Torsion [CA]-CB--CG-[CD] |==|  0.08596
USER: genes 13 Torsion [CB]-CG--CD-[OE1] |==|  0.26596
USER: genes 14 Torsion [C]-CA--N-[C] |==|  0.68565
USER: genes 15 Torsion [N]-C--CA-[N] |==|  0.35182
USER: genes 16 Torsion [C]-CA--CB-[CG] |==|  0.07327
USER: genes 17 Torsion [CA]-CB--CG-[OD2] |==|  0.26345
USER: genes 18 Torsion [C]-CA--N-[C] |==|  0.53891
USER: genes 19 Torsion [N]-C--CA-[N] |==|  0.30730
USER: genes 20 Torsion [C]-CA--CB-[CG] |==|  0.80677
USER: genes 21 Torsion [CA]-CB--CG-[CD1] |==|  0.28976
USER: genes 22 Torsion [CE1]-CZ--OH-[HH] |==|  0.19046
USER: genes 23 Torsion [C]-CA--N-[H2] |==|  0.76240
ROOT
ATOM      1  CA  GLN I  61      18.664  17.788   6.415  1.00 12.54 LIG 0.18  C 
ENDROOT
BRANCH 1 2
ATOM      2  C   GLN I  61      18.968  16.368   5.866  1.00 13.13 LIG 0.24  C 
ATOM      3  N   ILE I  62      20.192  16.163   5.403  1.00 10.34 LIG-0.35  N 
ATOM      4 H    ILE I  62      20.818  16.753   5.403  1.00 10.34 LIG 0.16  HD
ATOM      5 O    GLN I  61      18.108  15.475   5.866  1.00 13.36 LIG-0.27  OA
BRANCH 3 6
ATOM      6  CA  ILE I  62      20.563  14.881   4.850  1.00 10.31 LIG 0.18  C 
BRANCH 6 7
ATOM      7  C   ILE I  62      21.775  14.362   5.612  1.00 12.98 LIG 0.24  C 
ATOM      8 O    ILE I  62      22.057  13.143   5.632  1.00 12.64 LIG-0.27  OA
ATOM      9  N   LEU I  63      22.491  15.293   6.246  1.00 10.93 LIG-0.34  N 
ATOM     10 H    LEU I  63      22.296  16.131   6.229  1.00 10.93 LIG 0.16  HD
BRANCH 9 11
ATOM     11  CA  LEU I  63      23.695  14.978   7.046  1.00 11.08 LIG 0.18  C 
BRANCH 11 12
ATOM     12  C   LEU I  63      23.544  15.415   8.509  1.00 13.00 LIG 0.20  C 
ATOM     13 O    LEU I  63      22.398  15.415   9.009  1.00 13.41 LIG-0.65  OA
ATOM     14 OXT  LEU I  63      24.572  15.750   9.145  1.00 16.16 LIG-0.65  OA
ENDBRANCH 11 12
BRANCH 11 15
ATOM     15  CB  LEU I  63      24.925  15.669   6.443  1.00 10.85 LIG 0.04  C 
BRANCH 15 16
ATOM     16  CG  LEU I  63      24.594  16.537   5.258  1.00 12.24 LIG-0.02  C 
ATOM     17  CD2 LEU I  63      24.889  15.732   3.984  1.00 14.99 LIG 0.01  C 
ATOM     18  CD1 LEU I  63      25.385  17.814   5.326  1.00 14.56 LIG 0.01  C 
ENDBRANCH 15 16
ENDBRANCH 11 15
ENDBRANCH 9 11
ENDBRANCH 6 7
BRANCH 6 19
ATOM     19  CB  ILE I  62      20.907  15.001   3.337  1.00 10.03 LIG 0.01  C 
ATOM     20  CG2 ILE I  62      21.894  13.917   2.938  1.00 11.01 LIG 0.01  C 
BRANCH 19 21
ATOM     21  CG1 ILE I  62      19.637  14.886   2.483  1.00 11.14 LIG 0.00  C 
ATOM     22  CD1 ILE I  62      18.787  16.120   2.448  1.00 11.65 LIG 0.01  C 
ENDBRANCH 19 21
ENDBRANCH 6 19
ENDBRANCH 3 6
ENDBRANCH 1 2
BRANCH 1 23
ATOM     23  CB  GLN I  61      18.536  17.797   7.944  1.00 14.90 LIG 0.04  C 
BRANCH 23 24
ATOM     24  CG  GLN I  61      19.428  18.732   8.702  1.00 19.56 LIG 0.10  C 
BRANCH 24 25
ATOM     25  CD  GLN I  61      19.718  19.969   7.866  1.00 24.89 LIG 0.21  C 
ATOM     26 OE1  GLN I  61      19.045  21.001   8.011  1.00 26.12 LIG-0.27  OA
ATOM     27  NE2 GLN I  61      20.744  19.885   7.006  1.00 17.87 LIG-0.37  N 
ATOM     28 22HE GLN I  61      20.960  20.565   6.525  1.00 17.87 LIG 0.16  HD
ATOM     29 21HE GLN I  61      21.187  19.151   6.934  1.00 17.87 LIG 0.16  HD
ENDBRANCH 24 25
ENDBRANCH 23 24
ENDBRANCH 1 23
BRANCH 1 30
ATOM     30  N   GLN I  61      17.443  18.391   5.890  1.00 13.65 LIG-0.35  N 
ATOM     31  C   ASP I  60      17.456  19.458   5.105  1.00 18.68 LIG 0.24  C 
ATOM     32 O    ASP I  60      18.506  19.994   4.724  1.00 17.48 LIG-0.27  OA
ATOM     33 H    GLN I  61      16.722  17.992   6.136  1.00 13.65 LIG 0.16  HD
BRANCH 31 34
ATOM     34  CA  ASP I  60      16.073  20.007   4.697  1.00 21.07 LIG 0.19  C 
BRANCH 34 35
ATOM     35  CB  ASP I  60      15.841  19.887   3.179  1.00 25.87 LIG 0.15  C 
BRANCH 35 36
ATOM     36  CG  ASP I  60      16.644  18.741   2.506  1.00 31.63 LIG 0.17  C 
ATOM     37 OD2  ASP I  60      16.063  17.640   2.356  1.00 32.10 LIG-0.65  OA
ATOM     38 OD1  ASP I  60      17.814  18.930   2.086  1.00 34.51 LIG-0.65  OA
ENDBRANCH 35 36
ENDBRANCH 34 35
BRANCH 34 39
ATOM     39  N   ASP I  60      16.127  21.434   5.075  1.00 22.02 LIG-0.34  N 
ATOM     40  C   TYR I  59      15.037  22.212   5.140  1.00 29.44 LIG 0.25  C 
ATOM     41 O    TYR I  59      13.893  21.818   4.869  1.00 29.64 LIG-0.27  OA
ATOM     42 H    ASP I  60      16.920  21.718   5.247  1.00 22.02 LIG 0.16  HD
BRANCH 40 43
ATOM     43  CA  TYR I  59      15.250  23.673   5.551  1.00 32.26 LIG 0.28  C 
BRANCH 43 44
ATOM     44  CB  TYR I  59      14.304  24.040   6.709  1.00 35.10 LIG 0.08  C 
BRANCH 44 45
ATOM     45  CG  TYR I  59      12.844  24.105   6.291  1.00 39.87 LIG-0.06  A 
ATOM     46  CD1 TYR I  59      11.955  23.077   6.629  1.00 40.08 LIG 0.01  A 
ATOM     47  CE1 TYR I  59      10.639  23.075   6.172  1.00 40.68 LIG 0.04  A 
ATOM     48  CZ  TYR I  59      10.183  24.103   5.369  1.00 42.21 LIG 0.07  A 
ATOM     49  CE2 TYR I  59      11.036  25.150   5.018  1.00 42.84 LIG 0.04  A 
ATOM     50  CD2 TYR I  59      12.369  25.148   5.486  1.00 40.94 LIG 0.01  A 
BRANCH 48 51
ATOM     51 OH   TYR I  59       8.880  24.066   4.918  1.00 42.12 LIG-0.36  OA
ATOM     52 HH   TYR I  59       8.356  24.180   5.565  1.00 42.12 LIG 0.22  HD
ENDBRANCH 48 51
ENDBRANCH 44 45
ENDBRANCH 43 44
BRANCH 43 53
ATOM     53  N   TYR I  59      14.986  24.556   4.355  1.00 33.30 LIG-0.07  N 
ATOM     54 H1   TYR I  59      14.742  25.366   4.631  1.00 33.30 LIG 0.28  HD
ATOM     55 H2   TYR I  59      15.726  24.621   3.864  1.00 33.30 LIG 0.28  HD
ATOM     56 H3   TYR I  59      14.334  24.202   3.862  1.00 33.30 LIG 0.28  HD
ENDBRANCH 43 53
ENDBRANCH 40 43
ENDBRANCH 34 39
ENDBRANCH 31 34
ENDBRANCH 1 30
TORSDOF 22
ENDMDL
MODEL 11
USER: ADFR SOLUTION from run 95
USER: SCORE 21.167861 LL:  -4.387 LR: -18.246 RR:   0.000 FEB: -11.683
USER: RMSD 8.905269
USER: SEED 94
USER: STATUS 1 or 2 clusters left
USER: GENES 24
USER: genes 0 Translation |==|  0.46466 0.58722 0.46468
USER: genes 1 Rotation |==|  0.51055 0.37497 0.01611 0.51054
USER: genes 2 Torsion [N]-CA--C-[N] |==|  0.80000
USER: genes 3 Torsion [C]-N--CA-[C] |==|  0.19664
USER: genes 4 Torsion [N]-CA--C-[N] |==|  0.14568
USER: genes 5 Torsion [C]-N--CA-[CB] |==|  0.40450
USER: genes 6 Torsion [N]-CA--C-[OXT] |==|  0.51342
USER: genes 7 Torsion [N]-CA--CB-[CG] |==|  0.12679
USER: genes 8 Torsion [CA]-CB--CG-[CD2] |==|  0.65998
USER: genes 9 Torsion [N]-CA--CB-[CG2] |==|  0.51507
USER: genes 10 Torsion [CA]-CB--CG1-[CD1] |==|  0.65514
USER: genes 11 Torsion [C]-CA--CB-[CG] |==|  0.37529
USER: genes 12 Torsion [CA]-CB--CG-[CD] |==|  0.21409
USER: genes 13 Torsion [CB]-CG--CD-[OE1] |==|  0.24344
USER: genes 14 Torsion [C]-CA--N-[C] |==|  0.18571
USER: genes 15 Torsion [N]-C--CA-[N] |==|  0.87571
USER: genes 16 Torsion [C]-CA--CB-[CG] |==|  0.15901
USER: genes 17 Torsion [CA]-CB--CG-[OD2] |==|  0.56143
USER: genes 18 Torsion [C]-CA--N-[C] |==|  0.83031
USER: genes 19 Torsion [N]-C--CA-[N] |==|  0.95623
USER: genes 20 Torsion [C]-CA--CB-[CG] |==|  0.24071
USER: genes 21 Torsion [CA]-CB--CG-[CD1] |==|  0.56787
USER: genes 22 Torsion [CE1]-CZ--OH-[HH] |==|  0.78498
USER: genes 23 Torsion [C]-CA--N-[H2] |==|  0.90954
ROOT
ATOM      1  CA  GLN I  61      17.060  20.657   5.920  1.00 12.54 LIG 0.18  C 
ENDROOT
BRANCH 1 2
ATOM      2  C   GLN I  61      17.790  19.363   5.470  1.00 13.13 LIG 0.24  C 
ATOM      3  N   ILE I  62      17.075  18.248   5.477  1.00 10.34 LIG-0.35  N 
ATOM      4 H    ILE I  62      16.246  18.202   5.699  1.00 10.34 LIG 0.16  HD
ATOM      5 O    GLN I  61      18.979  19.379   5.117  1.00 13.36 LIG-0.27  OA
BRANCH 3 6
ATOM      6  CA  ILE I  62      17.674  16.989   5.097  1.00 10.31 LIG 0.18  C 
BRANCH 6 7
ATOM      7  C   ILE I  62      18.647  16.570   6.191  1.00 12.98 LIG 0.24  C 
ATOM      8 O    ILE I  62      19.830  16.263   5.925  1.00 12.64 LIG-0.27  OA
ATOM      9  N   LEU I  63      18.141  16.551   7.426  1.00 10.93 LIG-0.34  N 
ATOM     10 H    LEU I  63      17.328  16.764   7.606  1.00 10.93 LIG 0.16  HD
BRANCH 9 11
ATOM     11  CA  LEU I  63      18.932  16.160   8.614  1.00 11.08 LIG 0.18  C 
BRANCH 11 12
ATOM     12  C   LEU I  63      18.785  14.667   8.936  1.00 13.00 LIG 0.20  C 
ATOM     13 O    LEU I  63      18.128  13.955   8.144  1.00 13.41 LIG-0.65  OA
ATOM     14 OXT  LEU I  63      19.329  14.219   9.973  1.00 16.16 LIG-0.65  OA
ENDBRANCH 11 12
BRANCH 11 15
ATOM     15  CB  LEU I  63      18.491  16.979   9.834  1.00 10.85 LIG 0.04  C 
BRANCH 15 16
ATOM     16  CG  LEU I  63      16.995  17.065   9.979  1.00 12.24 LIG-0.02  C 
ATOM     17  CD2 LEU I  63      16.603  18.550   9.981  1.00 14.99 LIG 0.01  C 
ATOM     18  CD1 LEU I  63      16.564  16.357  11.233  1.00 14.56 LIG 0.01  C 
ENDBRANCH 15 16
ENDBRANCH 11 15
ENDBRANCH 9 11
ENDBRANCH 6 7
BRANCH 6 19
ATOM     19  CB  ILE I  62      18.431  17.115   3.743  1.00 10.03 LIG 0.01  C 
ATOM     20  CG2 ILE I  62      18.936  15.752   3.298  1.00 11.01 LIG 0.01  C 
BRANCH 19 21
ATOM     21  CG1 ILE I  62      17.512  17.704   2.663  1.00 11.14 LIG 0.00  C 
ATOM     22  CD1 ILE I  62      17.370  16.865   1.430  1.00 11.65 LIG 0.01  C 
ENDBRANCH 19 21
ENDBRANCH 6 19
ENDBRANCH 3 6
ENDBRANCH 1 2
BRANCH 1 23
ATOM     23  CB  GLN I  61      16.318  20.464   7.249  1.00 14.90 LIG 0.04  C 
BRANCH 23 24
ATOM     24  CG  GLN I  61      16.460  21.545   8.278  1.00 19.56 LIG 0.10  C 
BRANCH 24 25
ATOM     25  CD  GLN I  61      15.586  22.734   7.910  1.00 24.89 LIG 0.21  C 
ATOM     26 OE1  GLN I  61      14.402  22.784   8.276  1.00 26.12 LIG-0.27  OA
ATOM     27  NE2 GLN I  61      16.171  23.716   7.208  1.00 17.87 LIG-0.37  N 
ATOM     28 22HE GLN I  61      15.723  24.418   6.993  1.00 17.87 LIG 0.16  HD
ATOM     29 21HE GLN I  61      16.995  23.644   6.972  1.00 17.87 LIG 0.16  HD
ENDBRANCH 24 25
ENDBRANCH 23 24
ENDBRANCH 1 23
BRANCH 1 30
ATOM     30  N   GLN I  61      16.080  21.162   4.964  1.00 13.65 LIG-0.35  N 
ATOM     31  C   ASP I  60      14.965  20.509   4.674  1.00 18.68 LIG 0.24  C 
ATOM     32 O    ASP I  60      14.651  19.445   5.224  1.00 17.48 LIG-0.27  OA
ATOM     33 H    GLN I  61      16.293  21.917   4.611  1.00 13.65 LIG 0.16  HD
BRANCH 31 34
ATOM     34  CA  ASP I  60      14.075  21.152   3.590  1.00 21.07 LIG 0.19  C 
BRANCH 34 35
ATOM     35  CB  ASP I  60      14.688  20.993   2.185  1.00 25.87 LIG 0.15  C 
BRANCH 35 36
ATOM     36  CG  ASP I  60      14.955  19.519   1.777  1.00 31.63 LIG 0.17  C 
ATOM     37 OD2  ASP I  60      15.809  19.314   0.881  1.00 32.10 LIG-0.65  OA
ATOM     38 OD1  ASP I  60      14.370  18.570   2.357  1.00 34.51 LIG-0.65  OA
ENDBRANCH 35 36
ENDBRANCH 34 35
BRANCH 34 39
ATOM     39  N   ASP I  60      14.045  22.584   3.952  1.00 22.02 LIG-0.34  N 
ATOM     40  C   TYR I  59      13.556  23.031   5.118  1.00 29.44 LIG 0.25  C 
ATOM     41 O    TYR I  59      13.063  22.294   5.985  1.00 29.64 LIG-0.27  OA
ATOM     42 H    ASP I  60      14.370  23.103   3.347  1.00 22.02 LIG 0.16  HD
BRANCH 40 43
ATOM     43  CA  TYR I  59      13.598  24.545   5.354  1.00 32.26 LIG 0.28  C 
BRANCH 43 44
ATOM     44  CB  TYR I  59      12.187  25.143   5.200  1.00 35.10 LIG 0.08  C 
BRANCH 44 45
ATOM     45  CG  TYR I  59      11.373  25.095   6.483  1.00 39.87 LIG-0.06  A 
ATOM     46  CD1 TYR I  59       9.973  25.102   6.444  1.00 40.08 LIG 0.01  A 
ATOM     47  CE1 TYR I  59       9.213  25.155   7.611  1.00 40.68 LIG 0.04  A 
ATOM     48  CZ  TYR I  59       9.839  25.201   8.842  1.00 42.21 LIG 0.07  A 
ATOM     49  CE2 TYR I  59      11.233  25.186   8.923  1.00 42.84 LIG 0.04  A 
ATOM     50  CD2 TYR I  59      11.997  25.130   7.736  1.00 40.94 LIG 0.01  A 
BRANCH 48 51
ATOM     51 OH   TYR I  59       9.062  25.270   9.980  1.00 42.12 LIG-0.36  OA
ATOM     52 HH   TYR I  59       8.777  26.054  10.078  1.00 42.12 LIG 0.22  HD
ENDBRANCH 48 51
ENDBRANCH 44 45
ENDBRANCH 43 44
BRANCH 43 53
ATOM     53  N   TYR I  59      14.545  25.165   4.355  1.00 33.30 LIG-0.07  N 
ATOM     54 H1   TYR I  59      14.887  25.913   4.695  1.00 33.30 LIG 0.28  HD
ATOM     55 H2   TYR I  59      15.203  24.593   4.175  1.00 33.30 LIG 0.28  HD
ATOM     56 H3   TYR I  59      14.104  25.354   3.605  1.00 33.30 LIG 0.28  HD
ENDBRANCH 43 53
ENDBRANCH 40 43
ENDBRANCH 34 39
ENDBRANCH 31 34
ENDBRANCH 1 30
TORSDOF 22
ENDMDL
MODEL 12
USER: ADFR SOLUTION from run 78
USER: SCORE 22.513552 LL:  -4.524 LR: -18.201 RR:   0.000 FEB: -11.638
USER: RMSD 9.671506
USER: SEED 77
USER: STATUS 1 or 2 clusters left
USER: GENES 24
USER: genes 0 Translation |==|  0.48975 0.56281 0.47451
USER: genes 1 Rotation |==|  0.30345 0.45134 0.05360 0.59864
USER: genes 2 Torsion [N]-CA--C-[N] |==|  0.93415
USER: genes 3 Torsion [C]-N--CA-[C] |==|  0.17222
USER: genes 4 Torsion [N]-CA--C-[N] |==|  0.11163
USER: genes 5 Torsion [C]-N--CA-[CB] |==|  0.16330
USER: genes 6 Torsion [N]-CA--C-[OXT] |==|  0.96383
USER: genes 7 Torsion [N]-CA--CB-[CG] |==|  0.66471
USER: genes 8 Torsion [CA]-CB--CG-[CD2] |==|  0.35943
USER: genes 9 Torsion [N]-CA--CB-[CG2] |==|  0.51543
USER: genes 10 Torsion [CA]-CB--CG1-[CD1] |==|  0.88079
USER: genes 11 Torsion [C]-CA--CB-[CG] |==|  0.59541
USER: genes 12 Torsion [CA]-CB--CG-[CD] |==|  0.39217
USER: genes 13 Torsion [CB]-CG--CD-[OE1] |==|  0.38848
USER: genes 14 Torsion [C]-CA--N-[C] |==|  0.81648
USER: genes 15 Torsion [N]-C--CA-[N] |==|  0.41603
USER: genes 16 Torsion [C]-CA--CB-[CG] |==|  0.57243
USER: genes 17 Torsion [CA]-CB--CG-[OD2] |==|  0.27033
USER: genes 18 Torsion [C]-CA--N-[C] |==|  0.65721
USER: genes 19 Torsion [N]-C--CA-[N] |==|  0.87255
USER: genes 20 Torsion [C]-CA--CB-[CG] |==|  0.20040
USER: genes 21 Torsion [CA]-CB--CG-[CD1] |==|  0.81529
USER: genes 22 Torsion [CE1]-CZ--OH-[HH] |==|  0.71700
USER: genes 23 Torsion [C]-CA--N-[H2] |==|  0.61676
ROOT
ATOM      1  CA  GLN I  61      17.813  19.924   6.215  1.00 12.54 LIG 0.18  C 
ENDROOT
BRANCH 1 2
ATOM      2  C   GLN I  61      17.910  18.912   5.043  1.00 13.13 LIG 0.24  C 
ATOM      3  N   ILE I  62      16.839  18.167   4.814  1.00 10.34 LIG-0.35  N 
ATOM      4 H    ILE I  62      16.105  18.220   5.259  1.00 10.34 LIG 0.16  HD
ATOM      5 O    GLN I  61      18.938  18.814   4.354  1.00 13.36 LIG-0.27  OA
BRANCH 3 6
ATOM      6  CA  ILE I  62      16.842  17.180   3.759  1.00 10.31 LIG 0.18  C 
BRANCH 6 7
ATOM      7  C   ILE I  62      17.915  16.146   4.072  1.00 12.98 LIG 0.24  C 
ATOM      8 O    ILE I  62      18.642  15.672   3.170  1.00 12.64 LIG-0.27  OA
ATOM      9  N   LEU I  63      18.009  15.792   5.355  1.00 10.93 LIG-0.34  N 
ATOM     10 H    LEU I  63      17.509  16.121   5.973  1.00 10.93 LIG 0.16  HD
BRANCH 9 11
ATOM     11  CA  LEU I  63      18.985  14.794   5.847  1.00 11.08 LIG 0.18  C 
BRANCH 11 12
ATOM     12  C   LEU I  63      18.870  14.575   7.361  1.00 13.00 LIG 0.20  C 
ATOM     13 O    LEU I  63      19.460  13.592   7.861  1.00 13.41 LIG-0.65  OA
ATOM     14 OXT  LEU I  63      18.196  15.388   8.036  1.00 16.16 LIG-0.65  OA
ENDBRANCH 11 12
BRANCH 11 15
ATOM     15  CB  LEU I  63      20.413  15.245   5.514  1.00 10.85 LIG 0.04  C 
BRANCH 15 16
ATOM     16  CG  LEU I  63      21.158  14.262   4.650  1.00 12.24 LIG-0.02  C 
ATOM     17  CD2 LEU I  63      21.754  15.030   3.463  1.00 14.99 LIG 0.01  C 
ATOM     18  CD1 LEU I  63      20.229  13.162   4.215  1.00 14.56 LIG 0.01  C 
ENDBRANCH 15 16
ENDBRANCH 11 15
ENDBRANCH 9 11
ENDBRANCH 6 7
BRANCH 6 19
ATOM     19  CB  ILE I  62      17.132  17.836   2.378  1.00 10.03 LIG 0.01  C 
ATOM     20  CG2 ILE I  62      16.995  16.805   1.271  1.00 11.01 LIG 0.01  C 
BRANCH 19 21
ATOM     21  CG1 ILE I  62      16.169  19.004   2.121  1.00 11.14 LIG 0.00  C 
ATOM     22  CD1 ILE I  62      14.743  18.738   2.495  1.00 11.65 LIG 0.01  C 
ENDBRANCH 19 21
ENDBRANCH 6 19
ENDBRANCH 3 6
ENDBRANCH 1 2
BRANCH 1 23
ATOM     23  CB  GLN I  61      18.450  19.379   7.499  1.00 14.90 LIG 0.04  C 
BRANCH 23 24
ATOM     24  CG  GLN I  61      17.817  19.769   8.800  1.00 19.56 LIG 0.10  C 
BRANCH 24 25
ATOM     25  CD  GLN I  61      17.829  18.589   9.761  1.00 24.89 LIG 0.21  C 
ATOM     26 OE1  GLN I  61      18.078  18.758  10.964  1.00 26.12 LIG-0.27  OA
ATOM     27  NE2 GLN I  61      17.530  17.389   9.242  1.00 17.87 LIG-0.37  N 
ATOM     28 22HE GLN I  61      17.504  16.695   9.749  1.00 17.87 LIG 0.16  HD
ATOM     29 21HE GLN I  61      17.363  17.313   8.401  1.00 17.87 LIG 0.16  HD
ENDBRANCH 24 25
ENDBRANCH 23 24
ENDBRANCH 1 23
BRANCH 1 30
ATOM     30  N   GLN I  61      16.451  20.320   6.560  1.00 13.65 LIG-0.35  N 
ATOM     31  C   ASP I  60      15.682  21.019   5.739  1.00 18.68 LIG 0.24  C 
ATOM     32 O    ASP I  60      16.045  21.349   4.602  1.00 17.48 LIG-0.27  OA
ATOM     33 H    GLN I  61      16.198  20.060   7.340  1.00 13.65 LIG 0.16  HD
BRANCH 31 34
ATOM     34  CA  ASP I  60      14.296  21.412   6.291  1.00 21.07 LIG 0.19  C 
BRANCH 34 35
ATOM     35  CB  ASP I  60      13.223  20.368   5.925  1.00 25.87 LIG 0.15  C 
BRANCH 35 36
ATOM     36  CG  ASP I  60      11.781  20.941   5.858  1.00 31.63 LIG 0.17  C 
ATOM     37 OD2  ASP I  60      11.338  21.255   4.727  1.00 32.10 LIG-0.65  OA
ATOM     38 OD1  ASP I  60      11.075  21.037   6.892  1.00 34.51 LIG-0.65  OA
ENDBRANCH 35 36
ENDBRANCH 34 35
BRANCH 34 39
ATOM     39  N   ASP I  60      13.988  22.689   5.615  1.00 22.02 LIG-0.34  N 
ATOM     40  C   TYR I  59      13.707  23.818   6.282  1.00 29.44 LIG 0.25  C 
ATOM     41 O    TYR I  59      13.655  23.891   7.518  1.00 29.64 LIG-0.27  OA
ATOM     42 H    ASP I  60      14.006  22.641   4.756  1.00 22.02 LIG 0.16  HD
BRANCH 40 43
ATOM     43  CA  TYR I  59      13.413  25.066   5.443  1.00 32.26 LIG 0.28  C 
BRANCH 43 44
ATOM     44  CB  TYR I  59      12.004  24.971   4.829  1.00 35.10 LIG 0.08  C 
BRANCH 44 45
ATOM     45  CG  TYR I  59      10.894  25.154   5.850  1.00 39.87 LIG-0.06  A 
ATOM     46  CD1 TYR I  59      10.690  24.210   6.864  1.00 40.08 LIG 0.01  A 
ATOM     47  CE1 TYR I  59       9.619  24.312   7.750  1.00 40.68 LIG 0.04  A 
ATOM     48  CZ  TYR I  59       8.729  25.364   7.639  1.00 42.21 LIG 0.07  A 
ATOM     49  CE2 TYR I  59       8.903  26.330   6.647  1.00 42.84 LIG 0.04  A 
ATOM     50  CD2 TYR I  59       9.993  26.221   5.754  1.00 40.94 LIG 0.01  A 
BRANCH 48 51
ATOM     51 OH   TYR I  59       7.668  25.431   8.518  1.00 42.12 LIG-0.36  OA
ATOM     52 HH   TYR I  59       6.969  25.165   8.135  1.00 42.12 LIG 0.22  HD
ENDBRANCH 48 51
ENDBRANCH 44 45
ENDBRANCH 43 44
BRANCH 43 53
ATOM     53  N   TYR I  59      14.455  25.174   4.355  1.00 33.30 LIG-0.07  N 
ATOM     54 H1   TYR I  59      14.110  24.895   3.584  1.00 33.30 LIG 0.28  HD
ATOM     55 H2   TYR I  59      14.714  26.023   4.274  1.00 33.30 LIG 0.28  HD
ATOM     56 H3   TYR I  59      15.158  24.670   4.565  1.00 33.30 LIG 0.28  HD
ENDBRANCH 43 53
ENDBRANCH 40 43
ENDBRANCH 34 39
ENDBRANCH 31 34
ENDBRANCH 1 30
TORSDOF 22
ENDMDL
MODEL 13
USER: ADFR SOLUTION from run 59
USER: SCORE 21.644403 LL:  -4.281 LR: -18.203 RR:   0.000 FEB: -11.641
USER: RMSD 10.189336
USER: SEED 58
USER: STATUS no improvement in best 3 clusters for 5 generations
USER: GENES 24
USER: genes 0 Translation |==|  0.44873 0.56123 0.45597
USER: genes 1 Rotation |==|  0.15624 0.21667 0.68875 0.62621
USER: genes 2 Torsion [N]-CA--C-[N] |==|  0.26903
USER: genes 3 Torsion [C]-N--CA-[C] |==|  0.73538
USER: genes 4 Torsion [N]-CA--C-[N] |==|  0.35382
USER: genes 5 Torsion [C]-N--CA-[CB] |==|  0.27195
USER: genes 6 Torsion [N]-CA--C-[OXT] |==|  0.47853
USER: genes 7 Torsion [N]-CA--CB-[CG] |==|  0.88550
USER: genes 8 Torsion [CA]-CB--CG-[CD2] |==|  0.58017
USER: genes 9 Torsion [N]-CA--CB-[CG2] |==|  0.81483
USER: genes 10 Torsion [CA]-CB--CG1-[CD1] |==|  0.31006
USER: genes 11 Torsion [C]-CA--CB-[CG] |==|  0.35265
USER: genes 12 Torsion [CA]-CB--CG-[CD] |==|  0.28254
USER: genes 13 Torsion [CB]-CG--CD-[OE1] |==|  0.66983
USER: genes 14 Torsion [C]-CA--N-[C] |==|  0.59694
USER: genes 15 Torsion [N]-C--CA-[N] |==|  0.32778
USER: genes 16 Torsion [C]-CA--CB-[CG] |==|  0.10066
USER: genes 17 Torsion [CA]-CB--CG-[OD2] |==|  0.74202
USER: genes 18 Torsion [C]-CA--N-[C] |==|  0.84993
USER: genes 19 Torsion [N]-C--CA-[N] |==|  0.41574
USER: genes 20 Torsion [C]-CA--CB-[CG] |==|  0.33493
USER: genes 21 Torsion [CA]-CB--CG-[CD1] |==|  0.25631
USER: genes 22 Torsion [CE1]-CZ--OH-[HH] |==|  0.23494
USER: genes 23 Torsion [C]-CA--N-[H2] |==|  0.34181
ROOT
ATOM      1  CA  GLN I  61      16.582  19.877   5.659  1.00 12.54 LIG 0.18  C 
ENDROOT
BRANCH 1 2
ATOM      2  C   GLN I  61      17.935  19.118   5.707  1.00 13.13 LIG 0.24  C 
ATOM      3  N   ILE I  62      18.012  18.101   6.553  1.00 10.34 LIG-0.35  N 
ATOM      4 H    ILE I  62      17.367  17.835   7.055  1.00 10.34 LIG 0.16  HD
ATOM      5 O    GLN I  61      18.888  19.446   4.985  1.00 13.36 LIG-0.27  OA
BRANCH 3 6
ATOM      6  CA  ILE I  62      19.238  17.348   6.686  1.00 10.31 LIG 0.18  C 
BRANCH 6 7
ATOM      7  C   ILE I  62      19.149  16.124   5.784  1.00 12.98 LIG 0.24  C 
ATOM      8 O    ILE I  62      18.178  15.337   5.851  1.00 12.64 LIG-0.27  OA
ATOM      9  N   LEU I  63      20.171  15.961   4.942  1.00 10.93 LIG-0.34  N 
ATOM     10 H    LEU I  63      20.836  16.504   4.897  1.00 10.93 LIG 0.16  HD
BRANCH 9 11
ATOM     11  CA  LEU I  63      20.265  14.825   3.998  1.00 11.08 LIG 0.18  C 
BRANCH 11 12
ATOM     12  C   LEU I  63      21.698  14.289   3.883  1.00 13.00 LIG 0.20  C 
ATOM     13 O    LEU I  63      22.613  14.927   4.450  1.00 13.41 LIG-0.65  OA
ATOM     14 OXT  LEU I  63      21.895  13.236   3.232  1.00 16.16 LIG-0.65  OA
ENDBRANCH 11 12
BRANCH 11 15
ATOM     15  CB  LEU I  63      19.779  15.254   2.607  1.00 10.85 LIG 0.04  C 
BRANCH 15 16
ATOM     16  CG  LEU I  63      18.552  16.125   2.652  1.00 12.24 LIG-0.02  C 
ATOM     17  CD2 LEU I  63      17.762  15.899   1.355  1.00 14.99 LIG 0.01  C 
ATOM     18  CD1 LEU I  63      18.955  17.562   2.835  1.00 14.56 LIG 0.01  C 
ENDBRANCH 15 16
ENDBRANCH 11 15
ENDBRANCH 9 11
ENDBRANCH 6 7
BRANCH 6 19
ATOM     19  CB  ILE I  62      19.463  16.898   8.159  1.00 10.03 LIG 0.01  C 
ATOM     20  CG2 ILE I  62      19.713  18.109   9.042  1.00 11.01 LIG 0.01  C 
BRANCH 19 21
ATOM     21  CG1 ILE I  62      18.247  16.119   8.678  1.00 11.14 LIG 0.00  C 
ATOM     22  CD1 ILE I  62      18.491  14.662   8.926  1.00 11.65 LIG 0.01  C 
ENDBRANCH 19 21
ENDBRANCH 6 19
ENDBRANCH 3 6
ENDBRANCH 1 2
BRANCH 1 23
ATOM     23  CB  GLN I  61      16.207  20.294   4.231  1.00 14.90 LIG 0.04  C 
BRANCH 23 24
ATOM     24  CG  GLN I  61      14.853  19.893   3.731  1.00 19.56 LIG 0.10  C 
BRANCH 24 25
ATOM     25  CD  GLN I  61      13.902  21.078   3.793  1.00 24.89 LIG 0.21  C 
ATOM     26 OE1  GLN I  61      12.881  21.032   4.496  1.00 26.12 LIG-0.27  OA
ATOM     27  NE2 GLN I  61      14.246  22.162   3.082  1.00 17.87 LIG-0.37  N 
ATOM     28 22HE GLN I  61      13.751  22.865   3.101  1.00 17.87 LIG 0.16  HD
ATOM     29 21HE GLN I  61      14.962  22.155   2.606  1.00 17.87 LIG 0.16  HD
ENDBRANCH 24 25
ENDBRANCH 23 24
ENDBRANCH 1 23
BRANCH 1 30
ATOM     30  N   GLN I  61      16.539  21.087   6.473  1.00 13.65 LIG-0.35  N 
ATOM     31  C   ASP I  60      15.443  21.483   7.104  1.00 18.68 LIG 0.24  C 
ATOM     32 O    ASP I  60      14.390  20.833   7.086  1.00 17.48 LIG-0.27  OA
ATOM     33 H    GLN I  61      17.284  21.515   6.504  1.00 13.65 LIG 0.16  HD
BRANCH 31 34
ATOM     34  CA  ASP I  60      15.554  22.822   7.863  1.00 21.07 LIG 0.19  C 
BRANCH 34 35
ATOM     35  CB  ASP I  60      15.180  22.664   9.349  1.00 25.87 LIG 0.15  C 
BRANCH 35 36
ATOM     36  CG  ASP I  60      15.629  21.315   9.973  1.00 31.63 LIG 0.17  C 
ATOM     37 OD2  ASP I  60      14.803  20.371   9.960  1.00 32.10 LIG-0.65  OA
ATOM     38 OD1  ASP I  60      16.791  21.166  10.428  1.00 34.51 LIG-0.65  OA
ENDBRANCH 35 36
ENDBRANCH 34 35
BRANCH 34 39
ATOM     39  N   ASP I  60      14.565  23.695   7.198  1.00 22.02 LIG-0.34  N 
ATOM     40  C   TYR I  59      14.556  23.911   5.875  1.00 29.44 LIG 0.25  C 
ATOM     41 O    TYR I  59      15.385  23.423   5.093  1.00 29.64 LIG-0.27  OA
ATOM     42 H    ASP I  60      13.997  24.051   7.738  1.00 22.02 LIG 0.16  HD
BRANCH 40 43
ATOM     43  CA  TYR I  59      13.464  24.838   5.330  1.00 32.26 LIG 0.28  C 
BRANCH 43 44
ATOM     44  CB  TYR I  59      12.206  24.023   4.979  1.00 35.10 LIG 0.08  C 
BRANCH 44 45
ATOM     45  CG  TYR I  59      10.972  24.466   5.748  1.00 39.87 LIG-0.06  A 
ATOM     46  CD1 TYR I  59      10.101  25.425   5.215  1.00 40.08 LIG 0.01  A 
ATOM     47  CE1 TYR I  59       9.019  25.912   5.947  1.00 40.68 LIG 0.04  A 
ATOM     48  CZ  TYR I  59       8.786  25.448   7.227  1.00 42.21 LIG 0.07  A 
ATOM     49  CE2 TYR I  59       9.627  24.486   7.790  1.00 42.84 LIG 0.04  A 
ATOM     50  CD2 TYR I  59      10.720  23.995   7.042  1.00 40.94 LIG 0.01  A 
BRANCH 48 51
ATOM     51 OH   TYR I  59       7.717  25.959   7.935  1.00 42.12 LIG-0.36  OA
ATOM     52 HH   TYR I  59       7.019  25.540   7.730  1.00 42.12 LIG 0.22  HD
ENDBRANCH 48 51
ENDBRANCH 44 45
ENDBRANCH 43 44
BRANCH 43 53
ATOM     53  N   TYR I  59      13.995  25.542   4.104  1.00 33.30 LIG-0.07  N 
ATOM     54 H1   TYR I  59      14.814  25.244   3.922  1.00 33.30 LIG 0.28  HD
ATOM     55 H2   TYR I  59      13.459  25.378   3.412  1.00 33.30 LIG 0.28  HD
ATOM     56 H3   TYR I  59      14.025  26.419   4.254  1.00 33.30 LIG 0.28  HD
ENDBRANCH 43 53
ENDBRANCH 40 43
ENDBRANCH 34 39
ENDBRANCH 31 34
ENDBRANCH 1 30
TORSDOF 22
ENDMDL
MODEL 14
USER: ADFR SOLUTION from run 7
USER: SCORE 21.997792 LL:  -4.815 LR: -18.154 RR:   0.000 FEB: -11.591
USER: RMSD 9.889817
USER: SEED 795260
USER: STATUS no improvement in best 3 clusters for 5 generations
USER: GENES 24
USER: genes 0 Translation |==|  0.45722 0.50773 0.42174
USER: genes 1 Rotation |==|  0.75168 0.91050 0.36617 0.51548
USER: genes 2 Torsion [N]-CA--C-[N] |==|  0.12632
USER: genes 3 Torsion [C]-N--CA-[C] |==|  0.64966
USER: genes 4 Torsion [N]-CA--C-[N] |==|  0.98647
USER: genes 5 Torsion [C]-N--CA-[CB] |==|  0.33759
USER: genes 6 Torsion [N]-CA--C-[OXT] |==|  0.46940
USER: genes 7 Torsion [N]-CA--CB-[CG] |==|  0.92657
USER: genes 8 Torsion [CA]-CB--CG-[CD2] |==|  0.80156
USER: genes 9 Torsion [N]-CA--CB-[CG2] |==|  0.75368
USER: genes 10 Torsion [CA]-CB--CG1-[CD1] |==|  0.64215
USER: genes 11 Torsion [C]-CA--CB-[CG] |==|  0.47227
USER: genes 12 Torsion [CA]-CB--CG-[CD] |==|  0.31818
USER: genes 13 Torsion [CB]-CG--CD-[OE1] |==|  0.73659
USER: genes 14 Torsion [C]-CA--N-[C] |==|  0.16667
USER: genes 15 Torsion [N]-C--CA-[N] |==|  0.56027
USER: genes 16 Torsion [C]-CA--CB-[CG] |==|  0.55344
USER: genes 17 Torsion [CA]-CB--CG-[OD2] |==|  0.79095
USER: genes 18 Torsion [C]-CA--N-[C] |==|  0.59657
USER: genes 19 Torsion [N]-C--CA-[N] |==|  0.89495
USER: genes 20 Torsion [C]-CA--CB-[CG] |==|  0.21907
USER: genes 21 Torsion [CA]-CB--CG-[CD1] |==|  0.02288
USER: genes 22 Torsion [CE1]-CZ--OH-[HH] |==|  0.55542
USER: genes 23 Torsion [C]-CA--N-[H2] |==|  0.57088
ROOT
ATOM      1  CA  GLN I  61      16.837  18.272   4.632  1.00 12.54 LIG 0.18  C 
ENDROOT
BRANCH 1 2
ATOM      2  C   GLN I  61      18.174  18.570   5.361  1.00 13.13 LIG 0.24  C 
ATOM      3  N   ILE I  62      18.137  18.573   6.686  1.00 10.34 LIG-0.35  N 
ATOM      4 H    ILE I  62      17.435  18.410   7.154  1.00 10.34 LIG 0.16  HD
ATOM      5 O    GLN I  61      19.221  18.788   4.733  1.00 13.36 LIG-0.27  OA
BRANCH 3 6
ATOM      6  CA  ILE I  62      19.326  18.863   7.453  1.00 10.31 LIG 0.18  C 
BRANCH 6 7
ATOM      7  C   ILE I  62      19.550  17.725   8.440  1.00 12.98 LIG 0.24  C 
ATOM      8 O    ILE I  62      20.571  17.683   9.162  1.00 12.64 LIG-0.27  OA
ATOM      9  N   LEU I  63      18.592  16.796   8.465  1.00 10.93 LIG-0.34  N 
ATOM     10 H    LEU I  63      17.891  16.829   7.968  1.00 10.93 LIG 0.16  HD
BRANCH 9 11
ATOM     11  CA  LEU I  63      18.642  15.612   9.351  1.00 11.08 LIG 0.18  C 
BRANCH 11 12
ATOM     12  C   LEU I  63      18.701  14.301   8.555  1.00 13.00 LIG 0.20  C 
ATOM     13 O    LEU I  63      18.495  14.349   7.322  1.00 13.41 LIG-0.65  OA
ATOM     14 OXT  LEU I  63      18.957  13.237   9.168  1.00 16.16 LIG-0.65  OA
ENDBRANCH 11 12
BRANCH 11 15
ATOM     15  CB  LEU I  63      17.410  15.585  10.265  1.00 10.85 LIG 0.04  C 
BRANCH 15 16
ATOM     16  CG  LEU I  63      16.832  16.952  10.519  1.00 12.24 LIG-0.02  C 
ATOM     17  CD2 LEU I  63      17.799  17.711  11.439  1.00 14.99 LIG 0.01  C 
ATOM     18  CD1 LEU I  63      15.457  16.821  11.113  1.00 14.56 LIG 0.01  C 
ENDBRANCH 15 16
ENDBRANCH 11 15
ENDBRANCH 9 11
ENDBRANCH 6 7
BRANCH 6 19
ATOM     19  CB  ILE I  62      19.182  20.206   8.226  1.00 10.03 LIG 0.01  C 
ATOM     20  CG2 ILE I  62      19.651  21.362   7.358  1.00 11.01 LIG 0.01  C 
BRANCH 19 21
ATOM     21  CG1 ILE I  62      17.722  20.433   8.646  1.00 11.14 LIG 0.00  C 
ATOM     22  CD1 ILE I  62      17.160  21.770   8.270  1.00 11.65 LIG 0.01  C 
ENDBRANCH 19 21
ENDBRANCH 6 19
ENDBRANCH 3 6
ENDBRANCH 1 2
BRANCH 1 23
ATOM     23  CB  GLN I  61      16.912  18.602   3.136  1.00 14.90 LIG 0.04  C 
BRANCH 23 24
ATOM     24  CG  GLN I  61      15.772  18.149   2.274  1.00 19.56 LIG 0.10  C 
BRANCH 24 25
ATOM     25  CD  GLN I  61      15.029  19.353   1.717  1.00 24.89 LIG 0.21  C 
ATOM     26 OE1  GLN I  61      14.023  19.796   2.292  1.00 26.12 LIG-0.27  OA
ATOM     27  NE2 GLN I  61      15.538  19.913   0.609  1.00 17.87 LIG-0.37  N 
ATOM     28 22HE GLN I  61      15.165  20.609   0.268  1.00 17.87 LIG 0.16  HD
ATOM     29 21HE GLN I  61      16.238  19.577   0.239  1.00 17.87 LIG 0.16  HD
ENDBRANCH 24 25
ENDBRANCH 23 24
ENDBRANCH 1 23
BRANCH 1 30
ATOM     30  N   GLN I  61      15.685  18.994   5.162  1.00 13.65 LIG-0.35  N 
ATOM     31  C   ASP I  60      15.622  20.317   5.188  1.00 18.68 LIG 0.24  C 
ATOM     32 O    ASP I  60      16.517  21.037   4.724  1.00 17.48 LIG-0.27  OA
ATOM     33 H    GLN I  61      15.056  18.484   5.454  1.00 13.65 LIG 0.16  HD
BRANCH 31 34
ATOM     34  CA  ASP I  60      14.362  20.916   5.846  1.00 21.07 LIG 0.19  C 
BRANCH 34 35
ATOM     35  CB  ASP I  60      13.095  20.126   5.466  1.00 25.87 LIG 0.15  C 
BRANCH 35 36
ATOM     36  CG  ASP I  60      11.772  20.910   5.684  1.00 31.63 LIG 0.17  C 
ATOM     37 OD2  ASP I  60      11.367  21.040   6.864  1.00 32.10 LIG-0.65  OA
ATOM     38 OD1  ASP I  60      11.162  21.433   4.717  1.00 34.51 LIG-0.65  OA
ENDBRANCH 35 36
ENDBRANCH 34 35
BRANCH 34 39
ATOM     39  N   ASP I  60      14.276  22.280   5.285  1.00 22.02 LIG-0.34  N 
ATOM     40  C   TYR I  59      13.827  23.330   5.987  1.00 29.44 LIG 0.25  C 
ATOM     41 O    TYR I  59      13.421  23.252   7.155  1.00 29.64 LIG-0.27  OA
ATOM     42 H    ASP I  60      14.541  22.336   4.468  1.00 22.02 LIG 0.16  HD
BRANCH 40 43
ATOM     43  CA  TYR I  59      13.802  24.685   5.271  1.00 32.26 LIG 0.28  C 
BRANCH 43 44
ATOM     44  CB  TYR I  59      12.520  24.813   4.427  1.00 35.10 LIG 0.08  C 
BRANCH 44 45
ATOM     45  CG  TYR I  59      11.294  25.171   5.251  1.00 39.87 LIG-0.06  A 
ATOM     46  CD1 TYR I  59      11.416  25.519   6.602  1.00 40.08 LIG 0.01  A 
ATOM     47  CE1 TYR I  59      10.296  25.757   7.396  1.00 40.68 LIG 0.04  A 
ATOM     48  CZ  TYR I  59       9.029  25.652   6.853  1.00 42.21 LIG 0.07  A 
ATOM     49  CE2 TYR I  59       8.867  25.315   5.508  1.00 42.84 LIG 0.04  A 
ATOM     50  CD2 TYR I  59      10.007  25.078   4.708  1.00 40.94 LIG 0.01  A 
BRANCH 48 51
ATOM     51 OH   TYR I  59       7.937  25.877   7.667  1.00 42.12 LIG-0.36  OA
ATOM     52 HH   TYR I  59       7.255  25.529   7.322  1.00 42.12 LIG 0.22  HD
ENDBRANCH 48 51
ENDBRANCH 44 45
ENDBRANCH 43 44
BRANCH 43 53
ATOM     53  N   TYR I  59      15.025  24.790   4.391  1.00 33.30 LIG-0.07  N 
ATOM     54 H1   TYR I  59      14.858  24.409   3.604  1.00 33.30 LIG 0.28  HD
ATOM     55 H2   TYR I  59      15.229  25.648   4.267  1.00 33.30 LIG 0.28  HD
ATOM     56 H3   TYR I  59      15.709  24.376   4.782  1.00 33.30 LIG 0.28  HD
ENDBRANCH 43 53
ENDBRANCH 40 43
ENDBRANCH 34 39
ENDBRANCH 31 34
ENDBRANCH 1 30
TORSDOF 22
ENDMDL
MODEL 15
USER: ADFR SOLUTION from run 95
USER: SCORE 21.087340 LL:  -4.417 LR: -18.143 RR:   0.000 FEB: -11.580
USER: RMSD 9.126967
USER: SEED 94
USER: STATUS 1 or 2 clusters left
USER: GENES 24
USER: genes 0 Translation |==|  0.46501 0.58729 0.46369
USER: genes 1 Rotation |==|  0.51284 0.37275 0.01677 0.51156
USER: genes 2 Torsion [N]-CA--C-[N] |==|  0.80004
USER: genes 3 Torsion [C]-N--CA-[C] |==|  0.19674
USER: genes 4 Torsion [N]-CA--C-[N] |==|  0.14557
USER: genes 5 Torsion [C]-N--CA-[CB] |==|  0.40411
USER: genes 6 Torsion [N]-CA--C-[OXT] |==|  0.51333
USER: genes 7 Torsion [N]-CA--CB-[CG] |==|  0.12645
USER: genes 8 Torsion [CA]-CB--CG-[CD2] |==|  0.65963
USER: genes 9 Torsion [N]-CA--CB-[CG2] |==|  0.51500
USER: genes 10 Torsion [CA]-CB--CG1-[CD1] |==|  0.65579
USER: genes 11 Torsion [C]-CA--CB-[CG] |==|  0.36837
USER: genes 12 Torsion [CA]-CB--CG-[CD] |==|  0.21404
USER: genes 13 Torsion [CB]-CG--CD-[OE1] |==|  0.24409
USER: genes 14 Torsion [C]-CA--N-[C] |==|  0.18496
USER: genes 15 Torsion [N]-C--CA-[N] |==|  0.87587
USER: genes 16 Torsion [C]-CA--CB-[CG] |==|  0.15989
USER: genes 17 Torsion [CA]-CB--CG-[OD2] |==|  0.56129
USER: genes 18 Torsion [C]-CA--N-[C] |==|  0.84713
USER: genes 19 Torsion [N]-C--CA-[N] |==|  0.93161
USER: genes 20 Torsion [C]-CA--CB-[CG] |==|  0.90840
USER: genes 21 Torsion [CA]-CB--CG-[CD1] |==|  0.74514
USER: genes 22 Torsion [CE1]-CZ--OH-[HH] |==|  0.78226
USER: genes 23 Torsion [C]-CA--N-[H2] |==|  0.90918
ROOT
ATOM      1  CA  GLN I  61      17.070  20.659   5.891  1.00 12.54 LIG 0.18  C 
ENDROOT
BRANCH 1 2
ATOM      2  C   GLN I  61      17.812  19.366   5.458  1.00 13.13 LIG 0.24  C 
ATOM      3  N   ILE I  62      17.104  18.246   5.470  1.00 10.34 LIG-0.35  N 
ATOM      4 H    ILE I  62      16.273  18.197   5.685  1.00 10.34 LIG 0.16  HD
ATOM      5 O    GLN I  61      19.004  19.386   5.115  1.00 13.36 LIG-0.27  OA
BRANCH 3 6
ATOM      6  CA  ILE I  62      17.713  16.988   5.105  1.00 10.31 LIG 0.18  C 
BRANCH 6 7
ATOM      7  C   ILE I  62      18.678  16.584   6.211  1.00 12.98 LIG 0.24  C 
ATOM      8 O    ILE I  62      19.866  16.281   5.959  1.00 12.64 LIG-0.27  OA
ATOM      9  N   LEU I  63      18.163  16.574   7.443  1.00 10.93 LIG-0.34  N 
ATOM     10 H    LEU I  63      17.346  16.784   7.613  1.00 10.93 LIG 0.16  HD
BRANCH 9 11
ATOM     11  CA  LEU I  63      18.945  16.197   8.641  1.00 11.08 LIG 0.18  C 
BRANCH 11 12
ATOM     12  C   LEU I  63      18.801  14.707   8.977  1.00 13.00 LIG 0.20  C 
ATOM     13 O    LEU I  63      18.152  13.985   8.188  1.00 13.41 LIG-0.65  OA
ATOM     14 OXT  LEU I  63      19.338  14.272  10.023  1.00 16.16 LIG-0.65  OA
ENDBRANCH 11 12
BRANCH 11 15
ATOM     15  CB  LEU I  63      18.491  17.028   9.849  1.00 10.85 LIG 0.04  C 
BRANCH 15 16
ATOM     16  CG  LEU I  63      16.994  17.113   9.979  1.00 12.24 LIG-0.02  C 
ATOM     17  CD2 LEU I  63      16.600  18.597   9.965  1.00 14.99 LIG 0.01  C 
ATOM     18  CD1 LEU I  63      16.552  16.414  11.235  1.00 14.56 LIG 0.01  C 
ENDBRANCH 15 16
ENDBRANCH 11 15
ENDBRANCH 9 11
ENDBRANCH 6 7
BRANCH 6 19
ATOM     19  CB  ILE I  62      18.481  17.106   3.757  1.00 10.03 LIG 0.01  C 
ATOM     20  CG2 ILE I  62      18.999  15.743   3.329  1.00 11.01 LIG 0.01  C 
BRANCH 19 21
ATOM     21  CG1 ILE I  62      17.569  17.680   2.664  1.00 11.14 LIG 0.00  C 
ATOM     22  CD1 ILE I  62      17.438  16.826   1.440  1.00 11.65 LIG 0.01  C 
ENDBRANCH 19 21
ENDBRANCH 6 19
ENDBRANCH 3 6
ENDBRANCH 1 2
BRANCH 1 23
ATOM     23  CB  GLN I  61      16.319  20.474   7.215  1.00 14.90 LIG 0.04  C 
BRANCH 23 24
ATOM     24  CG  GLN I  61      16.492  21.537   8.257  1.00 19.56 LIG 0.10  C 
BRANCH 24 25
ATOM     25  CD  GLN I  61      15.657  22.757   7.901  1.00 24.89 LIG 0.21  C 
ATOM     26 OE1  GLN I  61      14.475  22.843   8.268  1.00 26.12 LIG-0.27  OA
ATOM     27  NE2 GLN I  61      16.274  23.727   7.208  1.00 17.87 LIG-0.37  N 
ATOM     28 22HE GLN I  61      15.850  24.445   7.001  1.00 17.87 LIG 0.16  HD
ATOM     29 21HE GLN I  61      17.096  23.630   6.972  1.00 17.87 LIG 0.16  HD
ENDBRANCH 24 25
ENDBRANCH 23 24
ENDBRANCH 1 23
BRANCH 1 30
ATOM     30  N   GLN I  61      16.095  21.149   4.922  1.00 13.65 LIG-0.35  N 
ATOM     31  C   ASP I  60      14.989  20.484   4.625  1.00 18.68 LIG 0.24  C 
ATOM     32 O    ASP I  60      14.680  19.420   5.178  1.00 17.48 LIG-0.27  OA
ATOM     33 H    GLN I  61      16.305  21.904   4.566  1.00 13.65 LIG 0.16  HD
BRANCH 31 34
ATOM     34  CA  ASP I  60      14.104  21.113   3.528  1.00 21.07 LIG 0.19  C 
BRANCH 34 35
ATOM     35  CB  ASP I  60      14.731  20.949   2.131  1.00 25.87 LIG 0.15  C 
BRANCH 35 36
ATOM     36  CG  ASP I  60      15.007  19.474   1.731  1.00 31.63 LIG 0.17  C 
ATOM     37 OD2  ASP I  60      15.870  19.269   0.844  1.00 32.10 LIG-0.65  OA
ATOM     38 OD1  ASP I  60      14.420  18.526   2.311  1.00 34.51 LIG-0.65  OA
ENDBRANCH 35 36
ENDBRANCH 34 35
BRANCH 34 39
ATOM     39  N   ASP I  60      14.059  22.547   3.881  1.00 22.02 LIG-0.34  N 
ATOM     40  C   TYR I  59      13.665  22.990   5.084  1.00 29.44 LIG 0.25  C 
ATOM     41 O    TYR I  59      13.280  22.246   5.998  1.00 29.64 LIG-0.27  OA
ATOM     42 H    ASP I  60      14.307  23.069   3.244  1.00 22.02 LIG 0.16  HD
BRANCH 40 43
ATOM     43  CA  TYR I  59      13.676  24.507   5.304  1.00 32.26 LIG 0.28  C 
BRANCH 43 44
ATOM     44  CB  TYR I  59      12.271  25.086   5.058  1.00 35.10 LIG 0.08  C 
BRANCH 44 45
ATOM     45  CG  TYR I  59      11.496  24.343   3.982  1.00 39.87 LIG-0.06  A 
ATOM     46  CD1 TYR I  59      11.554  24.754   2.645  1.00 40.08 LIG 0.01  A 
ATOM     47  CE1 TYR I  59      10.776  24.144   1.662  1.00 40.68 LIG 0.04  A 
ATOM     48  CZ  TYR I  59       9.926  23.108   1.997  1.00 42.21 LIG 0.07  A 
ATOM     49  CE2 TYR I  59       9.847  22.663   3.318  1.00 42.84 LIG 0.04  A 
ATOM     50  CD2 TYR I  59      10.640  23.284   4.309  1.00 40.94 LIG 0.01  A 
BRANCH 48 51
ATOM     51 OH   TYR I  59       9.156  22.534   1.007  1.00 42.12 LIG-0.36  OA
ATOM     52 HH   TYR I  59       8.496  23.028   0.843  1.00 42.12 LIG 0.22  HD
ENDBRANCH 48 51
ENDBRANCH 44 45
ENDBRANCH 43 44
BRANCH 43 53
ATOM     53  N   TYR I  59      14.675  25.126   4.355  1.00 33.30 LIG-0.07  N 
ATOM     54 H1   TYR I  59      14.987  25.882   4.704  1.00 33.30 LIG 0.28  HD
ATOM     55 H2   TYR I  59      15.349  24.560   4.223  1.00 33.30 LIG 0.28  HD
ATOM     56 H3   TYR I  59      14.278  25.299   3.577  1.00 33.30 LIG 0.28  HD
ENDBRANCH 43 53
ENDBRANCH 40 43
ENDBRANCH 34 39
ENDBRANCH 31 34
ENDBRANCH 1 30
TORSDOF 22
ENDMDL
MODEL 16
USER: ADFR SOLUTION from run 106
USER: SCORE 21.121986 LL:  -4.610 LR: -18.067 RR:   0.000 FEB: -11.504
USER: RMSD 8.570071
USER: SEED 105
USER: STATUS searching
USER: GENES 24
USER: genes 0 Translation |==|  0.51347 0.49733 0.47729
USER: genes 1 Rotation |==|  0.38514 0.38204 0.02793 0.50674
USER: genes 2 Torsion [N]-CA--C-[N] |==|  0.29090
USER: genes 3 Torsion [C]-N--CA-[C] |==|  0.65086
USER: genes 4 Torsion [N]-CA--C-[N] |==|  0.72128
USER: genes 5 Torsion [C]-N--CA-[CB] |==|  0.85535
USER: genes 6 Torsion [N]-CA--C-[OXT] |==|  0.68393
USER: genes 7 Torsion [N]-CA--CB-[CG] |==|  0.66225
USER: genes 8 Torsion [CA]-CB--CG-[CD2] |==|  0.40466
USER: genes 9 Torsion [N]-CA--CB-[CG2] |==|  0.53207
USER: genes 10 Torsion [CA]-CB--CG1-[CD1] |==|  0.26923
USER: genes 11 Torsion [C]-CA--CB-[CG] |==|  0.38368
USER: genes 12 Torsion [CA]-CB--CG-[CD] |==|  0.01655
USER: genes 13 Torsion [CB]-CG--CD-[OE1] |==|  0.30023
USER: genes 14 Torsion [C]-CA--N-[C] |==|  0.75988
USER: genes 15 Torsion [N]-C--CA-[N] |==|  0.29137
USER: genes 16 Torsion [C]-CA--CB-[CG] |==|  0.24044
USER: genes 17 Torsion [CA]-CB--CG-[OD2] |==|  0.45353
USER: genes 18 Torsion [C]-CA--N-[C] |==|  0.52898
USER: genes 19 Torsion [N]-C--CA-[N] |==|  0.35618
USER: genes 20 Torsion [C]-CA--CB-[CG] |==|  0.15417
USER: genes 21 Torsion [CA]-CB--CG-[CD1] |==|  0.24890
USER: genes 22 Torsion [CE1]-CZ--OH-[HH] |==|  0.03948
USER: genes 23 Torsion [C]-CA--N-[H2] |==|  0.69026
ROOT
ATOM      1  CA  GLN I  61      18.524  17.960   6.299  1.00 12.54 LIG 0.18  C 
ENDROOT
BRANCH 1 2
ATOM      2  C   GLN I  61      18.778  16.600   5.596  1.00 13.13 LIG 0.24  C 
ATOM      3  N   ILE I  62      19.698  16.589   4.643  1.00 10.34 LIG-0.35  N 
ATOM      4 H    ILE I  62      20.161  17.273   4.406  1.00 10.34 LIG 0.16  HD
ATOM      5 O    GLN I  61      18.154  15.577   5.918  1.00 13.36 LIG-0.27  OA
BRANCH 3 6
ATOM      6  CA  ILE I  62      19.989  15.375   3.916  1.00 10.31 LIG 0.18  C 
BRANCH 6 7
ATOM      7  C   ILE I  62      21.484  15.104   4.013  1.00 12.98 LIG 0.24  C 
ATOM      8 O    ILE I  62      21.985  14.589   5.038  1.00 12.64 LIG-0.27  OA
ATOM      9  N   LEU I  63      22.199  15.457   2.943  1.00 10.93 LIG-0.34  N 
ATOM     10 H    LEU I  63      21.851  15.809   2.239  1.00 10.93 LIG 0.16  HD
BRANCH 9 11
ATOM     11  CA  LEU I  63      23.665  15.281   2.859  1.00 11.08 LIG 0.18  C 
BRANCH 11 12
ATOM     12  C   LEU I  63      24.062  13.801   2.769  1.00 13.00 LIG 0.20  C 
ATOM     13 O    LEU I  63      23.736  13.165   1.742  1.00 13.41 LIG-0.65  OA
ATOM     14 OXT  LEU I  63      24.697  13.290   3.721  1.00 16.16 LIG-0.65  OA
ENDBRANCH 11 12
BRANCH 11 15
ATOM     15  CB  LEU I  63      24.343  15.905   4.086  1.00 10.85 LIG 0.04  C 
BRANCH 15 16
ATOM     16  CG  LEU I  63      25.343  16.973   3.730  1.00 12.24 LIG-0.02  C 
ATOM     17  CD2 LEU I  63      25.301  18.047   4.826  1.00 14.99 LIG 0.01  C 
ATOM     18  CD1 LEU I  63      25.030  17.529   2.369  1.00 14.56 LIG 0.01  C 
ENDBRANCH 15 16
ENDBRANCH 11 15
ENDBRANCH 9 11
ENDBRANCH 6 7
BRANCH 6 19
ATOM     19  CB  ILE I  62      19.576  15.504   2.421  1.00 10.03 LIG 0.01  C 
ATOM     20  CG2 ILE I  62      19.622  14.143   1.747  1.00 11.01 LIG 0.01  C 
BRANCH 19 21
ATOM     21  CG1 ILE I  62      18.164  16.095   2.299  1.00 11.14 LIG 0.00  C 
ATOM     22  CD1 ILE I  62      18.119  17.571   2.049  1.00 11.65 LIG 0.01  C 
ENDBRANCH 19 21
ENDBRANCH 6 19
ENDBRANCH 3 6
ENDBRANCH 1 2
BRANCH 1 23
ATOM     23  CB  GLN I  61      18.468  17.817   7.825  1.00 14.90 LIG 0.04  C 
BRANCH 23 24
ATOM     24  CG  GLN I  61      19.160  18.869   8.639  1.00 19.56 LIG 0.10  C 
BRANCH 24 25
ATOM     25  CD  GLN I  61      19.671  19.977   7.733  1.00 24.89 LIG 0.21  C 
ATOM     26 OE1  GLN I  61      19.126  21.091   7.728  1.00 26.12 LIG-0.27  OA
ATOM     27  NE2 GLN I  61      20.745  19.690   6.980  1.00 17.87 LIG-0.37  N 
ATOM     28 22HE GLN I  61      21.083  20.291   6.466  1.00 17.87 LIG 0.16  HD
ATOM     29 21HE GLN I  61      21.095  18.905   7.011  1.00 17.87 LIG 0.16  HD
ENDBRANCH 24 25
ENDBRANCH 23 24
ENDBRANCH 1 23
BRANCH 1 30
ATOM     30  N   GLN I  61      17.291  18.628   5.896  1.00 13.65 LIG-0.35  N 
ATOM     31  C   ASP I  60      17.224  19.425   4.841  1.00 18.68 LIG 0.24  C 
ATOM     32 O    ASP I  60      18.190  19.627   4.093  1.00 17.48 LIG-0.27  OA
ATOM     33 H    GLN I  61      16.618  18.456   6.404  1.00 13.65 LIG 0.16  HD
BRANCH 31 34
ATOM     34  CA  ASP I  60      15.859  20.104   4.599  1.00 21.07 LIG 0.19  C 
BRANCH 34 35
ATOM     35  CB  ASP I  60      15.470  20.081   3.108  1.00 25.87 LIG 0.15  C 
BRANCH 35 36
ATOM     36  CG  ASP I  60      14.732  18.787   2.668  1.00 31.63 LIG 0.17  C 
ATOM     37 OD2  ASP I  60      14.108  18.822   1.581  1.00 32.10 LIG-0.65  OA
ATOM     38 OD1  ASP I  60      14.801  17.737   3.355  1.00 34.51 LIG-0.65  OA
ENDBRANCH 35 36
ENDBRANCH 34 35
BRANCH 34 39
ATOM     39  N   ASP I  60      16.071  21.501   5.030  1.00 22.02 LIG-0.34  N 
ATOM     40  C   TYR I  59      15.069  22.380   5.172  1.00 29.44 LIG 0.25  C 
ATOM     41 O    TYR I  59      13.882  22.114   4.933  1.00 29.64 LIG-0.27  OA
ATOM     42 H    ASP I  60      16.895  21.697   5.179  1.00 22.02 LIG 0.16  HD
BRANCH 40 43
ATOM     43  CA  TYR I  59      15.444  23.794   5.630  1.00 32.26 LIG 0.28  C 
BRANCH 43 44
ATOM     44  CB  TYR I  59      14.931  24.039   7.061  1.00 35.10 LIG 0.08  C 
BRANCH 44 45
ATOM     45  CG  TYR I  59      15.421  23.001   8.058  1.00 39.87 LIG-0.06  A 
ATOM     46  CD1 TYR I  59      16.623  23.187   8.753  1.00 40.08 LIG 0.01  A 
ATOM     47  CE1 TYR I  59      17.135  22.204   9.598  1.00 40.68 LIG 0.04  A 
ATOM     48  CZ  TYR I  59      16.452  21.014   9.767  1.00 42.21 LIG 0.07  A 
ATOM     49  CE2 TYR I  59      15.246  20.795   9.098  1.00 42.84 LIG 0.04  A 
ATOM     50  CD2 TYR I  59      14.732  21.797   8.245  1.00 40.94 LIG 0.01  A 
BRANCH 48 51
ATOM     51 OH   TYR I  59      16.991  20.052  10.596  1.00 42.12 LIG-0.36  OA
ATOM     52 HH   TYR I  59      17.601  20.393  11.062  1.00 42.12 LIG 0.22  HD
ENDBRANCH 48 51
ENDBRANCH 44 45
ENDBRANCH 43 44
BRANCH 43 53
ATOM     53  N   TYR I  59      14.834  24.790   4.674  1.00 33.30 LIG-0.07  N 
ATOM     54 H1   TYR I  59      14.379  25.402   5.133  1.00 33.30 LIG 0.28  HD
ATOM     55 H2   TYR I  59      15.480  25.189   4.208  1.00 33.30 LIG 0.28  HD
ATOM     56 H3   TYR I  59      14.284  24.368   4.115  1.00 33.30 LIG 0.28  HD
ENDBRANCH 43 53
ENDBRANCH 40 43
ENDBRANCH 34 39
ENDBRANCH 31 34
ENDBRANCH 1 30
TORSDOF 22
ENDMDL
MODEL 17
USER: ADFR SOLUTION from run 25
USER: SCORE 21.275649 LL:  -4.007 LR: -17.885 RR:   0.000 FEB: -11.322
USER: RMSD 10.355473
USER: SEED 24
USER: STATUS no improvement in best 4 clusters for 5 generations
USER: GENES 24
USER: genes 0 Translation |==|  0.45325 0.55591 0.45537
USER: genes 1 Rotation |==|  0.15168 0.22613 0.69640 0.62287
USER: genes 2 Torsion [N]-CA--C-[N] |==|  0.29903
USER: genes 3 Torsion [C]-N--CA-[C] |==|  0.72490
USER: genes 4 Torsion [N]-CA--C-[N] |==|  0.38055
USER: genes 5 Torsion [C]-N--CA-[CB] |==|  0.45993
USER: genes 6 Torsion [N]-CA--C-[OXT] |==|  0.58405
USER: genes 7 Torsion [N]-CA--CB-[CG] |==|  0.07902
USER: genes 8 Torsion [CA]-CB--CG-[CD2] |==|  0.54538
USER: genes 9 Torsion [N]-CA--CB-[CG2] |==|  0.01843
USER: genes 10 Torsion [CA]-CB--CG1-[CD1] |==|  0.69392
USER: genes 11 Torsion [C]-CA--CB-[CG] |==|  0.18747
USER: genes 12 Torsion [CA]-CB--CG-[CD] |==|  0.78888
USER: genes 13 Torsion [CB]-CG--CD-[OE1] |==|  0.84018
USER: genes 14 Torsion [C]-CA--N-[C] |==|  0.60182
USER: genes 15 Torsion [N]-C--CA-[N] |==|  0.33350
USER: genes 16 Torsion [C]-CA--CB-[CG] |==|  0.83797
USER: genes 17 Torsion [CA]-CB--CG-[OD2] |==|  0.84143
USER: genes 18 Torsion [C]-CA--N-[C] |==|  0.82216
USER: genes 19 Torsion [N]-C--CA-[N] |==|  0.45183
USER: genes 20 Torsion [C]-CA--CB-[CG] |==|  0.33211
USER: genes 21 Torsion [CA]-CB--CG-[CD1] |==|  0.76661
USER: genes 22 Torsion [CE1]-CZ--OH-[HH] |==|  0.67331
USER: genes 23 Torsion [C]-CA--N-[H2] |==|  0.37422
ROOT
ATOM      1  CA  GLN I  61      16.717  19.717   5.641  1.00 12.54 LIG 0.18  C 
ENDROOT
BRANCH 1 2
ATOM      2  C   GLN I  61      18.053  18.929   5.702  1.00 13.13 LIG 0.24  C 
ATOM      3  N   ILE I  62      18.051  17.819   6.426  1.00 10.34 LIG-0.35  N 
ATOM      4 H    ILE I  62      17.366  17.510   6.842  1.00 10.34 LIG 0.16  HD
ATOM      5 O    GLN I  61      19.064  19.318   5.099  1.00 13.36 LIG-0.27  OA
BRANCH 3 6
ATOM      6  CA  ILE I  62      19.253  17.029   6.562  1.00 10.31 LIG 0.18  C 
BRANCH 6 7
ATOM      7  C   ILE I  62      19.177  15.866   5.583  1.00 12.98 LIG 0.24  C 
ATOM      8 O    ILE I  62      18.121  15.210   5.434  1.00 12.64 LIG-0.27  OA
ATOM      9  N   LEU I  63      20.304  15.606   4.917  1.00 10.93 LIG-0.34  N 
ATOM     10 H    LEU I  63      21.028  16.060   5.020  1.00 10.93 LIG 0.16  HD
BRANCH 9 11
ATOM     11  CA  LEU I  63      20.424  14.508   3.932  1.00 11.08 LIG 0.18  C 
BRANCH 11 12
ATOM     12  C   LEU I  63      20.463  13.131   4.608  1.00 13.00 LIG 0.20  C 
ATOM     13 O    LEU I  63      19.848  12.987   5.688  1.00 13.41 LIG-0.65  OA
ATOM     14 OXT  LEU I  63      21.104  12.207   4.054  1.00 16.16 LIG-0.65  OA
ENDBRANCH 11 12
BRANCH 11 15
ATOM     15  CB  LEU I  63      21.696  14.688   3.093  1.00 10.85 LIG 0.04  C 
BRANCH 15 16
ATOM     16  CG  LEU I  63      22.791  15.416   3.827  1.00 12.24 LIG-0.02  C 
ATOM     17  CD2 LEU I  63      23.820  15.893   2.793  1.00 14.99 LIG 0.01  C 
ATOM     18  CD1 LEU I  63      23.396  14.511   4.864  1.00 14.56 LIG 0.01  C 
ENDBRANCH 15 16
ENDBRANCH 11 15
ENDBRANCH 9 11
ENDBRANCH 6 7
BRANCH 6 19
ATOM     19  CB  ILE I  62      19.405  16.484   8.012  1.00 10.03 LIG 0.01  C 
ATOM     20  CG2 ILE I  62      18.161  16.805   8.823  1.00 11.01 LIG 0.01  C 
BRANCH 19 21
ATOM     21  CG1 ILE I  62      19.637  14.967   7.997  1.00 11.14 LIG 0.00  C 
ATOM     22  CD1 ILE I  62      18.495  14.149   8.519  1.00 11.65 LIG 0.01  C 
ENDBRANCH 19 21
ENDBRANCH 6 19
ENDBRANCH 3 6
ENDBRANCH 1 2
BRANCH 1 23
ATOM     23  CB  GLN I  61      16.329  20.078   4.201  1.00 14.90 LIG 0.04  C 
BRANCH 23 24
ATOM     24  CG  GLN I  61      15.956  18.951   3.287  1.00 19.56 LIG 0.10  C 
BRANCH 24 25
ATOM     25  CD  GLN I  61      17.205  18.210   2.837  1.00 24.89 LIG 0.21  C 
ATOM     26 OE1  GLN I  61      18.118  18.810   2.251  1.00 26.12 LIG-0.27  OA
ATOM     27  NE2 GLN I  61      17.268  16.903   3.135  1.00 17.87 LIG-0.37  N 
ATOM     28 22HE GLN I  61      17.964  16.445   2.920  1.00 17.87 LIG 0.16  HD
ATOM     29 21HE GLN I  61      16.614  16.522   3.543  1.00 17.87 LIG 0.16  HD
ENDBRANCH 24 25
ENDBRANCH 23 24
ENDBRANCH 1 23
BRANCH 1 30
ATOM     30  N   GLN I  61      16.716  20.964   6.399  1.00 13.65 LIG-0.35  N 
ATOM     31  C   ASP I  60      15.650  21.397   7.057  1.00 18.68 LIG 0.24  C 
ATOM     32 O    ASP I  60      14.593  20.755   7.113  1.00 17.48 LIG-0.27  OA
ATOM     33 H    GLN I  61      17.465  21.387   6.379  1.00 13.65 LIG 0.16  HD
BRANCH 31 34
ATOM     34  CA  ASP I  60      15.801  22.768   7.748  1.00 21.07 LIG 0.19  C 
BRANCH 34 35
ATOM     35  CB  ASP I  60      15.539  22.671   9.263  1.00 25.87 LIG 0.15  C 
BRANCH 35 36
ATOM     36  CG  ASP I  60      14.131  22.125   9.626  1.00 31.63 LIG 0.17  C 
ATOM     37 OD2  ASP I  60      13.139  22.741   9.170  1.00 32.10 LIG-0.65  OA
ATOM     38 OD1  ASP I  60      14.000  21.079  10.311  1.00 34.51 LIG-0.65  OA
ENDBRANCH 35 36
ENDBRANCH 34 35
BRANCH 34 39
ATOM     39  N   ASP I  60      14.756  23.604   7.121  1.00 22.02 LIG-0.34  N 
ATOM     40  C   TYR I  59      14.760  23.921   5.819  1.00 29.44 LIG 0.25  C 
ATOM     41 O    TYR I  59      15.647  23.568   5.028  1.00 29.64 LIG-0.27  OA
ATOM     42 H    ASP I  60      14.147  23.866   7.669  1.00 22.02 LIG 0.16  HD
BRANCH 40 43
ATOM     43  CA  TYR I  59      13.605  24.792   5.312  1.00 32.26 LIG 0.28  C 
BRANCH 43 44
ATOM     44  CB  TYR I  59      12.327  23.945   5.170  1.00 35.10 LIG 0.08  C 
BRANCH 44 45
ATOM     45  CG  TYR I  59      11.183  24.436   6.042  1.00 39.87 LIG-0.06  A 
ATOM     46  CD1 TYR I  59      11.089  24.049   7.384  1.00 40.08 LIG 0.01  A 
ATOM     47  CE1 TYR I  59       9.997  24.411   8.171  1.00 40.68 LIG 0.04  A 
ATOM     48  CZ  TYR I  59       8.977  25.170   7.630  1.00 42.21 LIG 0.07  A 
ATOM     49  CE2 TYR I  59       9.039  25.583   6.297  1.00 42.84 LIG 0.04  A 
ATOM     50  CD2 TYR I  59      10.150  25.214   5.506  1.00 40.94 LIG 0.01  A 
BRANCH 48 51
ATOM     51 OH   TYR I  59       7.900  25.500   8.427  1.00 42.12 LIG-0.36  OA
ATOM     52 HH   TYR I  59       7.200  25.163   8.106  1.00 42.12 LIG 0.22  HD
ENDBRANCH 48 51
ENDBRANCH 44 45
ENDBRANCH 43 44
BRANCH 43 53
ATOM     53  N   TYR I  59      13.995  25.386   3.980  1.00 33.30 LIG-0.07  N 
ATOM     54 H1   TYR I  59      14.705  24.955   3.659  1.00 33.30 LIG 0.28  HD
ATOM     55 H2   TYR I  59      13.317  25.306   3.409  1.00 33.30 LIG 0.28  HD
ATOM     56 H3   TYR I  59      14.194  26.247   4.085  1.00 33.30 LIG 0.28  HD
ENDBRANCH 43 53
ENDBRANCH 40 43
ENDBRANCH 34 39
ENDBRANCH 31 34
ENDBRANCH 1 30
TORSDOF 22
ENDMDL
MODEL 18
USER: ADFR SOLUTION from run 41
USER: SCORE 19.969465 LL:  -3.841 LR: -17.849 RR:   0.000 FEB: -11.286
USER: RMSD 10.654486
USER: SEED 40
USER: STATUS no improvement in best 1 clusters for 5 generations
USER: GENES 24
USER: genes 0 Translation |==|  0.42419 0.53391 0.43481
USER: genes 1 Rotation |==|  0.21829 0.14640 0.68417 0.60810
USER: genes 2 Torsion [N]-CA--C-[N] |==|  0.20474
USER: genes 3 Torsion [C]-N--CA-[C] |==|  0.63889
USER: genes 4 Torsion [N]-CA--C-[N] |==|  0.49426
USER: genes 5 Torsion [C]-N--CA-[CB] |==|  0.27090
USER: genes 6 Torsion [N]-CA--C-[OXT] |==|  0.08474
USER: genes 7 Torsion [N]-CA--CB-[CG] |==|  0.97362
USER: genes 8 Torsion [CA]-CB--CG-[CD2] |==|  0.73418
USER: genes 9 Torsion [N]-CA--CB-[CG2] |==|  0.81284
USER: genes 10 Torsion [CA]-CB--CG1-[CD1] |==|  0.35221
USER: genes 11 Torsion [C]-CA--CB-[CG] |==|  0.21535
USER: genes 12 Torsion [CA]-CB--CG-[CD] |==|  0.80278
USER: genes 13 Torsion [CB]-CG--CD-[OE1] |==|  0.29760
USER: genes 14 Torsion [C]-CA--N-[C] |==|  0.19932
USER: genes 15 Torsion [N]-C--CA-[N] |==|  0.61298
USER: genes 16 Torsion [C]-CA--CB-[CG] |==|  0.30947
USER: genes 17 Torsion [CA]-CB--CG-[OD2] |==|  0.80460
USER: genes 18 Torsion [C]-CA--N-[C] |==|  0.16999
USER: genes 19 Torsion [N]-C--CA-[N] |==|  0.11700
USER: genes 20 Torsion [C]-CA--CB-[CG] |==|  0.27916
USER: genes 21 Torsion [CA]-CB--CG-[CD1] |==|  0.50432
USER: genes 22 Torsion [CE1]-CZ--OH-[HH] |==|  0.41529
USER: genes 23 Torsion [C]-CA--N-[H2] |==|  0.52639
ROOT
ATOM      1  CA  GLN I  61      15.846  19.057   5.024  1.00 12.54 LIG 0.18  C 
ENDROOT
BRANCH 1 2
ATOM      2  C   GLN I  61      17.379  18.817   5.052  1.00 13.13 LIG 0.24  C 
ATOM      3  N   ILE I  62      17.853  18.140   6.088  1.00 10.34 LIG-0.35  N 
ATOM      4 H    ILE I  62      17.370  17.822   6.723  1.00 10.34 LIG 0.16  HD
ATOM      5 O    GLN I  61      18.117  19.234   4.146  1.00 13.36 LIG-0.27  OA
BRANCH 3 6
ATOM      6  CA  ILE I  62      19.270  17.887   6.214  1.00 10.31 LIG 0.18  C 
BRANCH 6 7
ATOM      7  C   ILE I  62      19.469  16.402   6.488  1.00 12.98 LIG 0.24  C 
ATOM      8 O    ILE I  62      18.493  15.628   6.614  1.00 12.64 LIG-0.27  OA
ATOM      9  N   LEU I  63      20.740  16.006   6.586  1.00 10.93 LIG-0.34  N 
ATOM     10 H    LEU I  63      21.408  16.540   6.497  1.00 10.93 LIG 0.16  HD
BRANCH 9 11
ATOM     11  CA  LEU I  63      21.128  14.605   6.860  1.00 11.08 LIG 0.18  C 
BRANCH 11 12
ATOM     12  C   LEU I  63      22.330  14.517   7.809  1.00 13.00 LIG 0.20  C 
ATOM     13 O    LEU I  63      23.110  13.546   7.685  1.00 13.41 LIG-0.65  OA
ATOM     14 OXT  LEU I  63      22.487  15.418   8.667  1.00 16.16 LIG-0.65  OA
ENDBRANCH 11 12
BRANCH 11 15
ATOM     15  CB  LEU I  63      21.474  13.887   5.548  1.00 10.85 LIG 0.04  C 
BRANCH 15 16
ATOM     16  CG  LEU I  63      21.121  14.690   4.324  1.00 12.24 LIG-0.02  C 
ATOM     17  CD2 LEU I  63      19.739  14.229   3.838  1.00 14.99 LIG 0.01  C 
ATOM     18  CD1 LEU I  63      22.186  14.516   3.277  1.00 14.56 LIG 0.01  C 
ENDBRANCH 15 16
ENDBRANCH 11 15
ENDBRANCH 9 11
ENDBRANCH 6 7
BRANCH 6 19
ATOM     19  CB  ILE I  62      19.888  18.721   7.372  1.00 10.03 LIG 0.01  C 
ATOM     20  CG2 ILE I  62      19.854  20.200   7.027  1.00 11.01 LIG 0.01  C 
BRANCH 19 21
ATOM     21  CG1 ILE I  62      19.124  18.477   8.682  1.00 11.14 LIG 0.00  C 
ATOM     22  CD1 ILE I  62      19.979  18.067   9.842  1.00 11.65 LIG 0.01  C 
ENDBRANCH 19 21
ENDBRANCH 6 19
ENDBRANCH 3 6
ENDBRANCH 1 2
BRANCH 1 23
ATOM     23  CB  GLN I  61      15.359  19.503   3.640  1.00 14.90 LIG 0.04  C 
BRANCH 23 24
ATOM     24  CG  GLN I  61      15.222  18.446   2.586  1.00 19.56 LIG 0.10  C 
BRANCH 24 25
ATOM     25  CD  GLN I  61      16.596  17.970   2.143  1.00 24.89 LIG 0.21  C 
ATOM     26 OE1  GLN I  61      17.017  16.854   2.481  1.00 26.12 LIG-0.27  OA
ATOM     27  NE2 GLN I  61      17.295  18.802   1.355  1.00 17.87 LIG-0.37  N 
ATOM     28 22HE GLN I  61      18.069  18.570   1.062  1.00 17.87 LIG 0.16  HD
ATOM     29 21HE GLN I  61      16.968  19.569   1.143  1.00 17.87 LIG 0.16  HD
ENDBRANCH 24 25
ENDBRANCH 23 24
ENDBRANCH 1 23
BRANCH 1 30
ATOM     30  N   GLN I  61      15.373  20.058   5.976  1.00 13.65 LIG-0.35  N 
ATOM     31  C   ASP I  60      15.602  21.353   5.820  1.00 18.68 LIG 0.24  C 
ATOM     32 O    ASP I  60      16.194  21.814   4.835  1.00 17.48 LIG-0.27  OA
ATOM     33 H    GLN I  61      14.936  19.730   6.640  1.00 13.65 LIG 0.16  HD
BRANCH 31 34
ATOM     34  CA  ASP I  60      15.091  22.264   6.956  1.00 21.07 LIG 0.19  C 
BRANCH 34 35
ATOM     35  CB  ASP I  60      13.976  21.582   7.772  1.00 25.87 LIG 0.15  C 
BRANCH 35 36
ATOM     36  CG  ASP I  60      14.390  21.214   9.223  1.00 31.63 LIG 0.17  C 
ATOM     37 OD2  ASP I  60      15.216  20.281   9.367  1.00 32.10 LIG-0.65  OA
ATOM     38 OD1  ASP I  60      13.948  21.861  10.206  1.00 34.51 LIG-0.65  OA
ENDBRANCH 35 36
ENDBRANCH 34 35
BRANCH 34 39
ATOM     39  N   ASP I  60      14.535  23.439   6.253  1.00 22.02 LIG-0.34  N 
ATOM     40  C   TYR I  59      13.515  23.355   5.388  1.00 29.44 LIG 0.25  C 
ATOM     41 O    TYR I  59      12.961  22.289   5.079  1.00 29.64 LIG-0.27  OA
ATOM     42 H    ASP I  60      14.928  24.179   6.450  1.00 22.02 LIG 0.16  HD
BRANCH 40 43
ATOM     43  CA  TYR I  59      13.044  24.662   4.739  1.00 32.26 LIG 0.28  C 
BRANCH 43 44
ATOM     44  CB  TYR I  59      12.186  24.356   3.498  1.00 35.10 LIG 0.08  C 
BRANCH 44 45
ATOM     45  CG  TYR I  59      10.693  24.469   3.759  1.00 39.87 LIG-0.06  A 
ATOM     46  CD1 TYR I  59       9.766  24.193   2.747  1.00 40.08 LIG 0.01  A 
ATOM     47  CE1 TYR I  59       8.399  24.384   2.941  1.00 40.68 LIG 0.04  A 
ATOM     48  CZ  TYR I  59       7.931  24.854   4.154  1.00 42.21 LIG 0.07  A 
ATOM     49  CE2 TYR I  59       8.824  25.133   5.190  1.00 42.84 LIG 0.04  A 
ATOM     50  CD2 TYR I  59      10.208  24.934   4.988  1.00 40.94 LIG 0.01  A 
BRANCH 48 51
ATOM     51 OH   TYR I  59       6.575  25.050   4.312  1.00 42.12 LIG-0.36  OA
ATOM     52 HH   TYR I  59       6.365  24.923   5.116  1.00 42.12 LIG 0.22  HD
ENDBRANCH 48 51
ENDBRANCH 44 45
ENDBRANCH 43 44
BRANCH 43 53
ATOM     53  N   TYR I  59      14.257  25.475   4.355  1.00 33.30 LIG-0.07  N 
ATOM     54 H1   TYR I  59      14.679  25.078   3.680  1.00 33.30 LIG 0.28  HD
ATOM     55 H2   TYR I  59      14.001  26.291   4.105  1.00 33.30 LIG 0.28  HD
ATOM     56 H3   TYR I  59      14.806  25.538   5.053  1.00 33.30 LIG 0.28  HD
ENDBRANCH 43 53
ENDBRANCH 40 43
ENDBRANCH 34 39
ENDBRANCH 31 34
ENDBRANCH 1 30
TORSDOF 22
ENDMDL
MODEL 19
USER: ADFR SOLUTION from run 149
USER: SCORE 20.624108 LL:  -4.191 LR: -17.742 RR:   0.000 FEB: -11.179
USER: RMSD 10.228695
USER: SEED 148
USER: STATUS no improvement in best 6 clusters for 5 generations
USER: GENES 24
USER: genes 0 Translation |==|  0.45683 0.50536 0.41708
USER: genes 1 Rotation |==|  0.76027 0.91052 0.38307 0.50754
USER: genes 2 Torsion [N]-CA--C-[N] |==|  0.15000
USER: genes 3 Torsion [C]-N--CA-[C] |==|  0.68145
USER: genes 4 Torsion [N]-CA--C-[N] |==|  0.25528
USER: genes 5 Torsion [C]-N--CA-[CB] |==|  0.39013
USER: genes 6 Torsion [N]-CA--C-[OXT] |==|  0.17844
USER: genes 7 Torsion [N]-CA--CB-[CG] |==|  0.87145
USER: genes 8 Torsion [CA]-CB--CG-[CD2] |==|  0.86633
USER: genes 9 Torsion [N]-CA--CB-[CG2] |==|  0.75544
USER: genes 10 Torsion [CA]-CB--CG1-[CD1] |==|  0.68700
USER: genes 11 Torsion [C]-CA--CB-[CG] |==|  0.24626
USER: genes 12 Torsion [CA]-CB--CG-[CD] |==|  0.92149
USER: genes 13 Torsion [CB]-CG--CD-[OE1] |==|  0.18509
USER: genes 14 Torsion [C]-CA--N-[C] |==|  0.16397
USER: genes 15 Torsion [N]-C--CA-[N] |==|  0.57055
USER: genes 16 Torsion [C]-CA--CB-[CG] |==|  0.55336
USER: genes 17 Torsion [CA]-CB--CG-[OD2] |==|  0.29296
USER: genes 18 Torsion [C]-CA--N-[C] |==|  0.59600
USER: genes 19 Torsion [N]-C--CA-[N] |==|  0.00804
USER: genes 20 Torsion [C]-CA--CB-[CG] |==|  0.77602
USER: genes 21 Torsion [CA]-CB--CG-[CD1] |==|  0.32900
USER: genes 22 Torsion [CE1]-CZ--OH-[HH] |==|  0.68661
USER: genes 23 Torsion [C]-CA--N-[H2] |==|  0.44294
ROOT
ATOM      1  CA  GLN I  61      16.825  18.201   4.492  1.00 12.54 LIG 0.18  C 
ENDROOT
BRANCH 1 2
ATOM      2  C   GLN I  61      18.158  18.398   5.263  1.00 13.13 LIG 0.24  C 
ATOM      3  N   ILE I  62      18.135  18.136   6.561  1.00 10.34 LIG-0.35  N 
ATOM      4 H    ILE I  62      17.444  17.857   6.989  1.00 10.34 LIG 0.16  HD
ATOM      5 O    GLN I  61      19.189  18.777   4.687  1.00 13.36 LIG-0.27  OA
BRANCH 3 6
ATOM      6  CA  ILE I  62      19.320  18.313   7.368  1.00 10.31 LIG 0.18  C 
BRANCH 6 7
ATOM      7  C   ILE I  62      19.760  16.948   7.879  1.00 12.98 LIG 0.24  C 
ATOM      8 O    ILE I  62      19.315  16.482   8.952  1.00 12.64 LIG-0.27  OA
ATOM      9  N   LEU I  63      20.644  16.308   7.109  1.00 10.93 LIG-0.34  N 
ATOM     10 H    LEU I  63      20.946  16.630   6.372  1.00 10.93 LIG 0.16  HD
BRANCH 9 11
ATOM     11  CA  LEU I  63      21.194  14.977   7.449  1.00 11.08 LIG 0.18  C 
BRANCH 11 12
ATOM     12  C   LEU I  63      22.573  15.078   8.114  1.00 13.00 LIG 0.20  C 
ATOM     13 O    LEU I  63      23.555  14.593   7.510  1.00 13.41 LIG-0.65  OA
ATOM     14 OXT  LEU I  63      22.663  15.642   9.230  1.00 16.16 LIG-0.65  OA
ENDBRANCH 11 12
BRANCH 11 15
ATOM     15  CB  LEU I  63      21.311  14.116   6.185  1.00 10.85 LIG 0.04  C 
BRANCH 15 16
ATOM     16  CG  LEU I  63      20.077  14.159   5.323  1.00 12.24 LIG-0.02  C 
ATOM     17  CD2 LEU I  63      18.858  13.929   6.229  1.00 14.99 LIG 0.01  C 
ATOM     18  CD1 LEU I  63      20.183  13.132   4.231  1.00 14.56 LIG 0.01  C 
ENDBRANCH 15 16
ENDBRANCH 11 15
ENDBRANCH 9 11
ENDBRANCH 6 7
BRANCH 6 19
ATOM     19  CB  ILE I  62      19.044  19.260   8.571  1.00 10.03 LIG 0.01  C 
ATOM     20  CG2 ILE I  62      19.280  20.704   8.164  1.00 11.01 LIG 0.01  C 
BRANCH 19 21
ATOM     21  CG1 ILE I  62      17.603  19.091   9.072  1.00 11.14 LIG 0.00  C 
ATOM     22  CD1 ILE I  62      16.717  20.280   8.855  1.00 11.65 LIG 0.01  C 
ENDBRANCH 19 21
ENDBRANCH 6 19
ENDBRANCH 3 6
ENDBRANCH 1 2
BRANCH 1 23
ATOM     23  CB  GLN I  61      16.939  18.636   3.026  1.00 14.90 LIG 0.04  C 
BRANCH 23 24
ATOM     24  CG  GLN I  61      17.396  17.606   2.037  1.00 19.56 LIG 0.10  C 
BRANCH 24 25
ATOM     25  CD  GLN I  61      18.291  16.586   2.724  1.00 24.89 LIG 0.21  C 
ATOM     26 OE1  GLN I  61      17.830  15.820   3.584  1.00 26.12 LIG-0.27  OA
ATOM     27  NE2 GLN I  61      19.572  16.546   2.327  1.00 17.87 LIG-0.37  N 
ATOM     28 22HE GLN I  61      20.112  15.972   2.671  1.00 17.87 LIG 0.16  HD
ATOM     29 21HE GLN I  61      19.854  17.095   1.727  1.00 17.87 LIG 0.16  HD
ENDBRANCH 24 25
ENDBRANCH 23 24
ENDBRANCH 1 23
BRANCH 1 30
ATOM     30  N   GLN I  61      15.688  18.923   5.055  1.00 13.65 LIG-0.35  N 
ATOM     31  C   ASP I  60      15.678  20.240   5.193  1.00 18.68 LIG 0.24  C 
ATOM     32 O    ASP I  60      16.613  20.959   4.814  1.00 17.48 LIG-0.27  OA
ATOM     33 H    GLN I  61      15.032  18.417   5.287  1.00 13.65 LIG 0.16  HD
BRANCH 31 34
ATOM     34  CA  ASP I  60      14.425  20.833   5.871  1.00 21.07 LIG 0.19  C 
BRANCH 34 35
ATOM     35  CB  ASP I  60      13.148  20.073   5.464  1.00 25.87 LIG 0.15  C 
BRANCH 35 36
ATOM     36  CG  ASP I  60      11.836  20.866   5.708  1.00 31.63 LIG 0.17  C 
ATOM     37 OD2  ASP I  60      11.258  21.348   4.705  1.00 32.10 LIG-0.65  OA
ATOM     38 OD1  ASP I  60      11.351  20.976   6.863  1.00 34.51 LIG-0.65  OA
ENDBRANCH 35 36
ENDBRANCH 34 35
BRANCH 34 39
ATOM     39  N   ASP I  60      14.358  22.216   5.355  1.00 22.02 LIG-0.34  N 
ATOM     40  C   TYR I  59      13.918  23.247   6.090  1.00 29.44 LIG 0.25  C 
ATOM     41 O    TYR I  59      13.505  23.135   7.254  1.00 29.64 LIG-0.27  OA
ATOM     42 H    ASP I  60      14.626  22.297   4.542  1.00 22.02 LIG 0.16  HD
BRANCH 40 43
ATOM     43  CA  TYR I  59      13.911  24.626   5.420  1.00 32.26 LIG 0.28  C 
BRANCH 43 44
ATOM     44  CB  TYR I  59      12.497  25.232   5.473  1.00 35.10 LIG 0.08  C 
BRANCH 44 45
ATOM     45  CG  TYR I  59      11.574  24.692   4.392  1.00 39.87 LIG-0.06  A 
ATOM     46  CD1 TYR I  59      10.407  23.995   4.729  1.00 40.08 LIG 0.01  A 
ATOM     47  CE1 TYR I  59       9.601  23.412   3.753  1.00 40.68 LIG 0.04  A 
ATOM     48  CZ  TYR I  59       9.945  23.516   2.418  1.00 42.21 LIG 0.07  A 
ATOM     49  CE2 TYR I  59      11.096  24.211   2.042  1.00 42.84 LIG 0.04  A 
ATOM     50  CD2 TYR I  59      11.907  24.802   3.036  1.00 40.94 LIG 0.01  A 
BRANCH 48 51
ATOM     51 OH   TYR I  59       9.137  22.915   1.475  1.00 42.12 LIG-0.36  OA
ATOM     52 HH   TYR I  59       9.553  22.280   1.114  1.00 42.12 LIG 0.22  HD
ENDBRANCH 48 51
ENDBRANCH 44 45
ENDBRANCH 43 44
BRANCH 43 53
ATOM     53  N   TYR I  59      14.364  24.469   3.988  1.00 33.30 LIG-0.07  N 
ATOM     54 H1   TYR I  59      14.017  23.725   3.646  1.00 33.30 LIG 0.28  HD
ATOM     55 H2   TYR I  59      14.091  25.170   3.512  1.00 33.30 LIG 0.28  HD
ATOM     56 H3   TYR I  59      15.253  24.422   3.961  1.00 33.30 LIG 0.28  HD
ENDBRANCH 43 53
ENDBRANCH 40 43
ENDBRANCH 34 39
ENDBRANCH 31 34
ENDBRANCH 1 30
TORSDOF 22
ENDMDL
MODEL 20
USER: ADFR SOLUTION from run 6
USER: SCORE 21.691956 LL:  -4.296 LR: -17.725 RR:   0.000 FEB: -11.162
USER: RMSD 9.551655
USER: SEED 295086
USER: STATUS no improvement in best 3 clusters for 5 generations
USER: GENES 24
USER: genes 0 Translation |==|  0.49610 0.53040 0.47617
USER: genes 1 Rotation |==|  0.26403 0.33688 0.09365 0.55095
USER: genes 2 Torsion [N]-CA--C-[N] |==|  0.30681
USER: genes 3 Torsion [C]-N--CA-[C] |==|  0.83777
USER: genes 4 Torsion [N]-CA--C-[N] |==|  0.89917
USER: genes 5 Torsion [C]-N--CA-[CB] |==|  0.35057
USER: genes 6 Torsion [N]-CA--C-[OXT] |==|  0.53945
USER: genes 7 Torsion [N]-CA--CB-[CG] |==|  0.90880
USER: genes 8 Torsion [CA]-CB--CG-[CD2] |==|  0.77701
USER: genes 9 Torsion [N]-CA--CB-[CG2] |==|  0.43281
USER: genes 10 Torsion [CA]-CB--CG1-[CD1] |==|  0.18252
USER: genes 11 Torsion [C]-CA--CB-[CG] |==|  0.62363
USER: genes 12 Torsion [CA]-CB--CG-[CD] |==|  0.73247
USER: genes 13 Torsion [CB]-CG--CD-[OE1] |==|  0.69366
USER: genes 14 Torsion [C]-CA--N-[C] |==|  0.70629
USER: genes 15 Torsion [N]-C--CA-[N] |==|  0.41754
USER: genes 16 Torsion [C]-CA--CB-[CG] |==|  0.54730
USER: genes 17 Torsion [CA]-CB--CG-[OD2] |==|  0.29274
USER: genes 18 Torsion [C]-CA--N-[C] |==|  0.61758
USER: genes 19 Torsion [N]-C--CA-[N] |==|  0.94302
USER: genes 20 Torsion [C]-CA--CB-[CG] |==|  0.15632
USER: genes 21 Torsion [CA]-CB--CG-[CD1] |==|  0.71085
USER: genes 22 Torsion [CE1]-CZ--OH-[HH] |==|  0.81154
USER: genes 23 Torsion [C]-CA--N-[H2] |==|  0.58624
ROOT
ATOM      1  CA  GLN I  61      18.003  18.952   6.265  1.00 12.54 LIG 0.18  C 
ENDROOT
BRANCH 1 2
ATOM      2  C   GLN I  61      18.052  17.482   5.769  1.00 13.13 LIG 0.24  C 
ATOM      3  N   ILE I  62      18.443  17.294   4.517  1.00 10.34 LIG-0.35  N 
ATOM      4 H    ILE I  62      18.679  17.923   3.980  1.00 10.34 LIG 0.16  HD
ATOM      5 O    GLN I  61      17.745  16.537   6.510  1.00 13.36 LIG-0.27  OA
BRANCH 3 6
ATOM      6  CA  ILE I  62      18.498  15.963   3.957  1.00 10.31 LIG 0.18  C 
BRANCH 6 7
ATOM      7  C   ILE I  62      19.440  15.123   4.809  1.00 12.98 LIG 0.24  C 
ATOM      8 O    ILE I  62      19.209  13.913   5.031  1.00 12.64 LIG-0.27  OA
ATOM      9  N   LEU I  63      20.502  15.771   5.294  1.00 10.93 LIG-0.34  N 
ATOM     10 H    LEU I  63      20.658  16.602   5.138  1.00 10.93 LIG 0.16  HD
BRANCH 9 11
ATOM     11  CA  LEU I  63      21.519  15.122   6.150  1.00 11.08 LIG 0.18  C 
BRANCH 11 12
ATOM     12  C   LEU I  63      21.496  15.669   7.584  1.00 13.00 LIG 0.20  C 
ATOM     13 O    LEU I  63      20.506  16.345   7.941  1.00 13.41 LIG-0.65  OA
ATOM     14 OXT  LEU I  63      22.464  15.415   8.340  1.00 16.16 LIG-0.65  OA
ENDBRANCH 11 12
BRANCH 11 15
ATOM     15  CB  LEU I  63      22.919  15.333   5.558  1.00 10.85 LIG 0.04  C 
BRANCH 15 16
ATOM     16  CG  LEU I  63      22.924  15.382   4.054  1.00 12.24 LIG-0.02  C 
ATOM     17  CD2 LEU I  63      22.876  13.938   3.532  1.00 14.99 LIG 0.01  C 
ATOM     18  CD1 LEU I  63      24.138  16.126   3.572  1.00 14.56 LIG 0.01  C 
ENDBRANCH 15 16
ENDBRANCH 11 15
ENDBRANCH 9 11
ENDBRANCH 6 7
BRANCH 6 19
ATOM     19  CB  ILE I  62      19.009  15.994   2.487  1.00 10.03 LIG 0.01  C 
ATOM     20  CG2 ILE I  62      19.619  14.652   2.118  1.00 11.01 LIG 0.01  C 
BRANCH 19 21
ATOM     21  CG1 ILE I  62      17.860  16.324   1.523  1.00 11.14 LIG 0.00  C 
ATOM     22  CD1 ILE I  62      17.288  17.701   1.673  1.00 11.65 LIG 0.01  C 
ENDBRANCH 19 21
ENDBRANCH 6 19
ENDBRANCH 3 6
ENDBRANCH 1 2
BRANCH 1 23
ATOM     23  CB  GLN I  61      18.774  19.141   7.578  1.00 14.90 LIG 0.04  C 
BRANCH 23 24
ATOM     24  CG  GLN I  61      18.117  19.960   8.648  1.00 19.56 LIG 0.10  C 
BRANCH 24 25
ATOM     25  CD  GLN I  61      18.619  21.394   8.589  1.00 24.89 LIG 0.21  C 
ATOM     26 OE1  GLN I  61      19.351  21.844   9.484  1.00 26.12 LIG-0.27  OA
ATOM     27  NE2 GLN I  61      18.256  22.114   7.517  1.00 17.87 LIG-0.37  N 
ATOM     28 22HE GLN I  61      18.532  22.924   7.428  1.00 17.87 LIG 0.16  HD
ATOM     29 21HE GLN I  61      17.747  21.766   6.917  1.00 17.87 LIG 0.16  HD
ENDBRANCH 24 25
ENDBRANCH 23 24
ENDBRANCH 1 23
BRANCH 1 30
ATOM     30  N   GLN I  61      16.658  19.469   6.492  1.00 13.65 LIG-0.35  N 
ATOM     31  C   ASP I  60      16.077  20.331   5.670  1.00 18.68 LIG 0.24  C 
ATOM     32 O    ASP I  60      16.615  20.726   4.627  1.00 17.48 LIG-0.27  OA
ATOM     33 H    GLN I  61      16.281  19.165   7.203  1.00 13.65 LIG 0.16  HD
BRANCH 31 34
ATOM     34  CA  ASP I  60      14.680  20.827   6.098  1.00 21.07 LIG 0.19  C 
BRANCH 34 35
ATOM     35  CB  ASP I  60      13.561  19.949   5.506  1.00 25.87 LIG 0.15  C 
BRANCH 35 36
ATOM     36  CG  ASP I  60      12.156  20.610   5.539  1.00 31.63 LIG 0.17  C 
ATOM     37 OD2  ASP I  60      11.696  21.042   4.455  1.00 32.10 LIG-0.65  OA
ATOM     38 OD1  ASP I  60      11.491  20.664   6.604  1.00 34.51 LIG-0.65  OA
ENDBRANCH 35 36
ENDBRANCH 34 35
BRANCH 34 39
ATOM     39  N   ASP I  60      14.591  22.187   5.526  1.00 22.02 LIG-0.34  N 
ATOM     40  C   TYR I  59      14.080  23.228   6.198  1.00 29.44 LIG 0.25  C 
ATOM     41 O    TYR I  59      13.614  23.145   7.345  1.00 29.64 LIG-0.27  OA
ATOM     42 H    ASP I  60      14.897  22.247   4.724  1.00 22.02 LIG 0.16  HD
BRANCH 40 43
ATOM     43  CA  TYR I  59      14.059  24.580   5.475  1.00 32.26 LIG 0.28  C 
BRANCH 43 44
ATOM     44  CB  TYR I  59      12.651  24.860   4.919  1.00 35.10 LIG 0.08  C 
BRANCH 44 45
ATOM     45  CG  TYR I  59      11.568  24.819   5.984  1.00 39.87 LIG-0.06  A 
ATOM     46  CD1 TYR I  59      10.706  23.721   6.088  1.00 40.08 LIG 0.01  A 
ATOM     47  CE1 TYR I  59       9.648  23.710   6.996  1.00 40.68 LIG 0.04  A 
ATOM     48  CZ  TYR I  59       9.432  24.798   7.820  1.00 42.21 LIG 0.07  A 
ATOM     49  CE2 TYR I  59      10.276  25.909   7.752  1.00 42.84 LIG 0.04  A 
ATOM     50  CD2 TYR I  59      11.348  25.912   6.832  1.00 40.94 LIG 0.01  A 
BRANCH 48 51
ATOM     51 OH   TYR I  59       8.367  24.767   8.697  1.00 42.12 LIG-0.36  OA
ATOM     52 HH   TYR I  59       7.647  24.790   8.264  1.00 42.12 LIG 0.22  HD
ENDBRANCH 48 51
ENDBRANCH 44 45
ENDBRANCH 43 44
BRANCH 43 53
ATOM     53  N   TYR I  59      15.071  24.544   4.355  1.00 33.30 LIG-0.07  N 
ATOM     54 H1   TYR I  59      14.678  24.263   3.608  1.00 33.30 LIG 0.28  HD
ATOM     55 H2   TYR I  59      15.401  25.361   4.227  1.00 33.30 LIG 0.28  HD
ATOM     56 H3   TYR I  59      15.733  23.988   4.569  1.00 33.30 LIG 0.28  HD
ENDBRANCH 43 53
ENDBRANCH 40 43
ENDBRANCH 34 39
ENDBRANCH 31 34
ENDBRANCH 1 30
TORSDOF 22
ENDMDL
MODEL 21
USER: ADFR SOLUTION from run 78
USER: SCORE 21.683771 LL:  -4.277 LR: -17.668 RR:   0.000 FEB: -11.106
USER: RMSD 9.733805
USER: SEED 77
USER: STATUS 1 or 2 clusters left
USER: GENES 24
USER: genes 0 Translation |==|  0.48990 0.56294 0.48089
USER: genes 1 Rotation |==|  0.31100 0.46564 0.04778 0.59269
USER: genes 2 Torsion [N]-CA--C-[N] |==|  0.91597
USER: genes 3 Torsion [C]-N--CA-[C] |==|  0.18333
USER: genes 4 Torsion [N]-CA--C-[N] |==|  0.10222
USER: genes 5 Torsion [C]-N--CA-[CB] |==|  0.17870
USER: genes 6 Torsion [N]-CA--C-[OXT] |==|  0.96263
USER: genes 7 Torsion [N]-CA--CB-[CG] |==|  0.67522
USER: genes 8 Torsion [CA]-CB--CG-[CD2] |==|  0.33074
USER: genes 9 Torsion [N]-CA--CB-[CG2] |==|  0.51375
USER: genes 10 Torsion [CA]-CB--CG1-[CD1] |==|  0.89642
USER: genes 11 Torsion [C]-CA--CB-[CG] |==|  0.58888
USER: genes 12 Torsion [CA]-CB--CG-[CD] |==|  0.37977
USER: genes 13 Torsion [CB]-CG--CD-[OE1] |==|  0.42163
USER: genes 14 Torsion [C]-CA--N-[C] |==|  0.82404
USER: genes 15 Torsion [N]-C--CA-[N] |==|  0.43156
USER: genes 16 Torsion [C]-CA--CB-[CG] |==|  0.58286
USER: genes 17 Torsion [CA]-CB--CG-[OD2] |==|  0.29290
USER: genes 18 Torsion [C]-CA--N-[C] |==|  0.63128
USER: genes 19 Torsion [N]-C--CA-[N] |==|  0.95481
USER: genes 20 Torsion [C]-CA--CB-[CG] |==|  0.76365
USER: genes 21 Torsion [CA]-CB--CG-[CD1] |==|  0.82427
USER: genes 22 Torsion [CE1]-CZ--OH-[HH] |==|  0.70270
USER: genes 23 Torsion [C]-CA--N-[H2] |==|  0.45407
ROOT
ATOM      1  CA  GLN I  61      17.817  19.928   6.407  1.00 12.54 LIG 0.18  C 
ENDROOT
BRANCH 1 2
ATOM      2  C   GLN I  61      17.902  18.972   5.187  1.00 13.13 LIG 0.24  C 
ATOM      3  N   ILE I  62      16.854  18.191   4.974  1.00 10.34 LIG-0.35  N 
ATOM      4 H    ILE I  62      16.140  18.193   5.453  1.00 10.34 LIG 0.16  HD
ATOM      5 O    GLN I  61      18.900  18.948   4.451  1.00 13.36 LIG-0.27  OA
BRANCH 3 6
ATOM      6  CA  ILE I  62      16.849  17.250   3.877  1.00 10.31 LIG 0.18  C 
BRANCH 6 7
ATOM      7  C   ILE I  62      17.912  16.194   4.146  1.00 12.98 LIG 0.24  C 
ATOM      8 O    ILE I  62      18.593  15.707   3.216  1.00 12.64 LIG-0.27  OA
ATOM      9  N   LEU I  63      18.049  15.835   5.425  1.00 10.93 LIG-0.34  N 
ATOM     10 H    LEU I  63      17.581  16.174   6.062  1.00 10.93 LIG 0.16  HD
BRANCH 9 11
ATOM     11  CA  LEU I  63      19.022  14.817   5.876  1.00 11.08 LIG 0.18  C 
BRANCH 11 12
ATOM     12  C   LEU I  63      18.870  14.498   7.369  1.00 13.00 LIG 0.20  C 
ATOM     13 O    LEU I  63      19.451  13.485   7.818  1.00 13.41 LIG-0.65  OA
ATOM     14 OXT  LEU I  63      18.176  15.263   8.079  1.00 16.16 LIG-0.65  OA
ENDBRANCH 11 12
BRANCH 11 15
ATOM     15  CB  LEU I  63      20.454  15.301   5.612  1.00 10.85 LIG 0.04  C 
BRANCH 15 16
ATOM     16  CG  LEU I  63      21.202  14.433   4.636  1.00 12.24 LIG-0.02  C 
ATOM     17  CD2 LEU I  63      21.585  15.300   3.427  1.00 14.99 LIG 0.01  C 
ATOM     18  CD1 LEU I  63      20.354  13.253   4.251  1.00 14.56 LIG 0.01  C 
ENDBRANCH 15 16
ENDBRANCH 11 15
ENDBRANCH 9 11
ENDBRANCH 6 7
BRANCH 6 19
ATOM     19  CB  ILE I  62      17.148  17.963   2.526  1.00 10.03 LIG 0.01  C 
ATOM     20  CG2 ILE I  62      17.017  16.978   1.376  1.00 11.01 LIG 0.01  C 
BRANCH 19 21
ATOM     21  CG1 ILE I  62      16.186  19.140   2.312  1.00 11.14 LIG 0.00  C 
ATOM     22  CD1 ILE I  62      14.785  18.904   2.789  1.00 11.65 LIG 0.01  C 
ENDBRANCH 19 21
ENDBRANCH 6 19
ENDBRANCH 3 6
ENDBRANCH 1 2
BRANCH 1 23
ATOM     23  CB  GLN I  61      18.393  19.292   7.678  1.00 14.90 LIG 0.04  C 
BRANCH 23 24
ATOM     24  CG  GLN I  61      17.776  19.687   8.985  1.00 19.56 LIG 0.10  C 
BRANCH 24 25
ATOM     25  CD  GLN I  61      17.582  18.460   9.862  1.00 24.89 LIG 0.21  C 
ATOM     26 OE1  GLN I  61      17.592  18.560  11.098  1.00 26.12 LIG-0.27  OA
ATOM     27  NE2 GLN I  61      17.371  17.296   9.229  1.00 17.87 LIG-0.37  N 
ATOM     28 22HE GLN I  61      17.235  16.578   9.682  1.00 17.87 LIG 0.16  HD
ATOM     29 21HE GLN I  61      17.371  17.268   8.370  1.00 17.87 LIG 0.16  HD
ENDBRANCH 24 25
ENDBRANCH 23 24
ENDBRANCH 1 23
BRANCH 1 30
ATOM     30  N   GLN I  61      16.465  20.369   6.736  1.00 13.65 LIG-0.35  N 
ATOM     31  C   ASP I  60      15.732  21.098   5.908  1.00 18.68 LIG 0.24  C 
ATOM     32 O    ASP I  60      16.122  21.422   4.778  1.00 17.48 LIG-0.27  OA
ATOM     33 H    GLN I  61      16.193  20.113   7.511  1.00 13.65 LIG 0.16  HD
BRANCH 31 34
ATOM     34  CA  ASP I  60      14.353  21.536   6.444  1.00 21.07 LIG 0.19  C 
BRANCH 34 35
ATOM     35  CB  ASP I  60      13.276  20.466   6.178  1.00 25.87 LIG 0.15  C 
BRANCH 35 36
ATOM     36  CG  ASP I  60      11.846  21.042   5.991  1.00 31.63 LIG 0.17  C 
ATOM     37 OD2  ASP I  60      11.384  21.069   4.825  1.00 32.10 LIG-0.65  OA
ATOM     38 OD1  ASP I  60      11.166  21.419   6.978  1.00 34.51 LIG-0.65  OA
ENDBRANCH 35 36
ENDBRANCH 34 35
BRANCH 34 39
ATOM     39  N   ASP I  60      14.036  22.754   5.670  1.00 22.02 LIG-0.34  N 
ATOM     40  C   TYR I  59      13.587  23.882   6.238  1.00 29.44 LIG 0.25  C 
ATOM     41 O    TYR I  59      13.373  24.002   7.453  1.00 29.64 LIG-0.27  OA
ATOM     42 H    ASP I  60      14.166  22.671   4.824  1.00 22.02 LIG 0.16  HD
BRANCH 40 43
ATOM     43  CA  TYR I  59      13.307  25.066   5.305  1.00 32.26 LIG 0.28  C 
BRANCH 43 44
ATOM     44  CB  TYR I  59      11.789  25.236   5.110  1.00 35.10 LIG 0.08  C 
BRANCH 44 45
ATOM     45  CG  TYR I  59      11.225  24.354   4.008  1.00 39.87 LIG-0.06  A 
ATOM     46  CD1 TYR I  59      11.633  24.519   2.678  1.00 40.08 LIG 0.01  A 
ATOM     47  CE1 TYR I  59      11.057  23.785   1.644  1.00 40.68 LIG 0.04  A 
ATOM     48  CZ  TYR I  59      10.060  22.869   1.918  1.00 42.21 LIG 0.07  A 
ATOM     49  CE2 TYR I  59       9.631  22.669   3.232  1.00 42.84 LIG 0.04  A 
ATOM     50  CD2 TYR I  59      10.222  23.415   4.276  1.00 40.94 LIG 0.01  A 
BRANCH 48 51
ATOM     51 OH   TYR I  59       9.495  22.168   0.872  1.00 42.12 LIG-0.36  OA
ATOM     52 HH   TYR I  59       8.720  22.458   0.727  1.00 42.12 LIG 0.22  HD
ENDBRANCH 48 51
ENDBRANCH 44 45
ENDBRANCH 43 44
BRANCH 43 53
ATOM     53  N   TYR I  59      13.983  24.808   3.980  1.00 33.30 LIG-0.07  N 
ATOM     54 H1   TYR I  59      13.850  23.962   3.738  1.00 33.30 LIG 0.28  HD
ATOM     55 H2   TYR I  59      13.642  25.351   3.362  1.00 33.30 LIG 0.28  HD
ATOM     56 H3   TYR I  59      14.857  24.960   4.058  1.00 33.30 LIG 0.28  HD
ENDBRANCH 43 53
ENDBRANCH 40 43
ENDBRANCH 34 39
ENDBRANCH 31 34
ENDBRANCH 1 30
TORSDOF 22
ENDMDL
MODEL 22
USER: ADFR SOLUTION from run 93
USER: SCORE 21.261261 LL:  -4.378 LR: -17.649 RR:   0.000 FEB: -11.086
USER: RMSD 8.667318
USER: SEED 92
USER: STATUS no improvement in best 3 clusters for 5 generations
USER: GENES 24
USER: genes 0 Translation |==|  0.48204 0.51171 0.45723
USER: genes 1 Rotation |==|  0.80386 0.78564 0.37265 0.74467
USER: genes 2 Torsion [N]-CA--C-[N] |==|  0.20040
USER: genes 3 Torsion [C]-N--CA-[C] |==|  0.68889
USER: genes 4 Torsion [N]-CA--C-[N] |==|  0.97264
USER: genes 5 Torsion [C]-N--CA-[CB] |==|  0.34365
USER: genes 6 Torsion [N]-CA--C-[OXT] |==|  0.39746
USER: genes 7 Torsion [N]-CA--CB-[CG] |==|  0.52259
USER: genes 8 Torsion [CA]-CB--CG-[CD2] |==|  0.45538
USER: genes 9 Torsion [N]-CA--CB-[CG2] |==|  0.78783
USER: genes 10 Torsion [CA]-CB--CG1-[CD1] |==|  0.41628
USER: genes 11 Torsion [C]-CA--CB-[CG] |==|  0.32287
USER: genes 12 Torsion [CA]-CB--CG-[CD] |==|  0.40709
USER: genes 13 Torsion [CB]-CG--CD-[OE1] |==|  0.70563
USER: genes 14 Torsion [C]-CA--N-[C] |==|  0.63999
USER: genes 15 Torsion [N]-C--CA-[N] |==|  0.90274
USER: genes 16 Torsion [C]-CA--CB-[CG] |==|  0.96864
USER: genes 17 Torsion [CA]-CB--CG-[OD2] |==|  0.78036
USER: genes 18 Torsion [C]-CA--N-[C] |==|  0.79236
USER: genes 19 Torsion [N]-C--CA-[N] |==|  0.15990
USER: genes 20 Torsion [C]-CA--CB-[CG] |==|  0.81324
USER: genes 21 Torsion [CA]-CB--CG-[CD1] |==|  0.30759
USER: genes 22 Torsion [CE1]-CZ--OH-[HH] |==|  0.03021
USER: genes 23 Torsion [C]-CA--N-[H2] |==|  0.49418
ROOT
ATOM      1  CA  GLN I  61      17.581  18.391   5.697  1.00 12.54 LIG 0.18  C 
ENDROOT
BRANCH 1 2
ATOM      2  C   GLN I  61      18.058  19.161   6.958  1.00 13.13 LIG 0.24  C 
ATOM      3  N   ILE I  62      17.133  19.439   7.865  1.00 10.34 LIG-0.35  N 
ATOM      4 H    ILE I  62      16.307  19.212   7.803  1.00 10.34 LIG 0.16  HD
ATOM      5 O    GLN I  61      19.244  19.491   7.106  1.00 13.36 LIG-0.27  OA
BRANCH 3 6
ATOM      6  CA  ILE I  62      17.476  20.173   9.062  1.00 10.31 LIG 0.18  C 
BRANCH 6 7
ATOM      7  C   ILE I  62      17.345  19.234  10.254  1.00 12.98 LIG 0.24  C 
ATOM      8 O    ILE I  62      17.763  19.561  11.387  1.00 12.64 LIG-0.27  OA
ATOM      9  N   LEU I  63      16.767  18.059   9.993  1.00 10.93 LIG-0.34  N 
ATOM     10 H    LEU I  63      16.480  17.838   9.213  1.00 10.93 LIG 0.16  HD
BRANCH 9 11
ATOM     11  CA  LEU I  63      16.564  17.015  11.022  1.00 11.08 LIG 0.18  C 
BRANCH 11 12
ATOM     12  C   LEU I  63      17.384  15.752  10.730  1.00 13.00 LIG 0.20  C 
ATOM     13 O    LEU I  63      17.518  15.399   9.537  1.00 13.41 LIG-0.65  OA
ATOM     14 OXT  LEU I  63      17.889  15.127  11.692  1.00 16.16 LIG-0.65  OA
ENDBRANCH 11 12
BRANCH 11 15
ATOM     15  CB  LEU I  63      15.079  16.639  11.105  1.00 10.85 LIG 0.04  C 
BRANCH 15 16
ATOM     16  CG  LEU I  63      14.764  15.726  12.260  1.00 12.24 LIG-0.02  C 
ATOM     17  CD2 LEU I  63      13.245  15.748  12.482  1.00 14.99 LIG 0.01  C 
ATOM     18  CD1 LEU I  63      15.529  16.165  13.478  1.00 14.56 LIG 0.01  C 
ENDBRANCH 15 16
ENDBRANCH 11 15
ENDBRANCH 9 11
ENDBRANCH 6 7
BRANCH 6 19
ATOM     19  CB  ILE I  62      16.538  21.399   9.255  1.00 10.03 LIG 0.01  C 
ATOM     20  CG2 ILE I  62      16.937  22.517   8.306  1.00 11.01 LIG 0.01  C 
BRANCH 19 21
ATOM     21  CG1 ILE I  62      15.075  21.006   9.007  1.00 11.14 LIG 0.00  C 
ATOM     22  CD1 ILE I  62      14.070  21.791   9.794  1.00 11.65 LIG 0.01  C 
ENDBRANCH 19 21
ENDBRANCH 6 19
ENDBRANCH 3 6
ENDBRANCH 1 2
BRANCH 1 23
ATOM     23  CB  GLN I  61      18.757  17.831   4.887  1.00 14.90 LIG 0.04  C 
BRANCH 23 24
ATOM     24  CG  GLN I  61      18.861  16.340   4.768  1.00 19.56 LIG 0.10  C 
BRANCH 24 25
ATOM     25  CD  GLN I  61      19.444  15.964   3.415  1.00 24.89 LIG 0.21  C 
ATOM     26 OE1  GLN I  61      18.720  15.489   2.526  1.00 26.12 LIG-0.27  OA
ATOM     27  NE2 GLN I  61      20.752  16.204   3.236  1.00 17.87 LIG-0.37  N 
ATOM     28 22HE GLN I  61      21.122  16.027   2.480  1.00 17.87 LIG 0.16  HD
ATOM     29 21HE GLN I  61      21.220  16.534   3.877  1.00 17.87 LIG 0.16  HD
ENDBRANCH 24 25
ENDBRANCH 23 24
ENDBRANCH 1 23
BRANCH 1 30
ATOM     30  N   GLN I  61      16.777  19.184   4.772  1.00 13.65 LIG-0.35  N 
ATOM     31  C   ASP I  60      15.609  18.768   4.307  1.00 18.68 LIG 0.24  C 
ATOM     32 O    ASP I  60      15.093  17.698   4.656  1.00 17.48 LIG-0.27  OA
ATOM     33 H    GLN I  61      17.131  19.939   4.561  1.00 13.65 LIG 0.16  HD
BRANCH 31 34
ATOM     34  CA  ASP I  60      14.925  19.701   3.285  1.00 21.07 LIG 0.19  C 
BRANCH 34 35
ATOM     35  CB  ASP I  60      15.474  19.481   1.862  1.00 25.87 LIG 0.15  C 
BRANCH 35 36
ATOM     36  CG  ASP I  60      16.753  18.601   1.807  1.00 31.63 LIG 0.17  C 
ATOM     37 OD2  ASP I  60      17.842  19.149   2.098  1.00 32.10 LIG-0.65  OA
ATOM     38 OD1  ASP I  60      16.685  17.377   1.528  1.00 34.51 LIG-0.65  OA
ENDBRANCH 35 36
ENDBRANCH 34 35
BRANCH 34 39
ATOM     39  N   ASP I  60      15.281  21.059   3.743  1.00 22.02 LIG-0.34  N 
ATOM     40  C   TYR I  59      14.718  21.638   4.813  1.00 29.44 LIG 0.25  C 
ATOM     41 O    TYR I  59      13.835  21.103   5.499  1.00 29.64 LIG-0.27  OA
ATOM     42 H    ASP I  60      15.881  21.443   3.260  1.00 22.02 LIG 0.16  HD
BRANCH 40 43
ATOM     43  CA  TYR I  59      15.194  23.051   5.170  1.00 32.26 LIG 0.28  C 
BRANCH 43 44
ATOM     44  CB  TYR I  59      14.423  23.574   6.396  1.00 35.10 LIG 0.08  C 
BRANCH 44 45
ATOM     45  CG  TYR I  59      12.948  23.812   6.119  1.00 39.87 LIG-0.06  A 
ATOM     46  CD1 TYR I  59      11.969  22.996   6.698  1.00 40.08 LIG 0.01  A 
ATOM     47  CE1 TYR I  59      10.620  23.139   6.380  1.00 40.68 LIG 0.04  A 
ATOM     48  CZ  TYR I  59      10.222  24.106   5.475  1.00 42.21 LIG 0.07  A 
ATOM     49  CE2 TYR I  59      11.167  24.946   4.883  1.00 42.84 LIG 0.04  A 
ATOM     50  CD2 TYR I  59      12.533  24.796   5.212  1.00 40.94 LIG 0.01  A 
BRANCH 48 51
ATOM     51 OH   TYR I  59       8.882  24.215   5.166  1.00 42.12 LIG-0.36  OA
ATOM     52 HH   TYR I  59       8.432  23.747   5.700  1.00 42.12 LIG 0.22  HD
ENDBRANCH 48 51
ENDBRANCH 44 45
ENDBRANCH 43 44
BRANCH 43 53
ATOM     53  N   TYR I  59      14.966  23.953   3.980  1.00 33.30 LIG-0.07  N 
ATOM     54 H1   TYR I  59      14.103  23.944   3.761  1.00 33.30 LIG 0.28  HD
ATOM     55 H2   TYR I  59      15.210  24.784   4.186  1.00 33.30 LIG 0.28  HD
ATOM     56 H3   TYR I  59      15.450  23.664   3.291  1.00 33.30 LIG 0.28  HD
ENDBRANCH 43 53
ENDBRANCH 40 43
ENDBRANCH 34 39
ENDBRANCH 31 34
ENDBRANCH 1 30
TORSDOF 22
ENDMDL
MODEL 23
USER: ADFR SOLUTION from run 36
USER: SCORE 21.309179 LL:  -4.766 LR: -17.486 RR:   0.000 FEB: -10.923
USER: RMSD 8.405622
USER: SEED 35
USER: STATUS searching
USER: GENES 24
USER: genes 0 Translation |==|  0.51743 0.49037 0.48038
USER: genes 1 Rotation |==|  0.40062 0.35901 0.03070 0.50121
USER: genes 2 Torsion [N]-CA--C-[N] |==|  0.35386
USER: genes 3 Torsion [C]-N--CA-[C] |==|  0.66129
USER: genes 4 Torsion [N]-CA--C-[N] |==|  0.94800
USER: genes 5 Torsion [C]-N--CA-[CB] |==|  0.31871
USER: genes 6 Torsion [N]-CA--C-[OXT] |==|  0.58272
USER: genes 7 Torsion [N]-CA--CB-[CG] |==|  0.00356
USER: genes 8 Torsion [CA]-CB--CG-[CD2] |==|  0.72712
USER: genes 9 Torsion [N]-CA--CB-[CG2] |==|  0.41676
USER: genes 10 Torsion [CA]-CB--CG1-[CD1] |==|  0.22092
USER: genes 11 Torsion [C]-CA--CB-[CG] |==|  0.34149
USER: genes 12 Torsion [CA]-CB--CG-[CD] |==|  0.08527
USER: genes 13 Torsion [CB]-CG--CD-[OE1] |==|  0.26902
USER: genes 14 Torsion [C]-CA--N-[C] |==|  0.68603
USER: genes 15 Torsion [N]-C--CA-[N] |==|  0.35727
USER: genes 16 Torsion [C]-CA--CB-[CG] |==|  0.07530
USER: genes 17 Torsion [CA]-CB--CG-[OD2] |==|  0.25348
USER: genes 18 Torsion [C]-CA--N-[C] |==|  0.53889
USER: genes 19 Torsion [N]-C--CA-[N] |==|  0.35517
USER: genes 20 Torsion [C]-CA--CB-[CG] |==|  0.15956
USER: genes 21 Torsion [CA]-CB--CG-[CD1] |==|  0.23137
USER: genes 22 Torsion [CE1]-CZ--OH-[HH] |==|  0.19047
USER: genes 23 Torsion [C]-CA--N-[H2] |==|  0.65829
ROOT
ATOM      1  CA  GLN I  61      18.643  17.751   6.391  1.00 12.54 LIG 0.18  C 
ENDROOT
BRANCH 1 2
ATOM      2  C   GLN I  61      18.957  16.336   5.837  1.00 13.13 LIG 0.24  C 
ATOM      3  N   ILE I  62      20.170  16.153   5.337  1.00 10.34 LIG-0.35  N 
ATOM      4 H    ILE I  62      20.784  16.754   5.315  1.00 10.34 LIG 0.16  HD
ATOM      5 O    GLN I  61      18.115  15.426   5.868  1.00 13.36 LIG-0.27  OA
BRANCH 3 6
ATOM      6  CA  ILE I  62      20.549  14.876   4.777  1.00 10.31 LIG 0.18  C 
BRANCH 6 7
ATOM      7  C   ILE I  62      21.768  14.363   5.531  1.00 12.98 LIG 0.24  C 
ATOM      8 O    ILE I  62      22.089  13.154   5.501  1.00 12.64 LIG-0.27  OA
ATOM      9  N   LEU I  63      22.445  15.287   6.217  1.00 10.93 LIG-0.34  N 
ATOM     10 H    LEU I  63      22.222  16.118   6.234  1.00 10.93 LIG 0.16  HD
BRANCH 9 11
ATOM     11  CA  LEU I  63      23.648  14.975   7.018  1.00 11.08 LIG 0.18  C 
BRANCH 11 12
ATOM     12  C   LEU I  63      23.495  15.415   8.480  1.00 13.00 LIG 0.20  C 
ATOM     13 O    LEU I  63      22.347  15.419   8.978  1.00 13.41 LIG-0.65  OA
ATOM     14 OXT  LEU I  63      24.522  15.748   9.118  1.00 16.16 LIG-0.65  OA
ENDBRANCH 11 12
BRANCH 11 15
ATOM     15  CB  LEU I  63      24.878  15.667   6.415  1.00 10.85 LIG 0.04  C 
BRANCH 15 16
ATOM     16  CG  LEU I  63      24.553  16.499   5.203  1.00 12.24 LIG-0.02  C 
ATOM     17  CD2 LEU I  63      24.882  15.667   3.955  1.00 14.99 LIG 0.01  C 
ATOM     18  CD1 LEU I  63      25.321  17.790   5.251  1.00 14.56 LIG 0.01  C 
ENDBRANCH 15 16
ENDBRANCH 11 15
ENDBRANCH 9 11
ENDBRANCH 6 7
BRANCH 6 19
ATOM     19  CB  ILE I  62      20.886  15.006   3.263  1.00 10.03 LIG 0.01  C 
ATOM     20  CG2 ILE I  62      21.924  13.969   2.868  1.00 11.01 LIG 0.01  C 
BRANCH 19 21
ATOM     21  CG1 ILE I  62      19.622  14.824   2.410  1.00 11.14 LIG 0.00  C 
ATOM     22  CD1 ILE I  62      18.739  16.032   2.327  1.00 11.65 LIG 0.01  C 
ENDBRANCH 19 21
ENDBRANCH 6 19
ENDBRANCH 3 6
ENDBRANCH 1 2
BRANCH 1 23
ATOM     23  CB  GLN I  61      18.493  17.750   7.918  1.00 14.90 LIG 0.04  C 
BRANCH 23 24
ATOM     24  CG  GLN I  61      19.391  18.663   8.697  1.00 19.56 LIG 0.10  C 
BRANCH 24 25
ATOM     25  CD  GLN I  61      19.720  19.898   7.873  1.00 24.89 LIG 0.21  C 
ATOM     26 OE1  GLN I  61      19.079  20.949   8.027  1.00 26.12 LIG-0.27  OA
ATOM     27  NE2 GLN I  61      20.745  19.791   7.014  1.00 17.87 LIG-0.37  N 
ATOM     28 22HE GLN I  61      20.982  20.468   6.540  1.00 17.87 LIG 0.16  HD
ATOM     29 21HE GLN I  61      21.165  19.044   6.936  1.00 17.87 LIG 0.16  HD
ENDBRANCH 24 25
ENDBRANCH 23 24
ENDBRANCH 1 23
BRANCH 1 30
ATOM     30  N   GLN I  61      17.429  18.356   5.852  1.00 13.65 LIG-0.35  N 
ATOM     31  C   ASP I  60      17.452  19.426   5.072  1.00 18.68 LIG 0.24  C 
ATOM     32 O    ASP I  60      18.506  19.965   4.708  1.00 17.48 LIG-0.27  OA
ATOM     33 H    GLN I  61      16.705  17.956   6.087  1.00 13.65 LIG 0.16  HD
BRANCH 31 34
ATOM     34  CA  ASP I  60      16.074  19.976   4.649  1.00 21.07 LIG 0.19  C 
BRANCH 34 35
ATOM     35  CB  ASP I  60      15.843  19.818   3.133  1.00 25.87 LIG 0.15  C 
BRANCH 35 36
ATOM     36  CG  ASP I  60      16.623  18.637   2.495  1.00 31.63 LIG 0.17  C 
ATOM     37 OD2  ASP I  60      16.043  17.527   2.438  1.00 32.10 LIG-0.65  OA
ATOM     38 OD1  ASP I  60      17.772  18.806   2.013  1.00 34.51 LIG-0.65  OA
ENDBRANCH 35 36
ENDBRANCH 34 35
BRANCH 34 39
ATOM     39  N   ASP I  60      16.139  21.412   4.988  1.00 22.02 LIG-0.34  N 
ATOM     40  C   TYR I  59      15.057  22.201   5.032  1.00 29.44 LIG 0.25  C 
ATOM     41 O    TYR I  59      13.910  21.810   4.769  1.00 29.64 LIG-0.27  OA
ATOM     42 H    ASP I  60      16.935  21.694   5.154  1.00 22.02 LIG 0.16  HD
BRANCH 40 43
ATOM     43  CA  TYR I  59      15.282  23.671   5.405  1.00 32.26 LIG 0.28  C 
BRANCH 43 44
ATOM     44  CB  TYR I  59      14.679  23.962   6.792  1.00 35.10 LIG 0.08  C 
BRANCH 44 45
ATOM     45  CG  TYR I  59      15.245  23.075   7.888  1.00 39.87 LIG-0.06  A 
ATOM     46  CD1 TYR I  59      16.454  23.395   8.516  1.00 40.08 LIG 0.01  A 
ATOM     47  CE1 TYR I  59      17.034  22.544   9.455  1.00 40.68 LIG 0.04  A 
ATOM     48  CZ  TYR I  59      16.414  21.354   9.786  1.00 42.21 LIG 0.07  A 
ATOM     49  CE2 TYR I  59      15.202  21.003   9.188  1.00 42.84 LIG 0.04  A 
ATOM     50  CD2 TYR I  59      14.619  21.872   8.239  1.00 40.94 LIG 0.01  A 
BRANCH 48 51
ATOM     51 OH   TYR I  59      17.019  20.523  10.706  1.00 42.12 LIG-0.36  OA
ATOM     52 HH   TYR I  59      16.999  20.882  11.465  1.00 42.12 LIG 0.22  HD
ENDBRANCH 48 51
ENDBRANCH 44 45
ENDBRANCH 43 44
BRANCH 43 53
ATOM     53  N   TYR I  59      14.633  24.541   4.355  1.00 33.30 LIG-0.07  N 
ATOM     54 H1   TYR I  59      13.983  25.022   4.727  1.00 33.30 LIG 0.28  HD
ATOM     55 H2   TYR I  59      15.242  25.088   4.005  1.00 33.30 LIG 0.28  HD
ATOM     56 H3   TYR I  59      14.292  24.028   3.713  1.00 33.30 LIG 0.28  HD
ENDBRANCH 43 53
ENDBRANCH 40 43
ENDBRANCH 34 39
ENDBRANCH 31 34
ENDBRANCH 1 30
TORSDOF 22
ENDMDL
