MODEL 1
USER: ADFR SOLUTION from run 53
USER: SCORE 13.946347 LL:  -2.061 LR: -12.360 RR:   0.000 FEB:  -8.781
USER: RMSD 7.278405
USER: SEED 52
USER: STATUS no improvement in best 3 clusters for 5 generations
USER: GENES 14
USER: genes 0 Translation |==|  0.50809 0.47461 0.56927
USER: genes 1 Rotation |==|  0.26776 0.23605 0.35489 0.82456
USER: genes 2 Torsion [N]-C--CA-[N] |==|  0.30798
USER: genes 3 Torsion [C]-CA--CB-[CG] |==|  0.85766
USER: genes 4 Torsion [CA]-CB--CG-[CD1] |==|  0.90400
USER: genes 5 Torsion [C]-CA--N-[C] |==|  0.55793
USER: genes 6 Torsion [N]-C--CA-[N] |==|  0.70971
USER: genes 7 Torsion [C]-CA--N-[H3] |==|  0.66289
USER: genes 8 Torsion [C]-N--CA-[CB] |==|  0.83992
USER: genes 9 Torsion [N]-CA--C-[N] |==|  0.39392
USER: genes 10 Torsion [C]-N--CA-[C] |==|  0.33363
USER: genes 11 Torsion [N]-CA--C-[O] |==|  0.44624
USER: genes 12 Torsion [N]-CA--CB-[CG] |==|  0.33343
USER: genes 13 Torsion [CA]-CB--CG-[CD2] |==|  0.54667
ROOT
ATOM      1  C   LEU C 675      26.863   1.928  22.148  1.00 14.56 LIG 0.24  C 
ATOM      2 O    LEU C 675      26.869   3.065  22.659  0.66 14.97 LIG-0.27  OA
ATOM      3  N   ALA C 676      26.189   1.678  21.026  0.83 13.84 LIG-0.35  N 
ATOM      4 H    ALA C 676      26.176   0.899  20.663  0.83 13.84 LIG 0.16  HD
ENDROOT
BRANCH 1 5
ATOM      5  CA  LEU C 675      27.577   0.736  22.734  0.78 15.17 LIG 0.18  C 
BRANCH 5 6
ATOM      6  CB  LEU C 675      27.276   0.440  24.221  0.53 15.14 LIG 0.04  C 
BRANCH 6 7
ATOM      7  CG  LEU C 675      27.371   1.459  25.297  0.32 15.05 LIG-0.02  C 
ATOM      8  CD1 LEU C 675      28.486   2.488  25.099  0.18 15.17 LIG 0.01  C 
ATOM      9  CD2 LEU C 675      26.019   2.219  25.322  0.37 15.02 LIG 0.01  C 
ENDBRANCH 6 7
ENDBRANCH 5 6
BRANCH 5 10
ATOM     10  N   LEU C 675      29.019   0.816  22.650  0.88 15.36 LIG-0.35  N 
ATOM     11 H    LEU C 675      29.284   1.627  22.547  0.88 15.36 LIG 0.16  HD
ATOM     12  C   ALA C 674      29.893  -0.181  22.711  0.61 16.05 LIG 0.25  C 
ATOM     13 O    ALA C 674      29.537  -1.364  22.766  0.70 15.91 LIG-0.27  OA
BRANCH 12 14
ATOM     14  CA  ALA C 674      31.332   0.283  22.670  0.67 16.10 LIG 0.27  C 
ATOM     15  CB  ALA C 674      31.562   1.643  23.240  0.67 16.22 LIG 0.05  C 
BRANCH 14 16
ATOM     16  N   ALA C 674      32.003   0.065  21.391  0.74 16.71 LIG-0.07  N 
ATOM     17 H1   ALA C 674      31.444  -0.336  20.827  0.74 16.71 LIG 0.28  HD
ATOM     18 H2   ALA C 674      32.256   0.848  21.051  0.74 16.71 LIG 0.28  HD
ATOM     19 H3   ALA C 674      32.719  -0.449  21.514  0.74 16.71 LIG 0.28  HD
ENDBRANCH 14 16
ENDBRANCH 12 14
ENDBRANCH 5 10
ENDBRANCH 1 5
BRANCH 3 20
ATOM     20  CA  ALA C 676      25.400   2.669  20.280  1.00 13.04 LIG 0.17  C 
ATOM     21  CB  ALA C 676      24.331   3.274  21.164  0.89 13.68 LIG 0.04  C 
BRANCH 20 22
ATOM     22  C   ALA C 676      26.290   3.673  19.583  0.69 12.60 LIG 0.24  C 
ATOM     23 O    ALA C 676      27.370   4.067  20.070  0.52 12.22 LIG-0.27  OA
ATOM     24  N   LEU C 677      25.868   4.046  18.369  0.89 12.12 LIG-0.34  N 
ATOM     25 H    LEU C 677      25.128   3.777  18.022  0.89 12.12 LIG 0.16  HD
BRANCH 24 26
ATOM     26  CA  LEU C 677      26.621   4.947  17.516  0.93 11.78 LIG 0.18  C 
BRANCH 26 27
ATOM     27  C   LEU C 677      27.073   4.500  16.190  0.42 11.73 LIG 0.20  C 
ATOM     28 O    LEU C 677      27.404   5.329  15.278  0.84 11.50 LIG-0.65  OA
ATOM     29 OXT  LEU C 677      27.112   3.267  15.913  0.55 11.71 LIG-0.65  OA
ENDBRANCH 26 27
BRANCH 26 30
ATOM     30  CB  LEU C 677      27.309   5.998  18.341  1.00 11.60 LIG 0.04  C 
BRANCH 30 31
ATOM     31  CG  LEU C 677      28.792   6.209  18.384  0.82 11.89 LIG-0.02  C 
ATOM     32  CD2 LEU C 677      29.243   7.049  19.588  0.78 11.63 LIG 0.01  C 
ATOM     33  CD1 LEU C 677      29.244   6.968  17.106  1.00 11.42 LIG 0.01  C 
ENDBRANCH 30 31
ENDBRANCH 26 30
ENDBRANCH 24 26
ENDBRANCH 20 22
ENDBRANCH 3 20
TORSDOF 12
ENDMDL
MODEL 2
USER: ADFR SOLUTION from run 31
USER: SCORE 13.426923 LL:  -2.549 LR: -11.599 RR:   0.000 FEB:  -8.019
USER: RMSD 1.038881
USER: SEED 30
USER: STATUS no improvement in best 4 clusters for 5 generations
USER: GENES 14
USER: genes 0 Translation |==|  0.47554 0.54913 0.48111
USER: genes 1 Rotation |==|  0.54706 0.54402 0.48203 0.99550
USER: genes 2 Torsion [N]-C--CA-[N] |==|  0.44722
USER: genes 3 Torsion [C]-CA--CB-[CG] |==|  0.96995
USER: genes 4 Torsion [CA]-CB--CG-[CD1] |==|  0.36532
USER: genes 5 Torsion [C]-CA--N-[C] |==|  0.52778
USER: genes 6 Torsion [N]-C--CA-[N] |==|  0.54066
USER: genes 7 Torsion [C]-CA--N-[H3] |==|  0.60014
USER: genes 8 Torsion [C]-N--CA-[CB] |==|  0.48982
USER: genes 9 Torsion [N]-CA--C-[N] |==|  0.43480
USER: genes 10 Torsion [C]-N--CA-[C] |==|  0.72720
USER: genes 11 Torsion [N]-CA--C-[O] |==|  0.11138
USER: genes 12 Torsion [N]-CA--CB-[CG] |==|  0.61018
USER: genes 13 Torsion [CA]-CB--CG-[CD2] |==|  0.41165
ROOT
ATOM      1  C   LEU C 675      25.886   4.164  19.503  1.00 14.56 LIG 0.24  C 
ATOM      2 O    LEU C 675      26.695   4.232  20.449  0.66 14.97 LIG-0.27  OA
ATOM      3  N   ALA C 676      24.600   3.882  19.711  0.83 13.84 LIG-0.35  N 
ATOM      4 H    ALA C 676      24.032   3.831  19.069  0.83 13.84 LIG 0.16  HD
ENDROOT
BRANCH 1 5
ATOM      5  CA  LEU C 675      26.262   4.364  18.056  0.78 15.17 LIG 0.18  C 
BRANCH 5 6
ATOM      6  CB  LEU C 675      26.404   3.074  17.217  0.53 15.14 LIG 0.04  C 
BRANCH 6 7
ATOM      7  CG  LEU C 675      26.424   1.710  17.805  0.32 15.05 LIG-0.02  C 
ATOM      8  CD1 LEU C 675      25.489   0.711  17.119  0.18 15.17 LIG 0.01  C 
ATOM      9  CD2 LEU C 675      27.874   1.179  17.668  0.37 15.02 LIG 0.01  C 
ENDBRANCH 6 7
ENDBRANCH 5 6
BRANCH 5 10
ATOM     10  N   LEU C 675      27.506   5.077  17.866  0.88 15.36 LIG-0.35  N 
ATOM     11 H    LEU C 675      27.932   5.170  18.607  0.88 15.36 LIG 0.16  HD
ATOM     12  C   ALA C 674      28.001   5.560  16.733  0.61 16.05 LIG 0.25  C 
ATOM     13 O    ALA C 674      27.370   5.522  15.671  0.70 15.91 LIG-0.27  OA
BRANCH 12 14
ATOM     14  CA  ALA C 674      29.372   6.179  16.896  0.67 16.10 LIG 0.27  C 
ATOM     15  CB  ALA C 674      29.613   6.810  18.227  0.67 16.22 LIG 0.05  C 
BRANCH 14 16
ATOM     16  N   ALA C 674      29.801   7.007  15.771  0.74 16.71 LIG-0.07  N 
ATOM     17 H1   ALA C 674      29.368   6.757  15.036  0.74 16.71 LIG 0.28  HD
ATOM     18 H2   ALA C 674      29.620   7.861  15.945  0.74 16.71 LIG 0.28  HD
ATOM     19 H3   ALA C 674      30.677   6.909  15.647  0.74 16.71 LIG 0.28  HD
ENDBRANCH 14 16
ENDBRANCH 12 14
ENDBRANCH 5 10
ENDBRANCH 1 5
BRANCH 3 20
ATOM     20  CA  ALA C 676      23.998   3.626  21.028  1.00 13.04 LIG 0.17  C 
ATOM     21  CB  ALA C 676      22.503   3.428  20.900  0.89 13.68 LIG 0.04  C 
BRANCH 20 22
ATOM     22  C   ALA C 676      24.724   2.522  21.763  0.69 12.60 LIG 0.24  C 
ATOM     23 O    ALA C 676      25.452   1.692  21.182  0.52 12.22 LIG-0.27  OA
ATOM     24  N   LEU C 677      24.587   2.553  23.095  0.89 12.12 LIG-0.34  N 
ATOM     25 H    LEU C 677      24.092   3.124  23.506  0.89 12.12 LIG 0.16  HD
BRANCH 24 26
ATOM     26  CA  LEU C 677      25.263   1.622  23.978  0.93 11.78 LIG 0.18  C 
BRANCH 26 27
ATOM     27  C   LEU C 677      24.552   0.441  24.488  0.42 11.73 LIG 0.20  C 
ATOM     28 O    LEU C 677      23.762  -0.239  23.751  0.84 11.50 LIG-0.65  OA
ATOM     29 OXT  LEU C 677      24.689   0.088  25.695  0.55 11.71 LIG-0.65  OA
ENDBRANCH 26 27
BRANCH 26 30
ATOM     30  CB  LEU C 677      26.401   2.303  24.686  1.00 11.60 LIG 0.04  C 
BRANCH 30 31
ATOM     31  CG  LEU C 677      27.736   1.675  24.951  0.82 11.89 LIG-0.02  C 
ATOM     32  CD2 LEU C 677      28.887   2.690  24.946  0.78 11.63 LIG 0.01  C 
ATOM     33  CD1 LEU C 677      28.045   0.630  23.843  1.00 11.42 LIG 0.01  C 
ENDBRANCH 30 31
ENDBRANCH 26 30
ENDBRANCH 24 26
ENDBRANCH 20 22
ENDBRANCH 3 20
TORSDOF 12
ENDMDL
MODEL 3
USER: ADFR SOLUTION from run 57
USER: SCORE 12.302260 LL:  -1.883 LR: -11.497 RR:   0.000 FEB:  -7.918
USER: RMSD 7.189614
USER: SEED 56
USER: STATUS no improvement in best 17 clusters for 5 generations
USER: GENES 14
USER: genes 0 Translation |==|  0.41897 0.42589 0.64144
USER: genes 1 Rotation |==|  0.67069 0.42177 0.55330 0.96033
USER: genes 2 Torsion [N]-C--CA-[N] |==|  0.09970
USER: genes 3 Torsion [C]-CA--CB-[CG] |==|  0.19702
USER: genes 4 Torsion [CA]-CB--CG-[CD1] |==|  0.05982
USER: genes 5 Torsion [C]-CA--N-[C] |==|  0.73780
USER: genes 6 Torsion [N]-C--CA-[N] |==|  0.33565
USER: genes 7 Torsion [C]-CA--N-[H3] |==|  0.80672
USER: genes 8 Torsion [C]-N--CA-[CB] |==|  0.07530
USER: genes 9 Torsion [N]-CA--C-[N] |==|  0.14438
USER: genes 10 Torsion [C]-N--CA-[C] |==|  0.95829
USER: genes 11 Torsion [N]-CA--C-[O] |==|  0.78917
USER: genes 12 Torsion [N]-CA--CB-[CG] |==|  0.68568
USER: genes 13 Torsion [CA]-CB--CG-[CD2] |==|  0.60864
ROOT
ATOM      1  C   LEU C 675      24.189   0.467  24.313  1.00 14.56 LIG 0.24  C 
ATOM      2 O    LEU C 675      24.447   0.065  25.464  0.66 14.97 LIG-0.27  OA
ATOM      3  N   ALA C 676      23.094   0.063  23.669  0.83 13.84 LIG-0.35  N 
ATOM      4 H    ALA C 676      22.904   0.332  22.875  0.83 13.84 LIG 0.16  HD
ENDROOT
BRANCH 1 5
ATOM      5  CA  LEU C 675      25.070   1.409  23.531  0.78 15.17 LIG 0.18  C 
BRANCH 5 6
ATOM      6  CB  LEU C 675      26.016   2.295  24.372  0.53 15.14 LIG 0.04  C 
BRANCH 6 7
ATOM      7  CG  LEU C 675      27.203   1.773  25.097  0.32 15.05 LIG-0.02  C 
ATOM      8  CD1 LEU C 675      27.734   0.440  24.567  0.18 15.17 LIG 0.01  C 
ATOM      9  CD2 LEU C 675      28.327   2.830  24.945  0.37 15.02 LIG 0.01  C 
ENDBRANCH 6 7
ENDBRANCH 5 6
BRANCH 5 10
ATOM     10  N   LEU C 675      24.340   2.330  22.687  0.88 15.36 LIG-0.35  N 
ATOM     11 H    LEU C 675      24.099   3.032  23.122  0.88 15.36 LIG 0.16  HD
ATOM     12  C   ALA C 674      24.038   2.191  21.403  0.61 16.05 LIG 0.25  C 
ATOM     13 O    ALA C 674      24.291   1.155  20.777  0.70 15.91 LIG-0.27  OA
BRANCH 12 14
ATOM     14  CA  ALA C 674      23.334   3.396  20.820  0.67 16.10 LIG 0.27  C 
ATOM     15  CB  ALA C 674      21.871   3.206  20.588  0.67 16.22 LIG 0.05  C 
BRANCH 14 16
ATOM     16  N   ALA C 674      24.027   4.018  19.695  0.74 16.71 LIG-0.07  N 
ATOM     17 H1   ALA C 674      24.238   3.396  19.095  0.74 16.71 LIG 0.28  HD
ATOM     18 H2   ALA C 674      23.497   4.626  19.318  0.74 16.71 LIG 0.28  HD
ATOM     19 H3   ALA C 674      24.770   4.414  19.986  0.74 16.71 LIG 0.28  HD
ENDBRANCH 14 16
ENDBRANCH 12 14
ENDBRANCH 5 10
ENDBRANCH 1 5
BRANCH 3 20
ATOM     20  CA  ALA C 676      22.094  -0.867  24.211  1.00 13.04 LIG 0.17  C 
ATOM     21  CB  ALA C 676      22.067  -0.797  25.723  0.89 13.68 LIG 0.04  C 
BRANCH 20 22
ATOM     22  C   ALA C 676      20.750  -0.685  23.544  0.69 12.60 LIG 0.24  C 
ATOM     23 O    ALA C 676      19.706  -0.447  24.187  0.52 12.22 LIG-0.27  OA
ATOM     24  N   LEU C 677      20.780  -0.720  22.206  0.89 12.12 LIG-0.34  N 
ATOM     25 H    LEU C 677      21.494  -0.878  21.754  0.89 12.12 LIG 0.16  HD
BRANCH 24 26
ATOM     26  CA  LEU C 677      19.605  -0.495  21.386  0.93 11.78 LIG 0.18  C 
BRANCH 26 27
ATOM     27  C   LEU C 677      18.265  -0.542  21.989  0.42 11.73 LIG 0.20  C 
ATOM     28 O    LEU C 677      17.705  -1.646  22.297  0.84 11.50 LIG-0.65  OA
ATOM     29 OXT  LEU C 677      17.620   0.528  22.188  0.55 11.71 LIG-0.65  OA
ENDBRANCH 26 27
BRANCH 26 30
ATOM     30  CB  LEU C 677      19.903  -0.808  19.946  1.00 11.60 LIG 0.04  C 
BRANCH 30 31
ATOM     31  CG  LEU C 677      19.938   0.207  18.844  0.82 11.89 LIG-0.02  C 
ATOM     32  CD2 LEU C 677      19.329  -0.310  17.533  0.78 11.63 LIG 0.01  C 
ATOM     33  CD1 LEU C 677      21.413   0.590  18.542  1.00 11.42 LIG 0.01  C 
ENDBRANCH 30 31
ENDBRANCH 26 30
ENDBRANCH 24 26
ENDBRANCH 20 22
ENDBRANCH 3 20
TORSDOF 12
ENDMDL
MODEL 4
USER: ADFR SOLUTION from run 157
USER: SCORE 13.111476 LL:  -2.127 LR: -11.482 RR:   0.000 FEB:  -7.903
USER: RMSD 7.402825
USER: SEED 156
USER: STATUS no improvement in best 4 clusters for 5 generations
USER: GENES 14
USER: genes 0 Translation |==|  0.49985 0.45557 0.52376
USER: genes 1 Rotation |==|  0.04094 0.63736 0.52854 0.63993
USER: genes 2 Torsion [N]-C--CA-[N] |==|  0.47412
USER: genes 3 Torsion [C]-CA--CB-[CG] |==|  0.16796
USER: genes 4 Torsion [CA]-CB--CG-[CD1] |==|  0.18946
USER: genes 5 Torsion [C]-CA--N-[C] |==|  0.60953
USER: genes 6 Torsion [N]-C--CA-[N] |==|  0.05357
USER: genes 7 Torsion [C]-CA--N-[H3] |==|  0.45091
USER: genes 8 Torsion [C]-N--CA-[CB] |==|  0.51349
USER: genes 9 Torsion [N]-CA--C-[N] |==|  0.41111
USER: genes 10 Torsion [C]-N--CA-[C] |==|  0.30688
USER: genes 11 Torsion [N]-CA--C-[O] |==|  0.94443
USER: genes 12 Torsion [N]-CA--CB-[CG] |==|  0.29150
USER: genes 13 Torsion [CA]-CB--CG-[CD2] |==|  0.51428
ROOT
ATOM      1  C   LEU C 675      26.616   1.357  20.783  1.00 14.56 LIG 0.24  C 
ATOM      2 O    LEU C 675      27.023   1.417  19.606  0.66 14.97 LIG-0.27  OA
ATOM      3  N   ALA C 676      25.724   2.230  21.251  0.83 13.84 LIG-0.35  N 
ATOM      4 H    ALA C 676      25.435   2.201  22.060  0.83 13.84 LIG 0.16  HD
ENDROOT
BRANCH 1 5
ATOM      5  CA  LEU C 675      27.088   0.336  21.789  0.78 15.17 LIG 0.18  C 
BRANCH 5 6
ATOM      6  CB  LEU C 675      27.933   0.891  22.957  0.53 15.14 LIG 0.04  C 
BRANCH 6 7
ATOM      7  CG  LEU C 675      27.435   1.901  23.925  0.32 15.05 LIG-0.02  C 
ATOM      8  CD1 LEU C 675      26.332   1.396  24.857  0.18 15.17 LIG 0.01  C 
ATOM      9  CD2 LEU C 675      28.644   2.323  24.800  0.37 15.02 LIG 0.01  C 
ENDBRANCH 6 7
ENDBRANCH 5 6
BRANCH 5 10
ATOM     10  N   LEU C 675      27.886  -0.726  21.215  0.88 15.36 LIG-0.35  N 
ATOM     11 H    LEU C 675      28.420  -0.428  20.611  0.88 15.36 LIG 0.16  HD
ATOM     12  C   ALA C 674      27.861  -2.017  21.522  0.61 16.05 LIG 0.25  C 
ATOM     13 O    ALA C 674      27.041  -2.486  22.320  0.70 15.91 LIG-0.27  OA
BRANCH 12 14
ATOM     14  CA  ALA C 674      28.896  -2.829  20.776  0.67 16.10 LIG 0.27  C 
ATOM     15  CB  ALA C 674      29.345  -4.063  21.486  0.67 16.22 LIG 0.05  C 
BRANCH 14 16
ATOM     16  N   ALA C 674      29.995  -2.044  20.218  0.74 16.71 LIG-0.07  N 
ATOM     17 H1   ALA C 674      29.722  -1.637  19.476  0.74 16.71 LIG 0.28  HD
ATOM     18 H2   ALA C 674      30.257  -1.435  20.811  0.74 16.71 LIG 0.28  HD
ATOM     19 H3   ALA C 674      30.677  -2.583  20.026  0.74 16.71 LIG 0.28  HD
ENDBRANCH 14 16
ENDBRANCH 12 14
ENDBRANCH 5 10
ENDBRANCH 1 5
BRANCH 3 20
ATOM     20  CA  ALA C 676      25.131   3.327  20.472  1.00 13.04 LIG 0.17  C 
ATOM     21  CB  ALA C 676      24.251   4.189  21.351  0.89 13.68 LIG 0.04  C 
BRANCH 20 22
ATOM     22  C   ALA C 676      26.183   4.082  19.693  0.69 12.60 LIG 0.24  C 
ATOM     23 O    ALA C 676      27.370   4.166  20.070  0.52 12.22 LIG-0.27  OA
ATOM     24  N   LEU C 677      25.760   4.587  18.527  0.89 12.12 LIG-0.34  N 
ATOM     25 H    LEU C 677      24.946   4.530  18.255  0.89 12.12 LIG 0.16  HD
BRANCH 24 26
ATOM     26  CA  LEU C 677      26.638   5.282  17.605  0.93 11.78 LIG 0.18  C 
BRANCH 26 27
ATOM     27  C   LEU C 677      26.995   4.665  16.319  0.42 11.73 LIG 0.20  C 
ATOM     28 O    LEU C 677      26.883   3.409  16.123  0.84 11.50 LIG-0.65  OA
ATOM     29 OXT  LEU C 677      27.457   5.375  15.380  0.55 11.71 LIG-0.65  OA
ENDBRANCH 26 27
BRANCH 26 30
ATOM     30  CB  LEU C 677      27.498   6.270  18.344  1.00 11.60 LIG 0.04  C 
BRANCH 30 31
ATOM     31  CG  LEU C 677      28.953   6.073  18.645  0.82 11.89 LIG-0.02  C 
ATOM     32  CD2 LEU C 677      29.540   7.190  19.520  0.78 11.63 LIG 0.01  C 
ATOM     33  CD1 LEU C 677      29.759   6.064  17.317  1.00 11.42 LIG 0.01  C 
ENDBRANCH 30 31
ENDBRANCH 26 30
ENDBRANCH 24 26
ENDBRANCH 20 22
ENDBRANCH 3 20
TORSDOF 12
ENDMDL
MODEL 5
USER: ADFR SOLUTION from run 25
USER: SCORE 12.726385 LL:  -2.339 LR: -11.399 RR:   0.000 FEB:  -7.819
USER: RMSD 9.807721
USER: SEED 24
USER: STATUS no improvement in best 9 clusters for 5 generations
USER: GENES 14
USER: genes 0 Translation |==|  0.62863 0.44740 0.58879
USER: genes 1 Rotation |==|  0.61528 0.70702 0.90899 0.66303
USER: genes 2 Torsion [N]-C--CA-[N] |==|  0.04444
USER: genes 3 Torsion [C]-CA--CB-[CG] |==|  0.15897
USER: genes 4 Torsion [CA]-CB--CG-[CD1] |==|  0.36848
USER: genes 5 Torsion [C]-CA--N-[C] |==|  0.18202
USER: genes 6 Torsion [N]-C--CA-[N] |==|  0.14793
USER: genes 7 Torsion [C]-CA--N-[H3] |==|  0.99044
USER: genes 8 Torsion [C]-N--CA-[CB] |==|  0.22292
USER: genes 9 Torsion [N]-CA--C-[N] |==|  0.56394
USER: genes 10 Torsion [C]-N--CA-[C] |==|  0.70411
USER: genes 11 Torsion [N]-CA--C-[O] |==|  0.87076
USER: genes 12 Torsion [N]-CA--CB-[CG] |==|  0.23813
USER: genes 13 Torsion [CA]-CB--CG-[CD2] |==|  0.39700
ROOT
ATOM      1  C   LEU C 675      30.479   1.112  22.734  1.00 14.56 LIG 0.24  C 
ATOM      2 O    LEU C 675      30.623   1.970  23.626  0.66 14.97 LIG-0.27  OA
ATOM      3  N   ALA C 676      31.501   0.359  22.327  0.83 13.84 LIG-0.35  N 
ATOM      4 H    ALA C 676      31.416  -0.236  21.712  0.83 13.84 LIG 0.16  HD
ENDROOT
BRANCH 1 5
ATOM      5  CA  LEU C 675      29.178   0.851  22.016  0.78 15.17 LIG 0.18  C 
BRANCH 5 6
ATOM      6  CB  LEU C 675      27.917   0.817  22.909  0.53 15.14 LIG 0.04  C 
BRANCH 6 7
ATOM      7  CG  LEU C 675      27.497   1.943  23.782  0.32 15.05 LIG-0.02  C 
ATOM      8  CD1 LEU C 675      26.017   2.312  23.672  0.18 15.17 LIG 0.01  C 
ATOM      9  CD2 LEU C 675      27.774   1.509  25.244  0.37 15.02 LIG 0.01  C 
ENDBRANCH 6 7
ENDBRANCH 5 6
BRANCH 5 10
ATOM     10  N   LEU C 675      29.154  -0.395  21.281  0.88 15.36 LIG-0.35  N 
ATOM     11 H    LEU C 675      29.094  -0.260  20.434  0.88 15.36 LIG 0.16  HD
ATOM     12  C   ALA C 674      29.212  -1.628  21.769  0.61 16.05 LIG 0.25  C 
ATOM     13 O    ALA C 674      29.205  -1.854  22.984  0.70 15.91 LIG-0.27  OA
BRANCH 12 14
ATOM     14  CA  ALA C 674      29.246  -2.694  20.697  0.67 16.10 LIG 0.27  C 
ATOM     15  CB  ALA C 674      29.146  -4.093  21.210  0.67 16.22 LIG 0.05  C 
BRANCH 14 16
ATOM     16  N   ALA C 674      30.294  -2.514  19.695  0.74 16.71 LIG-0.07  N 
ATOM     17 H1   ALA C 674      30.864  -3.195  19.736  0.74 16.71 LIG 0.28  HD
ATOM     18 H2   ALA C 674      29.928  -2.481  18.884  0.74 16.71 LIG 0.28  HD
ATOM     19 H3   ALA C 674      30.729  -1.753  19.854  0.74 16.71 LIG 0.28  HD
ENDBRANCH 14 16
ENDBRANCH 12 14
ENDBRANCH 5 10
ENDBRANCH 1 5
BRANCH 3 20
ATOM     20  CA  ALA C 676      32.869   0.441  22.857  1.00 13.04 LIG 0.17  C 
ATOM     21  CB  ALA C 676      32.978  -0.310  24.167  0.89 13.68 LIG 0.04  C 
BRANCH 20 22
ATOM     22  C   ALA C 676      33.891   0.048  21.814  0.69 12.60 LIG 0.24  C 
ATOM     23 O    ALA C 676      33.685   0.173  20.589  0.52 12.22 LIG-0.27  OA
ATOM     24  N   LEU C 677      35.063  -0.368  22.309  0.89 12.12 LIG-0.34  N 
ATOM     25 H    LEU C 677      35.218  -0.453  23.151  0.89 12.12 LIG 0.16  HD
BRANCH 24 26
ATOM     26  CA  LEU C 677      36.192  -0.720  21.469  0.93 11.78 LIG 0.18  C 
BRANCH 26 27
ATOM     27  C   LEU C 677      36.569  -2.130  21.292  0.42 11.73 LIG 0.20  C 
ATOM     28 O    LEU C 677      36.660  -2.930  22.282  0.84 11.50 LIG-0.65  OA
ATOM     29 OXT  LEU C 677      36.844  -2.576  20.141  0.55 11.71 LIG-0.65  OA
ENDBRANCH 26 27
BRANCH 26 30
ATOM     30  CB  LEU C 677      37.147   0.436  21.361  1.00 11.60 LIG 0.04  C 
BRANCH 30 31
ATOM     31  CG  LEU C 677      38.240   0.731  22.343  0.82 11.89 LIG-0.02  C 
ATOM     32  CD2 LEU C 677      39.516   1.265  21.676  0.78 11.63 LIG 0.01  C 
ATOM     33  CD1 LEU C 677      38.629  -0.574  23.090  1.00 11.42 LIG 0.01  C 
ENDBRANCH 30 31
ENDBRANCH 26 30
ENDBRANCH 24 26
ENDBRANCH 20 22
ENDBRANCH 3 20
TORSDOF 12
ENDMDL
MODEL 6
USER: ADFR SOLUTION from run 138
USER: SCORE 13.200953 LL:  -2.406 LR: -11.402 RR:   0.000 FEB:  -7.822
USER: RMSD 3.723775
USER: SEED 137
USER: STATUS no improvement in best 8 clusters for 5 generations
USER: GENES 14
USER: genes 0 Translation |==|  0.48693 0.53466 0.47424
USER: genes 1 Rotation |==|  0.51313 0.55891 0.44609 0.99341
USER: genes 2 Torsion [N]-C--CA-[N] |==|  0.90318
USER: genes 3 Torsion [C]-CA--CB-[CG] |==|  0.18432
USER: genes 4 Torsion [CA]-CB--CG-[CD1] |==|  0.82334
USER: genes 5 Torsion [C]-CA--N-[C] |==|  0.84863
USER: genes 6 Torsion [N]-C--CA-[N] |==|  0.74363
USER: genes 7 Torsion [C]-CA--N-[H3] |==|  0.05377
USER: genes 8 Torsion [C]-N--CA-[CB] |==|  0.48334
USER: genes 9 Torsion [N]-CA--C-[N] |==|  0.49129
USER: genes 10 Torsion [C]-N--CA-[C] |==|  0.71657
USER: genes 11 Torsion [N]-CA--C-[O] |==|  0.10932
USER: genes 12 Torsion [N]-CA--CB-[CG] |==|  0.63059
USER: genes 13 Torsion [CA]-CB--CG-[CD2] |==|  0.39155
ROOT
ATOM      1  C   LEU C 675      26.228   3.730  19.297  1.00 14.56 LIG 0.24  C 
ATOM      2 O    LEU C 675      27.118   3.822  20.165  0.66 14.97 LIG-0.27  OA
ATOM      3  N   ALA C 676      24.940   3.649  19.633  0.83 13.84 LIG-0.35  N 
ATOM      4 H    ALA C 676      24.316   3.584  19.045  0.83 13.84 LIG 0.16  HD
ENDROOT
BRANCH 1 5
ATOM      5  CA  LEU C 675      26.497   3.677  17.814  0.78 15.17 LIG 0.18  C 
BRANCH 5 6
ATOM      6  CB  LEU C 675      26.443   5.033  17.075  0.53 15.14 LIG 0.04  C 
BRANCH 6 7
ATOM      7  CG  LEU C 675      27.414   6.133  17.305  0.32 15.05 LIG-0.02  C 
ATOM      8  CD1 LEU C 675      27.389   6.715  18.720  0.18 15.17 LIG 0.01  C 
ATOM      9  CD2 LEU C 675      28.828   5.549  17.053  0.37 15.02 LIG 0.01  C 
ENDBRANCH 6 7
ENDBRANCH 5 6
BRANCH 5 10
ATOM     10  N   LEU C 675      25.594   2.813  17.084  0.88 15.36 LIG-0.35  N 
ATOM     11 H    LEU C 675      25.211   3.231  16.438  0.88 15.36 LIG 0.16  HD
ATOM     12  C   ALA C 674      25.331   1.533  17.314  0.61 16.05 LIG 0.25  C 
ATOM     13 O    ALA C 674      25.796   0.932  18.290  0.70 15.91 LIG-0.27  OA
BRANCH 12 14
ATOM     14  CA  ALA C 674      24.393   0.923  16.296  0.67 16.10 LIG 0.27  C 
ATOM     15  CB  ALA C 674      24.660   1.330  14.885  0.67 16.22 LIG 0.05  C 
BRANCH 14 16
ATOM     16  N   ALA C 674      22.980   0.979  16.663  0.74 16.71 LIG-0.07  N 
ATOM     17 H1   ALA C 674      22.495   1.182  15.945  0.74 16.71 LIG 0.28  HD
ATOM     18 H2   ALA C 674      22.724   0.189  16.981  0.74 16.71 LIG 0.28  HD
ATOM     19 H3   ALA C 674      22.860   1.603  17.287  0.74 16.71 LIG 0.28  HD
ENDBRANCH 14 16
ENDBRANCH 12 14
ENDBRANCH 5 10
ENDBRANCH 1 5
BRANCH 3 20
ATOM     20  CA  ALA C 676      24.429   3.659  21.011  1.00 13.04 LIG 0.17  C 
ATOM     21  CB  ALA C 676      22.916   3.699  21.017  0.89 13.68 LIG 0.04  C 
BRANCH 20 22
ATOM     22  C   ALA C 676      25.037   2.547  21.835  0.69 12.60 LIG 0.24  C 
ATOM     23 O    ALA C 676      25.876   1.747  21.371  0.52 12.22 LIG-0.27  OA
ATOM     24  N   LEU C 677      24.665   2.536  23.121  0.89 12.12 LIG-0.34  N 
ATOM     25 H    LEU C 677      24.092   3.086  23.452  0.89 12.12 LIG 0.16  HD
BRANCH 24 26
ATOM     26  CA  LEU C 677      25.194   1.591  24.086  0.93 11.78 LIG 0.18  C 
BRANCH 26 27
ATOM     27  C   LEU C 677      24.395   0.427  24.493  0.42 11.73 LIG 0.20  C 
ATOM     28 O    LEU C 677      23.686  -0.227  23.658  0.84 11.50 LIG-0.65  OA
ATOM     29 OXT  LEU C 677      24.370   0.065  25.705  0.55 11.71 LIG-0.65  OA
ENDBRANCH 26 27
BRANCH 26 30
ATOM     30  CB  LEU C 677      26.241   2.248  24.943  1.00 11.60 LIG 0.04  C 
BRANCH 30 31
ATOM     31  CG  LEU C 677      27.580   1.652  25.256  0.82 11.89 LIG-0.02  C 
ATOM     32  CD2 LEU C 677      28.711   2.690  25.261  0.78 11.63 LIG 0.01  C 
ATOM     33  CD1 LEU C 677      27.940   0.593  24.177  1.00 11.42 LIG 0.01  C 
ENDBRANCH 30 31
ENDBRANCH 26 30
ENDBRANCH 24 26
ENDBRANCH 20 22
ENDBRANCH 3 20
TORSDOF 12
ENDMDL
MODEL 7
USER: ADFR SOLUTION from run 115
USER: SCORE 12.588459 LL:  -2.272 LR: -11.215 RR:   0.000 FEB:  -7.636
USER: RMSD 9.688436
USER: SEED 114
USER: STATUS no improvement in best 3 clusters for 5 generations
USER: GENES 14
USER: genes 0 Translation |==|  0.61941 0.44343 0.58454
USER: genes 1 Rotation |==|  0.59113 0.67757 0.93280 0.65116
USER: genes 2 Torsion [N]-C--CA-[N] |==|  0.07856
USER: genes 3 Torsion [C]-CA--CB-[CG] |==|  0.12557
USER: genes 4 Torsion [CA]-CB--CG-[CD1] |==|  0.39225
USER: genes 5 Torsion [C]-CA--N-[C] |==|  0.16148
USER: genes 6 Torsion [N]-C--CA-[N] |==|  0.15463
USER: genes 7 Torsion [C]-CA--N-[H3] |==|  0.30860
USER: genes 8 Torsion [C]-N--CA-[CB] |==|  0.21832
USER: genes 9 Torsion [N]-CA--C-[N] |==|  0.55437
USER: genes 10 Torsion [C]-N--CA-[C] |==|  0.28956
USER: genes 11 Torsion [N]-CA--C-[O] |==|  0.39520
USER: genes 12 Torsion [N]-CA--CB-[CG] |==|  0.72378
USER: genes 13 Torsion [CA]-CB--CG-[CD2] |==|  0.01557
ROOT
ATOM      1  C   LEU C 675      30.202   0.993  22.606  1.00 14.56 LIG 0.24  C 
ATOM      2 O    LEU C 675      30.166   1.746  23.599  0.66 14.97 LIG-0.27  OA
ATOM      3  N   ALA C 676      31.327   0.373  22.249  0.83 13.84 LIG-0.35  N 
ATOM      4 H    ALA C 676      31.366  -0.149  21.567  0.83 13.84 LIG 0.16  HD
ENDROOT
BRANCH 1 5
ATOM      5  CA  LEU C 675      29.020   0.722  21.709  0.78 15.17 LIG 0.18  C 
BRANCH 5 6
ATOM      6  CB  LEU C 675      27.635   0.779  22.391  0.53 15.14 LIG 0.04  C 
BRANCH 6 7
ATOM      7  CG  LEU C 675      27.225   1.855  23.329  0.32 15.05 LIG-0.02  C 
ATOM      8  CD1 LEU C 675      25.771   2.306  23.180  0.18 15.17 LIG 0.01  C 
ATOM      9  CD2 LEU C 675      27.408   1.298  24.765  0.37 15.02 LIG 0.01  C 
ENDBRANCH 6 7
ENDBRANCH 5 6
BRANCH 5 10
ATOM     10  N   LEU C 675      29.066  -0.567  21.053  0.88 15.36 LIG-0.35  N 
ATOM     11 H    LEU C 675      29.041  -0.486  20.198  0.88 15.36 LIG 0.16  HD
ATOM     12  C   ALA C 674      29.136  -1.765  21.620  0.61 16.05 LIG 0.25  C 
ATOM     13 O    ALA C 674      29.081  -1.915  22.846  0.70 15.91 LIG-0.27  OA
BRANCH 12 14
ATOM     14  CA  ALA C 674      29.250  -2.894  20.620  0.67 16.10 LIG 0.27  C 
ATOM     15  CB  ALA C 674      29.110  -4.259  21.209  0.67 16.22 LIG 0.05  C 
BRANCH 14 16
ATOM     16  N   ALA C 674      30.370  -2.771  19.691  0.74 16.71 LIG-0.07  N 
ATOM     17 H1   ALA C 674      30.076  -2.869  18.857  0.74 16.71 LIG 0.28  HD
ATOM     18 H2   ALA C 674      30.744  -1.968  19.782  0.74 16.71 LIG 0.28  HD
ATOM     19 H3   ALA C 674      30.974  -3.401  19.869  0.74 16.71 LIG 0.28  HD
ENDBRANCH 14 16
ENDBRANCH 12 14
ENDBRANCH 5 10
ENDBRANCH 1 5
BRANCH 3 20
ATOM     20  CA  ALA C 676      32.613   0.494  22.951  1.00 13.04 LIG 0.17  C 
ATOM     21  CB  ALA C 676      32.623  -0.367  24.196  0.89 13.68 LIG 0.04  C 
BRANCH 20 22
ATOM     22  C   ALA C 676      33.778   0.268  22.014  0.69 12.60 LIG 0.24  C 
ATOM     23 O    ALA C 676      33.691   0.432  20.779  0.52 12.22 LIG-0.27  OA
ATOM     24  N   LEU C 677      34.930  -0.046  22.620  0.89 12.12 LIG-0.34  N 
ATOM     25 H    LEU C 677      35.002  -0.156  23.470  0.89 12.12 LIG 0.16  HD
BRANCH 24 26
ATOM     26  CA  LEU C 677      36.174  -0.231  21.897  0.93 11.78 LIG 0.18  C 
BRANCH 26 27
ATOM     27  C   LEU C 677      37.210   0.812  21.933  0.42 11.73 LIG 0.20  C 
ATOM     28 O    LEU C 677      38.452   0.525  21.979  0.84 11.50 LIG-0.65  OA
ATOM     29 OXT  LEU C 677      36.881   2.033  21.950  0.55 11.71 LIG-0.65  OA
ENDBRANCH 26 27
BRANCH 26 30
ATOM     30  CB  LEU C 677      35.985  -1.205  20.768  1.00 11.60 LIG 0.04  C 
BRANCH 30 31
ATOM     31  CG  LEU C 677      36.368  -2.653  20.821  0.82 11.89 LIG-0.02  C 
ATOM     32  CD2 LEU C 677      36.857  -3.093  22.208  0.78 11.63 LIG 0.01  C 
ATOM     33  CD1 LEU C 677      37.529  -2.919  19.824  1.00 11.42 LIG 0.01  C 
ENDBRANCH 30 31
ENDBRANCH 26 30
ENDBRANCH 24 26
ENDBRANCH 20 22
ENDBRANCH 3 20
TORSDOF 12
ENDMDL
MODEL 8
USER: ADFR SOLUTION from run 61
USER: SCORE 12.490749 LL:  -2.134 LR: -11.186 RR:   0.000 FEB:  -7.606
USER: RMSD 9.881518
USER: SEED 60
USER: STATUS no improvement in best 10 clusters for 5 generations
USER: GENES 14
USER: genes 0 Translation |==|  0.64805 0.43160 0.54762
USER: genes 1 Rotation |==|  0.52705 0.70046 0.92951 0.65687
USER: genes 2 Torsion [N]-C--CA-[N] |==|  0.01659
USER: genes 3 Torsion [C]-CA--CB-[CG] |==|  0.89869
USER: genes 4 Torsion [CA]-CB--CG-[CD1] |==|  0.26984
USER: genes 5 Torsion [C]-CA--N-[C] |==|  0.74436
USER: genes 6 Torsion [N]-C--CA-[N] |==|  0.95457
USER: genes 7 Torsion [C]-CA--N-[H3] |==|  0.69013
USER: genes 8 Torsion [C]-N--CA-[CB] |==|  0.19209
USER: genes 9 Torsion [N]-CA--C-[N] |==|  0.52919
USER: genes 10 Torsion [C]-N--CA-[C] |==|  0.31775
USER: genes 11 Torsion [N]-CA--C-[O] |==|  0.45254
USER: genes 12 Torsion [N]-CA--CB-[CG] |==|  0.67573
USER: genes 13 Torsion [CA]-CB--CG-[CD2] |==|  0.59871
ROOT
ATOM      1  C   LEU C 675      31.062   0.638  21.498  1.00 14.56 LIG 0.24  C 
ATOM      2 O    LEU C 675      30.773   1.529  22.320  0.66 14.97 LIG-0.27  OA
ATOM      3  N   ALA C 676      32.274   0.085  21.475  0.83 13.84 LIG-0.35  N 
ATOM      4 H    ALA C 676      32.487  -0.530  20.913  0.83 13.84 LIG 0.16  HD
ENDROOT
BRANCH 1 5
ATOM      5  CA  LEU C 675      30.109   0.114  20.452  0.78 15.17 LIG 0.18  C 
BRANCH 5 6
ATOM      6  CB  LEU C 675      28.738  -0.367  20.977  0.53 15.14 LIG 0.04  C 
BRANCH 6 7
ATOM      7  CG  LEU C 675      28.553  -1.065  22.274  0.32 15.05 LIG-0.02  C 
ATOM      8  CD1 LEU C 675      28.118  -0.158  23.426  0.18 15.17 LIG 0.01  C 
ATOM      9  CD2 LEU C 675      27.447  -2.131  22.061  0.37 15.02 LIG 0.01  C 
ENDBRANCH 6 7
ENDBRANCH 5 6
BRANCH 5 10
ATOM     10  N   LEU C 675      30.632  -0.997  19.688  0.88 15.36 LIG-0.35  N 
ATOM     11 H    LEU C 675      30.465  -1.749  20.070  0.88 15.36 LIG 0.16  HD
ATOM     12  C   ALA C 674      31.295  -0.953  18.539  0.61 16.05 LIG 0.25  C 
ATOM     13 O    ALA C 674      31.629   0.116  18.014  0.70 15.91 LIG-0.27  OA
BRANCH 12 14
ATOM     14  CA  ALA C 674      31.619  -2.322  17.982  0.67 16.10 LIG 0.27  C 
ATOM     15  CB  ALA C 674      30.988  -2.618  16.661  0.67 16.22 LIG 0.05  C 
BRANCH 14 16
ATOM     16  N   ALA C 674      31.497  -3.413  18.945  0.74 16.71 LIG-0.07  N 
ATOM     17 H1   ALA C 674      31.127  -3.108  19.695  0.74 16.71 LIG 0.28  HD
ATOM     18 H2   ALA C 674      30.985  -4.056  18.603  0.74 16.71 LIG 0.28  HD
ATOM     19 H3   ALA C 674      32.304  -3.742  19.125  0.74 16.71 LIG 0.28  HD
ENDBRANCH 14 16
ENDBRANCH 12 14
ENDBRANCH 5 10
ENDBRANCH 1 5
BRANCH 3 20
ATOM     20  CA  ALA C 676      33.378   0.441  22.378  1.00 13.04 LIG 0.17  C 
ATOM     21  CB  ALA C 676      33.079  -0.013  23.790  0.89 13.68 LIG 0.04  C 
BRANCH 20 22
ATOM     22  C   ALA C 676      34.710  -0.020  21.832  0.69 12.60 LIG 0.24  C 
ATOM     23 O    ALA C 676      34.862  -0.387  20.648  0.52 12.22 LIG-0.27  OA
ATOM     24  N   LEU C 677      35.730   0.070  22.695  0.89 12.12 LIG-0.34  N 
ATOM     25 H    LEU C 677      35.637   0.327  23.511  0.89 12.12 LIG 0.16  HD
BRANCH 24 26
ATOM     26  CA  LEU C 677      37.097  -0.257  22.336  0.93 11.78 LIG 0.18  C 
BRANCH 26 27
ATOM     27  C   LEU C 677      38.126   0.793  22.315  0.42 11.73 LIG 0.20  C 
ATOM     28 O    LEU C 677      39.371   0.514  22.324  0.84 11.50 LIG-0.65  OA
ATOM     29 OXT  LEU C 677      37.790   2.012  22.320  0.55 11.71 LIG-0.65  OA
ENDBRANCH 26 27
BRANCH 26 30
ATOM     30  CB  LEU C 677      37.134  -1.503  21.495  1.00 11.60 LIG 0.04  C 
BRANCH 30 31
ATOM     31  CG  LEU C 677      37.800  -2.783  21.899  0.82 11.89 LIG-0.02  C 
ATOM     32  CD2 LEU C 677      38.449  -3.520  20.719  0.78 11.63 LIG 0.01  C 
ATOM     33  CD1 LEU C 677      36.745  -3.744  22.512  1.00 11.42 LIG 0.01  C 
ENDBRANCH 30 31
ENDBRANCH 26 30
ENDBRANCH 24 26
ENDBRANCH 20 22
ENDBRANCH 3 20
TORSDOF 12
ENDMDL
MODEL 9
USER: ADFR SOLUTION from run 125
USER: SCORE 12.207992 LL:  -2.330 LR: -11.081 RR:   0.000 FEB:  -7.501
USER: RMSD 7.202783
USER: SEED 124
USER: STATUS no improvement in best 11 clusters for 5 generations
USER: GENES 14
USER: genes 0 Translation |==|  0.42721 0.42427 0.64750
USER: genes 1 Rotation |==|  0.65555 0.38480 0.56304 0.95669
USER: genes 2 Torsion [N]-C--CA-[N] |==|  0.11667
USER: genes 3 Torsion [C]-CA--CB-[CG] |==|  0.28890
USER: genes 4 Torsion [CA]-CB--CG-[CD1] |==|  0.08126
USER: genes 5 Torsion [C]-CA--N-[C] |==|  0.72788
USER: genes 6 Torsion [N]-C--CA-[N] |==|  0.94879
USER: genes 7 Torsion [C]-CA--N-[H3] |==|  0.27682
USER: genes 8 Torsion [C]-N--CA-[CB] |==|  0.15348
USER: genes 9 Torsion [N]-CA--C-[N] |==|  0.58557
USER: genes 10 Torsion [C]-N--CA-[C] |==|  0.66805
USER: genes 11 Torsion [N]-CA--C-[O] |==|  0.99262
USER: genes 12 Torsion [N]-CA--CB-[CG] |==|  0.11506
USER: genes 13 Torsion [CA]-CB--CG-[CD2] |==|  0.08906
ROOT
ATOM      1  C   LEU C 675      24.436   0.418  24.495  1.00 14.56 LIG 0.24  C 
ATOM      2 O    LEU C 675      24.500   0.061  25.687  0.66 14.97 LIG-0.27  OA
ATOM      3  N   ALA C 676      23.446   0.009  23.702  0.83 13.84 LIG-0.35  N 
ATOM      4 H    ALA C 676      23.390   0.247  22.878  0.83 13.84 LIG 0.16  HD
ENDROOT
BRANCH 1 5
ATOM      5  CA  LEU C 675      25.453   1.308  23.825  0.78 15.17 LIG 0.18  C 
BRANCH 5 6
ATOM      6  CB  LEU C 675      26.377   2.102  24.777  0.53 15.14 LIG 0.04  C 
BRANCH 6 7
ATOM      7  CG  LEU C 675      27.794   1.740  25.038  0.32 15.05 LIG-0.02  C 
ATOM      8  CD1 LEU C 675      28.492   1.034  23.874  0.18 15.17 LIG 0.01  C 
ATOM      9  CD2 LEU C 675      28.554   3.062  25.320  0.37 15.02 LIG 0.01  C 
ENDBRANCH 6 7
ENDBRANCH 5 6
BRANCH 5 10
ATOM     10  N   LEU C 675      24.875   2.301  22.946  0.88 15.36 LIG-0.35  N 
ATOM     11 H    LEU C 675      24.600   2.988  23.384  0.88 15.36 LIG 0.16  HD
ATOM     12  C   ALA C 674      24.745   2.240  21.626  0.61 16.05 LIG 0.25  C 
ATOM     13 O    ALA C 674      25.046   1.229  20.983  0.70 15.91 LIG-0.27  OA
BRANCH 12 14
ATOM     14  CA  ALA C 674      24.166   3.501  21.024  0.67 16.10 LIG 0.27  C 
ATOM     15  CB  ALA C 674      25.095   4.238  20.117  0.67 16.22 LIG 0.05  C 
BRANCH 14 16
ATOM     16  N   ALA C 674      23.473   4.366  21.976  0.74 16.71 LIG-0.07  N 
ATOM     17 H1   ALA C 674      22.742   4.701  21.596  0.74 16.71 LIG 0.28  HD
ATOM     18 H2   ALA C 674      23.244   3.893  22.695  0.74 16.71 LIG 0.28  HD
ATOM     19 H3   ALA C 674      24.012   5.031  22.220  0.74 16.71 LIG 0.28  HD
ENDBRANCH 14 16
ENDBRANCH 12 14
ENDBRANCH 5 10
ENDBRANCH 1 5
BRANCH 3 20
ATOM     20  CA  ALA C 676      22.349  -0.878  24.116  1.00 13.04 LIG 0.17  C 
ATOM     21  CB  ALA C 676      21.631  -0.310  25.321  0.89 13.68 LIG 0.04  C 
BRANCH 20 22
ATOM     22  C   ALA C 676      21.453  -1.231  22.951  0.69 12.60 LIG 0.24  C 
ATOM     23 O    ALA C 676      21.886  -1.381  21.789  0.52 12.22 LIG-0.27  OA
ATOM     24  N   LEU C 677      20.172  -1.446  23.275  0.89 12.12 LIG-0.34  N 
ATOM     25 H    LEU C 677      19.864  -1.350  24.073  0.89 12.12 LIG 0.16  HD
BRANCH 24 26
ATOM     26  CA  LEU C 677      19.174  -1.863  22.309  0.93 11.78 LIG 0.18  C 
BRANCH 26 27
ATOM     27  C   LEU C 677      17.999  -1.018  22.051  0.42 11.73 LIG 0.20  C 
ATOM     28 O    LEU C 677      17.796   0.065  22.694  0.84 11.50 LIG-0.65  OA
ATOM     29 OXT  LEU C 677      17.137  -1.372  21.195  0.55 11.71 LIG-0.65  OA
ENDBRANCH 26 27
BRANCH 26 30
ATOM     30  CB  LEU C 677      19.205  -3.356  22.134  1.00 11.60 LIG 0.04  C 
BRANCH 30 31
ATOM     31  CG  LEU C 677      19.361  -4.340  23.254  0.82 11.89 LIG-0.02  C 
ATOM     32  CD2 LEU C 677      18.735  -3.855  24.569  0.78 11.63 LIG 0.01  C 
ATOM     33  CD1 LEU C 677      20.872  -4.575  23.529  1.00 11.42 LIG 0.01  C 
ENDBRANCH 30 31
ENDBRANCH 26 30
ENDBRANCH 24 26
ENDBRANCH 20 22
ENDBRANCH 3 20
TORSDOF 12
ENDMDL
MODEL 10
USER: ADFR SOLUTION from run 113
USER: SCORE 11.955038 LL:  -2.185 LR: -11.054 RR:   0.000 FEB:  -7.475
USER: RMSD 7.547233
USER: SEED 112
USER: STATUS no improvement in best 10 clusters for 5 generations
USER: GENES 14
USER: genes 0 Translation |==|  0.55570 0.42489 0.58740
USER: genes 1 Rotation |==|  0.63576 0.24854 0.29334 0.85444
USER: genes 2 Torsion [N]-C--CA-[N] |==|  0.75722
USER: genes 3 Torsion [C]-CA--CB-[CG] |==|  0.30499
USER: genes 4 Torsion [CA]-CB--CG-[CD1] |==|  0.81242
USER: genes 5 Torsion [C]-CA--N-[C] |==|  0.87243
USER: genes 6 Torsion [N]-C--CA-[N] |==|  0.98746
USER: genes 7 Torsion [C]-CA--N-[H3] |==|  0.99273
USER: genes 8 Torsion [C]-N--CA-[CB] |==|  0.13765
USER: genes 9 Torsion [N]-CA--C-[N] |==|  0.12778
USER: genes 10 Torsion [C]-N--CA-[C] |==|  0.60898
USER: genes 11 Torsion [N]-CA--C-[O] |==|  0.46560
USER: genes 12 Torsion [N]-CA--CB-[CG] |==|  0.70116
USER: genes 13 Torsion [CA]-CB--CG-[CD2] |==|  0.78569
ROOT
ATOM      1  C   LEU C 675      28.291   0.437  22.692  1.00 14.56 LIG 0.24  C 
ATOM      2 O    LEU C 675      27.509   0.094  23.600  0.66 14.97 LIG-0.27  OA
ATOM      3  N   ALA C 676      27.947   1.362  21.796  0.83 13.84 LIG-0.35  N 
ATOM      4 H    ALA C 676      28.476   1.607  21.164  0.83 13.84 LIG 0.16  HD
ENDROOT
BRANCH 1 5
ATOM      5  CA  LEU C 675      29.664  -0.155  22.492  0.78 15.17 LIG 0.18  C 
BRANCH 5 6
ATOM      6  CB  LEU C 675      30.737   0.815  21.948  0.53 15.14 LIG 0.04  C 
BRANCH 6 7
ATOM      7  CG  LEU C 675      31.877   1.318  22.757  0.32 15.05 LIG-0.02  C 
ATOM      8  CD1 LEU C 675      31.479   2.253  23.900  0.18 15.17 LIG 0.01  C 
ATOM      9  CD2 LEU C 675      32.575   0.078  23.375  0.37 15.02 LIG 0.01  C 
ENDBRANCH 6 7
ENDBRANCH 5 6
BRANCH 5 10
ATOM     10  N   LEU C 675      29.690  -1.289  21.595  0.88 15.36 LIG-0.35  N 
ATOM     11 H    LEU C 675      30.333  -1.227  21.027  0.88 15.36 LIG 0.16  HD
ATOM     12  C   ALA C 674      28.867  -2.331  21.578  0.61 16.05 LIG 0.25  C 
ATOM     13 O    ALA C 674      27.881  -2.401  22.321  0.70 15.91 LIG-0.27  OA
BRANCH 12 14
ATOM     14  CA  ALA C 674      29.244  -3.373  20.549  0.67 16.10 LIG 0.27  C 
ATOM     15  CB  ALA C 674      29.329  -4.766  21.080  0.67 16.22 LIG 0.05  C 
BRANCH 14 16
ATOM     16  N   ALA C 674      30.370  -3.004  19.695  0.74 16.71 LIG-0.07  N 
ATOM     17 H1   ALA C 674      31.039  -3.576  19.822  0.74 16.71 LIG 0.28  HD
ATOM     18 H2   ALA C 674      30.117  -3.028  18.842  0.74 16.71 LIG 0.28  HD
ATOM     19 H3   ALA C 674      30.641  -2.181  19.900  0.74 16.71 LIG 0.28  HD
ENDBRANCH 14 16
ENDBRANCH 12 14
ENDBRANCH 5 10
ENDBRANCH 1 5
BRANCH 3 20
ATOM     20  CA  ALA C 676      26.658   2.067  21.768  1.00 13.04 LIG 0.17  C 
ATOM     21  CB  ALA C 676      26.323   2.620  23.137  0.89 13.68 LIG 0.04  C 
BRANCH 20 22
ATOM     22  C   ALA C 676      26.604   3.077  20.645  0.69 12.60 LIG 0.24  C 
ATOM     23 O    ALA C 676      26.245   4.260  20.820  0.52 12.22 LIG-0.27  OA
ATOM     24  N   LEU C 677      27.046   2.626  19.465  0.89 12.12 LIG-0.34  N 
ATOM     25 H    LEU C 677      27.300   1.815  19.334  0.89 12.12 LIG 0.16  HD
BRANCH 24 26
ATOM     26  CA  LEU C 677      27.139   3.466  18.285  0.93 11.78 LIG 0.18  C 
BRANCH 26 27
ATOM     27  C   LEU C 677      26.781   2.925  16.965  0.42 11.73 LIG 0.20  C 
ATOM     28 O    LEU C 677      26.626   3.681  15.949  0.84 11.50 LIG-0.65  OA
ATOM     29 OXT  LEU C 677      26.588   1.684  16.818  0.55 11.71 LIG-0.65  OA
ENDBRANCH 26 27
BRANCH 26 30
ATOM     30  CB  LEU C 677      28.121   4.581  18.511  1.00 11.60 LIG 0.04  C 
BRANCH 30 31
ATOM     31  CG  LEU C 677      27.746   6.018  18.710  0.82 11.89 LIG-0.02  C 
ATOM     32  CD2 LEU C 677      27.369   6.725  17.401  0.78 11.63 LIG 0.01  C 
ATOM     33  CD1 LEU C 677      28.952   6.789  19.313  1.00 11.42 LIG 0.01  C 
ENDBRANCH 30 31
ENDBRANCH 26 30
ENDBRANCH 24 26
ENDBRANCH 20 22
ENDBRANCH 3 20
TORSDOF 12
ENDMDL
MODEL 11
USER: ADFR SOLUTION from run 137
USER: SCORE 12.038151 LL:  -2.634 LR: -11.001 RR:   0.000 FEB:  -7.421
USER: RMSD 5.102425
USER: SEED 136
USER: STATUS no improvement in best 13 clusters for 5 generations
USER: GENES 14
USER: genes 0 Translation |==|  0.52083 0.51317 0.42653
USER: genes 1 Rotation |==|  0.67112 0.91149 0.31951 0.63718
USER: genes 2 Torsion [N]-C--CA-[N] |==|  0.83571
USER: genes 3 Torsion [C]-CA--CB-[CG] |==|  0.11162
USER: genes 4 Torsion [CA]-CB--CG-[CD1] |==|  0.17788
USER: genes 5 Torsion [C]-CA--N-[C] |==|  0.18342
USER: genes 6 Torsion [N]-C--CA-[N] |==|  0.72652
USER: genes 7 Torsion [C]-CA--N-[H3] |==|  0.24316
USER: genes 8 Torsion [C]-N--CA-[CB] |==|  0.21034
USER: genes 9 Torsion [N]-CA--C-[N] |==|  0.90253
USER: genes 10 Torsion [C]-N--CA-[C] |==|  0.11716
USER: genes 11 Torsion [N]-CA--C-[O] |==|  0.23626
USER: genes 12 Torsion [N]-CA--CB-[CG] |==|  0.72779
USER: genes 13 Torsion [CA]-CB--CG-[CD2] |==|  0.92345
ROOT
ATOM      1  C   LEU C 675      27.245   3.085  17.866  1.00 14.56 LIG 0.24  C 
ATOM      2 O    LEU C 675      27.311   2.656  16.698  0.66 14.97 LIG-0.27  OA
ATOM      3  N   ALA C 676      27.776   2.407  18.883  0.83 13.84 LIG-0.35  N 
ATOM      4 H    ALA C 676      27.737   2.691  19.694  0.83 13.84 LIG 0.16  HD
ENDROOT
BRANCH 1 5
ATOM      5  CA  LEU C 675      26.558   4.371  18.255  0.78 15.17 LIG 0.18  C 
BRANCH 5 6
ATOM      6  CB  LEU C 675      27.465   5.448  18.891  0.53 15.14 LIG 0.04  C 
BRANCH 6 7
ATOM      7  CG  LEU C 675      28.843   5.744  18.421  0.32 15.05 LIG-0.02  C 
ATOM      8  CD1 LEU C 675      28.922   6.293  16.996  0.18 15.17 LIG 0.01  C 
ATOM      9  CD2 LEU C 675      29.427   6.814  19.379  0.37 15.02 LIG 0.01  C 
ENDBRANCH 6 7
ENDBRANCH 5 6
BRANCH 5 10
ATOM     10  N   LEU C 675      25.469   4.193  19.192  0.88 15.36 LIG-0.35  N 
ATOM     11 H    LEU C 675      24.712   4.395  18.837  0.88 15.36 LIG 0.16  HD
ATOM     12  C   ALA C 674      25.539   3.778  20.450  0.61 16.05 LIG 0.25  C 
ATOM     13 O    ALA C 674      26.620   3.569  21.014  0.70 15.91 LIG-0.27  OA
BRANCH 12 14
ATOM     14  CA  ALA C 674      24.185   3.632  21.108  0.67 16.10 LIG 0.27  C 
ATOM     15  CB  ALA C 674      23.101   3.159  20.197  0.67 16.22 LIG 0.05  C 
BRANCH 14 16
ATOM     16  N   ALA C 674      23.792   4.763  21.945  0.74 16.71 LIG-0.07  N 
ATOM     17 H1   ALA C 674      23.239   4.483  22.583  0.74 16.71 LIG 0.28  HD
ATOM     18 H2   ALA C 674      24.516   5.123  22.317  0.74 16.71 LIG 0.28  HD
ATOM     19 H3   ALA C 674      23.382   5.375  21.445  0.74 16.71 LIG 0.28  HD
ENDBRANCH 14 16
ENDBRANCH 12 14
ENDBRANCH 5 10
ENDBRANCH 1 5
BRANCH 3 20
ATOM     20  CA  ALA C 676      28.477   1.121  18.761  1.00 13.04 LIG 0.17  C 
ATOM     21  CB  ALA C 676      29.866   1.323  18.195  0.89 13.68 LIG 0.04  C 
BRANCH 20 22
ATOM     22  C   ALA C 676      28.427   0.338  20.054  0.69 12.60 LIG 0.24  C 
ATOM     23 O    ALA C 676      28.412  -0.910  20.085  0.52 12.22 LIG-0.27  OA
ATOM     24  N   LEU C 677      28.479   1.086  21.163  0.89 12.12 LIG-0.34  N 
ATOM     25 H    LEU C 677      28.495   1.946  21.152  0.89 12.12 LIG 0.16  HD
BRANCH 24 26
ATOM     26  CA  LEU C 677      28.514   0.516  22.496  0.93 11.78 LIG 0.18  C 
BRANCH 26 27
ATOM     27  C   LEU C 677      29.356  -0.657  22.775  0.42 11.73 LIG 0.20  C 
ATOM     28 O    LEU C 677      30.592  -0.542  23.070  0.84 11.50 LIG-0.65  OA
ATOM     29 OXT  LEU C 677      28.870  -1.822  22.695  0.55 11.71 LIG-0.65  OA
ENDBRANCH 26 27
BRANCH 26 30
ATOM     30  CB  LEU C 677      27.258   0.860  23.247  1.00 11.60 LIG 0.04  C 
BRANCH 30 31
ATOM     31  CG  LEU C 677      27.136   1.986  24.230  0.82 11.89 LIG-0.02  C 
ATOM     32  CD2 LEU C 677      28.468   2.332  24.911  0.78 11.63 LIG 0.01  C 
ATOM     33  CD1 LEU C 677      26.140   1.586  25.353  1.00 11.42 LIG 0.01  C 
ENDBRANCH 30 31
ENDBRANCH 26 30
ENDBRANCH 24 26
ENDBRANCH 20 22
ENDBRANCH 3 20
TORSDOF 12
ENDMDL
MODEL 12
USER: ADFR SOLUTION from run 27
USER: SCORE 12.100461 LL:  -2.065 LR: -10.980 RR:   0.000 FEB:  -7.401
USER: RMSD 7.987444
USER: SEED 26
USER: STATUS no improvement in best 5 clusters for 5 generations
USER: GENES 14
USER: genes 0 Translation |==|  0.45582 0.46927 0.56721
USER: genes 1 Rotation |==|  0.04643 0.69001 0.46871 0.58483
USER: genes 2 Torsion [N]-C--CA-[N] |==|  0.23943
USER: genes 3 Torsion [C]-CA--CB-[CG] |==|  0.25923
USER: genes 4 Torsion [CA]-CB--CG-[CD1] |==|  0.74541
USER: genes 5 Torsion [C]-CA--N-[C] |==|  0.56934
USER: genes 6 Torsion [N]-C--CA-[N] |==|  0.32335
USER: genes 7 Torsion [C]-CA--N-[H3] |==|  0.50056
USER: genes 8 Torsion [C]-N--CA-[CB] |==|  0.50000
USER: genes 9 Torsion [N]-CA--C-[N] |==|  0.45453
USER: genes 10 Torsion [C]-N--CA-[C] |==|  0.31187
USER: genes 11 Torsion [N]-CA--C-[O] |==|  0.85979
USER: genes 12 Torsion [N]-CA--CB-[CG] |==|  0.58381
USER: genes 13 Torsion [CA]-CB--CG-[CD2] |==|  0.82477
ROOT
ATOM      1  C   LEU C 675      25.295   1.768  22.086  1.00 14.56 LIG 0.24  C 
ATOM      2 O    LEU C 675      25.776   1.397  20.998  0.66 14.97 LIG-0.27  OA
ATOM      3  N   ALA C 676      24.636   2.922  22.194  0.83 13.84 LIG-0.35  N 
ATOM      4 H    ALA C 676      24.299   3.190  22.938  0.83 13.84 LIG 0.16  HD
ENDROOT
BRANCH 1 5
ATOM      5  CA  LEU C 675      25.419   0.990  23.373  0.78 15.17 LIG 0.18  C 
BRANCH 5 6
ATOM      6  CB  LEU C 675      26.660   0.077  23.486  0.53 15.14 LIG 0.04  C 
BRANCH 6 7
ATOM      7  CG  LEU C 675      27.938   0.501  24.112  0.32 15.05 LIG-0.02  C 
ATOM      8  CD1 LEU C 675      28.951   1.107  23.138  0.18 15.17 LIG 0.01  C 
ATOM      9  CD2 LEU C 675      27.588   1.580  25.169  0.37 15.02 LIG 0.01  C 
ENDBRANCH 6 7
ENDBRANCH 5 6
BRANCH 5 10
ATOM     10  N   LEU C 675      24.289   0.129  23.649  0.88 15.36 LIG-0.35  N 
ATOM     11 H    LEU C 675      23.879  -0.093  22.926  0.88 15.36 LIG 0.16  HD
ATOM     12  C   ALA C 674      23.871  -0.310  24.829  0.61 16.05 LIG 0.25  C 
ATOM     13 O    ALA C 674      24.386   0.065  25.889  0.70 15.91 LIG-0.27  OA
BRANCH 12 14
ATOM     14  CA  ALA C 674      22.702  -1.265  24.732  0.67 16.10 LIG 0.27  C 
ATOM     15  CB  ALA C 674      21.408  -0.712  25.232  0.67 16.22 LIG 0.05  C 
BRANCH 14 16
ATOM     16  N   ALA C 674      22.982  -2.617  25.209  0.74 16.71 LIG-0.07  N 
ATOM     17 H1   ALA C 674      23.646  -2.969  24.731  0.74 16.71 LIG 0.28  HD
ATOM     18 H2   ALA C 674      23.217  -2.587  26.067  0.74 16.71 LIG 0.28  HD
ATOM     19 H3   ALA C 674      22.253  -3.121  25.119  0.74 16.71 LIG 0.28  HD
ENDBRANCH 14 16
ENDBRANCH 12 14
ENDBRANCH 5 10
ENDBRANCH 1 5
BRANCH 3 20
ATOM     20  CA  ALA C 676      24.402   3.862  21.089  1.00 13.04 LIG 0.17  C 
ATOM     21  CB  ALA C 676      23.621   5.066  21.570  0.89 13.68 LIG 0.04  C 
BRANCH 20 22
ATOM     22  C   ALA C 676      25.685   4.190  20.360  0.69 12.60 LIG 0.24  C 
ATOM     23 O    ALA C 676      26.811   3.893  20.812  0.52 12.22 LIG-0.27  OA
ATOM     24  N   LEU C 677      25.517   4.751  19.156  0.89 12.12 LIG-0.34  N 
ATOM     25 H    LEU C 677      24.747   4.954  18.833  0.89 12.12 LIG 0.16  HD
BRANCH 24 26
ATOM     26  CA  LEU C 677      26.625   5.072  18.276  0.93 11.78 LIG 0.18  C 
BRANCH 26 27
ATOM     27  C   LEU C 677      26.801   4.338  17.014  0.42 11.73 LIG 0.20  C 
ATOM     28 O    LEU C 677      26.796   3.063  16.972  0.84 11.50 LIG-0.65  OA
ATOM     29 OXT  LEU C 677      26.993   4.968  15.934  0.55 11.71 LIG-0.65  OA
ENDBRANCH 26 27
BRANCH 26 30
ATOM     30  CB  LEU C 677      27.742   5.713  19.051  1.00 11.60 LIG 0.04  C 
BRANCH 30 31
ATOM     31  CG  LEU C 677      28.701   6.718  18.487  0.82 11.89 LIG-0.02  C 
ATOM     32  CD2 LEU C 677      29.563   6.150  17.351  0.78 11.63 LIG 0.01  C 
ATOM     33  CD1 LEU C 677      29.673   7.189  19.604  1.00 11.42 LIG 0.01  C 
ENDBRANCH 30 31
ENDBRANCH 26 30
ENDBRANCH 24 26
ENDBRANCH 20 22
ENDBRANCH 3 20
TORSDOF 12
ENDMDL
MODEL 13
USER: ADFR SOLUTION from run 55
USER: SCORE 12.687804 LL:  -2.384 LR: -10.880 RR:   0.000 FEB:  -7.300
USER: RMSD 6.958157
USER: SEED 54
USER: STATUS no improvement in best 8 clusters for 5 generations
USER: GENES 14
USER: genes 0 Translation |==|  0.53116 0.44502 0.57314
USER: genes 1 Rotation |==|  0.71207 0.22866 0.32474 0.81731
USER: genes 2 Torsion [N]-C--CA-[N] |==|  0.85762
USER: genes 3 Torsion [C]-CA--CB-[CG] |==|  0.48548
USER: genes 4 Torsion [CA]-CB--CG-[CD1] |==|  0.18875
USER: genes 5 Torsion [C]-CA--N-[C] |==|  0.77645
USER: genes 6 Torsion [N]-C--CA-[N] |==|  0.36471
USER: genes 7 Torsion [C]-CA--N-[H3] |==|  0.06767
USER: genes 8 Torsion [C]-N--CA-[CB] |==|  0.13542
USER: genes 9 Torsion [N]-CA--C-[N] |==|  0.07222
USER: genes 10 Torsion [C]-N--CA-[C] |==|  0.68816
USER: genes 11 Torsion [N]-CA--C-[O] |==|  0.94462
USER: genes 12 Torsion [N]-CA--CB-[CG] |==|  0.38109
USER: genes 13 Torsion [CA]-CB--CG-[CD2] |==|  0.87781
ROOT
ATOM      1  C   LEU C 675      27.555   1.041  22.264  1.00 14.56 LIG 0.24  C 
ATOM      2 O    LEU C 675      26.630   0.438  22.843  0.66 14.97 LIG-0.27  OA
ATOM      3  N   ALA C 676      27.308   2.059  21.440  0.83 13.84 LIG-0.35  N 
ATOM      4 H    ALA C 676      27.936   2.483  21.034  0.83 13.84 LIG 0.16  HD
ENDROOT
BRANCH 1 5
ATOM      5  CA  LEU C 675      29.014   0.684  22.407  0.78 15.17 LIG 0.18  C 
BRANCH 5 6
ATOM      6  CB  LEU C 675      29.878   1.702  23.183  0.53 15.14 LIG 0.04  C 
BRANCH 6 7
ATOM      7  CG  LEU C 675      31.306   1.477  23.524  0.32 15.05 LIG-0.02  C 
ATOM      8  CD1 LEU C 675      32.251   1.463  22.321  0.18 15.17 LIG 0.01  C 
ATOM      9  CD2 LEU C 675      31.737   2.639  24.457  0.37 15.02 LIG 0.01  C 
ENDBRANCH 6 7
ENDBRANCH 5 6
BRANCH 5 10
ATOM     10  N   LEU C 675      29.696   0.492  21.146  0.88 15.36 LIG-0.35  N 
ATOM     11 H    LEU C 675      30.146   1.190  20.922  0.88 15.36 LIG 0.16  HD
ATOM     12  C   ALA C 674      29.685  -0.586  20.372  0.61 16.05 LIG 0.25  C 
ATOM     13 O    ALA C 674      28.976  -1.567  20.623  0.70 15.91 LIG-0.27  OA
BRANCH 12 14
ATOM     14  CA  ALA C 674      30.584  -0.462  19.161  0.67 16.10 LIG 0.27  C 
ATOM     15  CB  ALA C 674      29.893   0.000  17.921  0.67 16.22 LIG 0.05  C 
BRANCH 14 16
ATOM     16  N   ALA C 674      31.470  -1.604  18.945  0.74 16.71 LIG-0.07  N 
ATOM     17 H1   ALA C 674      31.565  -1.745  18.072  0.74 16.71 LIG 0.28  HD
ATOM     18 H2   ALA C 674      32.266  -1.435  19.306  0.74 16.71 LIG 0.28  HD
ATOM     19 H3   ALA C 674      31.120  -2.328  19.326  0.74 16.71 LIG 0.28  HD
ENDBRANCH 14 16
ENDBRANCH 12 14
ENDBRANCH 5 10
ENDBRANCH 1 5
BRANCH 3 20
ATOM     20  CA  ALA C 676      25.970   2.579  21.122  1.00 13.04 LIG 0.17  C 
ATOM     21  CB  ALA C 676      25.173   2.806  22.389  0.89 13.68 LIG 0.04  C 
BRANCH 20 22
ATOM     22  C   ALA C 676      26.046   3.772  20.197  0.69 12.60 LIG 0.24  C 
ATOM     23 O    ALA C 676      25.194   4.685  20.206  0.52 12.22 LIG-0.27  OA
ATOM     24  N   LEU C 677      27.138   3.812  19.424  0.89 12.12 LIG-0.34  N 
ATOM     25 H    LEU C 677      27.733   3.191  19.414  0.89 12.12 LIG 0.16  HD
BRANCH 24 26
ATOM     26  CA  LEU C 677      27.424   4.912  18.522  0.93 11.78 LIG 0.18  C 
BRANCH 26 27
ATOM     27  C   LEU C 677      27.388   4.701  17.068  0.42 11.73 LIG 0.20  C 
ATOM     28 O    LEU C 677      27.483   3.537  16.554  0.84 11.50 LIG-0.65  OA
ATOM     29 OXT  LEU C 677      27.292   5.690  16.285  0.55 11.71 LIG-0.65  OA
ENDBRANCH 26 27
BRANCH 26 30
ATOM     30  CB  LEU C 677      28.265   5.950  19.212  1.00 11.60 LIG 0.04  C 
BRANCH 30 31
ATOM     31  CG  LEU C 677      29.438   6.645  18.591  0.82 11.89 LIG-0.02  C 
ATOM     32  CD2 LEU C 677      30.360   5.690  17.820  0.78 11.63 LIG 0.01  C 
ATOM     33  CD1 LEU C 677      30.296   7.307  19.704  1.00 11.42 LIG 0.01  C 
ENDBRANCH 30 31
ENDBRANCH 26 30
ENDBRANCH 24 26
ENDBRANCH 20 22
ENDBRANCH 3 20
TORSDOF 12
ENDMDL
MODEL 14
USER: ADFR SOLUTION from run 110
USER: SCORE 12.099227 LL:  -2.095 LR: -10.812 RR:   0.000 FEB:  -7.233
USER: RMSD 7.149591
USER: SEED 109
USER: STATUS no improvement in best 14 clusters for 5 generations
USER: GENES 14
USER: genes 0 Translation |==|  0.56924 0.42665 0.59234
USER: genes 1 Rotation |==|  0.11613 0.50825 0.59799 0.80491
USER: genes 2 Torsion [N]-C--CA-[N] |==|  0.28305
USER: genes 3 Torsion [C]-CA--CB-[CG] |==|  0.92613
USER: genes 4 Torsion [CA]-CB--CG-[CD1] |==|  0.27219
USER: genes 5 Torsion [C]-CA--N-[C] |==|  0.77314
USER: genes 6 Torsion [N]-C--CA-[N] |==|  0.03461
USER: genes 7 Torsion [C]-CA--N-[H3] |==|  0.24617
USER: genes 8 Torsion [C]-N--CA-[CB] |==|  0.77245
USER: genes 9 Torsion [N]-CA--C-[N] |==|  0.53889
USER: genes 10 Torsion [C]-N--CA-[C] |==|  0.79934
USER: genes 11 Torsion [N]-CA--C-[O] |==|  0.01507
USER: genes 12 Torsion [N]-CA--CB-[CG] |==|  0.72590
USER: genes 13 Torsion [CA]-CB--CG-[CD2] |==|  0.99385
ROOT
ATOM      1  C   LEU C 675      28.697   0.490  22.840  1.00 14.56 LIG 0.24  C 
ATOM      2 O    LEU C 675      28.896   1.521  22.169  0.66 14.97 LIG-0.27  OA
ATOM      3  N   ALA C 676      27.593   0.343  23.573  0.83 13.84 LIG-0.35  N 
ATOM      4 H    ALA C 676      27.444  -0.363  24.041  0.83 13.84 LIG 0.16  HD
ENDROOT
BRANCH 1 5
ATOM      5  CA  LEU C 675      29.664  -0.666  22.918  0.78 15.17 LIG 0.18  C 
BRANCH 5 6
ATOM      6  CB  LEU C 675      31.153  -0.284  23.070  0.53 15.14 LIG 0.04  C 
BRANCH 6 7
ATOM      7  CG  LEU C 675      31.725   1.000  22.589  0.32 15.05 LIG-0.02  C 
ATOM      8  CD1 LEU C 675      31.870   2.073  23.670  0.18 15.17 LIG 0.01  C 
ATOM      9  CD2 LEU C 675      33.139   0.686  22.036  0.37 15.02 LIG 0.01  C 
ENDBRANCH 6 7
ENDBRANCH 5 6
BRANCH 5 10
ATOM     10  N   LEU C 675      29.616  -1.548  21.772  0.88 15.36 LIG-0.35  N 
ATOM     11 H    LEU C 675      30.240  -1.368  21.209  0.88 15.36 LIG 0.16  HD
ATOM     12  C   ALA C 674      28.755  -2.532  21.539  0.61 16.05 LIG 0.25  C 
ATOM     13 O    ALA C 674      27.794  -2.753  22.284  0.70 15.91 LIG-0.27  OA
BRANCH 12 14
ATOM     14  CA  ALA C 674      29.056  -3.303  20.273  0.67 16.10 LIG 0.27  C 
ATOM     15  CB  ALA C 674      28.724  -4.757  20.339  0.67 16.22 LIG 0.05  C 
BRANCH 14 16
ATOM     16  N   ALA C 674      30.370  -3.030  19.695  0.74 16.71 LIG-0.07  N 
ATOM     17 H1   ALA C 674      30.338  -3.152  18.814  0.74 16.71 LIG 0.28  HD
ATOM     18 H2   ALA C 674      30.603  -2.188  19.870  0.74 16.71 LIG 0.28  HD
ATOM     19 H3   ALA C 674      30.971  -3.583  20.049  0.74 16.71 LIG 0.28  HD
ENDBRANCH 14 16
ENDBRANCH 12 14
ENDBRANCH 5 10
ENDBRANCH 1 5
BRANCH 3 20
ATOM     20  CA  ALA C 676      26.515   1.337  23.677  1.00 13.04 LIG 0.17  C 
ATOM     21  CB  ALA C 676      26.873   2.406  24.687  0.89 13.68 LIG 0.04  C 
BRANCH 20 22
ATOM     22  C   ALA C 676      26.110   1.858  22.317  0.69 12.60 LIG 0.24  C 
ATOM     23 O    ALA C 676      26.395   1.265  21.257  0.52 12.22 LIG-0.27  OA
ATOM     24  N   LEU C 677      25.354   2.963  22.345  0.89 12.12 LIG-0.34  N 
ATOM     25 H    LEU C 677      25.147   3.376  23.070  0.89 12.12 LIG 0.16  HD
BRANCH 24 26
ATOM     26  CA  LEU C 677      24.808   3.573  21.147  0.93 11.78 LIG 0.18  C 
BRANCH 26 27
ATOM     27  C   LEU C 677      25.692   4.290  20.216  0.42 11.73 LIG 0.20  C 
ATOM     28 O    LEU C 677      26.958   4.312  20.373  0.84 11.50 LIG-0.65  OA
ATOM     29 OXT  LEU C 677      25.203   4.935  19.245  0.55 11.71 LIG-0.65  OA
ENDBRANCH 26 27
BRANCH 26 30
ATOM     30  CB  LEU C 677      23.344   3.864  21.327  1.00 11.60 LIG 0.04  C 
BRANCH 30 31
ATOM     31  CG  LEU C 677      22.235   2.994  20.819  0.82 11.89 LIG-0.02  C 
ATOM     32  CD2 LEU C 677      22.741   1.776  20.033  0.78 11.63 LIG 0.01  C 
ATOM     33  CD1 LEU C 677      21.334   3.815  19.856  1.00 11.42 LIG 0.01  C 
ENDBRANCH 30 31
ENDBRANCH 26 30
ENDBRANCH 24 26
ENDBRANCH 20 22
ENDBRANCH 3 20
TORSDOF 12
ENDMDL
MODEL 15
USER: ADFR SOLUTION from run 102
USER: SCORE 11.498699 LL:  -2.448 LR: -10.790 RR:   0.000 FEB:  -7.211
USER: RMSD 7.428739
USER: SEED 101
USER: STATUS no improvement in best 9 clusters for 5 generations
USER: GENES 14
USER: genes 0 Translation |==|  0.49468 0.46217 0.55349
USER: genes 1 Rotation |==|  0.68921 0.14013 0.31494 0.72460
USER: genes 2 Torsion [N]-C--CA-[N] |==|  0.95280
USER: genes 3 Torsion [C]-CA--CB-[CG] |==|  0.92671
USER: genes 4 Torsion [CA]-CB--CG-[CD1] |==|  0.30173
USER: genes 5 Torsion [C]-CA--N-[C] |==|  0.52291
USER: genes 6 Torsion [N]-C--CA-[N] |==|  0.47285
USER: genes 7 Torsion [C]-CA--N-[H3] |==|  0.67710
USER: genes 8 Torsion [C]-N--CA-[CB] |==|  0.13669
USER: genes 9 Torsion [N]-CA--C-[N] |==|  0.20545
USER: genes 10 Torsion [C]-N--CA-[C] |==|  0.76773
USER: genes 11 Torsion [N]-CA--C-[O] |==|  0.72703
USER: genes 12 Torsion [N]-CA--CB-[CG] |==|  0.24336
USER: genes 13 Torsion [CA]-CB--CG-[CD2] |==|  0.24748
ROOT
ATOM      1  C   LEU C 675      26.460   1.555  21.675  1.00 14.56 LIG 0.24  C 
ATOM      2 O    LEU C 675      25.242   1.348  21.836  0.66 14.97 LIG-0.27  OA
ATOM      3  N   ALA C 676      26.896   2.535  20.884  0.83 13.84 LIG-0.35  N 
ATOM      4 H    ALA C 676      27.733   2.690  20.763  0.83 13.84 LIG 0.16  HD
ENDROOT
BRANCH 1 5
ATOM      5  CA  LEU C 675      27.549   0.732  22.317  0.78 15.17 LIG 0.18  C 
BRANCH 5 6
ATOM      6  CB  LEU C 675      27.798   1.007  23.817  0.53 15.14 LIG 0.04  C 
BRANCH 6 7
ATOM      7  CG  LEU C 675      27.498   2.304  24.476  0.32 15.05 LIG-0.02  C 
ATOM      8  CD1 LEU C 675      26.298   2.270  25.424  0.18 15.17 LIG 0.01  C 
ATOM      9  CD2 LEU C 675      28.751   2.690  25.304  0.37 15.02 LIG 0.01  C 
ENDBRANCH 6 7
ENDBRANCH 5 6
BRANCH 5 10
ATOM     10  N   LEU C 675      28.843   0.877  21.687  0.88 15.36 LIG-0.35  N 
ATOM     11 H    LEU C 675      28.838   1.504  21.098  0.88 15.36 LIG 0.16  HD
ATOM     12  C   ALA C 674      29.946   0.178  21.925  0.61 16.05 LIG 0.25  C 
ATOM     13 O    ALA C 674      29.958  -0.786  22.698  0.70 15.91 LIG-0.27  OA
BRANCH 12 14
ATOM     14  CA  ALA C 674      31.142   0.661  21.134  0.67 16.10 LIG 0.27  C 
ATOM     15  CB  ALA C 674      30.937   0.690  19.656  0.67 16.22 LIG 0.05  C 
BRANCH 14 16
ATOM     16  N   ALA C 674      32.414   0.065  21.535  0.74 16.71 LIG-0.07  N 
ATOM     17 H1   ALA C 674      32.271  -0.546  22.166  0.74 16.71 LIG 0.28  HD
ATOM     18 H2   ALA C 674      32.797  -0.321  20.830  0.74 16.71 LIG 0.28  HD
ATOM     19 H3   ALA C 674      32.952   0.699  21.853  0.74 16.71 LIG 0.28  HD
ENDBRANCH 14 16
ENDBRANCH 12 14
ENDBRANCH 5 10
ENDBRANCH 1 5
BRANCH 3 20
ATOM     20  CA  ALA C 676      26.032   3.458  20.133  1.00 13.04 LIG 0.17  C 
ATOM     21  CB  ALA C 676      24.966   4.041  21.036  0.89 13.68 LIG 0.04  C 
BRANCH 20 22
ATOM     22  C   ALA C 676      26.844   4.478  19.368  0.69 12.60 LIG 0.24  C 
ATOM     23 O    ALA C 676      26.987   5.655  19.759  0.52 12.22 LIG-0.27  OA
ATOM     24  N   LEU C 677      27.461   4.000  18.281  0.89 12.12 LIG-0.34  N 
ATOM     25 H    LEU C 677      27.374   3.189  18.005  0.89 12.12 LIG 0.16  HD
BRANCH 24 26
ATOM     26  CA  LEU C 677      28.342   4.806  17.457  0.93 11.78 LIG 0.18  C 
BRANCH 26 27
ATOM     27  C   LEU C 677      27.783   5.675  16.411  0.42 11.73 LIG 0.20  C 
ATOM     28 O    LEU C 677      27.745   5.315  15.187  0.84 11.50 LIG-0.65  OA
ATOM     29 OXT  LEU C 677      27.349   6.826  16.705  0.55 11.71 LIG-0.65  OA
ENDBRANCH 26 27
BRANCH 26 30
ATOM     30  CB  LEU C 677      29.720   4.206  17.419  1.00 11.60 LIG 0.04  C 
BRANCH 30 31
ATOM     31  CG  LEU C 677      30.167   3.164  16.439  0.82 11.89 LIG-0.02  C 
ATOM     32  CD2 LEU C 677      30.743   3.763  15.148  0.78 11.63 LIG 0.01  C 
ATOM     33  CD1 LEU C 677      28.953   2.284  16.030  1.00 11.42 LIG 0.01  C 
ENDBRANCH 30 31
ENDBRANCH 26 30
ENDBRANCH 24 26
ENDBRANCH 20 22
ENDBRANCH 3 20
TORSDOF 12
ENDMDL
MODEL 16
USER: ADFR SOLUTION from run 62
USER: SCORE 11.879182 LL:  -2.123 LR: -10.776 RR:   0.000 FEB:  -7.196
USER: RMSD 7.651301
USER: SEED 61
USER: STATUS no improvement in best 7 clusters for 5 generations
USER: GENES 14
USER: genes 0 Translation |==|  0.51615 0.44592 0.51710
USER: genes 1 Rotation |==|  0.84427 0.16019 0.48573 0.62569
USER: genes 2 Torsion [N]-C--CA-[N] |==|  0.81126
USER: genes 3 Torsion [C]-CA--CB-[CG] |==|  0.46480
USER: genes 4 Torsion [CA]-CB--CG-[CD1] |==|  0.28754
USER: genes 5 Torsion [C]-CA--N-[C] |==|  0.64205
USER: genes 6 Torsion [N]-C--CA-[N] |==|  0.78819
USER: genes 7 Torsion [C]-CA--N-[H3] |==|  0.93278
USER: genes 8 Torsion [C]-N--CA-[CB] |==|  0.13590
USER: genes 9 Torsion [N]-CA--C-[N] |==|  0.19218
USER: genes 10 Torsion [C]-N--CA-[C] |==|  0.18592
USER: genes 11 Torsion [N]-CA--C-[O] |==|  0.80735
USER: genes 12 Torsion [N]-CA--CB-[CG] |==|  0.79215
USER: genes 13 Torsion [CA]-CB--CG-[CD2] |==|  0.95366
ROOT
ATOM      1  C   LEU C 675      27.104   1.067  20.583  1.00 14.56 LIG 0.24  C 
ATOM      2 O    LEU C 675      26.472   0.176  19.984  0.66 14.97 LIG-0.27  OA
ATOM      3  N   ALA C 676      27.318   2.259  20.024  0.83 13.84 LIG-0.35  N 
ATOM      4 H    ALA C 676      27.752   2.882  20.425  0.83 13.84 LIG 0.16  HD
ENDROOT
BRANCH 1 5
ATOM      5  CA  LEU C 675      27.704   0.899  21.957  0.78 15.17 LIG 0.18  C 
BRANCH 5 6
ATOM      6  CB  LEU C 675      27.312   1.975  22.994  0.53 15.14 LIG 0.04  C 
BRANCH 6 7
ATOM      7  CG  LEU C 675      27.569   1.845  24.451  0.32 15.05 LIG-0.02  C 
ATOM      8  CD1 LEU C 675      28.748   2.674  24.964  0.18 15.17 LIG 0.01  C 
ATOM      9  CD2 LEU C 675      26.290   2.331  25.181  0.37 15.02 LIG 0.01  C 
ENDBRANCH 6 7
ENDBRANCH 5 6
BRANCH 5 10
ATOM     10  N   LEU C 675      29.151   0.876  21.967  0.88 15.36 LIG-0.35  N 
ATOM     11 H    LEU C 675      29.480   1.547  21.541  0.88 15.36 LIG 0.16  HD
ATOM     12  C   ALA C 674      29.945  -0.025  22.532  0.61 16.05 LIG 0.25  C 
ATOM     13 O    ALA C 674      29.501  -1.046  23.070  0.70 15.91 LIG-0.27  OA
BRANCH 12 14
ATOM     14  CA  ALA C 674      31.414   0.314  22.412  0.67 16.10 LIG 0.27  C 
ATOM     15  CB  ALA C 674      31.794   1.639  22.987  0.67 16.22 LIG 0.05  C 
BRANCH 14 16
ATOM     16  N   ALA C 674      31.988   0.065  21.092  0.74 16.71 LIG-0.07  N 
ATOM     17 H1   ALA C 674      31.982   0.818  20.618  0.74 16.71 LIG 0.28  HD
ATOM     18 H2   ALA C 674      32.826  -0.222  21.181  0.74 16.71 LIG 0.28  HD
ATOM     19 H3   ALA C 674      31.506  -0.554  20.670  0.74 16.71 LIG 0.28  HD
ENDBRANCH 14 16
ENDBRANCH 12 14
ENDBRANCH 5 10
ENDBRANCH 1 5
BRANCH 3 20
ATOM     20  CA  ALA C 676      26.853   2.655  18.687  1.00 13.04 LIG 0.17  C 
ATOM     21  CB  ALA C 676      25.386   2.322  18.513  0.89 13.68 LIG 0.04  C 
BRANCH 20 22
ATOM     22  C   ALA C 676      27.219   4.089  18.377  0.69 12.60 LIG 0.24  C 
ATOM     23 O    ALA C 676      26.376   5.010  18.357  0.52 12.22 LIG-0.27  OA
ATOM     24  N   LEU C 677      28.528   4.307  18.203  0.89 12.12 LIG-0.34  N 
ATOM     25 H    LEU C 677      29.118   3.681  18.220  0.89 12.12 LIG 0.16  HD
BRANCH 24 26
ATOM     26  CA  LEU C 677      29.082   5.627  17.968  0.93 11.78 LIG 0.18  C 
BRANCH 26 27
ATOM     27  C   LEU C 677      29.034   6.646  19.026  0.42 11.73 LIG 0.20  C 
ATOM     28 O    LEU C 677      27.936   7.180  19.396  0.84 11.50 LIG-0.65  OA
ATOM     29 OXT  LEU C 677      30.102   7.041  19.577  0.55 11.71 LIG-0.65  OA
ENDBRANCH 26 27
BRANCH 26 30
ATOM     30  CB  LEU C 677      29.111   5.929  16.495  1.00 11.60 LIG 0.04  C 
BRANCH 30 31
ATOM     31  CG  LEU C 677      30.089   5.338  15.525  0.82 11.89 LIG-0.02  C 
ATOM     32  CD2 LEU C 677      31.312   4.714  16.213  0.78 11.63 LIG 0.01  C 
ATOM     33  CD1 LEU C 677      30.618   6.453  14.581  1.00 11.42 LIG 0.01  C 
ENDBRANCH 30 31
ENDBRANCH 26 30
ENDBRANCH 24 26
ENDBRANCH 20 22
ENDBRANCH 3 20
TORSDOF 12
ENDMDL
MODEL 17
USER: ADFR SOLUTION from run 102
USER: SCORE 11.640036 LL:  -2.945 LR: -10.767 RR:   0.000 FEB:  -7.188
USER: RMSD 7.250959
USER: SEED 101
USER: STATUS no improvement in best 9 clusters for 5 generations
USER: GENES 14
USER: genes 0 Translation |==|  0.49526 0.45879 0.54494
USER: genes 1 Rotation |==|  0.65931 0.12465 0.33295 0.73628
USER: genes 2 Torsion [N]-C--CA-[N] |==|  0.98455
USER: genes 3 Torsion [C]-CA--CB-[CG] |==|  0.90907
USER: genes 4 Torsion [CA]-CB--CG-[CD1] |==|  0.32763
USER: genes 5 Torsion [C]-CA--N-[C] |==|  0.52778
USER: genes 6 Torsion [N]-C--CA-[N] |==|  0.48025
USER: genes 7 Torsion [C]-CA--N-[H3] |==|  0.67854
USER: genes 8 Torsion [C]-N--CA-[CB] |==|  0.20737
USER: genes 9 Torsion [N]-CA--C-[N] |==|  0.86629
USER: genes 10 Torsion [C]-N--CA-[C] |==|  0.67423
USER: genes 11 Torsion [N]-CA--C-[O] |==|  0.07969
USER: genes 12 Torsion [N]-CA--CB-[CG] |==|  0.13895
USER: genes 13 Torsion [CA]-CB--CG-[CD2] |==|  0.11403
ROOT
ATOM      1  C   LEU C 675      26.478   1.454  21.418  1.00 14.56 LIG 0.24  C 
ATOM      2 O    LEU C 675      25.254   1.347  21.630  0.66 14.97 LIG-0.27  OA
ATOM      3  N   ALA C 676      26.948   2.280  20.484  0.83 13.84 LIG-0.35  N 
ATOM      4 H    ALA C 676      27.789   2.364  20.327  0.83 13.84 LIG 0.16  HD
ENDROOT
BRANCH 1 5
ATOM      5  CA  LEU C 675      27.534   0.667  22.154  0.78 15.17 LIG 0.18  C 
BRANCH 5 6
ATOM      6  CB  LEU C 675      27.648   0.954  23.668  0.53 15.14 LIG 0.04  C 
BRANCH 6 7
ATOM      7  CG  LEU C 675      27.384   2.284  24.275  0.32 15.05 LIG-0.02  C 
ATOM      8  CD1 LEU C 675      26.222   2.307  25.271  0.18 15.17 LIG 0.01  C 
ATOM      9  CD2 LEU C 675      28.671   2.700  25.033  0.37 15.02 LIG 0.01  C 
ENDBRANCH 6 7
ENDBRANCH 5 6
BRANCH 5 10
ATOM     10  N   LEU C 675      28.871   0.851  21.633  0.88 15.36 LIG-0.35  N 
ATOM     11 H    LEU C 675      28.901   1.492  21.060  0.88 15.36 LIG 0.16  HD
ATOM     12  C   ALA C 674      29.966   0.167  21.943  0.61 16.05 LIG 0.25  C 
ATOM     13 O    ALA C 674      29.935  -0.816  22.693  0.70 15.91 LIG-0.27  OA
BRANCH 12 14
ATOM     14  CA  ALA C 674      31.211   0.690  21.263  0.67 16.10 LIG 0.27  C 
ATOM     15  CB  ALA C 674      31.102   0.810  19.778  0.67 16.22 LIG 0.05  C 
BRANCH 14 16
ATOM     16  N   ALA C 674      32.454   0.064  21.708  0.74 16.71 LIG-0.07  N 
ATOM     17 H1   ALA C 674      32.268  -0.588  22.284  0.74 16.71 LIG 0.28  HD
ATOM     18 H2   ALA C 674      32.884  -0.274  21.006  0.74 16.71 LIG 0.28  HD
ATOM     19 H3   ALA C 674      32.967   0.673  22.105  0.74 16.71 LIG 0.28  HD
ENDBRANCH 14 16
ENDBRANCH 12 14
ENDBRANCH 5 10
ENDBRANCH 1 5
BRANCH 3 20
ATOM     20  CA  ALA C 676      26.119   3.135  19.623  1.00 13.04 LIG 0.17  C 
ATOM     21  CB  ALA C 676      25.583   4.317  20.403  0.89 13.68 LIG 0.04  C 
BRANCH 20 22
ATOM     22  C   ALA C 676      26.838   3.494  18.342  0.69 12.60 LIG 0.24  C 
ATOM     23 O    ALA C 676      26.282   3.456  17.225  0.52 12.22 LIG-0.27  OA
ATOM     24  N   LEU C 677      28.092   3.932  18.509  0.89 12.12 LIG-0.34  N 
ATOM     25 H    LEU C 677      28.482   3.968  19.275  0.89 12.12 LIG 0.16  HD
BRANCH 24 26
ATOM     26  CA  LEU C 677      28.918   4.391  17.408  0.93 11.78 LIG 0.18  C 
BRANCH 26 27
ATOM     27  C   LEU C 677      30.161   3.680  17.073  0.42 11.73 LIG 0.20  C 
ATOM     28 O    LEU C 677      30.304   2.433  17.302  0.84 11.50 LIG-0.65  OA
ATOM     29 OXT  LEU C 677      31.137   4.308  16.572  0.55 11.71 LIG-0.65  OA
ENDBRANCH 26 27
BRANCH 26 30
ATOM     30  CB  LEU C 677      28.673   5.850  17.141  1.00 11.60 LIG 0.04  C 
BRANCH 30 31
ATOM     31  CG  LEU C 677      28.690   6.921  18.189  0.82 11.89 LIG-0.02  C 
ATOM     32  CD2 LEU C 677      29.825   6.744  19.207  0.78 11.63 LIG 0.01  C 
ATOM     33  CD1 LEU C 677      27.356   6.888  18.984  1.00 11.42 LIG 0.01  C 
ENDBRANCH 30 31
ENDBRANCH 26 30
ENDBRANCH 24 26
ENDBRANCH 20 22
ENDBRANCH 3 20
TORSDOF 12
ENDMDL
MODEL 18
USER: ADFR SOLUTION from run 115
USER: SCORE 11.749287 LL:  -2.305 LR: -10.730 RR:   0.000 FEB:  -7.150
USER: RMSD 3.040103
USER: SEED 114
USER: STATUS no improvement in best 3 clusters for 5 generations
USER: GENES 14
USER: genes 0 Translation |==|  0.46668 0.51977 0.50256
USER: genes 1 Rotation |==|  0.85491 0.54886 0.22439 0.71375
USER: genes 2 Torsion [N]-C--CA-[N] |==|  0.46032
USER: genes 3 Torsion [C]-CA--CB-[CG] |==|  0.44851
USER: genes 4 Torsion [CA]-CB--CG-[CD1] |==|  0.96628
USER: genes 5 Torsion [C]-CA--N-[C] |==|  0.19620
USER: genes 6 Torsion [N]-C--CA-[N] |==|  0.99034
USER: genes 7 Torsion [C]-CA--N-[H3] |==|  0.15454
USER: genes 8 Torsion [C]-N--CA-[CB] |==|  0.80873
USER: genes 9 Torsion [N]-CA--C-[N] |==|  0.22770
USER: genes 10 Torsion [C]-N--CA-[C] |==|  0.82920
USER: genes 11 Torsion [N]-CA--C-[O] |==|  0.10101
USER: genes 12 Torsion [N]-CA--CB-[CG] |==|  0.77967
USER: genes 13 Torsion [CA]-CB--CG-[CD2] |==|  0.38915
ROOT
ATOM      1  C   LEU C 675      25.620   3.283  20.147  1.00 14.56 LIG 0.24  C 
ATOM      2 O    LEU C 675      25.314   2.147  19.737  0.66 14.97 LIG-0.27  OA
ATOM      3  N   ALA C 676      24.898   3.899  21.083  0.83 13.84 LIG-0.35  N 
ATOM      4 H    ALA C 676      25.097   4.682  21.375  0.83 13.84 LIG 0.16  HD
ENDROOT
BRANCH 1 5
ATOM      5  CA  LEU C 675      26.793   4.079  19.631  0.78 15.17 LIG 0.18  C 
BRANCH 5 6
ATOM      6  CB  LEU C 675      26.440   5.277  18.721  0.53 15.14 LIG 0.04  C 
BRANCH 6 7
ATOM      7  CG  LEU C 675      27.373   6.398  18.439  0.32 15.05 LIG-0.02  C 
ATOM      8  CD1 LEU C 675      28.608   6.437  19.341  0.18 15.17 LIG 0.01  C 
ATOM      9  CD2 LEU C 675      27.856   6.227  16.975  0.37 15.02 LIG 0.01  C 
ENDBRANCH 6 7
ENDBRANCH 5 6
BRANCH 5 10
ATOM     10  N   LEU C 675      27.745   3.296  18.873  0.88 15.36 LIG-0.35  N 
ATOM     11 H    LEU C 675      28.482   3.192  19.304  0.88 15.36 LIG 0.16  HD
ATOM     12  C   ALA C 674      27.585   2.770  17.665  0.61 16.05 LIG 0.25  C 
ATOM     13 O    ALA C 674      26.574   2.980  16.986  0.70 15.91 LIG-0.27  OA
BRANCH 12 14
ATOM     14  CA  ALA C 674      28.766   1.939  17.214  0.67 16.10 LIG 0.27  C 
ATOM     15  CB  ALA C 674      28.409   0.584  16.697  0.67 16.22 LIG 0.05  C 
BRANCH 14 16
ATOM     16  N   ALA C 674      29.892   1.931  18.144  0.74 16.71 LIG-0.07  N 
ATOM     17 H1   ALA C 674      30.520   1.375  17.845  0.74 16.71 LIG 0.28  HD
ATOM     18 H2   ALA C 674      30.230   2.752  18.209  0.74 16.71 LIG 0.28  HD
ATOM     19 H3   ALA C 674      29.614   1.660  18.945  0.74 16.71 LIG 0.28  HD
ENDBRANCH 14 16
ENDBRANCH 12 14
ENDBRANCH 5 10
ENDBRANCH 1 5
BRANCH 3 20
ATOM     20  CA  ALA C 676      23.700   3.338  21.724  1.00 13.04 LIG 0.17  C 
ATOM     21  CB  ALA C 676      22.557   3.253  20.735  0.89 13.68 LIG 0.04  C 
BRANCH 20 22
ATOM     22  C   ALA C 676      24.011   2.047  22.446  0.69 12.60 LIG 0.24  C 
ATOM     23 O    ALA C 676      23.861   0.926  21.916  0.52 12.22 LIG-0.27  OA
ATOM     24  N   LEU C 677      24.535   2.201  23.668  0.89 12.12 LIG-0.34  N 
ATOM     25 H    LEU C 677      24.649   2.969  24.040  0.89 12.12 LIG 0.16  HD
BRANCH 24 26
ATOM     26  CA  LEU C 677      24.966   1.084  24.487  0.93 11.78 LIG 0.18  C 
BRANCH 26 27
ATOM     27  C   LEU C 677      23.995   0.065  24.913  0.42 11.73 LIG 0.20  C 
ATOM     28 O    LEU C 677      23.043  -0.315  24.152  0.84 11.50 LIG-0.65  OA
ATOM     29 OXT  LEU C 677      24.069  -0.439  26.070  0.55 11.71 LIG-0.65  OA
ENDBRANCH 26 27
BRANCH 26 30
ATOM     30  CB  LEU C 677      26.215   1.440  25.245  1.00 11.60 LIG 0.04  C 
BRANCH 30 31
ATOM     31  CG  LEU C 677      27.594   1.435  24.660  0.82 11.89 LIG-0.02  C 
ATOM     32  CD2 LEU C 677      28.452   2.615  25.139  0.78 11.63 LIG 0.01  C 
ATOM     33  CD1 LEU C 677      27.500   1.539  23.113  1.00 11.42 LIG 0.01  C 
ENDBRANCH 30 31
ENDBRANCH 26 30
ENDBRANCH 24 26
ENDBRANCH 20 22
ENDBRANCH 3 20
TORSDOF 12
ENDMDL
MODEL 19
USER: ADFR SOLUTION from run 134
USER: SCORE 13.083153 LL:  -2.743 LR: -10.715 RR:   0.000 FEB:  -7.136
USER: RMSD 6.561598
USER: SEED 133
USER: STATUS no improvement in best 8 clusters for 5 generations
USER: GENES 14
USER: genes 0 Translation |==|  0.56142 0.44628 0.60493
USER: genes 1 Rotation |==|  0.14520 0.53711 0.76245 0.73207
USER: genes 2 Torsion [N]-C--CA-[N] |==|  0.32880
USER: genes 3 Torsion [C]-CA--CB-[CG] |==|  0.25387
USER: genes 4 Torsion [CA]-CB--CG-[CD1] |==|  0.83394
USER: genes 5 Torsion [C]-CA--N-[C] |==|  0.72176
USER: genes 6 Torsion [N]-C--CA-[N] |==|  0.24531
USER: genes 7 Torsion [C]-CA--N-[H3] |==|  0.19194
USER: genes 8 Torsion [C]-N--CA-[CB] |==|  0.86071
USER: genes 9 Torsion [N]-CA--C-[N] |==|  0.85450
USER: genes 10 Torsion [C]-N--CA-[C] |==|  0.76373
USER: genes 11 Torsion [N]-CA--C-[O] |==|  0.41229
USER: genes 12 Torsion [N]-CA--CB-[CG] |==|  0.99295
USER: genes 13 Torsion [CA]-CB--CG-[CD2] |==|  0.52921
ROOT
ATOM      1  C   LEU C 675      28.463   1.078  23.218  1.00 14.56 LIG 0.24  C 
ATOM      2 O    LEU C 675      27.850   1.907  22.516  0.66 14.97 LIG-0.27  OA
ATOM      3  N   ALA C 676      28.081   0.813  24.467  0.83 13.84 LIG-0.35  N 
ATOM      4 H    ALA C 676      28.495   0.245  24.962  0.83 13.84 LIG 0.16  HD
ENDROOT
BRANCH 1 5
ATOM      5  CA  LEU C 675      29.683   0.320  22.757  0.78 15.17 LIG 0.18  C 
BRANCH 5 6
ATOM      6  CB  LEU C 675      30.893   1.187  22.344  0.53 15.14 LIG 0.04  C 
BRANCH 6 7
ATOM      7  CG  LEU C 675      31.972   1.592  23.281  0.32 15.05 LIG-0.02  C 
ATOM      8  CD1 LEU C 675      31.495   2.414  24.480  0.18 15.17 LIG 0.01  C 
ATOM      9  CD2 LEU C 675      32.615   0.288  23.820  0.37 15.02 LIG 0.01  C 
ENDBRANCH 6 7
ENDBRANCH 5 6
BRANCH 5 10
ATOM     10  N   LEU C 675      29.439  -0.551  21.627  0.88 15.36 LIG-0.35  N 
ATOM     11 H    LEU C 675      29.430  -0.113  20.888  0.88 15.36 LIG 0.16  HD
ATOM     12  C   ALA C 674      29.245  -1.864  21.641  0.61 16.05 LIG 0.25  C 
ATOM     13 O    ALA C 674      29.162  -2.504  22.695  0.70 15.91 LIG-0.27  OA
BRANCH 12 14
ATOM     14  CA  ALA C 674      29.103  -2.462  20.259  0.67 16.10 LIG 0.27  C 
ATOM     15  CB  ALA C 674      28.026  -3.488  20.135  0.67 16.22 LIG 0.05  C 
BRANCH 14 16
ATOM     16  N   ALA C 674      30.363  -2.860  19.638  0.74 16.71 LIG-0.07  N 
ATOM     17 H1   ALA C 674      30.220  -3.077  18.787  0.74 16.71 LIG 0.28  HD
ATOM     18 H2   ALA C 674      30.941  -2.185  19.678  0.74 16.71 LIG 0.28  HD
ATOM     19 H3   ALA C 674      30.698  -3.563  20.070  0.74 16.71 LIG 0.28  HD
ENDBRANCH 14 16
ENDBRANCH 12 14
ENDBRANCH 5 10
ENDBRANCH 1 5
BRANCH 3 20
ATOM     20  CA  ALA C 676      26.938   1.438  25.148  1.00 13.04 LIG 0.17  C 
ATOM     21  CB  ALA C 676      26.998   2.945  25.015  0.89 13.68 LIG 0.04  C 
BRANCH 20 22
ATOM     22  C   ALA C 676      25.630   0.815  24.716  0.69 12.60 LIG 0.24  C 
ATOM     23 O    ALA C 676      24.762   0.440  25.531  0.52 12.22 LIG-0.27  OA
ATOM     24  N   LEU C 677      25.442   0.770  23.392  0.89 12.12 LIG-0.34  N 
ATOM     25 H    LEU C 677      26.031   1.030  22.822  0.89 12.12 LIG 0.16  HD
BRANCH 24 26
ATOM     26  CA  LEU C 677      24.220   0.273  22.786  0.93 11.78 LIG 0.18  C 
BRANCH 26 27
ATOM     27  C   LEU C 677      24.047  -1.167  22.549  0.42 11.73 LIG 0.20  C 
ATOM     28 O    LEU C 677      22.900  -1.723  22.596  0.84 11.50 LIG-0.65  OA
ATOM     29 OXT  LEU C 677      25.053  -1.899  22.320  0.55 11.71 LIG-0.65  OA
ENDBRANCH 26 27
BRANCH 26 30
ATOM     30  CB  LEU C 677      23.558   1.355  21.979  1.00 11.60 LIG 0.04  C 
BRANCH 30 31
ATOM     31  CG  LEU C 677      24.061   2.763  21.870  0.82 11.89 LIG-0.02  C 
ATOM     32  CD2 LEU C 677      23.055   3.707  21.195  0.78 11.63 LIG 0.01  C 
ATOM     33  CD1 LEU C 677      25.354   2.785  21.009  1.00 11.42 LIG 0.01  C 
ENDBRANCH 30 31
ENDBRANCH 26 30
ENDBRANCH 24 26
ENDBRANCH 20 22
ENDBRANCH 3 20
TORSDOF 12
ENDMDL
MODEL 20
USER: ADFR SOLUTION from run 132
USER: SCORE 12.384132 LL:  -2.108 LR: -10.663 RR:   0.000 FEB:  -7.083
USER: RMSD 7.237124
USER: SEED 131
USER: STATUS no improvement in best 14 clusters for 5 generations
USER: GENES 14
USER: genes 0 Translation |==|  0.47273 0.47938 0.55638
USER: genes 1 Rotation |==|  0.21001 0.33623 0.27710 0.79900
USER: genes 2 Torsion [N]-C--CA-[N] |==|  0.35148
USER: genes 3 Torsion [C]-CA--CB-[CG] |==|  0.18634
USER: genes 4 Torsion [CA]-CB--CG-[CD1] |==|  0.09989
USER: genes 5 Torsion [C]-CA--N-[C] |==|  0.56184
USER: genes 6 Torsion [N]-C--CA-[N] |==|  0.64647
USER: genes 7 Torsion [C]-CA--N-[H3] |==|  0.98514
USER: genes 8 Torsion [C]-N--CA-[CB] |==|  0.81454
USER: genes 9 Torsion [N]-CA--C-[N] |==|  0.39620
USER: genes 10 Torsion [C]-N--CA-[C] |==|  0.29617
USER: genes 11 Torsion [N]-CA--C-[O] |==|  0.36990
USER: genes 12 Torsion [N]-CA--CB-[CG] |==|  0.45432
USER: genes 13 Torsion [CA]-CB--CG-[CD2] |==|  0.86040
ROOT
ATOM      1  C   LEU C 675      25.802   2.071  21.761  1.00 14.56 LIG 0.24  C 
ATOM      2 O    LEU C 675      26.453   2.977  22.317  0.66 14.97 LIG-0.27  OA
ATOM      3  N   ALA C 676      24.987   2.332  20.739  0.83 13.84 LIG-0.35  N 
ATOM      4 H    ALA C 676      24.532   1.718  20.347  0.83 13.84 LIG 0.16  HD
ENDROOT
BRANCH 1 5
ATOM      5  CA  LEU C 675      25.841   0.623  22.183  0.78 15.17 LIG 0.18  C 
BRANCH 5 6
ATOM      6  CB  LEU C 675      25.224   0.312  23.565  0.53 15.14 LIG 0.04  C 
BRANCH 6 7
ATOM      7  CG  LEU C 675      23.775   0.442  23.866  0.32 15.05 LIG-0.02  C 
ATOM      8  CD1 LEU C 675      22.850   0.060  22.709  0.18 15.17 LIG 0.01  C 
ATOM      9  CD2 LEU C 675      23.473  -0.508  25.053  0.37 15.02 LIG 0.01  C 
ENDBRANCH 6 7
ENDBRANCH 5 6
BRANCH 5 10
ATOM     10  N   LEU C 675      27.174   0.062  22.229  0.88 15.36 LIG-0.35  N 
ATOM     11 H    LEU C 675      27.771   0.675  22.313  0.88 15.36 LIG 0.16  HD
ATOM     12  C   ALA C 674      27.519  -1.217  22.158  0.61 16.05 LIG 0.25  C 
ATOM     13 O    ALA C 674      26.691  -2.110  21.946  0.70 15.91 LIG-0.27  OA
BRANCH 12 14
ATOM     14  CA  ALA C 674      29.005  -1.445  22.324  0.67 16.10 LIG 0.27  C 
ATOM     15  CB  ALA C 674      29.783  -0.223  22.684  0.67 16.22 LIG 0.05  C 
BRANCH 14 16
ATOM     16  N   ALA C 674      29.620  -2.236  21.260  0.74 16.71 LIG-0.07  N 
ATOM     17 H1   ALA C 674      30.197  -1.730  20.810  0.74 16.71 LIG 0.28  HD
ATOM     18 H2   ALA C 674      30.049  -2.930  21.615  0.74 16.71 LIG 0.28  HD
ATOM     19 H3   ALA C 674      28.989  -2.530  20.706  0.74 16.71 LIG 0.28  HD
ENDBRANCH 14 16
ENDBRANCH 12 14
ENDBRANCH 5 10
ENDBRANCH 1 5
BRANCH 3 20
ATOM     20  CA  ALA C 676      24.763   3.666  20.162  1.00 13.04 LIG 0.17  C 
ATOM     21  CB  ALA C 676      24.058   4.564  21.155  0.89 13.68 LIG 0.04  C 
BRANCH 20 22
ATOM     22  C   ALA C 676      26.036   4.238  19.581  0.69 12.60 LIG 0.24  C 
ATOM     23 O    ALA C 676      27.161   4.013  20.074  0.52 12.22 LIG-0.27  OA
ATOM     24  N   LEU C 677      25.870   4.939  18.453  0.89 12.12 LIG-0.34  N 
ATOM     25 H    LEU C 677      25.101   5.095  18.102  0.89 12.12 LIG 0.16  HD
BRANCH 24 26
ATOM     26  CA  LEU C 677      26.979   5.506  17.708  0.93 11.78 LIG 0.18  C 
BRANCH 26 27
ATOM     27  C   LEU C 677      27.398   4.903  16.435  0.42 11.73 LIG 0.20  C 
ATOM     28 O    LEU C 677      27.619   5.610  15.396  0.84 11.50 LIG-0.65  OA
ATOM     29 OXT  LEU C 677      27.517   3.648  16.335  0.55 11.71 LIG-0.65  OA
ENDBRANCH 26 27
BRANCH 26 30
ATOM     30  CB  LEU C 677      27.888   6.275  18.626  1.00 11.60 LIG 0.04  C 
BRANCH 30 31
ATOM     31  CG  LEU C 677      29.288   6.689  18.286  0.82 11.89 LIG-0.02  C 
ATOM     32  CD2 LEU C 677      30.141   5.531  17.748  0.78 11.63 LIG 0.01  C 
ATOM     33  CD1 LEU C 677      29.995   7.220  19.563  1.00 11.42 LIG 0.01  C 
ENDBRANCH 30 31
ENDBRANCH 26 30
ENDBRANCH 24 26
ENDBRANCH 20 22
ENDBRANCH 3 20
TORSDOF 12
ENDMDL
MODEL 21
USER: ADFR SOLUTION from run 69
USER: SCORE 11.499335 LL:  -2.711 LR: -10.629 RR:   0.000 FEB:  -7.050
USER: RMSD 5.362002
USER: SEED 68
USER: STATUS no improvement in best 13 clusters for 5 generations
USER: GENES 14
USER: genes 0 Translation |==|  0.59544 0.42186 0.56619
USER: genes 1 Rotation |==|  0.59810 0.56808 0.15567 0.84231
USER: genes 2 Torsion [N]-C--CA-[N] |==|  0.42269
USER: genes 3 Torsion [C]-CA--CB-[CG] |==|  0.29438
USER: genes 4 Torsion [CA]-CB--CG-[CD1] |==|  0.49259
USER: genes 5 Torsion [C]-CA--N-[C] |==|  0.59469
USER: genes 6 Torsion [N]-C--CA-[N] |==|  0.07717
USER: genes 7 Torsion [C]-CA--N-[H3] |==|  0.61405
USER: genes 8 Torsion [C]-N--CA-[CB] |==|  0.32790
USER: genes 9 Torsion [N]-CA--C-[N] |==|  0.09959
USER: genes 10 Torsion [C]-N--CA-[C] |==|  0.70017
USER: genes 11 Torsion [N]-CA--C-[O] |==|  0.20694
USER: genes 12 Torsion [N]-CA--CB-[CG] |==|  0.34780
USER: genes 13 Torsion [CA]-CB--CG-[CD2] |==|  0.83469
ROOT
ATOM      1  C   LEU C 675      29.483   0.346  22.056  1.00 14.56 LIG 0.24  C 
ATOM      2 O    LEU C 675      29.712  -0.686  22.717  0.66 14.97 LIG-0.27  OA
ATOM      3  N   ALA C 676      29.111   1.480  22.649  0.83 13.84 LIG-0.35  N 
ATOM      4 H    ALA C 676      28.949   2.198  22.206  0.83 13.84 LIG 0.16  HD
ENDROOT
BRANCH 1 5
ATOM      5  CA  LEU C 675      29.575   0.422  20.552  0.78 15.17 LIG 0.18  C 
BRANCH 5 6
ATOM      6  CB  LEU C 675      28.257   0.169  19.787  0.53 15.14 LIG 0.04  C 
BRANCH 6 7
ATOM      7  CG  LEU C 675      27.469   1.242  19.128  0.32 15.05 LIG-0.02  C 
ATOM      8  CD1 LEU C 675      26.232   0.749  18.376  0.18 15.17 LIG 0.01  C 
ATOM      9  CD2 LEU C 675      26.996   2.206  20.247  0.37 15.02 LIG 0.01  C 
ENDBRANCH 6 7
ENDBRANCH 5 6
BRANCH 5 10
ATOM     10  N   LEU C 675      30.530  -0.499  19.975  0.88 15.36 LIG-0.35  N 
ATOM     11 H    LEU C 675      30.566  -1.235  20.420  0.88 15.36 LIG 0.16  HD
ATOM     12  C   ALA C 674      31.292  -0.316  18.904  0.61 16.05 LIG 0.25  C 
ATOM     13 O    ALA C 674      31.328   0.763  18.301  0.70 15.91 LIG-0.27  OA
BRANCH 12 14
ATOM     14  CA  ALA C 674      32.115  -1.532  18.541  0.67 16.10 LIG 0.27  C 
ATOM     15  CB  ALA C 674      32.636  -1.532  17.141  0.67 16.22 LIG 0.05  C 
BRANCH 14 16
ATOM     16  N   ALA C 674      31.526  -2.806  18.945  0.74 16.71 LIG-0.07  N 
ATOM     17 H1   ALA C 674      30.915  -2.664  19.576  0.74 16.71 LIG 0.28  HD
ATOM     18 H2   ALA C 674      31.142  -3.192  18.241  0.74 16.71 LIG 0.28  HD
ATOM     19 H3   ALA C 674      32.163  -3.340  19.264  0.74 16.71 LIG 0.28  HD
ENDBRANCH 14 16
ENDBRANCH 12 14
ENDBRANCH 5 10
ENDBRANCH 1 5
BRANCH 3 20
ATOM     20  CA  ALA C 676      28.931   1.650  24.098  1.00 13.04 LIG 0.17  C 
ATOM     21  CB  ALA C 676      29.895   2.686  24.636  0.89 13.68 LIG 0.04  C 
BRANCH 20 22
ATOM     22  C   ALA C 676      27.480   1.890  24.452  0.69 12.60 LIG 0.24  C 
ATOM     23 O    ALA C 676      27.127   2.707  25.326  0.52 12.22 LIG-0.27  OA
ATOM     24  N   LEU C 677      26.603   1.215  23.699  0.89 12.12 LIG-0.34  N 
ATOM     25 H    LEU C 677      26.836   0.653  23.090  0.89 12.12 LIG 0.16  HD
BRANCH 24 26
ATOM     26  CA  LEU C 677      25.167   1.366  23.838  0.93 11.78 LIG 0.18  C 
BRANCH 26 27
ATOM     27  C   LEU C 677      24.367   0.289  24.439  0.42 11.73 LIG 0.20  C 
ATOM     28 O    LEU C 677      24.377   0.065  25.695  0.84 11.50 LIG-0.65  OA
ATOM     29 OXT  LEU C 677      23.666  -0.467  23.707  0.55 11.71 LIG-0.65  OA
ENDBRANCH 26 27
BRANCH 26 30
ATOM     30  CB  LEU C 677      24.644   2.357  22.835  1.00 11.60 LIG 0.04  C 
BRANCH 30 31
ATOM     31  CG  LEU C 677      23.546   2.076  21.854  0.82 11.89 LIG-0.02  C 
ATOM     32  CD2 LEU C 677      23.872   0.911  20.909  0.78 11.63 LIG 0.01  C 
ATOM     33  CD1 LEU C 677      23.312   3.330  20.967  1.00 11.42 LIG 0.01  C 
ENDBRANCH 30 31
ENDBRANCH 26 30
ENDBRANCH 24 26
ENDBRANCH 20 22
ENDBRANCH 3 20
TORSDOF 12
ENDMDL
MODEL 22
USER: ADFR SOLUTION from run 78
USER: SCORE 12.303277 LL:  -2.707 LR: -10.603 RR:   0.000 FEB:  -7.023
USER: RMSD 5.662129
USER: SEED 77
USER: STATUS no improvement in best 18 clusters for 5 generations
USER: GENES 14
USER: genes 0 Translation |==|  0.52366 0.52687 0.41480
USER: genes 1 Rotation |==|  0.63529 0.95168 0.35162 0.57524
USER: genes 2 Torsion [N]-C--CA-[N] |==|  0.79968
USER: genes 3 Torsion [C]-CA--CB-[CG] |==|  0.24882
USER: genes 4 Torsion [CA]-CB--CG-[CD1] |==|  0.61327
USER: genes 5 Torsion [C]-CA--N-[C] |==|  0.20555
USER: genes 6 Torsion [N]-C--CA-[N] |==|  0.68126
USER: genes 7 Torsion [C]-CA--N-[H3] |==|  0.06731
USER: genes 8 Torsion [C]-N--CA-[CB] |==|  0.16317
USER: genes 9 Torsion [N]-CA--C-[N] |==|  0.07891
USER: genes 10 Torsion [C]-N--CA-[C] |==|  0.56925
USER: genes 11 Torsion [N]-CA--C-[O] |==|  0.94895
USER: genes 12 Torsion [N]-CA--CB-[CG] |==|  0.44645
USER: genes 13 Torsion [CA]-CB--CG-[CD2] |==|  0.77386
ROOT
ATOM      1  C   LEU C 675      27.330   3.496  17.514  1.00 14.56 LIG 0.24  C 
ATOM      2 O    LEU C 675      27.123   3.312  16.299  0.66 14.97 LIG-0.27  OA
ATOM      3  N   ALA C 676      28.169   2.720  18.199  0.83 13.84 LIG-0.35  N 
ATOM      4 H    ALA C 676      28.321   2.835  19.037  0.83 13.84 LIG 0.16  HD
ENDROOT
BRANCH 1 5
ATOM      5  CA  LEU C 675      26.657   4.571  18.331  0.78 15.17 LIG 0.18  C 
BRANCH 5 6
ATOM      6  CB  LEU C 675      27.596   5.435  19.203  0.53 15.14 LIG 0.04  C 
BRANCH 6 7
ATOM      7  CG  LEU C 675      28.240   6.686  18.727  0.32 15.05 LIG-0.02  C 
ATOM      8  CD1 LEU C 675      29.694   6.858  19.168  0.18 15.17 LIG 0.01  C 
ATOM      9  CD2 LEU C 675      28.211   6.648  17.177  0.37 15.02 LIG 0.01  C 
ENDBRANCH 6 7
ENDBRANCH 5 6
BRANCH 5 10
ATOM     10  N   LEU C 675      25.650   4.072  19.242  0.88 15.36 LIG-0.35  N 
ATOM     11 H    LEU C 675      24.856   4.250  18.962  0.88 15.36 LIG 0.16  HD
ATOM     12  C   ALA C 674      25.837   3.415  20.380  0.61 16.05 LIG 0.25  C 
ATOM     13 O    ALA C 674      26.964   3.226  20.851  0.70 15.91 LIG-0.27  OA
BRANCH 12 14
ATOM     14  CA  ALA C 674      24.547   2.972  21.033  0.67 16.10 LIG 0.27  C 
ATOM     15  CB  ALA C 674      23.367   2.940  20.118  0.67 16.22 LIG 0.05  C 
BRANCH 14 16
ATOM     16  N   ALA C 674      24.270   3.606  22.320  0.74 16.71 LIG-0.07  N 
ATOM     17 H1   ALA C 674      23.395   3.741  22.402  0.74 16.71 LIG 0.28  HD
ATOM     18 H2   ALA C 674      24.551   3.077  22.978  0.74 16.71 LIG 0.28  HD
ATOM     19 H3   ALA C 674      24.696   4.386  22.365  0.74 16.71 LIG 0.28  HD
ENDBRANCH 14 16
ENDBRANCH 12 14
ENDBRANCH 5 10
ENDBRANCH 1 5
BRANCH 3 20
ATOM     20  CA  ALA C 676      28.927   1.595  17.631  1.00 13.04 LIG 0.17  C 
ATOM     21  CB  ALA C 676      29.813   2.067  16.499  0.89 13.68 LIG 0.04  C 
BRANCH 20 22
ATOM     22  C   ALA C 676      29.639   0.807  18.708  0.69 12.60 LIG 0.24  C 
ATOM     23 O    ALA C 676      30.732   0.238  18.513  0.52 12.22 LIG-0.27  OA
ATOM     24  N   LEU C 677      29.044   0.836  19.907  0.89 12.12 LIG-0.34  N 
ATOM     25 H    LEU C 677      28.293   1.230  20.053  0.89 12.12 LIG 0.16  HD
BRANCH 24 26
ATOM     26  CA  LEU C 677      29.611   0.201  21.082  0.93 11.78 LIG 0.18  C 
BRANCH 26 27
ATOM     27  C   LEU C 677      28.737  -0.220  22.186  0.42 11.73 LIG 0.20  C 
ATOM     28 O    LEU C 677      27.556   0.244  22.323  0.84 11.50 LIG-0.65  OA
ATOM     29 OXT  LEU C 677      29.157  -1.040  23.053  0.55 11.71 LIG-0.65  OA
ENDBRANCH 26 27
BRANCH 26 30
ATOM     30  CB  LEU C 677      31.057   0.581  21.237  1.00 11.60 LIG 0.04  C 
BRANCH 30 31
ATOM     31  CG  LEU C 677      31.835   0.463  22.513  0.82 11.89 LIG-0.02  C 
ATOM     32  CD2 LEU C 677      31.595   1.639  23.471  0.78 11.63 LIG 0.01  C 
ATOM     33  CD1 LEU C 677      33.355   0.440  22.191  1.00 11.42 LIG 0.01  C 
ENDBRANCH 30 31
ENDBRANCH 26 30
ENDBRANCH 24 26
ENDBRANCH 20 22
ENDBRANCH 3 20
TORSDOF 12
ENDMDL
MODEL 23
USER: ADFR SOLUTION from run 79
USER: SCORE 10.607300 LL:  -2.716 LR: -10.563 RR:   0.000 FEB:  -6.984
USER: RMSD 5.998212
USER: SEED 78
USER: STATUS no improvement in best 3 clusters for 5 generations
USER: GENES 14
USER: genes 0 Translation |==|  0.57897 0.40860 0.58594
USER: genes 1 Rotation |==|  0.63082 0.50531 0.12948 0.80915
USER: genes 2 Torsion [N]-C--CA-[N] |==|  0.50251
USER: genes 3 Torsion [C]-CA--CB-[CG] |==|  0.47789
USER: genes 4 Torsion [CA]-CB--CG-[CD1] |==|  0.58741
USER: genes 5 Torsion [C]-CA--N-[C] |==|  0.16141
USER: genes 6 Torsion [N]-C--CA-[N] |==|  0.97674
USER: genes 7 Torsion [C]-CA--N-[H3] |==|  0.74300
USER: genes 8 Torsion [C]-N--CA-[CB] |==|  0.38928
USER: genes 9 Torsion [N]-CA--C-[N] |==|  0.07899
USER: genes 10 Torsion [C]-N--CA-[C] |==|  0.78460
USER: genes 11 Torsion [N]-CA--C-[O] |==|  0.57034
USER: genes 12 Torsion [N]-CA--CB-[CG] |==|  0.82844
USER: genes 13 Torsion [CA]-CB--CG-[CD2] |==|  0.13676
ROOT
ATOM      1  C   LEU C 675      28.989  -0.052  22.648  1.00 14.56 LIG 0.24  C 
ATOM      2 O    LEU C 675      28.824  -1.040  23.390  0.66 14.97 LIG-0.27  OA
ATOM      3  N   ALA C 676      28.776   1.188  23.090  0.83 13.84 LIG-0.35  N 
ATOM      4 H    ALA C 676      28.886   1.878  22.589  0.83 13.84 LIG 0.16  HD
ENDROOT
BRANCH 1 5
ATOM      5  CA  LEU C 675      29.414  -0.143  21.203  0.78 15.17 LIG 0.18  C 
BRANCH 5 6
ATOM      6  CB  LEU C 675      28.446   0.493  20.181  0.53 15.14 LIG 0.04  C 
BRANCH 6 7
ATOM      7  CG  LEU C 675      28.764   0.657  18.739  0.32 15.05 LIG-0.02  C 
ATOM      8  CD1 LEU C 675      28.123   1.881  18.083  0.18 15.17 LIG 0.01  C 
ATOM      9  CD2 LEU C 675      30.304   0.809  18.631  0.37 15.02 LIG 0.01  C 
ENDBRANCH 6 7
ENDBRANCH 5 6
BRANCH 5 10
ATOM     10  N   LEU C 675      29.620  -1.497  20.737  0.88 15.36 LIG-0.35  N 
ATOM     11 H    LEU C 675      30.420  -1.610  20.442  0.88 15.36 LIG 0.16  HD
ATOM     12  C   ALA C 674      28.746  -2.495  20.728  0.61 16.05 LIG 0.25  C 
ATOM     13 O    ALA C 674      27.565  -2.337  21.060  0.70 15.91 LIG-0.27  OA
BRANCH 12 14
ATOM     14  CA  ALA C 674      29.334  -3.801  20.243  0.67 16.10 LIG 0.27  C 
ATOM     15  CB  ALA C 674      29.165  -4.946  21.187  0.67 16.22 LIG 0.05  C 
BRANCH 14 16
ATOM     16  N   ALA C 674      30.684  -3.692  19.695  0.74 16.71 LIG-0.07  N 
ATOM     17 H1   ALA C 674      31.102  -3.002  20.070  0.74 16.71 LIG 0.28  HD
ATOM     18 H2   ALA C 674      31.136  -4.440  19.864  0.74 16.71 LIG 0.28  HD
ATOM     19 H3   ALA C 674      30.638  -3.567  18.814  0.74 16.71 LIG 0.28  HD
ENDBRANCH 14 16
ENDBRANCH 12 14
ENDBRANCH 5 10
ENDBRANCH 1 5
BRANCH 3 20
ATOM     20  CA  ALA C 676      28.338   1.532  24.450  1.00 13.04 LIG 0.17  C 
ATOM     21  CB  ALA C 676      29.061   2.767  24.945  0.89 13.68 LIG 0.04  C 
BRANCH 20 22
ATOM     22  C   ALA C 676      26.831   1.598  24.546  0.69 12.60 LIG 0.24  C 
ATOM     23 O    ALA C 676      26.239   2.380  25.318  0.52 12.22 LIG-0.27  OA
ATOM     24  N   LEU C 677      26.181   0.808  23.682  0.89 12.12 LIG-0.34  N 
ATOM     25 H    LEU C 677      26.579   0.270  23.142  0.89 12.12 LIG 0.16  HD
BRANCH 24 26
ATOM     26  CA  LEU C 677      24.734   0.785  23.573  0.93 11.78 LIG 0.18  C 
BRANCH 26 27
ATOM     27  C   LEU C 677      23.931   0.065  24.572  0.42 11.73 LIG 0.20  C 
ATOM     28 O    LEU C 677      22.770  -0.390  24.300  0.84 11.50 LIG-0.65  OA
ATOM     29 OXT  LEU C 677      24.371  -0.092  25.747  0.55 11.71 LIG-0.65  OA
ENDBRANCH 26 27
BRANCH 26 30
ATOM     30  CB  LEU C 677      24.312   1.020  22.149  1.00 11.60 LIG 0.04  C 
BRANCH 30 31
ATOM     31  CG  LEU C 677      24.602   2.267  21.371  0.82 11.89 LIG-0.02  C 
ATOM     32  CD2 LEU C 677      26.075   2.693  21.448  0.78 11.63 LIG 0.01  C 
ATOM     33  CD1 LEU C 677      23.758   3.440  21.943  1.00 11.42 LIG 0.01  C 
ENDBRANCH 30 31
ENDBRANCH 26 30
ENDBRANCH 24 26
ENDBRANCH 20 22
ENDBRANCH 3 20
TORSDOF 12
ENDMDL
MODEL 24
USER: ADFR SOLUTION from run 65
USER: SCORE 12.384779 LL:  -2.440 LR: -10.534 RR:   0.000 FEB:  -6.955
USER: RMSD 6.922881
USER: SEED 64
USER: STATUS no improvement in best 7 clusters for 5 generations
USER: GENES 14
USER: genes 0 Translation |==|  0.54973 0.41798 0.57756
USER: genes 1 Rotation |==|  0.09479 0.59328 0.76601 0.57965
USER: genes 2 Torsion [N]-C--CA-[N] |==|  0.38939
USER: genes 3 Torsion [C]-CA--CB-[CG] |==|  0.26957
USER: genes 4 Torsion [CA]-CB--CG-[CD1] |==|  0.87147
USER: genes 5 Torsion [C]-CA--N-[C] |==|  0.84016
USER: genes 6 Torsion [N]-C--CA-[N] |==|  0.04096
USER: genes 7 Torsion [C]-CA--N-[H3] |==|  0.66687
USER: genes 8 Torsion [C]-N--CA-[CB] |==|  0.87207
USER: genes 9 Torsion [N]-CA--C-[N] |==|  0.81162
USER: genes 10 Torsion [C]-N--CA-[C] |==|  0.62765
USER: genes 11 Torsion [N]-CA--C-[O] |==|  0.54447
USER: genes 12 Torsion [N]-CA--CB-[CG] |==|  0.70150
USER: genes 13 Torsion [CA]-CB--CG-[CD2] |==|  0.00798
ROOT
ATOM      1  C   LEU C 675      28.112   0.229  22.397  1.00 14.56 LIG 0.24  C 
ATOM      2 O    LEU C 675      27.360   0.350  21.411  0.66 14.97 LIG-0.27  OA
ATOM      3  N   ALA C 676      27.778   0.728  23.587  0.83 13.84 LIG-0.35  N 
ATOM      4 H    ALA C 676      28.287   0.653  24.275  0.83 13.84 LIG 0.16  HD
ENDROOT
BRANCH 1 5
ATOM      5  CA  LEU C 675      29.457  -0.453  22.354  0.78 15.17 LIG 0.18  C 
BRANCH 5 6
ATOM      6  CB  LEU C 675      30.625   0.404  21.817  0.53 15.14 LIG 0.04  C 
BRANCH 6 7
ATOM      7  CG  LEU C 675      31.577   1.137  22.690  0.32 15.05 LIG-0.02  C 
ATOM      8  CD1 LEU C 675      30.918   1.930  23.820  0.18 15.17 LIG 0.01  C 
ATOM      9  CD2 LEU C 675      32.509   0.077  23.331  0.37 15.02 LIG 0.01  C 
ENDBRANCH 6 7
ENDBRANCH 5 6
BRANCH 5 10
ATOM     10  N   LEU C 675      29.476  -1.661  21.557  0.88 15.36 LIG-0.35  N 
ATOM     11 H    LEU C 675      30.063  -1.615  20.930  0.88 15.36 LIG 0.16  HD
ATOM     12  C   ALA C 674      28.724  -2.744  21.705  0.61 16.05 LIG 0.25  C 
ATOM     13 O    ALA C 674      27.812  -2.801  22.538  0.70 15.91 LIG-0.27  OA
BRANCH 12 14
ATOM     14  CA  ALA C 674      29.075  -3.852  20.738  0.67 16.10 LIG 0.27  C 
ATOM     15  CB  ALA C 674      28.855  -5.230  21.269  0.67 16.22 LIG 0.05  C 
BRANCH 14 16
ATOM     16  N   ALA C 674      30.360  -3.685  20.064  0.74 16.71 LIG-0.07  N 
ATOM     17 H1   ALA C 674      30.745  -2.932  20.341  0.74 16.71 LIG 0.28  HD
ATOM     18 H2   ALA C 674      30.889  -4.375  20.256  0.74 16.71 LIG 0.28  HD
ATOM     19 H3   ALA C 674      30.232  -3.646  19.184  0.74 16.71 LIG 0.28  HD
ENDBRANCH 14 16
ENDBRANCH 12 14
ENDBRANCH 5 10
ENDBRANCH 1 5
BRANCH 3 20
ATOM     20  CA  ALA C 676      26.531   1.452  23.875  1.00 13.04 LIG 0.17  C 
ATOM     21  CB  ALA C 676      26.255   2.484  22.803  0.89 13.68 LIG 0.04  C 
BRANCH 20 22
ATOM     22  C   ALA C 676      25.389   0.500  24.149  0.69 12.60 LIG 0.24  C 
ATOM     23 O    ALA C 676      24.814   0.440  25.256  0.52 12.22 LIG-0.27  OA
ATOM     24  N   LEU C 677      24.991  -0.215  23.090  0.89 12.12 LIG-0.34  N 
ATOM     25 H    LEU C 677      25.377  -0.177  22.322  0.89 12.12 LIG 0.16  HD
BRANCH 24 26
ATOM     26  CA  LEU C 677      23.866  -1.129  23.135  0.93 11.78 LIG 0.18  C 
BRANCH 26 27
ATOM     27  C   LEU C 677      23.985  -2.475  22.555  0.42 11.73 LIG 0.20  C 
ATOM     28 O    LEU C 677      22.959  -3.191  22.303  0.84 11.50 LIG-0.65  OA
ATOM     29 OXT  LEU C 677      25.126  -2.967  22.320  0.55 11.71 LIG-0.65  OA
ENDBRANCH 26 27
BRANCH 26 30
ATOM     30  CB  LEU C 677      22.576  -0.367  23.261  1.00 11.60 LIG 0.04  C 
BRANCH 30 31
ATOM     31  CG  LEU C 677      21.744  -0.303  24.507  0.82 11.89 LIG-0.02  C 
ATOM     32  CD2 LEU C 677      22.379  -1.048  25.690  0.78 11.63 LIG 0.01  C 
ATOM     33  CD1 LEU C 677      20.364  -0.964  24.241  1.00 11.42 LIG 0.01  C 
ENDBRANCH 30 31
ENDBRANCH 26 30
ENDBRANCH 24 26
ENDBRANCH 20 22
ENDBRANCH 3 20
TORSDOF 12
ENDMDL
MODEL 25
USER: ADFR SOLUTION from run 139
USER: SCORE 12.629501 LL:  -2.977 LR: -10.502 RR:   0.000 FEB:  -6.923
USER: RMSD 6.973550
USER: SEED 138
USER: STATUS no improvement in best 6 clusters for 5 generations
USER: GENES 14
USER: genes 0 Translation |==|  0.52021 0.44613 0.52882
USER: genes 1 Rotation |==|  0.58941 0.04927 0.51082 0.69681
USER: genes 2 Torsion [N]-C--CA-[N] |==|  0.98889
USER: genes 3 Torsion [C]-CA--CB-[CG] |==|  0.40935
USER: genes 4 Torsion [CA]-CB--CG-[CD1] |==|  0.89030
USER: genes 5 Torsion [C]-CA--N-[C] |==|  0.69590
USER: genes 6 Torsion [N]-C--CA-[N] |==|  0.73186
USER: genes 7 Torsion [C]-CA--N-[H3] |==|  0.66061
USER: genes 8 Torsion [C]-N--CA-[CB] |==|  0.83880
USER: genes 9 Torsion [N]-CA--C-[N] |==|  0.04661
USER: genes 10 Torsion [C]-N--CA-[C] |==|  0.73926
USER: genes 11 Torsion [N]-CA--C-[O] |==|  0.30238
USER: genes 12 Torsion [N]-CA--CB-[CG] |==|  0.95440
USER: genes 13 Torsion [CA]-CB--CG-[CD2] |==|  0.80999
ROOT
ATOM      1  C   LEU C 675      27.226   1.074  20.935  1.00 14.56 LIG 0.24  C 
ATOM      2 O    LEU C 675      26.006   0.986  20.695  0.66 14.97 LIG-0.27  OA
ATOM      3  N   ALA C 676      28.122   1.130  19.949  0.83 13.84 LIG-0.35  N 
ATOM      4 H    ALA C 676      28.967   1.190  20.100  0.83 13.84 LIG 0.16  HD
ENDROOT
BRANCH 1 5
ATOM      5  CA  LEU C 675      27.814   1.102  22.324  0.78 15.17 LIG 0.18  C 
BRANCH 5 6
ATOM      6  CB  LEU C 675      27.403   2.306  23.200  0.53 15.14 LIG 0.04  C 
BRANCH 6 7
ATOM      7  CG  LEU C 675      27.244   2.234  24.675  0.32 15.05 LIG-0.02  C 
ATOM      8  CD1 LEU C 675      26.591   0.946  25.179  0.18 15.17 LIG 0.01  C 
ATOM      9  CD2 LEU C 675      28.666   2.320  25.288  0.37 15.02 LIG 0.01  C 
ENDBRANCH 6 7
ENDBRANCH 5 6
BRANCH 5 10
ATOM     10  N   LEU C 675      29.261   1.093  22.349  0.88 15.36 LIG-0.35  N 
ATOM     11 H    LEU C 675      29.585   1.839  22.070  0.88 15.36 LIG 0.16  HD
ATOM     12  C   ALA C 674      30.061   0.107  22.735  0.61 16.05 LIG 0.25  C 
ATOM     13 O    ALA C 674      29.625  -1.006  23.052  0.70 15.91 LIG-0.27  OA
BRANCH 12 14
ATOM     14  CA  ALA C 674      31.527   0.479  22.705  0.67 16.10 LIG 0.27  C 
ATOM     15  CB  ALA C 674      31.817   1.885  23.117  0.67 16.22 LIG 0.05  C 
BRANCH 14 16
ATOM     16  N   ALA C 674      32.232   0.068  21.494  0.74 16.71 LIG-0.07  N 
ATOM     17 H1   ALA C 674      31.675  -0.378  20.962  0.74 16.71 LIG 0.28  HD
ATOM     18 H2   ALA C 674      32.536   0.788  21.068  0.74 16.71 LIG 0.28  HD
ATOM     19 H3   ALA C 674      32.917  -0.457  21.713  0.74 16.71 LIG 0.28  HD
ENDBRANCH 14 16
ENDBRANCH 12 14
ENDBRANCH 5 10
ENDBRANCH 1 5
BRANCH 3 20
ATOM     20  CA  ALA C 676      27.799   1.098  18.516  1.00 13.04 LIG 0.17  C 
ATOM     21  CB  ALA C 676      27.035  -0.163  18.170  0.89 13.68 LIG 0.04  C 
BRANCH 20 22
ATOM     22  C   ALA C 676      27.138   2.382  18.069  0.69 12.60 LIG 0.24  C 
ATOM     23 O    ALA C 676      26.449   2.459  17.031  0.52 12.22 LIG-0.27  OA
ATOM     24  N   LEU C 677      27.284   3.410  18.914  0.89 12.12 LIG-0.34  N 
ATOM     25 H    LEU C 677      27.752   3.366  19.635  0.89 12.12 LIG 0.16  HD
BRANCH 24 26
ATOM     26  CA  LEU C 677      26.664   4.703  18.696  0.93 11.78 LIG 0.18  C 
BRANCH 26 27
ATOM     27  C   LEU C 677      27.410   5.772  18.015  0.42 11.73 LIG 0.20  C 
ATOM     28 O    LEU C 677      27.115   6.149  16.833  0.84 11.50 LIG-0.65  OA
ATOM     29 OXT  LEU C 677      28.393   6.325  18.588  0.55 11.71 LIG-0.65  OA
ENDBRANCH 26 27
BRANCH 26 30
ATOM     30  CB  LEU C 677      25.566   4.934  19.696  1.00 11.60 LIG 0.04  C 
BRANCH 30 31
ATOM     31  CG  LEU C 677      24.933   3.860  20.527  0.82 11.89 LIG-0.02  C 
ATOM     32  CD2 LEU C 677      24.093   2.878  19.698  0.78 11.63 LIG 0.01  C 
ATOM     33  CD1 LEU C 677      23.980   4.506  21.570  1.00 11.42 LIG 0.01  C 
ENDBRANCH 30 31
ENDBRANCH 26 30
ENDBRANCH 24 26
ENDBRANCH 20 22
ENDBRANCH 3 20
TORSDOF 12
ENDMDL
MODEL 26
USER: ADFR SOLUTION from run 16
USER: SCORE 12.212075 LL:  -2.334 LR: -10.424 RR:   0.000 FEB:  -6.845
USER: RMSD 7.536484
USER: SEED 993805
USER: STATUS no improvement in best 8 clusters for 5 generations
USER: GENES 14
USER: genes 0 Translation |==|  0.52421 0.44766 0.52532
USER: genes 1 Rotation |==|  0.54660 0.03008 0.51274 0.66382
USER: genes 2 Torsion [N]-C--CA-[N] |==|  0.01690
USER: genes 3 Torsion [C]-CA--CB-[CG] |==|  0.41329
USER: genes 4 Torsion [CA]-CB--CG-[CD1] |==|  0.83885
USER: genes 5 Torsion [C]-CA--N-[C] |==|  0.73593
USER: genes 6 Torsion [N]-C--CA-[N] |==|  0.66367
USER: genes 7 Torsion [C]-CA--N-[H3] |==|  0.40144
USER: genes 8 Torsion [C]-N--CA-[CB] |==|  0.83316
USER: genes 9 Torsion [N]-CA--C-[N] |==|  0.22365
USER: genes 10 Torsion [C]-N--CA-[C] |==|  0.83063
USER: genes 11 Torsion [N]-CA--C-[O] |==|  0.90717
USER: genes 12 Torsion [N]-CA--CB-[CG] |==|  0.62950
USER: genes 13 Torsion [CA]-CB--CG-[CD2] |==|  0.44455
ROOT
ATOM      1  C   LEU C 675      27.346   1.120  20.830  1.00 14.56 LIG 0.24  C 
ATOM      2 O    LEU C 675      26.178   1.211  20.405  0.66 14.97 LIG-0.27  OA
ATOM      3  N   ALA C 676      28.376   0.974  19.996  0.83 13.84 LIG-0.35  N 
ATOM      4 H    ALA C 676      29.187   0.909  20.275  0.83 13.84 LIG 0.16  HD
ENDROOT
BRANCH 1 5
ATOM      5  CA  LEU C 675      27.717   1.140  22.292  0.78 15.17 LIG 0.18  C 
BRANCH 5 6
ATOM      6  CB  LEU C 675      27.172   2.337  23.104  0.53 15.14 LIG 0.04  C 
BRANCH 6 7
ATOM      7  CG  LEU C 675      26.820   2.260  24.545  0.32 15.05 LIG-0.02  C 
ATOM      8  CD1 LEU C 675      25.763   1.208  24.884  0.18 15.17 LIG 0.01  C 
ATOM      9  CD2 LEU C 675      28.119   1.896  25.308  0.37 15.02 LIG 0.01  C 
ENDBRANCH 6 7
ENDBRANCH 5 6
BRANCH 5 10
ATOM     10  N   LEU C 675      29.143   1.136  22.536  0.88 15.36 LIG-0.35  N 
ATOM     11 H    LEU C 675      29.469   1.931  22.507  0.88 15.36 LIG 0.16  HD
ATOM     12  C   ALA C 674      29.923   0.091  22.780  0.61 16.05 LIG 0.25  C 
ATOM     13 O    ALA C 674      29.498  -1.070  22.736  0.70 15.91 LIG-0.27  OA
BRANCH 12 14
ATOM     14  CA  ALA C 674      31.358   0.470  23.070  0.67 16.10 LIG 0.27  C 
ATOM     15  CB  ALA C 674      31.575   1.925  23.323  0.67 16.22 LIG 0.05  C 
BRANCH 14 16
ATOM     16  N   ALA C 674      32.337  -0.117  22.158  0.74 16.71 LIG-0.07  N 
ATOM     17 H1   ALA C 674      32.668  -0.861  22.516  0.74 16.71 LIG 0.28  HD
ATOM     18 H2   ALA C 674      31.943  -0.310  21.383  0.74 16.71 LIG 0.28  HD
ATOM     19 H3   ALA C 674      32.997   0.464  22.017  0.74 16.71 LIG 0.28  HD
ENDBRANCH 14 16
ENDBRANCH 12 14
ENDBRANCH 5 10
ENDBRANCH 1 5
BRANCH 3 20
ATOM     20  CA  ALA C 676      28.269   0.905  18.532  1.00 13.04 LIG 0.17  C 
ATOM     21  CB  ALA C 676      27.409  -0.268  18.115  0.89 13.68 LIG 0.04  C 
BRANCH 20 22
ATOM     22  C   ALA C 676      27.855   2.235  17.944  0.69 12.60 LIG 0.24  C 
ATOM     23 O    ALA C 676      26.669   2.511  17.673  0.52 12.22 LIG-0.27  OA
ATOM     24  N   LEU C 677      28.850   3.122  17.812  0.89 12.12 LIG-0.34  N 
ATOM     25 H    LEU C 677      29.670   2.944  18.001  0.89 12.12 LIG 0.16  HD
BRANCH 24 26
ATOM     26  CA  LEU C 677      28.639   4.476  17.334  0.93 11.78 LIG 0.18  C 
BRANCH 26 27
ATOM     27  C   LEU C 677      28.096   4.706  15.988  0.42 11.73 LIG 0.20  C 
ATOM     28 O    LEU C 677      28.359   3.925  15.014  0.84 11.50 LIG-0.65  OA
ATOM     29 OXT  LEU C 677      27.370   5.716  15.760  0.55 11.71 LIG-0.65  OA
ENDBRANCH 26 27
BRANCH 26 30
ATOM     30  CB  LEU C 677      29.535   5.436  18.067  1.00 11.60 LIG 0.04  C 
BRANCH 30 31
ATOM     31  CG  LEU C 677      29.085   6.741  18.650  0.82 11.89 LIG-0.02  C 
ATOM     32  CD2 LEU C 677      30.038   7.274  19.730  0.78 11.63 LIG 0.01  C 
ATOM     33  CD1 LEU C 677      27.696   6.557  19.320  1.00 11.42 LIG 0.01  C 
ENDBRANCH 30 31
ENDBRANCH 26 30
ENDBRANCH 24 26
ENDBRANCH 20 22
ENDBRANCH 3 20
TORSDOF 12
ENDMDL
MODEL 27
USER: ADFR SOLUTION from run 62
USER: SCORE 12.026601 LL:  -2.229 LR: -10.423 RR:   0.000 FEB:  -6.843
USER: RMSD 6.704782
USER: SEED 61
USER: STATUS no improvement in best 7 clusters for 5 generations
USER: GENES 14
USER: genes 0 Translation |==|  0.54941 0.41307 0.58022
USER: genes 1 Rotation |==|  0.10385 0.69304 0.73217 0.54359
USER: genes 2 Torsion [N]-C--CA-[N] |==|  0.49408
USER: genes 3 Torsion [C]-CA--CB-[CG] |==|  0.98568
USER: genes 4 Torsion [CA]-CB--CG-[CD1] |==|  0.26007
USER: genes 5 Torsion [C]-CA--N-[C] |==|  0.78778
USER: genes 6 Torsion [N]-C--CA-[N] |==|  0.05420
USER: genes 7 Torsion [C]-CA--N-[H3] |==|  0.28180
USER: genes 8 Torsion [C]-N--CA-[CB] |==|  0.88212
USER: genes 9 Torsion [N]-CA--C-[N] |==|  0.83889
USER: genes 10 Torsion [C]-N--CA-[C] |==|  0.81613
USER: genes 11 Torsion [N]-CA--C-[O] |==|  0.04720
USER: genes 12 Torsion [N]-CA--CB-[CG] |==|  0.89189
USER: genes 13 Torsion [CA]-CB--CG-[CD2] |==|  0.92342
ROOT
ATOM      1  C   LEU C 675      28.102   0.082  22.477  1.00 14.56 LIG 0.24  C 
ATOM      2 O    LEU C 675      27.363   0.057  21.473  0.66 14.97 LIG-0.27  OA
ATOM      3  N   ALA C 676      27.971   1.026  23.409  0.83 13.84 LIG-0.35  N 
ATOM      4 H    ALA C 676      28.474   1.055  24.105  0.83 13.84 LIG 0.16  HD
ENDROOT
BRANCH 1 5
ATOM      5  CA  LEU C 675      29.211  -0.908  22.733  0.78 15.17 LIG 0.18  C 
BRANCH 5 6
ATOM      6  CB  LEU C 675      30.633  -0.310  22.828  0.53 15.14 LIG 0.04  C 
BRANCH 6 7
ATOM      7  CG  LEU C 675      30.942   1.120  22.573  0.32 15.05 LIG-0.02  C 
ATOM      8  CD1 LEU C 675      30.949   2.000  23.824  0.18 15.17 LIG 0.01  C 
ATOM      9  CD2 LEU C 675      32.358   1.172  21.944  0.37 15.02 LIG 0.01  C 
ENDBRANCH 6 7
ENDBRANCH 5 6
BRANCH 5 10
ATOM     10  N   LEU C 675      29.306  -1.953  21.736  0.88 15.36 LIG-0.35  N 
ATOM     11 H    LEU C 675      29.962  -1.815  21.197  0.88 15.36 LIG 0.16  HD
ATOM     12  C   ALA C 674      28.528  -3.018  21.599  0.61 16.05 LIG 0.25  C 
ATOM     13 O    ALA C 674      27.526  -3.194  22.302  0.70 15.91 LIG-0.27  OA
BRANCH 12 14
ATOM     14  CA  ALA C 674      28.973  -3.946  20.491  0.67 16.10 LIG 0.27  C 
ATOM     15  CB  ALA C 674      28.577  -5.373  20.680  0.67 16.22 LIG 0.05  C 
BRANCH 14 16
ATOM     16  N   ALA C 674      30.365  -3.776  20.080  0.74 16.71 LIG-0.07  N 
ATOM     17 H1   ALA C 674      30.421  -3.823  19.194  0.74 16.71 LIG 0.28  HD
ATOM     18 H2   ALA C 674      30.661  -2.983  20.355  0.74 16.71 LIG 0.28  HD
ATOM     19 H3   ALA C 674      30.863  -4.419  20.444  0.74 16.71 LIG 0.28  HD
ENDBRANCH 14 16
ENDBRANCH 12 14
ENDBRANCH 5 10
ENDBRANCH 1 5
BRANCH 3 20
ATOM     20  CA  ALA C 676      26.980   2.111  23.374  1.00 13.04 LIG 0.17  C 
ATOM     21  CB  ALA C 676      26.876   2.691  21.980  0.89 13.68 LIG 0.04  C 
BRANCH 20 22
ATOM     22  C   ALA C 676      25.665   1.678  23.981  0.69 12.60 LIG 0.24  C 
ATOM     23 O    ALA C 676      25.110   2.309  24.904  0.52 12.22 LIG-0.27  OA
ATOM     24  N   LEU C 677      25.104   0.611  23.398  0.89 12.12 LIG-0.34  N 
ATOM     25 H    LEU C 677      25.475   0.172  22.758  0.89 12.12 LIG 0.16  HD
BRANCH 24 26
ATOM     26  CA  LEU C 677      23.809   0.089  23.792  0.93 11.78 LIG 0.18  C 
BRANCH 26 27
ATOM     27  C   LEU C 677      23.627  -0.504  25.125  0.42 11.73 LIG 0.20  C 
ATOM     28 O    LEU C 677      24.461  -0.303  26.069  0.84 11.50 LIG-0.65  OA
ATOM     29 OXT  LEU C 677      22.642  -1.263  25.354  0.55 11.71 LIG-0.65  OA
ENDBRANCH 26 27
BRANCH 26 30
ATOM     30  CB  LEU C 677      23.000  -0.278  22.579  1.00 11.60 LIG 0.04  C 
BRANCH 30 31
ATOM     31  CG  LEU C 677      22.970   0.512  21.306  0.82 11.89 LIG-0.02  C 
ATOM     32  CD2 LEU C 677      23.257   2.005  21.521  0.78 11.63 LIG 0.01  C 
ATOM     33  CD1 LEU C 677      21.559   0.407  20.665  1.00 11.42 LIG 0.01  C 
ENDBRANCH 30 31
ENDBRANCH 26 30
ENDBRANCH 24 26
ENDBRANCH 20 22
ENDBRANCH 3 20
TORSDOF 12
ENDMDL
MODEL 28
USER: ADFR SOLUTION from run 89
USER: SCORE 12.428072 LL:  -2.233 LR: -10.375 RR:   0.000 FEB:  -6.795
USER: RMSD 4.180812
USER: SEED 88
USER: STATUS no improvement in best 18 clusters for 5 generations
USER: GENES 14
USER: genes 0 Translation |==|  0.42135 0.48331 0.55393
USER: genes 1 Rotation |==|  0.71315 0.75306 0.21923 0.74839
USER: genes 2 Torsion [N]-C--CA-[N] |==|  0.41625
USER: genes 3 Torsion [C]-CA--CB-[CG] |==|  0.85263
USER: genes 4 Torsion [CA]-CB--CG-[CD1] |==|  0.14760
USER: genes 5 Torsion [C]-CA--N-[C] |==|  0.80489
USER: genes 6 Torsion [N]-C--CA-[N] |==|  0.10814
USER: genes 7 Torsion [C]-CA--N-[H3] |==|  0.01798
USER: genes 8 Torsion [C]-N--CA-[CB] |==|  0.85090
USER: genes 9 Torsion [N]-CA--C-[N] |==|  0.86278
USER: genes 10 Torsion [C]-N--CA-[C] |==|  0.30163
USER: genes 11 Torsion [N]-CA--C-[O] |==|  0.99382
USER: genes 12 Torsion [N]-CA--CB-[CG] |==|  0.70914
USER: genes 13 Torsion [CA]-CB--CG-[CD2] |==|  0.76294
ROOT
ATOM      1  C   LEU C 675      24.260   2.189  21.688  1.00 14.56 LIG 0.24  C 
ATOM      2 O    LEU C 675      24.502   1.084  21.164  0.66 14.97 LIG-0.27  OA
ATOM      3  N   ALA C 676      24.097   2.310  23.005  0.83 13.84 LIG-0.35  N 
ATOM      4 H    ALA C 676      23.930   3.065  23.379  0.83 13.84 LIG 0.16  HD
ENDROOT
BRANCH 1 5
ATOM      5  CA  LEU C 675      24.107   3.475  20.913  0.78 15.17 LIG 0.18  C 
BRANCH 5 6
ATOM      6  CB  LEU C 675      22.669   3.816  20.461  0.53 15.14 LIG 0.04  C 
BRANCH 6 7
ATOM      7  CG  LEU C 675      21.805   2.882  19.695  0.32 15.05 LIG-0.02  C 
ATOM      8  CD1 LEU C 675      21.648   1.499  20.330  0.18 15.17 LIG 0.01  C 
ATOM      9  CD2 LEU C 675      20.400   3.531  19.612  0.37 15.02 LIG 0.01  C 
ENDBRANCH 6 7
ENDBRANCH 5 6
BRANCH 5 10
ATOM     10  N   LEU C 675      24.905   3.531  19.708  0.88 15.36 LIG-0.35  N 
ATOM     11 H    LEU C 675      24.415   3.488  19.003  0.88 15.36 LIG 0.16  HD
ATOM     12  C   ALA C 674      26.225   3.636  19.611  0.61 16.05 LIG 0.25  C 
ATOM     13 O    ALA C 674      26.960   3.609  20.605  0.70 15.91 LIG-0.27  OA
BRANCH 12 14
ATOM     14  CA  ALA C 674      26.713   3.751  18.184  0.67 16.10 LIG 0.27  C 
ATOM     15  CB  ALA C 674      28.171   4.044  18.049  0.67 16.22 LIG 0.05  C 
BRANCH 14 16
ATOM     16  N   ALA C 674      25.870   4.574  17.319  0.74 16.71 LIG-0.07  N 
ATOM     17 H1   ALA C 674      26.367   5.200  16.928  0.74 16.71 LIG 0.28  HD
ATOM     18 H2   ALA C 674      25.494   4.061  16.696  0.74 16.71 LIG 0.28  HD
ATOM     19 H3   ALA C 674      25.234   4.962  17.807  0.74 16.71 LIG 0.28  HD
ENDBRANCH 14 16
ENDBRANCH 12 14
ENDBRANCH 5 10
ENDBRANCH 1 5
BRANCH 3 20
ATOM     20  CA  ALA C 676      24.178   1.202  23.967  1.00 13.04 LIG 0.17  C 
ATOM     21  CB  ALA C 676      23.245   0.079  23.566  0.89 13.68 LIG 0.04  C 
BRANCH 20 22
ATOM     22  C   ALA C 676      25.610   0.781  24.208  0.69 12.60 LIG 0.24  C 
ATOM     23 O    ALA C 676      26.067   0.572  25.351  0.52 12.22 LIG-0.27  OA
ATOM     24  N   LEU C 677      26.326   0.574  23.096  0.89 12.12 LIG-0.34  N 
ATOM     25 H    LEU C 677      26.019   0.709  22.304  0.89 12.12 LIG 0.16  HD
BRANCH 24 26
ATOM     26  CA  LEU C 677      27.697   0.098  23.120  0.93 11.78 LIG 0.18  C 
BRANCH 26 27
ATOM     27  C   LEU C 677      28.009  -1.271  22.686  0.42 11.73 LIG 0.20  C 
ATOM     28 O    LEU C 677      27.098  -2.085  22.320  0.84 11.50 LIG-0.65  OA
ATOM     29 OXT  LEU C 677      29.205  -1.684  22.696  0.55 11.71 LIG-0.65  OA
ENDBRANCH 26 27
BRANCH 26 30
ATOM     30  CB  LEU C 677      28.507   0.882  24.115  1.00 11.60 LIG 0.04  C 
BRANCH 30 31
ATOM     31  CG  LEU C 677      29.505   1.940  23.753  0.82 11.89 LIG-0.02  C 
ATOM     32  CD2 LEU C 677      30.896   1.369  23.441  0.78 11.63 LIG 0.01  C 
ATOM     33  CD1 LEU C 677      29.673   2.922  24.946  1.00 11.42 LIG 0.01  C 
ENDBRANCH 30 31
ENDBRANCH 26 30
ENDBRANCH 24 26
ENDBRANCH 20 22
ENDBRANCH 3 20
TORSDOF 12
ENDMDL
MODEL 29
USER: ADFR SOLUTION from run 15
USER: SCORE 11.806591 LL:  -2.314 LR: -10.370 RR:   0.000 FEB:  -6.790
USER: RMSD 5.627042
USER: SEED 907707
USER: STATUS no improvement in best 20 clusters for 5 generations
USER: GENES 14
USER: genes 0 Translation |==|  0.55029 0.42209 0.53808
USER: genes 1 Rotation |==|  0.85867 0.26616 0.30293 0.66686
USER: genes 2 Torsion [N]-C--CA-[N] |==|  0.68333
USER: genes 3 Torsion [C]-CA--CB-[CG] |==|  0.45407
USER: genes 4 Torsion [CA]-CB--CG-[CD1] |==|  0.24068
USER: genes 5 Torsion [C]-CA--N-[C] |==|  0.14164
USER: genes 6 Torsion [N]-C--CA-[N] |==|  0.06865
USER: genes 7 Torsion [C]-CA--N-[H3] |==|  0.32724
USER: genes 8 Torsion [C]-N--CA-[CB] |==|  0.86813
USER: genes 9 Torsion [N]-CA--C-[N] |==|  0.94275
USER: genes 10 Torsion [C]-N--CA-[C] |==|  0.61117
USER: genes 11 Torsion [N]-CA--C-[O] |==|  0.60123
USER: genes 12 Torsion [N]-CA--CB-[CG] |==|  0.31656
USER: genes 13 Torsion [CA]-CB--CG-[CD2] |==|  0.58072
ROOT
ATOM      1  C   LEU C 675      28.129   0.353  21.213  1.00 14.56 LIG 0.24  C 
ATOM      2 O    LEU C 675      27.249  -0.444  20.833  0.66 14.97 LIG-0.27  OA
ATOM      3  N   ALA C 676      27.914   1.668  21.221  0.83 13.84 LIG-0.35  N 
ATOM      4 H    ALA C 676      28.511   2.229  21.480  0.83 13.84 LIG 0.16  HD
ENDROOT
BRANCH 1 5
ATOM      5  CA  LEU C 675      29.505  -0.064  21.670  0.78 15.17 LIG 0.18  C 
BRANCH 5 6
ATOM      6  CB  LEU C 675      30.384   1.063  22.257  0.53 15.14 LIG 0.04  C 
BRANCH 6 7
ATOM      7  CG  LEU C 675      31.600   0.815  23.073  0.32 15.05 LIG-0.02  C 
ATOM      8  CD1 LEU C 675      32.882   0.627  22.259  0.18 15.17 LIG 0.01  C 
ATOM      9  CD2 LEU C 675      31.792   2.054  23.985  0.37 15.02 LIG 0.01  C 
ENDBRANCH 6 7
ENDBRANCH 5 6
BRANCH 5 10
ATOM     10  N   LEU C 675      30.309  -0.669  20.631  0.88 15.36 LIG-0.35  N 
ATOM     11 H    LEU C 675      30.642  -1.420  20.887  0.88 15.36 LIG 0.16  HD
ATOM     12  C   ALA C 674      30.555  -0.197  19.415  0.61 16.05 LIG 0.25  C 
ATOM     13 O    ALA C 674      30.167   0.919  19.053  0.70 15.91 LIG-0.27  OA
BRANCH 12 14
ATOM     14  CA  ALA C 674      31.375  -1.140  18.562  0.67 16.10 LIG 0.27  C 
ATOM     15  CB  ALA C 674      31.251  -0.912  17.092  0.67 16.22 LIG 0.05  C 
BRANCH 14 16
ATOM     16  N   ALA C 674      31.274  -2.547  18.945  0.74 16.71 LIG-0.07  N 
ATOM     17 H1   ALA C 674      32.085  -2.862  19.133  0.74 16.71 LIG 0.28  HD
ATOM     18 H2   ALA C 674      30.753  -2.623  19.662  0.74 16.71 LIG 0.28  HD
ATOM     19 H3   ALA C 674      30.923  -3.013  18.273  0.74 16.71 LIG 0.28  HD
ENDBRANCH 14 16
ENDBRANCH 12 14
ENDBRANCH 5 10
ENDBRANCH 1 5
BRANCH 3 20
ATOM     20  CA  ALA C 676      26.663   2.318  20.802  1.00 13.04 LIG 0.17  C 
ATOM     21  CB  ALA C 676      26.193   1.762  19.475  0.89 13.68 LIG 0.04  C 
BRANCH 20 22
ATOM     22  C   ALA C 676      25.629   2.290  21.904  0.69 12.60 LIG 0.24  C 
ATOM     23 O    ALA C 676      24.623   3.030  21.902  0.52 12.22 LIG-0.27  OA
ATOM     24  N   LEU C 677      25.834   1.356  22.840  0.89 12.12 LIG-0.34  N 
ATOM     25 H    LEU C 677      26.521   0.837  22.848  0.89 12.12 LIG 0.16  HD
BRANCH 24 26
ATOM     26  CA  LEU C 677      24.914   1.126  23.939  0.93 11.78 LIG 0.18  C 
BRANCH 26 27
ATOM     27  C   LEU C 677      25.431   0.844  25.286  0.42 11.73 LIG 0.20  C 
ATOM     28 O    LEU C 677      24.850   0.022  26.070  0.84 11.50 LIG-0.65  OA
ATOM     29 OXT  LEU C 677      26.459   1.445  25.711  0.55 11.71 LIG-0.65  OA
ENDBRANCH 26 27
BRANCH 26 30
ATOM     30  CB  LEU C 677      23.585   0.652  23.419  1.00 11.60 LIG 0.04  C 
BRANCH 30 31
ATOM     31  CG  LEU C 677      23.012  -0.710  23.667  0.82 11.89 LIG-0.02  C 
ATOM     32  CD2 LEU C 677      22.088  -1.185  22.537  0.78 11.63 LIG 0.01  C 
ATOM     33  CD1 LEU C 677      22.165  -0.686  24.968  1.00 11.42 LIG 0.01  C 
ENDBRANCH 30 31
ENDBRANCH 26 30
ENDBRANCH 24 26
ENDBRANCH 20 22
ENDBRANCH 3 20
TORSDOF 12
ENDMDL
