MODEL 1
USER: ADFR SOLUTION from run 48
USER: SCORE 22.109893 LL:  -4.642 LR: -18.615 RR:   0.000 FEB: -12.053
USER: RMSD 12.166184
USER: SEED 47
USER: STATUS 1 or 2 clusters left
USER: GENES 24
USER: genes 0 Translation |==|  0.79609 0.78001 0.50032
USER: genes 1 Rotation |==|  0.03975 0.62611 0.52342 0.64738
USER: genes 2 Torsion [N]-C--CA-[N] |==|  0.11156
USER: genes 3 Torsion [C]-CA--N-[C] |==|  0.21652
USER: genes 4 Torsion [N]-C--CA-[N] |==|  0.06814
USER: genes 5 Torsion [C]-CA--N-[C] |==|  0.65847
USER: genes 6 Torsion [N]-C--CA-[N] |==|  0.86273
USER: genes 7 Torsion [C]-CA--N-[H1] |==|  0.72919
USER: genes 8 Torsion [C]-CA--CB-[CG] |==|  0.22107
USER: genes 9 Torsion [CA]-CB--CG-[CD1] |==|  0.68208
USER: genes 10 Torsion [C]-CA--CB-[CG] |==|  0.20924
USER: genes 11 Torsion [CA]-CB--CG-[CD2] |==|  0.36412
USER: genes 12 Torsion [C]-N--CA-[CB] |==|  0.82106
USER: genes 13 Torsion [N]-CA--CB-[CG] |==|  0.83494
USER: genes 14 Torsion [CA]-CB--CG-[CD2] |==|  0.80145
USER: genes 15 Torsion [CE2]-CZ--OH-[HH] |==|  0.27470
USER: genes 16 Torsion [N]-CA--C-[N] |==|  0.00556
USER: genes 17 Torsion [C]-N--CA-[CB] |==|  0.11429
USER: genes 18 Torsion [N]-CA--CB-[CG] |==|  0.66920
USER: genes 19 Torsion [CA]-CB--CG-[CD] |==|  0.32947
USER: genes 20 Torsion [CB]-CG--CD-[CE] |==|  0.64804
USER: genes 21 Torsion [CG]-CD--CE-[NZ] |==|  0.16851
USER: genes 22 Torsion [CD]-CE--NZ-[HZ1] |==|  0.69053
USER: genes 23 Torsion [N]-CA--C-[OXT] |==|  0.37272
ROOT
ATOM      1  C   ALA I   3      53.943  38.590   8.310  0.30 45.63 LIG 0.24  C 
ATOM      2 O    ALA I   3      53.947  39.324   9.290  0.30 45.40 LIG-0.27  OA
ATOM      3  N   TYR I   4      54.765  37.542   8.190  0.30 45.44 LIG-0.35  N 
ATOM      4 H    TYR I   4      54.733  37.026   7.502  0.30 45.44 LIG 0.16  HD
ENDROOT
BRANCH 1 5
ATOM      5  CA  ALA I   3      52.934  38.868   7.147  0.30 46.01 LIG 0.17  C 
ATOM      6  CB  ALA I   3      51.823  39.751   7.576  0.30 45.75 LIG 0.04  C 
BRANCH 5 7
ATOM      7  N   ALA I   3      52.473  37.540   6.761  0.30 46.50 LIG-0.35  N 
ATOM      8 H    ALA I   3      52.864  37.277   6.042  0.30 46.50 LIG 0.16  HD
ATOM      9  C   LEU I   2      51.575  36.752   7.365  0.30 47.15 LIG 0.24  C 
ATOM     10 O    LEU I   2      50.960  37.014   8.403  0.30 46.92 LIG-0.27  OA
BRANCH 9 11
ATOM     11  CA  LEU I   2      51.290  35.525   6.488  0.30 47.70 LIG 0.18  C 
BRANCH 11 12
ATOM     12  N   LEU I   2      52.186  34.961   5.486  0.30 48.04 LIG-0.35  N 
ATOM     13  C   PHE I   1      51.608  34.915   4.303  0.30 48.35 LIG 0.25  C 
ATOM     14 O    PHE I   1      50.468  35.333   4.188  0.30 48.51 LIG-0.27  OA
ATOM     15 H    LEU I   2      52.977  34.713   5.718  0.30 48.04 LIG 0.16  HD
BRANCH 13 16
ATOM     16  CA  PHE I   1      52.270  34.252   3.121  0.30 48.56 LIG 0.28  C 
BRANCH 16 17
ATOM     17  N   PHE I   1      53.677  34.727   2.961  0.30 48.56 LIG-0.07  N 
ATOM     18 H3   PHE I   1      54.191  34.049   2.701  0.30 48.56 LIG 0.28  HD
ATOM     19 H1   PHE I   1      53.704  35.372   2.350  0.30 48.56 LIG 0.28  HD
ATOM     20 H2   PHE I   1      53.973  35.043   3.739  0.30 48.56 LIG 0.28  HD
ENDBRANCH 16 17
BRANCH 16 21
ATOM     21  CB  PHE I   1      52.246  32.731   3.374  0.30 48.65 LIG 0.08  C 
BRANCH 21 22
ATOM     22  CG  PHE I   1      50.906  32.050   3.068  0.30 49.18 LIG-0.06  A 
ATOM     23  CD1 PHE I   1      50.164  31.481   4.086  0.30 49.79 LIG 0.01  A 
ATOM     24  CE1 PHE I   1      48.959  30.848   3.821  0.30 50.05 LIG 0.00  A 
ATOM     25  CZ  PHE I   1      48.492  30.760   2.534  0.30 49.90 LIG 0.00  A 
ATOM     26  CE2 PHE I   1      49.221  31.298   1.511  0.30 49.43 LIG 0.00  A 
ATOM     27  CD2 PHE I   1      50.417  31.935   1.769  0.30 49.27 LIG 0.01  A 
ENDBRANCH 21 22
ENDBRANCH 16 21
ENDBRANCH 13 16
ENDBRANCH 11 12
BRANCH 11 28
ATOM     28  CB  LEU I   2      50.282  34.479   6.986  0.30 47.77 LIG 0.04  C 
BRANCH 28 29
ATOM     29  CG  LEU I   2      48.795  34.402   7.090  0.30 48.15 LIG-0.02  C 
ATOM     30  CD1 LEU I   2      48.081  35.561   6.483  0.30 48.48 LIG 0.01  C 
ATOM     31  CD2 LEU I   2      48.448  33.070   6.481  0.30 48.19 LIG 0.01  C 
ENDBRANCH 28 29
ENDBRANCH 11 28
ENDBRANCH 9 11
ENDBRANCH 5 7
ENDBRANCH 1 5
BRANCH 3 32
ATOM     32  CA  TYR I   4      55.817  37.108   9.166  0.30 45.17 LIG 0.18  C 
BRANCH 32 33
ATOM     33  CB  TYR I   4      56.949  38.086   9.362  0.30 45.37 LIG 0.07  C 
BRANCH 33 34
ATOM     34  CG  TYR I   4      57.643  38.325   8.027  0.30 45.37 LIG-0.06  A 
ATOM     35  CD2 TYR I   4      58.437  37.356   7.427  0.30 45.58 LIG 0.01  A 
ATOM     36  CE2 TYR I   4      59.081  37.600   6.227  0.30 45.96 LIG 0.04  A 
ATOM     37  CZ  TYR I   4      58.934  38.826   5.623  0.30 45.81 LIG 0.07  A 
ATOM     38  CE1 TYR I   4      58.153  39.804   6.201  0.30 45.70 LIG 0.04  A 
ATOM     39  CD1 TYR I   4      57.514  39.551   7.381  0.30 45.43 LIG 0.01  A 
BRANCH 37 40
ATOM     40 OH   TYR I   4      59.582  39.074   4.437  0.30 46.58 LIG-0.36  OA
ATOM     41 HH   TYR I   4      59.048  38.968   3.798  0.30 46.58 LIG 0.22  HD
ENDBRANCH 37 40
ENDBRANCH 33 34
ENDBRANCH 32 33
BRANCH 32 42
ATOM     42  C   TYR I   4      55.465  36.361  10.446  0.30 45.00 LIG 0.24  C 
ATOM     43  N   LYS I   5      54.157  36.151  10.492  0.30 44.74 LIG-0.34  N 
ATOM     44 H    LYS I   5      53.655  36.395   9.838  0.30 44.74 LIG 0.16  HD
ATOM     45 O    TYR I   4      56.301  35.929  11.247  0.30 44.60 LIG-0.27  OA
BRANCH 43 46
ATOM     46  CA  LYS I   5      53.385  35.534  11.539  0.30 44.60 LIG 0.18  C 
BRANCH 46 47
ATOM     47  CB  LYS I   5      53.984  36.085  12.839  0.30 43.50 LIG 0.04  C 
BRANCH 47 48
ATOM     48  CG  LYS I   5      54.588  35.110  13.816  0.30 39.10 LIG 0.00  C 
BRANCH 48 49
ATOM     49  CD  LYS I   5      56.059  35.443  13.983  0.30 31.49 LIG 0.03  C 
BRANCH 49 50
ATOM     50  CE  LYS I   5      56.935  34.236  13.738  0.30 26.75 LIG 0.23  C 
BRANCH 50 51
ATOM     51  NZ  LYS I   5      56.783  33.730  12.427  0.30 17.53 LIG-0.08  N 
ATOM     52 HZ1  LYS I   5      56.381  32.937  12.460  0.30 17.53 LIG 0.27  HD
ATOM     53 HZ2  LYS I   5      56.288  34.292  11.947  0.30 17.53 LIG 0.27  HD
ATOM     54 HZ3  LYS I   5      57.584  33.641  12.048  0.30 17.53 LIG 0.27  HD
ENDBRANCH 50 51
ENDBRANCH 49 50
ENDBRANCH 48 49
ENDBRANCH 47 48
ENDBRANCH 46 47
BRANCH 46 55
ATOM     55  C   LYS I   5      51.912  35.832  11.473  0.30 45.89 LIG 0.20  C 
ATOM     56 OXT  LYS I   5      51.143  34.890  11.618  1.00 48.13 LIG-0.65  OA
ATOM     57 O    LYS I   5      51.560  36.998  11.302  1.00 47.49 LIG-0.65  OA
ENDBRANCH 46 55
ENDBRANCH 43 46
ENDBRANCH 32 42
ENDBRANCH 3 32
TORSDOF 22
ENDMDL
MODEL 2
USER: ADFR SOLUTION from run 26
USER: SCORE 18.823082 LL:  -4.424 LR: -17.966 RR:   0.000 FEB: -11.403
USER: RMSD 6.719038
USER: SEED 25
USER: STATUS no improvement in best 1 clusters for 5 generations
USER: GENES 24
USER: genes 0 Translation |==|  0.49502 0.51716 0.36623
USER: genes 1 Rotation |==|  0.72981 0.32162 0.51789 0.90626
USER: genes 2 Torsion [N]-C--CA-[N] |==|  0.63280
USER: genes 3 Torsion [C]-CA--N-[C] |==|  0.42784
USER: genes 4 Torsion [N]-C--CA-[N] |==|  0.46661
USER: genes 5 Torsion [C]-CA--N-[C] |==|  0.66287
USER: genes 6 Torsion [N]-C--CA-[N] |==|  0.63330
USER: genes 7 Torsion [C]-CA--N-[H1] |==|  0.38423
USER: genes 8 Torsion [C]-CA--CB-[CG] |==|  0.20672
USER: genes 9 Torsion [CA]-CB--CG-[CD1] |==|  0.12672
USER: genes 10 Torsion [C]-CA--CB-[CG] |==|  0.59447
USER: genes 11 Torsion [CA]-CB--CG-[CD2] |==|  0.15895
USER: genes 12 Torsion [C]-N--CA-[CB] |==|  0.11104
USER: genes 13 Torsion [N]-CA--CB-[CG] |==|  0.46662
USER: genes 14 Torsion [CA]-CB--CG-[CD2] |==|  0.71154
USER: genes 15 Torsion [CE2]-CZ--OH-[HH] |==|  0.25937
USER: genes 16 Torsion [N]-CA--C-[N] |==|  0.81039
USER: genes 17 Torsion [C]-N--CA-[CB] |==|  0.30714
USER: genes 18 Torsion [N]-CA--CB-[CG] |==|  0.59442
USER: genes 19 Torsion [CA]-CB--CG-[CD] |==|  0.57116
USER: genes 20 Torsion [CB]-CG--CD-[CE] |==|  0.86901
USER: genes 21 Torsion [CG]-CD--CE-[NZ] |==|  0.71284
USER: genes 22 Torsion [CD]-CE--NZ-[HZ1] |==|  0.81394
USER: genes 23 Torsion [N]-CA--C-[OXT] |==|  0.70856
ROOT
ATOM      1  C   ALA I   3      44.911  30.705   4.287  0.30 45.63 LIG 0.24  C 
ATOM      2 O    ALA I   3      45.113  30.565   3.087  0.30 45.40 LIG-0.27  OA
ATOM      3  N   TYR I   4      45.894  30.949   5.161  0.30 45.44 LIG-0.35  N 
ATOM      4 H    TYR I   4      45.729  31.064   5.997  0.30 45.44 LIG 0.16  HD
ENDROOT
BRANCH 1 5
ATOM      5  CA  ALA I   3      43.449  30.610   4.836  0.30 46.01 LIG 0.17  C 
ATOM      6  CB  ALA I   3      43.415  30.563   6.317  0.30 45.75 LIG 0.04  C 
BRANCH 5 7
ATOM      7  N   ALA I   3      42.926  29.393   4.228  0.30 46.50 LIG-0.35  N 
ATOM      8 H    ALA I   3      43.333  29.220   3.490  0.30 46.50 LIG 0.16  HD
ATOM      9  C   LEU I   2      41.956  28.581   4.667  0.30 47.15 LIG 0.24  C 
ATOM     10 O    LEU I   2      41.312  28.718   5.712  0.30 46.92 LIG-0.27  OA
BRANCH 9 11
ATOM     11  CA  LEU I   2      41.637  27.529   3.597  0.30 47.70 LIG 0.18  C 
BRANCH 11 12
ATOM     12  N   LEU I   2      40.826  26.332   3.787  0.30 48.04 LIG-0.35  N 
ATOM     13  C   PHE I   1      41.514  25.243   3.511  0.30 48.35 LIG 0.25  C 
ATOM     14 O    PHE I   1      42.678  25.354   3.161  0.30 48.51 LIG-0.27  OA
ATOM     15 H    LEU I   2      40.010  26.412   4.048  0.30 48.04 LIG 0.16  HD
BRANCH 13 16
ATOM     16  CA  PHE I   1      40.871  23.879   3.497  0.30 48.56 LIG 0.28  C 
BRANCH 16 17
ATOM     17  N   PHE I   1      41.685  22.897   4.273  0.30 48.56 LIG-0.07  N 
ATOM     18 H3   PHE I   1      42.243  23.334   4.811  0.30 48.56 LIG 0.28  HD
ATOM     19 H1   PHE I   1      41.146  22.383   4.759  0.30 48.56 LIG 0.28  HD
ATOM     20 H2   PHE I   1      42.152  22.389   3.711  0.30 48.56 LIG 0.28  HD
ENDBRANCH 16 17
BRANCH 16 21
ATOM     21  CB  PHE I   1      39.470  24.026   4.127  0.30 48.65 LIG 0.08  C 
BRANCH 21 22
ATOM     22  CG  PHE I   1      38.431  24.708   3.228  0.30 49.18 LIG-0.06  A 
ATOM     23  CD1 PHE I   1      38.310  24.343   1.900  0.30 49.79 LIG 0.01  A 
ATOM     24  CE1 PHE I   1      37.386  24.964   1.073  0.30 50.05 LIG 0.00  A 
ATOM     25  CZ  PHE I   1      36.588  25.969   1.557  0.30 49.90 LIG 0.00  A 
ATOM     26  CE2 PHE I   1      36.708  26.359   2.861  0.30 49.43 LIG 0.00  A 
ATOM     27  CD2 PHE I   1      37.619  25.740   3.692  0.30 49.27 LIG 0.01  A 
ENDBRANCH 21 22
ENDBRANCH 16 21
ENDBRANCH 13 16
ENDBRANCH 11 12
BRANCH 11 28
ATOM     28  CB  LEU I   2      41.685  27.940   2.118  0.30 47.77 LIG 0.04  C 
BRANCH 28 29
ATOM     29  CG  LEU I   2      40.929  27.564   0.886  0.30 48.15 LIG-0.02  C 
ATOM     30  CD1 LEU I   2      41.175  26.170   0.423  0.30 48.48 LIG 0.01  C 
ATOM     31  CD2 LEU I   2      39.494  27.863   1.225  0.30 48.19 LIG 0.01  C 
ENDBRANCH 28 29
ENDBRANCH 11 28
ENDBRANCH 9 11
ENDBRANCH 5 7
ENDBRANCH 1 5
BRANCH 3 32
ATOM     32  CA  TYR I   4      47.359  31.057   4.859  0.30 45.17 LIG 0.18  C 
BRANCH 32 33
ATOM     33  CB  TYR I   4      47.695  31.783   3.580  0.30 45.37 LIG 0.07  C 
BRANCH 33 34
ATOM     34  CG  TYR I   4      49.190  32.079   3.550  0.30 45.37 LIG-0.06  A 
ATOM     35  CD2 TYR I   4      49.694  33.348   3.803  0.30 45.58 LIG 0.01  A 
ATOM     36  CE2 TYR I   4      51.052  33.604   3.745  0.30 45.96 LIG 0.04  A 
ATOM     37  CZ  TYR I   4      51.915  32.582   3.426  0.30 45.81 LIG 0.07  A 
ATOM     38  CE1 TYR I   4      51.437  31.315   3.168  0.30 45.70 LIG 0.04  A 
ATOM     39  CD1 TYR I   4      50.096  31.070   3.236  0.30 45.43 LIG 0.01  A 
BRANCH 37 40
ATOM     40 OH   TYR I   4      53.263  32.837   3.356  0.30 46.58 LIG-0.36  OA
ATOM     41 HH   TYR I   4      53.619  32.667   4.098  0.30 46.58 LIG 0.22  HD
ENDBRANCH 37 40
ENDBRANCH 33 34
ENDBRANCH 32 33
BRANCH 32 42
ATOM     42  C   TYR I   4      48.388  31.301   5.955  0.30 45.00 LIG 0.24  C 
ATOM     43  N   LYS I   5      48.235  32.523   6.443  0.30 44.74 LIG-0.34  N 
ATOM     44 H    LYS I   5      47.599  33.029   6.159  0.30 44.74 LIG 0.16  HD
ATOM     45 O    TYR I   4      49.161  30.437   6.383  0.30 44.60 LIG-0.27  OA
BRANCH 43 46
ATOM     46  CA  LYS I   5      49.020  33.191   7.449  0.30 44.60 LIG 0.18  C 
BRANCH 46 47
ATOM     47  CB  LYS I   5      49.768  34.292   6.689  0.30 43.50 LIG 0.04  C 
BRANCH 47 48
ATOM     48  CG  LYS I   5      51.158  34.657   7.145  0.30 39.10 LIG 0.00  C 
BRANCH 48 49
ATOM     49  CD  LYS I   5      51.439  36.090   6.734  0.30 31.49 LIG 0.03  C 
BRANCH 49 50
ATOM     50  CE  LYS I   5      51.055  36.342   5.294  0.30 26.75 LIG 0.23  C 
BRANCH 50 51
ATOM     51  NZ  LYS I   5      52.185  36.381   4.445  0.30 17.53 LIG-0.08  N 
ATOM     52 HZ1  LYS I   5      52.679  37.094   4.641  0.30 17.53 LIG 0.27  HD
ATOM     53 HZ2  LYS I   5      52.670  35.644   4.562  0.30 17.53 LIG 0.27  HD
ATOM     54 HZ3  LYS I   5      51.918  36.429   3.596  0.30 17.53 LIG 0.27  HD
ENDBRANCH 50 51
ENDBRANCH 49 50
ENDBRANCH 48 49
ENDBRANCH 47 48
ENDBRANCH 46 47
BRANCH 46 55
ATOM     55  C   LYS I   5      48.208  33.784   8.568  0.30 45.89 LIG 0.20  C 
ATOM     56 OXT  LYS I   5      48.060  35.000   8.570  1.00 48.13 LIG-0.65  OA
ATOM     57 O    LYS I   5      47.719  33.023   9.400  1.00 47.49 LIG-0.65  OA
ENDBRANCH 46 55
ENDBRANCH 43 46
ENDBRANCH 32 42
ENDBRANCH 3 32
TORSDOF 22
ENDMDL
MODEL 3
USER: ADFR SOLUTION from run 87
USER: SCORE 20.564868 LL:  -4.748 LR: -17.935 RR:   0.000 FEB: -11.373
USER: RMSD 10.926561
USER: SEED 86
USER: STATUS no improvement in best 2 clusters for 5 generations
USER: GENES 24
USER: genes 0 Translation |==|  0.52609 0.52958 0.32996
USER: genes 1 Rotation |==|  0.18083 0.50306 0.16070 0.68165
USER: genes 2 Torsion [N]-C--CA-[N] |==|  0.73727
USER: genes 3 Torsion [C]-CA--N-[C] |==|  0.45513
USER: genes 4 Torsion [N]-C--CA-[N] |==|  0.45867
USER: genes 5 Torsion [C]-CA--N-[C] |==|  0.66344
USER: genes 6 Torsion [N]-C--CA-[N] |==|  0.93916
USER: genes 7 Torsion [C]-CA--N-[H1] |==|  0.12462
USER: genes 8 Torsion [C]-CA--CB-[CG] |==|  0.44651
USER: genes 9 Torsion [CA]-CB--CG-[CD1] |==|  0.81668
USER: genes 10 Torsion [C]-CA--CB-[CG] |==|  0.36594
USER: genes 11 Torsion [CA]-CB--CG-[CD2] |==|  0.55558
USER: genes 12 Torsion [C]-N--CA-[CB] |==|  0.77719
USER: genes 13 Torsion [N]-CA--CB-[CG] |==|  0.85727
USER: genes 14 Torsion [CA]-CB--CG-[CD2] |==|  0.69216
USER: genes 15 Torsion [CE2]-CZ--OH-[HH] |==|  0.21384
USER: genes 16 Torsion [N]-CA--C-[N] |==|  0.26896
USER: genes 17 Torsion [C]-N--CA-[CB] |==|  0.18566
USER: genes 18 Torsion [N]-CA--CB-[CG] |==|  0.49757
USER: genes 19 Torsion [CA]-CB--CG-[CD] |==|  0.25579
USER: genes 20 Torsion [CB]-CG--CD-[CE] |==|  0.87532
USER: genes 21 Torsion [CG]-CD--CE-[NZ] |==|  0.26207
USER: genes 22 Torsion [CD]-CE--NZ-[HZ1] |==|  0.36891
USER: genes 23 Torsion [N]-CA--C-[OXT] |==|  0.81696
ROOT
ATOM      1  C   ALA I   3      45.843  31.077   3.199  0.30 45.63 LIG 0.24  C 
ATOM      2 O    ALA I   3      44.963  31.927   3.139  0.30 45.40 LIG-0.27  OA
ATOM      3  N   TYR I   4      45.741  29.986   3.966  0.30 45.44 LIG-0.35  N 
ATOM      4 H    TYR I   4      46.361  29.391   3.980  0.30 45.44 LIG 0.16  HD
ENDROOT
BRANCH 1 5
ATOM      5  CA  ALA I   3      47.140  31.252   2.341  0.30 46.01 LIG 0.17  C 
ATOM      6  CB  ALA I   3      47.761  29.948   2.005  0.30 45.75 LIG 0.04  C 
BRANCH 5 7
ATOM      7  N   ALA I   3      48.000  32.081   3.175  0.30 46.50 LIG-0.35  N 
ATOM      8 H    ALA I   3      47.548  32.458   3.802  0.30 46.50 LIG 0.16  HD
ATOM      9  C   LEU I   2      49.318  32.296   3.073  0.30 47.15 LIG 0.24  C 
ATOM     10 O    LEU I   2      50.071  31.804   2.228  0.30 46.92 LIG-0.27  OA
BRANCH 9 11
ATOM     11  CA  LEU I   2      49.743  33.384   4.069  0.30 47.70 LIG 0.18  C 
BRANCH 11 12
ATOM     12  N   LEU I   2      51.110  33.684   4.477  0.30 48.04 LIG-0.35  N 
ATOM     13  C   PHE I   1      51.256  33.554   5.780  0.30 48.35 LIG 0.25  C 
ATOM     14 O    PHE I   1      50.296  33.210   6.449  0.30 48.51 LIG-0.27  OA
ATOM     15 H    LEU I   2      51.689  33.910   3.882  0.30 48.04 LIG 0.16  HD
BRANCH 13 16
ATOM     16  CA  PHE I   1      52.538  33.935   6.478  0.30 48.56 LIG 0.28  C 
BRANCH 16 17
ATOM     17  N   PHE I   1      53.685  33.940   5.522  0.30 48.56 LIG-0.07  N 
ATOM     18 H3   PHE I   1      53.922  33.102   5.339  0.30 48.56 LIG 0.28  HD
ATOM     19 H1   PHE I   1      53.443  34.350   4.770  0.30 48.56 LIG 0.28  HD
ATOM     20 H2   PHE I   1      54.373  34.370   5.886  0.30 48.56 LIG 0.28  HD
ENDBRANCH 16 17
BRANCH 16 21
ATOM     21  CB  PHE I   1      52.336  35.344   7.075  0.30 48.65 LIG 0.08  C 
BRANCH 21 22
ATOM     22  CG  PHE I   1      53.320  35.715   8.191  0.30 49.18 LIG-0.06  A 
ATOM     23  CD1 PHE I   1      53.297  35.037   9.395  0.30 49.79 LIG 0.01  A 
ATOM     24  CE1 PHE I   1      54.171  35.375  10.418  0.30 50.05 LIG 0.00  A 
ATOM     25  CZ  PHE I   1      55.062  36.405  10.256  0.30 49.90 LIG 0.00  A 
ATOM     26  CE2 PHE I   1      55.086  37.101   9.081  0.30 49.43 LIG 0.00  A 
ATOM     27  CD2 PHE I   1      54.225  36.766   8.057  0.30 49.27 LIG 0.01  A 
ENDBRANCH 21 22
ENDBRANCH 16 21
ENDBRANCH 13 16
ENDBRANCH 11 12
BRANCH 11 28
ATOM     28  CB  LEU I   2      48.820  34.593   4.283  0.30 47.77 LIG 0.04  C 
BRANCH 28 29
ATOM     29  CG  LEU I   2      48.266  35.308   5.470  0.30 48.15 LIG-0.02  C 
ATOM     30  CD1 LEU I   2      49.256  36.163   6.184  0.30 48.48 LIG 0.01  C 
ATOM     31  CD2 LEU I   2      47.074  36.054   4.932  0.30 48.19 LIG 0.01  C 
ENDBRANCH 28 29
ENDBRANCH 11 28
ENDBRANCH 9 11
ENDBRANCH 5 7
ENDBRANCH 1 5
BRANCH 3 32
ATOM     32  CA  TYR I   4      44.605  29.632   4.878  0.30 45.17 LIG 0.18  C 
BRANCH 32 33
ATOM     33  CB  TYR I   4      44.618  30.330   6.216  0.30 45.37 LIG 0.07  C 
BRANCH 33 34
ATOM     34  CG  TYR I   4      45.986  30.151   6.863  0.30 45.37 LIG-0.06  A 
ATOM     35  CD2 TYR I   4      46.168  29.363   7.991  0.30 45.58 LIG 0.01  A 
ATOM     36  CE2 TYR I   4      47.414  29.233   8.580  0.30 45.96 LIG 0.04  A 
ATOM     37  CZ  TYR I   4      48.486  29.902   8.038  0.30 45.81 LIG 0.07  A 
ATOM     38  CE1 TYR I   4      48.328  30.691   6.919  0.30 45.70 LIG 0.04  A 
ATOM     39  CD1 TYR I   4      47.097  30.807   6.339  0.30 45.43 LIG 0.01  A 
BRANCH 37 40
ATOM     40 OH   TYR I   4      49.721  29.783   8.628  0.30 46.58 LIG-0.36  OA
ATOM     41 HH   TYR I   4      50.058  29.041   8.426  0.30 46.58 LIG 0.22  HD
ENDBRANCH 37 40
ENDBRANCH 33 34
ENDBRANCH 32 33
BRANCH 32 42
ATOM     42  C   TYR I   4      43.193  29.409   4.352  0.30 45.00 LIG 0.24  C 
ATOM     43  N   LYS I   5      42.984  28.112   4.179  0.30 44.74 LIG-0.34  N 
ATOM     44 H    LYS I   5      43.591  27.541   4.394  0.30 44.74 LIG 0.16  HD
ATOM     45 O    TYR I   4      42.353  30.306   4.222  0.30 44.60 LIG-0.27  OA
BRANCH 43 46
ATOM     46  CA  LYS I   5      41.816  27.455   3.650  0.30 44.60 LIG 0.18  C 
BRANCH 46 47
ATOM     47  CB  LYS I   5      41.766  27.880   2.178  0.30 43.50 LIG 0.04  C 
BRANCH 47 48
ATOM     48  CG  LYS I   5      40.653  27.340   1.317  0.30 39.10 LIG 0.00  C 
BRANCH 48 49
ATOM     49  CD  LYS I   5      39.496  28.321   1.353  0.30 31.49 LIG 0.03  C 
BRANCH 49 50
ATOM     50  CE  LYS I   5      39.215  28.798   2.759  0.30 26.75 LIG 0.23  C 
BRANCH 50 51
ATOM     51  NZ  LYS I   5      39.877  30.013   3.047  0.30 17.53 LIG-0.08  N 
ATOM     52 HZ1  LYS I   5      39.306  30.580   3.428  0.30 17.53 LIG 0.27  HD
ATOM     53 HZ2  LYS I   5      40.554  29.858   3.603  0.30 17.53 LIG 0.27  HD
ATOM     54 HZ3  LYS I   5      40.188  30.369   2.292  0.30 17.53 LIG 0.27  HD
ENDBRANCH 50 51
ENDBRANCH 49 50
ENDBRANCH 48 49
ENDBRANCH 47 48
ENDBRANCH 46 47
BRANCH 46 55
ATOM     55  C   LYS I   5      41.851  25.955   3.764  0.30 45.89 LIG 0.20  C 
ATOM     56 OXT  LYS I   5      42.700  25.363   3.108  1.00 48.13 LIG-0.65  OA
ATOM     57 O    LYS I   5      41.051  25.409   4.520  1.00 47.49 LIG-0.65  OA
ENDBRANCH 46 55
ENDBRANCH 43 46
ENDBRANCH 32 42
ENDBRANCH 3 32
TORSDOF 22
ENDMDL
MODEL 4
USER: ADFR SOLUTION from run 111
USER: SCORE 21.451934 LL:  -4.176 LR: -17.927 RR:   0.000 FEB: -11.365
USER: RMSD 10.701814
USER: SEED 110
USER: STATUS 1 or 2 clusters left
USER: GENES 24
USER: genes 0 Translation |==|  0.67048 0.72377 0.49233
USER: genes 1 Rotation |==|  0.02495 0.61076 0.52204 0.60759
USER: genes 2 Torsion [N]-C--CA-[N] |==|  0.05000
USER: genes 3 Torsion [C]-CA--N-[C] |==|  0.18166
USER: genes 4 Torsion [N]-C--CA-[N] |==|  0.05119
USER: genes 5 Torsion [C]-CA--N-[C] |==|  0.17853
USER: genes 6 Torsion [N]-C--CA-[N] |==|  0.46159
USER: genes 7 Torsion [C]-CA--N-[H1] |==|  0.90235
USER: genes 8 Torsion [C]-CA--CB-[CG] |==|  0.13968
USER: genes 9 Torsion [CA]-CB--CG-[CD1] |==|  0.23618
USER: genes 10 Torsion [C]-CA--CB-[CG] |==|  0.11736
USER: genes 11 Torsion [CA]-CB--CG-[CD2] |==|  0.64619
USER: genes 12 Torsion [C]-N--CA-[CB] |==|  0.70683
USER: genes 13 Torsion [N]-CA--CB-[CG] |==|  0.15864
USER: genes 14 Torsion [CA]-CB--CG-[CD2] |==|  0.79562
USER: genes 15 Torsion [CE2]-CZ--OH-[HH] |==|  0.76556
USER: genes 16 Torsion [N]-CA--C-[N] |==|  0.38997
USER: genes 17 Torsion [C]-N--CA-[CB] |==|  0.81479
USER: genes 18 Torsion [N]-CA--CB-[CG] |==|  0.84647
USER: genes 19 Torsion [CA]-CB--CG-[CD] |==|  0.73107
USER: genes 20 Torsion [CB]-CG--CD-[CE] |==|  0.25746
USER: genes 21 Torsion [CG]-CD--CE-[NZ] |==|  0.15191
USER: genes 22 Torsion [CD]-CE--NZ-[HZ1] |==|  0.28494
USER: genes 23 Torsion [N]-CA--C-[OXT] |==|  0.51733
ROOT
ATOM      1  C   ALA I   3      50.174  36.903   8.070  0.30 45.63 LIG 0.24  C 
ATOM      2 O    ALA I   3      50.129  37.785   8.919  0.30 45.40 LIG-0.27  OA
ATOM      3  N   TYR I   4      51.075  35.914   8.104  0.30 45.44 LIG-0.35  N 
ATOM      4 H    TYR I   4      51.078  35.293   7.509  0.30 45.44 LIG 0.16  HD
ENDROOT
BRANCH 1 5
ATOM      5  CA  ALA I   3      49.138  36.911   6.898  0.30 46.01 LIG 0.17  C 
ATOM      6  CB  ALA I   3      47.783  37.295   7.360  0.30 45.75 LIG 0.04  C 
BRANCH 5 7
ATOM      7  N   ALA I   3      49.185  35.549   6.382  0.30 46.50 LIG-0.35  N 
ATOM      8 H    ALA I   3      49.493  35.536   5.579  0.30 46.50 LIG 0.16  HD
ATOM      9  C   LEU I   2      48.828  34.407   6.983  0.30 47.15 LIG 0.24  C 
ATOM     10 O    LEU I   2      48.387  34.298   8.132  0.30 46.92 LIG-0.27  OA
BRANCH 9 11
ATOM     11  CA  LEU I   2      48.891  33.250   5.977  0.30 47.70 LIG 0.18  C 
BRANCH 11 12
ATOM     12  N   LEU I   2      49.615  33.254   4.712  0.30 48.04 LIG-0.35  N 
ATOM     13  C   PHE I   1      50.914  33.356   4.908  0.30 48.35 LIG 0.25  C 
ATOM     14 O    PHE I   1      51.334  33.420   6.051  0.30 48.51 LIG-0.27  OA
ATOM     15 H    LEU I   2      49.177  33.193   3.973  0.30 48.04 LIG 0.16  HD
BRANCH 13 16
ATOM     16  CA  PHE I   1      51.881  33.516   3.761  0.30 48.56 LIG 0.28  C 
BRANCH 16 17
ATOM     17  N   PHE I   1      53.226  33.938   4.252  0.30 48.56 LIG-0.07  N 
ATOM     18 H3   PHE I   1      53.659  34.364   3.602  0.30 48.56 LIG 0.28  HD
ATOM     19 H1   PHE I   1      53.130  34.481   4.950  0.30 48.56 LIG 0.28  HD
ATOM     20 H2   PHE I   1      53.691  33.220   4.497  0.30 48.56 LIG 0.28  HD
ENDBRANCH 16 17
BRANCH 16 21
ATOM     21  CB  PHE I   1      51.977  32.152   3.047  0.30 48.65 LIG 0.08  C 
BRANCH 21 22
ATOM     22  CG  PHE I   1      50.626  31.520   2.686  0.30 49.18 LIG-0.06  A 
ATOM     23  CD1 PHE I   1      49.985  31.867   1.511  0.30 49.79 LIG 0.01  A 
ATOM     24  CE1 PHE I   1      48.756  31.315   1.182  0.30 50.05 LIG 0.00  A 
ATOM     25  CZ  PHE I   1      48.146  30.427   2.031  0.30 49.90 LIG 0.00  A 
ATOM     26  CE2 PHE I   1      48.753  30.088   3.207  0.30 49.43 LIG 0.00  A 
ATOM     27  CD2 PHE I   1      49.979  30.627   3.537  0.30 49.27 LIG 0.01  A 
ENDBRANCH 21 22
ENDBRANCH 16 21
ENDBRANCH 13 16
ENDBRANCH 11 12
BRANCH 11 28
ATOM     28  CB  LEU I   2      48.657  31.818   6.481  0.30 47.77 LIG 0.04  C 
BRANCH 28 29
ATOM     29  CG  LEU I   2      47.704  31.168   7.428  0.30 48.15 LIG-0.02  C 
ATOM     30  CD1 LEU I   2      46.657  30.340   6.766  0.30 48.48 LIG 0.01  C 
ATOM     31  CD2 LEU I   2      48.586  30.409   8.382  0.30 48.19 LIG 0.01  C 
ENDBRANCH 28 29
ENDBRANCH 11 28
ENDBRANCH 9 11
ENDBRANCH 5 7
ENDBRANCH 1 5
BRANCH 3 32
ATOM     32  CA  TYR I   4      52.166  35.726   9.115  0.30 45.17 LIG 0.18  C 
BRANCH 32 33
ATOM     33  CB  TYR I   4      53.554  36.058   8.627  0.30 45.37 LIG 0.07  C 
BRANCH 33 34
ATOM     34  CG  TYR I   4      53.581  37.500   8.133  0.30 45.37 LIG-0.06  A 
ATOM     35  CD2 TYR I   4      52.991  37.877   6.934  0.30 45.58 LIG 0.01  A 
ATOM     36  CE2 TYR I   4      53.048  39.186   6.489  0.30 45.96 LIG 0.04  A 
ATOM     37  CZ  TYR I   4      53.705  40.125   7.248  0.30 45.81 LIG 0.07  A 
ATOM     38  CE1 TYR I   4      54.300  39.773   8.440  0.30 45.70 LIG 0.04  A 
ATOM     39  CD1 TYR I   4      54.232  38.481   8.876  0.30 45.43 LIG 0.01  A 
BRANCH 37 40
ATOM     40 OH   TYR I   4      53.773  41.423   6.801  0.30 46.58 LIG-0.36  OA
ATOM     41 HH   TYR I   4      54.418  41.503   6.269  0.30 46.58 LIG 0.22  HD
ENDBRANCH 37 40
ENDBRANCH 33 34
ENDBRANCH 32 33
BRANCH 32 42
ATOM     42  C   TYR I   4      51.966  36.074  10.585  0.30 45.00 LIG 0.24  C 
ATOM     43  N   LYS I   5      52.551  35.157  11.341  0.30 44.74 LIG-0.34  N 
ATOM     44 H    LYS I   5      52.993  34.513  10.981  0.30 44.74 LIG 0.16  HD
ATOM     45 O    TYR I   4      51.435  37.117  10.982  0.30 44.60 LIG-0.27  OA
BRANCH 43 46
ATOM     46  CA  LYS I   5      52.568  35.059  12.778  0.30 44.60 LIG 0.18  C 
BRANCH 46 47
ATOM     47  CB  LYS I   5      53.379  36.274  13.241  0.30 43.50 LIG 0.04  C 
BRANCH 47 48
ATOM     48  CG  LYS I   5      54.768  36.459  12.686  0.30 39.10 LIG 0.00  C 
BRANCH 48 49
ATOM     49  CD  LYS I   5      55.764  35.893  13.681  0.30 31.49 LIG 0.03  C 
BRANCH 49 50
ATOM     50  CE  LYS I   5      56.095  34.450  13.378  0.30 26.75 LIG 0.23  C 
BRANCH 50 51
ATOM     51  NZ  LYS I   5      56.548  34.280  12.050  0.30 17.53 LIG-0.08  N 
ATOM     52 HZ1  LYS I   5      57.433  34.190  12.047  0.30 17.53 LIG 0.27  HD
ATOM     53 HZ2  LYS I   5      56.176  33.551  11.700  0.30 17.53 LIG 0.27  HD
ATOM     54 HZ3  LYS I   5      56.321  34.991  11.564  0.30 17.53 LIG 0.27  HD
ENDBRANCH 50 51
ENDBRANCH 49 50
ENDBRANCH 48 49
ENDBRANCH 47 48
ENDBRANCH 46 47
BRANCH 46 55
ATOM     55  C   LYS I   5      51.201  35.068  13.409  0.30 45.89 LIG 0.20  C 
ATOM     56 OXT  LYS I   5      51.150  35.105  14.633  1.00 48.13 LIG-0.65  OA
ATOM     57 O    LYS I   5      50.218  35.062  12.672  1.00 47.49 LIG-0.65  OA
ENDBRANCH 46 55
ENDBRANCH 43 46
ENDBRANCH 32 42
ENDBRANCH 3 32
TORSDOF 22
ENDMDL
MODEL 5
USER: ADFR SOLUTION from run 121
USER: SCORE 20.459979 LL:  -4.750 LR: -17.649 RR:   0.000 FEB: -11.086
USER: RMSD 6.199768
USER: SEED 120
USER: STATUS no improvement in best 1 clusters for 5 generations
USER: GENES 24
USER: genes 0 Translation |==|  0.53096 0.50533 0.37367
USER: genes 1 Rotation |==|  0.33780 0.21738 0.57723 0.87128
USER: genes 2 Torsion [N]-C--CA-[N] |==|  0.67514
USER: genes 3 Torsion [C]-CA--N-[C] |==|  0.76752
USER: genes 4 Torsion [N]-C--CA-[N] |==|  0.38087
USER: genes 5 Torsion [C]-CA--N-[C] |==|  0.86379
USER: genes 6 Torsion [N]-C--CA-[N] |==|  0.46727
USER: genes 7 Torsion [C]-CA--N-[H1] |==|  0.76880
USER: genes 8 Torsion [C]-CA--CB-[CG] |==|  0.94720
USER: genes 9 Torsion [CA]-CB--CG-[CD1] |==|  0.79832
USER: genes 10 Torsion [C]-CA--CB-[CG] |==|  0.18614
USER: genes 11 Torsion [CA]-CB--CG-[CD2] |==|  0.75214
USER: genes 12 Torsion [C]-N--CA-[CB] |==|  0.19936
USER: genes 13 Torsion [N]-CA--CB-[CG] |==|  0.13663
USER: genes 14 Torsion [CA]-CB--CG-[CD2] |==|  0.26218
USER: genes 15 Torsion [CE2]-CZ--OH-[HH] |==|  0.62709
USER: genes 16 Torsion [N]-CA--C-[N] |==|  0.85681
USER: genes 17 Torsion [C]-N--CA-[CB] |==|  0.45383
USER: genes 18 Torsion [N]-CA--CB-[CG] |==|  0.78714
USER: genes 19 Torsion [CA]-CB--CG-[CD] |==|  0.97051
USER: genes 20 Torsion [CB]-CG--CD-[CE] |==|  0.65595
USER: genes 21 Torsion [CG]-CD--CE-[NZ] |==|  0.73579
USER: genes 22 Torsion [CD]-CE--NZ-[HZ1] |==|  0.24677
USER: genes 23 Torsion [N]-CA--C-[OXT] |==|  0.14745
ROOT
ATOM      1  C   ALA I   3      45.989  30.350   4.510  0.30 45.63 LIG 0.24  C 
ATOM      2 O    ALA I   3      46.043  29.144   4.719  0.30 45.40 LIG-0.27  OA
ATOM      3  N   TYR I   4      46.836  31.219   5.074  0.30 45.44 LIG-0.35  N 
ATOM      4 H    TYR I   4      46.794  32.060   4.899  0.30 45.44 LIG 0.16  HD
ENDROOT
BRANCH 1 5
ATOM      5  CA  ALA I   3      44.900  30.913   3.538  0.30 46.01 LIG 0.17  C 
ATOM      6  CB  ALA I   3      45.060  32.369   3.311  0.30 45.75 LIG 0.04  C 
BRANCH 5 7
ATOM      7  N   ALA I   3      43.642  30.587   4.198  0.30 46.50 LIG-0.35  N 
ATOM      8 H    ALA I   3      43.353  31.257   4.654  0.30 46.50 LIG 0.16  HD
ATOM      9  C   LEU I   2      42.947  29.443   4.169  0.30 47.15 LIG 0.24  C 
ATOM     10 O    LEU I   2      43.253  28.423   3.544  0.30 46.92 LIG-0.27  OA
BRANCH 9 11
ATOM     11  CA  LEU I   2      41.780  29.520   5.163  0.30 47.70 LIG 0.18  C 
BRANCH 11 12
ATOM     12  N   LEU I   2      40.417  29.064   4.921  0.30 48.04 LIG-0.35  N 
ATOM     13  C   PHE I   1      39.960  29.522   3.773  0.30 48.35 LIG 0.25  C 
ATOM     14 O    PHE I   1      40.686  30.221   3.086  0.30 48.51 LIG-0.27  OA
ATOM     15 H    LEU I   2      40.029  28.562   5.502  0.30 48.04 LIG 0.16  HD
BRANCH 13 16
ATOM     16  CA  PHE I   1      38.529  29.309   3.346  0.30 48.56 LIG 0.28  C 
BRANCH 16 17
ATOM     17  N   PHE I   1      38.193  30.155   2.163  0.30 48.56 LIG-0.07  N 
ATOM     18 H3   PHE I   1      37.506  29.795   1.725  0.30 48.56 LIG 0.28  HD
ATOM     19 H1   PHE I   1      37.975  30.973   2.435  0.30 48.56 LIG 0.28  HD
ATOM     20 H2   PHE I   1      38.898  30.201   1.621  0.30 48.56 LIG 0.28  HD
ENDBRANCH 16 17
BRANCH 16 21
ATOM     21  CB  PHE I   1      38.372  27.815   2.995  0.30 48.65 LIG 0.08  C 
BRANCH 21 22
ATOM     22  CG  PHE I   1      39.689  27.079   2.717  0.30 49.18 LIG-0.06  A 
ATOM     23  CD1 PHE I   1      40.385  27.314   1.545  0.30 49.79 LIG 0.01  A 
ATOM     24  CE1 PHE I   1      41.568  26.644   1.274  0.30 50.05 LIG 0.00  A 
ATOM     25  CZ  PHE I   1      42.058  25.717   2.159  0.30 49.90 LIG 0.00  A 
ATOM     26  CE2 PHE I   1      41.374  25.455   3.312  0.30 49.43 LIG 0.00  A 
ATOM     27  CD2 PHE I   1      40.200  26.124   3.592  0.30 49.27 LIG 0.01  A 
ENDBRANCH 21 22
ENDBRANCH 16 21
ENDBRANCH 13 16
ENDBRANCH 11 12
BRANCH 11 28
ATOM     28  CB  LEU I   2      42.092  29.571   6.666  0.30 47.77 LIG 0.04  C 
BRANCH 28 29
ATOM     29  CG  LEU I   2      42.739  30.554   7.584  0.30 48.15 LIG-0.02  C 
ATOM     30  CD1 LEU I   2      42.146  30.595   8.950  0.30 48.48 LIG 0.01  C 
ATOM     31  CD2 LEU I   2      44.199  30.190   7.550  0.30 48.19 LIG 0.01  C 
ENDBRANCH 28 29
ENDBRANCH 11 28
ENDBRANCH 9 11
ENDBRANCH 5 7
ENDBRANCH 1 5
BRANCH 3 32
ATOM     32  CA  TYR I   4      47.933  30.903   6.045  0.30 45.17 LIG 0.18  C 
BRANCH 32 33
ATOM     33  CB  TYR I   4      49.124  30.189   5.454  0.30 45.37 LIG 0.07  C 
BRANCH 33 34
ATOM     34  CG  TYR I   4      49.575  30.921   4.196  0.30 45.37 LIG-0.06  A 
ATOM     35  CD2 TYR I   4      50.578  31.880   4.223  0.30 45.58 LIG 0.01  A 
ATOM     36  CE2 TYR I   4      50.956  32.554   3.075  0.30 45.96 LIG 0.04  A 
ATOM     37  CZ  TYR I   4      50.321  32.268   1.889  0.30 45.81 LIG 0.07  A 
ATOM     38  CE1 TYR I   4      49.321  31.321   1.839  0.30 45.70 LIG 0.04  A 
ATOM     39  CD1 TYR I   4      48.960  30.656   2.976  0.30 45.43 LIG 0.01  A 
BRANCH 37 40
ATOM     40 OH   TYR I   4      50.688  32.944   0.750  0.30 46.58 LIG-0.36  OA
ATOM     41 HH   TYR I   4      49.999  33.196   0.341  0.30 46.58 LIG 0.22  HD
ENDBRANCH 37 40
ENDBRANCH 33 34
ENDBRANCH 32 33
BRANCH 32 42
ATOM     42  C   TYR I   4      48.327  31.872   7.154  0.30 45.00 LIG 0.24  C 
ATOM     43  N   LYS I   5      48.546  33.072   6.637  0.30 44.74 LIG-0.34  N 
ATOM     44 H    LYS I   5      48.425  33.213   5.797  0.30 44.74 LIG 0.16  HD
ATOM     45 O    TYR I   4      48.324  31.585   8.356  0.30 44.60 LIG-0.27  OA
BRANCH 43 46
ATOM     46  CA  LYS I   5      48.990  34.267   7.305  0.30 44.60 LIG 0.18  C 
BRANCH 46 47
ATOM     47  CB  LYS I   5      49.466  35.190   6.177  0.30 43.50 LIG 0.04  C 
BRANCH 47 48
ATOM     48  CG  LYS I   5      50.804  34.909   5.542  0.30 39.10 LIG 0.00  C 
BRANCH 48 49
ATOM     49  CD  LYS I   5      51.526  33.869   6.378  0.30 31.49 LIG 0.03  C 
BRANCH 49 50
ATOM     50  CE  LYS I   5      52.881  34.362   6.832  0.30 26.75 LIG 0.23  C 
BRANCH 50 51
ATOM     51  NZ  LYS I   5      53.914  33.940   5.966  0.30 17.53 LIG-0.08  N 
ATOM     52 HZ1  LYS I   5      54.021  34.539   5.317  0.30 17.53 LIG 0.27  HD
ATOM     53 HZ2  LYS I   5      54.673  33.863   6.424  0.30 17.53 LIG 0.27  HD
ATOM     54 HZ3  LYS I   5      53.701  33.152   5.610  0.30 17.53 LIG 0.27  HD
ENDBRANCH 50 51
ENDBRANCH 49 50
ENDBRANCH 48 49
ENDBRANCH 47 48
ENDBRANCH 46 47
BRANCH 46 55
ATOM     55  C   LYS I   5      47.923  34.946   8.122  0.30 45.89 LIG 0.20  C 
ATOM     56 OXT  LYS I   5      47.328  34.261   8.946  1.00 48.13 LIG-0.65  OA
ATOM     57 O    LYS I   5      47.723  36.145   7.939  1.00 47.49 LIG-0.65  OA
ENDBRANCH 46 55
ENDBRANCH 43 46
ENDBRANCH 32 42
ENDBRANCH 3 32
TORSDOF 22
ENDMDL
MODEL 6
USER: ADFR SOLUTION from run 84
USER: SCORE 20.967719 LL:  -4.235 LR: -17.643 RR:   0.000 FEB: -11.080
USER: RMSD 9.879122
USER: SEED 83
USER: STATUS no improvement in best 2 clusters for 5 generations
USER: GENES 24
USER: genes 0 Translation |==|  0.60667 0.71291 0.45509
USER: genes 1 Rotation |==|  0.08788 0.35543 0.58176 0.72929
USER: genes 2 Torsion [N]-C--CA-[N] |==|  0.22107
USER: genes 3 Torsion [C]-CA--N-[C] |==|  0.82646
USER: genes 4 Torsion [N]-C--CA-[N] |==|  0.95109
USER: genes 5 Torsion [C]-CA--N-[C] |==|  0.65556
USER: genes 6 Torsion [N]-C--CA-[N] |==|  0.74548
USER: genes 7 Torsion [C]-CA--N-[H1] |==|  0.70654
USER: genes 8 Torsion [C]-CA--CB-[CG] |==|  0.10335
USER: genes 9 Torsion [CA]-CB--CG-[CD1] |==|  0.12960
USER: genes 10 Torsion [C]-CA--CB-[CG] |==|  0.21322
USER: genes 11 Torsion [CA]-CB--CG-[CD2] |==|  0.77125
USER: genes 12 Torsion [C]-N--CA-[CB] |==|  0.78423
USER: genes 13 Torsion [N]-CA--CB-[CG] |==|  0.70044
USER: genes 14 Torsion [CA]-CB--CG-[CD2] |==|  0.45288
USER: genes 15 Torsion [CE2]-CZ--OH-[HH] |==|  0.75958
USER: genes 16 Torsion [N]-CA--C-[N] |==|  0.48149
USER: genes 17 Torsion [C]-N--CA-[CB] |==|  0.40094
USER: genes 18 Torsion [N]-CA--CB-[CG] |==|  0.76091
USER: genes 19 Torsion [CA]-CB--CG-[CD] |==|  0.18659
USER: genes 20 Torsion [CB]-CG--CD-[CE] |==|  0.72718
USER: genes 21 Torsion [CG]-CD--CE-[NZ] |==|  0.65076
USER: genes 22 Torsion [CD]-CE--NZ-[HZ1] |==|  0.72575
USER: genes 23 Torsion [N]-CA--C-[OXT] |==|  0.09932
ROOT
ATOM      1  C   ALA I   3      48.260  36.577   6.953  0.30 45.63 LIG 0.24  C 
ATOM      2 O    ALA I   3      47.708  36.399   8.031  0.30 45.40 LIG-0.27  OA
ATOM      3  N   TYR I   4      49.560  36.874   6.848  0.30 45.44 LIG-0.35  N 
ATOM      4 H    TYR I   4      49.935  36.977   6.081  0.30 45.44 LIG 0.16  HD
ENDROOT
BRANCH 1 5
ATOM      5  CA  ALA I   3      47.430  36.445   5.633  0.30 46.01 LIG 0.17  C 
ATOM      6  CB  ALA I   3      45.978  36.617   5.872  0.30 45.75 LIG 0.04  C 
BRANCH 5 7
ATOM      7  N   ALA I   3      47.760  35.111   5.146  0.30 46.50 LIG-0.35  N 
ATOM      8 H    ALA I   3      47.060  34.612   5.122  0.30 46.50 LIG 0.16  HD
ATOM      9  C   LEU I   2      48.947  34.624   4.764  0.30 47.15 LIG 0.24  C 
ATOM     10 O    LEU I   2      50.015  35.245   4.744  0.30 46.92 LIG-0.27  OA
BRANCH 9 11
ATOM     11  CA  LEU I   2      48.828  33.117   4.502  0.30 47.70 LIG 0.18  C 
BRANCH 11 12
ATOM     12  N   LEU I   2      47.754  32.248   4.969  0.30 48.04 LIG-0.35  N 
ATOM     13  C   PHE I   1      48.231  31.239   5.670  0.30 48.35 LIG 0.25  C 
ATOM     14 O    PHE I   1      49.436  31.158   5.844  0.30 48.51 LIG-0.27  OA
ATOM     15 H    LEU I   2      46.939  32.439   4.770  0.30 48.04 LIG 0.16  HD
BRANCH 13 16
ATOM     16  CA  PHE I   1      47.343  30.120   6.155  0.30 48.56 LIG 0.28  C 
BRANCH 16 17
ATOM     17  N   PHE I   1      46.819  30.410   7.522  0.30 48.56 LIG-0.07  N 
ATOM     18 H3   PHE I   1      45.947  30.232   7.550  0.30 48.56 LIG 0.28  HD
ATOM     19 H1   PHE I   1      47.244  29.903   8.117  0.30 48.56 LIG 0.28  HD
ATOM     20 H2   PHE I   1      46.953  31.269   7.716  0.30 48.56 LIG 0.28  HD
ENDBRANCH 16 17
BRANCH 16 21
ATOM     21  CB  PHE I   1      46.177  29.990   5.153  0.30 48.65 LIG 0.08  C 
BRANCH 21 22
ATOM     22  CG  PHE I   1      46.564  30.217   3.686  0.30 49.18 LIG-0.06  A 
ATOM     23  CD1 PHE I   1      47.686  29.604   3.158  0.30 49.79 LIG 0.01  A 
ATOM     24  CE1 PHE I   1      48.056  29.814   1.838  0.30 50.05 LIG 0.00  A 
ATOM     25  CZ  PHE I   1      47.322  30.653   1.038  0.30 49.90 LIG 0.00  A 
ATOM     26  CE2 PHE I   1      46.223  31.284   1.547  0.30 49.43 LIG 0.00  A 
ATOM     27  CD2 PHE I   1      45.844  31.074   2.857  0.30 49.27 LIG 0.01  A 
ENDBRANCH 21 22
ENDBRANCH 16 21
ENDBRANCH 13 16
ENDBRANCH 11 12
BRANCH 11 28
ATOM     28  CB  LEU I   2      49.530  32.522   3.272  0.30 47.77 LIG 0.04  C 
BRANCH 28 29
ATOM     29  CG  LEU I   2      50.936  32.166   2.920  0.30 48.15 LIG-0.02  C 
ATOM     30  CD1 LEU I   2      51.056  31.063   1.926  0.30 48.48 LIG 0.01  C 
ATOM     31  CD2 LEU I   2      51.551  33.468   2.482  0.30 48.19 LIG 0.01  C 
ENDBRANCH 28 29
ENDBRANCH 11 28
ENDBRANCH 9 11
ENDBRANCH 5 7
ENDBRANCH 1 5
BRANCH 3 32
ATOM     32  CA  TYR I   4      50.531  37.070   7.974  0.30 45.17 LIG 0.18  C 
BRANCH 32 33
ATOM     33  CB  TYR I   4      50.437  38.403   8.675  0.30 45.37 LIG 0.07  C 
BRANCH 33 34
ATOM     34  CG  TYR I   4      51.645  39.253   8.301  0.30 45.37 LIG-0.06  A 
ATOM     35  CD2 TYR I   4      51.668  40.627   8.504  0.30 45.58 LIG 0.01  A 
ATOM     36  CE2 TYR I   4      52.763  41.386   8.134  0.30 45.96 LIG 0.04  A 
ATOM     37  CZ  TYR I   4      53.844  40.767   7.551  0.30 45.81 LIG 0.07  A 
ATOM     38  CE1 TYR I   4      53.842  39.405   7.338  0.30 45.70 LIG 0.04  A 
ATOM     39  CD1 TYR I   4      52.760  38.662   7.714  0.30 45.43 LIG 0.01  A 
BRANCH 37 40
ATOM     40 OH   TYR I   4      54.928  41.522   7.172  0.30 46.58 LIG-0.36  OA
ATOM     41 HH   TYR I   4      54.804  41.822   6.398  0.30 46.58 LIG 0.22  HD
ENDBRANCH 37 40
ENDBRANCH 33 34
ENDBRANCH 32 33
BRANCH 32 42
ATOM     42  C   TYR I   4      50.896  35.937   8.925  0.30 45.00 LIG 0.24  C 
ATOM     43  N   LYS I   5      51.872  36.331   9.730  0.30 44.74 LIG-0.34  N 
ATOM     44 H    LYS I   5      52.173  37.135   9.687  0.30 44.74 LIG 0.16  HD
ATOM     45 O    TYR I   4      50.284  34.865   8.991  0.30 44.60 LIG-0.27  OA
BRANCH 43 46
ATOM     46  CA  LYS I   5      52.560  35.571  10.742  0.30 44.60 LIG 0.18  C 
BRANCH 46 47
ATOM     47  CB  LYS I   5      54.006  36.078  10.692  0.30 43.50 LIG 0.04  C 
BRANCH 47 48
ATOM     48  CG  LYS I   5      54.951  35.443   9.704  0.30 39.10 LIG 0.00  C 
BRANCH 48 49
ATOM     49  CD  LYS I   5      54.498  35.804   8.303  0.30 31.49 LIG 0.03  C 
BRANCH 49 50
ATOM     50  CE  LYS I   5      53.685  34.694   7.677  0.30 26.75 LIG 0.23  C 
BRANCH 50 51
ATOM     51  NZ  LYS I   5      54.208  34.297   6.425  0.30 17.53 LIG-0.08  N 
ATOM     52 HZ1  LYS I   5      53.748  34.690   5.773  0.30 17.53 LIG 0.27  HD
ATOM     53 HZ2  LYS I   5      55.063  34.539   6.370  0.30 17.53 LIG 0.27  HD
ATOM     54 HZ3  LYS I   5      54.144  33.413   6.342  0.30 17.53 LIG 0.27  HD
ENDBRANCH 50 51
ENDBRANCH 49 50
ENDBRANCH 48 49
ENDBRANCH 47 48
ENDBRANCH 46 47
BRANCH 46 55
ATOM     55  C   LYS I   5      51.993  35.737  12.126  0.30 45.89 LIG 0.20  C 
ATOM     56 OXT  LYS I   5      50.778  35.862  12.223  1.00 48.13 LIG-0.65  OA
ATOM     57 O    LYS I   5      52.768  35.713  13.080  1.00 47.49 LIG-0.65  OA
ENDBRANCH 46 55
ENDBRANCH 43 46
ENDBRANCH 32 42
ENDBRANCH 3 32
TORSDOF 22
ENDMDL
MODEL 7
USER: ADFR SOLUTION from run 160
USER: SCORE 19.210677 LL:  -4.359 LR: -17.634 RR:   0.000 FEB: -11.071
USER: RMSD 11.046377
USER: SEED 159
USER: STATUS no improvement in best 7 clusters for 5 generations
USER: GENES 24
USER: genes 0 Translation |==|  0.60310 0.51667 0.36222
USER: genes 1 Rotation |==|  0.35759 0.04654 0.41053 0.62686
USER: genes 2 Torsion [N]-C--CA-[N] |==|  0.09524
USER: genes 3 Torsion [C]-CA--N-[C] |==|  0.50001
USER: genes 4 Torsion [N]-C--CA-[N] |==|  0.30098
USER: genes 5 Torsion [C]-CA--N-[C] |==|  0.70449
USER: genes 6 Torsion [N]-C--CA-[N] |==|  0.91023
USER: genes 7 Torsion [C]-CA--N-[H1] |==|  0.73365
USER: genes 8 Torsion [C]-CA--CB-[CG] |==|  0.41929
USER: genes 9 Torsion [CA]-CB--CG-[CD1] |==|  0.74413
USER: genes 10 Torsion [C]-CA--CB-[CG] |==|  0.24353
USER: genes 11 Torsion [CA]-CB--CG-[CD2] |==|  0.11448
USER: genes 12 Torsion [C]-N--CA-[CB] |==|  0.92756
USER: genes 13 Torsion [N]-CA--CB-[CG] |==|  0.76658
USER: genes 14 Torsion [CA]-CB--CG-[CD2] |==|  0.85040
USER: genes 15 Torsion [CE2]-CZ--OH-[HH] |==|  0.24510
USER: genes 16 Torsion [N]-CA--C-[N] |==|  0.24229
USER: genes 17 Torsion [C]-N--CA-[CB] |==|  0.13116
USER: genes 18 Torsion [N]-CA--CB-[CG] |==|  0.65025
USER: genes 19 Torsion [CA]-CB--CG-[CD] |==|  0.12045
USER: genes 20 Torsion [CB]-CG--CD-[CE] |==|  0.30523
USER: genes 21 Torsion [CG]-CD--CE-[NZ] |==|  0.94893
USER: genes 22 Torsion [CD]-CE--NZ-[HZ1] |==|  0.45194
USER: genes 23 Torsion [N]-CA--C-[OXT] |==|  0.91951
ROOT
ATOM      1  C   ALA I   3      48.153  30.690   4.167  0.30 45.63 LIG 0.24  C 
ATOM      2 O    ALA I   3      48.059  29.482   3.990  0.30 45.40 LIG-0.27  OA
ATOM      3  N   TYR I   4      47.699  31.295   5.270  0.30 45.44 LIG-0.35  N 
ATOM      4 H    TYR I   4      47.792  32.143   5.385  0.30 45.44 LIG 0.16  HD
ENDROOT
BRANCH 1 5
ATOM      5  CA  ALA I   3      48.840  31.575   3.075  0.30 46.01 LIG 0.17  C 
ATOM      6  CB  ALA I   3      49.771  30.790   2.230  0.30 45.75 LIG 0.04  C 
BRANCH 5 7
ATOM      7  N   ALA I   3      49.522  32.609   3.843  0.30 46.50 LIG-0.35  N 
ATOM      8 H    ALA I   3      49.395  32.498   4.687  0.30 46.50 LIG 0.16  HD
ATOM      9  C   LEU I   2      50.268  33.631   3.405  0.30 47.15 LIG 0.24  C 
ATOM     10 O    LEU I   2      50.530  33.885   2.225  0.30 46.92 LIG-0.27  OA
BRANCH 9 11
ATOM     11  CA  LEU I   2      50.625  34.553   4.578  0.30 47.70 LIG 0.18  C 
BRANCH 11 12
ATOM     12  N   LEU I   2      51.942  34.692   5.189  0.30 48.04 LIG-0.35  N 
ATOM     13  C   PHE I   1      51.983  34.106   6.368  0.30 48.35 LIG 0.25  C 
ATOM     14 O    PHE I   1      50.983  33.542   6.782  0.30 48.51 LIG-0.27  OA
ATOM     15 H    LEU I   2      52.560  35.117   4.768  0.30 48.04 LIG 0.16  HD
BRANCH 13 16
ATOM     16  CA  PHE I   1      53.188  34.216   7.269  0.30 48.56 LIG 0.28  C 
BRANCH 16 17
ATOM     17  N   PHE I   1      54.444  34.315   6.469  0.30 48.56 LIG-0.07  N 
ATOM     18 H3   PHE I   1      55.015  34.861   6.879  0.30 48.56 LIG 0.28  HD
ATOM     19 H1   PHE I   1      54.810  33.508   6.391  0.30 48.56 LIG 0.28  HD
ATOM     20 H2   PHE I   1      54.257  34.635   5.660  0.30 48.56 LIG 0.28  HD
ENDBRANCH 16 17
BRANCH 16 21
ATOM     21  CB  PHE I   1      53.003  35.483   8.130  0.30 48.65 LIG 0.08  C 
BRANCH 21 22
ATOM     22  CG  PHE I   1      53.672  35.425   9.510  0.30 49.18 LIG-0.06  A 
ATOM     23  CD1 PHE I   1      52.965  34.977  10.610  0.30 49.79 LIG 0.01  A 
ATOM     24  CE1 PHE I   1      53.553  34.935  11.865  0.30 50.05 LIG 0.00  A 
ATOM     25  CZ  PHE I   1      54.846  35.359  12.038  0.30 49.90 LIG 0.00  A 
ATOM     26  CE2 PHE I   1      55.555  35.825  10.967  0.30 49.43 LIG 0.00  A 
ATOM     27  CD2 PHE I   1      54.979  35.862   9.714  0.30 49.27 LIG 0.01  A 
ENDBRANCH 21 22
ENDBRANCH 16 21
ENDBRANCH 13 16
ENDBRANCH 11 12
BRANCH 11 28
ATOM     28  CB  LEU I   2      49.760  35.797   4.832  0.30 47.77 LIG 0.04  C 
BRANCH 28 29
ATOM     29  CG  LEU I   2      48.515  36.085   5.604  0.30 48.15 LIG-0.02  C 
ATOM     30  CD1 LEU I   2      47.257  35.779   4.867  0.30 48.48 LIG 0.01  C 
ATOM     31  CD2 LEU I   2      48.687  35.317   6.887  0.30 48.19 LIG 0.01  C 
ENDBRANCH 28 29
ENDBRANCH 11 28
ENDBRANCH 9 11
ENDBRANCH 5 7
ENDBRANCH 1 5
BRANCH 3 32
ATOM     32  CA  TYR I   4      46.993  30.649   6.424  0.30 45.17 LIG 0.18  C 
BRANCH 32 33
ATOM     33  CB  TYR I   4      46.252  29.378   6.089  0.30 45.37 LIG 0.07  C 
BRANCH 33 34
ATOM     34  CG  TYR I   4      44.873  29.730   5.543  0.30 45.37 LIG-0.06  A 
ATOM     35  CD2 TYR I   4      43.994  30.550   6.238  0.30 45.58 LIG 0.01  A 
ATOM     36  CE2 TYR I   4      42.736  30.838   5.739  0.30 45.96 LIG 0.04  A 
ATOM     37  CZ  TYR I   4      42.351  30.296   4.535  0.30 45.81 LIG 0.07  A 
ATOM     38  CE1 TYR I   4      43.207  29.477   3.829  0.30 45.70 LIG 0.04  A 
ATOM     39  CD1 TYR I   4      44.449  29.205   4.325  0.30 45.43 LIG 0.01  A 
BRANCH 37 40
ATOM     40 OH   TYR I   4      41.098  30.571   4.044  0.30 46.58 LIG-0.36  OA
ATOM     41 HH   TYR I   4      41.125  31.274   3.586  0.30 46.58 LIG 0.22  HD
ENDBRANCH 37 40
ENDBRANCH 33 34
ENDBRANCH 32 33
BRANCH 32 42
ATOM     42  C   TYR I   4      47.601  30.617   7.821  0.30 45.00 LIG 0.24  C 
ATOM     43  N   LYS I   5      47.270  31.722   8.473  0.30 44.74 LIG-0.34  N 
ATOM     44 H    LYS I   5      46.753  32.304   8.109  0.30 44.74 LIG 0.16  HD
ATOM     45 O    TYR I   4      48.210  29.649   8.288  0.30 44.60 LIG-0.27  OA
BRANCH 43 46
ATOM     46  CA  LYS I   5      47.668  32.135   9.794  0.30 44.60 LIG 0.18  C 
BRANCH 46 47
ATOM     47  CB  LYS I   5      49.185  31.910   9.830  0.30 43.50 LIG 0.04  C 
BRANCH 47 48
ATOM     48  CG  LYS I   5      49.756  31.066  10.940  0.30 39.10 LIG 0.00  C 
BRANCH 48 49
ATOM     49  CD  LYS I   5      48.871  29.847  11.122  0.30 31.49 LIG 0.03  C 
BRANCH 49 50
ATOM     50  CE  LYS I   5      49.562  28.584  10.662  0.30 26.75 LIG 0.23  C 
BRANCH 50 51
ATOM     51  NZ  LYS I   5      50.655  28.860   9.809  0.30 17.53 LIG-0.08  N 
ATOM     52 HZ1  LYS I   5      51.181  28.144   9.760  0.30 17.53 LIG 0.27  HD
ATOM     53 HZ2  LYS I   5      50.354  29.062   8.997  0.30 17.53 LIG 0.27  HD
ATOM     54 HZ3  LYS I   5      51.119  29.546  10.134  0.30 17.53 LIG 0.27  HD
ENDBRANCH 50 51
ENDBRANCH 49 50
ENDBRANCH 48 49
ENDBRANCH 47 48
ENDBRANCH 46 47
BRANCH 46 55
ATOM     55  C   LYS I   5      47.342  33.569  10.114  0.30 45.89 LIG 0.20  C 
ATOM     56 OXT  LYS I   5      47.309  34.358   9.178  1.00 48.13 LIG-0.65  OA
ATOM     57 O    LYS I   5      47.103  33.865  11.283  1.00 47.49 LIG-0.65  OA
ENDBRANCH 46 55
ENDBRANCH 43 46
ENDBRANCH 32 42
ENDBRANCH 3 32
TORSDOF 22
ENDMDL
MODEL 8
USER: ADFR SOLUTION from run 103
USER: SCORE 20.847924 LL:  -3.959 LR: -17.622 RR:   0.000 FEB: -11.059
USER: RMSD 9.235219
USER: SEED 102
USER: STATUS searching
USER: GENES 24
USER: genes 0 Translation |==|  0.61523 0.68942 0.43093
USER: genes 1 Rotation |==|  0.06977 0.33298 0.54140 0.68787
USER: genes 2 Torsion [N]-C--CA-[N] |==|  0.26588
USER: genes 3 Torsion [C]-CA--N-[C] |==|  0.76255
USER: genes 4 Torsion [N]-C--CA-[N] |==|  0.99449
USER: genes 5 Torsion [C]-CA--N-[C] |==|  0.21035
USER: genes 6 Torsion [N]-C--CA-[N] |==|  0.45112
USER: genes 7 Torsion [C]-CA--N-[H1] |==|  0.82520
USER: genes 8 Torsion [C]-CA--CB-[CG] |==|  0.52445
USER: genes 9 Torsion [CA]-CB--CG-[CD1] |==|  0.40618
USER: genes 10 Torsion [C]-CA--CB-[CG] |==|  0.90370
USER: genes 11 Torsion [CA]-CB--CG-[CD2] |==|  0.18831
USER: genes 12 Torsion [C]-N--CA-[CB] |==|  0.79183
USER: genes 13 Torsion [N]-CA--CB-[CG] |==|  0.71090
USER: genes 14 Torsion [CA]-CB--CG-[CD2] |==|  0.51180
USER: genes 15 Torsion [CE2]-CZ--OH-[HH] |==|  0.68191
USER: genes 16 Torsion [N]-CA--C-[N] |==|  0.42456
USER: genes 17 Torsion [C]-N--CA-[CB] |==|  0.38995
USER: genes 18 Torsion [N]-CA--CB-[CG] |==|  0.06543
USER: genes 19 Torsion [CA]-CB--CG-[CD] |==|  0.70105
USER: genes 20 Torsion [CB]-CG--CD-[CE] |==|  0.13284
USER: genes 21 Torsion [CG]-CD--CE-[NZ] |==|  0.51149
USER: genes 22 Torsion [CD]-CE--NZ-[HZ1] |==|  0.36811
USER: genes 23 Torsion [N]-CA--C-[OXT] |==|  0.02276
ROOT
ATOM      1  C   ALA I   3      48.517  35.873   6.228  0.30 45.63 LIG 0.24  C 
ATOM      2 O    ALA I   3      47.728  35.800   7.162  0.30 45.40 LIG-0.27  OA
ATOM      3  N   TYR I   4      49.808  36.181   6.396  0.30 45.44 LIG-0.35  N 
ATOM      4 H    TYR I   4      50.351  36.208   5.730  0.30 45.44 LIG 0.16  HD
ENDROOT
BRANCH 1 5
ATOM      5  CA  ALA I   3      48.016  35.584   4.774  0.30 46.01 LIG 0.17  C 
ATOM      6  CB  ALA I   3      46.649  36.111   4.545  0.30 45.75 LIG 0.04  C 
BRANCH 5 7
ATOM      7  N   ALA I   3      48.079  34.132   4.666  0.30 46.50 LIG-0.35  N 
ATOM      8 H    ALA I   3      47.318  33.778   4.853  0.30 46.50 LIG 0.16  HD
ATOM      9  C   LEU I   2      49.117  33.357   4.330  0.30 47.15 LIG 0.24  C 
ATOM     10 O    LEU I   2      50.250  33.749   4.030  0.30 46.92 LIG-0.27  OA
BRANCH 9 11
ATOM     11  CA  LEU I   2      48.747  31.881   4.528  0.30 47.70 LIG 0.18  C 
BRANCH 11 12
ATOM     12  N   LEU I   2      47.481  31.378   5.046  0.30 48.04 LIG-0.35  N 
ATOM     13  C   PHE I   1      46.530  31.459   4.137  0.30 48.35 LIG 0.25  C 
ATOM     14 O    PHE I   1      46.804  31.906   3.036  0.30 48.51 LIG-0.27  OA
ATOM     15 H    LEU I   2      47.441  31.082   5.853  0.30 48.04 LIG 0.16  HD
BRANCH 13 16
ATOM     16  CA  PHE I   1      45.093  31.129   4.458  0.30 48.56 LIG 0.28  C 
BRANCH 16 17
ATOM     17  N   PHE I   1      44.173  31.690   3.425  0.30 48.56 LIG-0.07  N 
ATOM     18 H3   PHE I   1      43.337  31.448   3.610  0.30 48.56 LIG 0.28  HD
ATOM     19 H1   PHE I   1      44.233  32.577   3.426  0.30 48.56 LIG 0.28  HD
ATOM     20 H2   PHE I   1      44.402  31.379   2.623  0.30 48.56 LIG 0.28  HD
ENDBRANCH 16 17
BRANCH 16 21
ATOM     21  CB  PHE I   1      44.974  29.591   4.500  0.30 48.65 LIG 0.08  C 
BRANCH 21 22
ATOM     22  CG  PHE I   1      43.537  29.062   4.605  0.30 49.18 LIG-0.06  A 
ATOM     23  CD1 PHE I   1      43.185  27.875   3.989  0.30 49.79 LIG 0.01  A 
ATOM     24  CE1 PHE I   1      41.886  27.394   4.063  0.30 50.05 LIG 0.00  A 
ATOM     25  CZ  PHE I   1      40.922  28.103   4.733  0.30 49.90 LIG 0.00  A 
ATOM     26  CE2 PHE I   1      41.246  29.288   5.330  0.30 49.43 LIG 0.00  A 
ATOM     27  CD2 PHE I   1      42.538  29.769   5.268  0.30 49.27 LIG 0.01  A 
ENDBRANCH 21 22
ENDBRANCH 16 21
ENDBRANCH 13 16
ENDBRANCH 11 12
BRANCH 11 28
ATOM     28  CB  LEU I   2      49.465  30.819   3.682  0.30 47.77 LIG 0.04  C 
BRANCH 28 29
ATOM     29  CG  LEU I   2      49.998  30.753   2.290  0.30 48.15 LIG-0.02  C 
ATOM     30  CD1 LEU I   2      48.980  31.016   1.234  0.30 48.48 LIG 0.01  C 
ATOM     31  CD2 LEU I   2      51.157  31.713   2.290  0.30 48.19 LIG 0.01  C 
ENDBRANCH 28 29
ENDBRANCH 11 28
ENDBRANCH 9 11
ENDBRANCH 5 7
ENDBRANCH 1 5
BRANCH 3 32
ATOM     32  CA  TYR I   4      50.492  36.514   7.689  0.30 45.17 LIG 0.18  C 
BRANCH 32 33
ATOM     33  CB  TYR I   4      50.194  37.889   8.233  0.30 45.37 LIG 0.07  C 
BRANCH 33 34
ATOM     34  CG  TYR I   4      51.391  38.799   7.980  0.30 45.37 LIG-0.06  A 
ATOM     35  CD2 TYR I   4      51.435  40.104   8.452  0.30 45.58 LIG 0.01  A 
ATOM     36  CE2 TYR I   4      52.519  40.923   8.191  0.30 45.96 LIG 0.04  A 
ATOM     37  CZ  TYR I   4      53.566  40.435   7.446  0.30 45.81 LIG 0.07  A 
ATOM     38  CE1 TYR I   4      53.543  39.143   6.965  0.30 45.70 LIG 0.04  A 
ATOM     39  CD1 TYR I   4      52.473  38.338   7.236  0.30 45.43 LIG 0.01  A 
BRANCH 37 40
ATOM     40 OH   TYR I   4      54.637  41.251   7.175  0.30 46.58 LIG-0.36  OA
ATOM     41 HH   TYR I   4      54.675  41.399   6.350  0.30 46.58 LIG 0.22  HD
ENDBRANCH 37 40
ENDBRANCH 33 34
ENDBRANCH 32 33
BRANCH 32 42
ATOM     42  C   TYR I   4      50.672  35.478   8.791  0.30 45.00 LIG 0.24  C 
ATOM     43  N   LYS I   5      51.740  35.782   9.514  0.30 44.74 LIG-0.34  N 
ATOM     44 H    LYS I   5      52.189  36.496   9.348  0.30 44.74 LIG 0.16  HD
ATOM     45 O    TYR I   4      49.869  34.568   9.023  0.30 44.60 LIG-0.27  OA
BRANCH 43 46
ATOM     46  CA  LYS I   5      52.312  35.053  10.617  0.30 44.60 LIG 0.18  C 
BRANCH 46 47
ATOM     47  CB  LYS I   5      53.827  35.167  10.413  0.30 43.50 LIG 0.04  C 
BRANCH 47 48
ATOM     48  CG  LYS I   5      54.354  36.324   9.604  0.30 39.10 LIG 0.00  C 
BRANCH 48 49
ATOM     49  CD  LYS I   5      54.833  35.798   8.265  0.30 31.49 LIG 0.03  C 
BRANCH 49 50
ATOM     50  CE  LYS I   5      53.812  34.883   7.628  0.30 26.75 LIG 0.23  C 
BRANCH 50 51
ATOM     51  NZ  LYS I   5      54.290  34.315   6.425  0.30 17.53 LIG-0.08  N 
ATOM     52 HZ1  LYS I   5      54.130  33.440   6.426  0.30 17.53 LIG 0.27  HD
ATOM     53 HZ2  LYS I   5      53.874  34.690   5.734  0.30 17.53 LIG 0.27  HD
ATOM     54 HZ3  LYS I   5      55.166  34.456   6.356  0.30 17.53 LIG 0.27  HD
ENDBRANCH 50 51
ENDBRANCH 49 50
ENDBRANCH 48 49
ENDBRANCH 47 48
ENDBRANCH 46 47
BRANCH 46 55
ATOM     55  C   LYS I   5      51.922  35.582  11.971  0.30 45.89 LIG 0.20  C 
ATOM     56 OXT  LYS I   5      51.060  36.452  12.006  1.00 48.13 LIG-0.65  OA
ATOM     57 O    LYS I   5      52.466  35.101  12.963  1.00 47.49 LIG-0.65  OA
ENDBRANCH 46 55
ENDBRANCH 43 46
ENDBRANCH 32 42
ENDBRANCH 3 32
TORSDOF 22
ENDMDL
MODEL 9
USER: ADFR SOLUTION from run 30
USER: SCORE 19.022089 LL:  -3.827 LR: -17.477 RR:   0.000 FEB: -10.914
USER: RMSD 10.858475
USER: SEED 29
USER: STATUS no improvement in best 4 clusters for 5 generations
USER: GENES 24
USER: genes 0 Translation |==|  0.76504 0.66409 0.53778
USER: genes 1 Rotation |==|  0.17345 0.20274 0.34332 0.67449
USER: genes 2 Torsion [N]-C--CA-[N] |==|  0.56870
USER: genes 3 Torsion [C]-CA--N-[C] |==|  0.13342
USER: genes 4 Torsion [N]-C--CA-[N] |==|  0.96858
USER: genes 5 Torsion [C]-CA--N-[C] |==|  0.20786
USER: genes 6 Torsion [N]-C--CA-[N] |==|  0.18753
USER: genes 7 Torsion [C]-CA--N-[H1] |==|  0.02228
USER: genes 8 Torsion [C]-CA--CB-[CG] |==|  0.20135
USER: genes 9 Torsion [CA]-CB--CG-[CD1] |==|  0.69847
USER: genes 10 Torsion [C]-CA--CB-[CG] |==|  0.70855
USER: genes 11 Torsion [CA]-CB--CG-[CD2] |==|  0.54389
USER: genes 12 Torsion [C]-N--CA-[CB] |==|  0.52396
USER: genes 13 Torsion [N]-CA--CB-[CG] |==|  0.88331
USER: genes 14 Torsion [CA]-CB--CG-[CD2] |==|  0.29219
USER: genes 15 Torsion [CE2]-CZ--OH-[HH] |==|  0.09214
USER: genes 16 Torsion [N]-CA--C-[N] |==|  0.19860
USER: genes 17 Torsion [C]-N--CA-[CB] |==|  0.52325
USER: genes 18 Torsion [N]-CA--CB-[CG] |==|  0.44313
USER: genes 19 Torsion [CA]-CB--CG-[CD] |==|  0.58075
USER: genes 20 Torsion [CB]-CG--CD-[CE] |==|  0.76174
USER: genes 21 Torsion [CG]-CD--CE-[NZ] |==|  0.24682
USER: genes 22 Torsion [CD]-CE--NZ-[HZ1] |==|  0.23075
USER: genes 23 Torsion [N]-CA--C-[OXT] |==|  0.85761
ROOT
ATOM      1  C   ALA I   3      53.011  35.113   9.433  0.30 45.63 LIG 0.24  C 
ATOM      2 O    ALA I   3      51.941  34.535   9.286  0.30 45.40 LIG-0.27  OA
ATOM      3  N   TYR I   4      53.519  35.395  10.639  0.30 45.44 LIG-0.35  N 
ATOM      4 H    TYR I   4      54.281  35.784  10.722  0.30 45.44 LIG 0.16  HD
ENDROOT
BRANCH 1 5
ATOM      5  CA  ALA I   3      53.837  35.534   8.173  0.30 46.01 LIG 0.17  C 
ATOM      6  CB  ALA I   3      54.585  36.794   8.397  0.30 45.75 LIG 0.04  C 
BRANCH 5 7
ATOM      7  N   ALA I   3      52.833  35.661   7.125  0.30 46.50 LIG-0.35  N 
ATOM      8 H    ALA I   3      53.081  35.249   6.411  0.30 46.50 LIG 0.16  HD
ATOM      9  C   LEU I   2      51.657  36.301   7.157  0.30 47.15 LIG 0.24  C 
ATOM     10 O    LEU I   2      51.190  36.914   8.122  0.30 46.92 LIG-0.27  OA
BRANCH 9 11
ATOM     11  CA  LEU I   2      51.031  36.306   5.756  0.30 47.70 LIG 0.18  C 
BRANCH 11 12
ATOM     12  N   LEU I   2      51.699  35.922   4.518  0.30 48.04 LIG-0.35  N 
ATOM     13  C   PHE I   1      51.829  34.613   4.435  0.30 48.35 LIG 0.25  C 
ATOM     14 O    PHE I   1      51.395  33.919   5.339  0.30 48.51 LIG-0.27  OA
ATOM     15 H    LEU I   2      51.946  36.532   3.964  0.30 48.04 LIG 0.16  HD
BRANCH 13 16
ATOM     16  CA  PHE I   1      52.604  33.962   3.317  0.30 48.56 LIG 0.28  C 
BRANCH 16 17
ATOM     17  N   PHE I   1      54.060  34.273   3.425  0.30 48.56 LIG-0.07  N 
ATOM     18 H3   PHE I   1      54.303  34.798   2.748  0.30 48.56 LIG 0.28  HD
ATOM     19 H1   PHE I   1      54.218  34.690   4.195  0.30 48.56 LIG 0.28  HD
ATOM     20 H2   PHE I   1      54.529  33.517   3.397  0.30 48.56 LIG 0.28  HD
ENDBRANCH 16 17
BRANCH 16 21
ATOM     21  CB  PHE I   1      52.374  32.440   3.424  0.30 48.65 LIG 0.08  C 
BRANCH 21 22
ATOM     22  CG  PHE I   1      50.974  31.971   3.008  0.30 49.18 LIG-0.06  A 
ATOM     23  CD1 PHE I   1      50.075  31.529   3.961  0.30 49.79 LIG 0.01  A 
ATOM     24  CE1 PHE I   1      48.812  31.087   3.597  0.30 50.05 LIG 0.00  A 
ATOM     25  CZ  PHE I   1      48.441  31.063   2.276  0.30 49.90 LIG 0.00  A 
ATOM     26  CE2 PHE I   1      49.323  31.476   1.318  0.30 49.43 LIG 0.00  A 
ATOM     27  CD2 PHE I   1      50.578  31.925   1.674  0.30 49.27 LIG 0.01  A 
ENDBRANCH 21 22
ENDBRANCH 16 21
ENDBRANCH 13 16
ENDBRANCH 11 12
BRANCH 11 28
ATOM     28  CB  LEU I   2      49.506  36.183   5.627  0.30 47.77 LIG 0.04  C 
BRANCH 28 29
ATOM     29  CG  LEU I   2      48.558  35.101   5.227  0.30 48.15 LIG-0.02  C 
ATOM     30  CD1 LEU I   2      48.453  33.988   6.212  0.30 48.48 LIG 0.01  C 
ATOM     31  CD2 LEU I   2      47.263  35.821   4.962  0.30 48.19 LIG 0.01  C 
ENDBRANCH 28 29
ENDBRANCH 11 28
ENDBRANCH 9 11
ENDBRANCH 5 7
ENDBRANCH 1 5
BRANCH 3 32
ATOM     32  CA  TYR I   4      52.891  35.105  11.969  0.30 45.17 LIG 0.18  C 
BRANCH 32 33
ATOM     33  CB  TYR I   4      53.596  35.716  13.155  0.30 45.37 LIG 0.07  C 
BRANCH 33 34
ATOM     34  CG  TYR I   4      55.102  35.561  12.979  0.30 45.37 LIG-0.06  A 
ATOM     35  CD2 TYR I   4      55.915  36.629  12.624  0.30 45.58 LIG 0.01  A 
ATOM     36  CE2 TYR I   4      57.276  36.462  12.444  0.30 45.96 LIG 0.04  A 
ATOM     37  CZ  TYR I   4      57.830  35.215  12.615  0.30 45.81 LIG 0.07  A 
ATOM     38  CE1 TYR I   4      57.041  34.140  12.966  0.30 45.70 LIG 0.04  A 
ATOM     39  CD1 TYR I   4      55.700  34.315  13.150  0.30 45.43 LIG 0.01  A 
BRANCH 37 40
ATOM     40 OH   TYR I   4      59.180  35.047  12.425  0.30 46.58 LIG-0.36  OA
ATOM     41 HH   TYR I   4      59.585  35.744  12.658  0.30 46.58 LIG 0.22  HD
ENDBRANCH 37 40
ENDBRANCH 33 34
ENDBRANCH 32 33
BRANCH 32 42
ATOM     42  C   TYR I   4      51.379  35.059  12.150  0.30 45.00 LIG 0.24  C 
ATOM     43  N   LYS I   5      50.895  33.972  11.568  0.30 44.74 LIG-0.34  N 
ATOM     44 H    LYS I   5      51.425  33.404  11.198  0.30 44.74 LIG 0.16  HD
ATOM     45 O    TYR I   4      50.740  35.866  12.835  0.30 44.60 LIG-0.27  OA
BRANCH 43 46
ATOM     46  CA  LYS I   5      49.522  33.557  11.446  0.30 44.60 LIG 0.18  C 
BRANCH 46 47
ATOM     47  CB  LYS I   5      49.594  32.136  10.875  0.30 43.50 LIG 0.04  C 
BRANCH 47 48
ATOM     48  CG  LYS I   5      48.401  31.233  11.053  0.30 39.10 LIG 0.00  C 
BRANCH 48 49
ATOM     49  CD  LYS I   5      48.886  29.797  11.104  0.30 31.49 LIG 0.03  C 
BRANCH 49 50
ATOM     50  CE  LYS I   5      49.027  29.206   9.720  0.30 26.75 LIG 0.23  C 
BRANCH 50 51
ATOM     51  NZ  LYS I   5      50.310  29.440   9.174  0.30 17.53 LIG-0.08  N 
ATOM     52 HZ1  LYS I   5      50.878  28.825   9.475  0.30 17.53 LIG 0.27  HD
ATOM     53 HZ2  LYS I   5      50.268  29.394   8.286  0.30 17.53 LIG 0.27  HD
ATOM     54 HZ3  LYS I   5      50.593  30.249   9.416  0.30 17.53 LIG 0.27  HD
ENDBRANCH 50 51
ENDBRANCH 49 50
ENDBRANCH 48 49
ENDBRANCH 47 48
ENDBRANCH 46 47
BRANCH 46 55
ATOM     55  C   LYS I   5      48.761  33.564  12.745  0.30 45.89 LIG 0.20  C 
ATOM     56 OXT  LYS I   5      49.267  32.976  13.693  1.00 48.13 LIG-0.65  OA
ATOM     57 O    LYS I   5      47.694  34.173  12.792  1.00 47.49 LIG-0.65  OA
ENDBRANCH 46 55
ENDBRANCH 43 46
ENDBRANCH 32 42
ENDBRANCH 3 32
TORSDOF 22
ENDMDL
MODEL 10
USER: ADFR SOLUTION from run 106
USER: SCORE 18.536181 LL:  -3.839 LR: -17.467 RR:   0.000 FEB: -10.905
USER: RMSD 6.502124
USER: SEED 105
USER: STATUS no improvement in best 3 clusters for 5 generations
USER: GENES 24
USER: genes 0 Translation |==|  0.48658 0.51139 0.37846
USER: genes 1 Rotation |==|  0.74796 0.32739 0.46079 0.89647
USER: genes 2 Torsion [N]-C--CA-[N] |==|  0.66778
USER: genes 3 Torsion [C]-CA--N-[C] |==|  0.64074
USER: genes 4 Torsion [N]-C--CA-[N] |==|  0.24450
USER: genes 5 Torsion [C]-CA--N-[C] |==|  0.62604
USER: genes 6 Torsion [N]-C--CA-[N] |==|  0.42669
USER: genes 7 Torsion [C]-CA--N-[H1] |==|  0.66563
USER: genes 8 Torsion [C]-CA--CB-[CG] |==|  0.43283
USER: genes 9 Torsion [CA]-CB--CG-[CD1] |==|  0.19288
USER: genes 10 Torsion [C]-CA--CB-[CG] |==|  0.75223
USER: genes 11 Torsion [CA]-CB--CG-[CD2] |==|  0.50831
USER: genes 12 Torsion [C]-N--CA-[CB] |==|  0.04682
USER: genes 13 Torsion [N]-CA--CB-[CG] |==|  0.41742
USER: genes 14 Torsion [CA]-CB--CG-[CD2] |==|  0.25842
USER: genes 15 Torsion [CE2]-CZ--OH-[HH] |==|  0.27845
USER: genes 16 Torsion [N]-CA--C-[N] |==|  0.88808
USER: genes 17 Torsion [C]-N--CA-[CB] |==|  0.27915
USER: genes 18 Torsion [N]-CA--CB-[CG] |==|  0.54751
USER: genes 19 Torsion [CA]-CB--CG-[CD] |==|  0.32755
USER: genes 20 Torsion [CB]-CG--CD-[CE] |==|  0.65131
USER: genes 21 Torsion [CG]-CD--CE-[NZ] |==|  0.47402
USER: genes 22 Torsion [CD]-CE--NZ-[HZ1] |==|  0.78175
USER: genes 23 Torsion [N]-CA--C-[OXT] |==|  0.13585
ROOT
ATOM      1  C   ALA I   3      44.657  30.532   4.654  0.30 45.63 LIG 0.24  C 
ATOM      2 O    ALA I   3      44.715  30.565   3.431  0.30 45.40 LIG-0.27  OA
ATOM      3  N   TYR I   4      45.749  30.491   5.426  0.30 45.44 LIG-0.35  N 
ATOM      4 H    TYR I   4      45.689  30.488   6.284  0.30 45.44 LIG 0.16  HD
ENDROOT
BRANCH 1 5
ATOM      5  CA  ALA I   3      43.261  30.550   5.359  0.30 46.01 LIG 0.17  C 
ATOM      6  CB  ALA I   3      43.386  30.565   6.836  0.30 45.75 LIG 0.04  C 
BRANCH 5 7
ATOM      7  N   ALA I   3      42.606  29.344   4.867  0.30 46.50 LIG-0.35  N 
ATOM      8 H    ALA I   3      43.117  28.659   4.961  0.30 46.50 LIG 0.16  HD
ATOM      9  C   LEU I   2      41.389  29.207   4.327  0.30 47.15 LIG 0.24  C 
ATOM     10 O    LEU I   2      40.566  30.111   4.152  0.30 46.92 LIG-0.27  OA
BRANCH 9 11
ATOM     11  CA  LEU I   2      41.215  27.777   3.799  0.30 47.70 LIG 0.18  C 
BRANCH 11 12
ATOM     12  N   LEU I   2      40.729  26.635   4.563  0.30 48.04 LIG-0.35  N 
ATOM     13  C   PHE I   1      41.478  25.571   4.356  0.30 48.35 LIG 0.25  C 
ATOM     14 O    PHE I   1      42.436  25.661   3.606  0.30 48.51 LIG-0.27  OA
ATOM     15 H    LEU I   2      40.034  26.725   5.063  0.30 48.04 LIG 0.16  HD
BRANCH 13 16
ATOM     16  CA  PHE I   1      41.115  24.220   4.922  0.30 48.56 LIG 0.28  C 
BRANCH 16 17
ATOM     17  N   PHE I   1      41.685  23.121   4.088  0.30 48.56 LIG-0.07  N 
ATOM     18 H3   PHE I   1      42.237  22.629   4.583  0.30 48.56 LIG 0.28  HD
ATOM     19 H1   PHE I   1      41.026  22.609   3.781  0.30 48.56 LIG 0.28  HD
ATOM     20 H2   PHE I   1      42.132  23.470   3.402  0.30 48.56 LIG 0.28  HD
ENDBRANCH 16 17
BRANCH 16 21
ATOM     21  CB  PHE I   1      41.685  24.154   6.354  0.30 48.65 LIG 0.08  C 
BRANCH 21 22
ATOM     22  CG  PHE I   1      40.968  23.168   7.285  0.30 49.18 LIG-0.06  A 
ATOM     23  CD1 PHE I   1      41.083  21.806   7.080  0.30 49.79 LIG 0.01  A 
ATOM     24  CE1 PHE I   1      40.426  20.905   7.905  0.30 50.05 LIG 0.00  A 
ATOM     25  CZ  PHE I   1      39.632  21.354   8.929  0.30 49.90 LIG 0.00  A 
ATOM     26  CE2 PHE I   1      39.488  22.697   9.134  0.30 49.43 LIG 0.00  A 
ATOM     27  CD2 PHE I   1      40.145  23.599   8.323  0.30 49.27 LIG 0.01  A 
ENDBRANCH 21 22
ENDBRANCH 16 21
ENDBRANCH 13 16
ENDBRANCH 11 12
BRANCH 11 28
ATOM     28  CB  LEU I   2      41.012  27.565   2.291  0.30 47.77 LIG 0.04  C 
BRANCH 28 29
ATOM     29  CG  LEU I   2      39.834  27.512   1.375  0.30 48.15 LIG-0.02  C 
ATOM     30  CD1 LEU I   2      38.987  28.738   1.400  0.30 48.48 LIG 0.01  C 
ATOM     31  CD2 LEU I   2      40.424  27.190   0.029  0.30 48.19 LIG 0.01  C 
ENDBRANCH 28 29
ENDBRANCH 11 28
ENDBRANCH 9 11
ENDBRANCH 5 7
ENDBRANCH 1 5
BRANCH 3 32
ATOM     32  CA  TYR I   4      47.175  30.444   4.966  0.30 45.17 LIG 0.18  C 
BRANCH 32 33
ATOM     33  CB  TYR I   4      47.395  30.841   3.527  0.30 45.37 LIG 0.07  C 
BRANCH 33 34
ATOM     34  CG  TYR I   4      48.782  31.456   3.381  0.30 45.37 LIG-0.06  A 
ATOM     35  CD2 TYR I   4      49.889  30.697   3.026  0.30 45.58 LIG 0.01  A 
ATOM     36  CE2 TYR I   4      51.145  31.268   2.925  0.30 45.96 LIG 0.04  A 
ATOM     37  CZ  TYR I   4      51.296  32.610   3.186  0.30 45.81 LIG 0.07  A 
ATOM     38  CE1 TYR I   4      50.211  33.382   3.542  0.30 45.70 LIG 0.04  A 
ATOM     39  CD1 TYR I   4      48.974  32.812   3.632  0.30 45.43 LIG 0.01  A 
BRANCH 37 40
ATOM     40 OH   TYR I   4      52.545  33.176   3.096  0.30 46.58 LIG-0.36  OA
ATOM     41 HH   TYR I   4      52.619  33.577   2.362  0.30 46.58 LIG 0.22  HD
ENDBRANCH 37 40
ENDBRANCH 33 34
ENDBRANCH 32 33
BRANCH 32 42
ATOM     42  C   TYR I   4      48.324  30.873   5.870  0.30 45.00 LIG 0.24  C 
ATOM     43  N   LYS I   5      47.974  31.954   6.551  0.30 44.74 LIG-0.34  N 
ATOM     44 H    LYS I   5      47.183  32.282   6.469  0.30 44.74 LIG 0.16  HD
ATOM     45 O    TYR I   4      49.370  30.229   6.011  0.30 44.60 LIG-0.27  OA
BRANCH 43 46
ATOM     46  CA  LYS I   5      48.764  32.726   7.474  0.30 44.60 LIG 0.18  C 
BRANCH 46 47
ATOM     47  CB  LYS I   5      49.230  33.942   6.665  0.30 43.50 LIG 0.04  C 
BRANCH 47 48
ATOM     48  CG  LYS I   5      50.384  34.752   7.194  0.30 39.10 LIG 0.00  C 
BRANCH 48 49
ATOM     49  CD  LYS I   5      51.520  34.685   6.191  0.30 31.49 LIG 0.03  C 
BRANCH 49 50
ATOM     50  CE  LYS I   5      52.803  34.208   6.832  0.30 26.75 LIG 0.23  C 
BRANCH 50 51
ATOM     51  NZ  LYS I   5      53.806  33.940   5.873  0.30 17.53 LIG-0.08  N 
ATOM     52 HZ1  LYS I   5      53.650  33.150   5.493  0.30 17.53 LIG 0.27  HD
ATOM     53 HZ2  LYS I   5      53.797  34.574   5.249  0.30 17.53 LIG 0.27  HD
ATOM     54 HZ3  LYS I   5      54.602  33.926   6.271  0.30 17.53 LIG 0.27  HD
ENDBRANCH 50 51
ENDBRANCH 49 50
ENDBRANCH 48 49
ENDBRANCH 47 48
ENDBRANCH 46 47
BRANCH 46 55
ATOM     55  C   LYS I   5      48.015  33.168   8.703  0.30 45.89 LIG 0.20  C 
ATOM     56 OXT  LYS I   5      47.370  32.317   9.303  1.00 48.13 LIG-0.65  OA
ATOM     57 O    LYS I   5      48.108  34.344   9.050  1.00 47.49 LIG-0.65  OA
ENDBRANCH 46 55
ENDBRANCH 43 46
ENDBRANCH 32 42
ENDBRANCH 3 32
TORSDOF 22
ENDMDL
MODEL 11
USER: ADFR SOLUTION from run 39
USER: SCORE 21.473640 LL:  -5.071 LR: -17.460 RR:   0.000 FEB: -10.898
USER: RMSD 10.982901
USER: SEED 38
USER: STATUS 1 or 2 clusters left
USER: GENES 24
USER: genes 0 Translation |==|  0.62333 0.74600 0.46771
USER: genes 1 Rotation |==|  0.01225 0.46020 0.59572 0.53682
USER: genes 2 Torsion [N]-C--CA-[N] |==|  0.07659
USER: genes 3 Torsion [C]-CA--N-[C] |==|  0.18331
USER: genes 4 Torsion [N]-C--CA-[N] |==|  0.20658
USER: genes 5 Torsion [C]-CA--N-[C] |==|  0.77470
USER: genes 6 Torsion [N]-C--CA-[N] |==|  0.88360
USER: genes 7 Torsion [C]-CA--N-[H1] |==|  0.26046
USER: genes 8 Torsion [C]-CA--CB-[CG] |==|  0.10773
USER: genes 9 Torsion [CA]-CB--CG-[CD1] |==|  0.75144
USER: genes 10 Torsion [C]-CA--CB-[CG] |==|  0.12540
USER: genes 11 Torsion [CA]-CB--CG-[CD2] |==|  0.73411
USER: genes 12 Torsion [C]-N--CA-[CB] |==|  0.63457
USER: genes 13 Torsion [N]-CA--CB-[CG] |==|  0.65192
USER: genes 14 Torsion [CA]-CB--CG-[CD2] |==|  0.62669
USER: genes 15 Torsion [CE2]-CZ--OH-[HH] |==|  0.02628
USER: genes 16 Torsion [N]-CA--C-[N] |==|  0.81246
USER: genes 17 Torsion [C]-N--CA-[CB] |==|  0.40196
USER: genes 18 Torsion [N]-CA--CB-[CG] |==|  0.65632
USER: genes 19 Torsion [CA]-CB--CG-[CD] |==|  0.74033
USER: genes 20 Torsion [CB]-CG--CD-[CE] |==|  0.19978
USER: genes 21 Torsion [CG]-CD--CE-[NZ] |==|  0.67941
USER: genes 22 Torsion [CD]-CE--NZ-[HZ1] |==|  0.71762
USER: genes 23 Torsion [N]-CA--C-[OXT] |==|  0.39715
ROOT
ATOM      1  C   ALA I   3      48.760  37.570   7.331  0.30 45.63 LIG 0.24  C 
ATOM      2 O    ALA I   3      48.280  38.426   8.065  0.30 45.40 LIG-0.27  OA
ATOM      3  N   TYR I   4      50.077  37.358   7.236  0.30 45.44 LIG-0.35  N 
ATOM      4 H    TYR I   4      50.394  36.739   6.730  0.30 45.44 LIG 0.16  HD
ENDROOT
BRANCH 1 5
ATOM      5  CA  ALA I   3      47.809  36.671   6.474  0.30 46.01 LIG 0.17  C 
ATOM      6  CB  ALA I   3      46.500  36.459   7.137  0.30 45.75 LIG 0.04  C 
BRANCH 5 7
ATOM      7  N   ALA I   3      48.557  35.432   6.307  0.30 46.50 LIG-0.35  N 
ATOM      8 H    ALA I   3      48.771  35.312   5.483  0.30 46.50 LIG 0.16  HD
ATOM      9  C   LEU I   2      48.916  34.534   7.233  0.30 47.15 LIG 0.24  C 
ATOM     10 O    LEU I   2      48.677  34.603   8.443  0.30 46.92 LIG-0.27  OA
BRANCH 9 11
ATOM     11  CA  LEU I   2      49.534  33.306   6.551  0.30 47.70 LIG 0.18  C 
BRANCH 11 12
ATOM     12  N   LEU I   2      50.863  33.236   5.955  0.30 48.04 LIG-0.35  N 
ATOM     13  C   PHE I   1      50.867  33.754   4.743  0.30 48.35 LIG 0.25  C 
ATOM     14 O    PHE I   1      49.829  34.212   4.294  0.30 48.51 LIG-0.27  OA
ATOM     15 H    LEU I   2      51.509  32.886   6.401  0.30 48.04 LIG 0.16  HD
BRANCH 13 16
ATOM     16  CA  PHE I   1      52.084  33.687   3.854  0.30 48.56 LIG 0.28  C 
BRANCH 16 17
ATOM     17  N   PHE I   1      53.328  33.964   4.631  0.30 48.56 LIG-0.07  N 
ATOM     18 H3   PHE I   1      53.130  34.471   5.336  0.30 48.56 LIG 0.28  HD
ATOM     19 H1   PHE I   1      53.682  33.197   4.908  0.30 48.56 LIG 0.28  HD
ATOM     20 H2   PHE I   1      53.912  34.391   4.113  0.30 48.56 LIG 0.28  HD
ENDBRANCH 16 17
BRANCH 16 21
ATOM     21  CB  PHE I   1      52.136  32.266   3.253  0.30 48.65 LIG 0.08  C 
BRANCH 21 22
ATOM     22  CG  PHE I   1      50.771  31.684   2.864  0.30 49.18 LIG-0.06  A 
ATOM     23  CD1 PHE I   1      50.033  30.962   3.784  0.30 49.79 LIG 0.01  A 
ATOM     24  CE1 PHE I   1      48.805  30.416   3.440  0.30 50.05 LIG 0.00  A 
ATOM     25  CZ  PHE I   1      48.312  30.568   2.169  0.30 49.90 LIG 0.00  A 
ATOM     26  CE2 PHE I   1      49.035  31.260   1.240  0.30 49.43 LIG 0.00  A 
ATOM     27  CD2 PHE I   1      50.254  31.813   1.577  0.30 49.27 LIG 0.01  A 
ENDBRANCH 21 22
ENDBRANCH 16 21
ENDBRANCH 13 16
ENDBRANCH 11 12
BRANCH 11 28
ATOM     28  CB  LEU I   2      49.023  31.910   6.937  0.30 47.77 LIG 0.04  C 
BRANCH 28 29
ATOM     29  CG  LEU I   2      47.681  31.290   7.144  0.30 48.15 LIG-0.02  C 
ATOM     30  CD1 LEU I   2      47.551  29.916   6.583  0.30 48.48 LIG 0.01  C 
ATOM     31  CD2 LEU I   2      47.455  31.380   8.629  0.30 48.19 LIG 0.01  C 
ENDBRANCH 28 29
ENDBRANCH 11 28
ENDBRANCH 9 11
ENDBRANCH 5 7
ENDBRANCH 1 5
BRANCH 3 32
ATOM     32  CA  TYR I   4      51.163  38.111   7.944  0.30 45.17 LIG 0.18  C 
BRANCH 32 33
ATOM     33  CB  TYR I   4      52.299  38.573   7.065  0.30 45.37 LIG 0.07  C 
BRANCH 33 34
ATOM     34  CG  TYR I   4      53.616  38.061   7.637  0.30 45.37 LIG-0.06  A 
ATOM     35  CD2 TYR I   4      54.732  38.877   7.757  0.30 45.58 LIG 0.01  A 
ATOM     36  CE2 TYR I   4      55.927  38.388   8.254  0.30 45.96 LIG 0.04  A 
ATOM     37  CZ  TYR I   4      56.008  37.067   8.629  0.30 45.81 LIG 0.07  A 
ATOM     38  CE1 TYR I   4      54.913  36.237   8.517  0.30 45.70 LIG 0.04  A 
ATOM     39  CD1 TYR I   4      53.735  36.732   8.033  0.30 45.43 LIG 0.01  A 
BRANCH 37 40
ATOM     40 OH   TYR I   4      57.197  36.577   9.112  0.30 46.58 LIG-0.36  OA
ATOM     41 HH   TYR I   4      57.731  37.212   9.241  0.30 46.58 LIG 0.22  HD
ENDBRANCH 37 40
ENDBRANCH 33 34
ENDBRANCH 32 33
BRANCH 32 42
ATOM     42  C   TYR I   4      50.856  39.098   9.064  0.30 45.00 LIG 0.24  C 
ATOM     43  N   LYS I   5      50.214  40.146   8.568  0.30 44.74 LIG-0.34  N 
ATOM     44 H    LYS I   5      50.004  40.172   7.734  0.30 44.74 LIG 0.16  HD
ATOM     45 O    TYR I   4      51.080  38.879  10.259  0.30 44.60 LIG-0.27  OA
BRANCH 43 46
ATOM     46  CA  LYS I   5      49.781  41.337   9.252  0.30 44.60 LIG 0.18  C 
BRANCH 46 47
ATOM     47  CB  LYS I   5      49.955  42.460   8.223  0.30 43.50 LIG 0.04  C 
BRANCH 47 48
ATOM     48  CG  LYS I   5      50.815  43.641   8.593  0.30 39.10 LIG 0.00  C 
BRANCH 48 49
ATOM     49  CD  LYS I   5      49.924  44.724   9.170  0.30 31.49 LIG 0.03  C 
BRANCH 49 50
ATOM     50  CE  LYS I   5      49.421  44.357  10.548  0.30 26.75 LIG 0.23  C 
BRANCH 50 51
ATOM     51  NZ  LYS I   5      48.017  44.195  10.572  0.30 17.53 LIG-0.08  N 
ATOM     52 HZ1  LYS I   5      47.640  44.921  10.922  0.30 17.53 LIG 0.27  HD
ATOM     53 HZ2  LYS I   5      47.718  44.077   9.742  0.30 17.53 LIG 0.27  HD
ATOM     54 HZ3  LYS I   5      47.808  43.484  11.066  0.30 17.53 LIG 0.27  HD
ENDBRANCH 50 51
ENDBRANCH 49 50
ENDBRANCH 48 49
ENDBRANCH 47 48
ENDBRANCH 46 47
BRANCH 46 55
ATOM     55  C   LYS I   5      48.357  41.283   9.735  0.30 45.89 LIG 0.20  C 
ATOM     56 OXT  LYS I   5      48.111  41.812  10.813  1.00 48.13 LIG-0.65  OA
ATOM     57 O    LYS I   5      47.518  40.740   9.019  1.00 47.49 LIG-0.65  OA
ENDBRANCH 46 55
ENDBRANCH 43 46
ENDBRANCH 32 42
ENDBRANCH 3 32
TORSDOF 22
ENDMDL
MODEL 12
USER: ADFR SOLUTION from run 119
USER: SCORE 19.660521 LL:  -4.150 LR: -17.436 RR:   0.000 FEB: -10.874
USER: RMSD 6.426693
USER: SEED 118
USER: STATUS no improvement in best 3 clusters for 5 generations
USER: GENES 24
USER: genes 0 Translation |==|  0.48593 0.51352 0.38543
USER: genes 1 Rotation |==|  0.84489 0.30213 0.46006 0.80051
USER: genes 2 Torsion [N]-C--CA-[N] |==|  0.73011
USER: genes 3 Torsion [C]-CA--N-[C] |==|  0.57269
USER: genes 4 Torsion [N]-C--CA-[N] |==|  0.24004
USER: genes 5 Torsion [C]-CA--N-[C] |==|  0.21426
USER: genes 6 Torsion [N]-C--CA-[N] |==|  0.03873
USER: genes 7 Torsion [C]-CA--N-[H1] |==|  0.97239
USER: genes 8 Torsion [C]-CA--CB-[CG] |==|  0.86093
USER: genes 9 Torsion [CA]-CB--CG-[CD1] |==|  0.27933
USER: genes 10 Torsion [C]-CA--CB-[CG] |==|  0.78704
USER: genes 11 Torsion [CA]-CB--CG-[CD2] |==|  0.13159
USER: genes 12 Torsion [C]-N--CA-[CB] |==|  0.78662
USER: genes 13 Torsion [N]-CA--CB-[CG] |==|  0.36202
USER: genes 14 Torsion [CA]-CB--CG-[CD2] |==|  0.23084
USER: genes 15 Torsion [CE2]-CZ--OH-[HH] |==|  0.28535
USER: genes 16 Torsion [N]-CA--C-[N] |==|  0.32357
USER: genes 17 Torsion [C]-N--CA-[CB] |==|  0.90869
USER: genes 18 Torsion [N]-CA--CB-[CG] |==|  0.65283
USER: genes 19 Torsion [CA]-CB--CG-[CD] |==|  0.45765
USER: genes 20 Torsion [CB]-CG--CD-[CE] |==|  0.57592
USER: genes 21 Torsion [CG]-CD--CE-[NZ] |==|  0.92272
USER: genes 22 Torsion [CD]-CE--NZ-[HZ1] |==|  0.91204
USER: genes 23 Torsion [N]-CA--C-[OXT] |==|  0.06391
ROOT
ATOM      1  C   ALA I   3      44.638  30.596   4.863  0.30 45.63 LIG 0.24  C 
ATOM      2 O    ALA I   3      44.958  31.209   3.853  0.30 45.40 LIG-0.27  OA
ATOM      3  N   TYR I   4      45.531  30.179   5.768  0.30 45.44 LIG-0.35  N 
ATOM      4 H    TYR I   4      45.284  29.767   6.482  0.30 45.44 LIG 0.16  HD
ENDROOT
BRANCH 1 5
ATOM      5  CA  ALA I   3      43.127  30.288   5.129  0.30 46.01 LIG 0.17  C 
ATOM      6  CB  ALA I   3      42.845  30.102   6.572  0.30 45.75 LIG 0.04  C 
BRANCH 5 7
ATOM      7  N   ALA I   3      42.875  29.082   4.351  0.30 46.50 LIG-0.35  N 
ATOM      8 H    ALA I   3      43.598  28.628   4.247  0.30 46.50 LIG 0.16  HD
ATOM      9  C   LEU I   2      41.724  28.644   3.826  0.30 47.15 LIG 0.24  C 
ATOM     10 O    LEU I   2      40.625  29.199   3.919  0.30 46.92 LIG-0.27  OA
BRANCH 9 11
ATOM     11  CA  LEU I   2      41.991  27.419   2.941  0.30 47.70 LIG 0.18  C 
BRANCH 11 12
ATOM     12  N   LEU I   2      42.057  26.034   3.392  0.30 48.04 LIG-0.35  N 
ATOM     13  C   PHE I   1      40.852  25.545   3.604  0.30 48.35 LIG 0.25  C 
ATOM     14 O    PHE I   1      39.883  26.258   3.401  0.30 48.51 LIG-0.27  OA
ATOM     15 H    LEU I   2      42.825  25.655   3.484  0.30 48.04 LIG 0.16  HD
BRANCH 13 16
ATOM     16  CA  PHE I   1      40.644  24.177   4.204  0.30 48.56 LIG 0.28  C 
BRANCH 16 17
ATOM     17  N   PHE I   1      41.910  23.658   4.800  0.30 48.56 LIG-0.07  N 
ATOM     18 H3   PHE I   1      42.061  22.833   4.503  0.30 48.56 LIG 0.28  HD
ATOM     19 H1   PHE I   1      42.586  24.186   4.567  0.30 48.56 LIG 0.28  HD
ATOM     20 H2   PHE I   1      41.836  23.645   5.687  0.30 48.56 LIG 0.28  HD
ENDBRANCH 16 17
BRANCH 16 21
ATOM     21  CB  PHE I   1      39.557  24.312   5.290  0.30 48.65 LIG 0.08  C 
BRANCH 21 22
ATOM     22  CG  PHE I   1      39.792  25.447   6.296  0.30 49.18 LIG-0.06  A 
ATOM     23  CD1 PHE I   1      39.115  26.645   6.165  0.30 49.79 LIG 0.01  A 
ATOM     24  CE1 PHE I   1      39.330  27.685   7.058  0.30 50.05 LIG 0.00  A 
ATOM     25  CZ  PHE I   1      40.239  27.546   8.076  0.30 49.90 LIG 0.00  A 
ATOM     26  CE2 PHE I   1      40.935  26.378   8.208  0.30 49.43 LIG 0.00  A 
ATOM     27  CD2 PHE I   1      40.719  25.336   7.329  0.30 49.27 LIG 0.01  A 
ENDBRANCH 21 22
ENDBRANCH 16 21
ENDBRANCH 13 16
ENDBRANCH 11 12
BRANCH 11 28
ATOM     28  CB  LEU I   2      41.659  27.502   1.444  0.30 47.77 LIG 0.04  C 
BRANCH 28 29
ATOM     29  CG  LEU I   2      40.410  27.443   0.629  0.30 48.15 LIG-0.02  C 
ATOM     30  CD1 LEU I   2      39.878  26.066   0.427  0.30 48.48 LIG 0.01  C 
ATOM     31  CD2 LEU I   2      39.463  28.378   1.332  0.30 48.19 LIG 0.01  C 
ENDBRANCH 28 29
ENDBRANCH 11 28
ENDBRANCH 9 11
ENDBRANCH 5 7
ENDBRANCH 1 5
BRANCH 3 32
ATOM     32  CA  TYR I   4      47.020  30.345   5.704  0.30 45.17 LIG 0.18  C 
BRANCH 32 33
ATOM     33  CB  TYR I   4      47.728  29.398   4.767  0.30 45.37 LIG 0.07  C 
BRANCH 33 34
ATOM     34  CG  TYR I   4      48.665  30.191   3.865  0.30 45.37 LIG-0.06  A 
ATOM     35  CD2 TYR I   4      49.938  30.566   4.273  0.30 45.58 LIG 0.01  A 
ATOM     36  CE2 TYR I   4      50.765  31.309   3.450  0.30 45.96 LIG 0.04  A 
ATOM     37  CZ  TYR I   4      50.312  31.685   2.207  0.30 45.81 LIG 0.07  A 
ATOM     38  CE1 TYR I   4      49.051  31.327   1.781  0.30 45.70 LIG 0.04  A 
ATOM     39  CD1 TYR I   4      48.245  30.586   2.597  0.30 45.43 LIG 0.01  A 
BRANCH 37 40
ATOM     40 OH   TYR I   4      51.128  32.433   1.393  0.30 46.58 LIG-0.36  OA
ATOM     41 HH   TYR I   4      51.462  31.940   0.801  0.30 46.58 LIG 0.22  HD
ENDBRANCH 37 40
ENDBRANCH 33 34
ENDBRANCH 32 33
BRANCH 32 42
ATOM     42  C   TYR I   4      47.677  31.718   5.750  0.30 45.00 LIG 0.24  C 
ATOM     43  N   LYS I   5      48.425  31.815   6.840  0.30 44.74 LIG-0.34  N 
ATOM     44 H    LYS I   5      48.508  31.144   7.372  0.30 44.74 LIG 0.16  HD
ATOM     45 O    TYR I   4      47.599  32.553   4.843  0.30 44.60 LIG-0.27  OA
BRANCH 43 46
ATOM     46  CA  LYS I   5      49.178  32.948   7.311  0.30 44.60 LIG 0.18  C 
BRANCH 46 47
ATOM     47  CB  LYS I   5      49.641  33.664   6.037  0.30 43.50 LIG 0.04  C 
BRANCH 47 48
ATOM     48  CG  LYS I   5      51.115  33.924   5.859  0.30 39.10 LIG 0.00  C 
BRANCH 48 49
ATOM     49  CD  LYS I   5      51.370  34.280   4.406  0.30 31.49 LIG 0.03  C 
BRANCH 49 50
ATOM     50  CE  LYS I   5      52.774  33.916   3.981  0.30 26.75 LIG 0.23  C 
BRANCH 50 51
ATOM     51  NZ  LYS I   5      53.677  33.940   5.068  0.30 17.53 LIG-0.08  N 
ATOM     52 HZ1  LYS I   5      53.422  34.559   5.653  0.30 17.53 LIG 0.27  HD
ATOM     53 HZ2  LYS I   5      53.686  33.144   5.465  0.30 17.53 LIG 0.27  HD
ATOM     54 HZ3  LYS I   5      54.495  34.132   4.771  0.30 17.53 LIG 0.27  HD
ENDBRANCH 50 51
ENDBRANCH 49 50
ENDBRANCH 48 49
ENDBRANCH 47 48
ENDBRANCH 46 47
BRANCH 46 55
ATOM     55  C   LYS I   5      48.391  33.888   8.185  0.30 45.89 LIG 0.20  C 
ATOM     56 OXT  LYS I   5      47.407  33.432   8.755  1.00 48.13 LIG-0.65  OA
ATOM     57 O    LYS I   5      48.787  35.046   8.299  1.00 47.49 LIG-0.65  OA
ENDBRANCH 46 55
ENDBRANCH 43 46
ENDBRANCH 32 42
ENDBRANCH 3 32
TORSDOF 22
ENDMDL
MODEL 13
USER: ADFR SOLUTION from run 28
USER: SCORE 20.267129 LL:  -3.792 LR: -17.389 RR:   0.000 FEB: -10.826
USER: RMSD 9.479236
USER: SEED 27
USER: STATUS no improvement in best 2 clusters for 5 generations
USER: GENES 24
USER: genes 0 Translation |==|  0.59287 0.51471 0.51838
USER: genes 1 Rotation |==|  0.78124 0.55279 0.18327 0.76038
USER: genes 2 Torsion [N]-C--CA-[N] |==|  0.01724
USER: genes 3 Torsion [C]-CA--N-[C] |==|  0.65099
USER: genes 4 Torsion [N]-C--CA-[N] |==|  0.11723
USER: genes 5 Torsion [C]-CA--N-[C] |==|  0.16430
USER: genes 6 Torsion [N]-C--CA-[N] |==|  0.48561
USER: genes 7 Torsion [C]-CA--N-[H1] |==|  0.81526
USER: genes 8 Torsion [C]-CA--CB-[CG] |==|  0.31135
USER: genes 9 Torsion [CA]-CB--CG-[CD1] |==|  0.77003
USER: genes 10 Torsion [C]-CA--CB-[CG] |==|  0.75286
USER: genes 11 Torsion [CA]-CB--CG-[CD2] |==|  0.18980
USER: genes 12 Torsion [C]-N--CA-[CB] |==|  0.68807
USER: genes 13 Torsion [N]-CA--CB-[CG] |==|  0.23457
USER: genes 14 Torsion [CA]-CB--CG-[CD2] |==|  0.83663
USER: genes 15 Torsion [CE2]-CZ--OH-[HH] |==|  0.29520
USER: genes 16 Torsion [N]-CA--C-[N] |==|  0.13886
USER: genes 17 Torsion [C]-N--CA-[CB] |==|  0.92306
USER: genes 18 Torsion [N]-CA--CB-[CG] |==|  0.71219
USER: genes 19 Torsion [CA]-CB--CG-[CD] |==|  0.17744
USER: genes 20 Torsion [CB]-CG--CD-[CE] |==|  0.74889
USER: genes 21 Torsion [CG]-CD--CE-[NZ] |==|  0.65850
USER: genes 22 Torsion [CD]-CE--NZ-[HZ1] |==|  0.09538
USER: genes 23 Torsion [N]-CA--C-[OXT] |==|  0.56318
ROOT
ATOM      1  C   ALA I   3      47.846  30.631   8.852  0.30 45.63 LIG 0.24  C 
ATOM      2 O    ALA I   3      47.188  31.654   8.704  0.30 45.40 LIG-0.27  OA
ATOM      3  N   TYR I   4      48.628  30.131   7.888  0.30 45.44 LIG-0.35  N 
ATOM      4 H    TYR I   4      49.098  29.423   8.018  0.30 45.44 LIG 0.16  HD
ENDROOT
BRANCH 1 5
ATOM      5  CA  ALA I   3      47.792  29.873  10.219  0.30 46.01 LIG 0.17  C 
ATOM      6  CB  ALA I   3      48.062  30.775  11.364  0.30 45.75 LIG 0.04  C 
BRANCH 5 7
ATOM      7  N   ALA I   3      48.802  28.832  10.080  0.30 46.50 LIG-0.35  N 
ATOM      8 H    ALA I   3      49.562  29.169   9.861  0.30 46.50 LIG 0.16  HD
ATOM      9  C   LEU I   2      48.676  27.509  10.246  0.30 47.15 LIG 0.24  C 
ATOM     10 O    LEU I   2      47.644  26.912  10.569  0.30 46.92 LIG-0.27  OA
BRANCH 9 11
ATOM     11  CA  LEU I   2      49.971  26.808   9.815  0.30 47.70 LIG 0.18  C 
BRANCH 11 12
ATOM     12  N   LEU I   2      51.327  27.256  10.110  0.30 48.04 LIG-0.35  N 
ATOM     13  C   PHE I   1      51.529  27.336  11.410  0.30 48.35 LIG 0.25  C 
ATOM     14 O    PHE I   1      50.621  27.035  12.167  0.30 48.51 LIG-0.27  OA
ATOM     15 H    LEU I   2      51.867  27.427   9.461  0.30 48.04 LIG 0.16  HD
BRANCH 13 16
ATOM     16  CA  PHE I   1      52.805  27.903  11.982  0.30 48.56 LIG 0.28  C 
BRANCH 16 17
ATOM     17  N   PHE I   1      52.727  27.994  13.470  0.30 48.56 LIG-0.07  N 
ATOM     18 H3   PHE I   1      53.519  28.240  13.794  0.30 48.56 LIG 0.28  HD
ATOM     19 H1   PHE I   1      52.113  28.596  13.699  0.30 48.56 LIG 0.28  HD
ATOM     20 H2   PHE I   1      52.503  27.201  13.805  0.30 48.56 LIG 0.28  HD
ENDBRANCH 16 17
BRANCH 16 21
ATOM     21  CB  PHE I   1      53.954  26.962  11.564  0.30 48.65 LIG 0.08  C 
BRANCH 21 22
ATOM     22  CG  PHE I   1      54.949  27.569  10.567  0.30 49.18 LIG-0.06  A 
ATOM     23  CD1 PHE I   1      54.667  27.570   9.213  0.30 49.79 LIG 0.01  A 
ATOM     24  CE1 PHE I   1      55.566  28.101   8.300  0.30 50.05 LIG 0.00  A 
ATOM     25  CZ  PHE I   1      56.764  28.616   8.726  0.30 49.90 LIG 0.00  A 
ATOM     26  CE2 PHE I   1      57.070  28.604  10.058  0.30 49.43 LIG 0.00  A 
ATOM     27  CD2 PHE I   1      56.177  28.085  10.973  0.30 49.27 LIG 0.01  A 
ENDBRANCH 21 22
ENDBRANCH 16 21
ENDBRANCH 13 16
ENDBRANCH 11 12
BRANCH 11 28
ATOM     28  CB  LEU I   2      49.935  25.300   9.524  0.30 47.77 LIG 0.04  C 
BRANCH 28 29
ATOM     29  CG  LEU I   2      50.117  24.058  10.331  0.30 48.15 LIG-0.02  C 
ATOM     30  CD1 LEU I   2      51.428  23.975  11.035  0.30 48.48 LIG 0.01  C 
ATOM     31  CD2 LEU I   2      48.919  24.028  11.242  0.30 48.19 LIG 0.01  C 
ENDBRANCH 28 29
ENDBRANCH 11 28
ENDBRANCH 9 11
ENDBRANCH 5 7
ENDBRANCH 1 5
BRANCH 3 32
ATOM     32  CA  TYR I   4      48.812  30.679   6.504  0.30 45.17 LIG 0.18  C 
BRANCH 32 33
ATOM     33  CB  TYR I   4      48.261  29.815   5.397  0.30 45.37 LIG 0.07  C 
BRANCH 33 34
ATOM     34  CG  TYR I   4      46.775  30.109   5.223  0.30 45.37 LIG-0.06  A 
ATOM     35  CD2 TYR I   4      45.866  29.943   6.259  0.30 45.58 LIG 0.01  A 
ATOM     36  CE2 TYR I   4      44.518  30.190   6.074  0.30 45.96 LIG 0.04  A 
ATOM     37  CZ  TYR I   4      44.073  30.602   4.840  0.30 45.81 LIG 0.07  A 
ATOM     38  CE1 TYR I   4      44.957  30.772   3.796  0.30 45.70 LIG 0.04  A 
ATOM     39  CD1 TYR I   4      46.288  30.534   3.990  0.30 45.43 LIG 0.01  A 
BRANCH 37 40
ATOM     40 OH   TYR I   4      42.732  30.836   4.652  0.30 46.58 LIG-0.36  OA
ATOM     41 HH   TYR I   4      42.596  31.664   4.610  0.30 46.58 LIG 0.22  HD
ENDBRANCH 37 40
ENDBRANCH 33 34
ENDBRANCH 32 33
BRANCH 32 42
ATOM     42  C   TYR I   4      48.674  32.167   6.205  0.30 45.00 LIG 0.24  C 
ATOM     43  N   LYS I   5      49.407  32.861   7.064  0.30 44.74 LIG-0.34  N 
ATOM     44 H    LYS I   5      49.892  32.457   7.648  0.30 44.74 LIG 0.16  HD
ATOM     45 O    TYR I   4      48.058  32.623   5.236  0.30 44.60 LIG-0.27  OA
BRANCH 43 46
ATOM     46  CA  LYS I   5      49.530  34.290   7.185  0.30 44.60 LIG 0.18  C 
BRANCH 46 47
ATOM     47  CB  LYS I   5      49.254  34.824   5.774  0.30 43.50 LIG 0.04  C 
BRANCH 47 48
ATOM     48  CG  LYS I   5      50.423  35.280   4.941  0.30 39.10 LIG 0.00  C 
BRANCH 48 49
ATOM     49  CD  LYS I   5      51.317  34.085   4.670  0.30 31.49 LIG 0.03  C 
BRANCH 49 50
ATOM     50  CE  LYS I   5      52.378  33.930   5.736  0.30 26.75 LIG 0.23  C 
BRANCH 50 51
ATOM     51  NZ  LYS I   5      53.681  33.940   5.190  0.30 17.53 LIG-0.08  N 
ATOM     52 HZ1  LYS I   5      53.707  34.491   4.492  0.30 17.53 LIG 0.27  HD
ATOM     53 HZ2  LYS I   5      54.259  34.218   5.807  0.30 17.53 LIG 0.27  HD
ATOM     54 HZ3  LYS I   5      53.900  33.118   4.927  0.30 17.53 LIG 0.27  HD
ENDBRANCH 50 51
ENDBRANCH 49 50
ENDBRANCH 48 49
ENDBRANCH 47 48
ENDBRANCH 46 47
BRANCH 46 55
ATOM     55  C   LYS I   5      48.580  34.907   8.175  0.30 45.89 LIG 0.20  C 
ATOM     56 OXT  LYS I   5      48.319  36.096   8.035  1.00 48.13 LIG-0.65  OA
ATOM     57 O    LYS I   5      48.102  34.188   9.050  1.00 47.49 LIG-0.65  OA
ENDBRANCH 46 55
ENDBRANCH 43 46
ENDBRANCH 32 42
ENDBRANCH 3 32
TORSDOF 22
ENDMDL
MODEL 14
USER: ADFR SOLUTION from run 153
USER: SCORE 20.137292 LL:  -3.483 LR: -17.285 RR:   0.000 FEB: -10.722
USER: RMSD 9.965913
USER: SEED 152
USER: STATUS no improvement in best 1 clusters for 5 generations
USER: GENES 24
USER: genes 0 Translation |==|  0.73172 0.64794 0.44488
USER: genes 1 Rotation |==|  0.09847 0.29715 0.49814 0.71823
USER: genes 2 Torsion [N]-C--CA-[N] |==|  0.44299
USER: genes 3 Torsion [C]-CA--N-[C] |==|  0.56438
USER: genes 4 Torsion [N]-C--CA-[N] |==|  0.95843
USER: genes 5 Torsion [C]-CA--N-[C] |==|  0.67788
USER: genes 6 Torsion [N]-C--CA-[N] |==|  0.76209
USER: genes 7 Torsion [C]-CA--N-[H1] |==|  0.12061
USER: genes 8 Torsion [C]-CA--CB-[CG] |==|  0.20439
USER: genes 9 Torsion [CA]-CB--CG-[CD1] |==|  0.89463
USER: genes 10 Torsion [C]-CA--CB-[CG] |==|  0.28409
USER: genes 11 Torsion [CA]-CB--CG-[CD2] |==|  0.83799
USER: genes 12 Torsion [C]-N--CA-[CB] |==|  0.53668
USER: genes 13 Torsion [N]-CA--CB-[CG] |==|  0.17539
USER: genes 14 Torsion [CA]-CB--CG-[CD2] |==|  0.50950
USER: genes 15 Torsion [CE2]-CZ--OH-[HH] |==|  0.26361
USER: genes 16 Torsion [N]-CA--C-[N] |==|  0.45311
USER: genes 17 Torsion [C]-N--CA-[CB] |==|  0.66306
USER: genes 18 Torsion [N]-CA--CB-[CG] |==|  0.74755
USER: genes 19 Torsion [CA]-CB--CG-[CD] |==|  0.16792
USER: genes 20 Torsion [CB]-CG--CD-[CE] |==|  0.51594
USER: genes 21 Torsion [CG]-CD--CE-[NZ] |==|  0.46564
USER: genes 22 Torsion [CD]-CE--NZ-[HZ1] |==|  0.46621
USER: genes 23 Torsion [N]-CA--C-[OXT] |==|  0.78825
ROOT
ATOM      1  C   ALA I   3      52.012  34.628   6.646  0.30 45.63 LIG 0.24  C 
ATOM      2 O    ALA I   3      51.110  34.296   7.406  0.30 45.40 LIG-0.27  OA
ATOM      3  N   TYR I   4      53.227  34.980   7.080  0.30 45.44 LIG-0.35  N 
ATOM      4 H    TYR I   4      53.854  35.191   6.530  0.30 45.44 LIG 0.16  HD
ENDROOT
BRANCH 1 5
ATOM      5  CA  ALA I   3      51.754  34.635   5.103  0.30 46.01 LIG 0.17  C 
ATOM      6  CB  ALA I   3      51.512  36.004   4.588  0.30 45.75 LIG 0.04  C 
BRANCH 5 7
ATOM      7  N   ALA I   3      50.596  33.766   4.939  0.30 46.50 LIG-0.35  N 
ATOM      8 H    ALA I   3      50.141  33.720   5.668  0.30 46.50 LIG 0.16  HD
ATOM      9  C   LEU I   2      50.200  33.086   3.857  0.30 47.15 LIG 0.24  C 
ATOM     10 O    LEU I   2      50.760  33.081   2.756  0.30 46.92 LIG-0.27  OA
BRANCH 9 11
ATOM     11  CA  LEU I   2      49.024  32.169   4.222  0.30 47.70 LIG 0.18  C 
BRANCH 11 12
ATOM     12  N   LEU I   2      48.609  31.805   5.571  0.30 48.04 LIG-0.35  N 
ATOM     13  C   PHE I   1      48.749  30.512   5.779  0.30 48.35 LIG 0.25  C 
ATOM     14 O    PHE I   1      49.192  29.815   4.880  0.30 48.51 LIG-0.27  OA
ATOM     15 H    LEU I   2      48.320  32.416   6.104  0.30 48.04 LIG 0.16  HD
BRANCH 13 16
ATOM     16  CA  PHE I   1      48.266  29.854   7.047  0.30 48.56 LIG 0.28  C 
BRANCH 16 17
ATOM     17  N   PHE I   1      49.299  29.944   8.121  0.30 48.56 LIG-0.07  N 
ATOM     18 H3   PHE I   1      49.941  29.347   7.967  0.30 48.56 LIG 0.28  HD
ATOM     19 H1   PHE I   1      49.649  30.761   8.128  0.30 48.56 LIG 0.28  HD
ATOM     20 H2   PHE I   1      48.922  29.776   8.910  0.30 48.56 LIG 0.28  HD
ENDBRANCH 16 17
BRANCH 16 21
ATOM     21  CB  PHE I   1      46.978  30.584   7.482  0.30 48.65 LIG 0.08  C 
BRANCH 21 22
ATOM     22  CG  PHE I   1      45.743  30.270   6.629  0.30 49.18 LIG-0.06  A 
ATOM     23  CD1 PHE I   1      45.863  30.105   5.261  0.30 49.79 LIG 0.01  A 
ATOM     24  CE1 PHE I   1      44.752  29.837   4.476  0.30 50.05 LIG 0.00  A 
ATOM     25  CZ  PHE I   1      43.507  29.751   5.046  0.30 49.90 LIG 0.00  A 
ATOM     26  CE2 PHE I   1      43.364  29.931   6.392  0.30 49.43 LIG 0.00  A 
ATOM     27  CD2 PHE I   1      44.466  30.190   7.180  0.30 49.27 LIG 0.01  A 
ENDBRANCH 21 22
ENDBRANCH 16 21
ENDBRANCH 13 16
ENDBRANCH 11 12
BRANCH 11 28
ATOM     28  CB  LEU I   2      47.868  32.016   3.223  0.30 47.77 LIG 0.04  C 
BRANCH 28 29
ATOM     29  CG  LEU I   2      47.448  30.978   2.236  0.30 48.15 LIG-0.02  C 
ATOM     30  CD1 LEU I   2      46.159  31.275   1.550  0.30 48.48 LIG 0.01  C 
ATOM     31  CD2 LEU I   2      48.628  30.845   1.311  0.30 48.19 LIG 0.01  C 
ENDBRANCH 28 29
ENDBRANCH 11 28
ENDBRANCH 9 11
ENDBRANCH 5 7
ENDBRANCH 1 5
BRANCH 3 32
ATOM     32  CA  TYR I   4      53.683  35.065   8.506  0.30 45.17 LIG 0.18  C 
BRANCH 32 33
ATOM     33  CB  TYR I   4      54.995  35.781   8.716  0.30 45.37 LIG 0.07  C 
BRANCH 33 34
ATOM     34  CG  TYR I   4      54.849  37.234   8.281  0.30 45.37 LIG-0.06  A 
ATOM     35  CD2 TYR I   4      55.920  38.117   8.297  0.30 45.58 LIG 0.01  A 
ATOM     36  CE2 TYR I   4      55.762  39.440   7.923  0.30 45.96 LIG 0.04  A 
ATOM     37  CZ  TYR I   4      54.520  39.885   7.535  0.30 45.81 LIG 0.07  A 
ATOM     38  CE1 TYR I   4      53.442  39.026   7.514  0.30 45.70 LIG 0.04  A 
ATOM     39  CD1 TYR I   4      53.609  37.720   7.876  0.30 45.43 LIG 0.01  A 
BRANCH 37 40
ATOM     40 OH   TYR I   4      54.359  41.201   7.175  0.30 46.58 LIG-0.36  OA
ATOM     41 HH   TYR I   4      54.429  41.274   6.341  0.30 46.58 LIG 0.22  HD
ENDBRANCH 37 40
ENDBRANCH 33 34
ENDBRANCH 32 33
BRANCH 32 42
ATOM     42  C   TYR I   4      52.704  35.297   9.650  0.30 45.00 LIG 0.24  C 
ATOM     43  N   LYS I   5      53.279  34.972  10.799  0.30 44.74 LIG-0.34  N 
ATOM     44 H    LYS I   5      54.099  34.715  10.817  0.30 44.74 LIG 0.16  HD
ATOM     45 O    TYR I   4      51.590  35.815   9.512  0.30 44.60 LIG-0.27  OA
BRANCH 43 46
ATOM     46  CA  LYS I   5      52.707  34.982  12.120  0.30 44.60 LIG 0.18  C 
BRANCH 46 47
ATOM     47  CB  LYS I   5      53.596  35.941  12.921  0.30 43.50 LIG 0.04  C 
BRANCH 47 48
ATOM     48  CG  LYS I   5      54.781  35.371  13.656  0.30 39.10 LIG 0.00  C 
BRANCH 48 49
ATOM     49  CD  LYS I   5      55.708  34.721  12.647  0.30 31.49 LIG 0.03  C 
BRANCH 49 50
ATOM     50  CE  LYS I   5      56.854  34.004  13.323  0.30 26.75 LIG 0.23  C 
BRANCH 50 51
ATOM     51  NZ  LYS I   5      57.558  33.169  12.425  0.30 17.53 LIG-0.08  N 
ATOM     52 HZ1  LYS I   5      58.319  32.903  12.801  0.30 17.53 LIG 0.27  HD
ATOM     53 HZ2  LYS I   5      57.061  32.458  12.229  0.30 17.53 LIG 0.27  HD
ATOM     54 HZ3  LYS I   5      57.738  33.620  11.678  0.30 17.53 LIG 0.27  HD
ENDBRANCH 50 51
ENDBRANCH 49 50
ENDBRANCH 48 49
ENDBRANCH 47 48
ENDBRANCH 46 47
BRANCH 46 55
ATOM     55  C   LYS I   5      51.272  35.435  12.165  0.30 45.89 LIG 0.20  C 
ATOM     56 OXT  LYS I   5      51.060  36.636  12.056  1.00 48.13 LIG-0.65  OA
ATOM     57 O    LYS I   5      50.396  34.581  12.283  1.00 47.49 LIG-0.65  OA
ENDBRANCH 46 55
ENDBRANCH 43 46
ENDBRANCH 32 42
ENDBRANCH 3 32
TORSDOF 22
ENDMDL
MODEL 15
USER: ADFR SOLUTION from run 142
USER: SCORE 20.015196 LL:  -5.585 LR: -17.249 RR:   0.000 FEB: -10.687
USER: RMSD 9.878195
USER: SEED 141
USER: STATUS searching
USER: GENES 24
USER: genes 0 Translation |==|  0.51163 0.52923 0.34546
USER: genes 1 Rotation |==|  0.17258 0.42760 0.18338 0.69316
USER: genes 2 Torsion [N]-C--CA-[N] |==|  0.77113
USER: genes 3 Torsion [C]-CA--N-[C] |==|  0.23806
USER: genes 4 Torsion [N]-C--CA-[N] |==|  0.75165
USER: genes 5 Torsion [C]-CA--N-[C] |==|  0.73888
USER: genes 6 Torsion [N]-C--CA-[N] |==|  0.47096
USER: genes 7 Torsion [C]-CA--N-[H1] |==|  0.93160
USER: genes 8 Torsion [C]-CA--CB-[CG] |==|  0.02643
USER: genes 9 Torsion [CA]-CB--CG-[CD1] |==|  0.78050
USER: genes 10 Torsion [C]-CA--CB-[CG] |==|  0.65018
USER: genes 11 Torsion [CA]-CB--CG-[CD2] |==|  0.61947
USER: genes 12 Torsion [C]-N--CA-[CB] |==|  0.73084
USER: genes 13 Torsion [N]-CA--CB-[CG] |==|  0.85674
USER: genes 14 Torsion [CA]-CB--CG-[CD2] |==|  0.27363
USER: genes 15 Torsion [CE2]-CZ--OH-[HH] |==|  0.97395
USER: genes 16 Torsion [N]-CA--C-[N] |==|  0.21594
USER: genes 17 Torsion [C]-N--CA-[CB] |==|  0.25634
USER: genes 18 Torsion [N]-CA--CB-[CG] |==|  0.57770
USER: genes 19 Torsion [CA]-CB--CG-[CD] |==|  0.04562
USER: genes 20 Torsion [CB]-CG--CD-[CE] |==|  0.26427
USER: genes 21 Torsion [CG]-CD--CE-[NZ] |==|  0.85047
USER: genes 22 Torsion [CD]-CE--NZ-[HZ1] |==|  0.57524
USER: genes 23 Torsion [N]-CA--C-[OXT] |==|  0.72963
ROOT
ATOM      1  C   ALA I   3      45.409  31.067   3.664  0.30 45.63 LIG 0.24  C 
ATOM      2 O    ALA I   3      44.349  31.637   3.440  0.30 45.40 LIG-0.27  OA
ATOM      3  N   TYR I   4      45.543  30.143   4.622  0.30 45.44 LIG-0.35  N 
ATOM      4 H    TYR I   4      46.291  29.739   4.751  0.30 45.44 LIG 0.16  HD
ENDROOT
BRANCH 1 5
ATOM      5  CA  ALA I   3      46.664  31.410   2.796  0.30 46.01 LIG 0.17  C 
ATOM      6  CB  ALA I   3      47.462  30.203   2.473  0.30 45.75 LIG 0.04  C 
BRANCH 5 7
ATOM      7  N   ALA I   3      47.404  32.363   3.613  0.30 46.50 LIG-0.35  N 
ATOM      8 H    ALA I   3      47.200  33.171   3.401  0.30 46.50 LIG 0.16  HD
ATOM      9  C   LEU I   2      48.296  32.127   4.583  0.30 47.15 LIG 0.24  C 
ATOM     10 O    LEU I   2      48.658  31.016   4.982  0.30 46.92 LIG-0.27  OA
BRANCH 9 11
ATOM     11  CA  LEU I   2      48.937  33.448   5.030  0.30 47.70 LIG 0.18  C 
BRANCH 11 12
ATOM     12  N   LEU I   2      50.134  34.054   4.460  0.30 48.04 LIG-0.35  N 
ATOM     13  C   PHE I   1      51.211  33.707   5.136  0.30 48.35 LIG 0.25  C 
ATOM     14 O    PHE I   1      51.090  32.959   6.093  0.30 48.51 LIG-0.27  OA
ATOM     15 H    LEU I   2      50.063  34.562   3.769  0.30 48.04 LIG 0.16  HD
BRANCH 13 16
ATOM     16  CA  PHE I   1      52.564  34.304   4.837  0.30 48.56 LIG 0.28  C 
BRANCH 16 17
ATOM     17  N   PHE I   1      53.553  33.940   5.894  0.30 48.56 LIG-0.07  N 
ATOM     18 H3   PHE I   1      54.113  34.620   6.023  0.30 48.56 LIG 0.28  HD
ATOM     19 H1   PHE I   1      53.124  33.761   6.652  0.30 48.56 LIG 0.28  HD
ATOM     20 H2   PHE I   1      54.012  33.222   5.637  0.30 48.56 LIG 0.28  HD
ENDBRANCH 16 17
BRANCH 16 21
ATOM     21  CB  PHE I   1      53.017  33.752   3.469  0.30 48.65 LIG 0.08  C 
BRANCH 21 22
ATOM     22  CG  PHE I   1      51.938  32.978   2.701  0.30 49.18 LIG-0.06  A 
ATOM     23  CD1 PHE I   1      51.647  31.669   3.036  0.30 49.79 LIG 0.01  A 
ATOM     24  CE1 PHE I   1      50.686  30.952   2.339  0.30 50.05 LIG 0.00  A 
ATOM     25  CZ  PHE I   1      50.021  31.529   1.286  0.30 49.90 LIG 0.00  A 
ATOM     26  CE2 PHE I   1      50.310  32.814   0.925  0.30 49.43 LIG 0.00  A 
ATOM     27  CD2 PHE I   1      51.259  33.535   1.620  0.30 49.27 LIG 0.01  A 
ENDBRANCH 21 22
ENDBRANCH 16 21
ENDBRANCH 13 16
ENDBRANCH 11 12
BRANCH 11 28
ATOM     28  CB  LEU I   2      48.060  34.497   5.728  0.30 47.77 LIG 0.04  C 
BRANCH 28 29
ATOM     29  CG  LEU I   2      47.754  35.942   5.508  0.30 48.15 LIG-0.02  C 
ATOM     30  CD1 LEU I   2      46.485  36.190   4.767  0.30 48.48 LIG 0.01  C 
ATOM     31  CD2 LEU I   2      47.798  36.545   6.886  0.30 48.19 LIG 0.01  C 
ENDBRANCH 28 29
ENDBRANCH 11 28
ENDBRANCH 9 11
ENDBRANCH 5 7
ENDBRANCH 1 5
BRANCH 3 32
ATOM     32  CA  TYR I   4      44.486  29.680   5.579  0.30 45.17 LIG 0.18  C 
BRANCH 32 33
ATOM     33  CB  TYR I   4      44.514  30.345   6.933  0.30 45.37 LIG 0.07  C 
BRANCH 33 34
ATOM     34  CG  TYR I   4      45.922  30.253   7.509  0.30 45.37 LIG-0.06  A 
ATOM     35  CD2 TYR I   4      46.821  31.307   7.426  0.30 45.58 LIG 0.01  A 
ATOM     36  CE2 TYR I   4      48.104  31.196   7.931  0.30 45.96 LIG 0.04  A 
ATOM     37  CZ  TYR I   4      48.494  30.016   8.521  0.30 45.81 LIG 0.07  A 
ATOM     38  CE1 TYR I   4      47.618  28.955   8.613  0.30 45.70 LIG 0.04  A 
ATOM     39  CD1 TYR I   4      46.351  29.077   8.119  0.30 45.43 LIG 0.01  A 
BRANCH 37 40
ATOM     40 OH   TYR I   4      49.771  29.901   9.013  0.30 46.58 LIG-0.36  OA
ATOM     41 HH   TYR I   4      50.225  30.564   8.771  0.30 46.58 LIG 0.22  HD
ENDBRANCH 37 40
ENDBRANCH 33 34
ENDBRANCH 32 33
BRANCH 32 42
ATOM     42  C   TYR I   4      43.070  29.361   5.117  0.30 45.00 LIG 0.24  C 
ATOM     43  N   LYS I   5      43.052  28.171   4.533  0.30 44.74 LIG-0.34  N 
ATOM     44 H    LYS I   5      43.766  27.694   4.496  0.30 44.74 LIG 0.16  HD
ATOM     45 O    TYR I   4      42.086  30.068   5.360  0.30 44.60 LIG-0.27  OA
BRANCH 43 46
ATOM     46  CA  LYS I   5      41.944  27.499   3.904  0.30 44.60 LIG 0.18  C 
BRANCH 46 47
ATOM     47  CB  LYS I   5      42.034  27.902   2.427  0.30 43.50 LIG 0.04  C 
BRANCH 47 48
ATOM     48  CG  LYS I   5      40.764  27.936   1.618  0.30 39.10 LIG 0.00  C 
BRANCH 48 49
ATOM     49  CD  LYS I   5      39.584  27.943   2.572  0.30 31.49 LIG 0.03  C 
BRANCH 49 50
ATOM     50  CE  LYS I   5      39.096  29.347   2.845  0.30 26.75 LIG 0.23  C 
BRANCH 50 51
ATOM     51  NZ  LYS I   5      40.138  30.190   3.294  0.30 17.53 LIG-0.08  N 
ATOM     52 HZ1  LYS I   5      39.799  30.838   3.800  0.30 17.53 LIG 0.27  HD
ATOM     53 HZ2  LYS I   5      40.719  29.715   3.773  0.30 17.53 LIG 0.27  HD
ATOM     54 HZ3  LYS I   5      40.554  30.548   2.593  0.30 17.53 LIG 0.27  HD
ENDBRANCH 50 51
ENDBRANCH 49 50
ENDBRANCH 48 49
ENDBRANCH 47 48
ENDBRANCH 46 47
BRANCH 46 55
ATOM     55  C   LYS I   5      41.976  26.001   4.043  0.30 45.89 LIG 0.20  C 
ATOM     56 OXT  LYS I   5      42.435  25.361   3.105  1.00 48.13 LIG-0.65  OA
ATOM     57 O    LYS I   5      41.567  25.504   5.090  1.00 47.49 LIG-0.65  OA
ENDBRANCH 46 55
ENDBRANCH 43 46
ENDBRANCH 32 42
ENDBRANCH 3 32
TORSDOF 22
ENDMDL
MODEL 16
USER: ADFR SOLUTION from run 80
USER: SCORE 19.853581 LL:  -5.279 LR: -17.166 RR:   0.000 FEB: -10.603
USER: RMSD 10.095043
USER: SEED 79
USER: STATUS no improvement in best 1 clusters for 5 generations
USER: GENES 24
USER: genes 0 Translation |==|  0.51008 0.50814 0.35911
USER: genes 1 Rotation |==|  0.53035 0.99455 0.52758 0.56117
USER: genes 2 Torsion [N]-C--CA-[N] |==|  0.34630
USER: genes 3 Torsion [C]-CA--N-[C] |==|  0.62205
USER: genes 4 Torsion [N]-C--CA-[N] |==|  0.51150
USER: genes 5 Torsion [C]-CA--N-[C] |==|  0.80979
USER: genes 6 Torsion [N]-C--CA-[N] |==|  0.42381
USER: genes 7 Torsion [C]-CA--N-[H1] |==|  0.15932
USER: genes 8 Torsion [C]-CA--CB-[CG] |==|  0.08538
USER: genes 9 Torsion [CA]-CB--CG-[CD1] |==|  0.23095
USER: genes 10 Torsion [C]-CA--CB-[CG] |==|  0.74202
USER: genes 11 Torsion [CA]-CB--CG-[CD2] |==|  0.99251
USER: genes 12 Torsion [C]-N--CA-[CB] |==|  0.33358
USER: genes 13 Torsion [N]-CA--CB-[CG] |==|  0.75428
USER: genes 14 Torsion [CA]-CB--CG-[CD2] |==|  0.10026
USER: genes 15 Torsion [CE2]-CZ--OH-[HH] |==|  0.72944
USER: genes 16 Torsion [N]-CA--C-[N] |==|  0.29448
USER: genes 17 Torsion [C]-N--CA-[CB] |==|  0.14906
USER: genes 18 Torsion [N]-CA--CB-[CG] |==|  0.55249
USER: genes 19 Torsion [CA]-CB--CG-[CD] |==|  0.28479
USER: genes 20 Torsion [CB]-CG--CD-[CE] |==|  0.86524
USER: genes 21 Torsion [CG]-CD--CE-[NZ] |==|  0.34713
USER: genes 22 Torsion [CD]-CE--NZ-[HZ1] |==|  0.06057
USER: genes 23 Torsion [N]-CA--C-[OXT] |==|  0.72317
ROOT
ATOM      1  C   ALA I   3      45.363  30.434   4.073  0.30 45.63 LIG 0.24  C 
ATOM      2 O    ALA I   3      45.683  29.314   4.451  0.30 45.40 LIG-0.27  OA
ATOM      3  N   TYR I   4      44.139  30.938   4.267  0.30 45.44 LIG-0.35  N 
ATOM      4 H    TYR I   4      43.938  31.735   4.012  0.30 45.44 LIG 0.16  HD
ENDROOT
BRANCH 1 5
ATOM      5  CA  ALA I   3      46.417  31.330   3.344  0.30 46.01 LIG 0.17  C 
ATOM      6  CB  ALA I   3      46.798  30.775   2.023  0.30 45.75 LIG 0.04  C 
BRANCH 5 7
ATOM      7  N   ALA I   3      47.539  31.375   4.273  0.30 46.50 LIG-0.35  N 
ATOM      8 H    ALA I   3      47.701  30.595   4.596  0.30 46.50 LIG 0.16  HD
ATOM      9  C   LEU I   2      48.283  32.424   4.645  0.30 47.15 LIG 0.24  C 
ATOM     10 O    LEU I   2      48.155  33.585   4.244  0.30 46.92 LIG-0.27  OA
BRANCH 9 11
ATOM     11  CA  LEU I   2      49.230  32.011   5.779  0.30 47.70 LIG 0.18  C 
BRANCH 11 12
ATOM     12  N   LEU I   2      50.134  32.895   6.505  0.30 48.04 LIG-0.35  N 
ATOM     13  C   PHE I   1      51.111  33.318   5.728  0.30 48.35 LIG 0.25  C 
ATOM     14 O    PHE I   1      51.138  32.954   4.564  0.30 48.51 LIG-0.27  OA
ATOM     15 H    LEU I   2      49.981  33.069   7.334  0.30 48.04 LIG 0.16  HD
BRANCH 13 16
ATOM     16  CA  PHE I   1      52.257  34.138   6.267  0.30 48.56 LIG 0.28  C 
BRANCH 16 17
ATOM     17  N   PHE I   1      53.487  33.940   5.445  0.30 48.56 LIG-0.07  N 
ATOM     18 H3   PHE I   1      53.741  33.088   5.491  0.30 48.56 LIG 0.28  HD
ATOM     19 H1   PHE I   1      53.315  34.154   4.599  0.30 48.56 LIG 0.28  HD
ATOM     20 H2   PHE I   1      54.138  34.461   5.755  0.30 48.56 LIG 0.28  HD
ENDBRANCH 16 17
BRANCH 16 21
ATOM     21  CB  PHE I   1      51.821  35.617   6.229  0.30 48.65 LIG 0.08  C 
BRANCH 21 22
ATOM     22  CG  PHE I   1      50.316  35.848   6.413  0.30 49.18 LIG-0.06  A 
ATOM     23  CD1 PHE I   1      49.767  35.888   7.682  0.30 49.79 LIG 0.01  A 
ATOM     24  CE1 PHE I   1      48.405  36.080   7.862  0.30 50.05 LIG 0.00  A 
ATOM     25  CZ  PHE I   1      47.575  36.212   6.777  0.30 49.90 LIG 0.00  A 
ATOM     26  CE2 PHE I   1      48.095  36.154   5.516  0.30 49.43 LIG 0.00  A 
ATOM     27  CD2 PHE I   1      49.450  35.972   5.329  0.30 49.27 LIG 0.01  A 
ENDBRANCH 21 22
ENDBRANCH 16 21
ENDBRANCH 13 16
ENDBRANCH 11 12
BRANCH 11 28
ATOM     28  CB  LEU I   2      48.896  30.758   6.603  0.30 47.77 LIG 0.04  C 
BRANCH 28 29
ATOM     29  CG  LEU I   2      48.160  30.488   7.874  0.30 48.15 LIG-0.02  C 
ATOM     30  CD1 LEU I   2      48.925  29.676   8.860  0.30 48.48 LIG 0.01  C 
ATOM     31  CD2 LEU I   2      47.759  31.852   8.368  0.30 48.19 LIG 0.01  C 
ENDBRANCH 28 29
ENDBRANCH 11 28
ENDBRANCH 9 11
ENDBRANCH 5 7
ENDBRANCH 1 5
BRANCH 3 32
ATOM     32  CA  TYR I   4      42.976  30.251   4.919  0.30 45.17 LIG 0.18  C 
BRANCH 32 33
ATOM     33  CB  TYR I   4      42.436  30.938   6.149  0.30 45.37 LIG 0.07  C 
BRANCH 33 34
ATOM     34  CG  TYR I   4      43.190  30.437   7.375  0.30 45.37 LIG-0.06  A 
ATOM     35  CD2 TYR I   4      44.545  30.137   7.333  0.30 45.58 LIG 0.01  A 
ATOM     36  CE2 TYR I   4      45.207  29.659   8.450  0.30 45.96 LIG 0.04  A 
ATOM     37  CZ  TYR I   4      44.506  29.475   9.619  0.30 45.81 LIG 0.07  A 
ATOM     38  CE1 TYR I   4      43.160  29.765   9.684  0.30 45.70 LIG 0.04  A 
ATOM     39  CD1 TYR I   4      42.516  30.245   8.578  0.30 45.43 LIG 0.01  A 
BRANCH 37 40
ATOM     40 OH   TYR I   4      45.160  28.990  10.726  0.30 46.58 LIG-0.36  OA
ATOM     41 HH   TYR I   4      45.032  28.162  10.786  0.30 46.58 LIG 0.22  HD
ENDBRANCH 37 40
ENDBRANCH 33 34
ENDBRANCH 32 33
BRANCH 32 42
ATOM     42  C   TYR I   4      41.882  29.576   4.101  0.30 45.00 LIG 0.24  C 
ATOM     43  N   LYS I   5      42.022  28.260   4.175  0.30 44.74 LIG-0.34  N 
ATOM     44 H    LYS I   5      42.640  27.915   4.665  0.30 44.74 LIG 0.16  HD
ATOM     45 O    TYR I   4      40.953  30.181   3.556  0.30 44.60 LIG-0.27  OA
BRANCH 43 46
ATOM     46  CA  LYS I   5      41.249  27.239   3.517  0.30 44.60 LIG 0.18  C 
BRANCH 46 47
ATOM     47  CB  LYS I   5      41.298  27.611   2.031  0.30 43.50 LIG 0.04  C 
BRANCH 47 48
ATOM     48  CG  LYS I   5      40.259  27.023   1.112  0.30 39.10 LIG 0.00  C 
BRANCH 48 49
ATOM     49  CD  LYS I   5      39.214  28.084   0.824  0.30 31.49 LIG 0.03  C 
BRANCH 49 50
ATOM     50  CE  LYS I   5      38.736  28.755   2.091  0.30 26.75 LIG 0.23  C 
BRANCH 50 51
ATOM     51  NZ  LYS I   5      38.882  30.159   2.033  0.30 17.53 LIG-0.08  N 
ATOM     52 HZ1  LYS I   5      38.924  30.419   1.183  0.30 17.53 LIG 0.27  HD
ATOM     53 HZ2  LYS I   5      38.184  30.547   2.426  0.30 17.53 LIG 0.27  HD
ATOM     54 HZ3  LYS I   5      39.629  30.399   2.454  0.30 17.53 LIG 0.27  HD
ENDBRANCH 50 51
ENDBRANCH 49 50
ENDBRANCH 48 49
ENDBRANCH 47 48
ENDBRANCH 46 47
BRANCH 46 55
ATOM     55  C   LYS I   5      41.770  25.843   3.727  0.30 45.89 LIG 0.20  C 
ATOM     56 OXT  LYS I   5      42.443  25.355   2.827  1.00 48.13 LIG-0.65  OA
ATOM     57 O    LYS I   5      41.517  25.280   4.790  1.00 47.49 LIG-0.65  OA
ENDBRANCH 46 55
ENDBRANCH 43 46
ENDBRANCH 32 42
ENDBRANCH 3 32
TORSDOF 22
ENDMDL
MODEL 17
USER: ADFR SOLUTION from run 82
USER: SCORE 21.102049 LL:  -4.510 LR: -17.134 RR:   0.000 FEB: -10.572
USER: RMSD 11.527815
USER: SEED 81
USER: STATUS no improvement in best 2 clusters for 5 generations
USER: GENES 24
USER: genes 0 Translation |==|  0.62615 0.61200 0.43849
USER: genes 1 Rotation |==|  0.22412 0.89252 0.53016 0.63752
USER: genes 2 Torsion [N]-C--CA-[N] |==|  0.50197
USER: genes 3 Torsion [C]-CA--N-[C] |==|  0.75687
USER: genes 4 Torsion [N]-C--CA-[N] |==|  0.91608
USER: genes 5 Torsion [C]-CA--N-[C] |==|  0.81553
USER: genes 6 Torsion [N]-C--CA-[N] |==|  0.84170
USER: genes 7 Torsion [C]-CA--N-[H1] |==|  0.34978
USER: genes 8 Torsion [C]-CA--CB-[CG] |==|  0.21911
USER: genes 9 Torsion [CA]-CB--CG-[CD1] |==|  0.50623
USER: genes 10 Torsion [C]-CA--CB-[CG] |==|  0.46966
USER: genes 11 Torsion [CA]-CB--CG-[CD2] |==|  0.53688
USER: genes 12 Torsion [C]-N--CA-[CB] |==|  0.75674
USER: genes 13 Torsion [N]-CA--CB-[CG] |==|  0.88296
USER: genes 14 Torsion [CA]-CB--CG-[CD2] |==|  0.79535
USER: genes 15 Torsion [CE2]-CZ--OH-[HH] |==|  0.14582
USER: genes 16 Torsion [N]-CA--C-[N] |==|  0.03889
USER: genes 17 Torsion [C]-N--CA-[CB] |==|  0.13733
USER: genes 18 Torsion [N]-CA--CB-[CG] |==|  0.62847
USER: genes 19 Torsion [CA]-CB--CG-[CD] |==|  0.36543
USER: genes 20 Torsion [CB]-CG--CD-[CE] |==|  0.04370
USER: genes 21 Torsion [CG]-CD--CE-[NZ] |==|  0.59877
USER: genes 22 Torsion [CD]-CE--NZ-[HZ1] |==|  0.24669
USER: genes 23 Torsion [N]-CA--C-[OXT] |==|  0.04864
ROOT
ATOM      1  C   ALA I   3      48.844  33.550   6.455  0.30 45.63 LIG 0.24  C 
ATOM      2 O    ALA I   3      49.754  33.457   7.269  0.30 45.40 LIG-0.27  OA
ATOM      3  N   TYR I   4      48.043  32.524   6.148  0.30 45.44 LIG-0.35  N 
ATOM      4 H    TYR I   4      47.396  32.614   5.588  0.30 45.44 LIG 0.16  HD
ENDROOT
BRANCH 1 5
ATOM      5  CA  ALA I   3      48.587  34.919   5.743  0.30 46.01 LIG 0.17  C 
ATOM      6  CB  ALA I   3      48.656  34.798   4.267  0.30 45.75 LIG 0.04  C 
BRANCH 5 7
ATOM      7  N   ALA I   3      49.623  35.791   6.279  0.30 46.50 LIG-0.35  N 
ATOM      8 H    ALA I   3      50.321  35.784   5.776  0.30 46.50 LIG 0.16  HD
ATOM      9  C   LEU I   2      49.602  36.544   7.387  0.30 47.15 LIG 0.24  C 
ATOM     10 O    LEU I   2      48.658  36.645   8.177  0.30 46.92 LIG-0.27  OA
BRANCH 9 11
ATOM     11  CA  LEU I   2      50.991  37.147   7.630  0.30 47.70 LIG 0.18  C 
BRANCH 11 12
ATOM     12  N   LEU I   2      52.265  36.546   7.253  0.30 48.04 LIG-0.35  N 
ATOM     13  C   PHE I   1      52.492  35.444   7.940  0.30 48.35 LIG 0.25  C 
ATOM     14 O    PHE I   1      51.660  35.074   8.751  0.30 48.51 LIG-0.27  OA
ATOM     15 H    LEU I   2      52.749  36.924   6.650  0.30 48.04 LIG 0.16  HD
BRANCH 13 16
ATOM     16  CA  PHE I   1      53.800  34.701   7.838  0.30 48.56 LIG 0.28  C 
BRANCH 16 17
ATOM     17  N   PHE I   1      54.087  34.315   6.425  0.30 48.56 LIG-0.07  N 
ATOM     18 H3   PHE I   1      53.471  34.671   5.890  0.30 48.56 LIG 0.28  HD
ATOM     19 H1   PHE I   1      54.891  34.615   6.193  0.30 48.56 LIG 0.28  HD
ATOM     20 H2   PHE I   1      54.068  33.428   6.349  0.30 48.56 LIG 0.28  HD
ENDBRANCH 16 17
BRANCH 16 21
ATOM     21  CB  PHE I   1      54.904  35.638   8.370  0.30 48.65 LIG 0.08  C 
BRANCH 21 22
ATOM     22  CG  PHE I   1      54.995  35.721   9.899  0.30 49.18 LIG-0.06  A 
ATOM     23  CD1 PHE I   1      55.913  36.563  10.498  0.30 49.79 LIG 0.01  A 
ATOM     24  CE1 PHE I   1      56.016  36.635  11.880  0.30 50.05 LIG 0.00  A 
ATOM     25  CZ  PHE I   1      55.218  35.853  12.675  0.30 49.90 LIG 0.00  A 
ATOM     26  CE2 PHE I   1      54.319  34.999  12.102  0.30 49.43 LIG 0.00  A 
ATOM     27  CD2 PHE I   1      54.206  34.928  10.728  0.30 49.27 LIG 0.01  A 
ENDBRANCH 21 22
ENDBRANCH 16 21
ENDBRANCH 13 16
ENDBRANCH 11 12
BRANCH 11 28
ATOM     28  CB  LEU I   2      51.119  38.670   7.785  0.30 47.77 LIG 0.04  C 
BRANCH 28 29
ATOM     29  CG  LEU I   2      52.198  39.606   8.218  0.30 48.15 LIG-0.02  C 
ATOM     30  CD1 LEU I   2      53.356  39.676   7.283  0.30 48.48 LIG 0.01  C 
ATOM     31  CD2 LEU I   2      51.490  40.917   8.431  0.30 48.19 LIG 0.01  C 
ENDBRANCH 28 29
ENDBRANCH 11 28
ENDBRANCH 9 11
ENDBRANCH 5 7
ENDBRANCH 1 5
BRANCH 3 32
ATOM     32  CA  TYR I   4      48.123  31.128   6.690  0.30 45.17 LIG 0.18  C 
BRANCH 32 33
ATOM     33  CB  TYR I   4      49.039  30.200   5.930  0.30 45.37 LIG 0.07  C 
BRANCH 33 34
ATOM     34  CG  TYR I   4      48.848  30.418   4.434  0.30 45.37 LIG-0.06  A 
ATOM     35  CD2 TYR I   4      47.719  29.967   3.764  0.30 45.58 LIG 0.01  A 
ATOM     36  CE2 TYR I   4      47.575  30.152   2.400  0.30 45.96 LIG 0.04  A 
ATOM     37  CZ  TYR I   4      48.572  30.790   1.699  0.30 45.81 LIG 0.07  A 
ATOM     38  CE1 TYR I   4      49.702  31.245   2.344  0.30 45.70 LIG 0.04  A 
ATOM     39  CD1 TYR I   4      49.832  31.065   3.692  0.30 45.43 LIG 0.01  A 
BRANCH 37 40
ATOM     40 OH   TYR I   4      48.435  30.964   0.344  0.30 46.58 LIG-0.36  OA
ATOM     41 HH   TYR I   4      47.696  31.329   0.181  0.30 46.58 LIG 0.22  HD
ENDBRANCH 37 40
ENDBRANCH 33 34
ENDBRANCH 32 33
BRANCH 32 42
ATOM     42  C   TYR I   4      48.120  30.846   8.187  0.30 45.00 LIG 0.24  C 
ATOM     43  N   LYS I   5      47.740  31.934   8.842  0.30 44.74 LIG-0.34  N 
ATOM     44 H    LYS I   5      47.507  32.641   8.412  0.30 44.74 LIG 0.16  HD
ATOM     45 O    TYR I   4      48.334  29.734   8.682  0.30 44.60 LIG-0.27  OA
BRANCH 43 46
ATOM     46  CA  LYS I   5      47.648  32.136  10.264  0.30 44.60 LIG 0.18  C 
BRANCH 46 47
ATOM     47  CB  LYS I   5      48.994  31.649  10.814  0.30 43.50 LIG 0.04  C 
BRANCH 47 48
ATOM     48  CG  LYS I   5      48.989  30.749  12.023  0.30 39.10 LIG 0.00  C 
BRANCH 48 49
ATOM     49  CD  LYS I   5      49.890  29.562  11.744  0.30 31.49 LIG 0.03  C 
BRANCH 49 50
ATOM     50  CE  LYS I   5      50.792  29.813  10.558  0.30 26.75 LIG 0.23  C 
BRANCH 50 51
ATOM     51  NZ  LYS I   5      51.008  28.640   9.800  0.30 17.53 LIG-0.08  N 
ATOM     52 HZ1  LYS I   5      50.374  28.565   9.181  0.30 17.53 LIG 0.27  HD
ATOM     53 HZ2  LYS I   5      51.804  28.684   9.404  0.30 17.53 LIG 0.27  HD
ATOM     54 HZ3  LYS I   5      50.983  27.930  10.337  0.30 17.53 LIG 0.27  HD
ENDBRANCH 50 51
ENDBRANCH 49 50
ENDBRANCH 48 49
ENDBRANCH 47 48
ENDBRANCH 46 47
BRANCH 46 55
ATOM     55  C   LYS I   5      47.402  33.565  10.667  0.30 45.89 LIG 0.20  C 
ATOM     56 OXT  LYS I   5      46.985  34.327   9.803  1.00 48.13 LIG-0.65  OA
ATOM     57 O    LYS I   5      47.608  33.885  11.836  1.00 47.49 LIG-0.65  OA
ENDBRANCH 46 55
ENDBRANCH 43 46
ENDBRANCH 32 42
ENDBRANCH 3 32
TORSDOF 22
ENDMDL
MODEL 18
USER: ADFR SOLUTION from run 160
USER: SCORE 18.623392 LL:  -4.579 LR: -17.124 RR:   0.000 FEB: -10.561
USER: RMSD 11.077788
USER: SEED 159
USER: STATUS no improvement in best 7 clusters for 5 generations
USER: GENES 24
USER: genes 0 Translation |==|  0.61828 0.52567 0.38508
USER: genes 1 Rotation |==|  0.37844 0.03589 0.40615 0.60497
USER: genes 2 Torsion [N]-C--CA-[N] |==|  0.12534
USER: genes 3 Torsion [C]-CA--N-[C] |==|  0.36754
USER: genes 4 Torsion [N]-C--CA-[N] |==|  0.42254
USER: genes 5 Torsion [C]-CA--N-[C] |==|  0.64735
USER: genes 6 Torsion [N]-C--CA-[N] |==|  0.04083
USER: genes 7 Torsion [C]-CA--N-[H1] |==|  0.80227
USER: genes 8 Torsion [C]-CA--CB-[CG] |==|  0.86047
USER: genes 9 Torsion [CA]-CB--CG-[CD1] |==|  0.82482
USER: genes 10 Torsion [C]-CA--CB-[CG] |==|  0.15722
USER: genes 11 Torsion [CA]-CB--CG-[CD2] |==|  0.14007
USER: genes 12 Torsion [C]-N--CA-[CB] |==|  0.91579
USER: genes 13 Torsion [N]-CA--CB-[CG] |==|  0.77341
USER: genes 14 Torsion [CA]-CB--CG-[CD2] |==|  0.77055
USER: genes 15 Torsion [CE2]-CZ--OH-[HH] |==|  0.23210
USER: genes 16 Torsion [N]-CA--C-[N] |==|  0.25697
USER: genes 17 Torsion [C]-N--CA-[CB] |==|  0.08648
USER: genes 18 Torsion [N]-CA--CB-[CG] |==|  0.62897
USER: genes 19 Torsion [CA]-CB--CG-[CD] |==|  0.34423
USER: genes 20 Torsion [CB]-CG--CD-[CE] |==|  0.12129
USER: genes 21 Torsion [CG]-CD--CE-[NZ] |==|  0.56628
USER: genes 22 Torsion [CD]-CE--NZ-[HZ1] |==|  0.52960
USER: genes 23 Torsion [N]-CA--C-[OXT] |==|  0.50829
ROOT
ATOM      1  C   ALA I   3      48.609  30.960   4.852  0.30 45.63 LIG 0.24  C 
ATOM      2 O    ALA I   3      48.616  29.750   4.665  0.30 45.40 LIG-0.27  OA
ATOM      3  N   TYR I   4      47.996  31.524   5.900  0.30 45.44 LIG-0.35  N 
ATOM      4 H    TYR I   4      48.019  32.375   6.025  0.30 45.44 LIG 0.16  HD
ENDROOT
BRANCH 1 5
ATOM      5  CA  ALA I   3      49.350  31.898   3.844  0.30 46.01 LIG 0.17  C 
ATOM      6  CB  ALA I   3      50.235  31.139   2.929  0.30 45.75 LIG 0.04  C 
BRANCH 5 7
ATOM      7  N   ALA I   3      50.090  32.816   4.701  0.30 46.50 LIG-0.35  N 
ATOM      8 H    ALA I   3      49.585  33.129   5.323  0.30 46.50 LIG 0.16  HD
ATOM      9  C   LEU I   2      51.373  33.190   4.625  0.30 47.15 LIG 0.24  C 
ATOM     10 O    LEU I   2      52.195  32.801   3.789  0.30 46.92 LIG-0.27  OA
BRANCH 9 11
ATOM     11  CA  LEU I   2      51.648  34.309   5.638  0.30 47.70 LIG 0.18  C 
BRANCH 11 12
ATOM     12  N   LEU I   2      52.928  34.594   6.274  0.30 48.04 LIG-0.35  N 
ATOM     13  C   PHE I   1      52.807  34.639   7.586  0.30 48.35 LIG 0.25  C 
ATOM     14 O    PHE I   1      51.712  34.440   8.084  0.30 48.51 LIG-0.27  OA
ATOM     15 H    LEU I   2      53.628  34.706   5.785  0.30 48.04 LIG 0.16  HD
BRANCH 13 16
ATOM     16  CA  PHE I   1      53.955  35.049   8.475  0.30 48.56 LIG 0.28  C 
BRANCH 16 17
ATOM     17  N   PHE I   1      55.037  35.703   7.682  0.30 48.56 LIG-0.07  N 
ATOM     18 H3   PHE I   1      55.624  36.080   8.236  0.30 48.56 LIG 0.28  HD
ATOM     19 H1   PHE I   1      55.449  35.093   7.183  0.30 48.56 LIG 0.28  HD
ATOM     20 H2   PHE I   1      54.684  36.327   7.156  0.30 48.56 LIG 0.28  HD
ENDBRANCH 16 17
BRANCH 16 21
ATOM     21  CB  PHE I   1      53.394  36.030   9.526  0.30 48.65 LIG 0.08  C 
BRANCH 21 22
ATOM     22  CG  PHE I   1      52.564  37.183   8.948  0.30 49.18 LIG-0.06  A 
ATOM     23  CD1 PHE I   1      53.148  38.108   8.102  0.30 49.79 LIG 0.01  A 
ATOM     24  CE1 PHE I   1      52.412  39.164   7.586  0.30 50.05 LIG 0.00  A 
ATOM     25  CZ  PHE I   1      51.092  39.320   7.925  0.30 49.90 LIG 0.00  A 
ATOM     26  CE2 PHE I   1      50.502  38.428   8.776  0.30 49.43 LIG 0.00  A 
ATOM     27  CD2 PHE I   1      51.226  37.371   9.287  0.30 49.27 LIG 0.01  A 
ENDBRANCH 21 22
ENDBRANCH 16 21
ENDBRANCH 13 16
ENDBRANCH 11 12
BRANCH 11 28
ATOM     28  CB  LEU I   2      50.740  35.548   5.635  0.30 47.77 LIG 0.04  C 
BRANCH 28 29
ATOM     29  CG  LEU I   2      49.273  35.790   5.772  0.30 48.15 LIG-0.02  C 
ATOM     30  CD1 LEU I   2      48.482  35.441   4.559  0.30 48.48 LIG 0.01  C 
ATOM     31  CD2 LEU I   2      48.885  35.027   7.010  0.30 48.19 LIG 0.01  C 
ENDBRANCH 28 29
ENDBRANCH 11 28
ENDBRANCH 9 11
ENDBRANCH 5 7
ENDBRANCH 1 5
BRANCH 3 32
ATOM     32  CA  TYR I   4      47.213  30.822   6.969  0.30 45.17 LIG 0.18  C 
BRANCH 32 33
ATOM     33  CB  TYR I   4      46.518  29.558   6.526  0.30 45.37 LIG 0.07  C 
BRANCH 33 34
ATOM     34  CG  TYR I   4      45.209  29.921   5.835  0.30 45.37 LIG-0.06  A 
ATOM     35  CD2 TYR I   4      44.050  30.189   6.551  0.30 45.58 LIG 0.01  A 
ATOM     36  CE2 TYR I   4      42.864  30.491   5.906  0.30 45.96 LIG 0.04  A 
ATOM     37  CZ  TYR I   4      42.835  30.520   4.531  0.30 45.81 LIG 0.07  A 
ATOM     38  CE1 TYR I   4      43.973  30.255   3.800  0.30 45.70 LIG 0.04  A 
ATOM     39  CD1 TYR I   4      45.141  29.966   4.446  0.30 45.43 LIG 0.01  A 
BRANCH 37 40
ATOM     40 OH   TYR I   4      41.655  30.808   3.889  0.30 46.58 LIG-0.36  OA
ATOM     41 HH   TYR I   4      41.554  31.641   3.849  0.30 46.58 LIG 0.22  HD
ENDBRANCH 37 40
ENDBRANCH 33 34
ENDBRANCH 32 33
BRANCH 32 42
ATOM     42  C   TYR I   4      47.713  30.739   8.405  0.30 45.00 LIG 0.24  C 
ATOM     43  N   LYS I   5      47.223  31.753   9.105  0.30 44.74 LIG-0.34  N 
ATOM     44 H    LYS I   5      46.678  32.310   8.740  0.30 44.74 LIG 0.16  HD
ATOM     45 O    TYR I   4      48.380  29.799   8.852  0.30 44.60 LIG-0.27  OA
BRANCH 43 46
ATOM     46  CA  LYS I   5      47.475  32.096  10.480  0.30 44.60 LIG 0.18  C 
BRANCH 46 47
ATOM     47  CB  LYS I   5      48.911  31.626  10.741  0.30 43.50 LIG 0.04  C 
BRANCH 47 48
ATOM     48  CG  LYS I   5      49.190  30.847  12.000  0.30 39.10 LIG 0.00  C 
BRANCH 48 49
ATOM     49  CD  LYS I   5      49.825  29.524  11.617  0.30 31.49 LIG 0.03  C 
BRANCH 49 50
ATOM     50  CE  LYS I   5      50.882  29.700  10.551  0.30 26.75 LIG 0.23  C 
BRANCH 50 51
ATOM     51  NZ  LYS I   5      51.091  28.513   9.813  0.30 17.53 LIG-0.08  N 
ATOM     52 HZ1  LYS I   5      51.816  28.602   9.305  0.30 17.53 LIG 0.27  HD
ATOM     53 HZ2  LYS I   5      51.204  27.831  10.373  0.30 17.53 LIG 0.27  HD
ATOM     54 HZ3  LYS I   5      50.384  28.356   9.294  0.30 17.53 LIG 0.27  HD
ENDBRANCH 50 51
ENDBRANCH 49 50
ENDBRANCH 48 49
ENDBRANCH 47 48
ENDBRANCH 46 47
BRANCH 46 55
ATOM     55  C   LYS I   5      47.341  33.565  10.780  0.30 45.89 LIG 0.20  C 
ATOM     56 OXT  LYS I   5      47.598  33.929  11.921  1.00 48.13 LIG-0.65  OA
ATOM     57 O    LYS I   5      47.008  34.318   9.868  1.00 47.49 LIG-0.65  OA
ENDBRANCH 46 55
ENDBRANCH 43 46
ENDBRANCH 32 42
ENDBRANCH 3 32
TORSDOF 22
ENDMDL
MODEL 19
USER: ADFR SOLUTION from run 23
USER: SCORE 21.829830 LL:  -5.021 LR: -17.103 RR:   0.000 FEB: -10.540
USER: RMSD 11.387914
USER: SEED 22
USER: STATUS no improvement in best 5 clusters for 5 generations
USER: GENES 24
USER: genes 0 Translation |==|  0.77092 0.73273 0.51684
USER: genes 1 Rotation |==|  0.89621 0.45985 0.75500 0.66243
USER: genes 2 Torsion [N]-C--CA-[N] |==|  0.39012
USER: genes 3 Torsion [C]-CA--N-[C] |==|  0.76157
USER: genes 4 Torsion [N]-C--CA-[N] |==|  0.08335
USER: genes 5 Torsion [C]-CA--N-[C] |==|  0.15421
USER: genes 6 Torsion [N]-C--CA-[N] |==|  0.22608
USER: genes 7 Torsion [C]-CA--N-[H1] |==|  0.32276
USER: genes 8 Torsion [C]-CA--CB-[CG] |==|  0.17595
USER: genes 9 Torsion [CA]-CB--CG-[CD1] |==|  0.71910
USER: genes 10 Torsion [C]-CA--CB-[CG] |==|  0.16542
USER: genes 11 Torsion [CA]-CB--CG-[CD2] |==|  0.77161
USER: genes 12 Torsion [C]-N--CA-[CB] |==|  0.77411
USER: genes 13 Torsion [N]-CA--CB-[CG] |==|  0.03840
USER: genes 14 Torsion [CA]-CB--CG-[CD2] |==|  0.78285
USER: genes 15 Torsion [CE2]-CZ--OH-[HH] |==|  0.23735
USER: genes 16 Torsion [N]-CA--C-[N] |==|  0.94374
USER: genes 17 Torsion [C]-N--CA-[CB] |==|  0.27607
USER: genes 18 Torsion [N]-CA--CB-[CG] |==|  0.79185
USER: genes 19 Torsion [CA]-CB--CG-[CD] |==|  0.23087
USER: genes 20 Torsion [CB]-CG--CD-[CE] |==|  0.24510
USER: genes 21 Torsion [CG]-CD--CE-[NZ] |==|  0.74280
USER: genes 22 Torsion [CD]-CE--NZ-[HZ1] |==|  0.33395
USER: genes 23 Torsion [N]-CA--C-[OXT] |==|  0.51456
ROOT
ATOM      1  C   ALA I   3      53.188  37.172   8.805  0.30 45.63 LIG 0.24  C 
ATOM      2 O    ALA I   3      53.107  38.088   7.996  0.30 45.40 LIG-0.27  OA
ATOM      3  N   TYR I   4      53.233  37.378  10.126  0.30 45.44 LIG-0.35  N 
ATOM      4 H    TYR I   4      53.269  36.721  10.680  0.30 45.44 LIG 0.16  HD
ENDROOT
BRANCH 1 5
ATOM      5  CA  ALA I   3      53.228  35.694   8.292  0.30 46.01 LIG 0.17  C 
ATOM      6  CB  ALA I   3      54.592  35.290   7.875  0.30 45.75 LIG 0.04  C 
BRANCH 5 7
ATOM      7  N   ALA I   3      52.281  35.684   7.185  0.30 46.50 LIG-0.35  N 
ATOM      8 H    ALA I   3      52.683  35.817   6.437  0.30 46.50 LIG 0.16  HD
ATOM      9  C   LEU I   2      50.955  35.502   7.213  0.30 47.15 LIG 0.24  C 
ATOM     10 O    LEU I   2      50.271  35.292   8.220  0.30 46.92 LIG-0.27  OA
BRANCH 9 11
ATOM     11  CA  LEU I   2      50.368  35.755   5.818  0.30 47.70 LIG 0.18  C 
BRANCH 11 12
ATOM     12  N   LEU I   2      51.051  35.534   4.548  0.30 48.04 LIG-0.35  N 
ATOM     13  C   PHE I   1      51.486  34.294   4.453  0.30 48.35 LIG 0.25  C 
ATOM     14 O    PHE I   1      51.273  33.522   5.373  0.30 48.51 LIG-0.27  OA
ATOM     15 H    LEU I   2      51.119  36.183   3.986  0.30 48.04 LIG 0.16  HD
BRANCH 13 16
ATOM     16  CA  PHE I   1      52.343  33.840   3.297  0.30 48.56 LIG 0.28  C 
BRANCH 16 17
ATOM     17  N   PHE I   1      53.772  34.216   3.512  0.30 48.56 LIG-0.07  N 
ATOM     18 H3   PHE I   1      53.844  34.690   4.262  0.30 48.56 LIG 0.28  HD
ATOM     19 H1   PHE I   1      54.265  33.479   3.578  0.30 48.56 LIG 0.28  HD
ATOM     20 H2   PHE I   1      54.057  34.703   2.825  0.30 48.56 LIG 0.28  HD
ENDBRANCH 16 17
BRANCH 16 21
ATOM     21  CB  PHE I   1      52.203  32.307   3.196  0.30 48.65 LIG 0.08  C 
BRANCH 21 22
ATOM     22  CG  PHE I   1      50.788  31.811   2.871  0.30 49.18 LIG-0.06  A 
ATOM     23  CD1 PHE I   1      49.976  31.315   3.874  0.30 49.79 LIG 0.01  A 
ATOM     24  CE1 PHE I   1      48.701  30.849   3.591  0.30 50.05 LIG 0.00  A 
ATOM     25  CZ  PHE I   1      48.232  30.854   2.302  0.30 49.90 LIG 0.00  A 
ATOM     26  CE2 PHE I   1      49.027  31.320   1.294  0.30 49.43 LIG 0.00  A 
ATOM     27  CD2 PHE I   1      50.294  31.793   1.570  0.30 49.27 LIG 0.01  A 
ENDBRANCH 21 22
ENDBRANCH 16 21
ENDBRANCH 13 16
ENDBRANCH 11 12
BRANCH 11 28
ATOM     28  CB  LEU I   2      48.842  35.730   5.641  0.30 47.77 LIG 0.04  C 
BRANCH 28 29
ATOM     29  CG  LEU I   2      47.695  36.494   6.212  0.30 48.15 LIG-0.02  C 
ATOM     30  CD1 LEU I   2      46.510  36.578   5.313  0.30 48.48 LIG 0.01  C 
ATOM     31  CD2 LEU I   2      47.426  35.828   7.535  0.30 48.19 LIG 0.01  C 
ENDBRANCH 28 29
ENDBRANCH 11 28
ENDBRANCH 9 11
ENDBRANCH 5 7
ENDBRANCH 1 5
BRANCH 3 32
ATOM     32  CA  TYR I   4      53.229  38.702  10.830  0.30 45.17 LIG 0.18  C 
BRANCH 32 33
ATOM     33  CB  TYR I   4      54.569  39.394  10.897  0.30 45.37 LIG 0.07  C 
BRANCH 33 34
ATOM     34  CG  TYR I   4      55.531  38.720   9.926  0.30 45.37 LIG-0.06  A 
ATOM     35  CD2 TYR I   4      56.154  37.516  10.226  0.30 45.58 LIG 0.01  A 
ATOM     36  CE2 TYR I   4      57.045  36.932   9.343  0.30 45.96 LIG 0.04  A 
ATOM     37  CZ  TYR I   4      57.319  37.561   8.151  0.30 45.81 LIG 0.07  A 
ATOM     38  CE1 TYR I   4      56.713  38.758   7.833  0.30 45.70 LIG 0.04  A 
ATOM     39  CD1 TYR I   4      55.829  39.322   8.707  0.30 45.43 LIG 0.01  A 
BRANCH 37 40
ATOM     40 OH   TYR I   4      58.212  36.988   7.279  0.30 46.58 LIG-0.36  OA
ATOM     41 HH   TYR I   4      57.814  36.428   6.797  0.30 46.58 LIG 0.22  HD
ENDBRANCH 37 40
ENDBRANCH 33 34
ENDBRANCH 32 33
BRANCH 32 42
ATOM     42  C   TYR I   4      52.073  39.684  10.686  0.30 45.00 LIG 0.24  C 
ATOM     43  N   LYS I   5      51.386  39.402   9.589  0.30 44.74 LIG-0.34  N 
ATOM     44 H    LYS I   5      51.600  38.724   9.104  0.30 44.74 LIG 0.16  HD
ATOM     45 O    TYR I   4      51.777  40.533  11.534  0.30 44.60 LIG-0.27  OA
BRANCH 43 46
ATOM     46  CA  LYS I   5      50.254  40.100   9.037  0.30 44.60 LIG 0.18  C 
BRANCH 46 47
ATOM     47  CB  LYS I   5      50.843  40.975   7.923  0.30 43.50 LIG 0.04  C 
BRANCH 47 48
ATOM     48  CG  LYS I   5      51.609  42.211   8.315  0.30 39.10 LIG 0.00  C 
BRANCH 48 49
ATOM     49  CD  LYS I   5      53.034  41.811   8.648  0.30 31.49 LIG 0.03  C 
BRANCH 49 50
ATOM     50  CE  LYS I   5      53.916  41.819   7.421  0.30 26.75 LIG 0.23  C 
BRANCH 50 51
ATOM     51  NZ  LYS I   5      53.971  40.550   6.801  0.30 17.53 LIG-0.08  N 
ATOM     52 HZ1  LYS I   5      53.670  40.615   5.966  0.30 17.53 LIG 0.27  HD
ATOM     53 HZ2  LYS I   5      54.812  40.260   6.790  0.30 17.53 LIG 0.27  HD
ATOM     54 HZ3  LYS I   5      53.464  39.975   7.254  0.30 17.53 LIG 0.27  HD
ENDBRANCH 50 51
ENDBRANCH 49 50
ENDBRANCH 48 49
ENDBRANCH 47 48
ENDBRANCH 46 47
BRANCH 46 55
ATOM     55  C   LYS I   5      49.184  39.197   8.485  0.30 45.89 LIG 0.20  C 
ATOM     56 OXT  LYS I   5      48.241  39.730   7.913  1.00 48.13 LIG-0.65  OA
ATOM     57 O    LYS I   5      49.324  37.983   8.615  1.00 47.49 LIG-0.65  OA
ENDBRANCH 46 55
ENDBRANCH 43 46
ENDBRANCH 32 42
ENDBRANCH 3 32
TORSDOF 22
ENDMDL
MODEL 20
USER: ADFR SOLUTION from run 46
USER: SCORE 18.316053 LL:  -4.004 LR: -16.883 RR:   0.000 FEB: -10.321
USER: RMSD 12.315269
USER: SEED 45
USER: STATUS no improvement in best 12 clusters for 5 generations
USER: GENES 24
USER: genes 0 Translation |==|  0.66805 0.61855 0.39825
USER: genes 1 Rotation |==|  0.24452 0.24954 0.19628 0.67249
USER: genes 2 Torsion [N]-C--CA-[N] |==|  0.92060
USER: genes 3 Torsion [C]-CA--N-[C] |==|  0.28132
USER: genes 4 Torsion [N]-C--CA-[N] |==|  0.95934
USER: genes 5 Torsion [C]-CA--N-[C] |==|  0.67895
USER: genes 6 Torsion [N]-C--CA-[N] |==|  0.67607
USER: genes 7 Torsion [C]-CA--N-[H1] |==|  0.78511
USER: genes 8 Torsion [C]-CA--CB-[CG] |==|  0.50106
USER: genes 9 Torsion [CA]-CB--CG-[CD1] |==|  0.43685
USER: genes 10 Torsion [C]-CA--CB-[CG] |==|  0.75199
USER: genes 11 Torsion [CA]-CB--CG-[CD2] |==|  0.01272
USER: genes 12 Torsion [C]-N--CA-[CB] |==|  0.23333
USER: genes 13 Torsion [N]-CA--CB-[CG] |==|  0.80932
USER: genes 14 Torsion [CA]-CB--CG-[CD2] |==|  0.75667
USER: genes 15 Torsion [CE2]-CZ--OH-[HH] |==|  0.16220
USER: genes 16 Torsion [N]-CA--C-[N] |==|  0.68009
USER: genes 17 Torsion [C]-N--CA-[CB] |==|  0.53290
USER: genes 18 Torsion [N]-CA--CB-[CG] |==|  0.83762
USER: genes 19 Torsion [CA]-CB--CG-[CD] |==|  0.29058
USER: genes 20 Torsion [CB]-CG--CD-[CE] |==|  0.17813
USER: genes 21 Torsion [CG]-CD--CE-[NZ] |==|  0.47599
USER: genes 22 Torsion [CD]-CE--NZ-[HZ1] |==|  0.80628
USER: genes 23 Torsion [N]-CA--C-[OXT] |==|  0.82270
ROOT
ATOM      1  C   ALA I   3      50.102  33.747   5.248  0.30 45.63 LIG 0.24  C 
ATOM      2 O    ALA I   3      49.172  33.587   4.466  0.30 45.40 LIG-0.27  OA
ATOM      3  N   TYR I   4      50.056  33.329   6.518  0.30 45.44 LIG-0.35  N 
ATOM      4 H    TYR I   4      50.727  33.433   7.046  0.30 45.44 LIG 0.16  HD
ENDROOT
BRANCH 1 5
ATOM      5  CA  ALA I   3      51.408  34.453   4.755  0.30 46.01 LIG 0.17  C 
ATOM      6  CB  ALA I   3      52.355  33.496   4.135  0.30 45.75 LIG 0.04  C 
BRANCH 5 7
ATOM      7  N   ALA I   3      51.947  35.068   5.960  0.30 46.50 LIG-0.35  N 
ATOM      8 H    ALA I   3      51.529  35.796   6.146  0.30 46.50 LIG 0.16  HD
ATOM      9  C   LEU I   2      52.948  34.649   6.745  0.30 47.15 LIG 0.24  C 
ATOM     10 O    LEU I   2      53.612  33.620   6.587  0.30 46.92 LIG-0.27  OA
BRANCH 9 11
ATOM     11  CA  LEU I   2      53.269  35.723   7.793  0.30 47.70 LIG 0.18  C 
BRANCH 11 12
ATOM     12  N   LEU I   2      52.825  37.111   7.761  0.30 48.04 LIG-0.35  N 
ATOM     13  C   PHE I   1      53.848  37.934   7.642  0.30 48.35 LIG 0.25  C 
ATOM     14 O    PHE I   1      54.973  37.469   7.566  0.30 48.51 LIG-0.27  OA
ATOM     15 H    LEU I   2      51.985  37.289   7.818  0.30 48.04 LIG 0.16  HD
BRANCH 13 16
ATOM     16  CA  PHE I   1      53.676  39.431   7.719  0.30 48.56 LIG 0.28  C 
BRANCH 16 17
ATOM     17  N   PHE I   1      54.052  40.078   6.427  0.30 48.56 LIG-0.07  N 
ATOM     18 H3   PHE I   1      53.715  40.902   6.399  0.30 48.56 LIG 0.28  HD
ATOM     19 H1   PHE I   1      54.938  40.117   6.361  0.30 48.56 LIG 0.28  HD
ATOM     20 H2   PHE I   1      53.725  39.601   5.750  0.30 48.56 LIG 0.28  HD
ENDBRANCH 16 17
BRANCH 16 21
ATOM     21  CB  PHE I   1      52.193  39.707   8.043  0.30 48.65 LIG 0.08  C 
BRANCH 21 22
ATOM     22  CG  PHE I   1      51.826  41.193   8.152  0.30 49.18 LIG-0.06  A 
ATOM     23  CD1 PHE I   1      50.519  41.603   7.969  0.30 49.79 LIG 0.01  A 
ATOM     24  CE1 PHE I   1      50.176  42.945   8.048  0.30 50.05 LIG 0.00  A 
ATOM     25  CZ  PHE I   1      51.139  43.892   8.290  0.30 49.90 LIG 0.00  A 
ATOM     26  CE2 PHE I   1      52.440  43.509   8.452  0.30 49.43 LIG 0.00  A 
ATOM     27  CD2 PHE I   1      52.786  42.175   8.383  0.30 49.27 LIG 0.01  A 
ENDBRANCH 21 22
ENDBRANCH 16 21
ENDBRANCH 13 16
ENDBRANCH 11 12
BRANCH 11 28
ATOM     28  CB  LEU I   2      53.612  35.281   9.223  0.30 47.77 LIG 0.04  C 
BRANCH 28 29
ATOM     29  CG  LEU I   2      52.832  35.014  10.468  0.30 48.15 LIG-0.02  C 
ATOM     30  CD1 LEU I   2      53.227  35.860  11.628  0.30 48.48 LIG 0.01  C 
ATOM     31  CD2 LEU I   2      51.395  35.168  10.046  0.30 48.19 LIG 0.01  C 
ENDBRANCH 28 29
ENDBRANCH 11 28
ENDBRANCH 9 11
ENDBRANCH 5 7
ENDBRANCH 1 5
BRANCH 3 32
ATOM     32  CA  TYR I   4      48.905  32.654   7.202  0.30 45.17 LIG 0.18  C 
BRANCH 32 33
ATOM     33  CB  TYR I   4      48.823  31.162   6.992  0.30 45.37 LIG 0.07  C 
BRANCH 33 34
ATOM     34  CG  TYR I   4      48.467  30.878   5.537  0.30 45.37 LIG-0.06  A 
ATOM     35  CD2 TYR I   4      47.150  30.814   5.102  0.30 45.58 LIG 0.01  A 
ATOM     36  CE2 TYR I   4      46.846  30.529   3.782  0.30 45.96 LIG 0.04  A 
ATOM     37  CZ  TYR I   4      47.868  30.302   2.891  0.30 45.81 LIG 0.07  A 
ATOM     38  CE1 TYR I   4      49.183  30.359   3.302  0.30 45.70 LIG 0.04  A 
ATOM     39  CD1 TYR I   4      49.474  30.649   4.604  0.30 45.43 LIG 0.01  A 
BRANCH 37 40
ATOM     40 OH   TYR I   4      47.567  30.007   1.583  0.30 46.58 LIG-0.36  OA
ATOM     41 HH   TYR I   4      47.115  30.633   1.252  0.30 46.58 LIG 0.22  HD
ENDBRANCH 37 40
ENDBRANCH 33 34
ENDBRANCH 32 33
BRANCH 32 42
ATOM     42  C   TYR I   4      48.438  33.073   8.590  0.30 45.00 LIG 0.24  C 
ATOM     43  N   LYS I   5      48.636  32.078   9.443  0.30 44.74 LIG-0.34  N 
ATOM     44 H    LYS I   5      49.014  31.351   9.183  0.30 44.74 LIG 0.16  HD
ATOM     45 O    TYR I   4      48.045  34.210   8.874  0.30 44.60 LIG-0.27  OA
BRANCH 43 46
ATOM     46  CA  LYS I   5      48.294  32.016  10.840  0.30 44.60 LIG 0.18  C 
BRANCH 46 47
ATOM     47  CB  LYS I   5      49.025  30.773  11.363  0.30 43.50 LIG 0.04  C 
BRANCH 47 48
ATOM     48  CG  LYS I   5      48.720  29.443  10.723  0.30 39.10 LIG 0.00  C 
BRANCH 48 49
ATOM     49  CD  LYS I   5      49.878  29.067   9.819  0.30 31.49 LIG 0.03  C 
BRANCH 49 50
ATOM     50  CE  LYS I   5      51.152  28.855  10.603  0.30 26.75 LIG 0.23  C 
BRANCH 50 51
ATOM     51  NZ  LYS I   5      52.184  28.317   9.800  0.30 17.53 LIG-0.08  N 
ATOM     52 HZ1  LYS I   5      51.987  27.475   9.588  0.30 17.53 LIG 0.27  HD
ATOM     53 HZ2  LYS I   5      52.263  28.798   9.056  0.30 17.53 LIG 0.27  HD
ATOM     54 HZ3  LYS I   5      52.952  28.337  10.249  0.30 17.53 LIG 0.27  HD
ENDBRANCH 50 51
ENDBRANCH 49 50
ENDBRANCH 48 49
ENDBRANCH 47 48
ENDBRANCH 46 47
BRANCH 46 55
ATOM     55  C   LYS I   5      48.700  33.233  11.627  0.30 45.89 LIG 0.20  C 
ATOM     56 OXT  LYS I   5      49.899  33.470  11.714  1.00 48.13 LIG-0.65  OA
ATOM     57 O    LYS I   5      47.815  33.933  12.115  1.00 47.49 LIG-0.65  OA
ENDBRANCH 46 55
ENDBRANCH 43 46
ENDBRANCH 32 42
ENDBRANCH 3 32
TORSDOF 22
ENDMDL
MODEL 21
USER: ADFR SOLUTION from run 23
USER: SCORE 21.579028 LL:  -5.186 LR: -16.803 RR:   0.000 FEB: -10.240
USER: RMSD 10.940107
USER: SEED 22
USER: STATUS no improvement in best 5 clusters for 5 generations
USER: GENES 24
USER: genes 0 Translation |==|  0.77450 0.71550 0.54231
USER: genes 1 Rotation |==|  0.81051 0.33202 0.84546 0.57759
USER: genes 2 Torsion [N]-C--CA-[N] |==|  0.27885
USER: genes 3 Torsion [C]-CA--N-[C] |==|  0.79434
USER: genes 4 Torsion [N]-C--CA-[N] |==|  0.12567
USER: genes 5 Torsion [C]-CA--N-[C] |==|  0.14923
USER: genes 6 Torsion [N]-C--CA-[N] |==|  0.19545
USER: genes 7 Torsion [C]-CA--N-[H1] |==|  0.33066
USER: genes 8 Torsion [C]-CA--CB-[CG] |==|  0.19978
USER: genes 9 Torsion [CA]-CB--CG-[CD1] |==|  0.72274
USER: genes 10 Torsion [C]-CA--CB-[CG] |==|  0.81404
USER: genes 11 Torsion [CA]-CB--CG-[CD2] |==|  0.80401
USER: genes 12 Torsion [C]-N--CA-[CB] |==|  0.79110
USER: genes 13 Torsion [N]-CA--CB-[CG] |==|  0.96132
USER: genes 14 Torsion [CA]-CB--CG-[CD2] |==|  0.80681
USER: genes 15 Torsion [CE2]-CZ--OH-[HH] |==|  0.23465
USER: genes 16 Torsion [N]-CA--C-[N] |==|  0.96953
USER: genes 17 Torsion [C]-N--CA-[CB] |==|  0.38007
USER: genes 18 Torsion [N]-CA--CB-[CG] |==|  0.79945
USER: genes 19 Torsion [CA]-CB--CG-[CD] |==|  0.37036
USER: genes 20 Torsion [CB]-CG--CD-[CE] |==|  0.09129
USER: genes 21 Torsion [CG]-CD--CE-[NZ] |==|  0.70568
USER: genes 22 Torsion [CD]-CE--NZ-[HZ1] |==|  0.27052
USER: genes 23 Torsion [N]-CA--C-[OXT] |==|  0.39370
ROOT
ATOM      1  C   ALA I   3      53.295  36.655   9.569  0.30 45.63 LIG 0.24  C 
ATOM      2 O    ALA I   3      53.747  37.766   9.320  0.30 45.40 LIG-0.27  OA
ATOM      3  N   TYR I   4      52.497  36.419  10.617  0.30 45.44 LIG-0.35  N 
ATOM      4 H    TYR I   4      52.173  35.636  10.764  0.30 45.44 LIG 0.16  HD
ENDROOT
BRANCH 1 5
ATOM      5  CA  ALA I   3      53.645  35.454   8.630  0.30 46.01 LIG 0.17  C 
ATOM      6  CB  ALA I   3      55.074  35.458   8.234  0.30 45.75 LIG 0.04  C 
BRANCH 5 7
ATOM      7  N   ALA I   3      52.752  35.630   7.492  0.30 46.50 LIG-0.35  N 
ATOM      8 H    ALA I   3      53.183  35.918   6.805  0.30 46.50 LIG 0.16  HD
ATOM      9  C   LEU I   2      51.434  35.407   7.413  0.30 47.15 LIG 0.24  C 
ATOM     10 O    LEU I   2      50.713  34.986   8.323  0.30 46.92 LIG-0.27  OA
BRANCH 9 11
ATOM     11  CA  LEU I   2      50.903  35.908   6.063  0.30 47.70 LIG 0.18  C 
BRANCH 11 12
ATOM     12  N   LEU I   2      51.520  35.679   4.762  0.30 48.04 LIG-0.35  N 
ATOM     13  C   PHE I   1      51.730  34.395   4.555  0.30 48.35 LIG 0.25  C 
ATOM     14 O    PHE I   1      51.396  33.597   5.415  0.30 48.51 LIG-0.27  OA
ATOM     15 H    LEU I   2      51.694  36.350   4.252  0.30 48.04 LIG 0.16  HD
BRANCH 13 16
ATOM     16  CA  PHE I   1      52.479  33.897   3.344  0.30 48.56 LIG 0.28  C 
BRANCH 16 17
ATOM     17  N   PHE I   1      53.929  34.240   3.435  0.30 48.56 LIG-0.07  N 
ATOM     18 H3   PHE I   1      54.080  34.690   4.188  0.30 48.56 LIG 0.28  HD
ATOM     19 H1   PHE I   1      54.410  33.492   3.434  0.30 48.56 LIG 0.28  HD
ATOM     20 H2   PHE I   1      54.160  34.741   2.737  0.30 48.56 LIG 0.28  HD
ENDBRANCH 16 17
BRANCH 16 21
ATOM     21  CB  PHE I   1      52.294  32.366   3.286  0.30 48.65 LIG 0.08  C 
BRANCH 21 22
ATOM     22  CG  PHE I   1      50.888  31.904   2.883  0.30 49.18 LIG-0.06  A 
ATOM     23  CD1 PHE I   1      49.985  31.497   3.847  0.30 49.79 LIG 0.01  A 
ATOM     24  CE1 PHE I   1      48.716  31.061   3.495  0.30 50.05 LIG 0.00  A 
ATOM     25  CZ  PHE I   1      48.344  31.009   2.175  0.30 49.90 LIG 0.00  A 
ATOM     26  CE2 PHE I   1      49.229  31.387   1.206  0.30 49.43 LIG 0.00  A 
ATOM     27  CD2 PHE I   1      50.490  31.829   1.550  0.30 49.27 LIG 0.01  A 
ENDBRANCH 21 22
ENDBRANCH 16 21
ENDBRANCH 13 16
ENDBRANCH 11 12
BRANCH 11 28
ATOM     28  CB  LEU I   2      49.404  36.208   5.923  0.30 47.77 LIG 0.04  C 
BRANCH 28 29
ATOM     29  CG  LEU I   2      48.152  35.395   5.941  0.30 48.15 LIG-0.02  C 
ATOM     30  CD1 LEU I   2      46.909  36.193   6.137  0.30 48.48 LIG 0.01  C 
ATOM     31  CD2 LEU I   2      48.195  34.616   4.654  0.30 48.19 LIG 0.01  C 
ENDBRANCH 28 29
ENDBRANCH 11 28
ENDBRANCH 9 11
ENDBRANCH 5 7
ENDBRANCH 1 5
BRANCH 3 32
ATOM     32  CA  TYR I   4      52.054  37.411  11.651  0.30 45.17 LIG 0.18  C 
BRANCH 32 33
ATOM     33  CB  TYR I   4      53.104  37.785  12.668  0.30 45.37 LIG 0.07  C 
BRANCH 33 34
ATOM     34  CG  TYR I   4      54.258  36.793  12.587  0.30 45.37 LIG-0.06  A 
ATOM     35  CD2 TYR I   4      54.123  35.473  12.995  0.30 45.58 LIG 0.01  A 
ATOM     36  CE2 TYR I   4      55.189  34.593  12.939  0.30 45.96 LIG 0.04  A 
ATOM     37  CZ  TYR I   4      56.404  35.039  12.474  0.30 45.81 LIG 0.07  A 
ATOM     38  CE1 TYR I   4      56.562  36.346  12.064  0.30 45.70 LIG 0.04  A 
ATOM     39  CD1 TYR I   4      55.502  37.205  12.116  0.30 45.43 LIG 0.01  A 
BRANCH 37 40
ATOM     40 OH   TYR I   4      57.466  34.169  12.428  0.30 46.58 LIG-0.36  OA
ATOM     41 HH   TYR I   4      57.436  33.727  11.715  0.30 46.58 LIG 0.22  HD
ENDBRANCH 37 40
ENDBRANCH 33 34
ENDBRANCH 32 33
BRANCH 32 42
ATOM     42  C   TYR I   4      51.138  38.578  11.304  0.30 45.00 LIG 0.24  C 
ATOM     43  N   LYS I   5      51.030  38.680   9.987  0.30 44.74 LIG-0.34  N 
ATOM     44 H    LYS I   5      51.418  38.109   9.473  0.30 44.74 LIG 0.16  HD
ATOM     45 O    TYR I   4      50.515  39.240  12.140  0.30 44.60 LIG-0.27  OA
BRANCH 43 46
ATOM     46  CA  LYS I   5      50.314  39.667   9.221  0.30 44.60 LIG 0.18  C 
BRANCH 46 47
ATOM     47  CB  LYS I   5      51.266  40.035   8.076  0.30 43.50 LIG 0.04  C 
BRANCH 47 48
ATOM     48  CG  LYS I   5      52.485  40.861   8.398  0.30 39.10 LIG 0.00  C 
BRANCH 48 49
ATOM     49  CD  LYS I   5      53.687  40.228   7.724  0.30 31.49 LIG 0.03  C 
BRANCH 49 50
ATOM     50  CE  LYS I   5      53.312  39.574   6.414  0.30 26.75 LIG 0.23  C 
BRANCH 50 51
ATOM     51  NZ  LYS I   5      53.294  38.164   6.513  0.30 17.53 LIG-0.08  N 
ATOM     52 HZ1  LYS I   5      52.459  37.886   6.647  0.30 17.53 LIG 0.27  HD
ATOM     53 HZ2  LYS I   5      53.605  37.809   5.759  0.30 17.53 LIG 0.27  HD
ATOM     54 HZ3  LYS I   5      53.805  37.907   7.195  0.30 17.53 LIG 0.27  HD
ENDBRANCH 50 51
ENDBRANCH 49 50
ENDBRANCH 48 49
ENDBRANCH 47 48
ENDBRANCH 46 47
BRANCH 46 55
ATOM     55  C   LYS I   5      48.998  39.184   8.675  0.30 45.89 LIG 0.20  C 
ATOM     56 OXT  LYS I   5      48.066  39.980   8.673  1.00 48.13 LIG-0.65  OA
ATOM     57 O    LYS I   5      48.933  38.036   8.241  1.00 47.49 LIG-0.65  OA
ENDBRANCH 46 55
ENDBRANCH 43 46
ENDBRANCH 32 42
ENDBRANCH 3 32
TORSDOF 22
ENDMDL
MODEL 22
USER: ADFR SOLUTION from run 55
USER: SCORE 21.083354 LL:  -5.946 LR: -16.784 RR:   0.000 FEB: -10.221
USER: RMSD 10.481209
USER: SEED 54
USER: STATUS no improvement in best 4 clusters for 5 generations
USER: GENES 24
USER: genes 0 Translation |==|  0.59164 0.65505 0.48094
USER: genes 1 Rotation |==|  0.16587 0.61880 0.34164 0.81491
USER: genes 2 Torsion [N]-C--CA-[N] |==|  0.86358
USER: genes 3 Torsion [C]-CA--N-[C] |==|  0.87814
USER: genes 4 Torsion [N]-C--CA-[N] |==|  0.99403
USER: genes 5 Torsion [C]-CA--N-[C] |==|  0.75016
USER: genes 6 Torsion [N]-C--CA-[N] |==|  0.17048
USER: genes 7 Torsion [C]-CA--N-[H1] |==|  0.23383
USER: genes 8 Torsion [C]-CA--CB-[CG] |==|  0.23595
USER: genes 9 Torsion [CA]-CB--CG-[CD1] |==|  0.84333
USER: genes 10 Torsion [C]-CA--CB-[CG] |==|  0.25629
USER: genes 11 Torsion [CA]-CB--CG-[CD2] |==|  0.78920
USER: genes 12 Torsion [C]-N--CA-[CB] |==|  0.46804
USER: genes 13 Torsion [N]-CA--CB-[CG] |==|  0.76054
USER: genes 14 Torsion [CA]-CB--CG-[CD2] |==|  0.40201
USER: genes 15 Torsion [CE2]-CZ--OH-[HH] |==|  0.53525
USER: genes 16 Torsion [N]-CA--C-[N] |==|  0.31019
USER: genes 17 Torsion [C]-N--CA-[CB] |==|  0.75076
USER: genes 18 Torsion [N]-CA--CB-[CG] |==|  0.10623
USER: genes 19 Torsion [CA]-CB--CG-[CD] |==|  0.28658
USER: genes 20 Torsion [CB]-CG--CD-[CE] |==|  0.09141
USER: genes 21 Torsion [CG]-CD--CE-[NZ] |==|  0.66290
USER: genes 22 Torsion [CD]-CE--NZ-[HZ1] |==|  0.42129
USER: genes 23 Torsion [N]-CA--C-[OXT] |==|  0.21534
ROOT
ATOM      1  C   ALA I   3      47.809  34.841   7.728  0.30 45.63 LIG 0.24  C 
ATOM      2 O    ALA I   3      47.069  35.060   8.679  0.30 45.40 LIG-0.27  OA
ATOM      3  N   TYR I   4      48.344  33.638   7.492  0.30 45.44 LIG-0.35  N 
ATOM      4 H    TYR I   4      48.846  33.499   6.807  0.30 45.44 LIG 0.16  HD
ENDROOT
BRANCH 1 5
ATOM      5  CA  ALA I   3      48.145  36.001   6.733  0.30 46.01 LIG 0.17  C 
ATOM      6  CB  ALA I   3      47.454  35.832   5.432  0.30 45.75 LIG 0.04  C 
BRANCH 5 7
ATOM      7  N   ALA I   3      49.595  35.942   6.606  0.30 46.50 LIG-0.35  N 
ATOM      8 H    ALA I   3      49.834  36.026   5.784  0.30 46.50 LIG 0.16  HD
ATOM      9  C   LEU I   2      50.519  35.785   7.562  0.30 47.15 LIG 0.24  C 
ATOM     10 O    LEU I   2      50.300  35.667   8.771  0.30 46.92 LIG-0.27  OA
BRANCH 9 11
ATOM     11  CA  LEU I   2      51.902  35.606   6.921  0.30 47.70 LIG 0.18  C 
BRANCH 11 12
ATOM     12  N   LEU I   2      52.185  35.560   5.492  0.30 48.04 LIG-0.35  N 
ATOM     13  C   PHE I   1      52.122  34.326   5.034  0.30 48.35 LIG 0.25  C 
ATOM     14 O    PHE I   1      51.842  33.425   5.807  0.30 48.51 LIG-0.27  OA
ATOM     15 H    LEU I   2      52.361  36.291   5.072  0.30 48.04 LIG 0.16  HD
BRANCH 13 16
ATOM     16  CA  PHE I   1      52.503  33.985   3.615  0.30 48.56 LIG 0.28  C 
BRANCH 16 17
ATOM     17  N   PHE I   1      53.935  34.315   3.354  0.30 48.56 LIG-0.07  N 
ATOM     18 H3   PHE I   1      54.155  35.055   3.798  0.30 48.56 LIG 0.28  HD
ATOM     19 H1   PHE I   1      54.449  33.642   3.626  0.30 48.56 LIG 0.28  HD
ATOM     20 H2   PHE I   1      54.056  34.446   2.482  0.30 48.56 LIG 0.28  HD
ENDBRANCH 16 17
BRANCH 16 21
ATOM     21  CB  PHE I   1      52.261  32.473   3.425  0.30 48.65 LIG 0.08  C 
BRANCH 21 22
ATOM     22  CG  PHE I   1      50.822  32.096   3.050  0.30 49.18 LIG-0.06  A 
ATOM     23  CD1 PHE I   1      49.768  32.478   3.859  0.30 49.79 LIG 0.01  A 
ATOM     24  CE1 PHE I   1      48.464  32.130   3.540  0.30 50.05 LIG 0.00  A 
ATOM     25  CZ  PHE I   1      48.201  31.379   2.422  0.30 49.90 LIG 0.00  A 
ATOM     26  CE2 PHE I   1      49.232  30.973   1.622  0.30 49.43 LIG 0.00  A 
ATOM     27  CD2 PHE I   1      50.530  31.323   1.929  0.30 49.27 LIG 0.01  A 
ENDBRANCH 21 22
ENDBRANCH 16 21
ENDBRANCH 13 16
ENDBRANCH 11 12
BRANCH 11 28
ATOM     28  CB  LEU I   2      53.147  36.017   7.722  0.30 47.77 LIG 0.04  C 
BRANCH 28 29
ATOM     29  CG  LEU I   2      54.092  35.322   8.645  0.30 48.15 LIG-0.02  C 
ATOM     30  CD1 LEU I   2      55.414  35.995   8.782  0.30 48.48 LIG 0.01  C 
ATOM     31  CD2 LEU I   2      53.324  35.191   9.933  0.30 48.19 LIG 0.01  C 
ENDBRANCH 28 29
ENDBRANCH 11 28
ENDBRANCH 9 11
ENDBRANCH 5 7
ENDBRANCH 1 5
BRANCH 3 32
ATOM     32  CA  TYR I   4      48.176  32.401   8.321  0.30 45.17 LIG 0.18  C 
BRANCH 32 33
ATOM     33  CB  TYR I   4      48.666  31.128   7.677  0.30 45.37 LIG 0.07  C 
BRANCH 33 34
ATOM     34  CG  TYR I   4      47.557  30.544   6.810  0.30 45.37 LIG-0.06  A 
ATOM     35  CD2 TYR I   4      47.826  29.889   5.615  0.30 45.58 LIG 0.01  A 
ATOM     36  CE2 TYR I   4      46.804  29.388   4.828  0.30 45.96 LIG 0.04  A 
ATOM     37  CZ  TYR I   4      45.501  29.548   5.237  0.30 45.81 LIG 0.07  A 
ATOM     38  CE1 TYR I   4      45.211  30.197   6.419  0.30 45.70 LIG 0.04  A 
ATOM     39  CD1 TYR I   4      46.226  30.681   7.193  0.30 45.43 LIG 0.01  A 
BRANCH 37 40
ATOM     40 OH   TYR I   4      44.485  29.062   4.451  0.30 46.58 LIG-0.36  OA
ATOM     41 HH   TYR I   4      43.751  29.372   4.718  0.30 46.58 LIG 0.22  HD
ENDBRANCH 37 40
ENDBRANCH 33 34
ENDBRANCH 32 33
BRANCH 32 42
ATOM     42  C   TYR I   4      48.392  32.410   9.829  0.30 45.00 LIG 0.24  C 
ATOM     43  N   LYS I   5      47.233  32.222  10.444  0.30 44.74 LIG-0.34  N 
ATOM     44 H    LYS I   5      46.516  32.083   9.989  0.30 44.74 LIG 0.16  HD
ATOM     45 O    TYR I   4      49.502  32.472  10.369  0.30 44.60 LIG-0.27  OA
BRANCH 43 46
ATOM     46  CA  LYS I   5      46.961  32.213  11.858  0.30 44.60 LIG 0.18  C 
BRANCH 46 47
ATOM     47  CB  LYS I   5      47.152  30.752  12.281  0.30 43.50 LIG 0.04  C 
BRANCH 47 48
ATOM     48  CG  LYS I   5      48.272  29.966  11.650  0.30 39.10 LIG 0.00  C 
BRANCH 48 49
ATOM     49  CD  LYS I   5      49.410  29.862  12.647  0.30 31.49 LIG 0.03  C 
BRANCH 49 50
ATOM     50  CE  LYS I   5      48.901  29.798  14.069  0.30 26.75 LIG 0.23  C 
BRANCH 50 51
ATOM     51  NZ  LYS I   5      49.410  30.853  14.860  0.30 17.53 LIG-0.08  N 
ATOM     52 HZ1  LYS I   5      48.830  31.045  15.507  0.30 17.53 LIG 0.27  HD
ATOM     53 HZ2  LYS I   5      50.185  30.607  15.221  0.30 17.53 LIG 0.27  HD
ATOM     54 HZ3  LYS I   5      49.535  31.573  14.351  0.30 17.53 LIG 0.27  HD
ENDBRANCH 50 51
ENDBRANCH 49 50
ENDBRANCH 48 49
ENDBRANCH 47 48
ENDBRANCH 46 47
BRANCH 46 55
ATOM     55  C   LYS I   5      47.858  33.115  12.662  0.30 45.89 LIG 0.20  C 
ATOM     56 OXT  LYS I   5      47.615  34.315  12.637  1.00 48.13 LIG-0.65  OA
ATOM     57 O    LYS I   5      48.765  32.602  13.315  1.00 47.49 LIG-0.65  OA
ENDBRANCH 46 55
ENDBRANCH 43 46
ENDBRANCH 32 42
ENDBRANCH 3 32
TORSDOF 22
ENDMDL
MODEL 23
USER: ADFR SOLUTION from run 128
USER: SCORE 20.252904 LL:  -5.026 LR: -16.716 RR:   0.000 FEB: -10.154
USER: RMSD 9.404995
USER: SEED 127
USER: STATUS no improvement in best 1 clusters for 5 generations
USER: GENES 24
USER: genes 0 Translation |==|  0.60936 0.54200 0.49300
USER: genes 1 Rotation |==|  0.57615 0.08109 0.23788 0.50123
USER: genes 2 Torsion [N]-C--CA-[N] |==|  0.70335
USER: genes 3 Torsion [C]-CA--N-[C] |==|  0.51123
USER: genes 4 Torsion [N]-C--CA-[N] |==|  0.85970
USER: genes 5 Torsion [C]-CA--N-[C] |==|  0.80376
USER: genes 6 Torsion [N]-C--CA-[N] |==|  0.45111
USER: genes 7 Torsion [C]-CA--N-[H1] |==|  0.97299
USER: genes 8 Torsion [C]-CA--CB-[CG] |==|  0.20095
USER: genes 9 Torsion [CA]-CB--CG-[CD1] |==|  0.19385
USER: genes 10 Torsion [C]-CA--CB-[CG] |==|  0.02939
USER: genes 11 Torsion [CA]-CB--CG-[CD2] |==|  0.52638
USER: genes 12 Torsion [C]-N--CA-[CB] |==|  0.84212
USER: genes 13 Torsion [N]-CA--CB-[CG] |==|  0.76234
USER: genes 14 Torsion [CA]-CB--CG-[CD2] |==|  0.97406
USER: genes 15 Torsion [CE2]-CZ--OH-[HH] |==|  0.67078
USER: genes 16 Torsion [N]-CA--C-[N] |==|  0.87253
USER: genes 17 Torsion [C]-N--CA-[CB] |==|  0.78288
USER: genes 18 Torsion [N]-CA--CB-[CG] |==|  0.66219
USER: genes 19 Torsion [CA]-CB--CG-[CD] |==|  0.89234
USER: genes 20 Torsion [CB]-CG--CD-[CE] |==|  0.29081
USER: genes 21 Torsion [CG]-CD--CE-[NZ] |==|  0.72587
USER: genes 22 Torsion [CD]-CE--NZ-[HZ1] |==|  0.96953
USER: genes 23 Torsion [N]-CA--C-[OXT] |==|  0.82060
ROOT
ATOM      1  C   ALA I   3      48.341  31.450   8.090  0.30 45.63 LIG 0.24  C 
ATOM      2 O    ALA I   3      49.185  30.835   7.450  0.30 45.40 LIG-0.27  OA
ATOM      3  N   TYR I   4      47.170  30.909   8.447  0.30 45.44 LIG-0.35  N 
ATOM      4 H    TYR I   4      46.598  31.350   8.914  0.30 45.44 LIG 0.16  HD
ENDROOT
BRANCH 1 5
ATOM      5  CA  ALA I   3      48.630  32.924   8.526  0.30 46.01 LIG 0.17  C 
ATOM      6  CB  ALA I   3      47.692  33.385   9.577  0.30 45.75 LIG 0.04  C 
BRANCH 5 7
ATOM      7  N   ALA I   3      48.501  33.685   7.290  0.30 46.50 LIG-0.35  N 
ATOM      8 H    ALA I   3      48.248  33.178   6.643  0.30 46.50 LIG 0.16  HD
ATOM      9  C   LEU I   2      48.718  34.989   7.077  0.30 47.15 LIG 0.24  C 
ATOM     10 O    LEU I   2      49.070  35.815   7.925  0.30 46.92 LIG-0.27  OA
BRANCH 9 11
ATOM     11  CA  LEU I   2      48.624  35.291   5.576  0.30 47.70 LIG 0.18  C 
BRANCH 11 12
ATOM     12  N   LEU I   2      49.317  34.574   4.512  0.30 48.04 LIG-0.35  N 
ATOM     13  C   PHE I   1      50.610  34.826   4.534  0.30 48.35 LIG 0.25  C 
ATOM     14 O    PHE I   1      51.051  35.573   5.391  0.30 48.51 LIG-0.27  OA
ATOM     15 H    LEU I   2      48.867  34.069   3.979  0.30 48.04 LIG 0.16  HD
BRANCH 13 16
ATOM     16  CA  PHE I   1      51.537  34.315   3.459  0.30 48.56 LIG 0.28  C 
BRANCH 16 17
ATOM     17  N   PHE I   1      52.828  35.065   3.468  0.30 48.56 LIG-0.07  N 
ATOM     18 H3   PHE I   1      53.015  35.344   2.644  0.30 48.56 LIG 0.28  HD
ATOM     19 H1   PHE I   1      52.761  35.766   4.011  0.30 48.56 LIG 0.28  HD
ATOM     20 H2   PHE I   1      53.480  34.530   3.754  0.30 48.56 LIG 0.28  HD
ENDBRANCH 16 17
BRANCH 16 21
ATOM     21  CB  PHE I   1      51.786  32.819   3.739  0.30 48.65 LIG 0.08  C 
BRANCH 21 22
ATOM     22  CG  PHE I   1      50.592  31.903   3.443  0.30 49.18 LIG-0.06  A 
ATOM     23  CD1 PHE I   1      50.193  31.677   2.138  0.30 49.79 LIG 0.01  A 
ATOM     24  CE1 PHE I   1      49.105  30.865   1.858  0.30 50.05 LIG 0.00  A 
ATOM     25  CZ  PHE I   1      48.392  30.286   2.877  0.30 49.90 LIG 0.00  A 
ATOM     26  CE2 PHE I   1      48.757  30.514   4.173  0.30 49.43 LIG 0.00  A 
ATOM     27  CD2 PHE I   1      49.844  31.315   4.459  0.30 49.27 LIG 0.01  A 
ENDBRANCH 21 22
ENDBRANCH 16 21
ENDBRANCH 13 16
ENDBRANCH 11 12
BRANCH 11 28
ATOM     28  CB  LEU I   2      47.373  36.005   5.042  0.30 47.77 LIG 0.04  C 
BRANCH 28 29
ATOM     29  CG  LEU I   2      46.204  36.701   5.657  0.30 48.15 LIG-0.02  C 
ATOM     30  CD1 LEU I   2      46.560  37.927   6.425  0.30 48.48 LIG 0.01  C 
ATOM     31  CD2 LEU I   2      45.266  36.940   4.504  0.30 48.19 LIG 0.01  C 
ENDBRANCH 28 29
ENDBRANCH 11 28
ENDBRANCH 9 11
ENDBRANCH 5 7
ENDBRANCH 1 5
BRANCH 3 32
ATOM     32  CA  TYR I   4      46.680  29.530   8.119  0.30 45.17 LIG 0.18  C 
BRANCH 32 33
ATOM     33  CB  TYR I   4      46.628  29.204   6.647  0.30 45.37 LIG 0.07  C 
BRANCH 33 34
ATOM     34  CG  TYR I   4      45.304  29.691   6.071  0.30 45.37 LIG-0.06  A 
ATOM     35  CD2 TYR I   4      44.275  30.152   6.882  0.30 45.58 LIG 0.01  A 
ATOM     36  CE2 TYR I   4      43.069  30.565   6.342  0.30 45.96 LIG 0.04  A 
ATOM     37  CZ  TYR I   4      42.889  30.512   4.980  0.30 45.81 LIG 0.07  A 
ATOM     38  CE1 TYR I   4      43.896  30.056   4.156  0.30 45.70 LIG 0.04  A 
ATOM     39  CD1 TYR I   4      45.085  29.658   4.697  0.30 45.43 LIG 0.01  A 
BRANCH 37 40
ATOM     40 OH   TYR I   4      41.689  30.911   4.445  0.30 46.58 LIG-0.36  OA
ATOM     41 HH   TYR I   4      41.331  30.265   4.046  0.30 46.58 LIG 0.22  HD
ENDBRANCH 37 40
ENDBRANCH 33 34
ENDBRANCH 32 33
BRANCH 32 42
ATOM     42  C   TYR I   4      47.052  28.323   8.970  0.30 45.00 LIG 0.24  C 
ATOM     43  N   LYS I   5      48.351  28.348   9.232  0.30 44.74 LIG-0.34  N 
ATOM     44 H    LYS I   5      48.837  29.004   8.960  0.30 44.74 LIG 0.16  HD
ATOM     45 O    TYR I   4      46.232  27.519   9.427  0.30 44.60 LIG-0.27  OA
BRANCH 43 46
ATOM     46  CA  LYS I   5      49.138  27.382   9.952  0.30 44.60 LIG 0.18  C 
BRANCH 46 47
ATOM     47  CB  LYS I   5      48.838  27.660  11.430  0.30 43.50 LIG 0.04  C 
BRANCH 47 48
ATOM     48  CG  LYS I   5      49.989  28.004  12.340  0.30 39.10 LIG 0.00  C 
BRANCH 48 49
ATOM     49  CD  LYS I   5      51.181  27.147  11.956  0.30 31.49 LIG 0.03  C 
BRANCH 49 50
ATOM     50  CE  LYS I   5      52.218  27.942  11.196  0.30 26.75 LIG 0.23  C 
BRANCH 50 51
ATOM     51  NZ  LYS I   5      52.112  27.751   9.800  0.30 17.53 LIG-0.08  N 
ATOM     52 HZ1  LYS I   5      51.557  27.076   9.634  0.30 17.53 LIG 0.27  HD
ATOM     53 HZ2  LYS I   5      51.797  28.492   9.422  0.30 17.53 LIG 0.27  HD
ATOM     54 HZ3  LYS I   5      52.915  27.564   9.464  0.30 17.53 LIG 0.27  HD
ENDBRANCH 50 51
ENDBRANCH 49 50
ENDBRANCH 48 49
ENDBRANCH 47 48
ENDBRANCH 46 47
BRANCH 46 55
ATOM     55  C   LYS I   5      48.817  25.951   9.612  0.30 45.89 LIG 0.20  C 
ATOM     56 OXT  LYS I   5      47.697  25.546   9.896  1.00 48.13 LIG-0.65  OA
ATOM     57 O    LYS I   5      49.678  25.279   9.049  1.00 47.49 LIG-0.65  OA
ENDBRANCH 46 55
ENDBRANCH 43 46
ENDBRANCH 32 42
ENDBRANCH 3 32
TORSDOF 22
ENDMDL
MODEL 24
USER: ADFR SOLUTION from run 99
USER: SCORE 20.303782 LL:  -4.427 LR: -16.699 RR:   0.000 FEB: -10.137
USER: RMSD 10.569157
USER: SEED 98
USER: STATUS no improvement in best 11 clusters for 5 generations
USER: GENES 24
USER: genes 0 Translation |==|  0.66456 0.71085 0.47780
USER: genes 1 Rotation |==|  0.02402 0.63693 0.51958 0.56568
USER: genes 2 Torsion [N]-C--CA-[N] |==|  0.94730
USER: genes 3 Torsion [C]-CA--N-[C] |==|  0.82207
USER: genes 4 Torsion [N]-C--CA-[N] |==|  0.85997
USER: genes 5 Torsion [C]-CA--N-[C] |==|  0.21207
USER: genes 6 Torsion [N]-C--CA-[N] |==|  0.26424
USER: genes 7 Torsion [C]-CA--N-[H1] |==|  0.49300
USER: genes 8 Torsion [C]-CA--CB-[CG] |==|  0.09327
USER: genes 9 Torsion [CA]-CB--CG-[CD1] |==|  0.65239
USER: genes 10 Torsion [C]-CA--CB-[CG] |==|  0.40252
USER: genes 11 Torsion [CA]-CB--CG-[CD2] |==|  0.07491
USER: genes 12 Torsion [C]-N--CA-[CB] |==|  0.71753
USER: genes 13 Torsion [N]-CA--CB-[CG] |==|  0.20453
USER: genes 14 Torsion [CA]-CB--CG-[CD2] |==|  0.30572
USER: genes 15 Torsion [CE2]-CZ--OH-[HH] |==|  0.31528
USER: genes 16 Torsion [N]-CA--C-[N] |==|  0.37631
USER: genes 17 Torsion [C]-N--CA-[CB] |==|  0.82501
USER: genes 18 Torsion [N]-CA--CB-[CG] |==|  0.86035
USER: genes 19 Torsion [CA]-CB--CG-[CD] |==|  0.72259
USER: genes 20 Torsion [CB]-CG--CD-[CE] |==|  0.21658
USER: genes 21 Torsion [CG]-CD--CE-[NZ] |==|  0.21179
USER: genes 22 Torsion [CD]-CE--NZ-[HZ1] |==|  0.18702
USER: genes 23 Torsion [N]-CA--C-[OXT] |==|  0.83778
ROOT
ATOM      1  C   ALA I   3      49.997  36.515   7.634  0.30 45.63 LIG 0.24  C 
ATOM      2 O    ALA I   3      50.079  37.524   8.324  0.30 45.40 LIG-0.27  OA
ATOM      3  N   TYR I   4      50.807  35.463   7.796  0.30 45.44 LIG-0.35  N 
ATOM      4 H    TYR I   4      50.720  34.755   7.315  0.30 45.44 LIG 0.16  HD
ENDROOT
BRANCH 1 5
ATOM      5  CA  ALA I   3      48.899  36.432   6.522  0.30 46.01 LIG 0.17  C 
ATOM      6  CB  ALA I   3      47.558  36.154   7.088  0.30 45.75 LIG 0.04  C 
BRANCH 5 7
ATOM      7  N   ALA I   3      49.368  35.363   5.650  0.30 46.50 LIG-0.35  N 
ATOM      8 H    ALA I   3      48.820  34.700   5.656  0.30 46.50 LIG 0.16  HD
ATOM      9  C   LEU I   2      50.475  35.313   4.899  0.30 47.15 LIG 0.24  C 
ATOM     10 O    LEU I   2      51.326  36.203   4.799  0.30 46.92 LIG-0.27  OA
BRANCH 9 11
ATOM     11  CA  LEU I   2      50.628  33.911   4.294  0.30 47.70 LIG 0.18  C 
BRANCH 11 12
ATOM     12  N   LEU I   2      50.560  32.651   5.024  0.30 48.04 LIG-0.35  N 
ATOM     13  C   PHE I   1      49.314  32.339   5.319  0.30 48.35 LIG 0.25  C 
ATOM     14 O    PHE I   1      48.419  33.087   4.962  0.30 48.51 LIG-0.27  OA
ATOM     15 H    LEU I   2      51.287  32.225   5.201  0.30 48.04 LIG 0.16  HD
BRANCH 13 16
ATOM     16  CA  PHE I   1      48.977  31.153   6.188  0.30 48.56 LIG 0.28  C 
BRANCH 16 17
ATOM     17  N   PHE I   1      48.801  31.567   7.611  0.30 48.56 LIG-0.07  N 
ATOM     18 H3   PHE I   1      48.165  32.188   7.664  0.30 48.56 LIG 0.28  HD
ATOM     19 H1   PHE I   1      48.567  30.861   8.099  0.30 48.56 LIG 0.28  HD
ATOM     20 H2   PHE I   1      49.567  31.900   7.920  0.30 48.56 LIG 0.28  HD
ENDBRANCH 16 17
BRANCH 16 21
ATOM     21  CB  PHE I   1      47.668  30.543   5.644  0.30 48.65 LIG 0.08  C 
BRANCH 21 22
ATOM     22  CG  PHE I   1      47.496  30.644   4.123  0.30 49.18 LIG-0.06  A 
ATOM     23  CD1 PHE I   1      46.365  31.231   3.587  0.30 49.79 LIG 0.01  A 
ATOM     24  CE1 PHE I   1      46.190  31.314   2.214  0.30 50.05 LIG 0.00  A 
ATOM     25  CZ  PHE I   1      47.132  30.793   1.363  0.30 49.90 LIG 0.00  A 
ATOM     26  CE2 PHE I   1      48.246  30.190   1.874  0.30 49.43 LIG 0.00  A 
ATOM     27  CD2 PHE I   1      48.431  30.111   3.239  0.30 49.27 LIG 0.01  A 
ENDBRANCH 21 22
ENDBRANCH 16 21
ENDBRANCH 13 16
ENDBRANCH 11 12
BRANCH 11 28
ATOM     28  CB  LEU I   2      50.310  33.709   2.805  0.30 47.77 LIG 0.04  C 
BRANCH 28 29
ATOM     29  CG  LEU I   2      50.860  32.859   1.707  0.30 48.15 LIG-0.02  C 
ATOM     30  CD1 LEU I   2      51.819  33.565   0.812  0.30 48.48 LIG 0.01  C 
ATOM     31  CD2 LEU I   2      51.435  31.663   2.417  0.30 48.19 LIG 0.01  C 
ENDBRANCH 28 29
ENDBRANCH 11 28
ENDBRANCH 9 11
ENDBRANCH 5 7
ENDBRANCH 1 5
BRANCH 3 32
ATOM     32  CA  TYR I   4      51.933  35.337   8.778  0.30 45.17 LIG 0.18  C 
BRANCH 32 33
ATOM     33  CB  TYR I   4      53.311  35.540   8.199  0.30 45.37 LIG 0.07  C 
BRANCH 33 34
ATOM     34  CG  TYR I   4      53.522  37.021   7.910  0.30 45.37 LIG-0.06  A 
ATOM     35  CD2 TYR I   4      54.403  37.797   8.651  0.30 45.58 LIG 0.01  A 
ATOM     36  CE2 TYR I   4      54.562  39.146   8.391  0.30 45.96 LIG 0.04  A 
ATOM     37  CZ  TYR I   4      53.829  39.727   7.383  0.30 45.81 LIG 0.07  A 
ATOM     38  CE1 TYR I   4      52.947  38.976   6.634  0.30 45.70 LIG 0.04  A 
ATOM     39  CD1 TYR I   4      52.803  37.643   6.893  0.30 45.43 LIG 0.01  A 
BRANCH 37 40
ATOM     40 OH   TYR I   4      53.977  41.069   7.131  0.30 46.58 LIG-0.36  OA
ATOM     41 HH   TYR I   4      54.328  41.176   6.375  0.30 46.58 LIG 0.22  HD
ENDBRANCH 37 40
ENDBRANCH 33 34
ENDBRANCH 32 33
BRANCH 32 42
ATOM     42  C   TYR I   4      51.817  35.864  10.203  0.30 45.00 LIG 0.24  C 
ATOM     43  N   LYS I   5      52.298  34.964  11.048  0.30 44.74 LIG-0.34  N 
ATOM     44 H    LYS I   5      52.644  34.233  10.755  0.30 44.74 LIG 0.16  HD
ATOM     45 O    TYR I   4      51.435  37.003  10.490  0.30 44.60 LIG-0.27  OA
BRANCH 43 46
ATOM     46  CA  LYS I   5      52.338  35.018  12.487  0.30 44.60 LIG 0.18  C 
BRANCH 46 47
ATOM     47  CB  LYS I   5      53.237  36.219  12.805  0.30 43.50 LIG 0.04  C 
BRANCH 47 48
ATOM     48  CG  LYS I   5      54.579  36.308  12.125  0.30 39.10 LIG 0.00  C 
BRANCH 48 49
ATOM     49  CD  LYS I   5      55.643  35.824  13.091  0.30 31.49 LIG 0.03  C 
BRANCH 49 50
ATOM     50  CE  LYS I   5      55.673  34.315  13.177  0.30 26.75 LIG 0.23  C 
BRANCH 50 51
ATOM     51  NZ  LYS I   5      56.298  33.734  12.050  0.30 17.53 LIG-0.08  N 
ATOM     52 HZ1  LYS I   5      57.163  33.941  12.050  0.30 17.53 LIG 0.27  HD
ATOM     53 HZ2  LYS I   5      56.205  32.850  12.082  0.30 17.53 LIG 0.27  HD
ATOM     54 HZ3  LYS I   5      55.919  34.045  11.307  0.30 17.53 LIG 0.27  HD
ENDBRANCH 50 51
ENDBRANCH 49 50
ENDBRANCH 48 49
ENDBRANCH 47 48
ENDBRANCH 46 47
BRANCH 46 55
ATOM     55  C   LYS I   5      50.989  35.186  13.133  0.30 45.89 LIG 0.20  C 
ATOM     56 OXT  LYS I   5      50.338  36.175  12.821  1.00 48.13 LIG-0.65  OA
ATOM     57 O    LYS I   5      50.605  34.318  13.913  1.00 47.49 LIG-0.65  OA
ENDBRANCH 46 55
ENDBRANCH 43 46
ENDBRANCH 32 42
ENDBRANCH 3 32
TORSDOF 22
ENDMDL
MODEL 25
USER: ADFR SOLUTION from run 106
USER: SCORE 17.220964 LL:  -4.183 LR: -16.649 RR:   0.000 FEB: -10.087
USER: RMSD 7.228171
USER: SEED 105
USER: STATUS no improvement in best 3 clusters for 5 generations
USER: GENES 24
USER: genes 0 Translation |==|  0.48917 0.52817 0.38399
USER: genes 1 Rotation |==|  0.82812 0.32372 0.39505 0.81661
USER: genes 2 Torsion [N]-C--CA-[N] |==|  0.66929
USER: genes 3 Torsion [C]-CA--N-[C] |==|  0.39859
USER: genes 4 Torsion [N]-C--CA-[N] |==|  0.78348
USER: genes 5 Torsion [C]-CA--N-[C] |==|  0.70239
USER: genes 6 Torsion [N]-C--CA-[N] |==|  0.38203
USER: genes 7 Torsion [C]-CA--N-[H1] |==|  0.58951
USER: genes 8 Torsion [C]-CA--CB-[CG] |==|  0.34855
USER: genes 9 Torsion [CA]-CB--CG-[CD1] |==|  0.03477
USER: genes 10 Torsion [C]-CA--CB-[CG] |==|  0.28747
USER: genes 11 Torsion [CA]-CB--CG-[CD2] |==|  0.24023
USER: genes 12 Torsion [C]-N--CA-[CB] |==|  0.96110
USER: genes 13 Torsion [N]-CA--CB-[CG] |==|  0.43063
USER: genes 14 Torsion [CA]-CB--CG-[CD2] |==|  0.23515
USER: genes 15 Torsion [CE2]-CZ--OH-[HH] |==|  0.98760
USER: genes 16 Torsion [N]-CA--C-[N] |==|  0.84912
USER: genes 17 Torsion [C]-N--CA-[CB] |==|  0.16408
USER: genes 18 Torsion [N]-CA--CB-[CG] |==|  0.34937
USER: genes 19 Torsion [CA]-CB--CG-[CD] |==|  0.29261
USER: genes 20 Torsion [CB]-CG--CD-[CE] |==|  0.17362
USER: genes 21 Torsion [CG]-CD--CE-[NZ] |==|  0.13411
USER: genes 22 Torsion [CD]-CE--NZ-[HZ1] |==|  0.17263
USER: genes 23 Torsion [N]-CA--C-[OXT] |==|  0.85395
ROOT
ATOM      1  C   ALA I   3      44.735  31.035   4.820  0.30 45.63 LIG 0.24  C 
ATOM      2 O    ALA I   3      44.855  31.648   3.766  0.30 45.40 LIG-0.27  OA
ATOM      3  N   TYR I   4      45.775  30.484   5.457  0.30 45.44 LIG-0.35  N 
ATOM      4 H    TYR I   4      45.673  30.074   6.206  0.30 45.44 LIG 0.16  HD
ENDROOT
BRANCH 1 5
ATOM      5  CA  ALA I   3      43.318  30.891   5.468  0.30 46.01 LIG 0.17  C 
ATOM      6  CB  ALA I   3      43.374  30.184   6.769  0.30 45.75 LIG 0.04  C 
BRANCH 5 7
ATOM      7  N   ALA I   3      42.551  30.159   4.468  0.30 46.50 LIG-0.35  N 
ATOM      8 H    ALA I   3      42.775  30.399   3.673  0.30 46.50 LIG 0.16  HD
ATOM      9  C   LEU I   2      41.609  29.225   4.647  0.30 47.15 LIG 0.24  C 
ATOM     10 O    LEU I   2      41.213  28.792   5.734  0.30 46.92 LIG-0.27  OA
BRANCH 9 11
ATOM     11  CA  LEU I   2      40.962  28.876   3.300  0.30 47.70 LIG 0.18  C 
BRANCH 11 12
ATOM     12  N   LEU I   2      39.960  29.671   2.600  0.30 48.04 LIG-0.35  N 
ATOM     13  C   PHE I   1      38.772  29.102   2.665  0.30 48.35 LIG 0.25  C 
ATOM     14 O    PHE I   1      38.655  28.051   3.274  0.30 48.51 LIG-0.27  OA
ATOM     15 H    LEU I   2      40.194  30.405   2.218  0.30 48.04 LIG 0.16  HD
BRANCH 13 16
ATOM     16  CA  PHE I   1      37.587  29.650   1.910  0.30 48.56 LIG 0.28  C 
BRANCH 16 17
ATOM     17  N   PHE I   1      36.798  28.548   1.285  0.30 48.56 LIG-0.07  N 
ATOM     18 H3   PHE I   1      36.152  28.292   1.841  0.30 48.56 LIG 0.28  HD
ATOM     19 H1   PHE I   1      36.438  28.835   0.524  0.30 48.56 LIG 0.28  HD
ATOM     20 H2   PHE I   1      37.334  27.857   1.116  0.30 48.56 LIG 0.28  HD
ENDBRANCH 16 17
BRANCH 16 21
ATOM     21  CB  PHE I   1      36.715  30.424   2.921  0.30 48.65 LIG 0.08  C 
BRANCH 21 22
ATOM     22  CG  PHE I   1      36.411  31.875   2.527  0.30 49.18 LIG-0.06  A 
ATOM     23  CD1 PHE I   1      36.678  32.320   1.245  0.30 49.79 LIG 0.01  A 
ATOM     24  CE1 PHE I   1      36.423  33.633   0.881  0.30 50.05 LIG 0.00  A 
ATOM     25  CZ  PHE I   1      35.918  34.521   1.798  0.30 49.90 LIG 0.00  A 
ATOM     26  CE2 PHE I   1      35.668  34.106   3.075  0.30 49.43 LIG 0.00  A 
ATOM     27  CD2 PHE I   1      35.912  32.798   3.442  0.30 49.27 LIG 0.01  A 
ENDBRANCH 21 22
ENDBRANCH 16 21
ENDBRANCH 13 16
ENDBRANCH 11 12
BRANCH 11 28
ATOM     28  CB  LEU I   2      41.721  27.958   2.331  0.30 47.77 LIG 0.04  C 
BRANCH 28 29
ATOM     29  CG  LEU I   2      41.617  26.525   1.926  0.30 48.15 LIG-0.02  C 
ATOM     30  CD1 LEU I   2      41.298  25.595   3.046  0.30 48.48 LIG 0.01  C 
ATOM     31  CD2 LEU I   2      40.604  26.526   0.812  0.30 48.19 LIG 0.01  C 
ENDBRANCH 28 29
ENDBRANCH 11 28
ENDBRANCH 9 11
ENDBRANCH 5 7
ENDBRANCH 1 5
BRANCH 3 32
ATOM     32  CA  TYR I   4      47.205  30.481   5.008  0.30 45.17 LIG 0.18  C 
BRANCH 32 33
ATOM     33  CB  TYR I   4      47.424  30.878   3.569  0.30 45.37 LIG 0.07  C 
BRANCH 33 34
ATOM     34  CG  TYR I   4      48.836  31.428   3.409  0.30 45.37 LIG-0.06  A 
ATOM     35  CD2 TYR I   4      49.930  30.599   3.201  0.30 45.58 LIG 0.01  A 
ATOM     36  CE2 TYR I   4      51.208  31.115   3.084  0.30 45.96 LIG 0.04  A 
ATOM     37  CZ  TYR I   4      51.395  32.474   3.180  0.30 45.81 LIG 0.07  A 
ATOM     38  CE1 TYR I   4      50.324  33.317   3.388  0.30 45.70 LIG 0.04  A 
ATOM     39  CD1 TYR I   4      49.065  32.799   3.494  0.30 45.43 LIG 0.01  A 
BRANCH 37 40
ATOM     40 OH   TYR I   4      52.665  32.987   3.076  0.30 46.58 LIG-0.36  OA
ATOM     41 HH   TYR I   4      53.218  32.357   3.019  0.30 46.58 LIG 0.22  HD
ENDBRANCH 37 40
ENDBRANCH 33 34
ENDBRANCH 32 33
BRANCH 32 42
ATOM     42  C   TYR I   4      48.333  30.951   5.919  0.30 45.00 LIG 0.24  C 
ATOM     43  N   LYS I   5      48.068  32.173   6.358  0.30 44.74 LIG-0.34  N 
ATOM     44 H    LYS I   5      47.330  32.560   6.147  0.30 44.74 LIG 0.16  HD
ATOM     45 O    TYR I   4      49.281  30.240   6.268  0.30 44.60 LIG-0.27  OA
BRANCH 43 46
ATOM     46  CA  LYS I   5      48.879  33.019   7.194  0.30 44.60 LIG 0.18  C 
BRANCH 46 47
ATOM     47  CB  LYS I   5      50.187  33.197   6.413  0.30 43.50 LIG 0.04  C 
BRANCH 47 48
ATOM     48  CG  LYS I   5      50.667  34.598   6.133  0.30 39.10 LIG 0.00  C 
BRANCH 48 49
ATOM     49  CD  LYS I   5      51.835  34.900   7.052  0.30 31.49 LIG 0.03  C 
BRANCH 49 50
ATOM     50  CE  LYS I   5      53.003  33.977   6.791  0.30 26.75 LIG 0.23  C 
BRANCH 50 51
ATOM     51  NZ  LYS I   5      53.309  33.889   5.414  0.30 17.53 LIG-0.08  N 
ATOM     52 HZ1  LYS I   5      53.548  34.690   5.110  0.30 17.53 LIG 0.27  HD
ATOM     53 HZ2  LYS I   5      53.980  33.316   5.294  0.30 17.53 LIG 0.27  HD
ATOM     54 HZ3  LYS I   5      52.593  33.604   4.967  0.30 17.53 LIG 0.27  HD
ENDBRANCH 50 51
ENDBRANCH 49 50
ENDBRANCH 48 49
ENDBRANCH 47 48
ENDBRANCH 46 47
BRANCH 46 55
ATOM     55  C   LYS I   5      48.262  34.358   7.495  0.30 45.89 LIG 0.20  C 
ATOM     56 OXT  LYS I   5      47.879  35.026   6.543  1.00 48.13 LIG-0.65  OA
ATOM     57 O    LYS I   5      48.152  34.697   8.672  1.00 47.49 LIG-0.65  OA
ENDBRANCH 46 55
ENDBRANCH 43 46
ENDBRANCH 32 42
ENDBRANCH 3 32
TORSDOF 22
ENDMDL
