MODEL 1
USER: ADFR SOLUTION from run 106
USER: SCORE 13.997658 LL:  -1.790 LR: -13.857 RR:   0.000 FEB:  -9.382
USER: RMSD 8.811258
USER: SEED 105
USER: STATUS 1 or 2 clusters left
USER: GENES 17
USER: genes 0 Translation |==|  0.51449 0.33009 0.47818
USER: genes 1 Rotation |==|  0.79956 0.27858 0.82648 0.56817
USER: genes 2 Torsion [C]-CA--CB-[CG] |==|  0.53079
USER: genes 3 Torsion [CA]-CB--CG-[CD] |==|  0.40728
USER: genes 4 Torsion [CB]-CG--CD-[NE] |==|  0.38749
USER: genes 5 Torsion [CG]-CD--NE-[CZ] |==|  0.76135
USER: genes 6 Torsion [N]-CA--C-[N] |==|  0.66493
USER: genes 7 Torsion [C]-N--CA-[CB] |==|  0.27193
USER: genes 8 Torsion [N]-CA--C-[OXT] |==|  0.87612
USER: genes 9 Torsion [N]-CA--CB-[OG] |==|  0.82079
USER: genes 10 Torsion [CA]-CB--OG-[HG] |==|  0.82194
USER: genes 11 Torsion [CB]-CA--N-[C] |==|  0.78333
USER: genes 12 Torsion [N]-C--CA-[N] |==|  0.01158
USER: genes 13 Torsion [C]-CA--N-[C] |==|  0.19879
USER: genes 14 Torsion [N]-C--CA-[N] |==|  0.31000
USER: genes 15 Torsion [C]-CA--CB-[CG2] |==|  0.36390
USER: genes 16 Torsion [C]-CA--N-[H1] |==|  0.24194
ROOT
ATOM      1  CA  ARG B   3      53.665  36.293   7.926  0.50 45.43 LIG 0.18  C 
ENDROOT
BRANCH 1 2
ATOM      2  CB  ARG B   3      53.892  37.728   8.318  0.50 45.40 LIG 0.04  C 
BRANCH 2 3
ATOM      3  CG  ARG B   3      54.111  38.569   7.107  0.50 45.00 LIG 0.02  C 
BRANCH 3 4
ATOM      4  CD  ARG B   3      53.566  39.940   7.289  0.50 44.41 LIG 0.14  C 
BRANCH 4 5
ATOM      5  NE  ARG B   3      54.489  40.901   6.714  0.50 44.18 LIG-0.23  N 
ATOM      6  CZ  ARG B   3      55.520  41.408   7.360  0.50 43.75 LIG 0.67  C 
ATOM      7  NH1 ARG B   3      56.302  42.287   6.763  0.50 44.03 LIG-0.23  N 
ATOM      8  NH2 ARG B   3      55.775  41.036   8.605  0.50 43.85 LIG-0.23  N 
ATOM      9 12HH ARG B   3      56.975  42.619   7.183  0.50 44.03 LIG 0.17  HD
ATOM     10 11HH ARG B   3      56.138  42.529   5.954  0.50 44.03 LIG 0.17  HD
ATOM     11 22HH ARG B   3      56.449  41.369   9.024  0.50 43.85 LIG 0.17  HD
ATOM     12 21HH ARG B   3      55.268  40.462   8.995  0.50 43.85 LIG 0.17  HD
ATOM     13 HE   ARG B   3      54.356  41.156   5.903  0.50 44.18 LIG 0.18  HD
ENDBRANCH 4 5
ENDBRANCH 3 4
ENDBRANCH 2 3
ENDBRANCH 1 2
BRANCH 1 14
ATOM     14  C   ARG B   3      53.176  35.490   9.117  0.50 45.62 LIG 0.24  C 
ATOM     15  N   SER B   4      52.878  36.219  10.186  0.50 45.72 LIG-0.34  N 
ATOM     16 H    SER B   4      52.899  37.079  10.200  0.50 45.72 LIG 0.16  HD
ATOM     17 O    ARG B   3      53.057  34.265   9.068  0.50 45.72 LIG-0.27  OA
BRANCH 15 18
ATOM     18  CA  SER B   4      52.484  35.612  11.446  0.50 45.84 LIG 0.21  C 
BRANCH 18 19
ATOM     19  C   SER B   4      51.355  36.373  12.131  0.50 45.90 LIG 0.20  C 
ATOM     20 O    SER B   4      50.394  35.775  12.619  0.50 45.95 LIG-0.65  OA
ATOM     21 OXT  SER B   4      51.371  37.600  12.209  0.50 46.05 LIG-0.65  OA
ENDBRANCH 18 19
BRANCH 18 22
ATOM     22  CB  SER B   4      53.701  35.545  12.366  0.50 45.85 LIG 0.20  C 
BRANCH 22 23
ATOM     23 OG   SER B   4      54.694  34.686  11.831  0.50 45.98 LIG-0.40  OA
ATOM     24 HG   SER B   4      54.397  33.902  11.797  0.50 45.98 LIG 0.21  HD
ENDBRANCH 22 23
ENDBRANCH 18 22
ENDBRANCH 15 18
ENDBRANCH 1 14
BRANCH 1 25
ATOM     25  N   ARG B   3      52.853  36.148   6.721  0.50 45.48 LIG-0.35  N 
ATOM     26 H    ARG B   3      53.276  35.968   5.994  0.50 45.48 LIG 0.16  HD
ATOM     27  C   ALA B   2      51.541  36.306   6.847  0.50 45.44 LIG 0.24  C 
ATOM     28 O    ALA B   2      51.020  36.456   7.947  0.50 45.54 LIG-0.27  OA
BRANCH 27 29
ATOM     29  CA  ALA B   2      50.666  36.291   5.605  0.50 45.45 LIG 0.17  C 
ATOM     30  CB  ALA B   2      49.666  35.199   5.682  0.50 45.48 LIG 0.04  C 
BRANCH 29 31
ATOM     31  N   ALA B   2      51.575  35.990   4.531  0.50 45.47 LIG-0.35  N 
ATOM     32 H    ALA B   2      51.728  36.660   4.015  0.50 45.47 LIG 0.16  HD
ATOM     33  C   VAL B   1      52.123  34.802   4.350  0.50 45.44 LIG 0.25  C 
ATOM     34 O    VAL B   1      52.127  33.917   5.204  0.50 45.56 LIG-0.27  OA
BRANCH 33 35
ATOM     35  CA  VAL B   1      52.897  34.667   3.049  0.50 45.37 LIG 0.28  C 
BRANCH 35 36
ATOM     36  CB  VAL B   1      52.376  33.482   2.209  0.50 45.32 LIG 0.02  C 
ATOM     37  CG2 VAL B   1      52.115  33.890   0.750  0.50 45.23 LIG 0.01  C 
ATOM     38  CG1 VAL B   1      51.153  32.894   2.866  0.50 45.24 LIG 0.01  C 
ENDBRANCH 35 36
BRANCH 35 39
ATOM     39  N   VAL B   1      54.355  34.541   3.330  0.50 45.40 LIG-0.07  N 
ATOM     40 H3   VAL B   1      54.560  35.014   4.056  0.50 45.40 LIG 0.28  HD
ATOM     41 H1   VAL B   1      54.558  33.685   3.466  0.50 45.40 LIG 0.28  HD
ATOM     42 H2   VAL B   1      54.819  34.849   2.636  0.50 45.40 LIG 0.28  HD
ENDBRANCH 35 39
ENDBRANCH 33 35
ENDBRANCH 29 31
ENDBRANCH 27 29
ENDBRANCH 1 25
TORSDOF 15
ENDMDL
MODEL 2
USER: ADFR SOLUTION from run 10
USER: SCORE 14.117308 LL:  -1.600 LR: -13.811 RR:   0.000 FEB:  -9.336
USER: RMSD 10.102067
USER: SEED 889009
USER: STATUS no improvement in best 7 clusters for 5 generations
USER: GENES 17
USER: genes 0 Translation |==|  0.47383 0.28183 0.50841
USER: genes 1 Rotation |==|  0.59705 0.12057 0.72036 0.71922
USER: genes 2 Torsion [C]-CA--CB-[CG] |==|  0.04440
USER: genes 3 Torsion [CA]-CB--CG-[CD] |==|  0.56218
USER: genes 4 Torsion [CB]-CG--CD-[NE] |==|  0.77425
USER: genes 5 Torsion [CG]-CD--NE-[CZ] |==|  0.66503
USER: genes 6 Torsion [N]-CA--C-[N] |==|  0.35121
USER: genes 7 Torsion [C]-N--CA-[CB] |==|  0.49780
USER: genes 8 Torsion [N]-CA--C-[OXT] |==|  0.76205
USER: genes 9 Torsion [N]-CA--CB-[OG] |==|  0.93610
USER: genes 10 Torsion [CA]-CB--OG-[HG] |==|  0.06792
USER: genes 11 Torsion [CB]-CA--N-[C] |==|  0.49031
USER: genes 12 Torsion [N]-C--CA-[N] |==|  0.17944
USER: genes 13 Torsion [C]-CA--N-[C] |==|  0.14292
USER: genes 14 Torsion [N]-C--CA-[N] |==|  0.28325
USER: genes 15 Torsion [C]-CA--CB-[CG2] |==|  0.36325
USER: genes 16 Torsion [C]-CA--N-[H1] |==|  0.54122
ROOT
ATOM      1  CA  ARG B   3      52.445  34.845   8.832  0.50 45.43 LIG 0.18  C 
ENDROOT
BRANCH 1 2
ATOM      2  CB  ARG B   3      53.808  35.016   9.447  0.50 45.40 LIG 0.04  C 
BRANCH 2 3
ATOM      3  CG  ARG B   3      53.723  34.929  10.932  0.50 45.00 LIG 0.02  C 
BRANCH 3 4
ATOM      4  CD  ARG B   3      54.877  35.599  11.586  0.50 44.41 LIG 0.14  C 
BRANCH 4 5
ATOM      5  NE  ARG B   3      56.018  34.702  11.581  0.50 44.18 LIG-0.23  N 
ATOM      6  CZ  ARG B   3      56.631  34.286  12.671  0.50 43.75 LIG 0.67  C 
ATOM      7  NH1 ARG B   3      57.670  33.478  12.572  0.50 44.03 LIG-0.23  N 
ATOM      8  NH2 ARG B   3      56.207  34.674  13.864  0.50 43.85 LIG-0.23  N 
ATOM      9 12HH ARG B   3      58.072  33.206  13.282  0.50 44.03 LIG 0.17  HD
ATOM     10 11HH ARG B   3      57.945  33.225  11.798  0.50 44.03 LIG 0.17  HD
ATOM     11 22HH ARG B   3      56.610  34.401  14.572  0.50 43.85 LIG 0.17  HD
ATOM     12 21HH ARG B   3      55.530  35.199  13.929  0.50 43.85 LIG 0.17  HD
ATOM     13 HE   ARG B   3      56.311  34.424  10.821  0.50 44.18 LIG 0.18  HD
ENDBRANCH 4 5
ENDBRANCH 3 4
ENDBRANCH 2 3
ENDBRANCH 1 2
BRANCH 1 14
ATOM     14  C   ARG B   3      51.365  35.029   9.883  0.50 45.62 LIG 0.24  C 
ATOM     15  N   SER B   4      50.801  33.899  10.294  0.50 45.72 LIG-0.34  N 
ATOM     16 H    SER B   4      51.054  33.117  10.040  0.50 45.72 LIG 0.16  HD
ATOM     17 O    ARG B   3      51.066  36.142  10.316  0.50 45.72 LIG-0.27  OA
BRANCH 15 18
ATOM     18  CA  SER B   4      49.687  33.891  11.226  0.50 45.84 LIG 0.21  C 
BRANCH 18 19
ATOM     19  C   SER B   4      50.028  34.571  12.547  0.50 45.90 LIG 0.20  C 
ATOM     20 O    SER B   4      49.770  35.761  12.732  0.50 45.95 LIG-0.65  OA
ATOM     21 OXT  SER B   4      50.574  33.951  13.459  0.50 46.05 LIG-0.65  OA
ENDBRANCH 18 19
BRANCH 18 22
ATOM     22  CB  SER B   4      49.261  32.447  11.478  0.50 45.85 LIG 0.20  C 
BRANCH 22 23
ATOM     23 OG   SER B   4      49.659  31.607  10.408  0.50 45.98 LIG-0.40  OA
ATOM     24 HG   SER B   4      50.315  31.950  10.012  0.50 45.98 LIG 0.21  HD
ENDBRANCH 22 23
ENDBRANCH 18 22
ENDBRANCH 15 18
ENDBRANCH 1 14
BRANCH 1 25
ATOM     25  N   ARG B   3      52.256  35.637   7.622  0.50 45.48 LIG-0.35  N 
ATOM     26 H    ARG B   3      52.906  36.155   7.398  0.50 45.48 LIG 0.16  HD
ATOM     27  C   ALA B   2      51.107  35.495   6.972  0.50 45.44 LIG 0.24  C 
ATOM     28 O    ALA B   2      50.284  34.651   7.310  0.50 45.54 LIG-0.27  OA
BRANCH 27 29
ATOM     29  CA  ALA B   2      50.809  36.387   5.779  0.50 45.45 LIG 0.17  C 
ATOM     30  CB  ALA B   2      49.475  36.076   5.211  0.50 45.48 LIG 0.04  C 
BRANCH 29 31
ATOM     31  N   ALA B   2      51.805  36.026   4.805  0.50 45.47 LIG-0.35  N 
ATOM     32 H    ALA B   2      52.234  36.700   4.487  0.50 45.47 LIG 0.16  HD
ATOM     33  C   VAL B   1      52.042  34.781   4.430  0.50 45.44 LIG 0.25  C 
ATOM     34 O    VAL B   1      51.635  33.797   5.045  0.50 45.56 LIG-0.27  OA
BRANCH 33 35
ATOM     35  CA  VAL B   1      53.001  34.658   3.258  0.50 45.37 LIG 0.28  C 
BRANCH 35 36
ATOM     36  CB  VAL B   1      52.467  33.668   2.201  0.50 45.32 LIG 0.02  C 
ATOM     37  CG2 VAL B   1      52.518  34.265   0.786  0.50 45.23 LIG 0.01  C 
ATOM     38  CG1 VAL B   1      51.080  33.218   2.582  0.50 45.24 LIG 0.01  C 
ENDBRANCH 35 36
BRANCH 35 39
ATOM     39  N   VAL B   1      54.355  34.266   3.741  0.50 45.40 LIG-0.07  N 
ATOM     40 H3   VAL B   1      54.353  33.404   3.965  0.50 45.40 LIG 0.28  HD
ATOM     41 H1   VAL B   1      54.952  34.403   3.096  0.50 45.40 LIG 0.28  HD
ATOM     42 H2   VAL B   1      54.570  34.756   4.453  0.50 45.40 LIG 0.28  HD
ENDBRANCH 35 39
ENDBRANCH 33 35
ENDBRANCH 29 31
ENDBRANCH 27 29
ENDBRANCH 1 25
TORSDOF 15
ENDMDL
MODEL 3
USER: ADFR SOLUTION from run 6
USER: SCORE 14.505100 LL:  -1.577 LR: -13.773 RR:   0.000 FEB:  -9.299
USER: RMSD 9.779536
USER: SEED 944807
USER: STATUS no improvement in best 9 clusters for 5 generations
USER: GENES 17
USER: genes 0 Translation |==|  0.54131 0.27497 0.59885
USER: genes 1 Rotation |==|  0.47079 0.08725 0.74180 0.64254
USER: genes 2 Torsion [C]-CA--CB-[CG] |==|  0.59124
USER: genes 3 Torsion [CA]-CB--CG-[CD] |==|  0.62092
USER: genes 4 Torsion [CB]-CG--CD-[NE] |==|  0.28349
USER: genes 5 Torsion [CG]-CD--NE-[CZ] |==|  0.46076
USER: genes 6 Torsion [N]-CA--C-[N] |==|  0.29123
USER: genes 7 Torsion [C]-N--CA-[CB] |==|  0.50626
USER: genes 8 Torsion [N]-CA--C-[OXT] |==|  0.30186
USER: genes 9 Torsion [N]-CA--CB-[OG] |==|  0.87152
USER: genes 10 Torsion [CA]-CB--OG-[HG] |==|  0.29218
USER: genes 11 Torsion [CB]-CA--N-[C] |==|  0.53396
USER: genes 12 Torsion [N]-C--CA-[N] |==|  0.48889
USER: genes 13 Torsion [C]-CA--N-[C] |==|  0.80337
USER: genes 14 Torsion [N]-C--CA-[N] |==|  0.18780
USER: genes 15 Torsion [C]-CA--CB-[CG2] |==|  0.70736
USER: genes 16 Torsion [C]-CA--N-[H1] |==|  0.13932
ROOT
ATOM      1  CA  ARG B   3      54.469  34.639  11.546  0.50 45.43 LIG 0.18  C 
ENDROOT
BRANCH 1 2
ATOM      2  CB  ARG B   3      55.351  34.694  12.764  0.50 45.40 LIG 0.04  C 
BRANCH 2 3
ATOM      3  CG  ARG B   3      56.776  34.878  12.367  0.50 45.00 LIG 0.02  C 
BRANCH 3 4
ATOM      4  CD  ARG B   3      57.679  33.993  13.148  0.50 44.41 LIG 0.14  C 
BRANCH 4 5
ATOM      5  NE  ARG B   3      58.060  32.856  12.330  0.50 44.18 LIG-0.23  N 
ATOM      6  CZ  ARG B   3      59.050  32.037  12.624  0.50 43.75 LIG 0.67  C 
ATOM      7  NH1 ARG B   3      59.334  31.034  11.816  0.50 44.03 LIG-0.23  N 
ATOM      8  NH2 ARG B   3      59.757  32.216  13.729  0.50 43.85 LIG-0.23  N 
ATOM      9 12HH ARG B   3      59.980  30.498  12.006  0.50 44.03 LIG 0.17  HD
ATOM     10 11HH ARG B   3      58.875  30.916  11.099  0.50 44.03 LIG 0.17  HD
ATOM     11 22HH ARG B   3      60.402  31.680  13.918  0.50 43.85 LIG 0.17  HD
ATOM     12 21HH ARG B   3      59.572  32.868  14.258  0.50 43.85 LIG 0.17  HD
ATOM     13 HE   ARG B   3      57.613  32.707  11.610  0.50 44.18 LIG 0.18  HD
ENDBRANCH 4 5
ENDBRANCH 3 4
ENDBRANCH 2 3
ENDBRANCH 1 2
BRANCH 1 14
ATOM     14  C   ARG B   3      53.111  35.245  11.848  0.50 45.62 LIG 0.24  C 
ATOM     15  N   SER B   4      52.082  34.452  11.570  0.50 45.72 LIG-0.34  N 
ATOM     16 H    SER B   4      52.163  33.641  11.296  0.50 45.72 LIG 0.16  HD
ATOM     17 O    ARG B   3      52.997  36.373  12.328  0.50 45.72 LIG-0.27  OA
BRANCH 15 18
ATOM     18  CA  SER B   4      50.707  34.900  11.709  0.50 45.84 LIG 0.21  C 
BRANCH 18 19
ATOM     19  C   SER B   4      50.403  35.421  13.109  0.50 45.90 LIG 0.20  C 
ATOM     20 O    SER B   4      50.316  34.649  14.066  0.50 45.95 LIG-0.65  OA
ATOM     21 OXT  SER B   4      50.229  36.620  13.318  0.50 46.05 LIG-0.65  OA
ENDBRANCH 18 19
BRANCH 18 22
ATOM     22  CB  SER B   4      49.772  33.743  11.368  0.50 45.85 LIG 0.20  C 
BRANCH 22 23
ATOM     23 OG   SER B   4      50.181  33.095  10.175  0.50 45.98 LIG-0.40  OA
ATOM     24 HG   SER B   4      50.540  32.360  10.365  0.50 45.98 LIG 0.21  HD
ENDBRANCH 22 23
ENDBRANCH 18 22
ENDBRANCH 15 18
ENDBRANCH 1 14
BRANCH 1 25
ATOM     25  N   ARG B   3      55.115  35.162  10.346  0.50 45.48 LIG-0.35  N 
ATOM     26 H    ARG B   3      55.963  35.296  10.395  0.50 45.48 LIG 0.16  HD
ATOM     27  C   ALA B   2      54.345  35.387   9.287  0.50 45.44 LIG 0.24  C 
ATOM     28 O    ALA B   2      53.162  35.063   9.280  0.50 45.54 LIG-0.27  OA
BRANCH 27 29
ATOM     29  CA  ALA B   2      54.943  36.048   8.057  0.50 45.45 LIG 0.17  C 
ATOM     30  CB  ALA B   2      55.301  37.459   8.342  0.50 45.48 LIG 0.04  C 
BRANCH 29 31
ATOM     31  N   ALA B   2      53.873  36.045   7.095  0.50 45.47 LIG-0.35  N 
ATOM     32 H    ALA B   2      53.547  36.826   6.942  0.50 45.47 LIG 0.16  HD
ATOM     33  C   VAL B   1      53.428  34.952   6.501  0.50 45.44 LIG 0.25  C 
ATOM     34 O    VAL B   1      54.034  33.882   6.504  0.50 45.56 LIG-0.27  OA
BRANCH 33 35
ATOM     35  CA  VAL B   1      52.174  35.163   5.669  0.50 45.37 LIG 0.28  C 
BRANCH 35 36
ATOM     36  CB  VAL B   1      51.547  33.816   5.252  0.50 45.32 LIG 0.02  C 
ATOM     37  CG2 VAL B   1      51.802  33.505   3.768  0.50 45.23 LIG 0.01  C 
ATOM     38  CG1 VAL B   1      50.079  33.813   5.592  0.50 45.24 LIG 0.01  C 
ENDBRANCH 35 36
BRANCH 35 39
ATOM     39  N   VAL B   1      52.480  36.016   4.486  0.50 45.40 LIG-0.07  N 
ATOM     40 H3   VAL B   1      52.647  36.848   4.754  0.50 45.40 LIG 0.28  HD
ATOM     41 H1   VAL B   1      53.193  35.692   4.064  0.50 45.40 LIG 0.28  HD
ATOM     42 H2   VAL B   1      51.783  36.017   3.933  0.50 45.40 LIG 0.28  HD
ENDBRANCH 35 39
ENDBRANCH 33 35
ENDBRANCH 29 31
ENDBRANCH 27 29
ENDBRANCH 1 25
TORSDOF 15
ENDMDL
MODEL 4
USER: ADFR SOLUTION from run 100
USER: SCORE 13.961728 LL:  -1.932 LR: -13.066 RR:   0.000 FEB:  -8.591
USER: RMSD 10.583760
USER: SEED 99
USER: STATUS no improvement in best 8 clusters for 5 generations
USER: GENES 17
USER: genes 0 Translation |==|  0.37532 0.27510 0.49969
USER: genes 1 Rotation |==|  0.35350 0.39893 0.06489 0.67030
USER: genes 2 Torsion [C]-CA--CB-[CG] |==|  0.58823
USER: genes 3 Torsion [CA]-CB--CG-[CD] |==|  0.70165
USER: genes 4 Torsion [CB]-CG--CD-[NE] |==|  0.72087
USER: genes 5 Torsion [CG]-CD--NE-[CZ] |==|  0.22308
USER: genes 6 Torsion [N]-CA--C-[N] |==|  0.99533
USER: genes 7 Torsion [C]-N--CA-[CB] |==|  0.42302
USER: genes 8 Torsion [N]-CA--C-[OXT] |==|  0.05625
USER: genes 9 Torsion [N]-CA--CB-[OG] |==|  0.92243
USER: genes 10 Torsion [CA]-CB--OG-[HG] |==|  0.17391
USER: genes 11 Torsion [CB]-CA--N-[C] |==|  0.24715
USER: genes 12 Torsion [N]-C--CA-[N] |==|  0.29445
USER: genes 13 Torsion [C]-CA--N-[C] |==|  0.82760
USER: genes 14 Torsion [N]-C--CA-[N] |==|  0.00930
USER: genes 15 Torsion [C]-CA--CB-[CG2] |==|  0.52305
USER: genes 16 Torsion [C]-CA--N-[H1] |==|  0.51823
ROOT
ATOM      1  CA  ARG B   3      49.490  34.643   8.571  0.50 45.43 LIG 0.18  C 
ENDROOT
BRANCH 1 2
ATOM      2  CB  ARG B   3      48.444  34.998   7.548  0.50 45.40 LIG 0.04  C 
BRANCH 2 3
ATOM      3  CG  ARG B   3      49.057  35.102   6.193  0.50 45.00 LIG 0.02  C 
BRANCH 3 4
ATOM      4  CD  ARG B   3      49.146  36.515   5.742  0.50 44.41 LIG 0.14  C 
BRANCH 4 5
ATOM      5  NE  ARG B   3      48.058  36.793   4.822  0.50 44.18 LIG-0.23  N 
ATOM      6  CZ  ARG B   3      46.825  37.064   5.202  0.50 43.75 LIG 0.67  C 
ATOM      7  NH1 ARG B   3      45.895  37.293   4.296  0.50 44.03 LIG-0.23  N 
ATOM      8  NH2 ARG B   3      46.519  37.110   6.490  0.50 43.85 LIG-0.23  N 
ATOM      9 12HH ARG B   3      45.089  37.471   4.541  0.50 44.03 LIG 0.17  HD
ATOM     10 11HH ARG B   3      46.092  37.265   3.460  0.50 44.03 LIG 0.17  HD
ATOM     11 22HH ARG B   3      45.714  37.287   6.734  0.50 43.85 LIG 0.17  HD
ATOM     12 21HH ARG B   3      47.125  36.963   7.081  0.50 43.85 LIG 0.17  HD
ATOM     13 HE   ARG B   3      48.227  36.780   3.979  0.50 44.18 LIG 0.18  HD
ENDBRANCH 4 5
ENDBRANCH 3 4
ENDBRANCH 2 3
ENDBRANCH 1 2
BRANCH 1 14
ATOM     14  C   ARG B   3      48.881  33.806   9.681  0.50 45.62 LIG 0.24  C 
ATOM     15  N   SER B   4      49.523  32.670   9.928  0.50 45.72 LIG-0.34  N 
ATOM     16 H    SER B   4      50.256  32.441   9.541  0.50 45.72 LIG 0.16  HD
ATOM     17 O    ARG B   3      47.883  34.178  10.300  0.50 45.72 LIG-0.27  OA
BRANCH 15 18
ATOM     18  CA  SER B   4      49.029  31.703  10.892  0.50 45.84 LIG 0.21  C 
BRANCH 18 19
ATOM     19  C   SER B   4      49.480  32.015  12.315  0.50 45.90 LIG 0.20  C 
ATOM     20 O    SER B   4      49.475  31.144  13.186  0.50 45.95 LIG-0.65  OA
ATOM     21 OXT  SER B   4      49.853  33.144  12.630  0.50 46.05 LIG-0.65  OA
ENDBRANCH 18 19
BRANCH 18 22
ATOM     22  CB  SER B   4      49.509  30.311  10.488  0.50 45.85 LIG 0.20  C 
BRANCH 22 23
ATOM     23 OG   SER B   4      49.702  30.228   9.086  0.50 45.98 LIG-0.40  OA
ATOM     24 HG   SER B   4      50.304  30.766   8.854  0.50 45.98 LIG 0.21  HD
ENDBRANCH 22 23
ENDBRANCH 18 22
ENDBRANCH 15 18
ENDBRANCH 1 14
BRANCH 1 25
ATOM     25  N   ARG B   3      50.702  34.083   7.982  0.50 45.48 LIG-0.35  N 
ATOM     26 H    ARG B   3      50.727  33.227   7.900  0.50 45.48 LIG 0.16  HD
ATOM     27  C   ALA B   2      51.657  34.933   7.626  0.50 45.44 LIG 0.24  C 
ATOM     28 O    ALA B   2      51.484  36.146   7.684  0.50 45.54 LIG-0.27  OA
BRANCH 27 29
ATOM     29  CA  ALA B   2      52.987  34.395   7.126  0.50 45.45 LIG 0.17  C 
ATOM     30  CB  ALA B   2      54.114  35.171   7.698  0.50 45.48 LIG 0.04  C 
BRANCH 29 31
ATOM     31  N   ALA B   2      52.956  34.631   5.707  0.50 45.47 LIG-0.35  N 
ATOM     32 H    ALA B   2      53.575  35.163   5.435  0.50 45.47 LIG 0.16  HD
ATOM     33  C   VAL B   1      52.068  34.087   4.895  0.50 45.44 LIG 0.25  C 
ATOM     34 O    VAL B   1      51.350  33.138   5.209  0.50 45.56 LIG-0.27  OA
BRANCH 33 35
ATOM     35  CA  VAL B   1      52.113  34.625   3.475  0.50 45.37 LIG 0.28  C 
BRANCH 35 36
ATOM     36  CB  VAL B   1      52.223  33.478   2.447  0.50 45.32 LIG 0.02  C 
ATOM     37  CG2 VAL B   1      52.475  34.010   1.027  0.50 45.23 LIG 0.01  C 
ATOM     38  CG1 VAL B   1      50.993  32.610   2.522  0.50 45.24 LIG 0.01  C 
ENDBRANCH 35 36
BRANCH 35 39
ATOM     39  N   VAL B   1      53.230  35.600   3.330  0.50 45.40 LIG-0.07  N 
ATOM     40 H3   VAL B   1      54.008  35.177   3.420  0.50 45.40 LIG 0.28  HD
ATOM     41 H1   VAL B   1      53.190  35.979   2.526  0.50 45.40 LIG 0.28  HD
ATOM     42 H2   VAL B   1      53.160  36.227   3.957  0.50 45.40 LIG 0.28  HD
ENDBRANCH 35 39
ENDBRANCH 33 35
ENDBRANCH 29 31
ENDBRANCH 27 29
ENDBRANCH 1 25
TORSDOF 15
ENDMDL
MODEL 5
USER: ADFR SOLUTION from run 31
USER: SCORE 13.909133 LL:  -2.207 LR: -13.075 RR:   0.000 FEB:  -8.600
USER: RMSD 8.838944
USER: SEED 30
USER: STATUS no improvement in best 9 clusters for 5 generations
USER: GENES 17
USER: genes 0 Translation |==|  0.51072 0.35801 0.47127
USER: genes 1 Rotation |==|  0.80243 0.36395 0.85941 0.60418
USER: genes 2 Torsion [C]-CA--CB-[CG] |==|  0.19781
USER: genes 3 Torsion [CA]-CB--CG-[CD] |==|  0.12643
USER: genes 4 Torsion [CB]-CG--CD-[NE] |==|  0.70467
USER: genes 5 Torsion [CG]-CD--NE-[CZ] |==|  0.79541
USER: genes 6 Torsion [N]-CA--C-[N] |==|  0.13566
USER: genes 7 Torsion [C]-N--CA-[CB] |==|  0.82420
USER: genes 8 Torsion [N]-CA--C-[OXT] |==|  0.70018
USER: genes 9 Torsion [N]-CA--CB-[OG] |==|  0.84865
USER: genes 10 Torsion [CA]-CB--OG-[HG] |==|  0.14271
USER: genes 11 Torsion [CB]-CA--N-[C] |==|  0.79935
USER: genes 12 Torsion [N]-C--CA-[N] |==|  0.95169
USER: genes 13 Torsion [C]-CA--N-[C] |==|  0.23327
USER: genes 14 Torsion [N]-C--CA-[N] |==|  0.33605
USER: genes 15 Torsion [C]-CA--CB-[CG2] |==|  0.36096
USER: genes 16 Torsion [C]-CA--N-[H1] |==|  0.58954
ROOT
ATOM      1  CA  ARG B   3      53.552  37.130   7.718  0.50 45.43 LIG 0.18  C 
ENDROOT
BRANCH 1 2
ATOM      2  CB  ARG B   3      53.584  38.626   7.559  0.50 45.40 LIG 0.04  C 
BRANCH 2 3
ATOM      3  CG  ARG B   3      54.769  39.198   8.260  0.50 45.00 LIG 0.02  C 
BRANCH 3 4
ATOM      4  CD  ARG B   3      56.001  38.418   7.973  0.50 44.41 LIG 0.14  C 
BRANCH 4 5
ATOM      5  NE  ARG B   3      56.357  37.637   9.144  0.50 44.18 LIG-0.23  N 
ATOM      6  CZ  ARG B   3      56.879  38.151  10.240  0.50 43.75 LIG 0.67  C 
ATOM      7  NH1 ARG B   3      57.183  37.363  11.253  0.50 44.03 LIG-0.23  N 
ATOM      8  NH2 ARG B   3      57.096  39.454  10.327  0.50 43.85 LIG-0.23  N 
ATOM      9 12HH ARG B   3      57.524  37.696  11.970  0.50 44.03 LIG 0.17  HD
ATOM     10 11HH ARG B   3      57.041  36.517  11.198  0.50 44.03 LIG 0.17  HD
ATOM     11 22HH ARG B   3      57.437  39.785  11.044  0.50 43.85 LIG 0.17  HD
ATOM     12 21HH ARG B   3      56.897  39.969   9.668  0.50 43.85 LIG 0.17  HD
ATOM     13 HE   ARG B   3      56.219  36.788   9.121  0.50 44.18 LIG 0.18  HD
ENDBRANCH 4 5
ENDBRANCH 3 4
ENDBRANCH 2 3
ENDBRANCH 1 2
BRANCH 1 14
ATOM     14  C   ARG B   3      53.195  36.759   9.146  0.50 45.62 LIG 0.24  C 
ATOM     15  N   SER B   4      53.104  35.452   9.367  0.50 45.72 LIG-0.34  N 
ATOM     16 H    SER B   4      53.286  34.853   8.777  0.50 45.72 LIG 0.16  HD
ATOM     17 O    ARG B   3      53.026  37.614  10.015  0.50 45.72 LIG-0.27  OA
BRANCH 15 18
ATOM     18  CA  SER B   4      52.681  34.917  10.650  0.50 45.84 LIG 0.21  C 
BRANCH 18 19
ATOM     19  C   SER B   4      51.292  35.397  11.052  0.50 45.90 LIG 0.20  C 
ATOM     20 O    SER B   4      50.286  34.980  10.473  0.50 45.95 LIG-0.65  OA
ATOM     21 OXT  SER B   4      51.138  36.215  11.957  0.50 46.05 LIG-0.65  OA
ENDBRANCH 18 19
BRANCH 18 22
ATOM     22  CB  SER B   4      53.699  35.320  11.714  0.50 45.85 LIG 0.20  C 
BRANCH 22 23
ATOM     23 OG   SER B   4      55.008  34.920  11.341  0.50 45.98 LIG-0.40  OA
ATOM     24 HG   SER B   4      55.172  35.191  10.564  0.50 45.98 LIG 0.21  HD
ENDBRANCH 22 23
ENDBRANCH 18 22
ENDBRANCH 15 18
ENDBRANCH 1 14
BRANCH 1 25
ATOM     25  N   ARG B   3      52.752  36.461   6.698  0.50 45.48 LIG-0.35  N 
ATOM     26 H    ARG B   3      53.185  36.019   6.101  0.50 45.48 LIG 0.16  HD
ATOM     27  C   ALA B   2      51.432  36.589   6.775  0.50 45.44 LIG 0.24  C 
ATOM     28 O    ALA B   2      50.901  37.151   7.727  0.50 45.54 LIG-0.27  OA
BRANCH 27 29
ATOM     29  CA  ALA B   2      50.561  36.018   5.669  0.50 45.45 LIG 0.17  C 
ATOM     30  CB  ALA B   2      50.014  34.697   6.061  0.50 45.48 LIG 0.04  C 
BRANCH 29 31
ATOM     31  N   ALA B   2      51.467  35.818   4.569  0.50 45.47 LIG-0.35  N 
ATOM     32 H    ALA B   2      51.469  36.467   4.005  0.50 45.47 LIG 0.16  HD
ATOM     33  C   VAL B   1      52.223  34.744   4.432  0.50 45.44 LIG 0.25  C 
ATOM     34 O    VAL B   1      52.430  33.937   5.337  0.50 45.56 LIG-0.27  OA
BRANCH 33 35
ATOM     35  CA  VAL B   1      52.956  34.666   3.103  0.50 45.37 LIG 0.28  C 
BRANCH 35 36
ATOM     36  CB  VAL B   1      52.462  33.469   2.263  0.50 45.32 LIG 0.02  C 
ATOM     37  CG2 VAL B   1      52.105  33.890   0.828  0.50 45.23 LIG 0.01  C 
ATOM     38  CG1 VAL B   1      51.310  32.797   2.965  0.50 45.24 LIG 0.01  C 
ENDBRANCH 35 36
BRANCH 35 39
ATOM     39  N   VAL B   1      54.427  34.607   3.330  0.50 45.40 LIG-0.07  N 
ATOM     40 H3   VAL B   1      54.688  33.757   3.372  0.50 45.40 LIG 0.28  HD
ATOM     41 H1   VAL B   1      54.848  35.013   2.659  0.50 45.40 LIG 0.28  HD
ATOM     42 H2   VAL B   1      54.626  35.015   4.095  0.50 45.40 LIG 0.28  HD
ENDBRANCH 35 39
ENDBRANCH 33 35
ENDBRANCH 29 31
ENDBRANCH 27 29
ENDBRANCH 1 25
TORSDOF 15
ENDMDL
MODEL 6
USER: ADFR SOLUTION from run 23
USER: SCORE 13.575320 LL:  -2.057 LR: -13.026 RR:   0.000 FEB:  -8.551
USER: RMSD 9.106209
USER: SEED 22
USER: STATUS no improvement in best 3 clusters for 5 generations
USER: GENES 17
USER: genes 0 Translation |==|  0.46554 0.34277 0.48841
USER: genes 1 Rotation |==|  0.47360 0.25180 0.76953 0.83919
USER: genes 2 Torsion [C]-CA--CB-[CG] |==|  0.30537
USER: genes 3 Torsion [CA]-CB--CG-[CD] |==|  0.75622
USER: genes 4 Torsion [CB]-CG--CD-[NE] |==|  0.68610
USER: genes 5 Torsion [CG]-CD--NE-[CZ] |==|  0.60181
USER: genes 6 Torsion [N]-CA--C-[N] |==|  0.93173
USER: genes 7 Torsion [C]-N--CA-[CB] |==|  0.44497
USER: genes 8 Torsion [N]-CA--C-[OXT] |==|  0.80082
USER: genes 9 Torsion [N]-CA--CB-[OG] |==|  0.73878
USER: genes 10 Torsion [CA]-CB--OG-[HG] |==|  0.21878
USER: genes 11 Torsion [CB]-CA--N-[C] |==|  0.37633
USER: genes 12 Torsion [N]-C--CA-[N] |==|  0.12644
USER: genes 13 Torsion [C]-CA--N-[C] |==|  0.16647
USER: genes 14 Torsion [N]-C--CA-[N] |==|  0.33839
USER: genes 15 Torsion [C]-CA--CB-[CG2] |==|  0.35704
USER: genes 16 Torsion [C]-CA--N-[H1] |==|  0.62015
ROOT
ATOM      1  CA  ARG B   3      52.196  36.673   8.232  0.50 45.43 LIG 0.18  C 
ENDROOT
BRANCH 1 2
ATOM      2  CB  ARG B   3      53.687  36.482   8.318  0.50 45.40 LIG 0.04  C 
BRANCH 2 3
ATOM      3  CG  ARG B   3      54.010  35.281   9.140  0.50 45.00 LIG 0.02  C 
BRANCH 3 4
ATOM      4  CD  ARG B   3      54.111  35.618  10.583  0.50 44.41 LIG 0.14  C 
BRANCH 4 5
ATOM      5  NE  ARG B   3      55.485  35.449  11.019  0.50 44.18 LIG-0.23  N 
ATOM      6  CZ  ARG B   3      55.829  34.987  12.205  0.50 43.75 LIG 0.67  C 
ATOM      7  NH1 ARG B   3      57.105  34.878  12.522  0.50 44.03 LIG-0.23  N 
ATOM      8  NH2 ARG B   3      54.899  34.631  13.078  0.50 43.85 LIG-0.23  N 
ATOM      9 12HH ARG B   3      57.332  34.577  13.295  0.50 44.03 LIG 0.17  HD
ATOM     10 11HH ARG B   3      57.710  35.107  11.955  0.50 44.03 LIG 0.17  HD
ATOM     11 22HH ARG B   3      55.127  34.331  13.850  0.50 43.85 LIG 0.17  HD
ATOM     12 21HH ARG B   3      54.067  34.701  12.872  0.50 43.85 LIG 0.17  HD
ATOM     13 HE   ARG B   3      56.113  35.662  10.471  0.50 44.18 LIG 0.18  HD
ENDBRANCH 4 5
ENDBRANCH 3 4
ENDBRANCH 2 3
ENDBRANCH 1 2
BRANCH 1 14
ATOM     14  C   ARG B   3      51.773  37.895   9.027  0.50 45.62 LIG 0.24  C 
ATOM     15  N   SER B   4      51.469  38.954   8.285  0.50 45.72 LIG-0.34  N 
ATOM     16 H    SER B   4      51.452  38.947   7.425  0.50 45.72 LIG 0.16  HD
ATOM     17 O    ARG B   3      51.708  37.878  10.256  0.50 45.72 LIG-0.27  OA
BRANCH 15 18
ATOM     18  CA  SER B   4      51.134  40.237   8.879  0.50 45.84 LIG 0.21  C 
BRANCH 18 19
ATOM     19  C   SER B   4      49.710  40.274   9.421  0.50 45.90 LIG 0.20  C 
ATOM     20 O    SER B   4      49.494  40.271  10.634  0.50 45.95 LIG-0.65  OA
ATOM     21 OXT  SER B   4      48.741  40.300   8.663  0.50 46.05 LIG-0.65  OA
ENDBRANCH 18 19
BRANCH 18 22
ATOM     22  CB  SER B   4      51.321  41.332   7.831  0.50 45.85 LIG 0.20  C 
BRANCH 22 23
ATOM     23 OG   SER B   4      52.611  41.911   7.927  0.50 45.98 LIG-0.40  OA
ATOM     24 HG   SER B   4      53.173  41.405   7.563  0.50 45.98 LIG 0.21  HD
ENDBRANCH 22 23
ENDBRANCH 18 22
ENDBRANCH 15 18
ENDBRANCH 1 14
BRANCH 1 25
ATOM     25  N   ARG B   3      51.690  36.632   6.864  0.50 45.48 LIG-0.35  N 
ATOM     26 H    ARG B   3      52.137  37.073   6.277  0.50 45.48 LIG 0.16  HD
ATOM     27  C   ALA B   2      50.589  35.924   6.642  0.50 45.44 LIG 0.24  C 
ATOM     28 O    ALA B   2      50.081  35.241   7.526  0.50 45.54 LIG-0.27  OA
BRANCH 27 29
ATOM     29  CA  ALA B   2      49.950  35.951   5.264  0.50 45.45 LIG 0.17  C 
ATOM     30  CB  ALA B   2      49.033  34.798   5.089  0.50 45.48 LIG 0.04  C 
BRANCH 29 31
ATOM     31  N   ALA B   2      51.053  35.787   4.356  0.50 45.47 LIG-0.35  N 
ATOM     32 H    ALA B   2      51.147  36.444   3.809  0.50 45.47 LIG 0.16  HD
ATOM     33  C   VAL B   1      51.849  34.732   4.356  0.50 45.44 LIG 0.25  C 
ATOM     34 O    VAL B   1      51.899  33.918   5.276  0.50 45.56 LIG-0.27  OA
BRANCH 33 35
ATOM     35  CA  VAL B   1      52.823  34.689   3.190  0.50 45.37 LIG 0.28  C 
BRANCH 35 36
ATOM     36  CB  VAL B   1      52.516  33.506   2.249  0.50 45.32 LIG 0.02  C 
ATOM     37  CG2 VAL B   1      52.399  33.959   0.784  0.50 45.23 LIG 0.01  C 
ATOM     38  CG1 VAL B   1      51.280  32.787   2.724  0.50 45.24 LIG 0.01  C 
ENDBRANCH 35 36
BRANCH 35 39
ATOM     39  N   VAL B   1      54.224  34.640   3.694  0.50 45.40 LIG-0.07  N 
ATOM     40 H3   VAL B   1      54.539  33.811   3.618  0.50 45.40 LIG 0.28  HD
ATOM     41 H1   VAL B   1      54.731  35.194   3.216  0.50 45.40 LIG 0.28  HD
ATOM     42 H2   VAL B   1      54.242  34.886   4.549  0.50 45.40 LIG 0.28  HD
ENDBRANCH 35 39
ENDBRANCH 33 35
ENDBRANCH 29 31
ENDBRANCH 27 29
ENDBRANCH 1 25
TORSDOF 15
ENDMDL
MODEL 7
USER: ADFR SOLUTION from run 107
USER: SCORE 14.886223 LL:  -2.135 LR: -12.978 RR:   0.000 FEB:  -8.503
USER: RMSD 8.896466
USER: SEED 106
USER: STATUS no improvement in best 8 clusters for 5 generations
USER: GENES 17
USER: genes 0 Translation |==|  0.42937 0.38986 0.44962
USER: genes 1 Rotation |==|  0.20896 0.20457 0.23440 0.58643
USER: genes 2 Torsion [C]-CA--CB-[CG] |==|  0.52838
USER: genes 3 Torsion [CA]-CB--CG-[CD] |==|  0.47129
USER: genes 4 Torsion [CB]-CG--CD-[NE] |==|  0.06843
USER: genes 5 Torsion [CG]-CD--NE-[CZ] |==|  0.29919
USER: genes 6 Torsion [N]-CA--C-[N] |==|  0.41963
USER: genes 7 Torsion [C]-N--CA-[CB] |==|  0.38497
USER: genes 8 Torsion [N]-CA--C-[OXT] |==|  0.32028
USER: genes 9 Torsion [N]-CA--CB-[OG] |==|  0.94981
USER: genes 10 Torsion [CA]-CB--OG-[HG] |==|  0.86292
USER: genes 11 Torsion [CB]-CA--N-[C] |==|  0.84444
USER: genes 12 Torsion [N]-C--CA-[N] |==|  0.88651
USER: genes 13 Torsion [C]-CA--N-[C] |==|  0.81961
USER: genes 14 Torsion [N]-C--CA-[N] |==|  0.11099
USER: genes 15 Torsion [C]-CA--CB-[CG2] |==|  0.84621
USER: genes 16 Torsion [C]-CA--N-[H1] |==|  0.21993
ROOT
ATOM      1  CA  ARG B   3      51.111  38.086   7.069  0.50 45.43 LIG 0.18  C 
ENDROOT
BRANCH 1 2
ATOM      2  CB  ARG B   3      49.773  37.465   6.770  0.50 45.40 LIG 0.04  C 
BRANCH 2 3
ATOM      3  CG  ARG B   3      49.890  36.497   5.642  0.50 45.00 LIG 0.02  C 
BRANCH 3 4
ATOM      4  CD  ARG B   3      48.652  35.690   5.485  0.50 44.41 LIG 0.14  C 
BRANCH 4 5
ATOM      5  NE  ARG B   3      47.528  36.425   6.039  0.50 44.18 LIG-0.23  N 
ATOM      6  CZ  ARG B   3      46.586  36.987   5.308  0.50 43.75 LIG 0.67  C 
ATOM      7  NH1 ARG B   3      45.607  37.647   5.895  0.50 44.03 LIG-0.23  N 
ATOM      8  NH2 ARG B   3      46.619  36.890   3.988  0.50 43.85 LIG-0.23  N 
ATOM      9 12HH ARG B   3      44.991  38.015   5.421  0.50 44.03 LIG 0.17  HD
ATOM     10 11HH ARG B   3      45.584  37.710   6.753  0.50 44.03 LIG 0.17  HD
ATOM     11 22HH ARG B   3      46.003  37.258   3.515  0.50 43.85 LIG 0.17  HD
ATOM     12 21HH ARG B   3      47.256  36.459   3.604  0.50 43.85 LIG 0.17  HD
ATOM     13 HE   ARG B   3      47.474  36.497   6.894  0.50 44.18 LIG 0.18  HD
ENDBRANCH 4 5
ENDBRANCH 3 4
ENDBRANCH 2 3
ENDBRANCH 1 2
BRANCH 1 14
ATOM     14  C   ARG B   3      51.051  38.873   8.365  0.50 45.62 LIG 0.24  C 
ATOM     15  N   SER B   4      50.505  40.078   8.250  0.50 45.72 LIG-0.34  N 
ATOM     16 H    SER B   4      50.157  40.379   7.523  0.50 45.72 LIG 0.16  HD
ATOM     17 O    ARG B   3      51.466  38.407   9.426  0.50 45.72 LIG-0.27  OA
BRANCH 15 18
ATOM     18  CA  SER B   4      50.449  41.006   9.367  0.50 45.84 LIG 0.21  C 
BRANCH 18 19
ATOM     19  C   SER B   4      49.090  41.006  10.057  0.50 45.90 LIG 0.20  C 
ATOM     20 O    SER B   4      48.080  41.392   9.465  0.50 45.95 LIG-0.65  OA
ATOM     21 OXT  SER B   4      48.968  40.630  11.221  0.50 46.05 LIG-0.65  OA
ENDBRANCH 18 19
BRANCH 18 22
ATOM     22  CB  SER B   4      50.778  42.409   8.862  0.50 45.85 LIG 0.20  C 
BRANCH 22 23
ATOM     23 OG   SER B   4      51.429  42.356   7.604  0.50 45.98 LIG-0.40  OA
ATOM     24 HG   SER B   4      52.062  41.806   7.640  0.50 45.98 LIG 0.21  HD
ENDBRANCH 22 23
ENDBRANCH 18 22
ENDBRANCH 15 18
ENDBRANCH 1 14
BRANCH 1 25
ATOM     25  N   ARG B   3      52.217  37.137   6.984  0.50 45.48 LIG-0.35  N 
ATOM     26 H    ARG B   3      52.856  37.341   6.447  0.50 45.48 LIG 0.16  HD
ATOM     27  C   ALA B   2      52.144  36.046   7.738  0.50 45.44 LIG 0.24  C 
ATOM     28 O    ALA B   2      51.241  35.895   8.554  0.50 45.54 LIG-0.27  OA
BRANCH 27 29
ATOM     29  CA  ALA B   2      53.204  34.968   7.594  0.50 45.45 LIG 0.17  C 
ATOM     30  CB  ALA B   2      54.472  35.390   8.238  0.50 45.48 LIG 0.04  C 
BRANCH 29 31
ATOM     31  N   ALA B   2      53.432  34.878   6.177  0.50 45.47 LIG-0.35  N 
ATOM     32 H    ALA B   2      54.224  35.114   5.941  0.50 45.47 LIG 0.16  HD
ATOM     33  C   VAL B   1      52.517  34.473   5.314  0.50 45.44 LIG 0.25  C 
ATOM     34 O    VAL B   1      51.483  33.894   5.641  0.50 45.56 LIG-0.27  OA
BRANCH 33 35
ATOM     35  CA  VAL B   1      52.920  34.638   3.858  0.50 45.37 LIG 0.28  C 
BRANCH 35 36
ATOM     36  CB  VAL B   1      52.008  33.809   2.929  0.50 45.32 LIG 0.02  C 
ATOM     37  CG2 VAL B   1      51.987  32.325   3.330  0.50 45.23 LIG 0.01  C 
ATOM     38  CG1 VAL B   1      52.429  34.007   1.495  0.50 45.24 LIG 0.01  C 
ENDBRANCH 35 36
BRANCH 35 39
ATOM     39  N   VAL B   1      54.355  34.282   3.678  0.50 45.40 LIG-0.07  N 
ATOM     40 H3   VAL B   1      54.828  34.603   4.361  0.50 45.40 LIG 0.28  HD
ATOM     41 H1   VAL B   1      54.440  33.397   3.649  0.50 45.40 LIG 0.28  HD
ATOM     42 H2   VAL B   1      54.656  34.634   2.918  0.50 45.40 LIG 0.28  HD
ENDBRANCH 35 39
ENDBRANCH 33 35
ENDBRANCH 29 31
ENDBRANCH 27 29
ENDBRANCH 1 25
TORSDOF 15
ENDMDL
MODEL 8
USER: ADFR SOLUTION from run 6
USER: SCORE 13.790053 LL:  -2.330 LR: -12.969 RR:   0.000 FEB:  -8.495
USER: RMSD 9.065751
USER: SEED 944807
USER: STATUS no improvement in best 9 clusters for 5 generations
USER: GENES 17
USER: genes 0 Translation |==|  0.55149 0.27517 0.61000
USER: genes 1 Rotation |==|  0.45821 0.08810 0.69112 0.70510
USER: genes 2 Torsion [C]-CA--CB-[CG] |==|  0.68537
USER: genes 3 Torsion [CA]-CB--CG-[CD] |==|  0.58076
USER: genes 4 Torsion [CB]-CG--CD-[NE] |==|  0.18213
USER: genes 5 Torsion [CG]-CD--NE-[CZ] |==|  0.50380
USER: genes 6 Torsion [N]-CA--C-[N] |==|  0.88297
USER: genes 7 Torsion [C]-N--CA-[CB] |==|  0.48627
USER: genes 8 Torsion [N]-CA--C-[OXT] |==|  0.28180
USER: genes 9 Torsion [N]-CA--CB-[OG] |==|  0.10468
USER: genes 10 Torsion [CA]-CB--OG-[HG] |==|  0.16272
USER: genes 11 Torsion [CB]-CA--N-[C] |==|  0.48721
USER: genes 12 Torsion [N]-C--CA-[N] |==|  0.48280
USER: genes 13 Torsion [C]-CA--N-[C] |==|  0.79111
USER: genes 14 Torsion [N]-C--CA-[N] |==|  0.23911
USER: genes 15 Torsion [C]-CA--CB-[CG2] |==|  0.64978
USER: genes 16 Torsion [C]-CA--N-[H1] |==|  0.14034
ROOT
ATOM      1  CA  ARG B   3      54.775  34.645  11.880  0.50 45.43 LIG 0.18  C 
ENDROOT
BRANCH 1 2
ATOM      2  CB  ARG B   3      55.818  34.296  12.907  0.50 45.40 LIG 0.04  C 
BRANCH 2 3
ATOM      3  CG  ARG B   3      57.098  34.999  12.606  0.50 45.00 LIG 0.02  C 
BRANCH 3 4
ATOM      4  CD  ARG B   3      58.272  34.225  13.089  0.50 44.41 LIG 0.14  C 
BRANCH 4 5
ATOM      5  NE  ARG B   3      58.367  32.985  12.341  0.50 44.18 LIG-0.23  N 
ATOM      6  CZ  ARG B   3      59.291  32.068  12.553  0.50 43.75 LIG 0.67  C 
ATOM      7  NH1 ARG B   3      59.310  30.973  11.816  0.50 44.03 LIG-0.23  N 
ATOM      8  NH2 ARG B   3      60.196  32.240  13.503  0.50 43.85 LIG-0.23  N 
ATOM      9 12HH ARG B   3      59.911  30.373  11.953  0.50 44.03 LIG 0.17  HD
ATOM     10 11HH ARG B   3      58.721  30.860  11.200  0.50 44.03 LIG 0.17  HD
ATOM     11 22HH ARG B   3      60.797  31.640  13.638  0.50 43.85 LIG 0.17  HD
ATOM     12 21HH ARG B   3      60.184  32.952  13.985  0.50 43.85 LIG 0.17  HD
ATOM     13 HE   ARG B   3      57.787  32.839  11.723  0.50 44.18 LIG 0.18  HD
ENDBRANCH 4 5
ENDBRANCH 3 4
ENDBRANCH 2 3
ENDBRANCH 1 2
BRANCH 1 14
ATOM     14  C   ARG B   3      53.655  35.449  12.516  0.50 45.62 LIG 0.24  C 
ATOM     15  N   SER B   4      53.869  36.759  12.548  0.50 45.72 LIG-0.34  N 
ATOM     16 H    SER B   4      54.552  37.141  12.191  0.50 45.72 LIG 0.16  HD
ATOM     17 O    ARG B   3      52.634  34.910  12.945  0.50 45.72 LIG-0.27  OA
BRANCH 15 18
ATOM     18  CA  SER B   4      52.948  37.672  13.203  0.50 45.84 LIG 0.21  C 
BRANCH 18 19
ATOM     19  C   SER B   4      51.569  37.672  12.555  0.50 45.90 LIG 0.20  C 
ATOM     20 O    SER B   4      51.359  38.294  11.512  0.50 45.95 LIG-0.65  OA
ATOM     21 OXT  SER B   4      50.630  37.058  13.059  0.50 46.05 LIG-0.65  OA
ENDBRANCH 18 19
BRANCH 18 22
ATOM     22  CB  SER B   4      53.539  39.080  13.170  0.50 45.85 LIG 0.20  C 
BRANCH 22 23
ATOM     23 OG   SER B   4      54.209  39.320  11.944  0.50 45.98 LIG-0.40  OA
ATOM     24 HG   SER B   4      53.672  39.221  11.307  0.50 45.98 LIG 0.21  HD
ENDBRANCH 22 23
ENDBRANCH 18 22
ENDBRANCH 15 18
ENDBRANCH 1 14
BRANCH 1 25
ATOM     25  N   ARG B   3      55.335  35.236  10.669  0.50 45.48 LIG-0.35  N 
ATOM     26 H    ARG B   3      56.182  35.387  10.673  0.50 45.48 LIG 0.16  HD
ATOM     27  C   ALA B   2      54.498  35.490   9.670  0.50 45.44 LIG 0.24  C 
ATOM     28 O    ALA B   2      53.324  35.140   9.718  0.50 45.54 LIG-0.27  OA
BRANCH 27 29
ATOM     29  CA  ALA B   2      55.007  36.220   8.438  0.50 45.45 LIG 0.17  C 
ATOM     30  CB  ALA B   2      55.303  37.638   8.754  0.50 45.48 LIG 0.04  C 
BRANCH 29 31
ATOM     31  N   ALA B   2      53.898  36.189   7.522  0.50 45.47 LIG-0.35  N 
ATOM     32 H    ALA B   2      53.488  36.942   7.454  0.50 45.47 LIG 0.16  HD
ATOM     33  C   VAL B   1      53.537  35.111   6.848  0.50 45.44 LIG 0.25  C 
ATOM     34 O    VAL B   1      54.247  34.114   6.729  0.50 45.56 LIG-0.27  OA
BRANCH 33 35
ATOM     35  CA  VAL B   1      52.230  35.262   6.088  0.50 45.37 LIG 0.28  C 
BRANCH 35 36
ATOM     36  CB  VAL B   1      51.491  33.912   5.973  0.50 45.32 LIG 0.02  C 
ATOM     37  CG2 VAL B   1      51.150  33.573   4.514  0.50 45.23 LIG 0.01  C 
ATOM     38  CG1 VAL B   1      50.271  33.924   6.858  0.50 45.24 LIG 0.01  C 
ENDBRANCH 35 36
BRANCH 35 39
ATOM     39  N   VAL B   1      52.480  35.866   4.749  0.50 45.40 LIG-0.07  N 
ATOM     40 H3   VAL B   1      52.723  36.717   4.848  0.50 45.40 LIG 0.28  HD
ATOM     41 H1   VAL B   1      53.130  35.418   4.339  0.50 45.40 LIG 0.28  HD
ATOM     42 H2   VAL B   1      51.737  35.825   4.261  0.50 45.40 LIG 0.28  HD
ENDBRANCH 35 39
ENDBRANCH 33 35
ENDBRANCH 29 31
ENDBRANCH 27 29
ENDBRANCH 1 25
TORSDOF 15
ENDMDL
MODEL 9
USER: ADFR SOLUTION from run 18
USER: SCORE 13.662307 LL:  -2.144 LR: -12.942 RR:   0.000 FEB:  -8.467
USER: RMSD 9.114401
USER: SEED 17
USER: STATUS no improvement in best 6 clusters for 5 generations
USER: GENES 17
USER: genes 0 Translation |==|  0.54949 0.32685 0.53237
USER: genes 1 Rotation |==|  0.81550 0.24379 0.76345 0.62412
USER: genes 2 Torsion [C]-CA--CB-[CG] |==|  0.50871
USER: genes 3 Torsion [CA]-CB--CG-[CD] |==|  0.81443
USER: genes 4 Torsion [CB]-CG--CD-[NE] |==|  0.75777
USER: genes 5 Torsion [CG]-CD--NE-[CZ] |==|  0.55281
USER: genes 6 Torsion [N]-CA--C-[N] |==|  0.90056
USER: genes 7 Torsion [C]-N--CA-[CB] |==|  0.18276
USER: genes 8 Torsion [N]-CA--C-[OXT] |==|  0.40716
USER: genes 9 Torsion [N]-CA--CB-[OG] |==|  0.74832
USER: genes 10 Torsion [CA]-CB--OG-[HG] |==|  0.00286
USER: genes 11 Torsion [CB]-CA--N-[C] |==|  0.38782
USER: genes 12 Torsion [N]-C--CA-[N] |==|  0.41593
USER: genes 13 Torsion [C]-CA--N-[C] |==|  0.53334
USER: genes 14 Torsion [N]-C--CA-[N] |==|  0.96093
USER: genes 15 Torsion [C]-CA--CB-[CG2] |==|  0.31603
USER: genes 16 Torsion [C]-CA--N-[H1] |==|  0.61231
ROOT
ATOM      1  CA  ARG B   3      54.715  36.195   9.551  0.50 45.43 LIG 0.18  C 
ENDROOT
BRANCH 1 2
ATOM      2  CB  ARG B   3      55.377  37.494   9.928  0.50 45.40 LIG 0.04  C 
BRANCH 2 3
ATOM      3  CG  ARG B   3      55.645  38.312   8.711  0.50 45.00 LIG 0.02  C 
BRANCH 3 4
ATOM      4  CD  ARG B   3      56.664  37.674   7.838  0.50 44.41 LIG 0.14  C 
BRANCH 4 5
ATOM      5  NE  ARG B   3      57.988  38.087   8.268  0.50 44.18 LIG-0.23  N 
ATOM      6  CZ  ARG B   3      59.066  38.002   7.514  0.50 43.75 LIG 0.67  C 
ATOM      7  NH1 ARG B   3      60.233  38.390   7.991  0.50 44.03 LIG-0.23  N 
ATOM      8  NH2 ARG B   3      58.981  37.531   6.279  0.50 43.85 LIG-0.23  N 
ATOM      9 12HH ARG B   3      60.938  38.336   7.501  0.50 44.03 LIG 0.17  HD
ATOM     10 11HH ARG B   3      60.289  38.697   8.792  0.50 44.03 LIG 0.17  HD
ATOM     11 22HH ARG B   3      59.686  37.477   5.791  0.50 43.85 LIG 0.17  HD
ATOM     12 21HH ARG B   3      58.221  37.279   5.966  0.50 43.85 LIG 0.17  HD
ATOM     13 HE   ARG B   3      58.074  38.406   9.062  0.50 44.18 LIG 0.18  HD
ENDBRANCH 4 5
ENDBRANCH 3 4
ENDBRANCH 2 3
ENDBRANCH 1 2
BRANCH 1 14
ATOM     14  C   ARG B   3      54.372  35.397  10.795  0.50 45.62 LIG 0.24  C 
ATOM     15  N   SER B   4      53.140  35.592  11.252  0.50 45.72 LIG-0.34  N 
ATOM     16 H    SER B   4      52.555  36.081  10.854  0.50 45.72 LIG 0.16  HD
ATOM     17 O    ARG B   3      55.180  34.624  11.312  0.50 45.72 LIG-0.27  OA
BRANCH 15 18
ATOM     18  CA  SER B   4      52.671  34.982  12.484  0.50 45.84 LIG 0.21  C 
BRANCH 18 19
ATOM     19  C   SER B   4      51.177  35.189  12.705  0.50 45.90 LIG 0.20  C 
ATOM     20 O    SER B   4      50.620  36.223  12.332  0.50 45.95 LIG-0.65  OA
ATOM     21 OXT  SER B   4      50.493  34.335  13.265  0.50 46.05 LIG-0.65  OA
ENDBRANCH 18 19
BRANCH 18 22
ATOM     22  CB  SER B   4      53.457  35.566  13.656  0.50 45.85 LIG 0.20  C 
BRANCH 22 23
ATOM     23 OG   SER B   4      54.615  34.793  13.924  0.50 45.98 LIG-0.40  OA
ATOM     24 HG   SER B   4      54.663  34.160  13.375  0.50 45.98 LIG 0.21  HD
ENDBRANCH 22 23
ENDBRANCH 18 22
ENDBRANCH 15 18
ENDBRANCH 1 14
BRANCH 1 25
ATOM     25  N   ARG B   3      53.609  36.365   8.614  0.50 45.48 LIG-0.35  N 
ATOM     26 H    ARG B   3      53.093  37.039   8.748  0.50 45.48 LIG 0.16  HD
ATOM     27  C   ALA B   2      53.493  35.471   7.639  0.50 45.44 LIG 0.24  C 
ATOM     28 O    ALA B   2      54.343  34.604   7.465  0.50 45.54 LIG-0.27  OA
BRANCH 27 29
ATOM     29  CA  ALA B   2      52.290  35.528   6.713  0.50 45.45 LIG 0.17  C 
ATOM     30  CB  ALA B   2      51.214  34.628   7.195  0.50 45.48 LIG 0.04  C 
BRANCH 29 31
ATOM     31  N   ALA B   2      52.777  35.012   5.462  0.50 45.47 LIG-0.35  N 
ATOM     32 H    ALA B   2      53.548  34.637   5.524  0.50 45.47 LIG 0.16  HD
ATOM     33  C   VAL B   1      52.110  35.102   4.325  0.50 45.44 LIG 0.25  C 
ATOM     34 O    VAL B   1      50.917  35.393   4.257  0.50 45.56 LIG-0.27  OA
BRANCH 33 35
ATOM     35  CA  VAL B   1      52.900  34.657   3.105  0.50 45.37 LIG 0.28  C 
BRANCH 35 36
ATOM     36  CB  VAL B   1      52.345  33.335   2.533  0.50 45.32 LIG 0.02  C 
ATOM     37  CG2 VAL B   1      51.730  33.532   1.138  0.50 45.23 LIG 0.01  C 
ATOM     38  CG1 VAL B   1      51.368  32.730   3.508  0.50 45.24 LIG 0.01  C 
ENDBRANCH 35 36
BRANCH 35 39
ATOM     39  N   VAL B   1      54.347  34.544   3.442  0.50 45.40 LIG-0.07  N 
ATOM     40 H3   VAL B   1      54.554  33.690   3.583  0.50 45.40 LIG 0.28  HD
ATOM     41 H1   VAL B   1      54.834  34.860   2.768  0.50 45.40 LIG 0.28  HD
ATOM     42 H2   VAL B   1      54.518  35.015   4.178  0.50 45.40 LIG 0.28  HD
ENDBRANCH 35 39
ENDBRANCH 33 35
ENDBRANCH 29 31
ENDBRANCH 27 29
ENDBRANCH 1 25
TORSDOF 15
ENDMDL
MODEL 10
USER: ADFR SOLUTION from run 157
USER: SCORE 14.358017 LL:  -1.903 LR: -12.887 RR:   0.000 FEB:  -8.413
USER: RMSD 13.074925
USER: SEED 156
USER: STATUS no improvement in best 4 clusters for 5 generations
USER: GENES 17
USER: genes 0 Translation |==|  0.71684 0.22694 0.65657
USER: genes 1 Rotation |==|  0.16051 0.33786 0.18559 0.59800
USER: genes 2 Torsion [C]-CA--CB-[CG] |==|  0.18617
USER: genes 3 Torsion [CA]-CB--CG-[CD] |==|  0.50037
USER: genes 4 Torsion [CB]-CG--CD-[NE] |==|  0.76549
USER: genes 5 Torsion [CG]-CD--NE-[CZ] |==|  0.45435
USER: genes 6 Torsion [N]-CA--C-[N] |==|  0.10992
USER: genes 7 Torsion [C]-N--CA-[CB] |==|  0.33519
USER: genes 8 Torsion [N]-CA--C-[OXT] |==|  0.98655
USER: genes 9 Torsion [N]-CA--CB-[OG] |==|  0.17925
USER: genes 10 Torsion [CA]-CB--OG-[HG] |==|  0.63151
USER: genes 11 Torsion [CB]-CA--N-[C] |==|  0.17063
USER: genes 12 Torsion [N]-C--CA-[N] |==|  0.35000
USER: genes 13 Torsion [C]-CA--N-[C] |==|  0.60259
USER: genes 14 Torsion [N]-C--CA-[N] |==|  0.47386
USER: genes 15 Torsion [C]-CA--CB-[CG2] |==|  0.89684
USER: genes 16 Torsion [C]-CA--N-[H1] |==|  0.21293
ROOT
ATOM      1  CA  ARG B   3      59.735  33.198  13.277  0.50 45.43 LIG 0.18  C 
ENDROOT
BRANCH 1 2
ATOM      2  CB  ARG B   3      58.255  33.328  13.039  0.50 45.40 LIG 0.04  C 
BRANCH 2 3
ATOM      3  CG  ARG B   3      57.803  34.720  13.323  0.50 45.00 LIG 0.02  C 
BRANCH 3 4
ATOM      4  CD  ARG B   3      56.343  34.876  13.099  0.50 44.41 LIG 0.14  C 
BRANCH 4 5
ATOM      5  NE  ARG B   3      56.100  35.141  11.692  0.50 44.18 LIG-0.23  N 
ATOM      6  CZ  ARG B   3      54.922  35.021  11.114  0.50 43.75 LIG 0.67  C 
ATOM      7  NH1 ARG B   3      54.795  35.270   9.825  0.50 44.03 LIG-0.23  N 
ATOM      8  NH2 ARG B   3      53.865  34.653  11.822  0.50 43.85 LIG-0.23  N 
ATOM      9 12HH ARG B   3      54.027  35.193   9.445  0.50 44.03 LIG 0.17  HD
ATOM     10 11HH ARG B   3      55.480  35.510   9.364  0.50 44.03 LIG 0.17  HD
ATOM     11 22HH ARG B   3      53.098  34.576  11.442  0.50 43.85 LIG 0.17  HD
ATOM     12 21HH ARG B   3      53.946  34.492  12.663  0.50 43.85 LIG 0.17  HD
ATOM     13 HE   ARG B   3      56.765  35.390  11.207  0.50 44.18 LIG 0.18  HD
ENDBRANCH 4 5
ENDBRANCH 3 4
ENDBRANCH 2 3
ENDBRANCH 1 2
BRANCH 1 14
ATOM     14  C   ARG B   3      60.049  33.359  14.753  0.50 45.62 LIG 0.24  C 
ATOM     15  N   SER B   4      61.291  33.030  15.090  0.50 45.72 LIG-0.34  N 
ATOM     16 H    SER B   4      61.895  32.799  14.523  0.50 45.72 LIG 0.16  HD
ATOM     17 O    ARG B   3      59.211  33.778  15.552  0.50 45.72 LIG-0.27  OA
BRANCH 15 18
ATOM     18  CA  SER B   4      61.739  33.033  16.472  0.50 45.84 LIG 0.21  C 
BRANCH 18 19
ATOM     19  C   SER B   4      62.853  34.044  16.721  0.50 45.90 LIG 0.20  C 
ATOM     20 O    SER B   4      63.283  34.244  17.858  0.50 45.95 LIG-0.65  OA
ATOM     21 OXT  SER B   4      63.345  34.689  15.796  0.50 46.05 LIG-0.65  OA
ENDBRANCH 18 19
BRANCH 18 22
ATOM     22  CB  SER B   4      62.216  31.630  16.842  0.50 45.85 LIG 0.20  C 
BRANCH 22 23
ATOM     23 OG   SER B   4      63.355  31.265  16.080  0.50 45.98 LIG-0.40  OA
ATOM     24 HG   SER B   4      63.248  30.493  15.769  0.50 45.98 LIG 0.21  HD
ENDBRANCH 22 23
ENDBRANCH 18 22
ENDBRANCH 15 18
ENDBRANCH 1 14
BRANCH 1 25
ATOM     25  N   ARG B   3      60.315  32.011  12.658  0.50 45.48 LIG-0.35  N 
ATOM     26 H    ARG B   3      60.677  31.440  13.190  0.50 45.48 LIG 0.16  HD
ATOM     27  C   ALA B   2      60.237  31.911  11.337  0.50 45.44 LIG 0.24  C 
ATOM     28 O    ALA B   2      59.605  32.726  10.673  0.50 45.54 LIG-0.27  OA
BRANCH 27 29
ATOM     29  CA  ALA B   2      60.933  30.760  10.632  0.50 45.45 LIG 0.17  C 
ATOM     30  CB  ALA B   2      61.974  31.265   9.705  0.50 45.48 LIG 0.04  C 
BRANCH 29 31
ATOM     31  N   ALA B   2      59.898  30.142   9.847  0.50 45.47 LIG-0.35  N 
ATOM     32 H    ALA B   2      59.341  30.705   9.511  0.50 45.47 LIG 0.16  HD
ATOM     33  C   VAL B   1      59.804  28.838   9.658  0.50 45.44 LIG 0.25  C 
ATOM     34 O    VAL B   1      60.714  28.048   9.903  0.50 45.56 LIG-0.27  OA
BRANCH 33 35
ATOM     35  CA  VAL B   1      58.529  28.402   8.955  0.50 45.37 LIG 0.28  C 
BRANCH 35 36
ATOM     36  CB  VAL B   1      57.286  28.694   9.823  0.50 45.32 LIG 0.02  C 
ATOM     37  CG2 VAL B   1      57.565  28.454  11.315  0.50 45.23 LIG 0.01  C 
ATOM     38  CG1 VAL B   1      56.117  27.884   9.323  0.50 45.24 LIG 0.01  C 
ENDBRANCH 35 36
BRANCH 35 39
ATOM     39  N   VAL B   1      58.613  26.962   8.584  0.50 45.40 LIG-0.07  N 
ATOM     40 H3   VAL B   1      59.418  26.789   8.246  0.50 45.40 LIG 0.28  HD
ATOM     41 H1   VAL B   1      58.480  26.461   9.307  0.50 45.40 LIG 0.28  HD
ATOM     42 H2   VAL B   1      57.991  26.775   7.975  0.50 45.40 LIG 0.28  HD
ENDBRANCH 35 39
ENDBRANCH 33 35
ENDBRANCH 29 31
ENDBRANCH 27 29
ENDBRANCH 1 25
TORSDOF 15
ENDMDL
MODEL 11
USER: ADFR SOLUTION from run 72
USER: SCORE 13.589368 LL:  -1.550 LR: -12.855 RR:   0.000 FEB:  -8.380
USER: RMSD 9.225186
USER: SEED 71
USER: STATUS no improvement in best 7 clusters for 5 generations
USER: GENES 17
USER: genes 0 Translation |==|  0.48890 0.28789 0.50130
USER: genes 1 Rotation |==|  0.61505 0.16200 0.73349 0.76077
USER: genes 2 Torsion [C]-CA--CB-[CG] |==|  0.64526
USER: genes 3 Torsion [CA]-CB--CG-[CD] |==|  0.24923
USER: genes 4 Torsion [CB]-CG--CD-[NE] |==|  0.61536
USER: genes 5 Torsion [CG]-CD--NE-[CZ] |==|  0.53544
USER: genes 6 Torsion [N]-CA--C-[N] |==|  0.38256
USER: genes 7 Torsion [C]-N--CA-[CB] |==|  0.83262
USER: genes 8 Torsion [N]-CA--C-[OXT] |==|  0.07596
USER: genes 9 Torsion [N]-CA--CB-[OG] |==|  0.25852
USER: genes 10 Torsion [CA]-CB--OG-[HG] |==|  0.10397
USER: genes 11 Torsion [CB]-CA--N-[C] |==|  0.51313
USER: genes 12 Torsion [N]-C--CA-[N] |==|  0.12323
USER: genes 13 Torsion [C]-CA--N-[C] |==|  0.14244
USER: genes 14 Torsion [N]-C--CA-[N] |==|  0.32084
USER: genes 15 Torsion [C]-CA--CB-[CG2] |==|  0.81334
USER: genes 16 Torsion [C]-CA--N-[H1] |==|  0.56033
ROOT
ATOM      1  CA  ARG B   3      52.897  35.027   8.619  0.50 45.43 LIG 0.18  C 
ENDROOT
BRANCH 1 2
ATOM      2  CB  ARG B   3      54.351  35.301   8.895  0.50 45.40 LIG 0.04  C 
BRANCH 2 3
ATOM      3  CG  ARG B   3      54.912  36.217   7.861  0.50 45.00 LIG 0.02  C 
BRANCH 3 4
ATOM      4  CD  ARG B   3      54.759  37.642   8.254  0.50 44.41 LIG 0.14  C 
BRANCH 4 5
ATOM      5  NE  ARG B   3      54.358  38.417   7.094  0.50 44.18 LIG-0.23  N 
ATOM      6  CZ  ARG B   3      54.374  39.735   7.049  0.50 43.75 LIG 0.67  C 
ATOM      7  NH1 ARG B   3      53.980  40.359   5.955  0.50 44.03 LIG-0.23  N 
ATOM      8  NH2 ARG B   3      54.785  40.433   8.096  0.50 43.85 LIG-0.23  N 
ATOM      9 12HH ARG B   3      53.990  41.218   5.923  0.50 44.03 LIG 0.17  HD
ATOM     10 11HH ARG B   3      53.714  39.906   5.274  0.50 44.03 LIG 0.17  HD
ATOM     11 22HH ARG B   3      54.794  41.292   8.063  0.50 43.85 LIG 0.17  HD
ATOM     12 21HH ARG B   3      55.043  40.028   8.809  0.50 43.85 LIG 0.17  HD
ATOM     13 HE   ARG B   3      54.095  37.992   6.394  0.50 44.18 LIG 0.18  HD
ENDBRANCH 4 5
ENDBRANCH 3 4
ENDBRANCH 2 3
ENDBRANCH 1 2
BRANCH 1 14
ATOM     14  C   ARG B   3      52.063  35.306   9.856  0.50 45.62 LIG 0.24  C 
ATOM     15  N   SER B   4      51.855  34.247  10.629  0.50 45.72 LIG-0.34  N 
ATOM     16 H    SER B   4      52.205  33.474  10.486  0.50 45.72 LIG 0.16  HD
ATOM     17 O    ARG B   3      51.638  36.434  10.109  0.50 45.72 LIG-0.27  OA
BRANCH 15 18
ATOM     18  CA  SER B   4      51.002  34.308  11.803  0.50 45.84 LIG 0.21  C 
BRANCH 18 19
ATOM     19  C   SER B   4      49.559  34.658  11.458  0.50 45.90 LIG 0.20  C 
ATOM     20 O    SER B   4      48.832  35.222  12.277  0.50 45.95 LIG-0.65  OA
ATOM     21 OXT  SER B   4      49.083  34.380  10.359  0.50 46.05 LIG-0.65  OA
ENDBRANCH 18 19
BRANCH 18 22
ATOM     22  CB  SER B   4      51.570  35.339  12.775  0.50 45.85 LIG 0.20  C 
BRANCH 22 23
ATOM     23 OG   SER B   4      50.980  36.611  12.567  0.50 45.98 LIG-0.40  OA
ATOM     24 HG   SER B   4      50.167  36.515  12.379  0.50 45.98 LIG 0.21  HD
ENDBRANCH 22 23
ENDBRANCH 18 22
ENDBRANCH 15 18
ENDBRANCH 1 14
BRANCH 1 25
ATOM     25  N   ARG B   3      52.412  35.668   7.401  0.50 45.48 LIG-0.35  N 
ATOM     26 H    ARG B   3      52.998  36.081   6.927  0.50 45.48 LIG 0.16  HD
ATOM     27  C   ALA B   2      51.117  35.561   7.129  0.50 45.44 LIG 0.24  C 
ATOM     28 O    ALA B   2      50.378  34.859   7.811  0.50 45.54 LIG-0.27  OA
BRANCH 27 29
ATOM     29  CA  ALA B   2      50.539  36.314   5.943  0.50 45.45 LIG 0.17  C 
ATOM     30  CB  ALA B   2      49.245  35.723   5.526  0.50 45.48 LIG 0.04  C 
BRANCH 29 31
ATOM     31  N   ALA B   2      51.490  36.097   4.885  0.50 45.47 LIG-0.35  N 
ATOM     32 H    ALA B   2      51.745  36.823   4.500  0.50 45.47 LIG 0.16  HD
ATOM     33  C   VAL B   1      51.932  34.903   4.533  0.50 45.44 LIG 0.25  C 
ATOM     34 O    VAL B   1      51.788  33.895   5.222  0.50 45.56 LIG-0.27  OA
BRANCH 33 35
ATOM     35  CA  VAL B   1      52.782  34.901   3.273  0.50 45.37 LIG 0.28  C 
BRANCH 35 36
ATOM     36  CB  VAL B   1      52.157  34.009   2.180  0.50 45.32 LIG 0.02  C 
ATOM     37  CG2 VAL B   1      52.184  32.523   2.574  0.50 45.23 LIG 0.01  C 
ATOM     38  CG1 VAL B   1      52.845  34.263   0.863  0.50 45.24 LIG 0.01  C 
ENDBRANCH 35 36
BRANCH 35 39
ATOM     39  N   VAL B   1      54.175  34.483   3.594  0.50 45.40 LIG-0.07  N 
ATOM     40 H3   VAL B   1      54.216  33.594   3.636  0.50 45.40 LIG 0.28  HD
ATOM     41 H1   VAL B   1      54.726  34.775   2.959  0.50 45.40 LIG 0.28  HD
ATOM     42 H2   VAL B   1      54.416  34.827   4.378  0.50 45.40 LIG 0.28  HD
ENDBRANCH 35 39
ENDBRANCH 33 35
ENDBRANCH 29 31
ENDBRANCH 27 29
ENDBRANCH 1 25
TORSDOF 15
ENDMDL
MODEL 12
USER: ADFR SOLUTION from run 83
USER: SCORE 13.278926 LL:  -1.444 LR: -12.804 RR:   0.000 FEB:  -8.329
USER: RMSD 8.661207
USER: SEED 82
USER: STATUS no improvement in best 6 clusters for 5 generations
USER: GENES 17
USER: genes 0 Translation |==|  0.54404 0.32173 0.48441
USER: genes 1 Rotation |==|  0.80116 0.27170 0.80315 0.62364
USER: genes 2 Torsion [C]-CA--CB-[CG] |==|  0.33728
USER: genes 3 Torsion [CA]-CB--CG-[CD] |==|  0.53295
USER: genes 4 Torsion [CB]-CG--CD-[NE] |==|  0.47528
USER: genes 5 Torsion [CG]-CD--NE-[CZ] |==|  0.67896
USER: genes 6 Torsion [N]-CA--C-[N] |==|  0.48311
USER: genes 7 Torsion [C]-N--CA-[CB] |==|  0.49113
USER: genes 8 Torsion [N]-CA--C-[OXT] |==|  0.37026
USER: genes 9 Torsion [N]-CA--CB-[OG] |==|  0.07941
USER: genes 10 Torsion [CA]-CB--OG-[HG] |==|  0.85389
USER: genes 11 Torsion [CB]-CA--N-[C] |==|  0.81648
USER: genes 12 Torsion [N]-C--CA-[N] |==|  0.96876
USER: genes 13 Torsion [C]-CA--N-[C] |==|  0.22716
USER: genes 14 Torsion [N]-C--CA-[N] |==|  0.26865
USER: genes 15 Torsion [C]-CA--CB-[CG2] |==|  0.40160
USER: genes 16 Torsion [C]-CA--N-[H1] |==|  0.58146
ROOT
ATOM      1  CA  ARG B   3      54.551  36.042   8.112  0.50 45.43 LIG 0.18  C 
ENDROOT
BRANCH 1 2
ATOM      2  CB  ARG B   3      55.071  37.435   8.343  0.50 45.40 LIG 0.04  C 
BRANCH 2 3
ATOM      3  CG  ARG B   3      56.473  37.555   7.849  0.50 45.00 LIG 0.02  C 
BRANCH 3 4
ATOM      4  CD  ARG B   3      57.109  38.816   8.311  0.50 44.41 LIG 0.14  C 
BRANCH 4 5
ATOM      5  NE  ARG B   3      58.523  38.786   7.984  0.50 44.18 LIG-0.23  N 
ATOM      6  CZ  ARG B   3      59.486  38.781   8.885  0.50 43.75 LIG 0.67  C 
ATOM      7  NH1 ARG B   3      60.747  38.765   8.497  0.50 44.03 LIG-0.23  N 
ATOM      8  NH2 ARG B   3      59.191  38.790  10.176  0.50 43.85 LIG-0.23  N 
ATOM      9 12HH ARG B   3      61.377  38.762   9.083  0.50 44.03 LIG 0.17  HD
ATOM     10 11HH ARG B   3      60.939  38.758   7.660  0.50 44.03 LIG 0.17  HD
ATOM     11 22HH ARG B   3      59.822  38.787  10.760  0.50 43.85 LIG 0.17  HD
ATOM     12 21HH ARG B   3      58.370  38.799  10.430  0.50 43.85 LIG 0.17  HD
ATOM     13 HE   ARG B   3      58.746  38.770   7.154  0.50 44.18 LIG 0.18  HD
ENDBRANCH 4 5
ENDBRANCH 3 4
ENDBRANCH 2 3
ENDBRANCH 1 2
BRANCH 1 14
ATOM     14  C   ARG B   3      54.134  35.409   9.427  0.50 45.62 LIG 0.24  C 
ATOM     15  N   SER B   4      55.094  35.361  10.343  0.50 45.72 LIG-0.34  N 
ATOM     16 H    SER B   4      55.874  35.708  10.237  0.50 45.72 LIG 0.16  HD
ATOM     17 O    ARG B   3      52.989  34.996   9.613  0.50 45.72 LIG-0.27  OA
BRANCH 15 18
ATOM     18  CA  SER B   4      54.901  34.707  11.626  0.50 45.84 LIG 0.21  C 
BRANCH 18 19
ATOM     19  C   SER B   4      53.781  35.342  12.441  0.50 45.90 LIG 0.20  C 
ATOM     20 O    SER B   4      53.710  36.565  12.574  0.50 45.95 LIG-0.65  OA
ATOM     21 OXT  SER B   4      52.924  34.652  12.991  0.50 46.05 LIG-0.65  OA
ENDBRANCH 18 19
BRANCH 18 22
ATOM     22  CB  SER B   4      56.210  34.759  12.411  0.50 45.85 LIG 0.20  C 
BRANCH 22 23
ATOM     23 OG   SER B   4      56.975  35.896  12.047  0.50 45.98 LIG-0.40  OA
ATOM     24 HG   SER B   4      57.068  35.915  11.213  0.50 45.98 LIG 0.21  HD
ENDBRANCH 22 23
ENDBRANCH 18 22
ENDBRANCH 15 18
ENDBRANCH 1 14
BRANCH 1 25
ATOM     25  N   ARG B   3      53.546  35.971   7.058  0.50 45.48 LIG-0.35  N 
ATOM     26 H    ARG B   3      53.763  35.534   6.350  0.50 45.48 LIG 0.16  HD
ATOM     27  C   ALA B   2      52.387  36.583   7.276  0.50 45.44 LIG 0.24  C 
ATOM     28 O    ALA B   2      52.130  37.090   8.363  0.50 45.54 LIG-0.27  OA
BRANCH 27 29
ATOM     29  CA  ALA B   2      51.356  36.647   6.163  0.50 45.45 LIG 0.17  C 
ATOM     30  CB  ALA B   2      50.250  35.692   6.417  0.50 45.48 LIG 0.04  C 
BRANCH 29 31
ATOM     31  N   ALA B   2      52.066  36.207   4.992  0.50 45.47 LIG-0.35  N 
ATOM     32 H    ALA B   2      52.350  36.853   4.501  0.50 45.47 LIG 0.16  HD
ATOM     33  C   VAL B   1      52.266  34.935   4.694  0.50 45.44 LIG 0.25  C 
ATOM     34 O    VAL B   1      52.104  34.015   5.494  0.50 45.56 LIG-0.27  OA
BRANCH 33 35
ATOM     35  CA  VAL B   1      52.874  34.708   3.320  0.50 45.37 LIG 0.28  C 
BRANCH 35 36
ATOM     36  CB  VAL B   1      52.218  33.503   2.612  0.50 45.32 LIG 0.02  C 
ATOM     37  CG2 VAL B   1      52.101  33.729   1.096  0.50 45.23 LIG 0.01  C 
ATOM     38  CG1 VAL B   1      50.885  33.205   3.249  0.50 45.24 LIG 0.01  C 
ENDBRANCH 35 36
BRANCH 35 39
ATOM     39  N   VAL B   1      54.350  34.541   3.432  0.50 45.40 LIG-0.07  N 
ATOM     40 H3   VAL B   1      54.543  33.681   3.556  0.50 45.40 LIG 0.28  HD
ATOM     41 H1   VAL B   1      54.738  34.826   2.684  0.50 45.40 LIG 0.28  HD
ATOM     42 H2   VAL B   1      54.651  35.015   4.122  0.50 45.40 LIG 0.28  HD
ENDBRANCH 35 39
ENDBRANCH 33 35
ENDBRANCH 29 31
ENDBRANCH 27 29
ENDBRANCH 1 25
TORSDOF 15
ENDMDL
MODEL 13
USER: ADFR SOLUTION from run 100
USER: SCORE 13.709473 LL:  -2.114 LR: -12.796 RR:   0.000 FEB:  -8.321
USER: RMSD 10.791841
USER: SEED 99
USER: STATUS no improvement in best 8 clusters for 5 generations
USER: GENES 17
USER: genes 0 Translation |==|  0.37861 0.25394 0.50890
USER: genes 1 Rotation |==|  0.32799 0.25274 0.17344 0.72942
USER: genes 2 Torsion [C]-CA--CB-[CG] |==|  0.74449
USER: genes 3 Torsion [CA]-CB--CG-[CD] |==|  0.27287
USER: genes 4 Torsion [CB]-CG--CD-[NE] |==|  0.62061
USER: genes 5 Torsion [CG]-CD--NE-[CZ] |==|  0.33119
USER: genes 6 Torsion [N]-CA--C-[N] |==|  0.39966
USER: genes 7 Torsion [C]-N--CA-[CB] |==|  0.15878
USER: genes 8 Torsion [N]-CA--C-[OXT] |==|  0.21653
USER: genes 9 Torsion [N]-CA--CB-[OG] |==|  0.15530
USER: genes 10 Torsion [CA]-CB--OG-[HG] |==|  0.93189
USER: genes 11 Torsion [CB]-CA--N-[C] |==|  0.26566
USER: genes 12 Torsion [N]-C--CA-[N] |==|  0.36531
USER: genes 13 Torsion [C]-CA--N-[C] |==|  0.86822
USER: genes 14 Torsion [N]-C--CA-[N] |==|  0.02495
USER: genes 15 Torsion [C]-CA--CB-[CG2] |==|  0.52164
USER: genes 16 Torsion [C]-CA--N-[H1] |==|  0.53000
ROOT
ATOM      1  CA  ARG B   3      49.588  34.008   8.847  0.50 45.43 LIG 0.18  C 
ENDROOT
BRANCH 1 2
ATOM      2  CB  ARG B   3      48.589  33.244   8.020  0.50 45.40 LIG 0.04  C 
BRANCH 2 3
ATOM      3  CG  ARG B   3      49.149  31.921   7.623  0.50 45.00 LIG 0.02  C 
BRANCH 3 4
ATOM      4  CD  ARG B   3      48.672  30.835   8.518  0.50 44.41 LIG 0.14  C 
BRANCH 4 5
ATOM      5  NE  ARG B   3      49.785  29.965   8.850  0.50 44.18 LIG-0.23  N 
ATOM      6  CZ  ARG B   3      50.221  29.764  10.078  0.50 43.75 LIG 0.67  C 
ATOM      7  NH1 ARG B   3      51.249  28.965  10.287  0.50 44.03 LIG-0.23  N 
ATOM      8  NH2 ARG B   3      49.629  30.361  11.102  0.50 43.85 LIG-0.23  N 
ATOM      9 12HH ARG B   3      51.535  28.832  11.088  0.50 44.03 LIG 0.17  HD
ATOM     10 11HH ARG B   3      51.633  28.576   9.624  0.50 44.03 LIG 0.17  HD
ATOM     11 22HH ARG B   3      49.916  30.228  11.901  0.50 43.85 LIG 0.17  HD
ATOM     12 21HH ARG B   3      48.958  30.881  10.967  0.50 43.85 LIG 0.17  HD
ATOM     13 HE   ARG B   3      50.185  29.556   8.208  0.50 44.18 LIG 0.18  HD
ENDBRANCH 4 5
ENDBRANCH 3 4
ENDBRANCH 2 3
ENDBRANCH 1 2
BRANCH 1 14
ATOM     14  C   ARG B   3      49.373  33.733  10.324  0.50 45.62 LIG 0.24  C 
ATOM     15  N   SER B   4      48.480  34.526  10.906  0.50 45.72 LIG-0.34  N 
ATOM     16 H    SER B   4      48.013  35.111  10.484  0.50 45.72 LIG 0.16  HD
ATOM     17 O    ARG B   3      49.974  32.832  10.909  0.50 45.72 LIG-0.27  OA
BRANCH 15 18
ATOM     18  CA  SER B   4      48.215  34.467  12.333  0.50 45.84 LIG 0.21  C 
BRANCH 18 19
ATOM     19  C   SER B   4      47.166  35.481  12.773  0.50 45.90 LIG 0.20  C 
ATOM     20 O    SER B   4      47.493  36.526  13.337  0.50 45.95 LIG-0.65  OA
ATOM     21 OXT  SER B   4      45.968  35.279  12.583  0.50 46.05 LIG-0.65  OA
ENDBRANCH 18 19
BRANCH 18 22
ATOM     22  CB  SER B   4      49.519  34.705  13.090  0.50 45.85 LIG 0.20  C 
BRANCH 22 23
ATOM     23 OG   SER B   4      50.113  35.934  12.704  0.50 45.98 LIG-0.40  OA
ATOM     24 HG   SER B   4      49.852  36.140  11.933  0.50 45.98 LIG 0.21  HD
ENDBRANCH 22 23
ENDBRANCH 18 22
ENDBRANCH 15 18
ENDBRANCH 1 14
BRANCH 1 25
ATOM     25  N   ARG B   3      50.964  33.836   8.391  0.50 45.48 LIG-0.35  N 
ATOM     26 H    ARG B   3      51.379  33.140   8.680  0.50 45.48 LIG 0.16  HD
ATOM     27  C   ALA B   2      51.456  34.759   7.574  0.50 45.44 LIG 0.24  C 
ATOM     28 O    ALA B   2      50.751  35.660   7.131  0.50 45.54 LIG-0.27  OA
BRANCH 27 29
ATOM     29  CA  ALA B   2      52.919  34.695   7.171  0.50 45.45 LIG 0.17  C 
ATOM     30  CB  ALA B   2      53.672  35.836   7.746  0.50 45.48 LIG 0.04  C 
BRANCH 29 31
ATOM     31  N   ALA B   2      52.902  34.848   5.740  0.50 45.47 LIG-0.35  N 
ATOM     32 H    ALA B   2      53.472  35.423   5.450  0.50 45.47 LIG 0.16  HD
ATOM     33  C   VAL B   1      52.093  34.174   4.943  0.50 45.44 LIG 0.25  C 
ATOM     34 O    VAL B   1      51.464  33.177   5.297  0.50 45.56 LIG-0.27  OA
BRANCH 33 35
ATOM     35  CA  VAL B   1      52.121  34.634   3.495  0.50 45.37 LIG 0.28  C 
BRANCH 35 36
ATOM     36  CB  VAL B   1      52.229  33.435   2.530  0.50 45.32 LIG 0.02  C 
ATOM     37  CG2 VAL B   1      52.452  33.890   1.079  0.50 45.23 LIG 0.01  C 
ATOM     38  CG1 VAL B   1      51.012  32.557   2.672  0.50 45.24 LIG 0.01  C 
ENDBRANCH 35 36
BRANCH 35 39
ATOM     39  N   VAL B   1      53.230  35.607   3.287  0.50 45.40 LIG-0.07  N 
ATOM     40 H3   VAL B   1      54.011  35.182   3.332  0.50 45.40 LIG 0.28  HD
ATOM     41 H1   VAL B   1      53.145  35.987   2.487  0.50 45.40 LIG 0.28  HD
ATOM     42 H2   VAL B   1      53.198  36.234   3.918  0.50 45.40 LIG 0.28  HD
ENDBRANCH 35 39
ENDBRANCH 33 35
ENDBRANCH 29 31
ENDBRANCH 27 29
ENDBRANCH 1 25
TORSDOF 15
ENDMDL
MODEL 14
USER: ADFR SOLUTION from run 40
USER: SCORE 13.837171 LL:  -2.507 LR: -12.787 RR:   0.000 FEB:  -8.313
USER: RMSD 10.995154
USER: SEED 39
USER: STATUS no improvement in best 4 clusters for 5 generations
USER: GENES 17
USER: genes 0 Translation |==|  0.33813 0.21422 0.53771
USER: genes 1 Rotation |==|  0.31127 0.11834 0.35719 0.71982
USER: genes 2 Torsion [C]-CA--CB-[CG] |==|  0.63603
USER: genes 3 Torsion [CA]-CB--CG-[CD] |==|  0.26761
USER: genes 4 Torsion [CB]-CG--CD-[NE] |==|  0.49660
USER: genes 5 Torsion [CG]-CD--NE-[CZ] |==|  0.52577
USER: genes 6 Torsion [N]-CA--C-[N] |==|  0.92475
USER: genes 7 Torsion [C]-N--CA-[CB] |==|  0.34847
USER: genes 8 Torsion [N]-CA--C-[OXT] |==|  0.43491
USER: genes 9 Torsion [N]-CA--CB-[OG] |==|  0.91342
USER: genes 10 Torsion [CA]-CB--OG-[HG] |==|  0.63076
USER: genes 11 Torsion [CB]-CA--N-[C] |==|  0.40954
USER: genes 12 Torsion [N]-C--CA-[N] |==|  0.40017
USER: genes 13 Torsion [C]-CA--N-[C] |==|  0.61483
USER: genes 14 Torsion [N]-C--CA-[N] |==|  0.35979
USER: genes 15 Torsion [C]-CA--CB-[CG2] |==|  0.08960
USER: genes 16 Torsion [C]-CA--N-[H1] |==|  0.78215
ROOT
ATOM      1  CA  ARG B   3      48.374  32.816   9.711  0.50 45.43 LIG 0.18  C 
ENDROOT
BRANCH 1 2
ATOM      2  CB  ARG B   3      47.932  31.383   9.840  0.50 45.40 LIG 0.04  C 
BRANCH 2 3
ATOM      3  CG  ARG B   3      49.021  30.463   9.402  0.50 45.00 LIG 0.02  C 
BRANCH 3 4
ATOM      4  CD  ARG B   3      49.817  29.971  10.556  0.50 44.41 LIG 0.14  C 
BRANCH 4 5
ATOM      5  NE  ARG B   3      50.841  29.060  10.077  0.50 44.18 LIG-0.23  N 
ATOM      6  CZ  ARG B   3      51.595  28.321  10.866  0.50 43.75 LIG 0.67  C 
ATOM      7  NH1 ARG B   3      52.511  27.528  10.344  0.50 44.03 LIG-0.23  N 
ATOM      8  NH2 ARG B   3      51.435  28.371  12.179  0.50 43.85 LIG-0.23  N 
ATOM      9 12HH ARG B   3      53.004  27.045  10.857  0.50 44.03 LIG 0.17  HD
ATOM     10 11HH ARG B   3      52.615  27.494   9.492  0.50 44.03 LIG 0.17  HD
ATOM     11 22HH ARG B   3      51.929  27.887  12.691  0.50 43.85 LIG 0.17  HD
ATOM     12 21HH ARG B   3      50.837  28.886  12.521  0.50 43.85 LIG 0.17  HD
ATOM     13 HE   ARG B   3      50.962  28.999   9.228  0.50 44.18 LIG 0.18  HD
ENDBRANCH 4 5
ENDBRANCH 3 4
ENDBRANCH 2 3
ENDBRANCH 1 2
BRANCH 1 14
ATOM     14  C   ARG B   3      48.080  33.577  10.992  0.50 45.62 LIG 0.24  C 
ATOM     15  N   SER B   4      49.139  33.771  11.770  0.50 45.72 LIG-0.34  N 
ATOM     16 H    SER B   4      49.940  33.544  11.554  0.50 45.72 LIG 0.16  HD
ATOM     17 O    ARG B   3      46.950  33.985  11.258  0.50 45.72 LIG-0.27  OA
BRANCH 15 18
ATOM     18  CA  SER B   4      49.028  34.398  13.076  0.50 45.84 LIG 0.21  C 
BRANCH 18 19
ATOM     19  C   SER B   4      49.698  35.766  13.125  0.50 45.90 LIG 0.20  C 
ATOM     20 O    SER B   4      50.599  36.057  12.336  0.50 45.95 LIG-0.65  OA
ATOM     21 OXT  SER B   4      49.363  36.609  13.955  0.50 46.05 LIG-0.65  OA
ENDBRANCH 18 19
BRANCH 18 22
ATOM     22  CB  SER B   4      49.649  33.476  14.123  0.50 45.85 LIG 0.20  C 
BRANCH 22 23
ATOM     23 OG   SER B   4      49.497  32.115  13.754  0.50 45.98 LIG-0.40  OA
ATOM     24 HG   SER B   4      49.218  31.676  14.413  0.50 45.98 LIG 0.21  HD
ENDBRANCH 22 23
ENDBRANCH 18 22
ENDBRANCH 15 18
ENDBRANCH 1 14
BRANCH 1 25
ATOM     25  N   ARG B   3      49.742  32.955   9.222  0.50 45.48 LIG-0.35  N 
ATOM     26 H    ARG B   3      50.294  32.337   9.451  0.50 45.48 LIG 0.16  HD
ATOM     27  C   ALA B   2      50.018  34.014   8.471  0.50 45.44 LIG 0.24  C 
ATOM     28 O    ALA B   2      49.135  34.786   8.109  0.50 45.54 LIG-0.27  OA
BRANCH 27 29
ATOM     29  CA  ALA B   2      51.452  34.272   8.042  0.50 45.45 LIG 0.17  C 
ATOM     30  CB  ALA B   2      52.080  35.302   8.904  0.50 45.48 LIG 0.04  C 
BRANCH 29 31
ATOM     31  N   ALA B   2      51.335  34.811   6.713  0.50 45.47 LIG-0.35  N 
ATOM     32 H    ALA B   2      50.691  35.374   6.628  0.50 45.47 LIG 0.16  HD
ATOM     33  C   VAL B   1      52.137  34.479   5.717  0.50 45.44 LIG 0.25  C 
ATOM     34 O    VAL B   1      53.205  33.890   5.871  0.50 45.56 LIG-0.27  OA
BRANCH 33 35
ATOM     35  CA  VAL B   1      51.709  35.029   4.366  0.50 45.37 LIG 0.28  C 
BRANCH 35 36
ATOM     36  CB  VAL B   1      51.118  33.918   3.473  0.50 45.32 LIG 0.02  C 
ATOM     37  CG2 VAL B   1      50.391  32.848   4.303  0.50 45.23 LIG 0.01  C 
ATOM     38  CG1 VAL B   1      52.204  33.331   2.608  0.50 45.24 LIG 0.01  C 
ENDBRANCH 35 36
BRANCH 35 39
ATOM     39  N   VAL B   1      52.855  35.714   3.704  0.50 45.40 LIG-0.07  N 
ATOM     40 H3   VAL B   1      52.690  35.794   2.833  0.50 45.40 LIG 0.28  HD
ATOM     41 H1   VAL B   1      52.964  36.522   4.061  0.50 45.40 LIG 0.28  HD
ATOM     42 H2   VAL B   1      53.596  35.235   3.822  0.50 45.40 LIG 0.28  HD
ENDBRANCH 35 39
ENDBRANCH 33 35
ENDBRANCH 29 31
ENDBRANCH 27 29
ENDBRANCH 1 25
TORSDOF 15
ENDMDL
MODEL 15
USER: ADFR SOLUTION from run 46
USER: SCORE 14.443362 LL:  -2.129 LR: -12.730 RR:   0.000 FEB:  -8.256
USER: RMSD 8.711162
USER: SEED 45
USER: STATUS no improvement in best 3 clusters for 5 generations
USER: GENES 17
USER: genes 0 Translation |==|  0.43867 0.53587 0.52402
USER: genes 1 Rotation |==|  0.44750 0.44164 0.00747 0.53540
USER: genes 2 Torsion [C]-CA--CB-[CG] |==|  0.29037
USER: genes 3 Torsion [CA]-CB--CG-[CD] |==|  0.74553
USER: genes 4 Torsion [CB]-CG--CD-[NE] |==|  0.37603
USER: genes 5 Torsion [CG]-CD--NE-[CZ] |==|  0.62787
USER: genes 6 Torsion [N]-CA--C-[N] |==|  0.36921
USER: genes 7 Torsion [C]-N--CA-[CB] |==|  0.79698
USER: genes 8 Torsion [N]-CA--C-[OXT] |==|  0.06477
USER: genes 9 Torsion [N]-CA--CB-[OG] |==|  0.22815
USER: genes 10 Torsion [CA]-CB--OG-[HG] |==|  0.01361
USER: genes 11 Torsion [CB]-CA--N-[C] |==|  0.83695
USER: genes 12 Torsion [N]-C--CA-[N] |==|  0.50534
USER: genes 13 Torsion [C]-CA--N-[C] |==|  0.63865
USER: genes 14 Torsion [N]-C--CA-[N] |==|  0.28663
USER: genes 15 Torsion [C]-CA--CB-[CG2] |==|  0.53815
USER: genes 16 Torsion [C]-CA--N-[H1] |==|  0.50932
ROOT
ATOM      1  CA  ARG B   3      51.390  42.466   9.301  0.50 45.43 LIG 0.18  C 
ENDROOT
BRANCH 1 2
ATOM      2  CB  ARG B   3      51.221  43.356   8.099  0.50 45.40 LIG 0.04  C 
BRANCH 2 3
ATOM      3  CG  ARG B   3      51.480  44.778   8.465  0.50 45.00 LIG 0.02  C 
BRANCH 3 4
ATOM      4  CD  ARG B   3      50.231  45.473   8.872  0.50 44.41 LIG 0.14  C 
BRANCH 4 5
ATOM      5  NE  ARG B   3      50.487  46.254  10.069  0.50 44.18 LIG-0.23  N 
ATOM      6  CZ  ARG B   3      49.695  46.265  11.123  0.50 43.75 LIG 0.67  C 
ATOM      7  NH1 ARG B   3      49.999  47.015  12.164  0.50 44.03 LIG-0.23  N 
ATOM      8  NH2 ARG B   3      48.597  45.525  11.140  0.50 43.85 LIG-0.23  N 
ATOM      9 12HH ARG B   3      49.484  47.024  12.853  0.50 44.03 LIG 0.17  HD
ATOM     10 11HH ARG B   3      50.712  47.495  12.155  0.50 44.03 LIG 0.17  HD
ATOM     11 22HH ARG B   3      48.083  45.535  11.828  0.50 43.85 LIG 0.17  HD
ATOM     12 21HH ARG B   3      48.398  45.035  10.462  0.50 43.85 LIG 0.17  HD
ATOM     13 HE   ARG B   3      51.197  46.738  10.092  0.50 44.18 LIG 0.18  HD
ENDBRANCH 4 5
ENDBRANCH 3 4
ENDBRANCH 2 3
ENDBRANCH 1 2
BRANCH 1 14
ATOM     14  C   ARG B   3      50.036  42.032   9.832  0.50 45.62 LIG 0.24  C 
ATOM     15  N   SER B   4      49.593  42.749  10.859  0.50 45.72 LIG-0.34  N 
ATOM     16 H    SER B   4      50.000  43.440  11.170  0.50 45.72 LIG 0.16  HD
ATOM     17 O    ARG B   3      49.410  41.100   9.326  0.50 45.72 LIG-0.27  OA
BRANCH 15 18
ATOM     18  CA  SER B   4      48.361  42.418  11.553  0.50 45.84 LIG 0.21  C 
BRANCH 18 19
ATOM     19  C   SER B   4      48.286  40.944  11.935  0.50 45.90 LIG 0.20  C 
ATOM     20 O    SER B   4      47.200  40.397  12.135  0.50 45.95 LIG-0.65  OA
ATOM     21 OXT  SER B   4      49.305  40.266  12.060  0.50 46.05 LIG-0.65  OA
ENDBRANCH 18 19
BRANCH 18 22
ATOM     22  CB  SER B   4      47.176  42.786  10.663  0.50 45.85 LIG 0.20  C 
BRANCH 22 23
ATOM     23 OG   SER B   4      46.922  41.767   9.710  0.50 45.98 LIG-0.40  OA
ATOM     24 HG   SER B   4      47.430  41.115   9.855  0.50 45.98 LIG 0.21  HD
ENDBRANCH 22 23
ENDBRANCH 18 22
ENDBRANCH 15 18
ENDBRANCH 1 14
BRANCH 1 25
ATOM     25  N   ARG B   3      52.334  41.376   9.080  0.50 45.48 LIG-0.35  N 
ATOM     26 H    ARG B   3      53.011  41.343   9.609  0.50 45.48 LIG 0.16  HD
ATOM     27  C   ALA B   2      52.072  40.533   8.088  0.50 45.44 LIG 0.24  C 
ATOM     28 O    ALA B   2      51.024  40.599   7.456  0.50 45.54 LIG-0.27  OA
BRANCH 27 29
ATOM     29  CA  ALA B   2      53.086  39.457   7.736  0.50 45.45 LIG 0.17  C 
ATOM     30  CB  ALA B   2      54.364  40.065   7.295  0.50 45.48 LIG 0.04  C 
BRANCH 29 31
ATOM     31  N   ALA B   2      52.504  38.774   6.611  0.50 45.47 LIG-0.35  N 
ATOM     32 H    ALA B   2      52.240  39.304   5.988  0.50 45.47 LIG 0.16  HD
ATOM     33  C   VAL B   1      52.385  37.460   6.535  0.50 45.44 LIG 0.25  C 
ATOM     34 O    VAL B   1      52.978  36.680   7.278  0.50 45.56 LIG-0.27  OA
BRANCH 33 35
ATOM     35  CA  VAL B   1      51.574  36.978   5.344  0.50 45.37 LIG 0.28  C 
BRANCH 35 36
ATOM     36  CB  VAL B   1      50.528  35.926   5.770  0.50 45.32 LIG 0.02  C 
ATOM     37  CG2 VAL B   1      49.939  35.186   4.559  0.50 45.23 LIG 0.01  C 
ATOM     38  CG1 VAL B   1      49.463  36.581   6.612  0.50 45.24 LIG 0.01  C 
ENDBRANCH 35 36
BRANCH 35 39
ATOM     39  N   VAL B   1      52.480  36.452   4.285  0.50 45.40 LIG-0.07  N 
ATOM     40 H3   VAL B   1      52.919  35.742   4.594  0.50 45.40 LIG 0.28  HD
ATOM     41 H1   VAL B   1      52.000  36.218   3.573  0.50 45.40 LIG 0.28  HD
ATOM     42 H2   VAL B   1      53.064  37.083   4.053  0.50 45.40 LIG 0.28  HD
ENDBRANCH 35 39
ENDBRANCH 33 35
ENDBRANCH 29 31
ENDBRANCH 27 29
ENDBRANCH 1 25
TORSDOF 15
ENDMDL
MODEL 16
USER: ADFR SOLUTION from run 101
USER: SCORE 14.384986 LL:  -2.597 LR: -12.731 RR:   0.000 FEB:  -8.257
USER: RMSD 11.774536
USER: SEED 100
USER: STATUS no improvement in best 6 clusters for 5 generations
USER: GENES 17
USER: genes 0 Translation |==|  0.34811 0.18331 0.44751
USER: genes 1 Rotation |==|  0.54576 0.15756 0.29049 0.79453
USER: genes 2 Torsion [C]-CA--CB-[CG] |==|  0.19449
USER: genes 3 Torsion [CA]-CB--CG-[CD] |==|  0.23310
USER: genes 4 Torsion [CB]-CG--CD-[NE] |==|  0.61444
USER: genes 5 Torsion [CG]-CD--NE-[CZ] |==|  0.43030
USER: genes 6 Torsion [N]-CA--C-[N] |==|  0.92342
USER: genes 7 Torsion [C]-N--CA-[CB] |==|  0.30152
USER: genes 8 Torsion [N]-CA--C-[OXT] |==|  0.58113
USER: genes 9 Torsion [N]-CA--CB-[OG] |==|  0.00023
USER: genes 10 Torsion [CA]-CB--OG-[HG] |==|  0.77195
USER: genes 11 Torsion [CB]-CA--N-[C] |==|  0.21737
USER: genes 12 Torsion [N]-C--CA-[N] |==|  0.36667
USER: genes 13 Torsion [C]-CA--N-[C] |==|  0.78190
USER: genes 14 Torsion [N]-C--CA-[N] |==|  0.41390
USER: genes 15 Torsion [C]-CA--CB-[CG2] |==|  0.84878
USER: genes 16 Torsion [C]-CA--N-[H1] |==|  0.20553
ROOT
ATOM      1  CA  ARG B   3      48.673  31.889   7.005  0.50 45.43 LIG 0.18  C 
ENDROOT
BRANCH 1 2
ATOM      2  CB  ARG B   3      49.158  30.849   6.032  0.50 45.40 LIG 0.04  C 
BRANCH 2 3
ATOM      3  CG  ARG B   3      48.016  30.024   5.543  0.50 45.00 LIG 0.02  C 
BRANCH 3 4
ATOM      4  CD  ARG B   3      47.314  30.681   4.410  0.50 44.41 LIG 0.14  C 
BRANCH 4 5
ATOM      5  NE  ARG B   3      45.881  30.515   4.574  0.50 44.18 LIG-0.23  N 
ATOM      6  CZ  ARG B   3      44.982  31.330   4.059  0.50 43.75 LIG 0.67  C 
ATOM      7  NH1 ARG B   3      43.699  31.109   4.270  0.50 44.03 LIG-0.23  N 
ATOM      8  NH2 ARG B   3      45.363  32.367   3.330  0.50 43.85 LIG-0.23  N 
ATOM      9 12HH ARG B   3      43.110  31.640   3.935  0.50 44.03 LIG 0.17  HD
ATOM     10 11HH ARG B   3      43.450  30.435   4.742  0.50 44.03 LIG 0.17  HD
ATOM     11 22HH ARG B   3      44.774  32.897   2.996  0.50 43.85 LIG 0.17  HD
ATOM     12 21HH ARG B   3      46.199  32.512   3.191  0.50 43.85 LIG 0.17  HD
ATOM     13 HE   ARG B   3      45.602  29.844   5.035  0.50 44.18 LIG 0.18  HD
ENDBRANCH 4 5
ENDBRANCH 3 4
ENDBRANCH 2 3
ENDBRANCH 1 2
BRANCH 1 14
ATOM     14  C   ARG B   3      48.235  31.235   8.303  0.50 45.62 LIG 0.24  C 
ATOM     15  N   SER B   4      49.117  31.330   9.291  0.50 45.72 LIG-0.34  N 
ATOM     16 H    SER B   4      49.854  31.771   9.234  0.50 45.72 LIG 0.16  HD
ATOM     17 O    ARG B   3      47.140  30.684   8.413  0.50 45.72 LIG-0.27  OA
BRANCH 15 18
ATOM     18  CA  SER B   4      48.906  30.683  10.574  0.50 45.84 LIG 0.21  C 
BRANCH 18 19
ATOM     19  C   SER B   4      49.095  31.639  11.747  0.50 45.90 LIG 0.20  C 
ATOM     20 O    SER B   4      48.871  32.844  11.622  0.50 45.95 LIG-0.65  OA
ATOM     21 OXT  SER B   4      49.480  31.234  12.842  0.50 46.05 LIG-0.65  OA
ENDBRANCH 18 19
BRANCH 18 22
ATOM     22  CB  SER B   4      49.871  29.506  10.701  0.50 45.85 LIG 0.20  C 
BRANCH 22 23
ATOM     23 OG   SER B   4      50.684  29.390   9.545  0.50 45.98 LIG-0.40  OA
ATOM     24 HG   SER B   4      50.261  28.981   8.946  0.50 45.98 LIG 0.21  HD
ENDBRANCH 22 23
ENDBRANCH 18 22
ENDBRANCH 15 18
ENDBRANCH 1 14
BRANCH 1 25
ATOM     25  N   ARG B   3      49.604  33.001   7.169  0.50 45.48 LIG-0.35  N 
ATOM     26 H    ARG B   3      50.091  32.991   7.877  0.50 45.48 LIG 0.16  HD
ATOM     27  C   ALA B   2      49.622  33.927   6.218  0.50 45.44 LIG 0.24  C 
ATOM     28 O    ALA B   2      48.965  33.798   5.190  0.50 45.54 LIG-0.27  OA
BRANCH 27 29
ATOM     29  CA  ALA B   2      50.479  35.168   6.400  0.50 45.45 LIG 0.17  C 
ATOM     30  CB  ALA B   2      49.631  36.372   6.568  0.50 45.48 LIG 0.04  C 
BRANCH 29 31
ATOM     31  N   ALA B   2      51.193  35.294   5.157  0.50 45.47 LIG-0.35  N 
ATOM     32 H    ALA B   2      50.863  35.889   4.632  0.50 45.47 LIG 0.16  HD
ATOM     33  C   VAL B   1      52.253  34.569   4.846  0.50 45.44 LIG 0.25  C 
ATOM     34 O    VAL B   1      52.890  33.909   5.666  0.50 45.56 LIG-0.27  OA
BRANCH 33 35
ATOM     35  CA  VAL B   1      52.725  34.742   3.412  0.50 45.37 LIG 0.28  C 
BRANCH 35 36
ATOM     36  CB  VAL B   1      51.979  33.783   2.460  0.50 45.32 LIG 0.02  C 
ATOM     37  CG2 VAL B   1      52.091  32.321   2.923  0.50 45.23 LIG 0.01  C 
ATOM     38  CG1 VAL B   1      52.480  33.975   1.051  0.50 45.24 LIG 0.01  C 
ENDBRANCH 35 36
BRANCH 35 39
ATOM     39  N   VAL B   1      54.201  34.558   3.331  0.50 45.40 LIG-0.07  N 
ATOM     40 H3   VAL B   1      54.594  35.015   3.986  0.50 45.40 LIG 0.28  HD
ATOM     41 H1   VAL B   1      54.397  33.694   3.413  0.50 45.40 LIG 0.28  HD
ATOM     42 H2   VAL B   1      54.495  34.855   2.545  0.50 45.40 LIG 0.28  HD
ENDBRANCH 35 39
ENDBRANCH 33 35
ENDBRANCH 29 31
ENDBRANCH 27 29
ENDBRANCH 1 25
TORSDOF 15
ENDMDL
MODEL 17
USER: ADFR SOLUTION from run 137
USER: SCORE 12.523050 LL:  -1.710 LR: -12.697 RR:   0.000 FEB:  -8.222
USER: RMSD 8.481883
USER: SEED 136
USER: STATUS no improvement in best 10 clusters for 5 generations
USER: GENES 17
USER: genes 0 Translation |==|  0.57635 0.35655 0.49314
USER: genes 1 Rotation |==|  0.74204 0.30670 0.80262 0.74994
USER: genes 2 Torsion [C]-CA--CB-[CG] |==|  0.19773
USER: genes 3 Torsion [CA]-CB--CG-[CD] |==|  0.41619
USER: genes 4 Torsion [CB]-CG--CD-[NE] |==|  0.83682
USER: genes 5 Torsion [CG]-CD--NE-[CZ] |==|  0.46028
USER: genes 6 Torsion [N]-CA--C-[N] |==|  0.94665
USER: genes 7 Torsion [C]-N--CA-[CB] |==|  0.20232
USER: genes 8 Torsion [N]-CA--C-[OXT] |==|  0.34134
USER: genes 9 Torsion [N]-CA--CB-[OG] |==|  0.79098
USER: genes 10 Torsion [CA]-CB--OG-[HG] |==|  0.79233
USER: genes 11 Torsion [CB]-CA--N-[C] |==|  0.43819
USER: genes 12 Torsion [N]-C--CA-[N] |==|  0.26120
USER: genes 13 Torsion [C]-CA--N-[C] |==|  0.54656
USER: genes 14 Torsion [N]-C--CA-[N] |==|  0.96402
USER: genes 15 Torsion [C]-CA--CB-[CG2] |==|  0.33847
USER: genes 16 Torsion [C]-CA--N-[H1] |==|  0.29847
ROOT
ATOM      1  CA  ARG B   3      55.521  37.087   8.374  0.50 45.43 LIG 0.18  C 
ENDROOT
BRANCH 1 2
ATOM      2  CB  ARG B   3      56.456  38.180   7.932  0.50 45.40 LIG 0.04  C 
BRANCH 2 3
ATOM      3  CG  ARG B   3      57.817  37.960   8.500  0.50 45.00 LIG 0.02  C 
BRANCH 3 4
ATOM      4  CD  ARG B   3      58.875  38.497   7.605  0.50 44.41 LIG 0.14  C 
BRANCH 4 5
ATOM      5  NE  ARG B   3      58.778  37.850   6.308  0.50 44.18 LIG-0.23  N 
ATOM      6  CZ  ARG B   3      59.384  38.287   5.222  0.50 43.75 LIG 0.67  C 
ATOM      7  NH1 ARG B   3      59.231  37.642   4.081  0.50 44.03 LIG-0.23  N 
ATOM      8  NH2 ARG B   3      60.147  39.367   5.272  0.50 43.85 LIG-0.23  N 
ATOM      9 12HH ARG B   3      59.625  37.925   3.371  0.50 44.03 LIG 0.17  HD
ATOM     10 11HH ARG B   3      58.737  36.939   4.048  0.50 44.03 LIG 0.17  HD
ATOM     11 22HH ARG B   3      60.540  39.649   4.562  0.50 43.85 LIG 0.17  HD
ATOM     12 21HH ARG B   3      60.249  39.788   6.016  0.50 43.85 LIG 0.17  HD
ATOM     13 HE   ARG B   3      58.297  37.140   6.245  0.50 44.18 LIG 0.18  HD
ENDBRANCH 4 5
ENDBRANCH 3 4
ENDBRANCH 2 3
ENDBRANCH 1 2
BRANCH 1 14
ATOM     14  C   ARG B   3      55.198  37.231   9.850  0.50 45.62 LIG 0.24  C 
ATOM     15  N   SER B   4      53.950  37.605  10.106  0.50 45.72 LIG-0.34  N 
ATOM     16 H    SER B   4      53.347  37.704   9.501  0.50 45.72 LIG 0.16  HD
ATOM     17 O    ARG B   3      56.037  36.999  10.722  0.50 45.72 LIG-0.27  OA
BRANCH 15 18
ATOM     18  CA  SER B   4      53.492  37.883  11.456  0.50 45.84 LIG 0.21  C 
BRANCH 18 19
ATOM     19  C   SER B   4      51.972  37.934  11.557  0.50 45.90 LIG 0.20  C 
ATOM     20 O    SER B   4      51.318  38.720  10.869  0.50 45.95 LIG-0.65  OA
ATOM     21 OXT  SER B   4      51.360  37.198  12.330  0.50 46.05 LIG-0.65  OA
ENDBRANCH 18 19
BRANCH 18 22
ATOM     22  CB  SER B   4      54.090  39.209  11.920  0.50 45.85 LIG 0.20  C 
BRANCH 22 23
ATOM     23 OG   SER B   4      55.460  39.060  12.250  0.50 45.98 LIG-0.40  OA
ATOM     24 HG   SER B   4      55.529  38.663  12.986  0.50 45.98 LIG 0.21  HD
ENDBRANCH 22 23
ENDBRANCH 18 22
ENDBRANCH 15 18
ENDBRANCH 1 14
BRANCH 1 25
ATOM     25  N   ARG B   3      54.355  36.943   7.509  0.50 45.48 LIG-0.35  N 
ATOM     26 H    ARG B   3      54.141  37.630   7.038  0.50 45.48 LIG 0.16  HD
ATOM     27  C   ALA B   2      53.726  35.773   7.520  0.50 45.44 LIG 0.24  C 
ATOM     28 O    ALA B   2      54.171  34.817   8.146  0.50 45.54 LIG-0.27  OA
BRANCH 27 29
ATOM     29  CA  ALA B   2      52.436  35.612   6.735  0.50 45.45 LIG 0.17  C 
ATOM     30  CB  ALA B   2      51.549  34.616   7.383  0.50 45.48 LIG 0.04  C 
BRANCH 29 31
ATOM     31  N   ALA B   2      52.854  35.079   5.466  0.50 45.47 LIG-0.35  N 
ATOM     32 H    ALA B   2      53.650  34.752   5.478  0.50 45.47 LIG 0.16  HD
ATOM     33  C   VAL B   1      52.096  35.087   4.384  0.50 45.44 LIG 0.25  C 
ATOM     34 O    VAL B   1      50.886  35.305   4.403  0.50 45.56 LIG-0.27  OA
BRANCH 33 35
ATOM     35  CA  VAL B   1      52.814  34.643   3.120  0.50 45.37 LIG 0.28  C 
BRANCH 35 36
ATOM     36  CB  VAL B   1      52.279  33.284   2.622  0.50 45.32 LIG 0.02  C 
ATOM     37  CG2 VAL B   1      51.734  33.377   1.188  0.50 45.23 LIG 0.01  C 
ATOM     38  CG1 VAL B   1      51.251  32.757   3.591  0.50 45.24 LIG 0.01  C 
ENDBRANCH 35 36
BRANCH 35 39
ATOM     39  N   VAL B   1      54.285  34.603   3.351  0.50 45.40 LIG-0.07  N 
ATOM     40 H3   VAL B   1      54.477  35.015   4.116  0.50 45.40 LIG 0.28  HD
ATOM     41 H1   VAL B   1      54.555  33.756   3.395  0.50 45.40 LIG 0.28  HD
ATOM     42 H2   VAL B   1      54.703  35.013   2.681  0.50 45.40 LIG 0.28  HD
ENDBRANCH 35 39
ENDBRANCH 33 35
ENDBRANCH 29 31
ENDBRANCH 27 29
ENDBRANCH 1 25
TORSDOF 15
ENDMDL
MODEL 18
USER: ADFR SOLUTION from run 16
USER: SCORE 14.031958 LL:  -1.598 LR: -12.679 RR:   0.000 FEB:  -8.205
USER: RMSD 10.088282
USER: SEED 842310
USER: STATUS no improvement in best 7 clusters for 5 generations
USER: GENES 17
USER: genes 0 Translation |==|  0.42615 0.27712 0.55636
USER: genes 1 Rotation |==|  0.67526 0.26197 0.82761 0.73516
USER: genes 2 Torsion [C]-CA--CB-[CG] |==|  0.25384
USER: genes 3 Torsion [CA]-CB--CG-[CD] |==|  0.40752
USER: genes 4 Torsion [CB]-CG--CD-[NE] |==|  0.03793
USER: genes 5 Torsion [CG]-CD--NE-[CZ] |==|  0.69190
USER: genes 6 Torsion [N]-CA--C-[N] |==|  0.13391
USER: genes 7 Torsion [C]-N--CA-[CB] |==|  0.80818
USER: genes 8 Torsion [N]-CA--C-[OXT] |==|  0.22711
USER: genes 9 Torsion [N]-CA--CB-[OG] |==|  0.88522
USER: genes 10 Torsion [CA]-CB--OG-[HG] |==|  0.47028
USER: genes 11 Torsion [CB]-CA--N-[C] |==|  0.15441
USER: genes 12 Torsion [N]-C--CA-[N] |==|  0.47222
USER: genes 13 Torsion [C]-CA--N-[C] |==|  0.76504
USER: genes 14 Torsion [N]-C--CA-[N] |==|  0.83128
USER: genes 15 Torsion [C]-CA--CB-[CG2] |==|  0.77206
USER: genes 16 Torsion [C]-CA--N-[H1] |==|  0.71905
ROOT
ATOM      1  CA  ARG B   3      51.014  34.703  10.271  0.50 45.43 LIG 0.18  C 
ENDROOT
BRANCH 1 2
ATOM      2  CB  ARG B   3      52.154  35.677  10.131  0.50 45.40 LIG 0.04  C 
BRANCH 2 3
ATOM      3  CG  ARG B   3      53.399  35.106  10.719  0.50 45.00 LIG 0.02  C 
BRANCH 3 4
ATOM      4  CD  ARG B   3      54.608  35.554   9.979  0.50 44.41 LIG 0.14  C 
BRANCH 4 5
ATOM      5  NE  ARG B   3      54.253  36.661   9.110  0.50 44.18 LIG-0.23  N 
ATOM      6  CZ  ARG B   3      54.227  36.584   7.794  0.50 43.75 LIG 0.67  C 
ATOM      7  NH1 ARG B   3      53.904  37.646   7.081  0.50 44.03 LIG-0.23  N 
ATOM      8  NH2 ARG B   3      54.521  35.445   7.187  0.50 43.85 LIG-0.23  N 
ATOM      9 12HH ARG B   3      53.886  37.598   6.222  0.50 44.03 LIG 0.17  HD
ATOM     10 11HH ARG B   3      53.711  38.386   7.474  0.50 44.03 LIG 0.17  HD
ATOM     11 22HH ARG B   3      54.504  35.399   6.328  0.50 43.85 LIG 0.17  HD
ATOM     12 21HH ARG B   3      54.731  34.752   7.650  0.50 43.85 LIG 0.17  HD
ATOM     13 HE   ARG B   3      54.047  37.413   9.475  0.50 44.18 LIG 0.18  HD
ENDBRANCH 4 5
ENDBRANCH 3 4
ENDBRANCH 2 3
ENDBRANCH 1 2
BRANCH 1 14
ATOM     14  C   ARG B   3      50.260  34.955  11.564  0.50 45.62 LIG 0.24  C 
ATOM     15  N   SER B   4      49.202  34.173  11.743  0.50 45.72 LIG-0.34  N 
ATOM     16 H    SER B   4      48.983  33.534  11.210  0.50 45.72 LIG 0.16  HD
ATOM     17 O    ARG B   3      50.628  35.807  12.373  0.50 45.72 LIG-0.27  OA
BRANCH 15 18
ATOM     18  CA  SER B   4      48.310  34.335  12.878  0.50 45.84 LIG 0.21  C 
BRANCH 18 19
ATOM     19  C   SER B   4      47.791  35.762  13.012  0.50 45.90 LIG 0.20  C 
ATOM     20 O    SER B   4      48.310  36.552  13.803  0.50 45.95 LIG-0.65  OA
ATOM     21 OXT  SER B   4      46.841  36.159  12.341  0.50 46.05 LIG-0.65  OA
ENDBRANCH 18 19
BRANCH 18 22
ATOM     22  CB  SER B   4      49.048  33.927  14.151  0.50 45.85 LIG 0.20  C 
BRANCH 22 23
ATOM     23 OG   SER B   4      49.824  32.760  13.935  0.50 45.98 LIG-0.40  OA
ATOM     24 HG   SER B   4      50.331  32.636  14.593  0.50 45.98 LIG 0.21  HD
ENDBRANCH 22 23
ENDBRANCH 18 22
ENDBRANCH 15 18
ENDBRANCH 1 14
BRANCH 1 25
ATOM     25  N   ARG B   3      50.173  34.629   9.081  0.50 45.48 LIG-0.35  N 
ATOM     26 H    ARG B   3      49.334  34.777   9.196  0.50 45.48 LIG 0.16  HD
ATOM     27  C   ALA B   2      50.769  34.342   7.929  0.50 45.44 LIG 0.24  C 
ATOM     28 O    ALA B   2      51.989  34.254   7.848  0.50 45.54 LIG-0.27  OA
BRANCH 27 29
ATOM     29  CA  ALA B   2      49.923  34.129   6.685  0.50 45.45 LIG 0.17  C 
ATOM     30  CB  ALA B   2      49.230  32.819   6.741  0.50 45.48 LIG 0.04  C 
BRANCH 29 31
ATOM     31  N   ALA B   2      50.878  34.083   5.609  0.50 45.47 LIG-0.35  N 
ATOM     32 H    ALA B   2      51.114  33.285   5.394  0.50 45.47 LIG 0.16  HD
ATOM     33  C   VAL B   1      51.350  35.159   5.005  0.50 45.44 LIG 0.25  C 
ATOM     34 O    VAL B   1      50.845  36.276   5.112  0.50 45.56 LIG-0.27  OA
BRANCH 33 35
ATOM     35  CA  VAL B   1      52.482  34.878   4.031  0.50 45.37 LIG 0.28  C 
BRANCH 35 36
ATOM     36  CB  VAL B   1      52.004  33.993   2.860  0.50 45.32 LIG 0.02  C 
ATOM     37  CG2 VAL B   1      51.991  32.504   3.242  0.50 45.23 LIG 0.01  C 
ATOM     38  CG1 VAL B   1      52.848  34.263   1.641  0.50 45.24 LIG 0.01  C 
ENDBRANCH 35 36
BRANCH 35 39
ATOM     39  N   VAL B   1      53.636  34.265   4.746  0.50 45.40 LIG-0.07  N 
ATOM     40 H3   VAL B   1      53.980  33.611   4.250  0.50 45.40 LIG 0.28  HD
ATOM     41 H1   VAL B   1      54.257  34.885   4.893  0.50 45.40 LIG 0.28  HD
ATOM     42 H2   VAL B   1      53.360  33.932   5.524  0.50 45.40 LIG 0.28  HD
ENDBRANCH 35 39
ENDBRANCH 33 35
ENDBRANCH 29 31
ENDBRANCH 27 29
ENDBRANCH 1 25
TORSDOF 15
ENDMDL
MODEL 19
USER: ADFR SOLUTION from run 89
USER: SCORE 13.477826 LL:  -2.304 LR: -12.646 RR:   0.000 FEB:  -8.171
USER: RMSD 8.823683
USER: SEED 88
USER: STATUS no improvement in best 8 clusters for 5 generations
USER: GENES 17
USER: genes 0 Translation |==|  0.37548 0.27453 0.41621
USER: genes 1 Rotation |==|  0.44172 0.12383 0.32694 0.77414
USER: genes 2 Torsion [C]-CA--CB-[CG] |==|  0.47651
USER: genes 3 Torsion [CA]-CB--CG-[CD] |==|  0.29110
USER: genes 4 Torsion [CB]-CG--CD-[NE] |==|  0.66563
USER: genes 5 Torsion [CG]-CD--NE-[CZ] |==|  0.39076
USER: genes 6 Torsion [N]-CA--C-[N] |==|  0.83031
USER: genes 7 Torsion [C]-N--CA-[CB] |==|  0.30520
USER: genes 8 Torsion [N]-CA--C-[OXT] |==|  0.35662
USER: genes 9 Torsion [N]-CA--CB-[OG] |==|  0.93975
USER: genes 10 Torsion [CA]-CB--OG-[HG] |==|  0.34735
USER: genes 11 Torsion [CB]-CA--N-[C] |==|  0.47886
USER: genes 12 Torsion [N]-C--CA-[N] |==|  0.88843
USER: genes 13 Torsion [C]-CA--N-[C] |==|  0.85396
USER: genes 14 Torsion [N]-C--CA-[N] |==|  0.95861
USER: genes 15 Torsion [C]-CA--CB-[CG2] |==|  0.24163
USER: genes 16 Torsion [C]-CA--N-[H1] |==|  0.01020
ROOT
ATOM      1  CA  ARG B   3      49.494  34.626   6.066  0.50 45.43 LIG 0.18  C 
ENDROOT
BRANCH 1 2
ATOM      2  CB  ARG B   3      49.649  33.209   5.582  0.50 45.40 LIG 0.04  C 
BRANCH 2 3
ATOM      3  CG  ARG B   3      49.924  33.189   4.117  0.50 45.00 LIG 0.02  C 
BRANCH 3 4
ATOM      4  CD  ARG B   3      51.351  32.888   3.833  0.50 44.41 LIG 0.14  C 
BRANCH 4 5
ATOM      5  NE  ARG B   3      51.934  33.992   3.092  0.50 44.18 LIG-0.23  N 
ATOM      6  CZ  ARG B   3      53.155  34.449   3.292  0.50 43.75 LIG 0.67  C 
ATOM      7  NH1 ARG B   3      53.599  35.466   2.580  0.50 44.03 LIG-0.23  N 
ATOM      8  NH2 ARG B   3      53.935  33.890   4.204  0.50 43.85 LIG-0.23  N 
ATOM      9 12HH ARG B   3      54.395  35.767   2.709  0.50 44.03 LIG 0.17  HD
ATOM     10 11HH ARG B   3      53.094  35.830   1.987  0.50 44.03 LIG 0.17  HD
ATOM     11 22HH ARG B   3      54.730  34.191   4.332  0.50 43.85 LIG 0.17  HD
ATOM     12 21HH ARG B   3      53.647  33.226   4.668  0.50 43.85 LIG 0.17  HD
ATOM     13 HE   ARG B   3      51.455  34.371   2.486  0.50 44.18 LIG 0.18  HD
ENDBRANCH 4 5
ENDBRANCH 3 4
ENDBRANCH 2 3
ENDBRANCH 1 2
BRANCH 1 14
ATOM     14  C   ARG B   3      49.012  34.643   7.505  0.50 45.62 LIG 0.24  C 
ATOM     15  N   SER B   4      49.897  34.193   8.387  0.50 45.72 LIG-0.34  N 
ATOM     16 H    SER B   4      50.701  33.963   8.183  0.50 45.72 LIG 0.16  HD
ATOM     17 O    ARG B   3      47.894  35.060   7.809  0.50 45.72 LIG-0.27  OA
BRANCH 15 18
ATOM     18  CA  SER B   4      49.575  34.050   9.796  0.50 45.84 LIG 0.21  C 
BRANCH 18 19
ATOM     19  C   SER B   4      50.591  34.740  10.699  0.50 45.90 LIG 0.20  C 
ATOM     20 O    SER B   4      51.797  34.515  10.581  0.50 45.95 LIG-0.65  OA
ATOM     21 OXT  SER B   4      50.234  35.530  11.570  0.50 46.05 LIG-0.65  OA
ENDBRANCH 18 19
BRANCH 18 22
ATOM     22  CB  SER B   4      49.497  32.564  10.139  0.50 45.85 LIG 0.20  C 
BRANCH 22 23
ATOM     23 OG   SER B   4      49.261  31.787   8.977  0.50 45.98 LIG-0.40  OA
ATOM     24 HG   SER B   4      49.858  31.201   8.906  0.50 45.98 LIG 0.21  HD
ENDBRANCH 22 23
ENDBRANCH 18 22
ENDBRANCH 15 18
ENDBRANCH 1 14
BRANCH 1 25
ATOM     25  N   ARG B   3      50.669  35.453   5.809  0.50 45.48 LIG-0.35  N 
ATOM     26 H    ARG B   3      51.364  35.047   5.508  0.50 45.48 LIG 0.16  HD
ATOM     27  C   ALA B   2      50.567  36.753   6.061  0.50 45.44 LIG 0.24  C 
ATOM     28 O    ALA B   2      49.498  37.256   6.388  0.50 45.54 LIG-0.27  OA
BRANCH 27 29
ATOM     29  CA  ALA B   2      51.796  37.636   5.931  0.50 45.45 LIG 0.17  C 
ATOM     30  CB  ALA B   2      52.105  37.898   4.504  0.50 45.48 LIG 0.04  C 
BRANCH 29 31
ATOM     31  N   ALA B   2      52.864  36.844   6.481  0.50 45.47 LIG-0.35  N 
ATOM     32 H    ALA B   2      53.541  36.770   5.955  0.50 45.47 LIG 0.16  HD
ATOM     33  C   VAL B   1      52.817  36.283   7.676  0.50 45.44 LIG 0.25  C 
ATOM     34 O    VAL B   1      51.991  36.583   8.536  0.50 45.56 LIG-0.27  OA
BRANCH 33 35
ATOM     35  CA  VAL B   1      53.976  35.343   7.966  0.50 45.37 LIG 0.28  C 
BRANCH 35 36
ATOM     36  CB  VAL B   1      54.931  35.944   9.020  0.50 45.32 LIG 0.02  C 
ATOM     37  CG2 VAL B   1      54.480  35.611  10.451  0.50 45.23 LIG 0.01  C 
ATOM     38  CG1 VAL B   1      55.067  37.428   8.794  0.50 45.24 LIG 0.01  C 
ENDBRANCH 35 36
BRANCH 35 39
ATOM     39  N   VAL B   1      54.693  35.006   6.705  0.50 45.40 LIG-0.07  N 
ATOM     40 H3   VAL B   1      54.618  34.134   6.545  0.50 45.40 LIG 0.28  HD
ATOM     41 H1   VAL B   1      54.336  35.463   6.030  0.50 45.40 LIG 0.28  HD
ATOM     42 H2   VAL B   1      55.553  35.219   6.786  0.50 45.40 LIG 0.28  HD
ENDBRANCH 35 39
ENDBRANCH 33 35
ENDBRANCH 29 31
ENDBRANCH 27 29
ENDBRANCH 1 25
TORSDOF 15
ENDMDL
MODEL 20
USER: ADFR SOLUTION from run 67
USER: SCORE 13.042740 LL:  -2.020 LR: -12.610 RR:   0.000 FEB:  -8.135
USER: RMSD 8.691185
USER: SEED 66
USER: STATUS no improvement in best 12 clusters for 5 generations
USER: GENES 17
USER: genes 0 Translation |==|  0.52741 0.32123 0.51754
USER: genes 1 Rotation |==|  0.50330 0.21035 0.18829 0.76255
USER: genes 2 Torsion [C]-CA--CB-[CG] |==|  0.22405
USER: genes 3 Torsion [CA]-CB--CG-[CD] |==|  0.53584
USER: genes 4 Torsion [CB]-CG--CD-[NE] |==|  0.80561
USER: genes 5 Torsion [CG]-CD--NE-[CZ] |==|  0.68263
USER: genes 6 Torsion [N]-CA--C-[N] |==|  0.42432
USER: genes 7 Torsion [C]-N--CA-[CB] |==|  0.19616
USER: genes 8 Torsion [N]-CA--C-[OXT] |==|  0.72006
USER: genes 9 Torsion [N]-CA--CB-[OG] |==|  0.17555
USER: genes 10 Torsion [CA]-CB--OG-[HG] |==|  0.14133
USER: genes 11 Torsion [CB]-CA--N-[C] |==|  0.24679
USER: genes 12 Torsion [N]-C--CA-[N] |==|  0.26958
USER: genes 13 Torsion [C]-CA--N-[C] |==|  0.53333
USER: genes 14 Torsion [N]-C--CA-[N] |==|  0.97776
USER: genes 15 Torsion [C]-CA--CB-[CG2] |==|  0.66769
USER: genes 16 Torsion [C]-CA--N-[H1] |==|  0.47749
ROOT
ATOM      1  CA  ARG B   3      54.052  36.027   9.106  0.50 45.43 LIG 0.18  C 
ENDROOT
BRANCH 1 2
ATOM      2  CB  ARG B   3      53.996  35.225   7.834  0.50 45.40 LIG 0.04  C 
BRANCH 2 3
ATOM      3  CG  ARG B   3      52.623  35.267   7.254  0.50 45.00 LIG 0.02  C 
BRANCH 3 4
ATOM      4  CD  ARG B   3      52.451  34.251   6.184  0.50 44.41 LIG 0.14  C 
BRANCH 4 5
ATOM      5  NE  ARG B   3      53.235  34.640   5.025  0.50 44.18 LIG-0.23  N 
ATOM      6  CZ  ARG B   3      52.712  34.978   3.863  0.50 43.75 LIG 0.67  C 
ATOM      7  NH1 ARG B   3      53.502  35.306   2.859  0.50 44.03 LIG-0.23  N 
ATOM      8  NH2 ARG B   3      51.398  34.991   3.702  0.50 43.85 LIG-0.23  N 
ATOM      9 12HH ARG B   3      53.163  35.527   2.100  0.50 44.03 LIG 0.17  HD
ATOM     10 11HH ARG B   3      54.355  35.299   2.963  0.50 44.03 LIG 0.17  HD
ATOM     11 22HH ARG B   3      51.061  35.211   2.942  0.50 43.85 LIG 0.17  HD
ATOM     12 21HH ARG B   3      50.882  34.778   4.356  0.50 43.85 LIG 0.17  HD
ATOM     13 HE   ARG B   3      54.092  34.650   5.101  0.50 44.18 LIG 0.18  HD
ENDBRANCH 4 5
ENDBRANCH 3 4
ENDBRANCH 2 3
ENDBRANCH 1 2
BRANCH 1 14
ATOM     14  C   ARG B   3      53.503  35.217  10.266  0.50 45.62 LIG 0.24  C 
ATOM     15  N   SER B   4      52.177  35.154  10.313  0.50 45.72 LIG-0.34  N 
ATOM     16 H    SER B   4      51.660  35.489   9.712  0.50 45.72 LIG 0.16  HD
ATOM     17 O    ARG B   3      54.244  34.659  11.075  0.50 45.72 LIG-0.27  OA
BRANCH 15 18
ATOM     18  CA  SER B   4      51.476  34.501  11.405  0.50 45.84 LIG 0.21  C 
BRANCH 18 19
ATOM     19  C   SER B   4      50.000  34.278  11.099  0.50 45.90 LIG 0.20  C 
ATOM     20 O    SER B   4      49.636  33.347  10.379  0.50 45.95 LIG-0.65  OA
ATOM     21 OXT  SER B   4      49.136  35.024  11.557  0.50 46.05 LIG-0.65  OA
ENDBRANCH 18 19
BRANCH 18 22
ATOM     22  CB  SER B   4      51.625  35.348  12.667  0.50 45.85 LIG 0.20  C 
BRANCH 22 23
ATOM     23 OG   SER B   4      51.014  36.616  12.501  0.50 45.98 LIG-0.40  OA
ATOM     24 HG   SER B   4      50.230  36.514  12.219  0.50 45.98 LIG 0.21  HD
ENDBRANCH 22 23
ENDBRANCH 18 22
ENDBRANCH 15 18
ENDBRANCH 1 14
BRANCH 1 25
ATOM     25  N   ARG B   3      55.360  36.627   9.349  0.50 45.48 LIG-0.35  N 
ATOM     26 H    ARG B   3      55.914  36.162   9.813  0.50 45.48 LIG 0.16  HD
ATOM     27  C   ALA B   2      55.583  37.832   8.838  0.50 45.44 LIG 0.24  C 
ATOM     28 O    ALA B   2      54.767  38.371   8.099  0.50 45.54 LIG-0.27  OA
BRANCH 27 29
ATOM     29  CA  ALA B   2      56.879  38.554   9.167  0.50 45.45 LIG 0.17  C 
ATOM     30  CB  ALA B   2      56.661  40.019   9.229  0.50 45.48 LIG 0.04  C 
BRANCH 29 31
ATOM     31  N   ALA B   2      57.736  38.277   8.046  0.50 45.47 LIG-0.35  N 
ATOM     32 H    ALA B   2      57.323  37.928   7.377  0.50 45.47 LIG 0.16  HD
ATOM     33  C   VAL B   1      59.033  38.529   8.037  0.50 45.44 LIG 0.25  C 
ATOM     34 O    VAL B   1      59.590  39.252   8.862  0.50 45.56 LIG-0.27  OA
BRANCH 33 35
ATOM     35  CA  VAL B   1      59.764  37.982   6.823  0.50 45.37 LIG 0.28  C 
BRANCH 35 36
ATOM     36  CB  VAL B   1      60.361  39.122   5.970  0.50 45.32 LIG 0.02  C 
ATOM     37  CG2 VAL B   1      59.789  39.125   4.543  0.50 45.23 LIG 0.01  C 
ATOM     38  CG1 VAL B   1      61.866  39.031   5.982  0.50 45.24 LIG 0.01  C 
ENDBRANCH 35 36
BRANCH 35 39
ATOM     39  N   VAL B   1      58.854  37.117   6.021  0.50 45.40 LIG-0.07  N 
ATOM     40 H3   VAL B   1      58.100  37.558   5.849  0.50 45.40 LIG 0.28  HD
ATOM     41 H1   VAL B   1      59.251  36.898   5.256  0.50 45.40 LIG 0.28  HD
ATOM     42 H2   VAL B   1      58.666  36.378   6.480  0.50 45.40 LIG 0.28  HD
ENDBRANCH 35 39
ENDBRANCH 33 35
ENDBRANCH 29 31
ENDBRANCH 27 29
ENDBRANCH 1 25
TORSDOF 15
ENDMDL
MODEL 21
USER: ADFR SOLUTION from run 83
USER: SCORE 12.795516 LL:  -1.300 LR: -12.529 RR:   0.000 FEB:  -8.055
USER: RMSD 9.565113
USER: SEED 82
USER: STATUS no improvement in best 6 clusters for 5 generations
USER: GENES 17
USER: genes 0 Translation |==|  0.47374 0.28059 0.54544
USER: genes 1 Rotation |==|  0.58855 0.14451 0.73137 0.74950
USER: genes 2 Torsion [C]-CA--CB-[CG] |==|  0.08473
USER: genes 3 Torsion [CA]-CB--CG-[CD] |==|  0.55680
USER: genes 4 Torsion [CB]-CG--CD-[NE] |==|  0.81501
USER: genes 5 Torsion [CG]-CD--NE-[CZ] |==|  0.63701
USER: genes 6 Torsion [N]-CA--C-[N] |==|  0.34448
USER: genes 7 Torsion [C]-N--CA-[CB] |==|  0.85772
USER: genes 8 Torsion [N]-CA--C-[OXT] |==|  0.12048
USER: genes 9 Torsion [N]-CA--CB-[OG] |==|  0.25433
USER: genes 10 Torsion [CA]-CB--OG-[HG] |==|  0.95269
USER: genes 11 Torsion [CB]-CA--N-[C] |==|  0.84635
USER: genes 12 Torsion [N]-C--CA-[N] |==|  0.89540
USER: genes 13 Torsion [C]-CA--N-[C] |==|  0.21650
USER: genes 14 Torsion [N]-C--CA-[N] |==|  0.15411
USER: genes 15 Torsion [C]-CA--CB-[CG2] |==|  0.50780
USER: genes 16 Torsion [C]-CA--N-[H1] |==|  0.50688
ROOT
ATOM      1  CA  ARG B   3      52.442  34.808   9.943  0.50 45.43 LIG 0.18  C 
ENDROOT
BRANCH 1 2
ATOM      2  CB  ARG B   3      53.871  34.981  10.383  0.50 45.40 LIG 0.04  C 
BRANCH 2 3
ATOM      3  CG  ARG B   3      54.000  34.715  11.844  0.50 45.00 LIG 0.02  C 
BRANCH 3 4
ATOM      4  CD  ARG B   3      55.232  35.329  12.404  0.50 44.41 LIG 0.14  C 
BRANCH 4 5
ATOM      5  NE  ARG B   3      56.395  34.665  11.843  0.50 44.18 LIG-0.23  N 
ATOM      6  CZ  ARG B   3      57.400  34.208  12.563  0.50 43.75 LIG 0.67  C 
ATOM      7  NH1 ARG B   3      58.423  33.627  11.967  0.50 44.03 LIG-0.23  N 
ATOM      8  NH2 ARG B   3      57.384  34.328  13.882  0.50 43.85 LIG-0.23  N 
ATOM      9 12HH ARG B   3      59.081  33.328  12.435  0.50 44.03 LIG 0.17  HD
ATOM     10 11HH ARG B   3      58.435  33.548  11.111  0.50 44.03 LIG 0.17  HD
ATOM     11 22HH ARG B   3      58.041  34.029  14.348  0.50 43.85 LIG 0.17  HD
ATOM     12 21HH ARG B   3      56.717  34.705  14.271  0.50 43.85 LIG 0.17  HD
ATOM     13 HE   ARG B   3      56.431  34.564  10.989  0.50 44.18 LIG 0.18  HD
ENDBRANCH 4 5
ENDBRANCH 3 4
ENDBRANCH 2 3
ENDBRANCH 1 2
BRANCH 1 14
ATOM     14  C   ARG B   3      51.494  35.158  11.075  0.50 45.62 LIG 0.24  C 
ATOM     15  N   SER B   4      50.902  34.112  11.640  0.50 45.72 LIG-0.34  N 
ATOM     16 H    SER B   4      51.074  33.295  11.432  0.50 45.72 LIG 0.16  HD
ATOM     17 O    ARG B   3      51.318  36.323  11.436  0.50 45.72 LIG-0.27  OA
BRANCH 15 18
ATOM     18  CA  SER B   4      49.894  34.265  12.675  0.50 45.84 LIG 0.21  C 
BRANCH 18 19
ATOM     19  C   SER B   4      48.582  34.821  12.134  0.50 45.90 LIG 0.20  C 
ATOM     20 O    SER B   4      47.965  35.694  12.745  0.50 45.95 LIG-0.65  OA
ATOM     21 OXT  SER B   4      48.104  34.408  11.079  0.50 46.05 LIG-0.65  OA
ENDBRANCH 18 19
BRANCH 18 22
ATOM     22  CB  SER B   4      50.439  35.186  13.765  0.50 45.85 LIG 0.20  C 
BRANCH 22 23
ATOM     23 OG   SER B   4      50.094  36.536  13.508  0.50 45.98 LIG-0.40  OA
ATOM     24 HG   SER B   4      49.862  36.618  12.705  0.50 45.98 LIG 0.21  HD
ENDBRANCH 22 23
ENDBRANCH 18 22
ENDBRANCH 15 18
ENDBRANCH 1 14
BRANCH 1 25
ATOM     25  N   ARG B   3      52.147  35.468   8.676  0.50 45.48 LIG-0.35  N 
ATOM     26 H    ARG B   3      51.815  34.975   8.055  0.50 45.48 LIG 0.16  HD
ATOM     27  C   ALA B   2      52.412  36.766   8.588  0.50 45.44 LIG 0.24  C 
ATOM     28 O    ALA B   2      52.785  37.408   9.565  0.50 45.54 LIG-0.27  OA
BRANCH 27 29
ATOM     29  CA  ALA B   2      52.242  37.474   7.255  0.50 45.45 LIG 0.17  C 
ATOM     30  CB  ALA B   2      50.811  37.764   6.994  0.50 45.48 LIG 0.04  C 
BRANCH 29 31
ATOM     31  N   ALA B   2      52.687  36.513   6.281  0.50 45.47 LIG-0.35  N 
ATOM     32 H    ALA B   2      53.479  36.668   5.984  0.50 45.47 LIG 0.16  HD
ATOM     33  C   VAL B   1      51.956  35.489   5.878  0.50 45.44 LIG 0.25  C 
ATOM     34 O    VAL B   1      50.948  35.100   6.465  0.50 45.56 LIG-0.27  OA
BRANCH 33 35
ATOM     35  CA  VAL B   1      52.554  34.719   4.712  0.50 45.37 LIG 0.28  C 
BRANCH 35 36
ATOM     36  CB  VAL B   1      51.650  33.537   4.302  0.50 45.32 LIG 0.02  C 
ATOM     37  CG2 VAL B   1      52.277  32.709   3.168  0.50 45.23 LIG 0.01  C 
ATOM     38  CG1 VAL B   1      50.278  34.047   3.945  0.50 45.24 LIG 0.01  C 
ENDBRANCH 35 36
BRANCH 35 39
ATOM     39  N   VAL B   1      53.932  34.265   5.049  0.50 45.40 LIG-0.07  N 
ATOM     40 H3   VAL B   1      53.900  33.707   5.742  0.50 45.40 LIG 0.28  HD
ATOM     41 H1   VAL B   1      54.286  33.847   4.348  0.50 45.40 LIG 0.28  HD
ATOM     42 H2   VAL B   1      54.434  34.969   5.259  0.50 45.40 LIG 0.28  HD
ENDBRANCH 35 39
ENDBRANCH 33 35
ENDBRANCH 29 31
ENDBRANCH 27 29
ENDBRANCH 1 25
TORSDOF 15
ENDMDL
MODEL 22
USER: ADFR SOLUTION from run 158
USER: SCORE 14.085895 LL:  -2.109 LR: -12.521 RR:   0.000 FEB:  -8.046
USER: RMSD 9.243238
USER: SEED 157
USER: STATUS no improvement in best 4 clusters for 5 generations
USER: GENES 17
USER: genes 0 Translation |==|  0.56764 0.29460 0.61614
USER: genes 1 Rotation |==|  0.57609 0.11012 0.75671 0.66218
USER: genes 2 Torsion [C]-CA--CB-[CG] |==|  0.46278
USER: genes 3 Torsion [CA]-CB--CG-[CD] |==|  0.68418
USER: genes 4 Torsion [CB]-CG--CD-[NE] |==|  0.33618
USER: genes 5 Torsion [CG]-CD--NE-[CZ] |==|  0.43507
USER: genes 6 Torsion [N]-CA--C-[N] |==|  0.20275
USER: genes 7 Torsion [C]-N--CA-[CB] |==|  0.84177
USER: genes 8 Torsion [N]-CA--C-[OXT] |==|  0.08016
USER: genes 9 Torsion [N]-CA--CB-[OG] |==|  0.64154
USER: genes 10 Torsion [CA]-CB--OG-[HG] |==|  0.65227
USER: genes 11 Torsion [CB]-CA--N-[C] |==|  0.77778
USER: genes 12 Torsion [N]-C--CA-[N] |==|  0.17277
USER: genes 13 Torsion [C]-CA--N-[C] |==|  0.77920
USER: genes 14 Torsion [N]-C--CA-[N] |==|  0.43241
USER: genes 15 Torsion [C]-CA--CB-[CG2] |==|  0.42401
USER: genes 16 Torsion [C]-CA--N-[H1] |==|  0.31405
ROOT
ATOM      1  CA  ARG B   3      55.259  35.228  12.064  0.50 45.43 LIG 0.18  C 
ENDROOT
BRANCH 1 2
ATOM      2  CB  ARG B   3      56.399  35.581  12.981  0.50 45.40 LIG 0.04  C 
BRANCH 2 3
ATOM      3  CG  ARG B   3      57.695  35.136  12.393  0.50 45.00 LIG 0.02  C 
BRANCH 3 4
ATOM      4  CD  ARG B   3      58.318  34.056  13.202  0.50 44.41 LIG 0.14  C 
BRANCH 4 5
ATOM      5  NE  ARG B   3      58.495  32.878  12.371  0.50 44.18 LIG-0.23  N 
ATOM      6  CZ  ARG B   3      59.382  31.933  12.614  0.50 43.75 LIG 0.67  C 
ATOM      7  NH1 ARG B   3      59.481  30.901  11.798  0.50 44.03 LIG-0.23  N 
ATOM      8  NH2 ARG B   3      60.170  32.015  13.675  0.50 43.85 LIG-0.23  N 
ATOM      9 12HH ARG B   3      60.059  30.284  11.954  0.50 44.03 LIG 0.17  HD
ATOM     10 11HH ARG B   3      58.969  30.846  11.110  0.50 44.03 LIG 0.17  HD
ATOM     11 22HH ARG B   3      60.747  31.397  13.829  0.50 43.85 LIG 0.17  HD
ATOM     12 21HH ARG B   3      60.105  32.686  14.208  0.50 43.85 LIG 0.17  HD
ATOM     13 HE   ARG B   3      57.991  32.791  11.680  0.50 44.18 LIG 0.18  HD
ENDBRANCH 4 5
ENDBRANCH 3 4
ENDBRANCH 2 3
ENDBRANCH 1 2
BRANCH 1 14
ATOM     14  C   ARG B   3      53.934  35.375  12.789  0.50 45.62 LIG 0.24  C 
ATOM     15  N   SER B   4      52.938  34.672  12.261  0.50 45.72 LIG-0.34  N 
ATOM     16 H    SER B   4      53.033  34.129  11.601  0.50 45.72 LIG 0.16  HD
ATOM     17 O    ARG B   3      53.818  36.080  13.792  0.50 45.72 LIG-0.27  OA
BRANCH 15 18
ATOM     18  CA  SER B   4      51.580  34.763  12.767  0.50 45.84 LIG 0.21  C 
BRANCH 18 19
ATOM     19  C   SER B   4      50.972  36.146  12.558  0.50 45.90 LIG 0.20  C 
ATOM     20 O    SER B   4      50.110  36.580  13.323  0.50 45.95 LIG-0.65  OA
ATOM     21 OXT  SER B   4      51.321  36.858  11.618  0.50 46.05 LIG-0.65  OA
ENDBRANCH 18 19
BRANCH 18 22
ATOM     22  CB  SER B   4      51.580  34.414  14.254  0.50 45.85 LIG 0.20  C 
BRANCH 22 23
ATOM     23 OG   SER B   4      50.602  33.430  14.543  0.50 45.98 LIG-0.40  OA
ATOM     24 HG   SER B   4      50.093  33.710  15.150  0.50 45.98 LIG 0.21  HD
ENDBRANCH 22 23
ENDBRANCH 18 22
ENDBRANCH 15 18
ENDBRANCH 1 14
BRANCH 1 25
ATOM     25  N   ARG B   3      55.326  35.908  10.775  0.50 45.48 LIG-0.35  N 
ATOM     26 H    ARG B   3      55.636  35.451  10.116  0.50 45.48 LIG 0.16  HD
ATOM     27  C   ALA B   2      54.906  37.167  10.727  0.50 45.44 LIG 0.24  C 
ATOM     28 O    ALA B   2      54.379  37.701  11.697  0.50 45.54 LIG-0.27  OA
BRANCH 27 29
ATOM     29  CA  ALA B   2      55.071  37.960   9.441  0.50 45.45 LIG 0.17  C 
ATOM     30  CB  ALA B   2      54.501  39.321   9.588  0.50 45.48 LIG 0.04  C 
BRANCH 29 31
ATOM     31  N   ALA B   2      54.277  37.245   8.477  0.50 45.47 LIG-0.35  N 
ATOM     32 H    ALA B   2      53.508  37.603   8.334  0.50 45.47 LIG 0.16  HD
ATOM     33  C   VAL B   1      54.683  36.146   7.867  0.50 45.44 LIG 0.25  C 
ATOM     34 O    VAL B   1      55.853  35.767   7.856  0.50 45.56 LIG-0.27  OA
BRANCH 33 35
ATOM     35  CA  VAL B   1      53.609  35.464   7.036  0.50 45.37 LIG 0.28  C 
BRANCH 35 36
ATOM     36  CB  VAL B   1      52.667  34.622   7.923  0.50 45.32 LIG 0.02  C 
ATOM     37  CG2 VAL B   1      51.268  34.491   7.302  0.50 45.23 LIG 0.01  C 
ATOM     38  CG1 VAL B   1      52.623  35.205   9.312  0.50 45.24 LIG 0.01  C 
ENDBRANCH 35 36
BRANCH 35 39
ATOM     39  N   VAL B   1      54.235  34.640   5.964  0.50 45.40 LIG-0.07  N 
ATOM     40 H3   VAL B   1      55.113  34.784   5.953  0.50 45.40 LIG 0.28  HD
ATOM     41 H1   VAL B   1      54.078  33.779   6.122  0.50 45.40 LIG 0.28  HD
ATOM     42 H2   VAL B   1      53.888  34.864   5.176  0.50 45.40 LIG 0.28  HD
ENDBRANCH 35 39
ENDBRANCH 33 35
ENDBRANCH 29 31
ENDBRANCH 27 29
ENDBRANCH 1 25
TORSDOF 15
ENDMDL
MODEL 23
USER: ADFR SOLUTION from run 104
USER: SCORE 13.279574 LL:  -1.787 LR: -12.493 RR:   0.000 FEB:  -8.018
USER: RMSD 9.371684
USER: SEED 103
USER: STATUS no improvement in best 7 clusters for 5 generations
USER: GENES 17
USER: genes 0 Translation |==|  0.56661 0.29500 0.61405
USER: genes 1 Rotation |==|  0.53784 0.13095 0.77391 0.69324
USER: genes 2 Torsion [C]-CA--CB-[CG] |==|  0.29980
USER: genes 3 Torsion [CA]-CB--CG-[CD] |==|  0.31235
USER: genes 4 Torsion [CB]-CG--CD-[NE] |==|  0.64351
USER: genes 5 Torsion [CG]-CD--NE-[CZ] |==|  0.63960
USER: genes 6 Torsion [N]-CA--C-[N] |==|  0.30025
USER: genes 7 Torsion [C]-N--CA-[CB] |==|  0.80472
USER: genes 8 Torsion [N]-CA--C-[OXT] |==|  0.12640
USER: genes 9 Torsion [N]-CA--CB-[OG] |==|  0.95557
USER: genes 10 Torsion [CA]-CB--OG-[HG] |==|  0.25991
USER: genes 11 Torsion [CB]-CA--N-[C] |==|  0.51111
USER: genes 12 Torsion [N]-C--CA-[N] |==|  0.02530
USER: genes 13 Torsion [C]-CA--N-[C] |==|  0.68336
USER: genes 14 Torsion [N]-C--CA-[N] |==|  0.14383
USER: genes 15 Torsion [C]-CA--CB-[CG2] |==|  0.63138
USER: genes 16 Torsion [C]-CA--N-[H1] |==|  0.23398
ROOT
ATOM      1  CA  ARG B   3      55.228  35.240  12.001  0.50 45.43 LIG 0.18  C 
ENDROOT
BRANCH 1 2
ATOM      2  CB  ARG B   3      56.450  35.561  12.820  0.50 45.40 LIG 0.04  C 
BRANCH 2 3
ATOM      3  CG  ARG B   3      57.031  34.315  13.397  0.50 45.00 LIG 0.02  C 
BRANCH 3 4
ATOM      4  CD  ARG B   3      58.356  34.005  12.801  0.50 44.41 LIG 0.14  C 
BRANCH 4 5
ATOM      5  NE  ARG B   3      58.359  32.632  12.330  0.50 44.18 LIG-0.23  N 
ATOM      6  CZ  ARG B   3      59.298  31.755  12.625  0.50 43.75 LIG 0.67  C 
ATOM      7  NH1 ARG B   3      59.226  30.529  12.143  0.50 44.03 LIG-0.23  N 
ATOM      8  NH2 ARG B   3      60.311  32.100  13.405  0.50 43.85 LIG-0.23  N 
ATOM      9 12HH ARG B   3      59.838  29.955  12.334  0.50 44.03 LIG 0.17  HD
ATOM     10 11HH ARG B   3      58.569  30.304  11.637  0.50 44.03 LIG 0.17  HD
ATOM     11 22HH ARG B   3      60.922  31.525  13.595  0.50 43.85 LIG 0.17  HD
ATOM     12 21HH ARG B   3      60.358  32.898  13.721  0.50 43.85 LIG 0.17  HD
ATOM     13 HE   ARG B   3      57.709  32.374  11.829  0.50 44.18 LIG 0.18  HD
ENDBRANCH 4 5
ENDBRANCH 3 4
ENDBRANCH 2 3
ENDBRANCH 1 2
BRANCH 1 14
ATOM     14  C   ARG B   3      53.973  35.699  12.721  0.50 45.62 LIG 0.24  C 
ATOM     15  N   SER B   4      53.086  34.737  12.946  0.50 45.72 LIG-0.34  N 
ATOM     16 H    SER B   4      53.221  33.908  12.758  0.50 45.72 LIG 0.16  HD
ATOM     17 O    ARG B   3      53.820  36.869  13.074  0.50 45.72 LIG-0.27  OA
BRANCH 15 18
ATOM     18  CA  SER B   4      51.789  35.011  13.539  0.50 45.84 LIG 0.21  C 
BRANCH 18 19
ATOM     19  C   SER B   4      51.041  36.125  12.816  0.50 45.90 LIG 0.20  C 
ATOM     20 O    SER B   4      50.476  37.021  13.446  0.50 45.95 LIG-0.65  OA
ATOM     21 OXT  SER B   4      50.977  36.156  11.588  0.50 46.05 LIG-0.65  OA
ENDBRANCH 18 19
BRANCH 18 22
ATOM     22  CB  SER B   4      51.984  35.382  15.007  0.50 45.85 LIG 0.20  C 
BRANCH 22 23
ATOM     23 OG   SER B   4      53.274  35.006  15.459  0.50 45.98 LIG-0.40  OA
ATOM     24 HG   SER B   4      53.799  35.656  15.377  0.50 45.98 LIG 0.21  HD
ENDBRANCH 22 23
ENDBRANCH 18 22
ENDBRANCH 15 18
ENDBRANCH 1 14
BRANCH 1 25
ATOM     25  N   ARG B   3      55.332  35.686  10.616  0.50 45.48 LIG-0.35  N 
ATOM     26 H    ARG B   3      56.082  36.034  10.381  0.50 45.48 LIG 0.16  HD
ATOM     27  C   ALA B   2      54.268  35.517   9.839  0.50 45.44 LIG 0.24  C 
ATOM     28 O    ALA B   2      53.279  34.911  10.237  0.50 45.54 LIG-0.27  OA
BRANCH 27 29
ATOM     29  CA  ALA B   2      54.279  36.077   8.427  0.50 45.45 LIG 0.17  C 
ATOM     30  CB  ALA B   2      53.979  35.012   7.439  0.50 45.48 LIG 0.04  C 
BRANCH 29 31
ATOM     31  N   ALA B   2      55.638  36.505   8.223  0.50 45.47 LIG-0.35  N 
ATOM     32 H    ALA B   2      56.203  35.857   8.215  0.50 45.47 LIG 0.16  HD
ATOM     33  C   VAL B   1      55.990  37.768   8.066  0.50 45.44 LIG 0.25  C 
ATOM     34 O    VAL B   1      55.192  38.671   7.818  0.50 45.56 LIG-0.27  OA
BRANCH 33 35
ATOM     35  CA  VAL B   1      57.492  37.998   8.055  0.50 45.37 LIG 0.28  C 
BRANCH 35 36
ATOM     36  CB  VAL B   1      57.829  39.477   7.770  0.50 45.32 LIG 0.02  C 
ATOM     37  CG2 VAL B   1      58.922  39.615   6.698  0.50 45.23 LIG 0.01  C 
ATOM     38  CG1 VAL B   1      58.200  40.170   9.056  0.50 45.24 LIG 0.01  C 
ENDBRANCH 35 36
BRANCH 35 39
ATOM     39  N   VAL B   1      58.144  37.087   7.073  0.50 45.40 LIG-0.07  N 
ATOM     40 H3   VAL B   1      57.721  36.304   7.067  0.50 45.40 LIG 0.28  HD
ATOM     41 H1   VAL B   1      58.106  37.451   6.261  0.50 45.40 LIG 0.28  HD
ATOM     42 H2   VAL B   1      58.995  36.962   7.302  0.50 45.40 LIG 0.28  HD
ENDBRANCH 35 39
ENDBRANCH 33 35
ENDBRANCH 29 31
ENDBRANCH 27 29
ENDBRANCH 1 25
TORSDOF 15
ENDMDL
MODEL 24
USER: ADFR SOLUTION from run 96
USER: SCORE 14.198649 LL:  -2.156 LR: -12.483 RR:   0.000 FEB:  -8.008
USER: RMSD 9.838727
USER: SEED 95
USER: STATUS no improvement in best 8 clusters for 5 generations
USER: GENES 17
USER: genes 0 Translation |==|  0.49066 0.28372 0.60683
USER: genes 1 Rotation |==|  0.47966 0.19206 0.88628 0.57452
USER: genes 2 Torsion [C]-CA--CB-[CG] |==|  0.29437
USER: genes 3 Torsion [CA]-CB--CG-[CD] |==|  0.34960
USER: genes 4 Torsion [CB]-CG--CD-[NE] |==|  0.77273
USER: genes 5 Torsion [CG]-CD--NE-[CZ] |==|  0.29097
USER: genes 6 Torsion [N]-CA--C-[N] |==|  0.37212
USER: genes 7 Torsion [C]-N--CA-[CB] |==|  0.46103
USER: genes 8 Torsion [N]-CA--C-[OXT] |==|  0.95398
USER: genes 9 Torsion [N]-CA--CB-[OG] |==|  0.01976
USER: genes 10 Torsion [CA]-CB--OG-[HG] |==|  0.18020
USER: genes 11 Torsion [CB]-CA--N-[C] |==|  0.84762
USER: genes 12 Torsion [N]-C--CA-[N] |==|  0.30935
USER: genes 13 Torsion [C]-CA--N-[C] |==|  0.67541
USER: genes 14 Torsion [N]-C--CA-[N] |==|  0.22720
USER: genes 15 Torsion [C]-CA--CB-[CG2] |==|  0.72397
USER: genes 16 Torsion [C]-CA--N-[H1] |==|  0.13243
ROOT
ATOM      1  CA  ARG B   3      52.950  34.902  11.785  0.50 45.43 LIG 0.18  C 
ENDROOT
BRANCH 1 2
ATOM      2  CB  ARG B   3      53.589  35.968  12.634  0.50 45.40 LIG 0.04  C 
BRANCH 2 3
ATOM      3  CG  ARG B   3      53.978  35.411  13.961  0.50 45.00 LIG 0.02  C 
BRANCH 3 4
ATOM      4  CD  ARG B   3      55.414  35.656  14.256  0.50 44.41 LIG 0.14  C 
BRANCH 4 5
ATOM      5  NE  ARG B   3      56.217  34.646  13.590  0.50 44.18 LIG-0.23  N 
ATOM      6  CZ  ARG B   3      56.926  34.871  12.501  0.50 43.75 LIG 0.67  C 
ATOM      7  NH1 ARG B   3      57.618  33.890  11.955  0.50 44.03 LIG-0.23  N 
ATOM      8  NH2 ARG B   3      56.945  36.077  11.955  0.50 43.85 LIG-0.23  N 
ATOM      9 12HH ARG B   3      58.081  34.034  11.244  0.50 44.03 LIG 0.17  HD
ATOM     10 11HH ARG B   3      57.607  33.107  12.309  0.50 44.03 LIG 0.17  HD
ATOM     11 22HH ARG B   3      57.408  36.219  11.245  0.50 43.85 LIG 0.17  HD
ATOM     12 21HH ARG B   3      56.495  36.717  12.310  0.50 43.85 LIG 0.17  HD
ATOM     13 HE   ARG B   3      56.233  33.855  13.926  0.50 44.18 LIG 0.18  HD
ENDBRANCH 4 5
ENDBRANCH 3 4
ENDBRANCH 2 3
ENDBRANCH 1 2
BRANCH 1 14
ATOM     14  C   ARG B   3      51.451  35.123  11.698  0.50 45.62 LIG 0.24  C 
ATOM     15  N   SER B   4      50.739  34.404  12.559  0.50 45.72 LIG-0.34  N 
ATOM     16 H    SER B   4      51.086  33.896  13.160  0.50 45.72 LIG 0.16  HD
ATOM     17 O    ARG B   3      50.959  35.920  10.900  0.50 45.72 LIG-0.27  OA
BRANCH 15 18
ATOM     18  CA  SER B   4      49.286  34.419  12.556  0.50 45.84 LIG 0.21  C 
BRANCH 18 19
ATOM     19  C   SER B   4      48.715  35.731  13.080  0.50 45.90 LIG 0.20  C 
ATOM     20 O    SER B   4      47.542  36.041  12.865  0.50 45.95 LIG-0.65  OA
ATOM     21 OXT  SER B   4      49.411  36.515  13.724  0.50 46.05 LIG-0.65  OA
ENDBRANCH 18 19
BRANCH 18 22
ATOM     22  CB  SER B   4      48.777  33.254  13.401  0.50 45.85 LIG 0.20  C 
BRANCH 22 23
ATOM     23 OG   SER B   4      49.847  32.605  14.068  0.50 45.98 LIG-0.40  OA
ATOM     24 HG   SER B   4      50.194  33.134  14.620  0.50 45.98 LIG 0.21  HD
ENDBRANCH 22 23
ENDBRANCH 18 22
ENDBRANCH 15 18
ENDBRANCH 1 14
BRANCH 1 25
ATOM     25  N   ARG B   3      53.612  34.718  10.498  0.50 45.48 LIG-0.35  N 
ATOM     26 H    ARG B   3      53.875  33.920  10.313  0.50 45.48 LIG 0.16  HD
ATOM     27  C   ALA B   2      53.754  35.789   9.726  0.50 45.44 LIG 0.24  C 
ATOM     28 O    ALA B   2      53.251  36.865  10.030  0.50 45.54 LIG-0.27  OA
BRANCH 27 29
ATOM     29  CA  ALA B   2      54.547  35.678   8.435  0.50 45.45 LIG 0.17  C 
ATOM     30  CB  ALA B   2      55.513  36.797   8.315  0.50 45.48 LIG 0.04  C 
BRANCH 29 31
ATOM     31  N   ALA B   2      53.562  35.826   7.397  0.50 45.47 LIG-0.35  N 
ATOM     32 H    ALA B   2      53.174  36.594   7.400  0.50 45.47 LIG 0.16  HD
ATOM     33  C   VAL B   1      53.274  34.879   6.522  0.50 45.44 LIG 0.25  C 
ATOM     34 O    VAL B   1      53.980  33.890   6.334  0.50 45.56 LIG-0.27  OA
BRANCH 33 35
ATOM     35  CA  VAL B   1      52.074  35.190   5.642  0.50 45.37 LIG 0.28  C 
BRANCH 35 36
ATOM     36  CB  VAL B   1      51.401  33.895   5.139  0.50 45.32 LIG 0.02  C 
ATOM     37  CG2 VAL B   1      51.830  33.553   3.703  0.50 45.23 LIG 0.01  C 
ATOM     38  CG1 VAL B   1      49.905  34.015   5.275  0.50 45.24 LIG 0.01  C 
ENDBRANCH 35 36
BRANCH 35 39
ATOM     39  N   VAL B   1      52.480  36.072   4.513  0.50 45.40 LIG-0.07  N 
ATOM     40 H3   VAL B   1      52.641  36.892   4.819  0.50 45.40 LIG 0.28  HD
ATOM     41 H1   VAL B   1      53.217  35.748   4.133  0.50 45.40 LIG 0.28  HD
ATOM     42 H2   VAL B   1      51.826  36.104   3.911  0.50 45.40 LIG 0.28  HD
ENDBRANCH 35 39
ENDBRANCH 33 35
ENDBRANCH 29 31
ENDBRANCH 27 29
ENDBRANCH 1 25
TORSDOF 15
ENDMDL
MODEL 25
USER: ADFR SOLUTION from run 144
USER: SCORE 14.274724 LL:  -2.116 LR: -12.428 RR:   0.000 FEB:  -7.953
USER: RMSD 8.943824
USER: SEED 143
USER: STATUS no improvement in best 7 clusters for 5 generations
USER: GENES 17
USER: genes 0 Translation |==|  0.48975 0.29003 0.53719
USER: genes 1 Rotation |==|  0.58340 0.08959 0.73232 0.64366
USER: genes 2 Torsion [C]-CA--CB-[CG] |==|  0.04691
USER: genes 3 Torsion [CA]-CB--CG-[CD] |==|  0.49008
USER: genes 4 Torsion [CB]-CG--CD-[NE] |==|  0.84854
USER: genes 5 Torsion [CG]-CD--NE-[CZ] |==|  0.28535
USER: genes 6 Torsion [N]-CA--C-[N] |==|  0.35900
USER: genes 7 Torsion [C]-N--CA-[CB] |==|  0.44768
USER: genes 8 Torsion [N]-CA--C-[OXT] |==|  0.75597
USER: genes 9 Torsion [N]-CA--CB-[OG] |==|  0.85591
USER: genes 10 Torsion [CA]-CB--OG-[HG] |==|  0.28260
USER: genes 11 Torsion [CB]-CA--N-[C] |==|  0.83868
USER: genes 12 Torsion [N]-C--CA-[N] |==|  0.08116
USER: genes 13 Torsion [C]-CA--N-[C] |==|  0.17757
USER: genes 14 Torsion [N]-C--CA-[N] |==|  0.02311
USER: genes 15 Torsion [C]-CA--CB-[CG2] |==|  0.20884
USER: genes 16 Torsion [C]-CA--N-[H1] |==|  0.83491
ROOT
ATOM      1  CA  ARG B   3      52.923  35.091   9.696  0.50 45.43 LIG 0.18  C 
ENDROOT
BRANCH 1 2
ATOM      2  CB  ARG B   3      54.005  35.328  10.714  0.50 45.40 LIG 0.04  C 
BRANCH 2 3
ATOM      3  CG  ARG B   3      53.477  35.115  12.092  0.50 45.00 LIG 0.02  C 
BRANCH 3 4
ATOM      4  CD  ARG B   3      54.546  35.259  13.114  0.50 44.41 LIG 0.14  C 
BRANCH 4 5
ATOM      5  NE  ARG B   3      55.645  34.368  12.787  0.50 44.18 LIG-0.23  N 
ATOM      6  CZ  ARG B   3      56.774  34.765  12.233  0.50 43.75 LIG 0.67  C 
ATOM      7  NH1 ARG B   3      57.715  33.883  11.958  0.50 44.03 LIG-0.23  N 
ATOM      8  NH2 ARG B   3      56.966  36.045  11.955  0.50 43.85 LIG-0.23  N 
ATOM      9 12HH ARG B   3      58.453  34.140  11.597  0.50 44.03 LIG 0.17  HD
ATOM     10 11HH ARG B   3      57.592  33.052  12.139  0.50 44.03 LIG 0.17  HD
ATOM     11 22HH ARG B   3      57.703  36.300  11.594  0.50 43.85 LIG 0.17  HD
ATOM     12 21HH ARG B   3      56.353  36.621  12.135  0.50 43.85 LIG 0.17  HD
ATOM     13 HE   ARG B   3      55.554  33.531  12.964  0.50 44.18 LIG 0.18  HD
ENDBRANCH 4 5
ENDBRANCH 3 4
ENDBRANCH 2 3
ENDBRANCH 1 2
BRANCH 1 14
ATOM     14  C   ARG B   3      51.558  35.119  10.359  0.50 45.62 LIG 0.24  C 
ATOM     15  N   SER B   4      51.030  33.920  10.581  0.50 45.72 LIG-0.34  N 
ATOM     16 H    SER B   4      51.440  33.180  10.422  0.50 45.72 LIG 0.16  HD
ATOM     17 O    ARG B   3      51.011  36.177  10.672  0.50 45.72 LIG-0.27  OA
BRANCH 15 18
ATOM     18  CA  SER B   4      49.692  33.757  11.122  0.50 45.84 LIG 0.21  C 
BRANCH 18 19
ATOM     19  C   SER B   4      49.634  34.025  12.622  0.50 45.90 LIG 0.20  C 
ATOM     20 O    SER B   4      49.376  35.150  13.054  0.50 45.95 LIG-0.65  OA
ATOM     21 OXT  SER B   4      49.848  33.129  13.436  0.50 46.05 LIG-0.65  OA
ENDBRANCH 18 19
BRANCH 18 22
ATOM     22  CB  SER B   4      49.206  32.341  10.826  0.50 45.85 LIG 0.20  C 
BRANCH 22 23
ATOM     23 OG   SER B   4      49.347  32.033   9.449  0.50 45.98 LIG-0.40  OA
ATOM     24 HG   SER B   4      50.027  31.554   9.338  0.50 45.98 LIG 0.21  HD
ENDBRANCH 22 23
ENDBRANCH 18 22
ENDBRANCH 15 18
ENDBRANCH 1 14
BRANCH 1 25
ATOM     25  N   ARG B   3      53.044  35.945   8.519  0.50 45.48 LIG-0.35  N 
ATOM     26 H    ARG B   3      53.115  35.544   7.761  0.50 45.48 LIG 0.16  HD
ATOM     27  C   ALA B   2      53.035  37.258   8.714  0.50 45.44 LIG 0.24  C 
ATOM     28 O    ALA B   2      52.822  37.736   9.823  0.50 45.54 LIG-0.27  OA
BRANCH 27 29
ATOM     29  CA  ALA B   2      53.285  38.189   7.539  0.50 45.45 LIG 0.17  C 
ATOM     30  CB  ALA B   2      52.481  39.428   7.672  0.50 45.48 LIG 0.04  C 
BRANCH 29 31
ATOM     31  N   ALA B   2      52.797  37.461   6.398  0.50 45.47 LIG-0.35  N 
ATOM     32 H    ALA B   2      53.411  37.265   5.829  0.50 45.47 LIG 0.16  HD
ATOM     33  C   VAL B   1      51.531  37.123   6.233  0.50 45.44 LIG 0.25  C 
ATOM     34 O    VAL B   1      50.695  37.159   7.134  0.50 45.56 LIG-0.27  OA
BRANCH 33 35
ATOM     35  CA  VAL B   1      51.219  36.527   4.870  0.50 45.37 LIG 0.28  C 
BRANCH 35 36
ATOM     36  CB  VAL B   1      50.380  35.238   5.003  0.50 45.32 LIG 0.02  C 
ATOM     37  CG2 VAL B   1      48.916  35.546   5.354  0.50 45.23 LIG 0.01  C 
ATOM     38  CG1 VAL B   1      51.025  34.314   6.004  0.50 45.24 LIG 0.01  C 
ENDBRANCH 35 36
BRANCH 35 39
ATOM     39  N   VAL B   1      52.480  36.285   4.115  0.50 45.40 LIG-0.07  N 
ATOM     40 H3   VAL B   1      52.287  35.944   3.315  0.50 45.40 LIG 0.28  HD
ATOM     41 H1   VAL B   1      52.916  37.054   4.011  0.50 45.40 LIG 0.28  HD
ATOM     42 H2   VAL B   1      52.991  35.713   4.565  0.50 45.40 LIG 0.28  HD
ENDBRANCH 35 39
ENDBRANCH 33 35
ENDBRANCH 29 31
ENDBRANCH 27 29
ENDBRANCH 1 25
TORSDOF 15
ENDMDL
MODEL 26
USER: ADFR SOLUTION from run 136
USER: SCORE 12.761213 LL:  -2.147 LR: -12.415 RR:   0.000 FEB:  -7.940
USER: RMSD 14.192643
USER: SEED 135
USER: STATUS no improvement in best 6 clusters for 5 generations
USER: GENES 17
USER: genes 0 Translation |==|  0.30427 0.13938 0.38612
USER: genes 1 Rotation |==|  0.54429 0.93146 0.25589 0.54781
USER: genes 2 Torsion [C]-CA--CB-[CG] |==|  0.37413
USER: genes 3 Torsion [CA]-CB--CG-[CD] |==|  0.40188
USER: genes 4 Torsion [CB]-CG--CD-[NE] |==|  0.58806
USER: genes 5 Torsion [CG]-CD--NE-[CZ] |==|  0.58549
USER: genes 6 Torsion [N]-CA--C-[N] |==|  0.46038
USER: genes 7 Torsion [C]-N--CA-[CB] |==|  0.45218
USER: genes 8 Torsion [N]-CA--C-[OXT] |==|  0.47728
USER: genes 9 Torsion [N]-CA--CB-[OG] |==|  0.68990
USER: genes 10 Torsion [CA]-CB--OG-[HG] |==|  0.84316
USER: genes 11 Torsion [CB]-CA--N-[C] |==|  0.44798
USER: genes 12 Torsion [N]-C--CA-[N] |==|  0.09570
USER: genes 13 Torsion [C]-CA--N-[C] |==|  0.53333
USER: genes 14 Torsion [N]-C--CA-[N] |==|  0.42460
USER: genes 15 Torsion [C]-CA--CB-[CG2] |==|  0.32232
USER: genes 16 Torsion [C]-CA--N-[H1] |==|  0.79406
ROOT
ATOM      1  CA  ARG B   3      47.358  30.571   5.164  0.50 45.43 LIG 0.18  C 
ENDROOT
BRANCH 1 2
ATOM      2  CB  ARG B   3      47.201  30.801   6.643  0.50 45.40 LIG 0.04  C 
BRANCH 2 3
ATOM      3  CG  ARG B   3      47.952  29.768   7.411  0.50 45.00 LIG 0.02  C 
BRANCH 3 4
ATOM      4  CD  ARG B   3      48.539  30.331   8.655  0.50 44.41 LIG 0.14  C 
BRANCH 4 5
ATOM      5  NE  ARG B   3      49.778  29.637   8.956  0.50 44.18 LIG-0.23  N 
ATOM      6  CZ  ARG B   3      50.235  29.445  10.178  0.50 43.75 LIG 0.67  C 
ATOM      7  NH1 ARG B   3      51.378  28.813  10.359  0.50 44.03 LIG-0.23  N 
ATOM      8  NH2 ARG B   3      49.549  29.882  11.223  0.50 43.85 LIG-0.23  N 
ATOM      9 12HH ARG B   3      51.679  28.687  11.155  0.50 44.03 LIG 0.17  HD
ATOM     10 11HH ARG B   3      51.824  28.528   9.681  0.50 44.03 LIG 0.17  HD
ATOM     11 22HH ARG B   3      49.850  29.755  12.018  0.50 43.85 LIG 0.17  HD
ATOM     12 21HH ARG B   3      48.803  30.293  11.106  0.50 43.85 LIG 0.17  HD
ATOM     13 HE   ARG B   3      50.242  29.333   8.299  0.50 44.18 LIG 0.18  HD
ENDBRANCH 4 5
ENDBRANCH 3 4
ENDBRANCH 2 3
ENDBRANCH 1 2
BRANCH 1 14
ATOM     14  C   ARG B   3      46.017  30.696   4.465  0.50 45.62 LIG 0.24  C 
ATOM     15  N   SER B   4      45.131  29.767   4.807  0.50 45.72 LIG-0.34  N 
ATOM     16 H    SER B   4      45.269  29.175   5.415  0.50 45.72 LIG 0.16  HD
ATOM     17 O    ARG B   3      45.786  31.601   3.662  0.50 45.72 LIG-0.27  OA
BRANCH 15 18
ATOM     18  CA  SER B   4      43.828  29.676   4.171  0.50 45.84 LIG 0.21  C 
BRANCH 18 19
ATOM     19  C   SER B   4      42.871  30.764   4.643  0.50 45.90 LIG 0.20  C 
ATOM     20 O    SER B   4      43.167  31.502   5.585  0.50 45.95 LIG-0.65  OA
ATOM     21 OXT  SER B   4      41.779  30.930   4.102  0.50 46.05 LIG-0.65  OA
ENDBRANCH 18 19
BRANCH 18 22
ATOM     22  CB  SER B   4      43.233  28.299   4.455  0.50 45.85 LIG 0.20  C 
BRANCH 22 23
ATOM     23 OG   SER B   4      43.167  27.521   3.272  0.50 45.98 LIG-0.40  OA
ATOM     24 HG   SER B   4      42.725  27.934   2.690  0.50 45.98 LIG 0.21  HD
ENDBRANCH 22 23
ENDBRANCH 18 22
ENDBRANCH 15 18
ENDBRANCH 1 14
BRANCH 1 25
ATOM     25  N   ARG B   3      48.429  31.364   4.569  0.50 45.48 LIG-0.35  N 
ATOM     26 H    ARG B   3      48.697  32.046   5.020  0.50 45.48 LIG 0.16  HD
ATOM     27  C   ALA B   2      48.898  30.970   3.391  0.50 45.44 LIG 0.24  C 
ATOM     28 O    ALA B   2      48.526  29.922   2.875  0.50 45.54 LIG-0.27  OA
BRANCH 27 29
ATOM     29  CA  ALA B   2      49.923  31.830   2.671  0.50 45.45 LIG 0.17  C 
ATOM     30  CB  ALA B   2      50.811  30.992   1.829  0.50 45.48 LIG 0.04  C 
BRANCH 29 31
ATOM     31  N   ALA B   2      50.717  32.399   3.728  0.50 45.47 LIG-0.35  N 
ATOM     32 H    ALA B   2      50.579  32.034   4.494  0.50 45.47 LIG 0.16  HD
ATOM     33  C   VAL B   1      51.576  33.386   3.546  0.50 45.44 LIG 0.25  C 
ATOM     34 O    VAL B   1      51.977  33.744   2.440  0.50 45.56 LIG-0.27  OA
BRANCH 33 35
ATOM     35  CA  VAL B   1      52.159  33.947   4.832  0.50 45.37 LIG 0.28  C 
BRANCH 35 36
ATOM     36  CB  VAL B   1      51.207  34.980   5.473  0.50 45.32 LIG 0.02  C 
ATOM     37  CG2 VAL B   1      50.695  34.508   6.843  0.50 45.23 LIG 0.01  C 
ATOM     38  CG1 VAL B   1      50.081  35.292   4.520  0.50 45.24 LIG 0.01  C 
ENDBRANCH 35 36
BRANCH 35 39
ATOM     39  N   VAL B   1      53.506  34.529   4.575  0.50 45.40 LIG-0.07  N 
ATOM     40 H3   VAL B   1      53.751  35.030   5.269  0.50 45.40 LIG 0.28  HD
ATOM     41 H1   VAL B   1      54.095  33.872   4.461  0.50 45.40 LIG 0.28  HD
ATOM     42 H2   VAL B   1      53.477  35.032   3.842  0.50 45.40 LIG 0.28  HD
ENDBRANCH 35 39
ENDBRANCH 33 35
ENDBRANCH 29 31
ENDBRANCH 27 29
ENDBRANCH 1 25
TORSDOF 15
ENDMDL
MODEL 27
USER: ADFR SOLUTION from run 66
USER: SCORE 13.389861 LL:  -1.722 LR: -12.401 RR:   0.000 FEB:  -7.927
USER: RMSD 11.002115
USER: SEED 65
USER: STATUS no improvement in best 12 clusters for 5 generations
USER: GENES 17
USER: genes 0 Translation |==|  0.37527 0.19183 0.38476
USER: genes 1 Rotation |==|  0.67858 0.14625 0.29379 0.72460
USER: genes 2 Torsion [C]-CA--CB-[CG] |==|  0.29260
USER: genes 3 Torsion [CA]-CB--CG-[CD] |==|  0.38919
USER: genes 4 Torsion [CB]-CG--CD-[NE] |==|  0.99188
USER: genes 5 Torsion [CG]-CD--NE-[CZ] |==|  0.70581
USER: genes 6 Torsion [N]-CA--C-[N] |==|  0.00184
USER: genes 7 Torsion [C]-N--CA-[CB] |==|  0.44610
USER: genes 8 Torsion [N]-CA--C-[OXT] |==|  0.04465
USER: genes 9 Torsion [N]-CA--CB-[OG] |==|  0.97647
USER: genes 10 Torsion [CA]-CB--OG-[HG] |==|  0.83894
USER: genes 11 Torsion [CB]-CA--N-[C] |==|  0.17925
USER: genes 12 Torsion [N]-C--CA-[N] |==|  0.23939
USER: genes 13 Torsion [C]-CA--N-[C] |==|  0.75556
USER: genes 14 Torsion [N]-C--CA-[N] |==|  0.92595
USER: genes 15 Torsion [C]-CA--CB-[CG2] |==|  0.18158
USER: genes 16 Torsion [C]-CA--N-[H1] |==|  0.77474
ROOT
ATOM      1  CA  ARG B   3      49.488  32.145   5.123  0.50 45.43 LIG 0.18  C 
ENDROOT
BRANCH 1 2
ATOM      2  CB  ARG B   3      50.603  31.612   4.264  0.50 45.40 LIG 0.04  C 
BRANCH 2 3
ATOM      3  CG  ARG B   3      50.198  31.613   2.829  0.50 45.00 LIG 0.02  C 
BRANCH 3 4
ATOM      4  CD  ARG B   3      51.318  32.033   1.946  0.50 44.41 LIG 0.14  C 
BRANCH 4 5
ATOM      5  NE  ARG B   3      52.464  32.388   2.763  0.50 44.18 LIG-0.23  N 
ATOM      6  CZ  ARG B   3      52.862  33.627   2.974  0.50 43.75 LIG 0.67  C 
ATOM      7  NH1 ARG B   3      53.924  33.856   3.722  0.50 44.03 LIG-0.23  N 
ATOM      8  NH2 ARG B   3      52.199  34.640   2.439  0.50 43.85 LIG-0.23  N 
ATOM      9 12HH ARG B   3      54.186  34.664   3.861  0.50 44.03 LIG 0.17  HD
ATOM     10 11HH ARG B   3      54.355  33.199   4.071  0.50 44.03 LIG 0.17  HD
ATOM     11 22HH ARG B   3      52.462  35.447   2.578  0.50 43.85 LIG 0.17  HD
ATOM     12 21HH ARG B   3      51.506  34.492   1.952  0.50 43.85 LIG 0.17  HD
ATOM     13 HE   ARG B   3      52.910  31.751   3.133  0.50 44.18 LIG 0.18  HD
ENDBRANCH 4 5
ENDBRANCH 3 4
ENDBRANCH 2 3
ENDBRANCH 1 2
BRANCH 1 14
ATOM     14  C   ARG B   3      48.810  31.012   5.872  0.50 45.62 LIG 0.24  C 
ATOM     15  N   SER B   4      48.675  31.219   7.176  0.50 45.72 LIG-0.34  N 
ATOM     16 H    SER B   4      48.895  31.952   7.570  0.50 45.72 LIG 0.16  HD
ATOM     17 O    ARG B   3      48.411  30.001   5.293  0.50 45.72 LIG-0.27  OA
BRANCH 15 18
ATOM     18  CA  SER B   4      48.134  30.204   8.064  0.50 45.84 LIG 0.21  C 
BRANCH 18 19
ATOM     19  C   SER B   4      46.617  30.096   7.969  0.50 45.90 LIG 0.20  C 
ATOM     20 O    SER B   4      45.969  29.507   8.836  0.50 45.95 LIG-0.65  OA
ATOM     21 OXT  SER B   4      46.002  30.588   7.024  0.50 46.05 LIG-0.65  OA
ENDBRANCH 18 19
BRANCH 18 22
ATOM     22  CB  SER B   4      48.545  30.529   9.498  0.50 45.85 LIG 0.20  C 
BRANCH 22 23
ATOM     23 OG   SER B   4      49.480  31.595   9.529  0.50 45.98 LIG-0.40  OA
ATOM     24 HG   SER B   4      50.154  31.389   9.072  0.50 45.98 LIG 0.21  HD
ENDBRANCH 22 23
ENDBRANCH 18 22
ENDBRANCH 15 18
ENDBRANCH 1 14
BRANCH 1 25
ATOM     25  N   ARG B   3      49.894  33.269   5.960  0.50 45.48 LIG-0.35  N 
ATOM     26 H    ARG B   3      49.874  33.141   6.810  0.50 45.48 LIG 0.16  HD
ATOM     27  C   ALA B   2      50.259  34.388   5.344  0.50 45.44 LIG 0.24  C 
ATOM     28 O    ALA B   2      50.359  34.439   4.123  0.50 45.54 LIG-0.27  OA
BRANCH 27 29
ATOM     29  CA  ALA B   2      50.570  35.626   6.168  0.50 45.45 LIG 0.17  C 
ATOM     30  CB  ALA B   2      50.431  36.852   5.346  0.50 45.48 LIG 0.04  C 
BRANCH 29 31
ATOM     31  N   ALA B   2      51.956  35.480   6.522  0.50 45.47 LIG-0.35  N 
ATOM     32 H    ALA B   2      52.493  35.853   5.964  0.50 45.47 LIG 0.16  HD
ATOM     33  C   VAL B   1      52.372  34.836   7.598  0.50 45.44 LIG 0.25  C 
ATOM     34 O    VAL B   1      51.635  34.525   8.532  0.50 45.56 LIG-0.27  OA
BRANCH 33 35
ATOM     35  CA  VAL B   1      53.879  34.650   7.667  0.50 45.37 LIG 0.28  C 
BRANCH 35 36
ATOM     36  CB  VAL B   1      54.535  35.729   8.554  0.50 45.32 LIG 0.02  C 
ATOM     37  CG2 VAL B   1      54.100  35.601  10.023  0.50 45.23 LIG 0.01  C 
ATOM     38  CG1 VAL B   1      54.243  37.096   7.989  0.50 45.24 LIG 0.01  C 
ENDBRANCH 35 36
BRANCH 35 39
ATOM     39  N   VAL B   1      54.459  34.640   6.295  0.50 45.40 LIG-0.07  N 
ATOM     40 H3   VAL B   1      55.326  34.837   6.337  0.50 45.40 LIG 0.28  HD
ATOM     41 H1   VAL B   1      54.356  33.833   5.935  0.50 45.40 LIG 0.28  HD
ATOM     42 H2   VAL B   1      54.042  35.244   5.792  0.50 45.40 LIG 0.28  HD
ENDBRANCH 35 39
ENDBRANCH 33 35
ENDBRANCH 29 31
ENDBRANCH 27 29
ENDBRANCH 1 25
TORSDOF 15
ENDMDL
MODEL 28
USER: ADFR SOLUTION from run 66
USER: SCORE 13.283476 LL:  -1.342 LR: -12.309 RR:   0.000 FEB:  -7.835
USER: RMSD 11.904411
USER: SEED 65
USER: STATUS no improvement in best 12 clusters for 5 generations
USER: GENES 17
USER: genes 0 Translation |==|  0.36538 0.18474 0.36448
USER: genes 1 Rotation |==|  0.69152 0.15986 0.20251 0.59553
USER: genes 2 Torsion [C]-CA--CB-[CG] |==|  0.26860
USER: genes 3 Torsion [CA]-CB--CG-[CD] |==|  0.38887
USER: genes 4 Torsion [CB]-CG--CD-[NE] |==|  0.74534
USER: genes 5 Torsion [CG]-CD--NE-[CZ] |==|  0.31647
USER: genes 6 Torsion [N]-CA--C-[N] |==|  0.06679
USER: genes 7 Torsion [C]-N--CA-[CB] |==|  0.47744
USER: genes 8 Torsion [N]-CA--C-[OXT] |==|  0.94287
USER: genes 9 Torsion [N]-CA--CB-[OG] |==|  0.33521
USER: genes 10 Torsion [CA]-CB--OG-[HG] |==|  0.78780
USER: genes 11 Torsion [CB]-CA--N-[C] |==|  0.18889
USER: genes 12 Torsion [N]-C--CA-[N] |==|  0.40966
USER: genes 13 Torsion [C]-CA--N-[C] |==|  0.57757
USER: genes 14 Torsion [N]-C--CA-[N] |==|  0.90114
USER: genes 15 Torsion [C]-CA--CB-[CG2] |==|  0.37191
USER: genes 16 Torsion [C]-CA--N-[H1] |==|  0.20270
ROOT
ATOM      1  CA  ARG B   3      49.191  31.932   4.514  0.50 45.43 LIG 0.18  C 
ENDROOT
BRANCH 1 2
ATOM      2  CB  ARG B   3      50.343  31.454   3.672  0.50 45.40 LIG 0.04  C 
BRANCH 2 3
ATOM      3  CG  ARG B   3      50.278  32.059   2.311  0.50 45.00 LIG 0.02  C 
BRANCH 3 4
ATOM      4  CD  ARG B   3      51.625  32.448   1.821  0.50 44.41 LIG 0.14  C 
BRANCH 4 5
ATOM      5  NE  ARG B   3      51.888  33.828   2.188  0.50 44.18 LIG-0.23  N 
ATOM      6  CZ  ARG B   3      52.822  34.196   3.043  0.50 43.75 LIG 0.67  C 
ATOM      7  NH1 ARG B   3      52.983  35.474   3.328  0.50 44.03 LIG-0.23  N 
ATOM      8  NH2 ARG B   3      53.599  33.289   3.614  0.50 43.85 LIG-0.23  N 
ATOM      9 12HH ARG B   3      53.592  35.717   3.885  0.50 44.03 LIG 0.17  HD
ATOM     10 11HH ARG B   3      52.480  36.065   2.957  0.50 44.03 LIG 0.17  HD
ATOM     11 22HH ARG B   3      54.206  33.533   4.171  0.50 43.85 LIG 0.17  HD
ATOM     12 21HH ARG B   3      53.495  32.456   3.428  0.50 43.85 LIG 0.17  HD
ATOM     13 HE   ARG B   3      51.406  34.442   1.827  0.50 44.18 LIG 0.18  HD
ENDBRANCH 4 5
ENDBRANCH 3 4
ENDBRANCH 2 3
ENDBRANCH 1 2
BRANCH 1 14
ATOM     14  C   ARG B   3      48.062  30.918   4.490  0.50 45.62 LIG 0.24  C 
ATOM     15  N   SER B   4      47.285  30.936   5.567  0.50 45.72 LIG-0.34  N 
ATOM     16 H    SER B   4      47.365  31.507   6.205  0.50 45.72 LIG 0.16  HD
ATOM     17 O    ARG B   3      47.891  30.163   3.533  0.50 45.72 LIG-0.27  OA
BRANCH 15 18
ATOM     18  CA  SER B   4      46.213  29.975   5.757  0.50 45.84 LIG 0.21  C 
BRANCH 18 19
ATOM     19  C   SER B   4      45.099  30.133   4.728  0.50 45.90 LIG 0.20  C 
ATOM     20 O    SER B   4      44.323  29.206   4.487  0.50 45.95 LIG-0.65  OA
ATOM     21 OXT  SER B   4      44.950  31.185   4.109  0.50 46.05 LIG-0.65  OA
ENDBRANCH 18 19
BRANCH 18 22
ATOM     22  CB  SER B   4      45.647  30.134   7.166  0.50 45.85 LIG 0.20  C 
BRANCH 22 23
ATOM     23 OG   SER B   4      44.266  30.452   7.125  0.50 45.98 LIG-0.40  OA
ATOM     24 HG   SER B   4      44.171  31.259   6.915  0.50 45.98 LIG 0.21  HD
ENDBRANCH 22 23
ENDBRANCH 18 22
ENDBRANCH 15 18
ENDBRANCH 1 14
BRANCH 1 25
ATOM     25  N   ARG B   3      49.595  32.361   5.850  0.50 45.48 LIG-0.35  N 
ATOM     26 H    ARG B   3      49.329  31.873   6.505  0.50 45.48 LIG 0.16  HD
ATOM     27  C   ALA B   2      50.334  33.460   5.940  0.50 45.44 LIG 0.24  C 
ATOM     28 O    ALA B   2      50.755  34.030   4.939  0.50 45.54 LIG-0.27  OA
BRANCH 27 29
ATOM     29  CA  ALA B   2      50.675  34.019   7.311  0.50 45.45 LIG 0.17  C 
ATOM     30  CB  ALA B   2      49.730  35.099   7.687  0.50 45.48 LIG 0.04  C 
BRANCH 29 31
ATOM     31  N   ALA B   2      51.978  34.605   7.144  0.50 45.47 LIG-0.35  N 
ATOM     32 H    ALA B   2      52.133  34.874   6.342  0.50 45.47 LIG 0.16  HD
ATOM     33  C   VAL B   1      52.858  34.722   8.123  0.50 45.44 LIG 0.25  C 
ATOM     34 O    VAL B   1      52.574  34.589   9.312  0.50 45.56 LIG-0.27  OA
BRANCH 33 35
ATOM     35  CA  VAL B   1      54.229  35.196   7.672  0.50 45.37 LIG 0.28  C 
BRANCH 35 36
ATOM     36  CB  VAL B   1      54.316  36.737   7.678  0.50 45.32 LIG 0.02  C 
ATOM     37  CG2 VAL B   1      55.613  37.232   8.339  0.50 45.23 LIG 0.01  C 
ATOM     38  CG1 VAL B   1      53.086  37.313   8.332  0.50 45.24 LIG 0.01  C 
ENDBRANCH 35 36
BRANCH 35 39
ATOM     39  N   VAL B   1      54.553  34.634   6.331  0.50 45.40 LIG-0.07  N 
ATOM     40 H3   VAL B   1      54.370  33.762   6.323  0.50 45.40 LIG 0.28  HD
ATOM     41 H1   VAL B   1      54.064  35.045   5.711  0.50 45.40 LIG 0.28  HD
ATOM     42 H2   VAL B   1      55.417  34.757   6.158  0.50 45.40 LIG 0.28  HD
ENDBRANCH 35 39
ENDBRANCH 33 35
ENDBRANCH 29 31
ENDBRANCH 27 29
ENDBRANCH 1 25
TORSDOF 15
ENDMDL
MODEL 29
USER: ADFR SOLUTION from run 12
USER: SCORE 13.064277 LL:  -2.292 LR: -12.300 RR:   0.000 FEB:  -7.825
USER: RMSD 8.720668
USER: SEED 313390
USER: STATUS no improvement in best 1 clusters for 5 generations
USER: GENES 17
USER: genes 0 Translation |==|  0.54143 0.31206 0.54166
USER: genes 1 Rotation |==|  0.79853 0.23455 0.75646 0.65700
USER: genes 2 Torsion [C]-CA--CB-[CG] |==|  0.50094
USER: genes 3 Torsion [CA]-CB--CG-[CD] |==|  0.26127
USER: genes 4 Torsion [CB]-CG--CD-[NE] |==|  0.68294
USER: genes 5 Torsion [CG]-CD--NE-[CZ] |==|  0.61439
USER: genes 6 Torsion [N]-CA--C-[N] |==|  0.86667
USER: genes 7 Torsion [C]-N--CA-[CB] |==|  0.21692
USER: genes 8 Torsion [N]-CA--C-[OXT] |==|  0.95059
USER: genes 9 Torsion [N]-CA--CB-[OG] |==|  0.92055
USER: genes 10 Torsion [CA]-CB--OG-[HG] |==|  0.84254
USER: genes 11 Torsion [CB]-CA--N-[C] |==|  0.36284
USER: genes 12 Torsion [N]-C--CA-[N] |==|  0.42024
USER: genes 13 Torsion [C]-CA--N-[C] |==|  0.61333
USER: genes 14 Torsion [N]-C--CA-[N] |==|  0.88877
USER: genes 15 Torsion [C]-CA--CB-[CG2] |==|  0.36429
USER: genes 16 Torsion [C]-CA--N-[H1] |==|  0.26918
ROOT
ATOM      1  CA  ARG B   3      54.473  35.752   9.830  0.50 45.43 LIG 0.18  C 
ENDROOT
BRANCH 1 2
ATOM      2  CB  ARG B   3      55.317  36.970  10.093  0.50 45.40 LIG 0.04  C 
BRANCH 2 3
ATOM      3  CG  ARG B   3      55.694  37.628   8.809  0.50 45.00 LIG 0.02  C 
BRANCH 3 4
ATOM      4  CD  ARG B   3      54.742  38.712   8.452  0.50 44.41 LIG 0.14  C 
BRANCH 4 5
ATOM      5  NE  ARG B   3      54.027  38.343   7.244  0.50 44.18 LIG-0.23  N 
ATOM      6  CZ  ARG B   3      53.759  39.182   6.263  0.50 43.75 LIG 0.67  C 
ATOM      7  NH1 ARG B   3      53.092  38.762   5.205  0.50 44.03 LIG-0.23  N 
ATOM      8  NH2 ARG B   3      54.157  40.442   6.335  0.50 43.85 LIG-0.23  N 
ATOM      9 12HH ARG B   3      52.915  39.307   4.563  0.50 44.03 LIG 0.17  HD
ATOM     10 11HH ARG B   3      52.834  37.944   5.156  0.50 44.03 LIG 0.17  HD
ATOM     11 22HH ARG B   3      53.980  40.986   5.694  0.50 43.85 LIG 0.17  HD
ATOM     12 21HH ARG B   3      54.593  40.717   7.024  0.50 43.85 LIG 0.17  HD
ATOM     13 HE   ARG B   3      53.763  37.528   7.163  0.50 44.18 LIG 0.18  HD
ENDBRANCH 4 5
ENDBRANCH 3 4
ENDBRANCH 2 3
ENDBRANCH 1 2
BRANCH 1 14
ATOM     14  C   ARG B   3      54.083  35.087  11.137  0.50 45.62 LIG 0.24  C 
ATOM     15  N   SER B   4      53.049  35.649  11.752  0.50 45.72 LIG-0.34  N 
ATOM     16 H    SER B   4      52.591  36.298  11.422  0.50 45.72 LIG 0.16  HD
ATOM     17 O    ARG B   3      54.680  34.098  11.564  0.50 45.72 LIG-0.27  OA
BRANCH 15 18
ATOM     18  CA  SER B   4      52.596  35.203  13.059  0.50 45.84 LIG 0.21  C 
BRANCH 18 19
ATOM     19  C   SER B   4      51.158  35.616  13.349  0.50 45.90 LIG 0.20  C 
ATOM     20 O    SER B   4      50.507  35.060  14.235  0.50 45.95 LIG-0.65  OA
ATOM     21 OXT  SER B   4      50.610  36.508  12.704  0.50 46.05 LIG-0.65  OA
ENDBRANCH 18 19
BRANCH 18 22
ATOM     22  CB  SER B   4      53.527  35.771  14.127  0.50 45.85 LIG 0.20  C 
BRANCH 22 23
ATOM     23 OG   SER B   4      54.831  35.972  13.607  0.50 45.98 LIG-0.40  OA
ATOM     24 HG   SER B   4      55.125  35.248  13.300  0.50 45.98 LIG 0.21  HD
ENDBRANCH 22 23
ENDBRANCH 18 22
ENDBRANCH 15 18
ENDBRANCH 1 14
BRANCH 1 25
ATOM     25  N   ARG B   3      53.359  36.010   8.923  0.50 45.48 LIG-0.35  N 
ATOM     26 H    ARG B   3      52.870  36.693   9.103  0.50 45.48 LIG 0.16  HD
ATOM     27  C   ALA B   2      53.195  35.174   7.904  0.50 45.44 LIG 0.24  C 
ATOM     28 O    ALA B   2      54.011  34.288   7.669  0.50 45.54 LIG-0.27  OA
BRANCH 27 29
ATOM     29  CA  ALA B   2      51.980  35.323   7.005  0.50 45.45 LIG 0.17  C 
ATOM     30  CB  ALA B   2      50.868  34.463   7.480  0.50 45.48 LIG 0.04  C 
BRANCH 29 31
ATOM     31  N   ALA B   2      52.417  34.822   5.729  0.50 45.47 LIG-0.35  N 
ATOM     32 H    ALA B   2      52.905  34.117   5.787  0.50 45.47 LIG 0.16  HD
ATOM     33  C   VAL B   1      52.103  35.387   4.576  0.50 45.44 LIG 0.25  C 
ATOM     34 O    VAL B   1      51.212  36.225   4.450  0.50 45.56 LIG-0.27  OA
BRANCH 33 35
ATOM     35  CA  VAL B   1      52.829  34.798   3.378  0.50 45.37 LIG 0.28  C 
BRANCH 35 36
ATOM     36  CB  VAL B   1      52.105  33.542   2.849  0.50 45.32 LIG 0.02  C 
ATOM     37  CG2 VAL B   1      51.903  33.600   1.327  0.50 45.23 LIG 0.01  C 
ATOM     38  CG1 VAL B   1      50.806  33.355   3.591  0.50 45.24 LIG 0.01  C 
ENDBRANCH 35 36
BRANCH 35 39
ATOM     39  N   VAL B   1      54.247  34.507   3.729  0.50 45.40 LIG-0.07  N 
ATOM     40 H3   VAL B   1      54.494  35.015   4.417  0.50 45.40 LIG 0.28  HD
ATOM     41 H1   VAL B   1      54.328  33.649   3.950  0.50 45.40 LIG 0.28  HD
ATOM     42 H2   VAL B   1      54.769  34.683   3.029  0.50 45.40 LIG 0.28  HD
ENDBRANCH 35 39
ENDBRANCH 33 35
ENDBRANCH 29 31
ENDBRANCH 27 29
ENDBRANCH 1 25
TORSDOF 15
ENDMDL
MODEL 30
USER: ADFR SOLUTION from run 77
USER: SCORE 14.446936 LL:  -3.203 LR: -12.282 RR:   0.000 FEB:  -7.808
USER: RMSD 10.316020
USER: SEED 76
USER: STATUS 1 or 2 clusters left
USER: GENES 17
USER: genes 0 Translation |==|  0.47749 0.27639 0.47066
USER: genes 1 Rotation |==|  0.57836 0.15654 0.75991 0.74154
USER: genes 2 Torsion [C]-CA--CB-[CG] |==|  0.91288
USER: genes 3 Torsion [CA]-CB--CG-[CD] |==|  0.26667
USER: genes 4 Torsion [CB]-CG--CD-[NE] |==|  0.21030
USER: genes 5 Torsion [CG]-CD--NE-[CZ] |==|  0.52402
USER: genes 6 Torsion [N]-CA--C-[N] |==|  0.40802
USER: genes 7 Torsion [C]-N--CA-[CB] |==|  0.41079
USER: genes 8 Torsion [N]-CA--C-[OXT] |==|  0.85964
USER: genes 9 Torsion [N]-CA--CB-[OG] |==|  0.88231
USER: genes 10 Torsion [CA]-CB--OG-[HG] |==|  0.14224
USER: genes 11 Torsion [CB]-CA--N-[C] |==|  0.46450
USER: genes 12 Torsion [N]-C--CA-[N] |==|  0.36752
USER: genes 13 Torsion [C]-CA--N-[C] |==|  0.84432
USER: genes 14 Torsion [N]-C--CA-[N] |==|  0.50735
USER: genes 15 Torsion [C]-CA--CB-[CG2] |==|  0.81729
USER: genes 16 Torsion [C]-CA--N-[H1] |==|  0.15597
ROOT
ATOM      1  CA  ARG B   3      52.555  34.682   7.700  0.50 45.43 LIG 0.18  C 
ENDROOT
BRANCH 1 2
ATOM      2  CB  ARG B   3      53.954  34.982   8.165  0.50 45.40 LIG 0.04  C 
BRANCH 2 3
ATOM      3  CG  ARG B   3      53.964  36.192   9.036  0.50 45.00 LIG 0.02  C 
BRANCH 3 4
ATOM      4  CD  ARG B   3      53.913  35.829  10.476  0.50 44.41 LIG 0.14  C 
BRANCH 4 5
ATOM      5  NE  ARG B   3      55.217  35.347  10.894  0.50 44.18 LIG-0.23  N 
ATOM      6  CZ  ARG B   3      55.456  34.794  12.067  0.50 43.75 LIG 0.67  C 
ATOM      7  NH1 ARG B   3      56.676  34.395  12.368  0.50 44.03 LIG-0.23  N 
ATOM      8  NH2 ARG B   3      54.474  34.638  12.942  0.50 43.85 LIG-0.23  N 
ATOM      9 12HH ARG B   3      56.834  34.034  13.133  0.50 44.03 LIG 0.17  HD
ATOM     10 11HH ARG B   3      57.314  34.495  11.800  0.50 44.03 LIG 0.17  HD
ATOM     11 22HH ARG B   3      54.634  34.278  13.706  0.50 43.85 LIG 0.17  HD
ATOM     12 21HH ARG B   3      53.678  34.897  12.746  0.50 43.85 LIG 0.17  HD
ATOM     13 HE   ARG B   3      55.873  35.425  10.343  0.50 44.18 LIG 0.18  HD
ENDBRANCH 4 5
ENDBRANCH 3 4
ENDBRANCH 2 3
ENDBRANCH 1 2
BRANCH 1 14
ATOM     14  C   ARG B   3      51.546  35.111   8.749  0.50 45.62 LIG 0.24  C 
ATOM     15  N   SER B   4      51.341  34.220   9.712  0.50 45.72 LIG-0.34  N 
ATOM     16 H    SER B   4      51.777  33.482   9.781  0.50 45.72 LIG 0.16  HD
ATOM     17 O    ARG B   3      50.988  36.208   8.701  0.50 45.72 LIG-0.27  OA
BRANCH 15 18
ATOM     18  CA  SER B   4      50.342  34.422  10.747  0.50 45.84 LIG 0.21  C 
BRANCH 18 19
ATOM     19  C   SER B   4      50.903  35.149  11.963  0.50 45.90 LIG 0.20  C 
ATOM     20 O    SER B   4      50.335  36.140  12.426  0.50 45.95 LIG-0.65  OA
ATOM     21 OXT  SER B   4      51.938  34.770  12.509  0.50 46.05 LIG-0.65  OA
ENDBRANCH 18 19
BRANCH 18 22
ATOM     22  CB  SER B   4      49.779  33.066  11.164  0.50 45.85 LIG 0.20  C 
BRANCH 22 23
ATOM     23 OG   SER B   4      49.545  32.244  10.033  0.50 45.98 LIG-0.40  OA
ATOM     24 HG   SER B   4      50.237  32.219   9.558  0.50 45.98 LIG 0.21  HD
ENDBRANCH 22 23
ENDBRANCH 18 22
ENDBRANCH 15 18
ENDBRANCH 1 14
BRANCH 1 25
ATOM     25  N   ARG B   3      52.279  35.173   6.354  0.50 45.48 LIG-0.35  N 
ATOM     26 H    ARG B   3      52.852  35.721   6.022  0.50 45.48 LIG 0.16  HD
ATOM     27  C   ALA B   2      51.175  34.737   5.759  0.50 45.44 LIG 0.24  C 
ATOM     28 O    ALA B   2      50.474  33.871   6.272  0.50 45.54 LIG-0.27  OA
BRANCH 27 29
ATOM     29  CA  ALA B   2      50.776  35.313   4.411  0.50 45.45 LIG 0.17  C 
ATOM     30  CB  ALA B   2      49.543  36.127   4.533  0.50 45.48 LIG 0.04  C 
BRANCH 29 31
ATOM     31  N   ALA B   2      50.472  34.160   3.606  0.50 45.47 LIG-0.35  N 
ATOM     32 H    ALA B   2      49.681  34.176   3.270  0.50 45.47 LIG 0.16  HD
ATOM     33  C   VAL B   1      51.321  33.169   3.398  0.50 45.44 LIG 0.25  C 
ATOM     34 O    VAL B   1      52.524  33.242   3.644  0.50 45.56 LIG-0.27  OA
BRANCH 33 35
ATOM     35  CA  VAL B   1      50.719  31.976   2.675  0.50 45.37 LIG 0.28  C 
BRANCH 35 36
ATOM     36  CB  VAL B   1      49.441  31.480   3.384  0.50 45.32 LIG 0.02  C 
ATOM     37  CG2 VAL B   1      49.749  30.913   4.779  0.50 45.23 LIG 0.01  C 
ATOM     38  CG1 VAL B   1      48.727  30.484   2.507  0.50 45.24 LIG 0.01  C 
ENDBRANCH 35 36
BRANCH 35 39
ATOM     39  N   VAL B   1      51.730  30.890   2.544  0.50 45.40 LIG-0.07  N 
ATOM     40 H3   VAL B   1      52.403  31.171   2.034  0.50 45.40 LIG 0.28  HD
ATOM     41 H1   VAL B   1      52.039  30.674   3.350  0.50 45.40 LIG 0.28  HD
ATOM     42 H2   VAL B   1      51.353  30.176   2.170  0.50 45.40 LIG 0.28  HD
ENDBRANCH 35 39
ENDBRANCH 33 35
ENDBRANCH 29 31
ENDBRANCH 27 29
ENDBRANCH 1 25
TORSDOF 15
ENDMDL
MODEL 31
USER: ADFR SOLUTION from run 49
USER: SCORE 13.223407 LL:  -1.959 LR: -12.284 RR:   0.000 FEB:  -7.810
USER: RMSD 10.574376
USER: SEED 48
USER: STATUS no improvement in best 9 clusters for 5 generations
USER: GENES 17
USER: genes 0 Translation |==|  0.40862 0.24745 0.48104
USER: genes 1 Rotation |==|  0.83939 0.62279 0.74052 0.74877
USER: genes 2 Torsion [C]-CA--CB-[CG] |==|  0.19927
USER: genes 3 Torsion [CA]-CB--CG-[CD] |==|  0.28060
USER: genes 4 Torsion [CB]-CG--CD-[NE] |==|  0.49266
USER: genes 5 Torsion [CG]-CD--NE-[CZ] |==|  0.24319
USER: genes 6 Torsion [N]-CA--C-[N] |==|  0.12815
USER: genes 7 Torsion [C]-N--CA-[CB] |==|  0.81811
USER: genes 8 Torsion [N]-CA--C-[OXT] |==|  0.15794
USER: genes 9 Torsion [N]-CA--CB-[OG] |==|  0.79662
USER: genes 10 Torsion [CA]-CB--OG-[HG] |==|  0.57311
USER: genes 11 Torsion [CB]-CA--N-[C] |==|  0.82155
USER: genes 12 Torsion [N]-C--CA-[N] |==|  0.03066
USER: genes 13 Torsion [C]-CA--N-[C] |==|  0.74257
USER: genes 14 Torsion [N]-C--CA-[N] |==|  0.88566
USER: genes 15 Torsion [C]-CA--CB-[CG2] |==|  0.48778
USER: genes 16 Torsion [C]-CA--N-[H1] |==|  0.77439
ROOT
ATOM      1  CA  ARG B   3      50.488  33.813   8.011  0.50 45.43 LIG 0.18  C 
ENDROOT
BRANCH 1 2
ATOM      2  CB  ARG B   3      49.709  34.505   6.925  0.50 45.40 LIG 0.04  C 
BRANCH 2 3
ATOM      3  CG  ARG B   3      50.636  35.088   5.912  0.50 45.00 LIG 0.02  C 
BRANCH 3 4
ATOM      4  CD  ARG B   3      50.725  34.235   4.699  0.50 44.41 LIG 0.14  C 
BRANCH 4 5
ATOM      5  NE  ARG B   3      51.588  34.878   3.725  0.50 44.18 LIG-0.23  N 
ATOM      6  CZ  ARG B   3      52.897  34.724   3.686  0.50 43.75 LIG 0.67  C 
ATOM      7  NH1 ARG B   3      53.605  35.358   2.772  0.50 44.03 LIG-0.23  N 
ATOM      8  NH2 ARG B   3      53.501  33.935   4.561  0.50 43.85 LIG-0.23  N 
ATOM      9 12HH ARG B   3      54.459  35.259   2.745  0.50 44.03 LIG 0.17  HD
ATOM     10 11HH ARG B   3      53.213  35.870   2.203  0.50 44.03 LIG 0.17  HD
ATOM     11 22HH ARG B   3      54.355  33.838   4.533  0.50 43.85 LIG 0.17  HD
ATOM     12 21HH ARG B   3      53.040  33.521   5.157  0.50 43.85 LIG 0.17  HD
ATOM     13 HE   ARG B   3      51.223  35.390   3.137  0.50 44.18 LIG 0.18  HD
ENDBRANCH 4 5
ENDBRANCH 3 4
ENDBRANCH 2 3
ENDBRANCH 1 2
BRANCH 1 14
ATOM     14  C   ARG B   3      51.186  34.833   8.892  0.50 45.62 LIG 0.24  C 
ATOM     15  N   SER B   4      51.820  34.314   9.938  0.50 45.72 LIG-0.34  N 
ATOM     16 H    SER B   4      51.888  33.469  10.085  0.50 45.72 LIG 0.16  HD
ATOM     17 O    ARG B   3      51.167  36.036   8.630  0.50 45.72 LIG-0.27  OA
BRANCH 15 18
ATOM     18  CA  SER B   4      52.463  35.148  10.938  0.50 45.84 LIG 0.21  C 
BRANCH 18 19
ATOM     19  C   SER B   4      51.499  36.143  11.574  0.50 45.90 LIG 0.20  C 
ATOM     20 O    SER B   4      51.732  37.353  11.551  0.50 45.95 LIG-0.65  OA
ATOM     21 OXT  SER B   4      50.471  35.765  12.132  0.50 46.05 LIG-0.65  OA
ENDBRANCH 18 19
BRANCH 18 22
ATOM     22  CB  SER B   4      53.628  35.892  10.289  0.50 45.85 LIG 0.20  C 
BRANCH 22 23
ATOM     23 OG   SER B   4      54.712  35.015  10.037  0.50 45.98 LIG-0.40  OA
ATOM     24 HG   SER B   4      55.429  35.451  10.030  0.50 45.98 LIG 0.21  HD
ENDBRANCH 22 23
ENDBRANCH 18 22
ENDBRANCH 15 18
ENDBRANCH 1 14
BRANCH 1 25
ATOM     25  N   ARG B   3      49.705  32.819   8.736  0.50 45.48 LIG-0.35  N 
ATOM     26 H    ARG B   3      49.963  32.002   8.666  0.50 45.48 LIG 0.16  HD
ATOM     27  C   ALA B   2      48.666  33.254   9.439  0.50 45.44 LIG 0.24  C 
ATOM     28 O    ALA B   2      48.439  34.453   9.565  0.50 45.54 LIG-0.27  OA
BRANCH 27 29
ATOM     29  CA  ALA B   2      47.744  32.249  10.108  0.50 45.45 LIG 0.17  C 
ATOM     30  CB  ALA B   2      47.588  32.559  11.550  0.50 45.48 LIG 0.04  C 
BRANCH 29 31
ATOM     31  N   ALA B   2      48.440  30.995   9.994  0.50 45.47 LIG-0.35  N 
ATOM     32 H    ALA B   2      48.988  30.848  10.639  0.50 45.47 LIG 0.16  HD
ATOM     33  C   VAL B   1      48.259  30.147   8.996  0.50 45.44 LIG 0.25  C 
ATOM     34 O    VAL B   1      47.312  30.209   8.215  0.50 45.56 LIG-0.27  OA
BRANCH 33 35
ATOM     35  CA  VAL B   1      49.235  28.982   8.987  0.50 45.37 LIG 0.28  C 
BRANCH 35 36
ATOM     36  CB  VAL B   1      48.770  27.857   9.934  0.50 45.32 LIG 0.02  C 
ATOM     37  CG2 VAL B   1      49.690  26.628   9.853  0.50 45.23 LIG 0.01  C 
ATOM     38  CG1 VAL B   1      47.331  27.513   9.646  0.50 45.24 LIG 0.01  C 
ENDBRANCH 35 36
BRANCH 35 39
ATOM     39  N   VAL B   1      50.605  29.457   9.330  0.50 45.40 LIG-0.07  N 
ATOM     40 H3   VAL B   1      51.093  28.772   9.622  0.50 45.40 LIG 0.28  HD
ATOM     41 H1   VAL B   1      50.987  29.807   8.607  0.50 45.40 LIG 0.28  HD
ATOM     42 H2   VAL B   1      50.554  30.076   9.967  0.50 45.40 LIG 0.28  HD
ENDBRANCH 35 39
ENDBRANCH 33 35
ENDBRANCH 29 31
ENDBRANCH 27 29
ENDBRANCH 1 25
TORSDOF 15
ENDMDL
MODEL 32
USER: ADFR SOLUTION from run 123
USER: SCORE 13.303221 LL:  -2.286 LR: -12.252 RR:   0.000 FEB:  -7.777
USER: RMSD 10.042224
USER: SEED 122
USER: STATUS no improvement in best 6 clusters for 5 generations
USER: GENES 17
USER: genes 0 Translation |==|  0.42352 0.27384 0.54333
USER: genes 1 Rotation |==|  0.58116 0.12799 0.64013 0.79221
USER: genes 2 Torsion [C]-CA--CB-[CG] |==|  0.66959
USER: genes 3 Torsion [CA]-CB--CG-[CD] |==|  0.29273
USER: genes 4 Torsion [CB]-CG--CD-[NE] |==|  0.25896
USER: genes 5 Torsion [CG]-CD--NE-[CZ] |==|  0.73543
USER: genes 6 Torsion [N]-CA--C-[N] |==|  0.31963
USER: genes 7 Torsion [C]-N--CA-[CB] |==|  0.81992
USER: genes 8 Torsion [N]-CA--C-[OXT] |==|  0.19844
USER: genes 9 Torsion [N]-CA--CB-[OG] |==|  0.81178
USER: genes 10 Torsion [CA]-CB--OG-[HG] |==|  0.68468
USER: genes 11 Torsion [CB]-CA--N-[C] |==|  0.27181
USER: genes 12 Torsion [N]-C--CA-[N] |==|  0.37222
USER: genes 13 Torsion [C]-CA--N-[C] |==|  0.85281
USER: genes 14 Torsion [N]-C--CA-[N] |==|  0.56121
USER: genes 15 Torsion [C]-CA--CB-[CG2] |==|  0.86721
USER: genes 16 Torsion [C]-CA--N-[H1] |==|  0.45054
ROOT
ATOM      1  CA  ARG B   3      50.936  34.605   9.880  0.50 45.43 LIG 0.18  C 
ENDROOT
BRANCH 1 2
ATOM      2  CB  ARG B   3      52.386  34.265  10.094  0.50 45.40 LIG 0.04  C 
BRANCH 2 3
ATOM      3  CG  ARG B   3      53.259  35.251   9.395  0.50 45.00 LIG 0.02  C 
BRANCH 3 4
ATOM      4  CD  ARG B   3      53.893  36.194  10.352  0.50 44.41 LIG 0.14  C 
BRANCH 4 5
ATOM      5  NE  ARG B   3      55.198  35.683  10.734  0.50 44.18 LIG-0.23  N 
ATOM      6  CZ  ARG B   3      55.418  34.965  11.817  0.50 43.75 LIG 0.67  C 
ATOM      7  NH1 ARG B   3      56.640  34.552  12.093  0.50 44.03 LIG-0.23  N 
ATOM      8  NH2 ARG B   3      54.418  34.656  12.627  0.50 43.85 LIG-0.23  N 
ATOM      9 12HH ARG B   3      56.787  34.084  12.800  0.50 44.03 LIG 0.17  HD
ATOM     10 11HH ARG B   3      57.290  34.751  11.567  0.50 44.03 LIG 0.17  HD
ATOM     11 22HH ARG B   3      54.565  34.188  13.333  0.50 43.85 LIG 0.17  HD
ATOM     12 21HH ARG B   3      53.620  34.924  12.448  0.50 43.85 LIG 0.17  HD
ATOM     13 HE   ARG B   3      55.867  35.859  10.222  0.50 44.18 LIG 0.18  HD
ENDBRANCH 4 5
ENDBRANCH 3 4
ENDBRANCH 2 3
ENDBRANCH 1 2
BRANCH 1 14
ATOM     14  C   ARG B   3      50.259  34.892  11.208  0.50 45.62 LIG 0.24  C 
ATOM     15  N   SER B   4      49.300  34.032  11.533  0.50 45.72 LIG-0.34  N 
ATOM     16 H    SER B   4      49.107  33.333  11.069  0.50 45.72 LIG 0.16  HD
ATOM     17 O    ARG B   3      50.598  35.840  11.917  0.50 45.72 LIG-0.27  OA
BRANCH 15 18
ATOM     18  CA  SER B   4      48.484  34.204  12.721  0.50 45.84 LIG 0.21  C 
BRANCH 18 19
ATOM     19  C   SER B   4      47.755  35.543  12.739  0.50 45.90 LIG 0.20  C 
ATOM     20 O    SER B   4      48.088  36.435  13.521  0.50 45.95 LIG-0.65  OA
ATOM     21 OXT  SER B   4      46.814  35.765  11.979  0.50 46.05 LIG-0.65  OA
ENDBRANCH 18 19
BRANCH 18 22
ATOM     22  CB  SER B   4      49.373  34.079  13.956  0.50 45.85 LIG 0.20  C 
BRANCH 22 23
ATOM     23 OG   SER B   4      49.855  32.754  14.102  0.50 45.98 LIG-0.40  OA
ATOM     24 HG   SER B   4      49.525  32.411  14.793  0.50 45.98 LIG 0.21  HD
ENDBRANCH 22 23
ENDBRANCH 18 22
ENDBRANCH 15 18
ENDBRANCH 1 14
BRANCH 1 25
ATOM     25  N   ARG B   3      50.730  35.628   8.859  0.50 45.48 LIG-0.35  N 
ATOM     26 H    ARG B   3      50.828  36.444   9.110  0.50 45.48 LIG 0.16  HD
ATOM     27  C   ALA B   2      50.410  35.216   7.638  0.50 45.44 LIG 0.24  C 
ATOM     28 O    ALA B   2      50.398  34.023   7.351  0.50 45.54 LIG-0.27  OA
BRANCH 27 29
ATOM     29  CA  ALA B   2      50.062  36.240   6.572  0.50 45.45 LIG 0.17  C 
ATOM     30  CB  ALA B   2      48.618  36.183   6.242  0.50 45.48 LIG 0.04  C 
BRANCH 29 31
ATOM     31  N   ALA B   2      50.803  35.816   5.414  0.50 45.47 LIG-0.35  N 
ATOM     32 H    ALA B   2      50.316  35.726   4.711  0.50 45.47 LIG 0.16  HD
ATOM     33  C   VAL B   1      52.103  35.584   5.423  0.50 45.44 LIG 0.25  C 
ATOM     34 O    VAL B   1      52.853  35.948   6.327  0.50 45.56 LIG-0.27  OA
BRANCH 33 35
ATOM     35  CA  VAL B   1      52.633  34.967   4.139  0.50 45.37 LIG 0.28  C 
BRANCH 35 36
ATOM     36  CB  VAL B   1      51.590  34.024   3.501  0.50 45.32 LIG 0.02  C 
ATOM     37  CG2 VAL B   1      50.992  33.056   4.535  0.50 45.23 LIG 0.01  C 
ATOM     38  CG1 VAL B   1      52.208  33.300   2.332  0.50 45.24 LIG 0.01  C 
ENDBRANCH 35 36
BRANCH 35 39
ATOM     39  N   VAL B   1      53.921  34.265   4.399  0.50 45.40 LIG-0.07  N 
ATOM     40 H3   VAL B   1      53.863  33.811   5.163  0.50 45.40 LIG 0.28  HD
ATOM     41 H1   VAL B   1      54.092  33.702   3.732  0.50 45.40 LIG 0.28  HD
ATOM     42 H2   VAL B   1      54.578  34.862   4.459  0.50 45.40 LIG 0.28  HD
ENDBRANCH 35 39
ENDBRANCH 33 35
ENDBRANCH 29 31
ENDBRANCH 27 29
ENDBRANCH 1 25
TORSDOF 15
ENDMDL
MODEL 33
USER: ADFR SOLUTION from run 100
USER: SCORE 13.206143 LL:  -2.145 LR: -12.233 RR:   0.000 FEB:  -7.759
USER: RMSD 11.049277
USER: SEED 99
USER: STATUS no improvement in best 8 clusters for 5 generations
USER: GENES 17
USER: genes 0 Translation |==|  0.36468 0.24002 0.47706
USER: genes 1 Rotation |==|  0.34452 0.20771 0.19073 0.71153
USER: genes 2 Torsion [C]-CA--CB-[CG] |==|  0.69407
USER: genes 3 Torsion [CA]-CB--CG-[CD] |==|  0.70794
USER: genes 4 Torsion [CB]-CG--CD-[NE] |==|  0.63152
USER: genes 5 Torsion [CG]-CD--NE-[CZ] |==|  0.32593
USER: genes 6 Torsion [N]-CA--C-[N] |==|  0.87579
USER: genes 7 Torsion [C]-N--CA-[CB] |==|  0.44208
USER: genes 8 Torsion [N]-CA--C-[OXT] |==|  0.06074
USER: genes 9 Torsion [N]-CA--CB-[OG] |==|  0.98199
USER: genes 10 Torsion [CA]-CB--OG-[HG] |==|  0.18019
USER: genes 11 Torsion [CB]-CA--N-[C] |==|  0.26879
USER: genes 12 Torsion [N]-C--CA-[N] |==|  0.40905
USER: genes 13 Torsion [C]-CA--N-[C] |==|  0.82896
USER: genes 14 Torsion [N]-C--CA-[N] |==|  0.10445
USER: genes 15 Torsion [C]-CA--CB-[CG2] |==|  0.50328
USER: genes 16 Torsion [C]-CA--N-[H1] |==|  0.56448
ROOT
ATOM      1  CA  ARG B   3      49.170  33.591   7.892  0.50 45.43 LIG 0.18  C 
ENDROOT
BRANCH 1 2
ATOM      2  CB  ARG B   3      48.355  32.632   7.066  0.50 45.40 LIG 0.04  C 
BRANCH 2 3
ATOM      3  CG  ARG B   3      49.207  31.510   6.581  0.50 45.00 LIG 0.02  C 
BRANCH 3 4
ATOM      4  CD  ARG B   3      49.527  31.652   5.136  0.50 44.41 LIG 0.14  C 
BRANCH 4 5
ATOM      5  NE  ARG B   3      49.294  30.384   4.468  0.50 44.18 LIG-0.23  N 
ATOM      6  CZ  ARG B   3      48.400  30.208   3.515  0.50 43.75 LIG 0.67  C 
ATOM      7  NH1 ARG B   3      48.248  29.017   2.971  0.50 44.03 LIG-0.23  N 
ATOM      8  NH2 ARG B   3      47.657  31.223   3.103  0.50 43.85 LIG-0.23  N 
ATOM      9 12HH ARG B   3      47.665  28.899   2.349  0.50 44.03 LIG 0.17  HD
ATOM     10 11HH ARG B   3      48.730  28.357   3.237  0.50 44.03 LIG 0.17  HD
ATOM     11 22HH ARG B   3      47.074  31.105   2.481  0.50 43.85 LIG 0.17  HD
ATOM     12 21HH ARG B   3      47.756  32.001   3.456  0.50 43.85 LIG 0.17  HD
ATOM     13 HE   ARG B   3      49.768  29.708   4.707  0.50 44.18 LIG 0.18  HD
ENDBRANCH 4 5
ENDBRANCH 3 4
ENDBRANCH 2 3
ENDBRANCH 1 2
BRANCH 1 14
ATOM     14  C   ARG B   3      48.766  33.506   9.352  0.50 45.62 LIG 0.24  C 
ATOM     15  N   SER B   4      49.367  32.537  10.034  0.50 45.72 LIG-0.34  N 
ATOM     16 H    SER B   4      49.979  32.030   9.705  0.50 45.72 LIG 0.16  HD
ATOM     17 O    ARG B   3      47.959  34.293   9.848  0.50 45.72 LIG-0.27  OA
BRANCH 15 18
ATOM     18  CA  SER B   4      49.034  32.250  11.418  0.50 45.84 LIG 0.21  C 
BRANCH 18 19
ATOM     19  C   SER B   4      49.680  33.233  12.388  0.50 45.90 LIG 0.20  C 
ATOM     20 O    SER B   4      49.842  32.937  13.574  0.50 45.95 LIG-0.65  OA
ATOM     21 OXT  SER B   4      50.049  34.345  12.016  0.50 46.05 LIG-0.65  OA
ENDBRANCH 18 19
BRANCH 18 22
ATOM     22  CB  SER B   4      49.473  30.826  11.749  0.50 45.85 LIG 0.20  C 
BRANCH 22 23
ATOM     23 OG   SER B   4      49.935  30.155  10.588  0.50 45.98 LIG-0.40  OA
ATOM     24 HG   SER B   4      50.629  30.533  10.304  0.50 45.98 LIG 0.21  HD
ENDBRANCH 22 23
ENDBRANCH 18 22
ENDBRANCH 15 18
ENDBRANCH 1 14
BRANCH 1 25
ATOM     25  N   ARG B   3      50.605  33.480   7.651  0.50 45.48 LIG-0.35  N 
ATOM     26 H    ARG B   3      51.019  32.861   8.082  0.50 45.48 LIG 0.16  HD
ATOM     27  C   ALA B   2      51.148  34.335   6.793  0.50 45.44 LIG 0.24  C 
ATOM     28 O    ALA B   2      50.456  35.113   6.145  0.50 45.54 LIG-0.27  OA
BRANCH 27 29
ATOM     29  CA  ALA B   2      52.655  34.345   6.601  0.50 45.45 LIG 0.17  C 
ATOM     30  CB  ALA B   2      53.282  35.400   7.433  0.50 45.48 LIG 0.04  C 
BRANCH 29 31
ATOM     31  N   ALA B   2      52.837  34.700   5.219  0.50 45.47 LIG-0.35  N 
ATOM     32 H    ALA B   2      53.270  35.434   5.108  0.50 45.47 LIG 0.16  HD
ATOM     33  C   VAL B   1      52.384  33.973   4.212  0.50 45.44 LIG 0.25  C 
ATOM     34 O    VAL B   1      51.999  32.812   4.331  0.50 45.56 LIG-0.27  OA
BRANCH 33 35
ATOM     35  CA  VAL B   1      52.529  34.637   2.853  0.50 45.37 LIG 0.28  C 
BRANCH 35 36
ATOM     36  CB  VAL B   1      52.415  33.604   1.712  0.50 45.32 LIG 0.02  C 
ATOM     37  CG2 VAL B   1      52.589  34.259   0.332  0.50 45.23 LIG 0.01  C 
ATOM     38  CG1 VAL B   1      51.111  32.858   1.830  0.50 45.24 LIG 0.01  C 
ENDBRANCH 35 36
BRANCH 35 39
ATOM     39  N   VAL B   1      53.811  35.392   2.783  0.50 45.40 LIG-0.07  N 
ATOM     40 H3   VAL B   1      54.473  34.836   2.571  0.50 45.40 LIG 0.28  HD
ATOM     41 H1   VAL B   1      53.748  36.028   2.163  0.50 45.40 LIG 0.28  HD
ATOM     42 H2   VAL B   1      53.980  35.765   3.574  0.50 45.40 LIG 0.28  HD
ENDBRANCH 35 39
ENDBRANCH 33 35
ENDBRANCH 29 31
ENDBRANCH 27 29
ENDBRANCH 1 25
TORSDOF 15
ENDMDL
MODEL 34
USER: ADFR SOLUTION from run 96
USER: SCORE 13.908493 LL:  -2.461 LR: -12.217 RR:   0.000 FEB:  -7.742
USER: RMSD 10.049884
USER: SEED 95
USER: STATUS no improvement in best 8 clusters for 5 generations
USER: GENES 17
USER: genes 0 Translation |==|  0.48148 0.27377 0.59242
USER: genes 1 Rotation |==|  0.46731 0.15188 0.85331 0.55400
USER: genes 2 Torsion [C]-CA--CB-[CG] |==|  0.44893
USER: genes 3 Torsion [CA]-CB--CG-[CD] |==|  0.26280
USER: genes 4 Torsion [CB]-CG--CD-[NE] |==|  0.62556
USER: genes 5 Torsion [CG]-CD--NE-[CZ] |==|  0.78984
USER: genes 6 Torsion [N]-CA--C-[N] |==|  0.18343
USER: genes 7 Torsion [C]-N--CA-[CB] |==|  0.34535
USER: genes 8 Torsion [N]-CA--C-[OXT] |==|  0.83123
USER: genes 9 Torsion [N]-CA--CB-[OG] |==|  0.06939
USER: genes 10 Torsion [CA]-CB--OG-[HG] |==|  0.13452
USER: genes 11 Torsion [CB]-CA--N-[C] |==|  0.79889
USER: genes 12 Torsion [N]-C--CA-[N] |==|  0.31546
USER: genes 13 Torsion [C]-CA--N-[C] |==|  0.72468
USER: genes 14 Torsion [N]-C--CA-[N] |==|  0.18184
USER: genes 15 Torsion [C]-CA--CB-[CG2] |==|  0.72030
USER: genes 16 Torsion [C]-CA--N-[H1] |==|  0.16058
ROOT
ATOM      1  CA  ARG B   3      52.674  34.603  11.353  0.50 45.43 LIG 0.18  C 
ENDROOT
BRANCH 1 2
ATOM      2  CB  ARG B   3      53.178  35.489  12.460  0.50 45.40 LIG 0.04  C 
BRANCH 2 3
ATOM      3  CG  ARG B   3      54.480  34.982  12.979  0.50 45.00 LIG 0.02  C 
BRANCH 3 4
ATOM      4  CD  ARG B   3      55.629  35.655  12.319  0.50 44.41 LIG 0.14  C 
BRANCH 4 5
ATOM      5  NE  ARG B   3      56.618  34.658  11.949  0.50 44.18 LIG-0.23  N 
ATOM      6  CZ  ARG B   3      57.433  34.077  12.807  0.50 43.75 LIG 0.67  C 
ATOM      7  NH1 ARG B   3      58.311  33.190  12.381  0.50 44.03 LIG-0.23  N 
ATOM      8  NH2 ARG B   3      57.372  34.380  14.095  0.50 43.85 LIG-0.23  N 
ATOM      9 12HH ARG B   3      58.844  32.809  12.939  0.50 44.03 LIG 0.17  HD
ATOM     10 11HH ARG B   3      58.351  32.992  11.545  0.50 44.03 LIG 0.17  HD
ATOM     11 22HH ARG B   3      57.906  33.999  14.651  0.50 43.85 LIG 0.17  HD
ATOM     12 21HH ARG B   3      56.800  34.957  14.374  0.50 43.85 LIG 0.17  HD
ATOM     13 HE   ARG B   3      56.676  34.434  11.121  0.50 44.18 LIG 0.18  HD
ENDBRANCH 4 5
ENDBRANCH 3 4
ENDBRANCH 2 3
ENDBRANCH 1 2
BRANCH 1 14
ATOM     14  C   ARG B   3      51.189  34.825  11.132  0.50 45.62 LIG 0.24  C 
ATOM     15  N   SER B   4      50.594  33.881  10.411  0.50 45.72 LIG-0.34  N 
ATOM     16 H    SER B   4      50.990  33.169  10.135  0.50 45.72 LIG 0.16  HD
ATOM     17 O    ARG B   3      50.602  35.797  11.606  0.50 45.72 LIG-0.27  OA
BRANCH 15 18
ATOM     18  CA  SER B   4      49.198  33.976  10.023  0.50 45.84 LIG 0.21  C 
BRANCH 18 19
ATOM     19  C   SER B   4      48.335  32.909  10.686  0.50 45.90 LIG 0.20  C 
ATOM     20 O    SER B   4      47.406  33.221  11.434  0.50 45.95 LIG-0.65  OA
ATOM     21 OXT  SER B   4      48.546  31.713  10.498  0.50 46.05 LIG-0.65  OA
ENDBRANCH 18 19
BRANCH 18 22
ATOM     22  CB  SER B   4      49.096  33.859   8.504  0.50 45.85 LIG 0.20  C 
BRANCH 22 23
ATOM     23 OG   SER B   4      50.204  33.150   7.975  0.50 45.98 LIG-0.40  OA
ATOM     24 HG   SER B   4      50.320  32.444   8.414  0.50 45.98 LIG 0.21  HD
ENDBRANCH 22 23
ENDBRANCH 18 22
ENDBRANCH 15 18
ENDBRANCH 1 14
BRANCH 1 25
ATOM     25  N   ARG B   3      53.487  34.679  10.143  0.50 45.48 LIG-0.35  N 
ATOM     26 H    ARG B   3      53.980  33.996   9.969  0.50 45.48 LIG 0.16  HD
ATOM     27  C   ALA B   2      53.398  35.786   9.416  0.50 45.44 LIG 0.24  C 
ATOM     28 O    ALA B   2      52.584  36.663   9.688  0.50 45.54 LIG-0.27  OA
BRANCH 27 29
ATOM     29  CA  ALA B   2      54.314  35.968   8.218  0.50 45.45 LIG 0.17  C 
ATOM     30  CB  ALA B   2      54.974  37.296   8.259  0.50 45.48 LIG 0.04  C 
BRANCH 29 31
ATOM     31  N   ALA B   2      53.428  35.946   7.084  0.50 45.47 LIG-0.35  N 
ATOM     32 H    ALA B   2      53.033  36.696   6.943  0.50 45.47 LIG 0.16  HD
ATOM     33  C   VAL B   1      53.234  34.878   6.330  0.50 45.44 LIG 0.25  C 
ATOM     34 O    VAL B   1      53.965  33.890   6.349  0.50 45.56 LIG-0.27  OA
BRANCH 33 35
ATOM     35  CA  VAL B   1      52.118  35.034   5.310  0.50 45.37 LIG 0.28  C 
BRANCH 35 36
ATOM     36  CB  VAL B   1      51.786  33.685   4.636  0.50 45.32 LIG 0.02  C 
ATOM     37  CG2 VAL B   1      52.427  33.572   3.244  0.50 45.23 LIG 0.01  C 
ATOM     38  CG1 VAL B   1      50.292  33.493   4.595  0.50 45.24 LIG 0.01  C 
ENDBRANCH 35 36
BRANCH 35 39
ATOM     39  N   VAL B   1      52.480  36.073   4.306  0.50 45.40 LIG-0.07  N 
ATOM     40 H3   VAL B   1      52.577  36.859   4.714  0.50 45.40 LIG 0.28  HD
ATOM     41 H1   VAL B   1      53.244  35.849   3.909  0.50 45.40 LIG 0.28  HD
ATOM     42 H2   VAL B   1      51.835  36.134   3.696  0.50 45.40 LIG 0.28  HD
ENDBRANCH 35 39
ENDBRANCH 33 35
ENDBRANCH 29 31
ENDBRANCH 27 29
ENDBRANCH 1 25
TORSDOF 15
ENDMDL
MODEL 35
USER: ADFR SOLUTION from run 60
USER: SCORE 13.555461 LL:  -1.654 LR: -12.206 RR:   0.000 FEB:  -7.731
USER: RMSD 8.430912
USER: SEED 59
USER: STATUS no improvement in best 7 clusters for 5 generations
USER: GENES 17
USER: genes 0 Translation |==|  0.52843 0.30875 0.50371
USER: genes 1 Rotation |==|  0.84785 0.35992 0.82068 0.58088
USER: genes 2 Torsion [C]-CA--CB-[CG] |==|  0.44585
USER: genes 3 Torsion [CA]-CB--CG-[CD] |==|  0.33019
USER: genes 4 Torsion [CB]-CG--CD-[NE] |==|  0.36969
USER: genes 5 Torsion [CG]-CD--NE-[CZ] |==|  0.78711
USER: genes 6 Torsion [N]-CA--C-[N] |==|  0.43717
USER: genes 7 Torsion [C]-N--CA-[CB] |==|  0.42560
USER: genes 8 Torsion [N]-CA--C-[OXT] |==|  0.14565
USER: genes 9 Torsion [N]-CA--CB-[OG] |==|  0.16796
USER: genes 10 Torsion [CA]-CB--OG-[HG] |==|  0.75086
USER: genes 11 Torsion [CB]-CA--N-[C] |==|  0.82882
USER: genes 12 Torsion [N]-C--CA-[N] |==|  0.97222
USER: genes 13 Torsion [C]-CA--N-[C] |==|  0.71077
USER: genes 14 Torsion [N]-C--CA-[N] |==|  0.87854
USER: genes 15 Torsion [C]-CA--CB-[CG2] |==|  0.33154
USER: genes 16 Torsion [C]-CA--N-[H1] |==|  0.59721
ROOT
ATOM      1  CA  ARG B   3      54.083  35.652   8.691  0.50 45.43 LIG 0.18  C 
ENDROOT
BRANCH 1 2
ATOM      2  CB  ARG B   3      53.994  37.153   8.761  0.50 45.40 LIG 0.04  C 
BRANCH 2 3
ATOM      3  CG  ARG B   3      54.496  37.762   7.496  0.50 45.00 LIG 0.02  C 
BRANCH 3 4
ATOM      4  CD  ARG B   3      53.438  38.549   6.812  0.50 44.41 LIG 0.14  C 
BRANCH 4 5
ATOM      5  NE  ARG B   3      53.981  39.835   6.413  0.50 44.18 LIG-0.23  N 
ATOM      6  CZ  ARG B   3      54.184  40.838   7.244  0.50 43.75 LIG 0.67  C 
ATOM      7  NH1 ARG B   3      54.670  41.977   6.792  0.50 44.03 LIG-0.23  N 
ATOM      8  NH2 ARG B   3      53.902  40.704   8.531  0.50 43.85 LIG-0.23  N 
ATOM      9 12HH ARG B   3      54.804  42.633   7.333  0.50 44.03 LIG 0.17  HD
ATOM     10 11HH ARG B   3      54.855  42.065   5.957  0.50 44.03 LIG 0.17  HD
ATOM     11 22HH ARG B   3      54.036  41.360   9.071  0.50 43.85 LIG 0.17  HD
ATOM     12 21HH ARG B   3      53.586  39.961   8.827  0.50 43.85 LIG 0.17  HD
ATOM     13 HE   ARG B   3      54.183  39.950   5.584  0.50 44.18 LIG 0.18  HD
ENDBRANCH 4 5
ENDBRANCH 3 4
ENDBRANCH 2 3
ENDBRANCH 1 2
BRANCH 1 14
ATOM     14  C   ARG B   3      54.041  35.055  10.086  0.50 45.62 LIG 0.24  C 
ATOM     15  N   SER B   4      55.155  35.222  10.789  0.50 45.72 LIG-0.34  N 
ATOM     16 H    SER B   4      55.831  35.677  10.513  0.50 45.72 LIG 0.16  HD
ATOM     17 O    ARG B   3      53.039  34.483  10.516  0.50 45.72 LIG-0.27  OA
BRANCH 15 18
ATOM     18  CA  SER B   4      55.328  34.636  12.107  0.50 45.84 LIG 0.21  C 
BRANCH 18 19
ATOM     19  C   SER B   4      54.735  35.504  13.211  0.50 45.90 LIG 0.20  C 
ATOM     20 O    SER B   4      55.407  35.823  14.194  0.50 45.95 LIG-0.65  OA
ATOM     21 OXT  SER B   4      53.573  35.901  13.154  0.50 46.05 LIG-0.65  OA
ENDBRANCH 18 19
BRANCH 18 22
ATOM     22  CB  SER B   4      56.817  34.414  12.360  0.50 45.85 LIG 0.20  C 
BRANCH 22 23
ATOM     23 OG   SER B   4      57.527  35.640  12.313  0.50 45.98 LIG-0.40  OA
ATOM     24 HG   SER B   4      57.781  35.786  11.527  0.50 45.98 LIG 0.21  HD
ENDBRANCH 22 23
ENDBRANCH 18 22
ENDBRANCH 15 18
ENDBRANCH 1 14
BRANCH 1 25
ATOM     25  N   ARG B   3      53.137  35.064   7.749  0.50 45.48 LIG-0.35  N 
ATOM     26 H    ARG B   3      53.474  34.626   7.091  0.50 45.48 LIG 0.16  HD
ATOM     27  C   ALA B   2      51.843  35.252   7.985  0.50 45.44 LIG 0.24  C 
ATOM     28 O    ALA B   2      51.456  35.801   9.011  0.50 45.54 LIG-0.27  OA
BRANCH 27 29
ATOM     29  CA  ALA B   2      50.822  34.770   6.970  0.50 45.45 LIG 0.17  C 
ATOM     30  CB  ALA B   2      50.127  33.555   7.461  0.50 45.48 LIG 0.04  C 
BRANCH 29 31
ATOM     31  N   ALA B   2      51.607  34.401   5.821  0.50 45.47 LIG-0.35  N 
ATOM     32 H    ALA B   2      52.019  33.653   5.915  0.50 45.47 LIG 0.16  HD
ATOM     33  C   VAL B   1      51.691  35.137   4.727  0.50 45.44 LIG 0.25  C 
ATOM     34 O    VAL B   1      50.922  36.061   4.469  0.50 45.56 LIG-0.27  OA
BRANCH 33 35
ATOM     35  CA  VAL B   1      52.722  34.644   3.725  0.50 45.37 LIG 0.28  C 
BRANCH 35 36
ATOM     36  CB  VAL B   1      52.167  33.476   2.882  0.50 45.32 LIG 0.02  C 
ATOM     37  CG2 VAL B   1      52.140  33.819   1.384  0.50 45.23 LIG 0.01  C 
ATOM     38  CG1 VAL B   1      50.810  33.075   3.401  0.50 45.24 LIG 0.01  C 
ENDBRANCH 35 36
BRANCH 35 39
ATOM     39  N   VAL B   1      53.980  34.265   4.427  0.50 45.40 LIG-0.07  N 
ATOM     40 H3   VAL B   1      53.976  33.391   4.593  0.50 45.40 LIG 0.28  HD
ATOM     41 H1   VAL B   1      54.678  34.466   3.913  0.50 45.40 LIG 0.28  HD
ATOM     42 H2   VAL B   1      54.039  34.712   5.194  0.50 45.40 LIG 0.28  HD
ENDBRANCH 35 39
ENDBRANCH 33 35
ENDBRANCH 29 31
ENDBRANCH 27 29
ENDBRANCH 1 25
TORSDOF 15
ENDMDL
MODEL 36
USER: ADFR SOLUTION from run 28
USER: SCORE 13.320275 LL:  -2.697 LR: -12.214 RR:   0.000 FEB:  -7.740
USER: RMSD 12.270932
USER: SEED 27
USER: STATUS no improvement in best 5 clusters for 5 generations
USER: GENES 17
USER: genes 0 Translation |==|  0.36376 0.19851 0.43619
USER: genes 1 Rotation |==|  0.37494 0.86565 0.28988 0.73772
USER: genes 2 Torsion [C]-CA--CB-[CG] |==|  0.29794
USER: genes 3 Torsion [CA]-CB--CG-[CD] |==|  0.73157
USER: genes 4 Torsion [CB]-CG--CD-[NE] |==|  0.37182
USER: genes 5 Torsion [CG]-CD--NE-[CZ] |==|  0.27234
USER: genes 6 Torsion [N]-CA--C-[N] |==|  0.92423
USER: genes 7 Torsion [C]-N--CA-[CB] |==|  0.48403
USER: genes 8 Torsion [N]-CA--C-[OXT] |==|  0.82524
USER: genes 9 Torsion [N]-CA--CB-[OG] |==|  0.77039
USER: genes 10 Torsion [CA]-CB--OG-[HG] |==|  0.38148
USER: genes 11 Torsion [CB]-CA--N-[C] |==|  0.22772
USER: genes 12 Torsion [N]-C--CA-[N] |==|  0.79004
USER: genes 13 Torsion [C]-CA--N-[C] |==|  0.87350
USER: genes 14 Torsion [N]-C--CA-[N] |==|  0.37337
USER: genes 15 Torsion [C]-CA--CB-[CG2] |==|  0.38030
USER: genes 16 Torsion [C]-CA--N-[H1] |==|  0.94552
ROOT
ATOM      1  CA  ARG B   3      49.143  32.345   6.666  0.50 45.43 LIG 0.18  C 
ENDROOT
BRANCH 1 2
ATOM      2  CB  ARG B   3      48.325  32.268   7.927  0.50 45.40 LIG 0.04  C 
BRANCH 2 3
ATOM      3  CG  ARG B   3      49.122  31.650   9.025  0.50 45.00 LIG 0.02  C 
BRANCH 3 4
ATOM      4  CD  ARG B   3      48.836  30.198   9.157  0.50 44.41 LIG 0.14  C 
BRANCH 4 5
ATOM      5  NE  ARG B   3      50.088  29.473   9.278  0.50 44.18 LIG-0.23  N 
ATOM      6  CZ  ARG B   3      50.602  29.080  10.427  0.50 43.75 LIG 0.67  C 
ATOM      7  NH1 ARG B   3      51.753  28.436  10.445  0.50 44.03 LIG-0.23  N 
ATOM      8  NH2 ARG B   3      49.965  29.328  11.561  0.50 43.85 LIG-0.23  N 
ATOM      9 12HH ARG B   3      52.090  28.179  11.193  0.50 44.03 LIG 0.17  HD
ATOM     10 11HH ARG B   3      52.166  28.274   9.709  0.50 44.03 LIG 0.17  HD
ATOM     11 22HH ARG B   3      50.304  29.070  12.309  0.50 43.85 LIG 0.17  HD
ATOM     12 21HH ARG B   3      49.214  29.746  11.551  0.50 43.85 LIG 0.17  HD
ATOM     13 HE   ARG B   3      50.521  29.289   8.558  0.50 44.18 LIG 0.18  HD
ENDBRANCH 4 5
ENDBRANCH 3 4
ENDBRANCH 2 3
ENDBRANCH 1 2
BRANCH 1 14
ATOM     14  C   ARG B   3      48.656  31.322   5.656  0.50 45.62 LIG 0.24  C 
ATOM     15  N   SER B   4      47.898  31.823   4.688  0.50 45.72 LIG-0.34  N 
ATOM     16 H    SER B   4      47.736  32.663   4.593  0.50 45.72 LIG 0.16  HD
ATOM     17 O    ARG B   3      48.964  30.133   5.739  0.50 45.72 LIG-0.27  OA
BRANCH 15 18
ATOM     18  CA  SER B   4      47.269  30.977   3.688  0.50 45.84 LIG 0.21  C 
BRANCH 18 19
ATOM     19  C   SER B   4      48.286  30.245   2.821  0.50 45.90 LIG 0.20  C 
ATOM     20 O    SER B   4      48.355  29.015   2.828  0.50 45.95 LIG-0.65  OA
ATOM     21 OXT  SER B   4      49.066  30.862   2.097  0.50 46.05 LIG-0.65  OA
ENDBRANCH 18 19
BRANCH 18 22
ATOM     22  CB  SER B   4      46.359  31.836   2.813  0.50 45.85 LIG 0.20  C 
BRANCH 22 23
ATOM     23 OG   SER B   4      45.099  32.035   3.432  0.50 45.98 LIG-0.40  OA
ATOM     24 HG   SER B   4      44.865  32.835   3.339  0.50 45.98 LIG 0.21  HD
ENDBRANCH 22 23
ENDBRANCH 18 22
ENDBRANCH 15 18
ENDBRANCH 1 14
BRANCH 1 25
ATOM     25  N   ARG B   3      49.267  33.702   6.144  0.50 45.48 LIG-0.35  N 
ATOM     26 H    ARG B   3      48.728  33.920   5.510  0.50 45.48 LIG 0.16  HD
ATOM     27  C   ALA B   2      50.195  34.482   6.686  0.50 45.44 LIG 0.24  C 
ATOM     28 O    ALA B   2      50.844  34.117   7.661  0.50 45.54 LIG-0.27  OA
BRANCH 27 29
ATOM     29  CA  ALA B   2      50.450  35.859   6.096  0.50 45.45 LIG 0.17  C 
ATOM     30  CB  ALA B   2      49.174  36.512   5.718  0.50 45.48 LIG 0.04  C 
BRANCH 29 31
ATOM     31  N   ALA B   2      51.193  35.598   4.892  0.50 45.47 LIG-0.35  N 
ATOM     32 H    ALA B   2      50.910  36.043   4.213  0.50 45.47 LIG 0.16  HD
ATOM     33  C   VAL B   1      52.210  34.757   4.828  0.50 45.44 LIG 0.25  C 
ATOM     34 O    VAL B   1      52.789  34.314   5.818  0.50 45.56 LIG-0.27  OA
BRANCH 33 35
ATOM     35  CA  VAL B   1      52.717  34.502   3.418  0.50 45.37 LIG 0.28  C 
BRANCH 35 36
ATOM     36  CB  VAL B   1      52.199  33.154   2.873  0.50 45.32 LIG 0.02  C 
ATOM     37  CG2 VAL B   1      51.731  33.272   1.414  0.50 45.23 LIG 0.01  C 
ATOM     38  CG1 VAL B   1      51.117  32.623   3.779  0.50 45.24 LIG 0.01  C 
ENDBRANCH 35 36
BRANCH 35 39
ATOM     39  N   VAL B   1      54.205  34.571   3.387  0.50 45.40 LIG-0.07  N 
ATOM     40 H3   VAL B   1      54.468  34.992   2.648  0.50 45.40 LIG 0.28  HD
ATOM     41 H1   VAL B   1      54.496  35.015   4.101  0.50 45.40 LIG 0.28  HD
ATOM     42 H2   VAL B   1      54.541  33.747   3.393  0.50 45.40 LIG 0.28  HD
ENDBRANCH 35 39
ENDBRANCH 33 35
ENDBRANCH 29 31
ENDBRANCH 27 29
ENDBRANCH 1 25
TORSDOF 15
ENDMDL
MODEL 37
USER: ADFR SOLUTION from run 37
USER: SCORE 13.512737 LL:  -1.691 LR: -12.195 RR:   0.000 FEB:  -7.721
USER: RMSD 9.804940
USER: SEED 36
USER: STATUS no improvement in best 2 clusters for 5 generations
USER: GENES 17
USER: genes 0 Translation |==|  0.46914 0.28477 0.51553
USER: genes 1 Rotation |==|  0.76542 0.35893 0.89006 0.58665
USER: genes 2 Torsion [C]-CA--CB-[CG] |==|  0.47492
USER: genes 3 Torsion [CA]-CB--CG-[CD] |==|  0.89131
USER: genes 4 Torsion [CB]-CG--CD-[NE] |==|  0.79348
USER: genes 5 Torsion [CG]-CD--NE-[CZ] |==|  0.81872
USER: genes 6 Torsion [N]-CA--C-[N] |==|  0.87443
USER: genes 7 Torsion [C]-N--CA-[CB] |==|  0.77690
USER: genes 8 Torsion [N]-CA--C-[OXT] |==|  0.13518
USER: genes 9 Torsion [N]-CA--CB-[OG] |==|  0.93013
USER: genes 10 Torsion [CA]-CB--OG-[HG] |==|  0.20322
USER: genes 11 Torsion [CB]-CA--N-[C] |==|  0.85289
USER: genes 12 Torsion [N]-C--CA-[N] |==|  0.88889
USER: genes 13 Torsion [C]-CA--N-[C] |==|  0.73973
USER: genes 14 Torsion [N]-C--CA-[N] |==|  0.87383
USER: genes 15 Torsion [C]-CA--CB-[CG2] |==|  0.27476
USER: genes 16 Torsion [C]-CA--N-[H1] |==|  0.69281
ROOT
ATOM      1  CA  ARG B   3      52.304  34.933   9.046  0.50 45.43 LIG 0.18  C 
ENDROOT
BRANCH 1 2
ATOM      2  CB  ARG B   3      52.334  36.429   8.882  0.50 45.40 LIG 0.04  C 
BRANCH 2 3
ATOM      3  CG  ARG B   3      53.143  36.804   7.687  0.50 45.00 LIG 0.02  C 
BRANCH 3 4
ATOM      4  CD  ARG B   3      54.348  35.945   7.552  0.50 44.41 LIG 0.14  C 
BRANCH 4 5
ATOM      5  NE  ARG B   3      55.329  36.336   8.549  0.50 44.18 LIG-0.23  N 
ATOM      6  CZ  ARG B   3      55.932  37.508   8.566  0.50 43.75 LIG 0.67  C 
ATOM      7  NH1 ARG B   3      56.820  37.775   9.504  0.50 44.03 LIG-0.23  N 
ATOM      8  NH2 ARG B   3      55.648  38.418   7.648  0.50 43.85 LIG-0.23  N 
ATOM      9 12HH ARG B   3      57.216  38.539   9.518  0.50 44.03 LIG 0.17  HD
ATOM     10 11HH ARG B   3      57.005  37.185  10.102  0.50 44.03 LIG 0.17  HD
ATOM     11 22HH ARG B   3      56.044  39.181   7.662  0.50 43.85 LIG 0.17  HD
ATOM     12 21HH ARG B   3      55.068  38.246   7.036  0.50 43.85 LIG 0.17  HD
ATOM     13 HE   ARG B   3      55.528  35.769   9.165  0.50 44.18 LIG 0.18  HD
ENDBRANCH 4 5
ENDBRANCH 3 4
ENDBRANCH 2 3
ENDBRANCH 1 2
BRANCH 1 14
ATOM     14  C   ARG B   3      51.674  34.560  10.375  0.50 45.62 LIG 0.24  C 
ATOM     15  N   SER B   4      50.347  34.512  10.360  0.50 45.72 LIG-0.34  N 
ATOM     16 H    SER B   4      49.872  34.622   9.651  0.50 45.72 LIG 0.16  HD
ATOM     17 O    ARG B   3      52.357  34.310  11.369  0.50 45.72 LIG-0.27  OA
BRANCH 15 18
ATOM     18  CA  SER B   4      49.572  34.262  11.563  0.50 45.84 LIG 0.21  C 
BRANCH 18 19
ATOM     19  C   SER B   4      50.113  35.019  12.771  0.50 45.90 LIG 0.20  C 
ATOM     20 O    SER B   4      50.296  34.446  13.846  0.50 45.95 LIG-0.65  OA
ATOM     21 OXT  SER B   4      50.373  36.219  12.705  0.50 46.05 LIG-0.65  OA
ENDBRANCH 18 19
BRANCH 18 22
ATOM     22  CB  SER B   4      49.567  32.762  11.848  0.50 45.85 LIG 0.20  C 
BRANCH 22 23
ATOM     23 OG   SER B   4      49.775  32.020  10.658  0.50 45.98 LIG-0.40  OA
ATOM     24 HG   SER B   4      50.577  32.088  10.421  0.50 45.98 LIG 0.21  HD
ENDBRANCH 22 23
ENDBRANCH 18 22
ENDBRANCH 15 18
ENDBRANCH 1 14
BRANCH 1 25
ATOM     25  N   ARG B   3      51.743  34.240   7.891  0.50 45.48 LIG-0.35  N 
ATOM     26 H    ARG B   3      52.223  33.612   7.551  0.50 45.48 LIG 0.16  HD
ATOM     27  C   ALA B   2      50.549  34.632   7.464  0.50 45.44 LIG 0.24  C 
ATOM     28 O    ALA B   2      49.894  35.466   8.082  0.50 45.54 LIG-0.27  OA
BRANCH 27 29
ATOM     29  CA  ALA B   2      49.976  34.030   6.193  0.50 45.45 LIG 0.17  C 
ATOM     30  CB  ALA B   2      49.473  32.658   6.442  0.50 45.48 LIG 0.04  C 
BRANCH 29 31
ATOM     31  N   ALA B   2      51.103  33.938   5.303  0.50 45.47 LIG-0.35  N 
ATOM     32 H    ALA B   2      51.557  33.215   5.399  0.50 45.47 LIG 0.16  HD
ATOM     33  C   VAL B   1      51.416  34.872   4.421  0.50 45.44 LIG 0.25  C 
ATOM     34 O    VAL B   1      50.652  35.776   4.088  0.50 45.56 LIG-0.27  OA
BRANCH 33 35
ATOM     35  CA  VAL B   1      52.748  34.646   3.725  0.50 45.37 LIG 0.28  C 
BRANCH 35 36
ATOM     36  CB  VAL B   1      52.621  33.594   2.603  0.50 45.32 LIG 0.02  C 
ATOM     37  CG2 VAL B   1      52.479  34.250   1.221  0.50 45.23 LIG 0.01  C 
ATOM     38  CG1 VAL B   1      51.479  32.659   2.912  0.50 45.24 LIG 0.01  C 
ENDBRANCH 35 36
BRANCH 35 39
ATOM     39  N   VAL B   1      53.790  34.265   4.720  0.50 45.40 LIG-0.07  N 
ATOM     40 H3   VAL B   1      54.208  33.529   4.444  0.50 45.40 LIG 0.28  HD
ATOM     41 H1   VAL B   1      54.378  34.928   4.802  0.50 45.40 LIG 0.28  HD
ATOM     42 H2   VAL B   1      53.406  34.109   5.507  0.50 45.40 LIG 0.28  HD
ENDBRANCH 35 39
ENDBRANCH 33 35
ENDBRANCH 29 31
ENDBRANCH 27 29
ENDBRANCH 1 25
TORSDOF 15
ENDMDL
MODEL 38
USER: ADFR SOLUTION from run 44
USER: SCORE 13.327382 LL:  -2.080 LR: -12.187 RR:   0.000 FEB:  -7.712
USER: RMSD 10.068727
USER: SEED 43
USER: STATUS no improvement in best 9 clusters for 5 generations
USER: GENES 17
USER: genes 0 Translation |==|  0.50341 0.28430 0.49105
USER: genes 1 Rotation |==|  0.56137 0.15573 0.81578 0.66731
USER: genes 2 Torsion [C]-CA--CB-[CG] |==|  0.78473
USER: genes 3 Torsion [CA]-CB--CG-[CD] |==|  0.56585
USER: genes 4 Torsion [CB]-CG--CD-[NE] |==|  0.21929
USER: genes 5 Torsion [CG]-CD--NE-[CZ] |==|  0.49673
USER: genes 6 Torsion [N]-CA--C-[N] |==|  0.37539
USER: genes 7 Torsion [C]-N--CA-[CB] |==|  0.42470
USER: genes 8 Torsion [N]-CA--C-[OXT] |==|  0.11279
USER: genes 9 Torsion [N]-CA--CB-[OG] |==|  0.80616
USER: genes 10 Torsion [CA]-CB--OG-[HG] |==|  0.25016
USER: genes 11 Torsion [CB]-CA--N-[C] |==|  0.49444
USER: genes 12 Torsion [N]-C--CA-[N] |==|  0.45226
USER: genes 13 Torsion [C]-CA--N-[C] |==|  0.57840
USER: genes 14 Torsion [N]-C--CA-[N] |==|  0.73510
USER: genes 15 Torsion [C]-CA--CB-[CG2] |==|  0.74141
USER: genes 16 Torsion [C]-CA--N-[H1] |==|  0.21394
ROOT
ATOM      1  CA  ARG B   3      53.332  34.919   8.311  0.50 45.43 LIG 0.18  C 
ENDROOT
BRANCH 1 2
ATOM      2  CB  ARG B   3      54.456  35.581   9.063  0.50 45.40 LIG 0.04  C 
BRANCH 2 3
ATOM      3  CG  ARG B   3      54.503  37.037   8.750  0.50 45.00 LIG 0.02  C 
BRANCH 3 4
ATOM      4  CD  ARG B   3      55.857  37.603   8.985  0.50 44.41 LIG 0.14  C 
BRANCH 4 5
ATOM      5  NE  ARG B   3      56.717  37.263   7.865  0.50 44.18 LIG-0.23  N 
ATOM      6  CZ  ARG B   3      57.976  37.640   7.765  0.50 43.75 LIG 0.67  C 
ATOM      7  NH1 ARG B   3      58.682  37.296   6.705  0.50 44.03 LIG-0.23  N 
ATOM      8  NH2 ARG B   3      58.535  38.361   8.725  0.50 43.85 LIG-0.23  N 
ATOM      9 12HH ARG B   3      59.504  37.541   6.637  0.50 44.03 LIG 0.17  HD
ATOM     10 11HH ARG B   3      58.320  36.828   6.081  0.50 44.03 LIG 0.17  HD
ATOM     11 22HH ARG B   3      59.357  38.605   8.656  0.50 43.85 LIG 0.17  HD
ATOM     12 21HH ARG B   3      58.077  38.584   9.417  0.50 43.85 LIG 0.17  HD
ATOM     13 HE   ARG B   3      56.386  36.788   7.229  0.50 44.18 LIG 0.18  HD
ENDBRANCH 4 5
ENDBRANCH 3 4
ENDBRANCH 2 3
ENDBRANCH 1 2
BRANCH 1 14
ATOM     14  C   ARG B   3      52.002  35.213   8.981  0.50 45.62 LIG 0.24  C 
ATOM     15  N   SER B   4      51.590  34.271   9.821  0.50 45.72 LIG-0.34  N 
ATOM     16 H    SER B   4      52.053  33.575  10.024  0.50 45.72 LIG 0.16  HD
ATOM     17 O    ARG B   3      51.383  36.255   8.762  0.50 45.72 LIG-0.27  OA
BRANCH 15 18
ATOM     18  CA  SER B   4      50.297  34.341  10.480  0.50 45.84 LIG 0.21  C 
BRANCH 18 19
ATOM     19  C   SER B   4      50.338  35.174  11.756  0.50 45.90 LIG 0.20  C 
ATOM     20 O    SER B   4      49.722  34.820  12.762  0.50 45.95 LIG-0.65  OA
ATOM     21 OXT  SER B   4      50.979  36.222  11.811  0.50 46.05 LIG-0.65  OA
ENDBRANCH 18 19
BRANCH 18 22
ATOM     22  CB  SER B   4      49.825  32.924  10.798  0.50 45.85 LIG 0.20  C 
BRANCH 22 23
ATOM     23 OG   SER B   4      49.485  32.225   9.613  0.50 45.98 LIG-0.40  OA
ATOM     24 HG   SER B   4      50.162  31.825   9.319  0.50 45.98 LIG 0.21  HD
ENDBRANCH 22 23
ENDBRANCH 18 22
ENDBRANCH 15 18
ENDBRANCH 1 14
BRANCH 1 25
ATOM     25  N   ARG B   3      53.363  35.188   6.878  0.50 45.48 LIG-0.35  N 
ATOM     26 H    ARG B   3      53.988  35.709   6.600  0.50 45.48 LIG 0.16  HD
ATOM     27  C   ALA B   2      52.432  34.611   6.128  0.50 45.44 LIG 0.24  C 
ATOM     28 O    ALA B   2      51.647  33.796   6.602  0.50 45.54 LIG-0.27  OA
BRANCH 27 29
ATOM     29  CA  ALA B   2      52.343  34.957   4.651  0.50 45.45 LIG 0.17  C 
ATOM     30  CB  ALA B   2      51.609  36.231   4.455  0.50 45.48 LIG 0.04  C 
BRANCH 29 31
ATOM     31  N   ALA B   2      51.555  33.896   4.083  0.50 45.47 LIG-0.35  N 
ATOM     32 H    ALA B   2      51.002  33.544   4.640  0.50 45.47 LIG 0.16  HD
ATOM     33  C   VAL B   1      51.665  33.494   2.829  0.50 45.44 LIG 0.25  C 
ATOM     34 O    VAL B   1      52.248  34.138   1.958  0.50 45.56 LIG-0.27  OA
BRANCH 33 35
ATOM     35  CA  VAL B   1      50.870  32.240   2.506  0.50 45.37 LIG 0.28  C 
BRANCH 35 36
ATOM     36  CB  VAL B   1      49.619  32.126   3.404  0.50 45.32 LIG 0.02  C 
ATOM     37  CG2 VAL B   1      49.898  31.288   4.662  0.50 45.23 LIG 0.01  C 
ATOM     38  CG1 VAL B   1      48.466  31.582   2.600  0.50 45.24 LIG 0.01  C 
ENDBRANCH 35 36
BRANCH 35 39
ATOM     39  N   VAL B   1      51.740  31.036   2.621  0.50 45.40 LIG-0.07  N 
ATOM     40 H3   VAL B   1      52.531  31.204   2.249  0.50 45.40 LIG 0.28  HD
ATOM     41 H1   VAL B   1      51.853  30.833   3.480  0.50 45.40 LIG 0.28  HD
ATOM     42 H2   VAL B   1      51.356  30.351   2.203  0.50 45.40 LIG 0.28  HD
ENDBRANCH 35 39
ENDBRANCH 33 35
ENDBRANCH 29 31
ENDBRANCH 27 29
ENDBRANCH 1 25
TORSDOF 15
ENDMDL
MODEL 39
USER: ADFR SOLUTION from run 45
USER: SCORE 13.252369 LL:  -3.045 LR: -12.170 RR:   0.000 FEB:  -7.696
USER: RMSD 8.722352
USER: SEED 44
USER: STATUS no improvement in best 1 clusters for 5 generations
USER: GENES 17
USER: genes 0 Translation |==|  0.48418 0.33579 0.47897
USER: genes 1 Rotation |==|  0.43467 0.28600 0.75268 0.86890
USER: genes 2 Torsion [C]-CA--CB-[CG] |==|  0.11090
USER: genes 3 Torsion [CA]-CB--CG-[CD] |==|  0.24788
USER: genes 4 Torsion [CB]-CG--CD-[NE] |==|  0.73672
USER: genes 5 Torsion [CG]-CD--NE-[CZ] |==|  0.30700
USER: genes 6 Torsion [N]-CA--C-[N] |==|  0.35005
USER: genes 7 Torsion [C]-N--CA-[CB] |==|  0.18414
USER: genes 8 Torsion [N]-CA--C-[OXT] |==|  0.95510
USER: genes 9 Torsion [N]-CA--CB-[OG] |==|  0.39552
USER: genes 10 Torsion [CA]-CB--OG-[HG] |==|  0.81296
USER: genes 11 Torsion [CB]-CA--N-[C] |==|  0.38912
USER: genes 12 Torsion [N]-C--CA-[N] |==|  0.06989
USER: genes 13 Torsion [C]-CA--N-[C] |==|  0.17732
USER: genes 14 Torsion [N]-C--CA-[N] |==|  0.34613
USER: genes 15 Torsion [C]-CA--CB-[CG2] |==|  0.33035
USER: genes 16 Torsion [C]-CA--N-[H1] |==|  0.24404
ROOT
ATOM      1  CA  ARG B   3      52.755  36.464   7.949  0.50 45.43 LIG 0.18  C 
ENDROOT
BRANCH 1 2
ATOM      2  CB  ARG B   3      54.185  35.996   7.987  0.50 45.40 LIG 0.04  C 
BRANCH 2 3
ATOM      3  CG  ARG B   3      54.819  36.368   9.284  0.50 45.00 LIG 0.02  C 
BRANCH 3 4
ATOM      4  CD  ARG B   3      54.628  35.309  10.309  0.50 44.41 LIG 0.14  C 
BRANCH 4 5
ATOM      5  NE  ARG B   3      53.461  35.626  11.112  0.50 44.18 LIG-0.23  N 
ATOM      6  CZ  ARG B   3      52.333  34.945  11.073  0.50 43.75 LIG 0.67  C 
ATOM      7  NH1 ARG B   3      51.318  35.312  11.830  0.50 44.03 LIG-0.23  N 
ATOM      8  NH2 ARG B   3      52.218  33.892  10.278  0.50 43.85 LIG-0.23  N 
ATOM      9 12HH ARG B   3      50.581  34.869  11.807  0.50 44.03 LIG 0.17  HD
ATOM     10 11HH ARG B   3      51.392  35.995  12.348  0.50 44.03 LIG 0.17  HD
ATOM     11 22HH ARG B   3      51.481  33.450  10.255  0.50 43.85 LIG 0.17  HD
ATOM     12 21HH ARG B   3      52.879  33.651   9.785  0.50 43.85 LIG 0.17  HD
ATOM     13 HE   ARG B   3      53.508  36.300  11.646  0.50 44.18 LIG 0.18  HD
ENDBRANCH 4 5
ENDBRANCH 3 4
ENDBRANCH 2 3
ENDBRANCH 1 2
BRANCH 1 14
ATOM     14  C   ARG B   3      52.633  37.839   8.578  0.50 45.62 LIG 0.24  C 
ATOM     15  N   SER B   4      52.096  37.842   9.793  0.50 45.72 LIG-0.34  N 
ATOM     16 H    SER B   4      51.885  37.128  10.225  0.50 45.72 LIG 0.16  HD
ATOM     17 O    ARG B   3      53.022  38.854   7.999  0.50 45.72 LIG-0.27  OA
BRANCH 15 18
ATOM     18  CA  SER B   4      51.818  39.075  10.508  0.50 45.84 LIG 0.21  C 
BRANCH 18 19
ATOM     19  C   SER B   4      51.399  38.829  11.953  0.50 45.90 LIG 0.20  C 
ATOM     20 O    SER B   4      51.417  39.742  12.781  0.50 45.95 LIG-0.65  OA
ATOM     21 OXT  SER B   4      51.039  37.716  12.330  0.50 46.05 LIG-0.65  OA
ENDBRANCH 18 19
BRANCH 18 22
ATOM     22  CB  SER B   4      50.720  39.839   9.770  0.50 45.85 LIG 0.20  C 
BRANCH 22 23
ATOM     23 OG   SER B   4      49.841  40.473  10.684  0.50 45.98 LIG-0.40  OA
ATOM     24 HG   SER B   4      49.409  39.890  11.106  0.50 45.98 LIG 0.21  HD
ENDBRANCH 22 23
ENDBRANCH 18 22
ENDBRANCH 15 18
ENDBRANCH 1 14
BRANCH 1 25
ATOM     25  N   ARG B   3      52.146  36.343   6.629  0.50 45.48 LIG-0.35  N 
ATOM     26 H    ARG B   3      52.643  36.547   5.958  0.50 45.48 LIG 0.16  HD
ATOM     27  C   ALA B   2      50.884  35.931   6.574  0.50 45.44 LIG 0.24  C 
ATOM     28 O    ALA B   2      50.291  35.561   7.582  0.50 45.54 LIG-0.27  OA
BRANCH 27 29
ATOM     29  CA  ALA B   2      50.164  35.909   5.237  0.50 45.45 LIG 0.17  C 
ATOM     30  CB  ALA B   2      49.297  34.711   5.128  0.50 45.48 LIG 0.04  C 
BRANCH 29 31
ATOM     31  N   ALA B   2      51.219  35.787   4.266  0.50 45.47 LIG-0.35  N 
ATOM     32 H    ALA B   2      51.282  36.465   3.741  0.50 45.47 LIG 0.16  HD
ATOM     33  C   VAL B   1      52.017  34.737   4.182  0.50 45.44 LIG 0.25  C 
ATOM     34 O    VAL B   1      52.118  33.887   5.065  0.50 45.56 LIG-0.27  OA
BRANCH 33 35
ATOM     35  CA  VAL B   1      52.928  34.745   2.966  0.50 45.37 LIG 0.28  C 
BRANCH 35 36
ATOM     36  CB  VAL B   1      52.532  33.641   1.963  0.50 45.32 LIG 0.02  C 
ATOM     37  CG2 VAL B   1      52.127  34.228   0.601  0.50 45.23 LIG 0.01  C 
ATOM     38  CG1 VAL B   1      51.447  32.780   2.559  0.50 45.24 LIG 0.01  C 
ENDBRANCH 35 36
BRANCH 35 39
ATOM     39  N   VAL B   1      54.351  34.616   3.390  0.50 45.40 LIG-0.07  N 
ATOM     40 H3   VAL B   1      54.462  35.008   4.181  0.50 45.40 LIG 0.28  HD
ATOM     41 H1   VAL B   1      54.564  33.754   3.453  0.50 45.40 LIG 0.28  HD
ATOM     42 H2   VAL B   1      54.877  35.008   2.789  0.50 45.40 LIG 0.28  HD
ENDBRANCH 35 39
ENDBRANCH 33 35
ENDBRANCH 29 31
ENDBRANCH 27 29
ENDBRANCH 1 25
TORSDOF 15
ENDMDL
MODEL 40
USER: ADFR SOLUTION from run 33
USER: SCORE 13.811124 LL:  -1.911 LR: -12.095 RR:   0.000 FEB:  -7.621
USER: RMSD 11.410712
USER: SEED 32
USER: STATUS no improvement in best 15 clusters for 5 generations
USER: GENES 17
USER: genes 0 Translation |==|  0.36159 0.19850 0.33940
USER: genes 1 Rotation |==|  0.75810 0.11819 0.33923 0.60844
USER: genes 2 Torsion [C]-CA--CB-[CG] |==|  0.28413
USER: genes 3 Torsion [CA]-CB--CG-[CD] |==|  0.34214
USER: genes 4 Torsion [CB]-CG--CD-[NE] |==|  0.06125
USER: genes 5 Torsion [CG]-CD--NE-[CZ] |==|  0.60361
USER: genes 6 Torsion [N]-CA--C-[N] |==|  0.10315
USER: genes 7 Torsion [C]-N--CA-[CB] |==|  0.17982
USER: genes 8 Torsion [N]-CA--C-[OXT] |==|  0.19087
USER: genes 9 Torsion [N]-CA--CB-[OG] |==|  0.14445
USER: genes 10 Torsion [CA]-CB--OG-[HG] |==|  0.18888
USER: genes 11 Torsion [CB]-CA--N-[C] |==|  0.17495
USER: genes 12 Torsion [N]-C--CA-[N] |==|  0.41383
USER: genes 13 Torsion [C]-CA--N-[C] |==|  0.75644
USER: genes 14 Torsion [N]-C--CA-[N] |==|  0.93651
USER: genes 15 Torsion [C]-CA--CB-[CG2] |==|  0.93112
USER: genes 16 Torsion [C]-CA--N-[H1] |==|  0.92993
ROOT
ATOM      1  CA  ARG B   3      49.078  32.345   3.762  0.50 45.43 LIG 0.18  C 
ENDROOT
BRANCH 1 2
ATOM      2  CB  ARG B   3      50.531  31.984   3.614  0.50 45.40 LIG 0.04  C 
BRANCH 2 3
ATOM      3  CG  ARG B   3      50.957  32.115   2.191  0.50 45.00 LIG 0.02  C 
BRANCH 3 4
ATOM      4  CD  ARG B   3      52.104  33.047   2.048  0.50 44.41 LIG 0.14  C 
BRANCH 4 5
ATOM      5  NE  ARG B   3      52.799  33.150   3.319  0.50 44.18 LIG-0.23  N 
ATOM      6  CZ  ARG B   3      53.327  34.266   3.781  0.50 43.75 LIG 0.67  C 
ATOM      7  NH1 ARG B   3      53.951  34.265   4.942  0.50 44.03 LIG-0.23  N 
ATOM      8  NH2 ARG B   3      53.230  35.388   3.084  0.50 43.85 LIG-0.23  N 
ATOM      9 12HH ARG B   3      54.297  34.992   5.246  0.50 44.03 LIG 0.17  HD
ATOM     10 11HH ARG B   3      54.014  33.538   5.397  0.50 44.03 LIG 0.17  HD
ATOM     11 22HH ARG B   3      53.576  36.113   3.388  0.50 43.85 LIG 0.17  HD
ATOM     12 21HH ARG B   3      52.822  35.390   2.327  0.50 43.85 LIG 0.17  HD
ATOM     13 HE   ARG B   3      52.870  32.440   3.800  0.50 44.18 LIG 0.18  HD
ENDBRANCH 4 5
ENDBRANCH 3 4
ENDBRANCH 2 3
ENDBRANCH 1 2
BRANCH 1 14
ATOM     14  C   ARG B   3      48.231  31.091   3.884  0.50 45.62 LIG 0.24  C 
ATOM     15  N   SER B   4      46.988  31.305   4.300  0.50 45.72 LIG-0.34  N 
ATOM     16 H    SER B   4      46.658  32.088   4.436  0.50 45.72 LIG 0.16  HD
ATOM     17 O    ARG B   3      48.676  29.979   3.599  0.50 45.72 LIG-0.27  OA
BRANCH 15 18
ATOM     18  CA  SER B   4      46.067  30.214   4.563  0.50 45.84 LIG 0.21  C 
BRANCH 18 19
ATOM     19  C   SER B   4      44.655  30.703   4.865  0.50 45.90 LIG 0.20  C 
ATOM     20 O    SER B   4      44.171  30.582   5.992  0.50 45.95 LIG-0.65  OA
ATOM     21 OXT  SER B   4      43.962  31.225   3.994  0.50 46.05 LIG-0.65  OA
ENDBRANCH 18 19
BRANCH 18 22
ATOM     22  CB  SER B   4      46.595  29.390   5.734  0.50 45.85 LIG 0.20  C 
BRANCH 22 23
ATOM     23 OG   SER B   4      46.886  30.219   6.847  0.50 45.98 LIG-0.40  OA
ATOM     24 HG   SER B   4      46.171  30.531   7.158  0.50 45.98 LIG 0.21  HD
ENDBRANCH 22 23
ENDBRANCH 18 22
ENDBRANCH 15 18
ENDBRANCH 1 14
BRANCH 1 25
ATOM     25  N   ARG B   3      48.836  33.344   4.798  0.50 45.48 LIG-0.35  N 
ATOM     26 H    ARG B   3      48.354  33.096   5.464  0.50 45.48 LIG 0.16  HD
ATOM     27  C   ALA B   2      49.378  34.544   4.626  0.50 45.44 LIG 0.24  C 
ATOM     28 O    ALA B   2      50.142  34.771   3.693  0.50 45.54 LIG-0.27  OA
BRANCH 27 29
ATOM     29  CA  ALA B   2      49.055  35.657   5.609  0.50 45.45 LIG 0.17  C 
ATOM     30  CB  ALA B   2      47.936  36.490   5.107  0.50 45.48 LIG 0.04  C 
BRANCH 29 31
ATOM     31  N   ALA B   2      50.242  36.469   5.631  0.50 45.47 LIG-0.35  N 
ATOM     32 H    ALA B   2      50.223  37.119   5.068  0.50 45.47 LIG 0.16  HD
ATOM     33  C   VAL B   1      51.266  36.245   6.435  0.50 45.44 LIG 0.25  C 
ATOM     34 O    VAL B   1      51.213  35.498   7.411  0.50 45.56 LIG-0.27  OA
BRANCH 33 35
ATOM     35  CA  VAL B   1      52.480  37.114   6.152  0.50 45.37 LIG 0.28  C 
BRANCH 35 36
ATOM     36  CB  VAL B   1      52.577  38.282   7.157  0.50 45.32 LIG 0.02  C 
ATOM     37  CG2 VAL B   1      51.203  38.639   7.748  0.50 45.23 LIG 0.01  C 
ATOM     38  CG1 VAL B   1      53.240  39.464   6.498  0.50 45.24 LIG 0.01  C 
ENDBRANCH 35 36
BRANCH 35 39
ATOM     39  N   VAL B   1      52.446  37.602   4.745  0.50 45.40 LIG-0.07  N 
ATOM     40 H3   VAL B   1      53.275  37.650   4.427  0.50 45.40 LIG 0.28  HD
ATOM     41 H1   VAL B   1      51.969  37.039   4.248  0.50 45.40 LIG 0.28  HD
ATOM     42 H2   VAL B   1      52.072  38.409   4.720  0.50 45.40 LIG 0.28  HD
ENDBRANCH 35 39
ENDBRANCH 33 35
ENDBRANCH 29 31
ENDBRANCH 27 29
ENDBRANCH 1 25
TORSDOF 15
ENDMDL
MODEL 41
USER: ADFR SOLUTION from run 130
USER: SCORE 13.495882 LL:  -2.235 LR: -12.050 RR:   0.000 FEB:  -7.576
USER: RMSD 8.703000
USER: SEED 129
USER: STATUS no improvement in best 3 clusters for 5 generations
USER: GENES 17
USER: genes 0 Translation |==|  0.48465 0.43616 0.50401
USER: genes 1 Rotation |==|  0.80781 0.51586 0.86030 0.65871
USER: genes 2 Torsion [C]-CA--CB-[CG] |==|  0.86096
USER: genes 3 Torsion [CA]-CB--CG-[CD] |==|  0.48193
USER: genes 4 Torsion [CB]-CG--CD-[NE] |==|  0.65691
USER: genes 5 Torsion [CG]-CD--NE-[CZ] |==|  0.49442
USER: genes 6 Torsion [N]-CA--C-[N] |==|  0.97534
USER: genes 7 Torsion [C]-N--CA-[CB] |==|  0.23490
USER: genes 8 Torsion [N]-CA--C-[OXT] |==|  0.98710
USER: genes 9 Torsion [N]-CA--CB-[OG] |==|  0.08526
USER: genes 10 Torsion [CA]-CB--OG-[HG] |==|  0.79349
USER: genes 11 Torsion [CB]-CA--N-[C] |==|  0.23453
USER: genes 12 Torsion [N]-C--CA-[N] |==|  0.46666
USER: genes 13 Torsion [C]-CA--N-[C] |==|  0.57442
USER: genes 14 Torsion [N]-C--CA-[N] |==|  0.15337
USER: genes 15 Torsion [C]-CA--CB-[CG2] |==|  0.77937
USER: genes 16 Torsion [C]-CA--N-[H1] |==|  0.45521
ROOT
ATOM      1  CA  ARG B   3      52.769  39.475   8.700  0.50 45.43 LIG 0.18  C 
ENDROOT
BRANCH 1 2
ATOM      2  CB  ARG B   3      52.388  40.613   7.792  0.50 45.40 LIG 0.04  C 
BRANCH 2 3
ATOM      3  CG  ARG B   3      51.107  41.229   8.242  0.50 45.00 LIG 0.02  C 
BRANCH 3 4
ATOM      4  CD  ARG B   3      50.784  42.450   7.460  0.50 44.41 LIG 0.14  C 
BRANCH 4 5
ATOM      5  NE  ARG B   3      50.618  43.570   8.369  0.50 44.18 LIG-0.23  N 
ATOM      6  CZ  ARG B   3      50.364  44.803   7.978  0.50 43.75 LIG 0.67  C 
ATOM      7  NH1 ARG B   3      50.240  45.763   8.874  0.50 44.03 LIG-0.23  N 
ATOM      8  NH2 ARG B   3      50.230  45.080   6.690  0.50 43.85 LIG-0.23  N 
ATOM      9 12HH ARG B   3      50.074  46.569   8.621  0.50 44.03 LIG 0.17  HD
ATOM     10 11HH ARG B   3      50.325  45.584   9.710  0.50 44.03 LIG 0.17  HD
ATOM     11 22HH ARG B   3      50.065  45.885   6.439  0.50 43.85 LIG 0.17  HD
ATOM     12 21HH ARG B   3      50.309  44.455   6.105  0.50 43.85 LIG 0.17  HD
ATOM     13 HE   ARG B   3      50.690  43.420   9.213  0.50 44.18 LIG 0.18  HD
ENDBRANCH 4 5
ENDBRANCH 3 4
ENDBRANCH 2 3
ENDBRANCH 1 2
BRANCH 1 14
ATOM     14  C   ARG B   3      52.708  39.913  10.152  0.50 45.62 LIG 0.24  C 
ATOM     15  N   SER B   4      51.861  39.217  10.901  0.50 45.72 LIG-0.34  N 
ATOM     16 H    SER B   4      51.421  38.534  10.617  0.50 45.72 LIG 0.16  HD
ATOM     17 O    ARG B   3      53.407  40.831  10.581  0.50 45.72 LIG-0.27  OA
BRANCH 15 18
ATOM     18  CA  SER B   4      51.604  39.557  12.289  0.50 45.84 LIG 0.21  C 
BRANCH 18 19
ATOM     19  C   SER B   4      51.167  38.351  13.113  0.50 45.90 LIG 0.20  C 
ATOM     20 O    SER B   4      50.997  38.444  14.330  0.50 45.95 LIG-0.65  OA
ATOM     21 OXT  SER B   4      50.980  37.255  12.587  0.50 46.05 LIG-0.65  OA
ENDBRANCH 18 19
BRANCH 18 22
ATOM     22  CB  SER B   4      50.530  40.641  12.344  0.50 45.85 LIG 0.20  C 
BRANCH 22 23
ATOM     23 OG   SER B   4      49.633  40.522  11.253  0.50 45.98 LIG-0.40  OA
ATOM     24 HG   SER B   4      50.008  40.788  10.551  0.50 45.98 LIG 0.21  HD
ENDBRANCH 22 23
ENDBRANCH 18 22
ENDBRANCH 15 18
ENDBRANCH 1 14
BRANCH 1 25
ATOM     25  N   ARG B   3      52.050  38.240   8.407  0.50 45.48 LIG-0.35  N 
ATOM     26 H    ARG B   3      51.345  38.087   8.876  0.50 45.48 LIG 0.16  HD
ATOM     27  C   ALA B   2      52.539  37.460   7.450  0.50 45.44 LIG 0.24  C 
ATOM     28 O    ALA B   2      53.491  37.816   6.763  0.50 45.54 LIG-0.27  OA
BRANCH 27 29
ATOM     29  CA  ALA B   2      51.901  36.106   7.192  0.50 45.45 LIG 0.17  C 
ATOM     30  CB  ALA B   2      52.299  35.132   8.237  0.50 45.48 LIG 0.04  C 
BRANCH 29 31
ATOM     31  N   ALA B   2      52.470  35.676   5.942  0.50 45.47 LIG-0.35  N 
ATOM     32 H    ALA B   2      53.247  36.010   5.786  0.50 45.47 LIG 0.16  HD
ATOM     33  C   VAL B   1      51.863  34.850   5.109  0.50 45.44 LIG 0.25  C 
ATOM     34 O    VAL B   1      50.889  34.166   5.418  0.50 45.56 LIG-0.27  OA
BRANCH 33 35
ATOM     35  CA  VAL B   1      52.567  34.688   3.772  0.50 45.37 LIG 0.28  C 
BRANCH 35 36
ATOM     36  CB  VAL B   1      51.810  33.701   2.858  0.50 45.32 LIG 0.02  C 
ATOM     37  CG2 VAL B   1      52.102  32.239   3.233  0.50 45.23 LIG 0.01  C 
ATOM     38  CG1 VAL B   1      52.132  33.995   1.415  0.50 45.24 LIG 0.01  C 
ENDBRANCH 35 36
BRANCH 35 39
ATOM     39  N   VAL B   1      53.980  34.265   3.983  0.50 45.40 LIG-0.07  N 
ATOM     40 H3   VAL B   1      54.010  33.629   4.605  0.50 45.40 LIG 0.28  HD
ATOM     41 H1   VAL B   1      54.313  33.950   3.220  0.50 45.40 LIG 0.28  HD
ATOM     42 H2   VAL B   1      54.462  34.963   4.250  0.50 45.40 LIG 0.28  HD
ENDBRANCH 35 39
ENDBRANCH 33 35
ENDBRANCH 29 31
ENDBRANCH 27 29
ENDBRANCH 1 25
TORSDOF 15
ENDMDL
MODEL 42
USER: ADFR SOLUTION from run 122
USER: SCORE 13.067345 LL:  -1.857 LR: -12.019 RR:   0.000 FEB:  -7.545
USER: RMSD 7.984086
USER: SEED 121
USER: STATUS no improvement in best 6 clusters for 5 generations
USER: GENES 17
USER: genes 0 Translation |==|  0.47889 0.34004 0.47127
USER: genes 1 Rotation |==|  0.56490 0.11741 0.32739 0.76386
USER: genes 2 Torsion [C]-CA--CB-[CG] |==|  0.14026
USER: genes 3 Torsion [CA]-CB--CG-[CD] |==|  0.28321
USER: genes 4 Torsion [CB]-CG--CD-[NE] |==|  0.06304
USER: genes 5 Torsion [CG]-CD--NE-[CZ] |==|  0.40233
USER: genes 6 Torsion [N]-CA--C-[N] |==|  0.88279
USER: genes 7 Torsion [C]-N--CA-[CB] |==|  0.43023
USER: genes 8 Torsion [N]-CA--C-[OXT] |==|  0.94361
USER: genes 9 Torsion [N]-CA--CB-[OG] |==|  0.91801
USER: genes 10 Torsion [CA]-CB--OG-[HG] |==|  0.16255
USER: genes 11 Torsion [CB]-CA--N-[C] |==|  0.86615
USER: genes 12 Torsion [N]-C--CA-[N] |==|  0.66943
USER: genes 13 Torsion [C]-CA--N-[C] |==|  0.60084
USER: genes 14 Torsion [N]-C--CA-[N] |==|  0.91146
USER: genes 15 Torsion [C]-CA--CB-[CG2] |==|  0.59796
USER: genes 16 Torsion [C]-CA--N-[H1] |==|  0.32577
ROOT
ATOM      1  CA  ARG B   3      52.597  36.591   7.718  0.50 45.43 LIG 0.18  C 
ENDROOT
BRANCH 1 2
ATOM      2  CB  ARG B   3      53.351  35.501   7.005  0.50 45.40 LIG 0.04  C 
BRANCH 2 3
ATOM      3  CG  ARG B   3      52.472  34.315   6.794  0.50 45.00 LIG 0.02  C 
BRANCH 3 4
ATOM      4  CD  ARG B   3      51.971  34.249   5.396  0.50 44.41 LIG 0.14  C 
BRANCH 4 5
ATOM      5  NE  ARG B   3      52.863  35.000   4.532  0.50 44.18 LIG-0.23  N 
ATOM      6  CZ  ARG B   3      53.146  34.657   3.291  0.50 43.75 LIG 0.67  C 
ATOM      7  NH1 ARG B   3      53.979  35.392   2.580  0.50 44.03 LIG-0.23  N 
ATOM      8  NH2 ARG B   3      52.595  33.578   2.755  0.50 43.85 LIG-0.23  N 
ATOM      9 12HH ARG B   3      54.165  35.170   1.770  0.50 44.03 LIG 0.17  HD
ATOM     10 11HH ARG B   3      54.336  36.093   2.926  0.50 44.03 LIG 0.17  HD
ATOM     11 22HH ARG B   3      52.782  33.357   1.946  0.50 43.85 LIG 0.17  HD
ATOM     12 21HH ARG B   3      52.051  33.099   3.217  0.50 43.85 LIG 0.17  HD
ATOM     13 HE   ARG B   3      53.230  35.711   4.848  0.50 44.18 LIG 0.18  HD
ENDBRANCH 4 5
ENDBRANCH 3 4
ENDBRANCH 2 3
ENDBRANCH 1 2
BRANCH 1 14
ATOM     14  C   ARG B   3      51.916  36.039   8.957  0.50 45.62 LIG 0.24  C 
ATOM     15  N   SER B   4      52.677  36.036  10.046  0.50 45.72 LIG-0.34  N 
ATOM     16 H    SER B   4      53.469  36.368  10.077  0.50 45.72 LIG 0.16  HD
ATOM     17 O    ARG B   3      50.749  35.649   8.935  0.50 45.72 LIG-0.27  OA
BRANCH 15 18
ATOM     18  CA  SER B   4      52.222  35.459  11.299  0.50 45.84 LIG 0.21  C 
BRANCH 18 19
ATOM     19  C   SER B   4      51.356  36.422  12.104  0.50 45.90 LIG 0.20  C 
ATOM     20 O    SER B   4      50.590  36.007  12.975  0.50 45.95 LIG-0.65  OA
ATOM     21 OXT  SER B   4      51.396  37.634  11.901  0.50 46.05 LIG-0.65  OA
ENDBRANCH 18 19
BRANCH 18 22
ATOM     22  CB  SER B   4      53.438  35.040  12.122  0.50 45.85 LIG 0.20  C 
BRANCH 22 23
ATOM     23 OG   SER B   4      54.522  34.685  11.280  0.50 45.98 LIG-0.40  OA
ATOM     24 HG   SER B   4      54.720  35.337  10.790  0.50 45.98 LIG 0.21  HD
ENDBRANCH 22 23
ENDBRANCH 18 22
ENDBRANCH 15 18
ENDBRANCH 1 14
BRANCH 1 25
ATOM     25  N   ARG B   3      53.398  37.789   7.947  0.50 45.48 LIG-0.35  N 
ATOM     26 H    ARG B   3      53.036  38.539   7.732  0.50 45.48 LIG 0.16  HD
ATOM     27  C   ALA B   2      54.610  37.623   8.464  0.50 45.44 LIG 0.24  C 
ATOM     28 O    ALA B   2      54.998  36.521   8.838  0.50 45.54 LIG-0.27  OA
BRANCH 27 29
ATOM     29  CA  ALA B   2      55.531  38.823   8.604  0.50 45.45 LIG 0.17  C 
ATOM     30  CB  ALA B   2      54.898  40.039   8.041  0.50 45.48 LIG 0.04  C 
BRANCH 29 31
ATOM     31  N   ALA B   2      56.671  38.494   7.789  0.50 45.47 LIG-0.35  N 
ATOM     32 H    ALA B   2      56.468  38.062   7.075  0.50 45.47 LIG 0.16  HD
ATOM     33  C   VAL B   1      57.912  38.822   8.103  0.50 45.44 LIG 0.25  C 
ATOM     34 O    VAL B   1      58.200  39.650   8.966  0.50 45.56 LIG-0.27  OA
BRANCH 33 35
ATOM     35  CA  VAL B   1      58.965  38.209   7.194  0.50 45.37 LIG 0.28  C 
BRANCH 35 36
ATOM     36  CB  VAL B   1      59.311  39.156   6.025  0.50 45.32 LIG 0.02  C 
ATOM     37  CG2 VAL B   1      59.609  38.378   4.733  0.50 45.23 LIG 0.01  C 
ATOM     38  CG1 VAL B   1      60.450  40.059   6.423  0.50 45.24 LIG 0.01  C 
ENDBRANCH 35 36
BRANCH 35 39
ATOM     39  N   VAL B   1      58.509  36.878   6.705  0.50 45.40 LIG-0.07  N 
ATOM     40 H3   VAL B   1      57.723  36.679   7.072  0.50 45.40 LIG 0.28  HD
ATOM     41 H1   VAL B   1      58.426  36.900   5.819  0.50 45.40 LIG 0.28  HD
ATOM     42 H2   VAL B   1      59.107  36.258   6.931  0.50 45.40 LIG 0.28  HD
ENDBRANCH 35 39
ENDBRANCH 33 35
ENDBRANCH 29 31
ENDBRANCH 27 29
ENDBRANCH 1 25
TORSDOF 15
ENDMDL
MODEL 43
USER: ADFR SOLUTION from run 90
USER: SCORE 14.162994 LL:  -2.296 LR: -12.016 RR:   0.000 FEB:  -7.541
USER: RMSD 8.331719
USER: SEED 89
USER: STATUS no improvement in best 8 clusters for 5 generations
USER: GENES 17
USER: genes 0 Translation |==|  0.37100 0.27492 0.45258
USER: genes 1 Rotation |==|  0.53197 0.19126 0.36380 0.86757
USER: genes 2 Torsion [C]-CA--CB-[CG] |==|  0.52141
USER: genes 3 Torsion [CA]-CB--CG-[CD] |==|  0.42841
USER: genes 4 Torsion [CB]-CG--CD-[NE] |==|  0.62119
USER: genes 5 Torsion [CG]-CD--NE-[CZ] |==|  0.29241
USER: genes 6 Torsion [N]-CA--C-[N] |==|  0.91111
USER: genes 7 Torsion [C]-N--CA-[CB] |==|  0.43463
USER: genes 8 Torsion [N]-CA--C-[OXT] |==|  0.70662
USER: genes 9 Torsion [N]-CA--CB-[OG] |==|  0.91879
USER: genes 10 Torsion [CA]-CB--OG-[HG] |==|  0.84466
USER: genes 11 Torsion [CB]-CA--N-[C] |==|  0.85932
USER: genes 12 Torsion [N]-C--CA-[N] |==|  0.43095
USER: genes 13 Torsion [C]-CA--N-[C] |==|  0.79152
USER: genes 14 Torsion [N]-C--CA-[N] |==|  0.89715
USER: genes 15 Torsion [C]-CA--CB-[CG2] |==|  0.94460
USER: genes 16 Torsion [C]-CA--N-[H1] |==|  0.92583
ROOT
ATOM      1  CA  ARG B   3      49.360  34.638   7.157  0.50 45.43 LIG 0.18  C 
ENDROOT
BRANCH 1 2
ATOM      2  CB  ARG B   3      49.876  33.541   6.265  0.50 45.40 LIG 0.04  C 
BRANCH 2 3
ATOM      3  CG  ARG B   3      49.954  34.014   4.853  0.50 45.00 LIG 0.02  C 
BRANCH 3 4
ATOM      4  CD  ARG B   3      50.977  33.261   4.082  0.50 44.41 LIG 0.14  C 
BRANCH 4 5
ATOM      5  NE  ARG B   3      51.747  34.190   3.275  0.50 44.18 LIG-0.23  N 
ATOM      6  CZ  ARG B   3      52.981  34.561   3.557  0.50 43.75 LIG 0.67  C 
ATOM      7  NH1 ARG B   3      53.602  35.421   2.774  0.50 44.03 LIG-0.23  N 
ATOM      8  NH2 ARG B   3      53.597  34.072   4.622  0.50 43.85 LIG-0.23  N 
ATOM      9 12HH ARG B   3      54.407  35.665   2.956  0.50 44.03 LIG 0.17  HD
ATOM     10 11HH ARG B   3      53.203  35.739   2.082  0.50 44.03 LIG 0.17  HD
ATOM     11 22HH ARG B   3      54.401  34.317   4.802  0.50 43.85 LIG 0.17  HD
ATOM     12 21HH ARG B   3      53.194  33.510   5.132  0.50 43.85 LIG 0.17  HD
ATOM     13 HE   ARG B   3      51.377  34.519   2.571  0.50 44.18 LIG 0.18  HD
ENDBRANCH 4 5
ENDBRANCH 3 4
ENDBRANCH 2 3
ENDBRANCH 1 2
BRANCH 1 14
ATOM     14  C   ARG B   3      49.458  34.224   8.614  0.50 45.62 LIG 0.24  C 
ATOM     15  N   SER B   4      50.537  34.679   9.243  0.50 45.72 LIG-0.34  N 
ATOM     16 H    SER B   4      51.110  35.211   8.885  0.50 45.72 LIG 0.16  HD
ATOM     17 O    ARG B   3      48.590  33.538   9.153  0.50 45.72 LIG-0.27  OA
BRANCH 15 18
ATOM     18  CA  SER B   4      50.842  34.306  10.613  0.50 45.84 LIG 0.21  C 
BRANCH 18 19
ATOM     19  C   SER B   4      50.060  35.131  11.629  0.50 45.90 LIG 0.20  C 
ATOM     20 O    SER B   4      48.858  34.934  11.814  0.50 45.95 LIG-0.65  OA
ATOM     21 OXT  SER B   4      50.607  36.018  12.283  0.50 46.05 LIG-0.65  OA
ENDBRANCH 18 19
BRANCH 18 22
ATOM     22  CB  SER B   4      52.341  34.472  10.850  0.50 45.85 LIG 0.20  C 
BRANCH 22 23
ATOM     23 OG   SER B   4      53.069  34.272   9.650  0.50 45.98 LIG-0.40  OA
ATOM     24 HG   SER B   4      52.883  33.518   9.332  0.50 45.98 LIG 0.21  HD
ENDBRANCH 22 23
ENDBRANCH 18 22
ENDBRANCH 15 18
ENDBRANCH 1 14
BRANCH 1 25
ATOM     25  N   ARG B   3      49.937  35.943   6.856  0.50 45.48 LIG-0.35  N 
ATOM     26 H    ARG B   3      49.383  36.592   6.749  0.50 45.48 LIG 0.16  HD
ATOM     27  C   ALA B   2      51.260  36.021   6.771  0.50 45.44 LIG 0.24  C 
ATOM     28 O    ALA B   2      51.974  35.062   7.046  0.50 45.54 LIG-0.27  OA
BRANCH 27 29
ATOM     29  CA  ALA B   2      51.905  37.326   6.336  0.50 45.45 LIG 0.17  C 
ATOM     30  CB  ALA B   2      52.041  37.377   4.861  0.50 45.48 LIG 0.04  C 
BRANCH 29 31
ATOM     31  N   ALA B   2      53.226  37.279   6.905  0.50 45.47 LIG-0.35  N 
ATOM     32 H    ALA B   2      53.841  37.111   6.329  0.50 45.47 LIG 0.16  HD
ATOM     33  C   VAL B   1      53.476  37.474   8.188  0.50 45.44 LIG 0.25  C 
ATOM     34 O    VAL B   1      52.666  37.964   8.972  0.50 45.56 LIG-0.27  OA
BRANCH 33 35
ATOM     35  CA  VAL B   1      54.914  37.190   8.590  0.50 45.37 LIG 0.28  C 
BRANCH 35 36
ATOM     36  CB  VAL B   1      55.803  38.437   8.397  0.50 45.32 LIG 0.02  C 
ATOM     37  CG2 VAL B   1      55.168  39.444   7.425  0.50 45.23 LIG 0.01  C 
ATOM     38  CG1 VAL B   1      57.183  38.014   7.961  0.50 45.24 LIG 0.01  C 
ENDBRANCH 35 36
BRANCH 35 39
ATOM     39  N   VAL B   1      55.438  36.020   7.832  0.50 45.40 LIG-0.07  N 
ATOM     40 H3   VAL B   1      56.011  35.568   8.342  0.50 45.40 LIG 0.28  HD
ATOM     41 H1   VAL B   1      54.763  35.489   7.602  0.50 45.40 LIG 0.28  HD
ATOM     42 H2   VAL B   1      55.856  36.304   7.099  0.50 45.40 LIG 0.28  HD
ENDBRANCH 35 39
ENDBRANCH 33 35
ENDBRANCH 29 31
ENDBRANCH 27 29
ENDBRANCH 1 25
TORSDOF 15
ENDMDL
MODEL 44
USER: ADFR SOLUTION from run 30
USER: SCORE 13.405660 LL:  -2.176 LR: -11.999 RR:   0.000 FEB:  -7.525
USER: RMSD 9.773661
USER: SEED 29
USER: STATUS no improvement in best 14 clusters for 5 generations
USER: GENES 17
USER: genes 0 Translation |==|  0.45134 0.32778 0.44031
USER: genes 1 Rotation |==|  0.20348 0.42081 0.17333 0.72157
USER: genes 2 Torsion [C]-CA--CB-[CG] |==|  0.54179
USER: genes 3 Torsion [CA]-CB--CG-[CD] |==|  0.39789
USER: genes 4 Torsion [CB]-CG--CD-[NE] |==|  0.35055
USER: genes 5 Torsion [CG]-CD--NE-[CZ] |==|  0.73944
USER: genes 6 Torsion [N]-CA--C-[N] |==|  0.44444
USER: genes 7 Torsion [C]-N--CA-[CB] |==|  0.21466
USER: genes 8 Torsion [N]-CA--C-[OXT] |==|  0.24245
USER: genes 9 Torsion [N]-CA--CB-[OG] |==|  0.80204
USER: genes 10 Torsion [CA]-CB--OG-[HG] |==|  0.50341
USER: genes 11 Torsion [CB]-CA--N-[C] |==|  0.83160
USER: genes 12 Torsion [N]-C--CA-[N] |==|  0.65392
USER: genes 13 Torsion [C]-CA--N-[C] |==|  0.67172
USER: genes 14 Torsion [N]-C--CA-[N] |==|  0.46647
USER: genes 15 Torsion [C]-CA--CB-[CG2] |==|  0.86130
USER: genes 16 Torsion [C]-CA--N-[H1] |==|  0.39287
ROOT
ATOM      1  CA  ARG B   3      51.770  36.223   6.789  0.50 45.43 LIG 0.18  C 
ENDROOT
BRANCH 1 2
ATOM      2  CB  ARG B   3      50.267  36.240   6.728  0.50 45.40 LIG 0.04  C 
BRANCH 2 3
ATOM      3  CG  ARG B   3      49.806  36.531   5.340  0.50 45.00 LIG 0.02  C 
BRANCH 3 4
ATOM      4  CD  ARG B   3      48.583  35.761   4.998  0.50 44.41 LIG 0.14  C 
BRANCH 4 5
ATOM      5  NE  ARG B   3      47.556  36.676   4.533  0.50 44.18 LIG-0.23  N 
ATOM      6  CZ  ARG B   3      46.631  37.200   5.311  0.50 43.75 LIG 0.67  C 
ATOM      7  NH1 ARG B   3      45.728  38.015   4.800  0.50 44.03 LIG-0.23  N 
ATOM      8  NH2 ARG B   3      46.606  36.914   6.604  0.50 43.85 LIG-0.23  N 
ATOM      9 12HH ARG B   3      45.123  38.359   5.306  0.50 44.03 LIG 0.17  HD
ATOM     10 11HH ARG B   3      45.743  38.203   3.962  0.50 44.03 LIG 0.17  HD
ATOM     11 22HH ARG B   3      46.001  37.258   7.109  0.50 43.85 LIG 0.17  HD
ATOM     12 21HH ARG B   3      47.195  36.385   6.938  0.50 43.85 LIG 0.17  HD
ATOM     13 HE   ARG B   3      47.551  36.889   3.699  0.50 44.18 LIG 0.18  HD
ENDBRANCH 4 5
ENDBRANCH 3 4
ENDBRANCH 2 3
ENDBRANCH 1 2
BRANCH 1 14
ATOM     14  C   ARG B   3      52.240  35.575   8.079  0.50 45.62 LIG 0.24  C 
ATOM     15  N   SER B   4      52.021  36.301   9.169  0.50 45.72 LIG-0.34  N 
ATOM     16 H    SER B   4      51.599  37.050   9.169  0.50 45.72 LIG 0.16  HD
ATOM     17 O    ARG B   3      52.762  34.460   8.091  0.50 45.72 LIG-0.27  OA
BRANCH 15 18
ATOM     18  CA  SER B   4      52.488  35.880  10.479  0.50 45.84 LIG 0.21  C 
BRANCH 18 19
ATOM     19  C   SER B   4      51.748  36.579  11.614  0.50 45.90 LIG 0.20  C 
ATOM     20 O    SER B   4      52.191  37.614  12.115  0.50 45.95 LIG-0.65  OA
ATOM     21 OXT  SER B   4      50.696  36.126  12.061  0.50 46.05 LIG-0.65  OA
ENDBRANCH 18 19
BRANCH 18 22
ATOM     22  CB  SER B   4      53.985  36.158  10.585  0.50 45.85 LIG 0.20  C 
BRANCH 22 23
ATOM     23 OG   SER B   4      54.726  35.264   9.771  0.50 45.98 LIG-0.40  OA
ATOM     24 HG   SER B   4      55.546  35.422   9.856  0.50 45.98 LIG 0.21  HD
ENDBRANCH 22 23
ENDBRANCH 18 22
ENDBRANCH 15 18
ENDBRANCH 1 14
BRANCH 1 25
ATOM     25  N   ARG B   3      52.389  35.689   5.580  0.50 45.48 LIG-0.35  N 
ATOM     26 H    ARG B   3      52.910  36.220   5.150  0.50 45.48 LIG 0.16  HD
ATOM     27  C   ALA B   2      52.097  34.437   5.247  0.50 45.44 LIG 0.24  C 
ATOM     28 O    ALA B   2      51.425  33.722   5.984  0.50 45.54 LIG-0.27  OA
BRANCH 27 29
ATOM     29  CA  ALA B   2      52.612  33.875   3.934  0.50 45.45 LIG 0.17  C 
ATOM     30  CB  ALA B   2      53.228  34.944   3.112  0.50 45.48 LIG 0.04  C 
BRANCH 29 31
ATOM     31  N   ALA B   2      51.431  33.414   3.255  0.50 45.47 LIG-0.35  N 
ATOM     32 H    ALA B   2      50.867  34.041   3.085  0.50 45.47 LIG 0.16  HD
ATOM     33  C   VAL B   1      51.224  32.152   2.922  0.50 45.44 LIG 0.25  C 
ATOM     34 O    VAL B   1      52.108  31.297   2.918  0.50 45.56 LIG-0.27  OA
BRANCH 33 35
ATOM     35  CA  VAL B   1      49.831  31.871   2.384  0.50 45.37 LIG 0.28  C 
BRANCH 35 36
ATOM     36  CB  VAL B   1      48.763  32.036   3.487  0.50 45.32 LIG 0.02  C 
ATOM     37  CG2 VAL B   1      49.138  31.262   4.761  0.50 45.23 LIG 0.01  C 
ATOM     38  CG1 VAL B   1      47.413  31.634   2.951  0.50 45.24 LIG 0.01  C 
ENDBRANCH 35 36
BRANCH 35 39
ATOM     39  N   VAL B   1      49.780  30.515   1.770  0.50 45.40 LIG-0.07  N 
ATOM     40 H3   VAL B   1      50.443  30.017   2.094  0.50 45.40 LIG 0.28  HD
ATOM     41 H1   VAL B   1      49.001  30.131   1.962  0.50 45.40 LIG 0.28  HD
ATOM     42 H2   VAL B   1      49.867  30.585   0.888  0.50 45.40 LIG 0.28  HD
ENDBRANCH 35 39
ENDBRANCH 33 35
ENDBRANCH 29 31
ENDBRANCH 27 29
ENDBRANCH 1 25
TORSDOF 15
ENDMDL
MODEL 45
USER: ADFR SOLUTION from run 107
USER: SCORE 13.742281 LL:  -2.478 LR: -11.999 RR:   0.000 FEB:  -7.525
USER: RMSD 9.806046
USER: SEED 106
USER: STATUS no improvement in best 8 clusters for 5 generations
USER: GENES 17
USER: genes 0 Translation |==|  0.51443 0.28710 0.54512
USER: genes 1 Rotation |==|  0.74854 0.25044 0.77593 0.72318
USER: genes 2 Torsion [C]-CA--CB-[CG] |==|  0.90102
USER: genes 3 Torsion [CA]-CB--CG-[CD] |==|  0.34699
USER: genes 4 Torsion [CB]-CG--CD-[NE] |==|  0.79188
USER: genes 5 Torsion [CG]-CD--NE-[CZ] |==|  0.32535
USER: genes 6 Torsion [N]-CA--C-[N] |==|  0.98754
USER: genes 7 Torsion [C]-N--CA-[CB] |==|  0.26548
USER: genes 8 Torsion [N]-CA--C-[OXT] |==|  0.32078
USER: genes 9 Torsion [N]-CA--CB-[OG] |==|  0.03686
USER: genes 10 Torsion [CA]-CB--OG-[HG] |==|  0.72049
USER: genes 11 Torsion [CB]-CA--N-[C] |==|  0.21913
USER: genes 12 Torsion [N]-C--CA-[N] |==|  0.48171
USER: genes 13 Torsion [C]-CA--N-[C] |==|  0.58046
USER: genes 14 Torsion [N]-C--CA-[N] |==|  0.92379
USER: genes 15 Torsion [C]-CA--CB-[CG2] |==|  0.33084
USER: genes 16 Torsion [C]-CA--N-[H1] |==|  0.27129
ROOT
ATOM      1  CA  ARG B   3      53.663  35.003   9.934  0.50 45.43 LIG 0.18  C 
ENDROOT
BRANCH 1 2
ATOM      2  CB  ARG B   3      54.717  36.074   9.843  0.50 45.40 LIG 0.04  C 
BRANCH 2 3
ATOM      3  CG  ARG B   3      54.436  37.162  10.822  0.50 45.00 LIG 0.02  C 
BRANCH 3 4
ATOM      4  CD  ARG B   3      55.598  37.404  11.717  0.50 44.41 LIG 0.14  C 
BRANCH 4 5
ATOM      5  NE  ARG B   3      55.681  36.333  12.694  0.50 44.18 LIG-0.23  N 
ATOM      6  CZ  ARG B   3      56.697  35.498  12.785  0.50 43.75 LIG 0.67  C 
ATOM      7  NH1 ARG B   3      56.683  34.545  13.697  0.50 44.03 LIG-0.23  N 
ATOM      8  NH2 ARG B   3      57.731  35.615  11.967  0.50 43.85 LIG-0.23  N 
ATOM      9 12HH ARG B   3      57.344  33.999  13.759  0.50 44.03 LIG 0.17  HD
ATOM     10 11HH ARG B   3      56.012  34.470  14.230  0.50 44.03 LIG 0.17  HD
ATOM     11 22HH ARG B   3      58.392  35.068  12.029  0.50 43.85 LIG 0.17  HD
ATOM     12 21HH ARG B   3      57.742  36.236  11.373  0.50 43.85 LIG 0.17  HD
ATOM     13 HE   ARG B   3      55.028  36.238  13.246  0.50 44.18 LIG 0.18  HD
ENDBRANCH 4 5
ENDBRANCH 3 4
ENDBRANCH 2 3
ENDBRANCH 1 2
BRANCH 1 14
ATOM     14  C   ARG B   3      53.212  34.826  11.372  0.50 45.62 LIG 0.24  C 
ATOM     15  N   SER B   4      51.903  34.953  11.557  0.50 45.72 LIG-0.34  N 
ATOM     16 H    SER B   4      51.339  35.068  10.919  0.50 45.72 LIG 0.16  HD
ATOM     17 O    ARG B   3      54.010  34.568  12.274  0.50 45.72 LIG-0.27  OA
BRANCH 15 18
ATOM     18  CA  SER B   4      51.306  34.907  12.881  0.50 45.84 LIG 0.21  C 
BRANCH 18 19
ATOM     19  C   SER B   4      49.965  34.182  12.890  0.50 45.90 LIG 0.20  C 
ATOM     20 O    SER B   4      48.996  34.636  12.278  0.50 45.95 LIG-0.65  OA
ATOM     21 OXT  SER B   4      49.814  33.131  13.511  0.50 46.05 LIG-0.65  OA
ENDBRANCH 18 19
BRANCH 18 22
ATOM     22  CB  SER B   4      51.131  36.333  13.396  0.50 45.85 LIG 0.20  C 
BRANCH 22 23
ATOM     23 OG   SER B   4      51.305  37.275  12.350  0.50 45.98 LIG-0.40  OA
ATOM     24 HG   SER B   4      52.075  37.606  12.397  0.50 45.98 LIG 0.21  HD
ENDBRANCH 22 23
ENDBRANCH 18 22
ENDBRANCH 15 18
ENDBRANCH 1 14
BRANCH 1 25
ATOM     25  N   ARG B   3      52.578  35.182   8.974  0.50 45.48 LIG-0.35  N 
ATOM     26 H    ARG B   3      51.849  35.521   9.279  0.50 45.48 LIG 0.16  HD
ATOM     27  C   ALA B   2      52.805  34.809   7.720  0.50 45.44 LIG 0.24  C 
ATOM     28 O    ALA B   2      53.915  34.434   7.358  0.50 45.54 LIG-0.27  OA
BRANCH 27 29
ATOM     29  CA  ALA B   2      51.670  34.856   6.711  0.50 45.45 LIG 0.17  C 
ATOM     30  CB  ALA B   2      50.669  33.800   6.999  0.50 45.48 LIG 0.04  C 
BRANCH 29 31
ATOM     31  N   ALA B   2      52.297  34.546   5.454  0.50 45.47 LIG-0.35  N 
ATOM     32 H    ALA B   2      52.989  34.041   5.532  0.50 45.47 LIG 0.16  HD
ATOM     33  C   VAL B   1      51.859  34.991   4.290  0.50 45.44 LIG 0.25  C 
ATOM     34 O    VAL B   1      50.746  35.489   4.127  0.50 45.56 LIG-0.27  OA
BRANCH 33 35
ATOM     35  CA  VAL B   1      52.785  34.692   3.122  0.50 45.37 LIG 0.28  C 
BRANCH 35 36
ATOM     36  CB  VAL B   1      52.339  33.422   2.368  0.50 45.32 LIG 0.02  C 
ATOM     37  CG2 VAL B   1      51.989  33.724   0.902  0.50 45.23 LIG 0.01  C 
ATOM     38  CG1 VAL B   1      51.198  32.768   3.105  0.50 45.24 LIG 0.01  C 
ENDBRANCH 35 36
BRANCH 35 39
ATOM     39  N   VAL B   1      54.193  34.582   3.598  0.50 45.40 LIG-0.07  N 
ATOM     40 H3   VAL B   1      54.280  35.015   4.371  0.50 45.40 LIG 0.28  HD
ATOM     41 H1   VAL B   1      54.401  33.725   3.713  0.50 45.40 LIG 0.28  HD
ATOM     42 H2   VAL B   1      54.739  34.941   2.995  0.50 45.40 LIG 0.28  HD
ENDBRANCH 35 39
ENDBRANCH 33 35
ENDBRANCH 29 31
ENDBRANCH 27 29
ENDBRANCH 1 25
TORSDOF 15
ENDMDL
MODEL 46
USER: ADFR SOLUTION from run 141
USER: SCORE 13.789950 LL:  -2.070 LR: -12.004 RR:   0.000 FEB:  -7.529
USER: RMSD 10.348138
USER: SEED 140
USER: STATUS no improvement in best 4 clusters for 5 generations
USER: GENES 17
USER: genes 0 Translation |==|  0.43805 0.27267 0.56887
USER: genes 1 Rotation |==|  0.54775 0.75660 0.07388 0.51730
USER: genes 2 Torsion [C]-CA--CB-[CG] |==|  0.49032
USER: genes 3 Torsion [CA]-CB--CG-[CD] |==|  0.86214
USER: genes 4 Torsion [CB]-CG--CD-[NE] |==|  0.46186
USER: genes 5 Torsion [CG]-CD--NE-[CZ] |==|  0.84345
USER: genes 6 Torsion [N]-CA--C-[N] |==|  0.45972
USER: genes 7 Torsion [C]-N--CA-[CB] |==|  0.28161
USER: genes 8 Torsion [N]-CA--C-[OXT] |==|  0.49112
USER: genes 9 Torsion [N]-CA--CB-[OG] |==|  0.03229
USER: genes 10 Torsion [CA]-CB--OG-[HG] |==|  0.83897
USER: genes 11 Torsion [CB]-CA--N-[C] |==|  0.83333
USER: genes 12 Torsion [N]-C--CA-[N] |==|  0.40856
USER: genes 13 Torsion [C]-CA--N-[C] |==|  0.83688
USER: genes 14 Torsion [N]-C--CA-[N] |==|  0.02730
USER: genes 15 Torsion [C]-CA--CB-[CG2] |==|  0.19994
USER: genes 16 Torsion [C]-CA--N-[H1] |==|  0.52640
ROOT
ATOM      1  CA  ARG B   3      51.372  34.570  10.646  0.50 45.43 LIG 0.18  C 
ENDROOT
BRANCH 1 2
ATOM      2  CB  ARG B   3      51.517  35.944  11.244  0.50 45.40 LIG 0.04  C 
BRANCH 2 3
ATOM      3  CG  ARG B   3      52.885  36.122  11.809  0.50 45.00 LIG 0.02  C 
BRANCH 3 4
ATOM      4  CD  ARG B   3      53.264  34.987  12.690  0.50 44.41 LIG 0.14  C 
BRANCH 4 5
ATOM      5  NE  ARG B   3      54.691  35.039  12.949  0.50 44.18 LIG-0.23  N 
ATOM      6  CZ  ARG B   3      55.610  35.043  12.003  0.50 43.75 LIG 0.67  C 
ATOM      7  NH1 ARG B   3      56.888  35.079  12.330  0.50 44.03 LIG-0.23  N 
ATOM      8  NH2 ARG B   3      55.255  35.015  10.728  0.50 43.85 LIG-0.23  N 
ATOM      9 12HH ARG B   3      57.489  35.083  11.715  0.50 44.03 LIG 0.17  HD
ATOM     10 11HH ARG B   3      57.120  35.099  13.158  0.50 44.03 LIG 0.17  HD
ATOM     11 22HH ARG B   3      55.857  35.018  10.114  0.50 43.85 LIG 0.17  HD
ATOM     12 21HH ARG B   3      54.423  34.993  10.514  0.50 43.85 LIG 0.17  HD
ATOM     13 HE   ARG B   3      54.954  35.068  13.767  0.50 44.18 LIG 0.18  HD
ENDBRANCH 4 5
ENDBRANCH 3 4
ENDBRANCH 2 3
ENDBRANCH 1 2
BRANCH 1 14
ATOM     14  C   ARG B   3      49.954  34.358  10.148  0.50 45.62 LIG 0.24  C 
ATOM     15  N   SER B   4      49.031  34.349  11.103  0.50 45.72 LIG-0.34  N 
ATOM     16 H    SER B   4      49.199  34.507  11.932  0.50 45.72 LIG 0.16  HD
ATOM     17 O    ARG B   3      49.701  34.224   8.950  0.50 45.72 LIG-0.27  OA
BRANCH 15 18
ATOM     18  CA  SER B   4      47.635  34.067  10.821  0.50 45.84 LIG 0.21  C 
BRANCH 18 19
ATOM     19  C   SER B   4      46.690  35.015  11.549  0.50 45.90 LIG 0.20  C 
ATOM     20 O    SER B   4      47.122  35.861  12.333  0.50 45.95 LIG-0.65  OA
ATOM     21 OXT  SER B   4      45.473  34.956  11.379  0.50 46.05 LIG-0.65  OA
ENDBRANCH 18 19
BRANCH 18 22
ATOM     22  CB  SER B   4      47.331  32.623  11.215  0.50 45.85 LIG 0.20  C 
BRANCH 22 23
ATOM     23 OG   SER B   4      48.394  32.071  11.974  0.50 45.98 LIG-0.40  OA
ATOM     24 HG   SER B   4      49.105  32.108  11.529  0.50 45.98 LIG 0.21  HD
ENDBRANCH 22 23
ENDBRANCH 18 22
ENDBRANCH 15 18
ENDBRANCH 1 14
BRANCH 1 25
ATOM     25  N   ARG B   3      52.412  34.254   9.673  0.50 45.48 LIG-0.35  N 
ATOM     26 H    ARG B   3      52.906  33.573   9.848  0.50 45.48 LIG 0.16  HD
ATOM     27  C   ALA B   2      52.508  35.039   8.606  0.50 45.44 LIG 0.24  C 
ATOM     28 O    ALA B   2      51.687  35.924   8.390  0.50 45.54 LIG-0.27  OA
BRANCH 27 29
ATOM     29  CA  ALA B   2      53.651  34.831   7.627  0.50 45.45 LIG 0.17  C 
ATOM     30  CB  ALA B   2      54.765  35.767   7.916  0.50 45.48 LIG 0.04  C 
BRANCH 29 31
ATOM     31  N   ALA B   2      53.094  35.181   6.348  0.50 45.47 LIG-0.35  N 
ATOM     32 H    ALA B   2      53.513  35.821   5.955  0.50 45.47 LIG 0.16  HD
ATOM     33  C   VAL B   1      52.040  34.583   5.822  0.50 45.44 LIG 0.25  C 
ATOM     34 O    VAL B   1      51.589  33.515   6.232  0.50 45.56 LIG-0.27  OA
BRANCH 33 35
ATOM     35  CA  VAL B   1      51.519  35.243   4.555  0.50 45.37 LIG 0.28  C 
BRANCH 35 36
ATOM     36  CB  VAL B   1      51.229  34.195   3.459  0.50 45.32 LIG 0.02  C 
ATOM     37  CG2 VAL B   1      49.980  33.361   3.786  0.50 45.23 LIG 0.01  C 
ATOM     38  CG1 VAL B   1      52.449  33.336   3.242  0.50 45.24 LIG 0.01  C 
ENDBRANCH 35 36
BRANCH 35 39
ATOM     39  N   VAL B   1      52.480  36.279   4.083  0.50 45.40 LIG-0.07  N 
ATOM     40 H3   VAL B   1      53.219  35.884   3.782  0.50 45.40 LIG 0.28  HD
ATOM     41 H1   VAL B   1      52.108  36.751   3.427  0.50 45.40 LIG 0.28  HD
ATOM     42 H2   VAL B   1      52.688  36.820   4.758  0.50 45.40 LIG 0.28  HD
ENDBRANCH 35 39
ENDBRANCH 33 35
ENDBRANCH 29 31
ENDBRANCH 27 29
ENDBRANCH 1 25
TORSDOF 15
ENDMDL
MODEL 47
USER: ADFR SOLUTION from run 22
USER: SCORE 12.096116 LL:  -2.088 LR: -11.970 RR:   0.000 FEB:  -7.496
USER: RMSD 10.463802
USER: SEED 21
USER: STATUS no improvement in best 3 clusters for 5 generations
USER: GENES 17
USER: genes 0 Translation |==|  0.38040 0.24645 0.55297
USER: genes 1 Rotation |==|  0.30980 0.13642 0.34639 0.74090
USER: genes 2 Torsion [C]-CA--CB-[CG] |==|  0.42453
USER: genes 3 Torsion [CA]-CB--CG-[CD] |==|  0.42732
USER: genes 4 Torsion [CB]-CG--CD-[NE] |==|  0.63296
USER: genes 5 Torsion [CG]-CD--NE-[CZ] |==|  0.83135
USER: genes 6 Torsion [N]-CA--C-[N] |==|  0.55725
USER: genes 7 Torsion [C]-N--CA-[CB] |==|  0.80668
USER: genes 8 Torsion [N]-CA--C-[OXT] |==|  0.21684
USER: genes 9 Torsion [N]-CA--CB-[OG] |==|  0.92319
USER: genes 10 Torsion [CA]-CB--OG-[HG] |==|  0.84710
USER: genes 11 Torsion [CB]-CA--N-[C] |==|  0.33835
USER: genes 12 Torsion [N]-C--CA-[N] |==|  0.43500
USER: genes 13 Torsion [C]-CA--N-[C] |==|  0.67525
USER: genes 14 Torsion [N]-C--CA-[N] |==|  0.33313
USER: genes 15 Torsion [C]-CA--CB-[CG2] |==|  0.13262
USER: genes 16 Torsion [C]-CA--N-[H1] |==|  0.10158
ROOT
ATOM      1  CA  ARG B   3      49.642  33.784  10.169  0.50 45.43 LIG 0.18  C 
ENDROOT
BRANCH 1 2
ATOM      2  CB  ARG B   3      49.169  32.356  10.216  0.50 45.40 LIG 0.04  C 
BRANCH 2 3
ATOM      3  CG  ARG B   3      48.710  31.916   8.867  0.50 45.00 LIG 0.02  C 
BRANCH 3 4
ATOM      4  CD  ARG B   3      48.832  30.444   8.702  0.50 44.41 LIG 0.14  C 
BRANCH 4 5
ATOM      5  NE  ARG B   3      49.480  30.158   7.435  0.50 44.18 LIG-0.23  N 
ATOM      6  CZ  ARG B   3      48.994  30.515   6.263  0.50 43.75 LIG 0.67  C 
ATOM      7  NH1 ARG B   3      49.644  30.201   5.159  0.50 44.03 LIG-0.23  N 
ATOM      8  NH2 ARG B   3      47.856  31.189   6.190  0.50 43.85 LIG-0.23  N 
ATOM      9 12HH ARG B   3      49.329  30.433   4.393  0.50 44.03 LIG 0.17  HD
ATOM     10 11HH ARG B   3      50.384  29.765   5.205  0.50 44.03 LIG 0.17  HD
ATOM     11 22HH ARG B   3      47.542  31.419   5.424  0.50 43.85 LIG 0.17  HD
ATOM     12 21HH ARG B   3      47.431  31.395   6.909  0.50 43.85 LIG 0.17  HD
ATOM     13 HE   ARG B   3      50.226  29.729   7.449  0.50 44.18 LIG 0.18  HD
ENDBRANCH 4 5
ENDBRANCH 3 4
ENDBRANCH 2 3
ENDBRANCH 1 2
BRANCH 1 14
ATOM     14  C   ARG B   3      49.475  34.440  11.527  0.50 45.62 LIG 0.24  C 
ATOM     15  N   SER B   4      48.463  33.968  12.245  0.50 45.72 LIG-0.34  N 
ATOM     16 H    SER B   4      47.970  33.307  12.000  0.50 45.72 LIG 0.16  HD
ATOM     17 O    ARG B   3      50.238  35.325  11.917  0.50 45.72 LIG-0.27  OA
BRANCH 15 18
ATOM     18  CA  SER B   4      48.097  34.541  13.529  0.50 45.84 LIG 0.21  C 
BRANCH 18 19
ATOM     19  C   SER B   4      47.890  36.050  13.455  0.50 45.90 LIG 0.20  C 
ATOM     20 O    SER B   4      48.754  36.828  13.863  0.50 45.95 LIG-0.65  OA
ATOM     21 OXT  SER B   4      46.855  36.528  12.995  0.50 46.05 LIG-0.65  OA
ENDBRANCH 18 19
BRANCH 18 22
ATOM     22  CB  SER B   4      49.188  34.214  14.546  0.50 45.85 LIG 0.20  C 
BRANCH 22 23
ATOM     23 OG   SER B   4      49.855  33.011  14.205  0.50 45.98 LIG-0.40  OA
ATOM     24 HG   SER B   4      49.293  32.393  14.123  0.50 45.98 LIG 0.21  HD
ENDBRANCH 22 23
ENDBRANCH 18 22
ENDBRANCH 15 18
ENDBRANCH 1 14
BRANCH 1 25
ATOM     25  N   ARG B   3      50.970  33.930   9.582  0.50 45.48 LIG-0.35  N 
ATOM     26 H    ARG B   3      51.607  33.498   9.964  0.50 45.48 LIG 0.16  HD
ATOM     27  C   ALA B   2      51.083  34.713   8.516  0.50 45.44 LIG 0.24  C 
ATOM     28 O    ALA B   2      50.095  35.204   7.978  0.50 45.54 LIG-0.27  OA
BRANCH 27 29
ATOM     29  CA  ALA B   2      52.460  35.000   7.943  0.50 45.45 LIG 0.17  C 
ATOM     30  CB  ALA B   2      53.075  36.170   8.616  0.50 45.48 LIG 0.04  C 
BRANCH 29 31
ATOM     31  N   ALA B   2      52.209  35.355   6.571  0.50 45.47 LIG-0.35  N 
ATOM     32 H    ALA B   2      51.736  36.067   6.483  0.50 45.47 LIG 0.16  HD
ATOM     33  C   VAL B   1      52.658  34.658   5.542  0.50 45.44 LIG 0.25  C 
ATOM     34 O    VAL B   1      53.537  33.803   5.632  0.50 45.56 LIG-0.27  OA
BRANCH 33 35
ATOM     35  CA  VAL B   1      52.114  35.114   4.198  0.50 45.37 LIG 0.28  C 
BRANCH 35 36
ATOM     36  CB  VAL B   1      51.254  34.012   3.542  0.50 45.32 LIG 0.02  C 
ATOM     37  CG2 VAL B   1      50.240  33.417   4.532  0.50 45.23 LIG 0.01  C 
ATOM     38  CG1 VAL B   1      52.151  32.960   2.941  0.50 45.24 LIG 0.01  C 
ENDBRANCH 35 36
BRANCH 35 39
ATOM     39  N   VAL B   1      53.230  35.541   3.309  0.50 45.40 LIG-0.07  N 
ATOM     40 H3   VAL B   1      53.449  36.384   3.492  0.50 45.40 LIG 0.28  HD
ATOM     41 H1   VAL B   1      53.935  35.015   3.445  0.50 45.40 LIG 0.28  HD
ATOM     42 H2   VAL B   1      52.973  35.479   2.460  0.50 45.40 LIG 0.28  HD
ENDBRANCH 35 39
ENDBRANCH 33 35
ENDBRANCH 29 31
ENDBRANCH 27 29
ENDBRANCH 1 25
TORSDOF 15
ENDMDL
MODEL 48
USER: ADFR SOLUTION from run 6
USER: SCORE 13.571047 LL:  -2.388 LR: -11.954 RR:   0.000 FEB:  -7.479
USER: RMSD 10.020005
USER: SEED 944807
USER: STATUS no improvement in best 9 clusters for 5 generations
USER: GENES 17
USER: genes 0 Translation |==|  0.47674 0.27469 0.47574
USER: genes 1 Rotation |==|  0.57401 0.14882 0.77323 0.71573
USER: genes 2 Torsion [C]-CA--CB-[CG] |==|  0.71082
USER: genes 3 Torsion [CA]-CB--CG-[CD] |==|  0.16868
USER: genes 4 Torsion [CB]-CG--CD-[NE] |==|  0.57296
USER: genes 5 Torsion [CG]-CD--NE-[CZ] |==|  0.63819
USER: genes 6 Torsion [N]-CA--C-[N] |==|  0.41895
USER: genes 7 Torsion [C]-N--CA-[CB] |==|  0.44616
USER: genes 8 Torsion [N]-CA--C-[OXT] |==|  0.06112
USER: genes 9 Torsion [N]-CA--CB-[OG] |==|  0.86414
USER: genes 10 Torsion [CA]-CB--OG-[HG] |==|  0.13396
USER: genes 11 Torsion [CB]-CA--N-[C] |==|  0.50008
USER: genes 12 Torsion [N]-C--CA-[N] |==|  0.34359
USER: genes 13 Torsion [C]-CA--N-[C] |==|  0.82992
USER: genes 14 Torsion [N]-C--CA-[N] |==|  0.53031
USER: genes 15 Torsion [C]-CA--CB-[CG2] |==|  0.82771
USER: genes 16 Torsion [C]-CA--N-[H1] |==|  0.52267
ROOT
ATOM      1  CA  ARG B   3      52.532  34.631   7.852  0.50 45.43 LIG 0.18  C 
ENDROOT
BRANCH 1 2
ATOM      2  CB  ARG B   3      53.855  35.023   8.454  0.50 45.40 LIG 0.04  C 
BRANCH 2 3
ATOM      3  CG  ARG B   3      54.383  36.249   7.791  0.50 45.00 LIG 0.02  C 
BRANCH 3 4
ATOM      4  CD  ARG B   3      53.460  37.402   7.960  0.50 44.41 LIG 0.14  C 
BRANCH 4 5
ATOM      5  NE  ARG B   3      53.648  38.330   6.860  0.50 44.18 LIG-0.23  N 
ATOM      6  CZ  ARG B   3      53.830  39.626   7.014  0.50 43.75 LIG 0.67  C 
ATOM      7  NH1 ARG B   3      53.980  40.398   5.955  0.50 44.03 LIG-0.23  N 
ATOM      8  NH2 ARG B   3      53.865  40.155   8.227  0.50 43.85 LIG-0.23  N 
ATOM      9 12HH ARG B   3      54.099  41.245   6.053  0.50 44.03 LIG 0.17  HD
ATOM     10 11HH ARG B   3      53.959  40.056   5.167  0.50 44.03 LIG 0.17  HD
ATOM     11 22HH ARG B   3      53.983  41.001   8.324  0.50 43.85 LIG 0.17  HD
ATOM     12 21HH ARG B   3      53.768  39.653   8.918  0.50 43.85 LIG 0.17  HD
ATOM     13 HE   ARG B   3      53.639  38.015   6.059  0.50 44.18 LIG 0.18  HD
ENDBRANCH 4 5
ENDBRANCH 3 4
ENDBRANCH 2 3
ENDBRANCH 1 2
BRANCH 1 14
ATOM     14  C   ARG B   3      51.395  35.006   8.785  0.50 45.62 LIG 0.24  C 
ATOM     15  N   SER B   4      51.201  34.153   9.785  0.50 45.72 LIG-0.34  N 
ATOM     16 H    SER B   4      51.704  33.473   9.938  0.50 45.72 LIG 0.16  HD
ATOM     17 O    ARG B   3      50.733  36.030   8.620  0.50 45.72 LIG-0.27  OA
BRANCH 15 18
ATOM     18  CA  SER B   4      50.099  34.303  10.720  0.50 45.84 LIG 0.21  C 
BRANCH 18 19
ATOM     19  C   SER B   4      50.359  35.390  11.756  0.50 45.90 LIG 0.20  C 
ATOM     20 O    SER B   4      49.755  35.397  12.830  0.50 45.95 LIG-0.65  OA
ATOM     21 OXT  SER B   4      51.171  36.289  11.545  0.50 46.05 LIG-0.65  OA
ENDBRANCH 18 19
BRANCH 18 22
ATOM     22  CB  SER B   4      49.855  32.966  11.417  0.50 45.85 LIG 0.20  C 
BRANCH 22 23
ATOM     23 OG   SER B   4      49.779  31.910  10.474  0.50 45.98 LIG-0.40  OA
ATOM     24 HG   SER B   4      50.427  31.962   9.943  0.50 45.98 LIG 0.21  HD
ENDBRANCH 22 23
ENDBRANCH 18 22
ENDBRANCH 15 18
ENDBRANCH 1 14
BRANCH 1 25
ATOM     25  N   ARG B   3      52.367  35.091   6.477  0.50 45.48 LIG-0.35  N 
ATOM     26 H    ARG B   3      53.023  35.534   6.141  0.50 45.48 LIG 0.16  HD
ATOM     27  C   ALA B   2      51.228  34.791   5.866  0.50 45.44 LIG 0.24  C 
ATOM     28 O    ALA B   2      50.394  34.061   6.393  0.50 45.54 LIG-0.27  OA
BRANCH 27 29
ATOM     29  CA  ALA B   2      50.953  35.352   4.481  0.50 45.45 LIG 0.17  C 
ATOM     30  CB  ALA B   2      49.723  36.181   4.485  0.50 45.48 LIG 0.04  C 
BRANCH 29 31
ATOM     31  N   ALA B   2      50.707  34.191   3.668  0.50 45.47 LIG-0.35  N 
ATOM     32 H    ALA B   2      49.920  34.177   3.321  0.50 45.47 LIG 0.16  HD
ATOM     33  C   VAL B   1      51.598  33.236   3.468  0.50 45.44 LIG 0.25  C 
ATOM     34 O    VAL B   1      52.794  33.356   3.731  0.50 45.56 LIG-0.27  OA
BRANCH 33 35
ATOM     35  CA  VAL B   1      51.054  32.023   2.732  0.50 45.37 LIG 0.28  C 
BRANCH 35 36
ATOM     36  CB  VAL B   1      49.681  31.598   3.295  0.50 45.32 LIG 0.02  C 
ATOM     37  CG2 VAL B   1      49.776  31.184   4.772  0.50 45.23 LIG 0.01  C 
ATOM     38  CG1 VAL B   1      49.094  30.510   2.433  0.50 45.24 LIG 0.01  C 
ENDBRANCH 35 36
BRANCH 35 39
ATOM     39  N   VAL B   1      52.038  30.906   2.785  0.50 45.40 LIG-0.07  N 
ATOM     40 H3   VAL B   1      52.105  30.608   3.621  0.50 45.40 LIG 0.28  HD
ATOM     41 H1   VAL B   1      51.766  30.245   2.255  0.50 45.40 LIG 0.28  HD
ATOM     42 H2   VAL B   1      52.833  31.197   2.511  0.50 45.40 LIG 0.28  HD
ENDBRANCH 35 39
ENDBRANCH 33 35
ENDBRANCH 29 31
ENDBRANCH 27 29
ENDBRANCH 1 25
TORSDOF 15
ENDMDL
MODEL 49
USER: ADFR SOLUTION from run 123
USER: SCORE 13.601792 LL:  -2.631 LR: -11.944 RR:   0.000 FEB:  -7.470
USER: RMSD 11.071447
USER: SEED 122
USER: STATUS no improvement in best 6 clusters for 5 generations
USER: GENES 17
USER: genes 0 Translation |==|  0.35539 0.19515 0.47015
USER: genes 1 Rotation |==|  0.32875 0.17953 0.51772 0.84301
USER: genes 2 Torsion [C]-CA--CB-[CG] |==|  0.26645
USER: genes 3 Torsion [CA]-CB--CG-[CD] |==|  0.58812
USER: genes 4 Torsion [CB]-CG--CD-[NE] |==|  0.93886
USER: genes 5 Torsion [CG]-CD--NE-[CZ] |==|  0.36329
USER: genes 6 Torsion [N]-CA--C-[N] |==|  0.67441
USER: genes 7 Torsion [C]-N--CA-[CB] |==|  0.79640
USER: genes 8 Torsion [N]-CA--C-[OXT] |==|  0.09638
USER: genes 9 Torsion [N]-CA--CB-[OG] |==|  0.79710
USER: genes 10 Torsion [CA]-CB--OG-[HG] |==|  0.14560
USER: genes 11 Torsion [CB]-CA--N-[C] |==|  0.19237
USER: genes 12 Torsion [N]-C--CA-[N] |==|  0.06667
USER: genes 13 Torsion [C]-CA--N-[C] |==|  0.72572
USER: genes 14 Torsion [N]-C--CA-[N] |==|  0.35635
USER: genes 15 Torsion [C]-CA--CB-[CG2] |==|  0.32353
USER: genes 16 Torsion [C]-CA--N-[H1] |==|  0.98119
ROOT
ATOM      1  CA  ARG B   3      48.892  32.244   7.684  0.50 45.43 LIG 0.18  C 
ENDROOT
BRANCH 1 2
ATOM      2  CB  ARG B   3      49.274  30.865   8.150  0.50 45.40 LIG 0.04  C 
BRANCH 2 3
ATOM      3  CG  ARG B   3      48.076  30.140   8.663  0.50 45.00 LIG 0.02  C 
BRANCH 3 4
ATOM      4  CD  ARG B   3      48.435  29.198   9.755  0.50 44.41 LIG 0.14  C 
BRANCH 4 5
ATOM      5  NE  ARG B   3      49.846  28.870   9.659  0.50 44.18 LIG-0.23  N 
ATOM      6  CZ  ARG B   3      50.683  28.921  10.676  0.50 43.75 LIG 0.67  C 
ATOM      7  NH1 ARG B   3      51.953  28.616  10.496  0.50 44.03 LIG-0.23  N 
ATOM      8  NH2 ARG B   3      50.252  29.274  11.878  0.50 43.85 LIG-0.23  N 
ATOM      9 12HH ARG B   3      52.502  28.648  11.158  0.50 44.03 LIG 0.17  HD
ATOM     10 11HH ARG B   3      52.234  28.385   9.717  0.50 44.03 LIG 0.17  HD
ATOM     11 22HH ARG B   3      50.801  29.306  12.538  0.50 43.85 LIG 0.17  HD
ATOM     12 21HH ARG B   3      49.424  29.471  11.997  0.50 43.85 LIG 0.17  HD
ATOM     13 HE   ARG B   3      50.154  28.627   8.894  0.50 44.18 LIG 0.18  HD
ENDBRANCH 4 5
ENDBRANCH 3 4
ENDBRANCH 2 3
ENDBRANCH 1 2
BRANCH 1 14
ATOM     14  C   ARG B   3      49.145  33.262   8.781  0.50 45.62 LIG 0.24  C 
ATOM     15  N   SER B   4      49.864  32.804   9.800  0.50 45.72 LIG-0.34  N 
ATOM     16 H    SER B   4      50.214  32.018   9.824  0.50 45.72 LIG 0.16  HD
ATOM     17 O    ARG B   3      48.724  34.416   8.704  0.50 45.72 LIG-0.27  OA
BRANCH 15 18
ATOM     18  CA  SER B   4      50.126  33.610  10.980  0.50 45.84 LIG 0.21  C 
BRANCH 18 19
ATOM     19  C   SER B   4      48.861  34.252  11.538  0.50 45.90 LIG 0.20  C 
ATOM     20 O    SER B   4      48.896  35.368  12.060  0.50 45.95 LIG-0.65  OA
ATOM     21 OXT  SER B   4      47.778  33.672  11.489  0.50 46.05 LIG-0.65  OA
ENDBRANCH 18 19
BRANCH 18 22
ATOM     22  CB  SER B   4      51.146  34.689  10.628  0.50 45.85 LIG 0.20  C 
BRANCH 22 23
ATOM     23 OG   SER B   4      52.441  34.132  10.474  0.50 45.98 LIG-0.40  OA
ATOM     24 HG   SER B   4      52.408  33.491   9.934  0.50 45.98 LIG 0.21  HD
ENDBRANCH 22 23
ENDBRANCH 18 22
ENDBRANCH 15 18
ENDBRANCH 1 14
BRANCH 1 25
ATOM     25  N   ARG B   3      49.464  32.592   6.388  0.50 45.48 LIG-0.35  N 
ATOM     26 H    ARG B   3      50.073  33.200   6.389  0.50 45.48 LIG 0.16  HD
ATOM     27  C   ALA B   2      49.002  31.948   5.324  0.50 45.44 LIG 0.24  C 
ATOM     28 O    ALA B   2      48.207  31.020   5.436  0.50 45.54 LIG-0.27  OA
BRANCH 27 29
ATOM     29  CA  ALA B   2      49.472  32.360   3.939  0.50 45.45 LIG 0.17  C 
ATOM     30  CB  ALA B   2      49.698  31.168   3.086  0.50 45.48 LIG 0.04  C 
BRANCH 29 31
ATOM     31  N   ALA B   2      50.744  32.992   4.168  0.50 45.47 LIG-0.35  N 
ATOM     32 H    ALA B   2      51.393  32.435   4.258  0.50 45.47 LIG 0.16  HD
ATOM     33  C   VAL B   1      50.907  34.301   4.237  0.50 45.44 LIG 0.25  C 
ATOM     34 O    VAL B   1      50.063  35.113   3.860  0.50 45.56 LIG-0.27  OA
BRANCH 33 35
ATOM     35  CA  VAL B   1      52.298  34.732   4.672  0.50 45.37 LIG 0.28  C 
BRANCH 35 36
ATOM     36  CB  VAL B   1      52.286  35.286   6.112  0.50 45.32 LIG 0.02  C 
ATOM     37  CG2 VAL B   1      53.130  34.420   7.061  0.50 45.23 LIG 0.01  C 
ATOM     38  CG1 VAL B   1      50.863  35.433   6.587  0.50 45.24 LIG 0.01  C 
ENDBRANCH 35 36
BRANCH 35 39
ATOM     39  N   VAL B   1      52.854  35.723   3.708  0.50 45.40 LIG-0.07  N 
ATOM     40 H3   VAL B   1      53.654  35.449   3.428  0.50 45.40 LIG 0.28  HD
ATOM     41 H1   VAL B   1      52.306  35.799   3.011  0.50 45.40 LIG 0.28  HD
ATOM     42 H2   VAL B   1      52.935  36.514   4.108  0.50 45.40 LIG 0.28  HD
ENDBRANCH 35 39
ENDBRANCH 33 35
ENDBRANCH 29 31
ENDBRANCH 27 29
ENDBRANCH 1 25
TORSDOF 15
ENDMDL
MODEL 50
USER: ADFR SOLUTION from run 126
USER: SCORE 13.473478 LL:  -2.039 LR: -11.915 RR:   0.000 FEB:  -7.441
USER: RMSD 10.573986
USER: SEED 125
USER: STATUS no improvement in best 8 clusters for 5 generations
USER: GENES 17
USER: genes 0 Translation |==|  0.40894 0.25866 0.47428
USER: genes 1 Rotation |==|  0.85776 0.58104 0.81884 0.61741
USER: genes 2 Torsion [C]-CA--CB-[CG] |==|  0.33722
USER: genes 3 Torsion [CA]-CB--CG-[CD] |==|  0.12917
USER: genes 4 Torsion [CB]-CG--CD-[NE] |==|  0.52386
USER: genes 5 Torsion [CG]-CD--NE-[CZ] |==|  0.34113
USER: genes 6 Torsion [N]-CA--C-[N] |==|  0.35040
USER: genes 7 Torsion [C]-N--CA-[CB] |==|  0.49725
USER: genes 8 Torsion [N]-CA--C-[OXT] |==|  0.81987
USER: genes 9 Torsion [N]-CA--CB-[OG] |==|  0.88214
USER: genes 10 Torsion [CA]-CB--OG-[HG] |==|  0.54703
USER: genes 11 Torsion [CB]-CA--N-[C] |==|  0.84762
USER: genes 12 Torsion [N]-C--CA-[N] |==|  0.89353
USER: genes 13 Torsion [C]-CA--N-[C] |==|  0.69606
USER: genes 14 Torsion [N]-C--CA-[N] |==|  0.35096
USER: genes 15 Torsion [C]-CA--CB-[CG2] |==|  0.81872
USER: genes 16 Torsion [C]-CA--N-[H1] |==|  0.33561
ROOT
ATOM      1  CA  ARG B   3      50.498  34.150   7.809  0.50 45.43 LIG 0.18  C 
ENDROOT
BRANCH 1 2
ATOM      2  CB  ARG B   3      49.601  35.120   7.088  0.50 45.40 LIG 0.04  C 
BRANCH 2 3
ATOM      3  CG  ARG B   3      50.249  35.590   5.830  0.50 45.00 LIG 0.02  C 
BRANCH 3 4
ATOM      4  CD  ARG B   3      50.824  34.459   5.057  0.50 44.41 LIG 0.14  C 
BRANCH 4 5
ATOM      5  NE  ARG B   3      51.612  34.984   3.956  0.50 44.18 LIG-0.23  N 
ATOM      6  CZ  ARG B   3      52.887  34.707   3.768  0.50 43.75 LIG 0.67  C 
ATOM      7  NH1 ARG B   3      53.530  35.238   2.746  0.50 44.03 LIG-0.23  N 
ATOM      8  NH2 ARG B   3      53.523  33.896   4.599  0.50 43.85 LIG-0.23  N 
ATOM      9 12HH ARG B   3      54.362  35.059   2.621  0.50 44.03 LIG 0.17  HD
ATOM     10 11HH ARG B   3      53.118  35.764   2.205  0.50 44.03 LIG 0.17  HD
ATOM     11 22HH ARG B   3      54.355  33.718   4.473  0.50 43.85 LIG 0.17  HD
ATOM     12 21HH ARG B   3      53.105  33.548   5.264  0.50 43.85 LIG 0.17  HD
ATOM     13 HE   ARG B   3      51.224  35.506   3.394  0.50 44.18 LIG 0.18  HD
ENDBRANCH 4 5
ENDBRANCH 3 4
ENDBRANCH 2 3
ENDBRANCH 1 2
BRANCH 1 14
ATOM     14  C   ARG B   3      50.815  34.658   9.203  0.50 45.62 LIG 0.24  C 
ATOM     15  N   SER B   4      52.040  35.152   9.342  0.50 45.72 LIG-0.34  N 
ATOM     16 H    SER B   4      52.598  35.238   8.693  0.50 45.72 LIG 0.16  HD
ATOM     17 O    ARG B   3      49.984  34.621  10.111  0.50 45.72 LIG-0.27  OA
BRANCH 15 18
ATOM     18  CA  SER B   4      52.547  35.598  10.629  0.50 45.84 LIG 0.21  C 
BRANCH 18 19
ATOM     19  C   SER B   4      51.695  36.704  11.240  0.50 45.90 LIG 0.20  C 
ATOM     20 O    SER B   4      51.071  36.517  12.286  0.50 45.95 LIG-0.65  OA
ATOM     21 OXT  SER B   4      51.602  37.806  10.702  0.50 46.05 LIG-0.65  OA
ENDBRANCH 18 19
BRANCH 18 22
ATOM     22  CB  SER B   4      53.984  36.084  10.454  0.50 45.85 LIG 0.20  C 
BRANCH 22 23
ATOM     23 OG   SER B   4      54.716  35.211   9.610  0.50 45.98 LIG-0.40  OA
ATOM     24 HG   SER B   4      55.537  35.351   9.707  0.50 45.98 LIG 0.21  HD
ENDBRANCH 22 23
ENDBRANCH 18 22
ENDBRANCH 15 18
ENDBRANCH 1 14
BRANCH 1 25
ATOM     25  N   ARG B   3      50.014  32.774   7.758  0.50 45.48 LIG-0.35  N 
ATOM     26 H    ARG B   3      50.561  32.187   7.451  0.50 45.48 LIG 0.16  HD
ATOM     27  C   ALA B   2      48.778  32.546   8.188  0.50 45.44 LIG 0.24  C 
ATOM     28 O    ALA B   2      48.111  33.433   8.709  0.50 45.54 LIG-0.27  OA
BRANCH 27 29
ATOM     29  CA  ALA B   2      48.182  31.157   8.040  0.50 45.45 LIG 0.17  C 
ATOM     30  CB  ALA B   2      48.712  30.245   9.082  0.50 45.48 LIG 0.04  C 
BRANCH 29 31
ATOM     31  N   ALA B   2      48.658  30.698   6.762  0.50 45.47 LIG-0.35  N 
ATOM     32 H    ALA B   2      49.499  30.523   6.753  0.50 45.47 LIG 0.16  HD
ATOM     33  C   VAL B   1      47.883  30.558   5.701  0.50 45.44 LIG 0.25  C 
ATOM     34 O    VAL B   1      46.654  30.550   5.752  0.50 45.56 LIG-0.27  OA
BRANCH 33 35
ATOM     35  CA  VAL B   1      48.636  30.242   4.419  0.50 45.37 LIG 0.28  C 
BRANCH 35 36
ATOM     36  CB  VAL B   1      48.614  31.443   3.449  0.50 45.32 LIG 0.02  C 
ATOM     37  CG2 VAL B   1      47.191  31.749   2.955  0.50 45.23 LIG 0.01  C 
ATOM     38  CG1 VAL B   1      49.573  31.195   2.313  0.50 45.24 LIG 0.01  C 
ENDBRANCH 35 36
BRANCH 35 39
ATOM     39  N   VAL B   1      48.079  29.015   3.785  0.50 45.40 LIG-0.07  N 
ATOM     40 H3   VAL B   1      47.402  28.708   4.275  0.50 45.40 LIG 0.28  HD
ATOM     41 H1   VAL B   1      47.788  29.210   2.966  0.50 45.40 LIG 0.28  HD
ATOM     42 H2   VAL B   1      48.713  28.393   3.734  0.50 45.40 LIG 0.28  HD
ENDBRANCH 35 39
ENDBRANCH 33 35
ENDBRANCH 29 31
ENDBRANCH 27 29
ENDBRANCH 1 25
TORSDOF 15
ENDMDL
MODEL 51
USER: ADFR SOLUTION from run 13
USER: SCORE 12.810643 LL:  -2.271 LR: -11.894 RR:   0.000 FEB:  -7.420
USER: RMSD 12.372542
USER: SEED 747250
USER: STATUS no improvement in best 10 clusters for 5 generations
USER: GENES 17
USER: genes 0 Translation |==|  0.37381 0.21941 0.42154
USER: genes 1 Rotation |==|  0.80280 0.31771 0.15951 0.59567
USER: genes 2 Torsion [C]-CA--CB-[CG] |==|  0.13704
USER: genes 3 Torsion [CA]-CB--CG-[CD] |==|  0.66372
USER: genes 4 Torsion [CB]-CG--CD-[NE] |==|  0.70266
USER: genes 5 Torsion [CG]-CD--NE-[CZ] |==|  0.23066
USER: genes 6 Torsion [N]-CA--C-[N] |==|  0.39081
USER: genes 7 Torsion [C]-N--CA-[CB] |==|  0.48521
USER: genes 8 Torsion [N]-CA--C-[OXT] |==|  0.87766
USER: genes 9 Torsion [N]-CA--CB-[OG] |==|  0.79088
USER: genes 10 Torsion [CA]-CB--OG-[HG] |==|  0.35488
USER: genes 11 Torsion [CB]-CA--N-[C] |==|  0.28889
USER: genes 12 Torsion [N]-C--CA-[N] |==|  0.94042
USER: genes 13 Torsion [C]-CA--N-[C] |==|  0.75152
USER: genes 14 Torsion [N]-C--CA-[N] |==|  0.88815
USER: genes 15 Torsion [C]-CA--CB-[CG2] |==|  0.01082
USER: genes 16 Torsion [C]-CA--N-[H1] |==|  0.71781
ROOT
ATOM      1  CA  ARG B   3      49.444  32.972   6.226  0.50 45.43 LIG 0.18  C 
ENDROOT
BRANCH 1 2
ATOM      2  CB  ARG B   3      50.614  33.620   5.535  0.50 45.40 LIG 0.04  C 
BRANCH 2 3
ATOM      3  CG  ARG B   3      50.309  33.836   4.092  0.50 45.00 LIG 0.02  C 
BRANCH 3 4
ATOM      4  CD  ARG B   3      51.285  33.136   3.217  0.50 44.41 LIG 0.14  C 
BRANCH 4 5
ATOM      5  NE  ARG B   3      52.170  34.113   2.609  0.50 44.18 LIG-0.23  N 
ATOM      6  CZ  ARG B   3      53.238  34.608   3.203  0.50 43.75 LIG 0.67  C 
ATOM      7  NH1 ARG B   3      53.980  35.502   2.580  0.50 44.03 LIG-0.23  N 
ATOM      8  NH2 ARG B   3      53.568  34.209   4.422  0.50 43.85 LIG-0.23  N 
ATOM      9 12HH ARG B   3      54.677  35.827   2.966  0.50 44.03 LIG 0.17  HD
ATOM     10 11HH ARG B   3      53.768  35.761   1.788  0.50 44.03 LIG 0.17  HD
ATOM     11 22HH ARG B   3      54.264  34.535   4.807  0.50 43.85 LIG 0.17  HD
ATOM     12 21HH ARG B   3      53.085  33.625   4.829  0.50 43.85 LIG 0.17  HD
ATOM     13 HE   ARG B   3      51.988  34.385   1.813  0.50 44.18 LIG 0.18  HD
ENDBRANCH 4 5
ENDBRANCH 3 4
ENDBRANCH 2 3
ENDBRANCH 1 2
BRANCH 1 14
ATOM     14  C   ARG B   3      48.966  31.766   5.438  0.50 45.62 LIG 0.24  C 
ATOM     15  N   SER B   4      48.033  32.036   4.533  0.50 45.72 LIG-0.34  N 
ATOM     16 H    SER B   4      47.755  32.830   4.355  0.50 45.72 LIG 0.16  HD
ATOM     17 O    ARG B   3      49.432  30.642   5.629  0.50 45.72 LIG-0.27  OA
BRANCH 15 18
ATOM     18  CA  SER B   4      47.394  30.991   3.753  0.50 45.84 LIG 0.21  C 
BRANCH 18 19
ATOM     19  C   SER B   4      48.379  30.248   2.857  0.50 45.90 LIG 0.20  C 
ATOM     20 O    SER B   4      48.355  29.019   2.773  0.50 45.95 LIG-0.65  OA
ATOM     21 OXT  SER B   4      49.224  30.855   2.201  0.50 46.05 LIG-0.65  OA
ENDBRANCH 18 19
BRANCH 18 22
ATOM     22  CB  SER B   4      46.285  31.611   2.906  0.50 45.85 LIG 0.20  C 
BRANCH 22 23
ATOM     23 OG   SER B   4      45.154  31.923   3.702  0.50 45.98 LIG-0.40  OA
ATOM     24 HG   SER B   4      44.936  32.724   3.578  0.50 45.98 LIG 0.21  HD
ENDBRANCH 22 23
ENDBRANCH 18 22
ENDBRANCH 15 18
ENDBRANCH 1 14
BRANCH 1 25
ATOM     25  N   ARG B   3      49.683  32.717   7.643  0.50 45.48 LIG-0.35  N 
ATOM     26 H    ARG B   3      50.191  32.049   7.831  0.50 45.48 LIG 0.16  HD
ATOM     27  C   ALA B   2      49.102  33.531   8.516  0.50 45.44 LIG 0.24  C 
ATOM     28 O    ALA B   2      48.482  34.523   8.147  0.50 45.54 LIG-0.27  OA
BRANCH 27 29
ATOM     29  CA  ALA B   2      49.215  33.235  10.002  0.50 45.45 LIG 0.17  C 
ATOM     30  CB  ALA B   2      50.349  33.981  10.600  0.50 45.48 LIG 0.04  C 
BRANCH 29 31
ATOM     31  N   ALA B   2      49.523  31.831  10.063  0.50 45.47 LIG-0.35  N 
ATOM     32 H    ALA B   2      50.366  31.665  10.060  0.50 45.47 LIG 0.16  HD
ATOM     33  C   VAL B   1      48.603  30.884  10.120  0.50 45.44 LIG 0.25  C 
ATOM     34 O    VAL B   1      47.422  31.098  10.385  0.50 45.56 LIG-0.27  OA
BRANCH 33 35
ATOM     35  CA  VAL B   1      49.155  29.474   9.988  0.50 45.37 LIG 0.28  C 
BRANCH 35 36
ATOM     36  CB  VAL B   1      49.656  28.942  11.347  0.50 45.32 LIG 0.02  C 
ATOM     37  CG2 VAL B   1      49.377  29.936  12.486  0.50 45.23 LIG 0.01  C 
ATOM     38  CG1 VAL B   1      51.117  28.585  11.246  0.50 45.24 LIG 0.01  C 
ENDBRANCH 35 36
BRANCH 35 39
ATOM     39  N   VAL B   1      50.228  29.437   8.955  0.50 45.40 LIG-0.07  N 
ATOM     40 H3   VAL B   1      50.900  28.928   9.242  0.50 45.40 LIG 0.28  HD
ATOM     41 H1   VAL B   1      49.902  29.099   8.200  0.50 45.40 LIG 0.28  HD
ATOM     42 H2   VAL B   1      50.526  30.262   8.806  0.50 45.40 LIG 0.28  HD
ENDBRANCH 35 39
ENDBRANCH 33 35
ENDBRANCH 29 31
ENDBRANCH 27 29
ENDBRANCH 1 25
TORSDOF 15
ENDMDL
MODEL 52
USER: ADFR SOLUTION from run 52
USER: SCORE 13.185800 LL:  -2.638 LR: -11.892 RR:   0.000 FEB:  -7.417
USER: RMSD 8.204833
USER: SEED 51
USER: STATUS no improvement in best 11 clusters for 5 generations
USER: GENES 17
USER: genes 0 Translation |==|  0.48978 0.28094 0.49987
USER: genes 1 Rotation |==|  0.67177 0.24067 0.82999 0.71059
USER: genes 2 Torsion [C]-CA--CB-[CG] |==|  0.89252
USER: genes 3 Torsion [CA]-CB--CG-[CD] |==|  0.81318
USER: genes 4 Torsion [CB]-CG--CD-[NE] |==|  0.67490
USER: genes 5 Torsion [CG]-CD--NE-[CZ] |==|  0.32165
USER: genes 6 Torsion [N]-CA--C-[N] |==|  0.50000
USER: genes 7 Torsion [C]-N--CA-[CB] |==|  0.50611
USER: genes 8 Torsion [N]-CA--C-[OXT] |==|  0.38576
USER: genes 9 Torsion [N]-CA--CB-[OG] |==|  0.95210
USER: genes 10 Torsion [CA]-CB--OG-[HG] |==|  0.40385
USER: genes 11 Torsion [CB]-CA--N-[C] |==|  0.20672
USER: genes 12 Torsion [N]-C--CA-[N] |==|  0.08658
USER: genes 13 Torsion [C]-CA--N-[C] |==|  0.63513
USER: genes 14 Torsion [N]-C--CA-[N] |==|  0.40843
USER: genes 15 Torsion [C]-CA--CB-[CG2] |==|  0.97583
USER: genes 16 Torsion [C]-CA--N-[H1] |==|  0.78786
ROOT
ATOM      1  CA  ARG B   3      52.923  34.818   8.576  0.50 45.43 LIG 0.18  C 
ENDROOT
BRANCH 1 2
ATOM      2  CB  ARG B   3      54.035  35.832   8.627  0.50 45.40 LIG 0.04  C 
BRANCH 2 3
ATOM      3  CG  ARG B   3      53.534  37.124   9.176  0.50 45.00 LIG 0.02  C 
BRANCH 3 4
ATOM      4  CD  ARG B   3      52.566  37.771   8.253  0.50 44.41 LIG 0.14  C 
BRANCH 4 5
ATOM      5  NE  ARG B   3      53.108  39.042   7.805  0.50 44.18 LIG-0.23  N 
ATOM      6  CZ  ARG B   3      53.419  39.308   6.552  0.50 43.75 LIG 0.67  C 
ATOM      7  NH1 ARG B   3      53.918  40.488   6.237  0.50 44.03 LIG-0.23  N 
ATOM      8  NH2 ARG B   3      53.231  38.397   5.610  0.50 43.85 LIG-0.23  N 
ATOM      9 12HH ARG B   3      54.122  40.664   5.420  0.50 44.03 LIG 0.17  HD
ATOM     10 11HH ARG B   3      54.040  41.081   6.848  0.50 44.03 LIG 0.17  HD
ATOM     11 22HH ARG B   3      53.436  38.575   4.794  0.50 43.85 LIG 0.17  HD
ATOM     12 21HH ARG B   3      52.905  37.628   5.814  0.50 43.85 LIG 0.17  HD
ATOM     13 HE   ARG B   3      53.233  39.658   8.393  0.50 44.18 LIG 0.18  HD
ENDBRANCH 4 5
ENDBRANCH 3 4
ENDBRANCH 2 3
ENDBRANCH 1 2
BRANCH 1 14
ATOM     14  C   ARG B   3      52.038  34.943   9.802  0.50 45.62 LIG 0.24  C 
ATOM     15  N   SER B   4      52.695  34.944  10.956  0.50 45.72 LIG-0.34  N 
ATOM     16 H    SER B   4      53.553  34.935  11.019  0.50 45.72 LIG 0.16  HD
ATOM     17 O    ARG B   3      50.815  35.050   9.710  0.50 45.72 LIG-0.27  OA
BRANCH 15 18
ATOM     18  CA  SER B   4      52.004  34.962  12.234  0.50 45.84 LIG 0.21  C 
BRANCH 18 19
ATOM     19  C   SER B   4      51.041  36.137  12.359  0.50 45.90 LIG 0.20  C 
ATOM     20 O    SER B   4      51.355  37.259  11.956  0.50 45.95 LIG-0.65  OA
ATOM     21 OXT  SER B   4      49.931  35.999  12.870  0.50 46.05 LIG-0.65  OA
ENDBRANCH 18 19
BRANCH 18 22
ATOM     22  CB  SER B   4      53.038  35.015  13.356  0.50 45.85 LIG 0.20  C 
BRANCH 22 23
ATOM     23 OG   SER B   4      54.320  34.638  12.883  0.50 45.98 LIG-0.40  OA
ATOM     24 HG   SER B   4      54.908  35.083  13.284  0.50 45.98 LIG 0.21  HD
ENDBRANCH 22 23
ENDBRANCH 18 22
ENDBRANCH 15 18
ENDBRANCH 1 14
BRANCH 1 25
ATOM     25  N   ARG B   3      52.206  34.816   7.305  0.50 45.48 LIG-0.35  N 
ATOM     26 H    ARG B   3      51.422  35.170   7.308  0.50 45.48 LIG 0.16  HD
ATOM     27  C   ALA B   2      52.818  34.273   6.260  0.50 45.44 LIG 0.24  C 
ATOM     28 O    ALA B   2      53.981  33.890   6.330  0.50 45.54 LIG-0.27  OA
BRANCH 27 29
ATOM     29  CA  ALA B   2      52.067  34.132   4.946  0.50 45.45 LIG 0.17  C 
ATOM     30  CB  ALA B   2      52.992  34.276   3.796  0.50 45.48 LIG 0.04  C 
BRANCH 29 31
ATOM     31  N   ALA B   2      51.160  35.248   4.932  0.50 45.47 LIG-0.35  N 
ATOM     32 H    ALA B   2      51.536  35.998   5.123  0.50 45.47 LIG 0.16  HD
ATOM     33  C   VAL B   1      49.873  35.141   4.655  0.50 45.44 LIG 0.25  C 
ATOM     34 O    VAL B   1      49.370  34.146   4.135  0.50 45.56 LIG-0.27  OA
BRANCH 33 35
ATOM     35  CA  VAL B   1      49.079  36.416   4.884  0.50 45.37 LIG 0.28  C 
BRANCH 35 36
ATOM     36  CB  VAL B   1      48.556  36.495   6.335  0.50 45.32 LIG 0.02  C 
ATOM     37  CG2 VAL B   1      48.789  35.180   7.096  0.50 45.23 LIG 0.01  C 
ATOM     38  CG1 VAL B   1      47.105  36.904   6.330  0.50 45.24 LIG 0.01  C 
ENDBRANCH 35 36
BRANCH 35 39
ATOM     39  N   VAL B   1      47.969  36.515   3.895  0.50 45.40 LIG-0.07  N 
ATOM     40 H3   VAL B   1      47.377  37.119   4.173  0.50 45.40 LIG 0.28  HD
ATOM     41 H1   VAL B   1      48.296  36.761   3.106  0.50 45.40 LIG 0.28  HD
ATOM     42 H2   VAL B   1      47.569  35.724   3.817  0.50 45.40 LIG 0.28  HD
ENDBRANCH 35 39
ENDBRANCH 33 35
ENDBRANCH 29 31
ENDBRANCH 27 29
ENDBRANCH 1 25
TORSDOF 15
ENDMDL
MODEL 53
USER: ADFR SOLUTION from run 82
USER: SCORE 13.684426 LL:  -2.696 LR: -11.875 RR:   0.000 FEB:  -7.401
USER: RMSD 12.764334
USER: SEED 81
USER: STATUS searching
USER: GENES 17
USER: genes 0 Translation |==|  0.37181 0.19577 0.32542
USER: genes 1 Rotation |==|  0.73795 0.11765 0.29200 0.56264
USER: genes 2 Torsion [C]-CA--CB-[CG] |==|  0.30431
USER: genes 3 Torsion [CA]-CB--CG-[CD] |==|  0.25540
USER: genes 4 Torsion [CB]-CG--CD-[NE] |==|  0.10021
USER: genes 5 Torsion [CG]-CD--NE-[CZ] |==|  0.59017
USER: genes 6 Torsion [N]-CA--C-[N] |==|  0.02778
USER: genes 7 Torsion [C]-N--CA-[CB] |==|  0.23333
USER: genes 8 Torsion [N]-CA--C-[OXT] |==|  0.25742
USER: genes 9 Torsion [N]-CA--CB-[OG] |==|  0.12739
USER: genes 10 Torsion [CA]-CB--OG-[HG] |==|  0.15063
USER: genes 11 Torsion [CB]-CA--N-[C] |==|  0.81971
USER: genes 12 Torsion [N]-C--CA-[N] |==|  0.48056
USER: genes 13 Torsion [C]-CA--N-[C] |==|  0.81890
USER: genes 14 Torsion [N]-C--CA-[N] |==|  0.89279
USER: genes 15 Torsion [C]-CA--CB-[CG2] |==|  0.84362
USER: genes 16 Torsion [C]-CA--N-[H1] |==|  0.65360
ROOT
ATOM      1  CA  ARG B   3      49.384  32.263   3.343  0.50 45.43 LIG 0.18  C 
ENDROOT
BRANCH 1 2
ATOM      2  CB  ARG B   3      50.766  31.711   3.117  0.50 45.40 LIG 0.04  C 
BRANCH 2 3
ATOM      3  CG  ARG B   3      51.326  32.221   1.833  0.50 45.00 LIG 0.02  C 
BRANCH 3 4
ATOM      4  CD  ARG B   3      52.111  33.466   2.036  0.50 44.41 LIG 0.14  C 
BRANCH 4 5
ATOM      5  NE  ARG B   3      52.815  33.386   3.303  0.50 44.18 LIG-0.23  N 
ATOM      6  CZ  ARG B   3      53.073  34.428   4.068  0.50 43.75 LIG 0.67  C 
ATOM      7  NH1 ARG B   3      53.730  34.265   5.200  0.50 44.03 LIG-0.23  N 
ATOM      8  NH2 ARG B   3      52.673  35.637   3.705  0.50 43.85 LIG-0.23  N 
ATOM      9 12HH ARG B   3      53.899  34.944   5.701  0.50 44.03 LIG 0.17  HD
ATOM     10 11HH ARG B   3      53.989  33.480   5.437  0.50 44.03 LIG 0.17  HD
ATOM     11 22HH ARG B   3      52.843  36.315   4.206  0.50 43.85 LIG 0.17  HD
ATOM     12 21HH ARG B   3      52.243  35.745   2.968  0.50 43.85 LIG 0.17  HD
ATOM     13 HE   ARG B   3      53.080  32.613   3.571  0.50 44.18 LIG 0.18  HD
ENDBRANCH 4 5
ENDBRANCH 3 4
ENDBRANCH 2 3
ENDBRANCH 1 2
BRANCH 1 14
ATOM     14  C   ARG B   3      48.346  31.168   3.187  0.50 45.62 LIG 0.24  C 
ATOM     15  N   SER B   4      47.365  31.209   4.082  0.50 45.72 LIG-0.34  N 
ATOM     16 H    SER B   4      47.279  31.832   4.669  0.50 45.72 LIG 0.16  HD
ATOM     17 O    ARG B   3      48.417  30.330   2.287  0.50 45.72 LIG-0.27  OA
BRANCH 15 18
ATOM     18  CA  SER B   4      46.335  30.186   4.142  0.50 45.84 LIG 0.21  C 
BRANCH 18 19
ATOM     19  C   SER B   4      45.033  30.705   4.740  0.50 45.90 LIG 0.20  C 
ATOM     20 O    SER B   4      44.842  30.681   5.957  0.50 45.95 LIG-0.65  OA
ATOM     21 OXT  SER B   4      44.139  31.154   4.025  0.50 46.05 LIG-0.65  OA
ENDBRANCH 18 19
BRANCH 18 22
ATOM     22  CB  SER B   4      46.853  29.009   4.963  0.50 45.85 LIG 0.20  C 
BRANCH 22 23
ATOM     23 OG   SER B   4      47.475  29.457   6.156  0.50 45.98 LIG-0.40  OA
ATOM     24 HG   SER B   4      46.944  29.950   6.580  0.50 45.98 LIG 0.21  HD
ENDBRANCH 22 23
ENDBRANCH 18 22
ENDBRANCH 15 18
ENDBRANCH 1 14
BRANCH 1 25
ATOM     25  N   ARG B   3      49.269  33.039   4.573  0.50 45.48 LIG-0.35  N 
ATOM     26 H    ARG B   3      49.098  33.877   4.482  0.50 45.48 LIG 0.16  HD
ATOM     27  C   ALA B   2      49.437  32.393   5.721  0.50 45.44 LIG 0.24  C 
ATOM     28 O    ALA B   2      49.572  31.174   5.751  0.50 45.54 LIG-0.27  OA
BRANCH 27 29
ATOM     29  CA  ALA B   2      49.453  33.176   7.022  0.50 45.45 LIG 0.17  C 
ATOM     30  CB  ALA B   2      50.694  33.980   7.136  0.50 45.48 LIG 0.04  C 
BRANCH 29 31
ATOM     31  N   ALA B   2      49.481  32.165   8.046  0.50 45.47 LIG-0.35  N 
ATOM     32 H    ALA B   2      50.206  32.166   8.509  0.50 45.47 LIG 0.16  HD
ATOM     33  C   VAL B   1      48.494  31.313   8.260  0.50 45.44 LIG 0.25  C 
ATOM     34 O    VAL B   1      47.363  31.453   7.797  0.50 45.56 LIG-0.27  OA
BRANCH 33 35
ATOM     35  CA  VAL B   1      48.823  30.220   9.263  0.50 45.37 LIG 0.28  C 
BRANCH 35 36
ATOM     36  CB  VAL B   1      48.556  30.691  10.709  0.50 45.32 LIG 0.02  C 
ATOM     37  CG2 VAL B   1      49.336  31.973  11.042  0.50 45.23 LIG 0.01  C 
ATOM     38  CG1 VAL B   1      48.859  29.572  11.671  0.50 45.24 LIG 0.01  C 
ENDBRANCH 35 36
BRANCH 35 39
ATOM     39  N   VAL B   1      50.230  29.766   9.085  0.50 45.40 LIG-0.07  N 
ATOM     40 H3   VAL B   1      50.701  29.966   9.813  0.50 45.40 LIG 0.28  HD
ATOM     41 H1   VAL B   1      50.243  28.885   8.956  0.50 45.40 LIG 0.28  HD
ATOM     42 H2   VAL B   1      50.587  30.174   8.380  0.50 45.40 LIG 0.28  HD
ENDBRANCH 35 39
ENDBRANCH 33 35
ENDBRANCH 29 31
ENDBRANCH 27 29
ENDBRANCH 1 25
TORSDOF 15
ENDMDL
