MODEL 1
USER: ADFR SOLUTION from run 84
USER: SCORE 18.706701 LL:  -2.224 LR: -18.425 RR:   0.000 FEB: -11.564
USER: RMSD 11.056202
USER: SEED 83
USER: STATUS no improvement in best 6 clusters for 5 generations
USER: GENES 25
USER: genes 0 Translation |==|  0.73733 0.62657 0.43729
USER: genes 1 Rotation |==|  0.37022 0.16472 0.56946 0.84047
USER: genes 2 Torsion [C]-CA--N-[C] |==|  0.67341
USER: genes 3 Torsion [N]-C--CA-[N] |==|  0.09774
USER: genes 4 Torsion [C]-CA--CB-[CG] |==|  0.28271
USER: genes 5 Torsion [CA]-CB--CG-[CD1] |==|  0.35107
USER: genes 6 Torsion [C]-CA--N-[C] |==|  0.17778
USER: genes 7 Torsion [N]-C--CA-[N] |==|  0.21022
USER: genes 8 Torsion [C]-CA--CB-[CG] |==|  0.15157
USER: genes 9 Torsion [CA]-CB--CG-[CD2] |==|  0.27128
USER: genes 10 Torsion [C]-CA--N-[H2] |==|  0.62437
USER: genes 11 Torsion [N]-CA--CB-[OG] |==|  0.97147
USER: genes 12 Torsion [CA]-CB--OG-[HG] |==|  0.26166
USER: genes 13 Torsion [N]-CA--C-[N] |==|  0.67613
USER: genes 14 Torsion [C]-N--CA-[CB] |==|  0.27207
USER: genes 15 Torsion [N]-CA--CB-[CG2] |==|  0.65756
USER: genes 16 Torsion [CA]-CB--OG1-[HG1] |==|  0.19113
USER: genes 17 Torsion [N]-CA--C-[N] |==|  0.34287
USER: genes 18 Torsion [C]-N--CA-[C] |==|  0.46131
USER: genes 19 Torsion [N]-CA--C-[O] |==|  0.97012
USER: genes 20 Torsion [N]-CA--CB-[CG] |==|  0.32954
USER: genes 21 Torsion [CA]-CB--CG-[CD] |==|  0.52366
USER: genes 22 Torsion [CB]-CG--CD-[CE] |==|  0.03777
USER: genes 23 Torsion [CG]-CD--CE-[NZ] |==|  0.33040
USER: genes 24 Torsion [CD]-CE--NZ-[HZ2] |==|  0.29963
ROOT
ATOM      1  CA  SER I   3      53.150  35.617   7.889  0.30 32.02 LIG 0.20  C 
ENDROOT
BRANCH 1 2
ATOM      2  N   SER I   3      52.442  35.981   6.665  0.30 32.24 LIG-0.34  N 
ATOM      3 H    SER I   3      52.915  36.249   5.999  0.30 32.24 LIG 0.16  HD
ATOM      4  C   LEU I   2      51.133  35.859   6.714  0.30 32.50 LIG 0.24  C 
ATOM      5 O    LEU I   2      50.559  35.480   7.732  0.30 32.61 LIG-0.27  OA
BRANCH 4 6
ATOM      6  CA  LEU I   2      50.326  36.180   5.495  0.30 32.74 LIG 0.18  C 
BRANCH 6 7
ATOM      7  CB  LEU I   2      48.955  35.495   5.520  0.30 32.79 LIG 0.04  C 
BRANCH 7 8
ATOM      8  CG  LEU I   2      47.774  36.412   5.918  0.30 32.97 LIG-0.02  C 
ATOM      9  CD1 LEU I   2      46.681  36.349   4.866  0.30 33.23 LIG 0.01  C 
ATOM     10  CD2 LEU I   2      47.218  36.037   7.284  0.30 33.13 LIG 0.01  C 
ENDBRANCH 7 8
ENDBRANCH 6 7
BRANCH 6 11
ATOM     11  N   LEU I   2      51.295  35.691   4.558  0.30 32.86 LIG-0.35  N 
ATOM     12  C   PHE I   1      51.643  34.428   4.508  0.30 33.00 LIG 0.25  C 
ATOM     13 O    PHE I   1      51.347  33.621   5.386  0.30 33.06 LIG-0.27  OA
ATOM     14 H    LEU I   2      51.620  36.295   4.040  0.30 32.86 LIG 0.16  HD
BRANCH 12 15
ATOM     15  CA  PHE I   1      52.460  33.997   3.295  0.30 33.09 LIG 0.28  C 
BRANCH 15 16
ATOM     16  CB  PHE I   1      52.419  32.500   3.093  0.30 33.12 LIG 0.08  C 
BRANCH 16 17
ATOM     17  CG  PHE I   1      51.059  31.848   2.990  0.30 33.22 LIG-0.06  A 
ATOM     18  CD1 PHE I   1      50.272  31.486   4.095  0.30 33.33 LIG 0.01  A 
ATOM     19  CE1 PHE I   1      49.010  30.924   3.892  0.30 33.39 LIG 0.00  A 
ATOM     20  CZ  PHE I   1      48.544  30.717   2.611  0.30 33.40 LIG 0.00  A 
ATOM     21  CE2 PHE I   1      49.322  31.038   1.523  0.30 33.33 LIG 0.00  A 
ATOM     22  CD2 PHE I   1      50.561  31.586   1.720  0.30 33.29 LIG 0.01  A 
ENDBRANCH 16 17
ENDBRANCH 15 16
BRANCH 15 23
ATOM     23  N   PHE I   1      53.844  34.446   3.409  0.30 33.12 LIG-0.07  N 
ATOM     24 H2   PHE I   1      54.110  34.790   2.633  0.30 33.12 LIG 0.28  HD
ATOM     25 H1   PHE I   1      54.364  33.754   3.620  0.30 33.12 LIG 0.28  HD
ATOM     26 H3   PHE I   1      53.904  35.066   4.044  0.30 33.12 LIG 0.28  HD
ENDBRANCH 15 23
ENDBRANCH 12 15
ENDBRANCH 6 11
ENDBRANCH 4 6
ENDBRANCH 1 2
BRANCH 1 27
ATOM     27  CB  SER I   3      54.115  34.464   7.600  0.30 32.04 LIG 0.20  C 
BRANCH 27 28
ATOM     28 OG   SER I   3      53.889  33.922   6.313  0.30 32.08 LIG-0.40  OA
ATOM     29 HG   SER I   3      54.405  34.288   5.760  0.30 32.08 LIG 0.21  HD
ENDBRANCH 27 28
ENDBRANCH 1 27
BRANCH 1 30
ATOM     30  C   SER I   3      53.917  36.743   8.536  0.30 31.77 LIG 0.24  C 
ATOM     31  N   THR I   4      55.230  36.672   8.639  0.30 31.46 LIG-0.34  N 
ATOM     32 H    THR I   4      55.748  36.066   8.317  0.30 31.46 LIG 0.16  HD
ATOM     33 O    SER I   3      53.293  37.712   8.953  0.30 31.84 LIG-0.27  OA
BRANCH 31 34
ATOM     34  CA  THR I   4      55.841  37.744   9.382  0.30 31.16 LIG 0.20  C 
BRANCH 34 35
ATOM     35  CB  THR I   4      56.100  37.288  10.811  0.30 31.16 LIG 0.15  C 
ATOM     36  CG2 THR I   4      55.423  38.212  11.807  0.30 31.01 LIG 0.04  C 
BRANCH 35 37
ATOM     37 OG1  THR I   4      55.613  35.951  10.980  0.30 31.22 LIG-0.39  OA
ATOM     38 HG1  THR I   4      56.090  35.421  10.536  0.30 31.22 LIG 0.21  HD
ENDBRANCH 35 37
ENDBRANCH 34 35
BRANCH 34 39
ATOM     39  C   THR I   4      57.123  38.286   8.774  0.30 30.90 LIG 0.24  C 
ATOM     40  N   LYS I   5      57.123  39.574   8.521  0.30 30.59 LIG-0.35  N 
ATOM     41 H    LYS I   5      56.444  40.100   8.556  0.30 30.59 LIG 0.16  HD
ATOM     42 O    THR I   4      58.084  37.553   8.551  0.30 30.97 LIG-0.27  OA
BRANCH 40 43
ATOM     43  CA  LYS I   5      58.368  40.160   8.151  0.30 30.26 LIG 0.16  C 
BRANCH 43 44
ATOM     44  C   LYS I   5      58.012  41.525   7.589  0.30 30.28 LIG 0.22  C 
ATOM     45 O    LYS I   5      56.848  41.830   7.349  0.30 30.24 LIG-0.29  OA
ENDBRANCH 43 44
BRANCH 43 46
ATOM     46  CB  LYS I   5      59.106  39.383   7.083  0.30 30.11 LIG 0.03  C 
BRANCH 46 47
ATOM     47  CG  LYS I   5      59.331  40.170   5.807  0.30 29.43 LIG 0.00  C 
BRANCH 47 48
ATOM     48  CD  LYS I   5      59.881  39.285   4.715  0.30 28.58 LIG 0.03  C 
BRANCH 48 49
ATOM     49  CE  LYS I   5      59.734  37.821   5.098  0.30 28.11 LIG 0.23  C 
BRANCH 49 50
ATOM     50  NZ  LYS I   5      58.880  37.070   4.145  0.30 27.97 LIG-0.08  N 
ATOM     51 HZ1  LYS I   5      58.458  37.642   3.610  0.30 27.97 LIG 0.27  HD
ATOM     52 HZ2  LYS I   5      59.388  36.527   3.656  0.30 27.97 LIG 0.27  HD
ATOM     53 HZ3  LYS I   5      58.282  36.591   4.597  0.30 27.97 LIG 0.27  HD
ENDBRANCH 49 50
ENDBRANCH 48 49
ENDBRANCH 47 48
ENDBRANCH 46 47
ENDBRANCH 43 46
ENDBRANCH 40 43
ENDBRANCH 34 39
ENDBRANCH 31 34
ENDBRANCH 1 30
TORSDOF 23
ENDMDL
MODEL 2
USER: ADFR SOLUTION from run 149
USER: SCORE 19.322003 LL:  -3.368 LR: -17.849 RR:   0.000 FEB: -10.988
USER: RMSD 11.262345
USER: SEED 148
USER: STATUS no improvement in best 1 clusters for 5 generations
USER: GENES 25
USER: genes 0 Translation |==|  0.73940 0.67026 0.43114
USER: genes 1 Rotation |==|  0.26565 0.24291 0.73191 0.77424
USER: genes 2 Torsion [C]-CA--N-[C] |==|  0.67290
USER: genes 3 Torsion [N]-C--CA-[N] |==|  0.04732
USER: genes 4 Torsion [C]-CA--CB-[CG] |==|  0.78607
USER: genes 5 Torsion [CA]-CB--CG-[CD1] |==|  0.28155
USER: genes 6 Torsion [C]-CA--N-[C] |==|  0.62429
USER: genes 7 Torsion [N]-C--CA-[N] |==|  0.91700
USER: genes 8 Torsion [C]-CA--CB-[CG] |==|  0.09940
USER: genes 9 Torsion [CA]-CB--CG-[CD2] |==|  0.77085
USER: genes 10 Torsion [C]-CA--N-[H2] |==|  0.95850
USER: genes 11 Torsion [N]-CA--CB-[OG] |==|  0.86521
USER: genes 12 Torsion [CA]-CB--OG-[HG] |==|  0.70818
USER: genes 13 Torsion [N]-CA--C-[N] |==|  0.56071
USER: genes 14 Torsion [C]-N--CA-[CB] |==|  0.22920
USER: genes 15 Torsion [N]-CA--CB-[CG2] |==|  0.30672
USER: genes 16 Torsion [CA]-CB--OG1-[HG1] |==|  0.99795
USER: genes 17 Torsion [N]-CA--C-[N] |==|  0.43965
USER: genes 18 Torsion [C]-N--CA-[C] |==|  0.55911
USER: genes 19 Torsion [N]-CA--C-[O] |==|  0.00335
USER: genes 20 Torsion [N]-CA--CB-[CG] |==|  0.05268
USER: genes 21 Torsion [CA]-CB--CG-[CD] |==|  0.62079
USER: genes 22 Torsion [CB]-CG--CD-[CE] |==|  0.13805
USER: genes 23 Torsion [CG]-CD--CE-[NZ] |==|  0.29385
USER: genes 24 Torsion [CD]-CE--NZ-[HZ2] |==|  0.02560
ROOT
ATOM      1  CA  SER I   3      53.212  36.928   7.704  0.30 32.02 LIG 0.20  C 
ENDROOT
BRANCH 1 2
ATOM      2  N   SER I   3      52.354  36.199   6.775  0.30 32.24 LIG-0.34  N 
ATOM      3 H    SER I   3      52.719  35.888   6.061  0.30 32.24 LIG 0.16  HD
ATOM      4  C   LEU I   2      51.094  36.095   7.136  0.30 32.50 LIG 0.24  C 
ATOM      5 O    LEU I   2      50.677  36.596   8.178  0.30 32.61 LIG-0.27  OA
BRANCH 4 6
ATOM      6  CA  LEU I   2      50.146  35.336   6.259  0.30 32.74 LIG 0.18  C 
BRANCH 6 7
ATOM      7  CB  LEU I   2      49.173  34.479   7.077  0.30 32.79 LIG 0.04  C 
BRANCH 7 8
ATOM      8  CG  LEU I   2      49.773  33.171   7.644  0.30 32.97 LIG-0.02  C 
ATOM      9  CD1 LEU I   2      50.109  33.340   9.115  0.30 33.23 LIG 0.01  C 
ATOM     10  CD2 LEU I   2      48.825  31.997   7.448  0.30 33.13 LIG 0.01  C 
ENDBRANCH 7 8
ENDBRANCH 6 7
BRANCH 6 11
ATOM     11  N   LEU I   2      51.165  34.655   5.515  0.30 32.86 LIG-0.35  N 
ATOM     12  C   PHE I   1      51.120  34.541   4.210  0.30 33.00 LIG 0.25  C 
ATOM     13 O    PHE I   1      50.114  34.802   3.554  0.30 33.06 LIG-0.27  OA
ATOM     14 H    LEU I   2      51.798  34.334   5.999  0.30 32.86 LIG 0.16  HD
BRANCH 12 15
ATOM     15  CA  PHE I   1      52.390  34.049   3.528  0.30 33.09 LIG 0.28  C 
BRANCH 15 16
ATOM     16  CB  PHE I   1      52.381  32.550   3.334  0.30 33.12 LIG 0.08  C 
BRANCH 16 17
ATOM     17  CG  PHE I   1      51.056  31.898   3.013  0.30 33.22 LIG-0.06  A 
ATOM     18  CD1 PHE I   1      50.631  31.571   1.716  0.30 33.33 LIG 0.01  A 
ATOM     19  CE1 PHE I   1      49.402  30.934   1.530  0.30 33.39 LIG 0.00  A 
ATOM     20  CZ  PHE I   1      48.607  30.635   2.617  0.30 33.40 LIG 0.00  A 
ATOM     21  CE2 PHE I   1      49.001  30.981   3.888  0.30 33.33 LIG 0.00  A 
ATOM     22  CD2 PHE I   1      50.204  31.609   4.072  0.30 33.29 LIG 0.01  A 
ENDBRANCH 16 17
ENDBRANCH 15 16
BRANCH 15 23
ATOM     23  N   PHE I   1      53.577  34.445   4.280  0.30 33.12 LIG-0.07  N 
ATOM     24 H2   PHE I   1      53.359  35.075   4.870  0.30 33.12 LIG 0.28  HD
ATOM     25 H1   PHE I   1      54.191  34.764   3.720  0.30 33.12 LIG 0.28  HD
ATOM     26 H3   PHE I   1      53.906  33.739   4.710  0.30 33.12 LIG 0.28  HD
ENDBRANCH 15 23
ENDBRANCH 12 15
ENDBRANCH 6 11
ENDBRANCH 4 6
ENDBRANCH 1 2
BRANCH 1 27
ATOM     27  CB  SER I   3      54.329  36.007   8.203  0.30 32.04 LIG 0.20  C 
BRANCH 27 28
ATOM     28 OG   SER I   3      53.808  34.763   8.632  0.30 32.08 LIG-0.40  OA
ATOM     29 HG   SER I   3      53.810  34.734   9.471  0.30 32.08 LIG 0.21  HD
ENDBRANCH 27 28
ENDBRANCH 1 27
BRANCH 1 30
ATOM     30  C   SER I   3      53.832  38.183   7.143  0.30 31.77 LIG 0.24  C 
ATOM     31  N   THR I   4      54.923  38.682   7.691  0.30 31.46 LIG-0.34  N 
ATOM     32 H    THR I   4      55.394  38.339   8.323  0.30 31.46 LIG 0.16  HD
ATOM     33 O    SER I   3      53.300  38.715   6.176  0.30 31.84 LIG-0.27  OA
BRANCH 31 34
ATOM     34  CA  THR I   4      55.352  39.945   7.151  0.30 31.16 LIG 0.20  C 
BRANCH 34 35
ATOM     35  CB  THR I   4      54.564  41.071   7.805  0.30 31.16 LIG 0.15  C 
ATOM     36  CG2 THR I   4      55.453  41.897   8.718  0.30 31.01 LIG 0.04  C 
BRANCH 35 37
ATOM     37 OG1  THR I   4      53.999  41.909   6.789  0.30 31.22 LIG-0.39  OA
ATOM     38 HG1  THR I   4      54.222  41.621   6.033  0.30 31.22 LIG 0.21  HD
ENDBRANCH 35 37
ENDBRANCH 34 35
BRANCH 34 39
ATOM     39  C   THR I   4      56.841  40.217   7.281  0.30 30.90 LIG 0.24  C 
ATOM     40  N   LYS I   5      57.325  41.101   6.440  0.30 30.59 LIG-0.35  N 
ATOM     41 H    LYS I   5      56.914  41.442   5.766  0.30 30.59 LIG 0.16  HD
ATOM     42 O    THR I   4      57.524  39.644   8.126  0.30 30.97 LIG-0.27  OA
BRANCH 40 43
ATOM     43  CA  LYS I   5      58.663  41.541   6.662  0.30 30.26 LIG 0.16  C 
BRANCH 43 44
ATOM     44  C   LYS I   5      58.766  42.874   5.943  0.30 30.28 LIG 0.22  C 
ATOM     45 O    LYS I   5      57.803  43.357   5.356  0.30 30.24 LIG-0.29  OA
ENDBRANCH 43 44
BRANCH 43 46
ATOM     46  CB  LYS I   5      59.706  40.608   6.088  0.30 30.11 LIG 0.03  C 
BRANCH 46 47
ATOM     47  CG  LYS I   5      59.164  39.668   5.029  0.30 29.43 LIG 0.00  C 
BRANCH 47 48
ATOM     48  CD  LYS I   5      59.692  38.269   5.225  0.30 28.58 LIG 0.03  C 
BRANCH 48 49
ATOM     49  CE  LYS I   5      59.506  37.831   6.669  0.30 28.11 LIG 0.23  C 
BRANCH 49 50
ATOM     50  NZ  LYS I   5      58.405  36.849   6.825  0.30 27.97 LIG-0.08  N 
ATOM     51 HZ1  LYS I   5      57.728  37.228   7.261  0.30 27.97 LIG 0.27  HD
ATOM     52 HZ2  LYS I   5      58.128  36.584   6.022  0.30 27.97 LIG 0.27  HD
ATOM     53 HZ3  LYS I   5      58.698  36.146   7.285  0.30 27.97 LIG 0.27  HD
ENDBRANCH 49 50
ENDBRANCH 48 49
ENDBRANCH 47 48
ENDBRANCH 46 47
ENDBRANCH 43 46
ENDBRANCH 40 43
ENDBRANCH 34 39
ENDBRANCH 31 34
ENDBRANCH 1 30
TORSDOF 23
ENDMDL
MODEL 3
USER: ADFR SOLUTION from run 112
USER: SCORE 19.198163 LL:  -3.678 LR: -17.733 RR:   0.000 FEB: -10.872
USER: RMSD 10.191904
USER: SEED 111
USER: STATUS no improvement in best 3 clusters for 5 generations
USER: GENES 25
USER: genes 0 Translation |==|  0.71209 0.58298 0.45951
USER: genes 1 Rotation |==|  0.65713 0.15373 0.61395 0.80400
USER: genes 2 Torsion [C]-CA--N-[C] |==|  0.16959
USER: genes 3 Torsion [N]-C--CA-[N] |==|  0.82779
USER: genes 4 Torsion [C]-CA--CB-[CG] |==|  0.44028
USER: genes 5 Torsion [CA]-CB--CG-[CD1] |==|  0.79329
USER: genes 6 Torsion [C]-CA--N-[C] |==|  0.79995
USER: genes 7 Torsion [N]-C--CA-[N] |==|  0.57827
USER: genes 8 Torsion [C]-CA--CB-[CG] |==|  0.27393
USER: genes 9 Torsion [CA]-CB--CG-[CD2] |==|  0.19395
USER: genes 10 Torsion [C]-CA--N-[H2] |==|  0.23564
USER: genes 11 Torsion [N]-CA--CB-[OG] |==|  0.89125
USER: genes 12 Torsion [CA]-CB--OG-[HG] |==|  0.45676
USER: genes 13 Torsion [N]-CA--C-[N] |==|  0.51079
USER: genes 14 Torsion [C]-N--CA-[CB] |==|  0.20054
USER: genes 15 Torsion [N]-CA--CB-[CG2] |==|  0.39563
USER: genes 16 Torsion [CA]-CB--OG1-[HG1] |==|  0.07363
USER: genes 17 Torsion [N]-CA--C-[N] |==|  0.91592
USER: genes 18 Torsion [C]-N--CA-[C] |==|  0.78894
USER: genes 19 Torsion [N]-CA--C-[O] |==|  0.89571
USER: genes 20 Torsion [N]-CA--CB-[CG] |==|  0.45090
USER: genes 21 Torsion [CA]-CB--CG-[CD] |==|  0.58296
USER: genes 22 Torsion [CB]-CG--CD-[CE] |==|  0.96271
USER: genes 23 Torsion [CG]-CD--CE-[NZ] |==|  0.62889
USER: genes 24 Torsion [CD]-CE--NZ-[HZ2] |==|  0.17103
ROOT
ATOM      1  CA  SER I   3      52.393  34.309   8.555  0.30 32.02 LIG 0.20  C 
ENDROOT
BRANCH 1 2
ATOM      2  N   SER I   3      51.284  34.483   7.622  0.30 32.24 LIG-0.34  N 
ATOM      3 H    SER I   3      50.858  33.777   7.378  0.30 32.24 LIG 0.16  HD
ATOM      4  C   LEU I   2      51.051  35.722   7.249  0.30 32.50 LIG 0.24  C 
ATOM      5 O    LEU I   2      51.738  36.658   7.653  0.30 32.61 LIG-0.27  OA
BRANCH 4 6
ATOM      6  CA  LEU I   2      49.912  36.000   6.317  0.30 32.74 LIG 0.18  C 
BRANCH 6 7
ATOM      7  CB  LEU I   2      48.567  35.576   6.917  0.30 32.79 LIG 0.04  C 
BRANCH 7 8
ATOM      8  CG  LEU I   2      47.329  36.268   6.299  0.30 32.97 LIG-0.02  C 
ATOM      9  CD1 LEU I   2      47.234  37.705   6.783  0.30 33.23 LIG 0.01  C 
ATOM     10  CD2 LEU I   2      47.371  36.223   4.779  0.30 33.13 LIG 0.01  C 
ENDBRANCH 7 8
ENDBRANCH 6 7
BRANCH 6 11
ATOM     11  N   LEU I   2      50.430  35.220   5.232  0.30 32.86 LIG-0.35  N 
ATOM     12  C   PHE I   1      51.464  35.605   4.525  0.30 33.00 LIG 0.25  C 
ATOM     13 O    PHE I   1      51.922  36.744   4.582  0.30 33.06 LIG-0.27  OA
ATOM     14 H    LEU I   2      50.005  34.486   5.092  0.30 32.86 LIG 0.16  HD
BRANCH 12 15
ATOM     15  CA  PHE I   1      52.079  34.563   3.598  0.30 33.09 LIG 0.28  C 
BRANCH 15 16
ATOM     16  CB  PHE I   1      51.880  33.159   4.120  0.30 33.12 LIG 0.08  C 
BRANCH 16 17
ATOM     17  CG  PHE I   1      50.742  32.354   3.536  0.30 33.22 LIG-0.06  A 
ATOM     18  CD1 PHE I   1      49.582  32.001   4.242  0.30 33.33 LIG 0.01  A 
ATOM     19  CE1 PHE I   1      48.569  31.287   3.598  0.30 33.39 LIG 0.00  A 
ATOM     20  CZ  PHE I   1      48.714  30.922   2.276  0.30 33.40 LIG 0.00  A 
ATOM     21  CE2 PHE I   1      49.862  31.235   1.586  0.30 33.33 LIG 0.00  A 
ATOM     22  CD2 PHE I   1      50.857  31.932   2.217  0.30 33.29 LIG 0.01  A 
ENDBRANCH 16 17
ENDBRANCH 15 16
BRANCH 15 23
ATOM     23  N   PHE I   1      53.501  34.820   3.391  0.30 33.12 LIG-0.07  N 
ATOM     24 H2   PHE I   1      53.969  34.454   4.054  0.30 33.12 LIG 0.28  HD
ATOM     25 H1   PHE I   1      53.645  35.698   3.377  0.30 33.12 LIG 0.28  HD
ATOM     26 H3   PHE I   1      53.757  34.465   2.617  0.30 33.12 LIG 0.28  HD
ENDBRANCH 15 23
ENDBRANCH 12 15
ENDBRANCH 6 11
ENDBRANCH 4 6
ENDBRANCH 1 2
BRANCH 1 27
ATOM     27  CB  SER I   3      53.695  34.778   7.900  0.30 32.04 LIG 0.20  C 
BRANCH 27 28
ATOM     28 OG   SER I   3      53.739  34.405   6.536  0.30 32.08 LIG-0.40  OA
ATOM     29 HG   SER I   3      54.341  34.842   6.145  0.30 32.08 LIG 0.21  HD
ENDBRANCH 27 28
ENDBRANCH 1 27
BRANCH 1 30
ATOM     30  C   SER I   3      52.229  35.023   9.874  0.30 31.77 LIG 0.24  C 
ATOM     31  N   THR I   4      53.203  34.999  10.763  0.30 31.46 LIG-0.34  N 
ATOM     32 H    THR I   4      53.989  34.664  10.667  0.30 31.46 LIG 0.16  HD
ATOM     33 O    SER I   3      51.180  35.620  10.089  0.30 31.84 LIG-0.27  OA
BRANCH 31 34
ATOM     34  CA  THR I   4      52.888  35.608  12.028  0.30 31.16 LIG 0.20  C 
BRANCH 34 35
ATOM     35  CB  THR I   4      51.919  34.717  12.793  0.30 31.16 LIG 0.15  C 
ATOM     36  CG2 THR I   4      52.233  34.725  14.279  0.30 31.01 LIG 0.04  C 
BRANCH 35 37
ATOM     37 OG1  THR I   4      50.579  35.175  12.578  0.30 31.22 LIG-0.39  OA
ATOM     38 HG1  THR I   4      50.534  35.571  11.839  0.30 31.22 LIG 0.21  HD
ENDBRANCH 35 37
ENDBRANCH 34 35
BRANCH 34 39
ATOM     39  C   THR I   4      54.093  35.924  12.898  0.30 30.90 LIG 0.24  C 
ATOM     40  N   LYS I   5      55.119  35.120  12.748  0.30 30.59 LIG-0.35  N 
ATOM     41 H    LYS I   5      55.129  34.384  12.304  0.30 30.59 LIG 0.16  HD
ATOM     42 O    THR I   4      54.088  36.876  13.674  0.30 30.97 LIG-0.27  OA
BRANCH 40 43
ATOM     43  CA  LYS I   5      56.337  35.500  13.382  0.30 30.26 LIG 0.16  C 
BRANCH 43 44
ATOM     44  C   LYS I   5      56.906  36.609  12.515  0.30 30.28 LIG 0.22  C 
ATOM     45 O    LYS I   5      56.808  36.575  11.293  0.30 30.24 LIG-0.29  OA
ENDBRANCH 43 44
BRANCH 43 46
ATOM     46  CB  LYS I   5      57.354  34.382  13.452  0.30 30.11 LIG 0.03  C 
BRANCH 46 47
ATOM     47  CG  LYS I   5      58.766  34.862  13.722  0.30 29.43 LIG 0.00  C 
BRANCH 47 48
ATOM     48  CD  LYS I   5      59.782  33.939  13.096  0.30 28.58 LIG 0.03  C 
BRANCH 48 49
ATOM     49  CE  LYS I   5      59.120  32.638  12.668  0.30 28.11 LIG 0.23  C 
BRANCH 49 50
ATOM     50  NZ  LYS I   5      59.898  31.445  13.080  0.30 27.97 LIG-0.08  N 
ATOM     51 HZ1  LYS I   5      60.715  31.487  12.730  0.30 27.97 LIG 0.27  HD
ATOM     52 HZ2  LYS I   5      59.958  31.422  13.968  0.30 27.97 LIG 0.27  HD
ATOM     53 HZ3  LYS I   5      59.489  30.709  12.791  0.30 27.97 LIG 0.27  HD
ENDBRANCH 49 50
ENDBRANCH 48 49
ENDBRANCH 47 48
ENDBRANCH 46 47
ENDBRANCH 43 46
ENDBRANCH 40 43
ENDBRANCH 34 39
ENDBRANCH 31 34
ENDBRANCH 1 30
TORSDOF 23
ENDMDL
MODEL 4
USER: ADFR SOLUTION from run 79
USER: SCORE 19.175284 LL:  -2.934 LR: -17.723 RR:   0.000 FEB: -10.862
USER: RMSD 9.044718
USER: SEED 78
USER: STATUS searching
USER: GENES 25
USER: genes 0 Translation |==|  0.57348 0.53170 0.42400
USER: genes 1 Rotation |==|  0.35355 0.17013 0.30505 0.78589
USER: genes 2 Torsion [C]-CA--N-[C] |==|  0.85556
USER: genes 3 Torsion [N]-C--CA-[N] |==|  0.96501
USER: genes 4 Torsion [C]-CA--CB-[CG] |==|  0.82653
USER: genes 5 Torsion [CA]-CB--CG-[CD1] |==|  0.50711
USER: genes 6 Torsion [C]-CA--N-[C] |==|  0.64581
USER: genes 7 Torsion [N]-C--CA-[N] |==|  0.50504
USER: genes 8 Torsion [C]-CA--CB-[CG] |==|  0.34049
USER: genes 9 Torsion [CA]-CB--CG-[CD2] |==|  0.25794
USER: genes 10 Torsion [C]-CA--N-[H2] |==|  0.37442
USER: genes 11 Torsion [N]-CA--CB-[OG] |==|  0.35819
USER: genes 12 Torsion [CA]-CB--OG-[HG] |==|  0.88143
USER: genes 13 Torsion [N]-CA--C-[N] |==|  0.35599
USER: genes 14 Torsion [C]-N--CA-[CB] |==|  0.80119
USER: genes 15 Torsion [N]-CA--CB-[CG2] |==|  0.64604
USER: genes 16 Torsion [CA]-CB--OG1-[HG1] |==|  0.24850
USER: genes 17 Torsion [N]-CA--C-[N] |==|  0.74288
USER: genes 18 Torsion [C]-N--CA-[C] |==|  0.15103
USER: genes 19 Torsion [N]-CA--C-[O] |==|  0.67025
USER: genes 20 Torsion [N]-CA--CB-[CG] |==|  0.75590
USER: genes 21 Torsion [CA]-CB--CG-[CD] |==|  0.93132
USER: genes 22 Torsion [CB]-CG--CD-[CE] |==|  0.52156
USER: genes 23 Torsion [CG]-CD--CE-[NZ] |==|  0.41702
USER: genes 24 Torsion [CD]-CE--NZ-[HZ2] |==|  0.15466
ROOT
ATOM      1  CA  SER I   3      48.234  32.771   7.490  0.30 32.02 LIG 0.20  C 
ENDROOT
BRANCH 1 2
ATOM      2  N   SER I   3      48.673  33.948   6.747  0.30 32.24 LIG-0.34  N 
ATOM      3 H    SER I   3      48.916  33.833   5.930  0.30 32.24 LIG 0.16  HD
ATOM      4  C   LEU I   2      48.650  35.079   7.418  0.30 32.50 LIG 0.24  C 
ATOM      5 O    LEU I   2      48.297  35.124   8.594  0.30 32.61 LIG-0.27  OA
BRANCH 4 6
ATOM      6  CA  LEU I   2      49.053  36.344   6.726  0.30 32.74 LIG 0.18  C 
BRANCH 6 7
ATOM      7  CB  LEU I   2      47.857  37.275   6.495  0.30 32.79 LIG 0.04  C 
BRANCH 7 8
ATOM      8  CG  LEU I   2      46.752  36.701   5.577  0.30 32.97 LIG-0.02  C 
ATOM      9  CD1 LEU I   2      45.654  37.730   5.370  0.30 33.23 LIG 0.01  C 
ATOM     10  CD2 LEU I   2      47.321  36.255   4.238  0.30 33.13 LIG 0.01  C 
ENDBRANCH 7 8
ENDBRANCH 6 7
BRANCH 6 11
ATOM     11  N   LEU I   2      49.621  35.697   5.580  0.30 32.86 LIG-0.35  N 
ATOM     12  C   PHE I   1      50.836  35.955   5.162  0.30 33.00 LIG 0.25  C 
ATOM     13 O    PHE I   1      51.491  36.913   5.569  0.30 33.06 LIG-0.27  OA
ATOM     14 H    LEU I   2      49.097  35.133   5.199  0.30 32.86 LIG 0.16  HD
BRANCH 12 15
ATOM     15  CA  PHE I   1      51.411  35.005   4.119  0.30 33.09 LIG 0.28  C 
BRANCH 15 16
ATOM     16  CB  PHE I   1      51.370  33.567   4.583  0.30 33.12 LIG 0.08  C 
BRANCH 16 17
ATOM     17  CG  PHE I   1      50.626  32.577   3.716  0.30 33.22 LIG-0.06  A 
ATOM     18  CD1 PHE I   1      49.250  32.317   3.819  0.30 33.33 LIG 0.01  A 
ATOM     19  CE1 PHE I   1      48.650  31.409   2.943  0.30 33.39 LIG 0.00  A 
ATOM     20  CZ  PHE I   1      49.409  30.767   1.987  0.30 33.40 LIG 0.00  A 
ATOM     21  CE2 PHE I   1      50.763  30.992   1.901  0.30 33.33 LIG 0.00  A 
ATOM     22  CD2 PHE I   1      51.353  31.878   2.762  0.30 33.29 LIG 0.01  A 
ENDBRANCH 16 17
ENDBRANCH 15 16
BRANCH 15 23
ATOM     23  N   PHE I   1      52.780  35.375   3.770  0.30 33.12 LIG-0.07  N 
ATOM     24 H2   PHE I   1      53.290  34.646   3.754  0.30 33.12 LIG 0.28  HD
ATOM     25 H1   PHE I   1      53.097  35.945   4.376  0.30 33.12 LIG 0.28  HD
ATOM     26 H3   PHE I   1      52.788  35.760   2.968  0.30 33.12 LIG 0.28  HD
ENDBRANCH 15 23
ENDBRANCH 12 15
ENDBRANCH 6 11
ENDBRANCH 4 6
ENDBRANCH 1 2
BRANCH 1 27
ATOM     27  CB  SER I   3      48.435  31.518   6.634  0.30 32.04 LIG 0.20  C 
BRANCH 27 28
ATOM     28 OG   SER I   3      49.144  30.523   7.348  0.30 32.08 LIG-0.40  OA
ATOM     29 HG   SER I   3      49.778  30.878   7.768  0.30 32.08 LIG 0.21  HD
ENDBRANCH 27 28
ENDBRANCH 1 27
BRANCH 1 30
ATOM     30  C   SER I   3      48.921  32.567   8.818  0.30 31.77 LIG 0.24  C 
ATOM     31  N   THR I   4      48.204  32.387   9.910  0.30 31.46 LIG-0.34  N 
ATOM     32 H    THR I   4      47.351  32.303   9.967  0.30 31.46 LIG 0.16  HD
ATOM     33 O    SER I   3      50.146  32.571   8.848  0.30 31.84 LIG-0.27  OA
BRANCH 31 34
ATOM     34  CA  THR I   4      48.962  32.326  11.132  0.30 31.16 LIG 0.20  C 
BRANCH 34 35
ATOM     35  CB  THR I   4      49.735  31.015  11.185  0.30 31.16 LIG 0.15  C 
ATOM     36  CG2 THR I   4      49.466  30.278  12.485  0.30 31.01 LIG 0.04  C 
BRANCH 35 37
ATOM     37 OG1  THR I   4      49.356  30.194  10.074  0.30 31.22 LIG-0.39  OA
ATOM     38 HG1  THR I   4      49.854  30.361   9.419  0.30 31.22 LIG 0.21  HD
ENDBRANCH 35 37
ENDBRANCH 34 35
BRANCH 34 39
ATOM     39  C   THR I   4      49.912  33.491  11.349  0.30 30.90 LIG 0.24  C 
ATOM     40  N   LYS I   5      51.136  33.306  10.912  0.30 30.59 LIG-0.35  N 
ATOM     41 H    LYS I   5      51.470  32.566  10.631  0.30 30.59 LIG 0.16  HD
ATOM     42 O    THR I   4      49.536  34.529  11.889  0.30 30.97 LIG-0.27  OA
BRANCH 40 43
ATOM     43  CA  LYS I   5      51.998  34.441  10.903  0.30 30.26 LIG 0.16  C 
BRANCH 43 44
ATOM     44  C   LYS I   5      51.962  34.978  12.322  0.30 30.28 LIG 0.22  C 
ATOM     45 O    LYS I   5      51.554  36.109  12.565  0.30 30.24 LIG-0.29  OA
ENDBRANCH 43 44
BRANCH 43 46
ATOM     46  CB  LYS I   5      51.539  35.538   9.967  0.30 30.11 LIG 0.03  C 
BRANCH 46 47
ATOM     47  CG  LYS I   5      52.052  35.380   8.550  0.30 29.43 LIG 0.00  C 
BRANCH 47 48
ATOM     48  CD  LYS I   5      53.325  34.571   8.521  0.30 28.58 LIG 0.03  C 
BRANCH 48 49
ATOM     49  CE  LYS I   5      53.927  34.583   7.125  0.30 28.11 LIG 0.23  C 
BRANCH 49 50
ATOM     50  NZ  LYS I   5      55.405  34.463   7.145  0.30 27.97 LIG-0.08  N 
ATOM     51 HZ1  LYS I   5      55.756  35.176   7.545  0.30 27.97 LIG 0.27  HD
ATOM     52 HZ2  LYS I   5      55.637  33.729   7.592  0.30 27.97 LIG 0.27  HD
ATOM     53 HZ3  LYS I   5      55.710  34.412   6.311  0.30 27.97 LIG 0.27  HD
ENDBRANCH 49 50
ENDBRANCH 48 49
ENDBRANCH 47 48
ENDBRANCH 46 47
ENDBRANCH 43 46
ENDBRANCH 40 43
ENDBRANCH 34 39
ENDBRANCH 31 34
ENDBRANCH 1 30
TORSDOF 23
ENDMDL
MODEL 5
USER: ADFR SOLUTION from run 84
USER: SCORE 19.678082 LL:  -2.627 LR: -17.548 RR:   0.000 FEB: -10.687
USER: RMSD 10.914972
USER: SEED 83
USER: STATUS no improvement in best 6 clusters for 5 generations
USER: GENES 25
USER: genes 0 Translation |==|  0.74114 0.63809 0.43259
USER: genes 1 Rotation |==|  0.31894 0.19048 0.59541 0.83513
USER: genes 2 Torsion [C]-CA--N-[C] |==|  0.68249
USER: genes 3 Torsion [N]-C--CA-[N] |==|  0.05897
USER: genes 4 Torsion [C]-CA--CB-[CG] |==|  0.28006
USER: genes 5 Torsion [CA]-CB--CG-[CD1] |==|  0.33382
USER: genes 6 Torsion [C]-CA--N-[C] |==|  0.19945
USER: genes 7 Torsion [N]-C--CA-[N] |==|  0.20716
USER: genes 8 Torsion [C]-CA--CB-[CG] |==|  0.15941
USER: genes 9 Torsion [CA]-CB--CG-[CD2] |==|  0.27429
USER: genes 10 Torsion [C]-CA--N-[H2] |==|  0.94326
USER: genes 11 Torsion [N]-CA--CB-[OG] |==|  0.95492
USER: genes 12 Torsion [CA]-CB--OG-[HG] |==|  0.33985
USER: genes 13 Torsion [N]-CA--C-[N] |==|  0.46667
USER: genes 14 Torsion [C]-N--CA-[CB] |==|  0.84976
USER: genes 15 Torsion [N]-CA--CB-[CG2] |==|  0.50639
USER: genes 16 Torsion [CA]-CB--OG1-[HG1] |==|  0.11244
USER: genes 17 Torsion [N]-CA--C-[N] |==|  0.90813
USER: genes 18 Torsion [C]-N--CA-[C] |==|  0.66797
USER: genes 19 Torsion [N]-CA--C-[O] |==|  0.86390
USER: genes 20 Torsion [N]-CA--CB-[CG] |==|  0.43981
USER: genes 21 Torsion [CA]-CB--CG-[CD] |==|  0.29124
USER: genes 22 Torsion [CB]-CG--CD-[CE] |==|  0.61263
USER: genes 23 Torsion [CG]-CD--CE-[NZ] |==|  0.54461
USER: genes 24 Torsion [CD]-CE--NZ-[HZ2] |==|  0.00248
ROOT
ATOM      1  CA  SER I   3      53.264  35.963   7.748  0.30 32.02 LIG 0.20  C 
ENDROOT
BRANCH 1 2
ATOM      2  N   SER I   3      52.512  36.109   6.505  0.30 32.24 LIG-0.34  N 
ATOM      3 H    SER I   3      52.960  36.129   5.771  0.30 32.24 LIG 0.16  HD
ATOM      4  C   LEU I   2      51.207  36.195   6.644  0.30 32.50 LIG 0.24  C 
ATOM      5 O    LEU I   2      50.673  36.170   7.750  0.30 32.61 LIG-0.27  OA
BRANCH 4 6
ATOM      6  CA  LEU I   2      50.351  36.315   5.421  0.30 32.74 LIG 0.18  C 
BRANCH 6 7
ATOM      7  CB  LEU I   2      49.027  35.559   5.574  0.30 32.79 LIG 0.04  C 
BRANCH 7 8
ATOM      8  CG  LEU I   2      47.806  36.445   5.918  0.30 32.97 LIG-0.02  C 
ATOM      9  CD1 LEU I   2      46.744  36.320   4.838  0.30 33.23 LIG 0.01  C 
ATOM     10  CD2 LEU I   2      47.226  36.084   7.277  0.30 33.13 LIG 0.01  C 
ENDBRANCH 7 8
ENDBRANCH 6 7
BRANCH 6 11
ATOM     11  N   LEU I   2      51.325  35.771   4.520  0.30 32.86 LIG-0.35  N 
ATOM     12  C   PHE I   1      51.640  34.499   4.516  0.30 33.00 LIG 0.25  C 
ATOM     13 O    PHE I   1      51.304  33.727   5.412  0.30 33.06 LIG-0.27  OA
ATOM     14 H    LEU I   2      51.677  36.349   3.991  0.30 32.86 LIG 0.16  HD
BRANCH 12 15
ATOM     15  CA  PHE I   1      52.469  34.008   3.334  0.30 33.09 LIG 0.28  C 
BRANCH 15 16
ATOM     16  CB  PHE I   1      52.412  32.505   3.193  0.30 33.12 LIG 0.08  C 
BRANCH 16 17
ATOM     17  CG  PHE I   1      51.050  31.871   3.031  0.30 33.22 LIG-0.06  A 
ATOM     18  CD1 PHE I   1      50.179  31.590   4.096  0.30 33.33 LIG 0.01  A 
ATOM     19  CE1 PHE I   1      48.923  31.037   3.835  0.30 33.39 LIG 0.00  A 
ATOM     20  CZ  PHE I   1      48.545  30.761   2.538  0.30 33.40 LIG 0.00  A 
ATOM     21  CE2 PHE I   1      49.405  31.003   1.492  0.30 33.33 LIG 0.00  A 
ATOM     22  CD2 PHE I   1      50.638  31.541   1.746  0.30 33.29 LIG 0.01  A 
ENDBRANCH 16 17
ENDBRANCH 15 16
BRANCH 15 23
ATOM     23  N   PHE I   1      53.856  34.445   3.450  0.30 33.12 LIG-0.07  N 
ATOM     24 H2   PHE I   1      53.904  35.140   4.004  0.30 33.12 LIG 0.28  HD
ATOM     25 H1   PHE I   1      54.161  34.683   2.648  0.30 33.12 LIG 0.28  HD
ATOM     26 H3   PHE I   1      54.352  33.778   3.769  0.30 33.12 LIG 0.28  HD
ENDBRANCH 15 23
ENDBRANCH 12 15
ENDBRANCH 6 11
ENDBRANCH 4 6
ENDBRANCH 1 2
BRANCH 1 27
ATOM     27  CB  SER I   3      54.109  34.687   7.690  0.30 32.04 LIG 0.20  C 
BRANCH 27 28
ATOM     28 OG   SER I   3      53.666  33.831   6.655  0.30 32.08 LIG-0.40  OA
ATOM     29 HG   SER I   3      54.300  33.679   6.126  0.30 32.08 LIG 0.21  HD
ENDBRANCH 27 28
ENDBRANCH 1 27
BRANCH 1 30
ATOM     30  C   SER I   3      54.163  37.126   8.085  0.30 31.77 LIG 0.24  C 
ATOM     31  N   THR I   4      54.705  37.215   9.284  0.30 31.46 LIG-0.34  N 
ATOM     32 H    THR I   4      54.664  36.638   9.920  0.30 31.46 LIG 0.16  HD
ATOM     33 O    SER I   3      54.374  37.971   7.222  0.30 31.84 LIG-0.27  OA
BRANCH 31 34
ATOM     34  CA  THR I   4      55.442  38.426   9.531  0.30 31.16 LIG 0.20  C 
BRANCH 34 35
ATOM     35  CB  THR I   4      56.489  38.613   8.441  0.30 31.16 LIG 0.15  C 
ATOM     36  CG2 THR I   4      57.326  39.853   8.700  0.30 31.01 LIG 0.04  C 
BRANCH 35 37
ATOM     37 OG1  THR I   4      57.335  37.458   8.391  0.30 31.22 LIG-0.39  OA
ATOM     38 HG1  THR I   4      56.870  36.765   8.489  0.30 31.22 LIG 0.21  HD
ENDBRANCH 35 37
ENDBRANCH 34 35
BRANCH 34 39
ATOM     39  C   THR I   4      54.589  39.677   9.644  0.30 30.90 LIG 0.24  C 
ATOM     40  N   LYS I   5      53.511  39.690   8.894  0.30 30.59 LIG-0.35  N 
ATOM     41 H    LYS I   5      53.313  39.126   8.277  0.30 30.59 LIG 0.16  HD
ATOM     42 O    THR I   4      54.899  40.596  10.397  0.30 30.97 LIG-0.27  OA
BRANCH 40 43
ATOM     43  CA  LYS I   5      52.577  40.742   9.123  0.30 30.26 LIG 0.16  C 
BRANCH 43 44
ATOM     44  C   LYS I   5      51.287  40.047   9.522  0.30 30.28 LIG 0.22  C 
ATOM     45 O    LYS I   5      50.837  39.114   8.864  0.30 30.24 LIG-0.29  OA
ENDBRANCH 43 44
BRANCH 43 46
ATOM     46  CB  LYS I   5      52.304  41.583   7.895  0.30 30.11 LIG 0.03  C 
BRANCH 46 47
ATOM     47  CG  LYS I   5      50.989  42.333   7.954  0.30 29.43 LIG 0.00  C 
BRANCH 47 48
ATOM     48  CD  LYS I   5      51.213  43.799   8.233  0.30 28.58 LIG 0.03  C 
BRANCH 48 49
ATOM     49  CE  LYS I   5      50.168  44.317   9.209  0.30 28.11 LIG 0.23  C 
BRANCH 49 50
ATOM     50  NZ  LYS I   5      50.097  45.798   9.229  0.30 27.97 LIG-0.08  N 
ATOM     51 HZ1  LYS I   5      50.292  46.094  10.045  0.30 27.97 LIG 0.27  HD
ATOM     52 HZ2  LYS I   5      50.681  46.131   8.645  0.30 27.97 LIG 0.27  HD
ATOM     53 HZ3  LYS I   5      49.275  46.058   9.008  0.30 27.97 LIG 0.27  HD
ENDBRANCH 49 50
ENDBRANCH 48 49
ENDBRANCH 47 48
ENDBRANCH 46 47
ENDBRANCH 43 46
ENDBRANCH 40 43
ENDBRANCH 34 39
ENDBRANCH 31 34
ENDBRANCH 1 30
TORSDOF 23
ENDMDL
MODEL 6
USER: ADFR SOLUTION from run 84
USER: SCORE 18.176210 LL:  -2.919 LR: -17.444 RR:   0.000 FEB: -10.583
USER: RMSD 11.315919
USER: SEED 83
USER: STATUS no improvement in best 6 clusters for 5 generations
USER: GENES 25
USER: genes 0 Translation |==|  0.74259 0.63131 0.43636
USER: genes 1 Rotation |==|  0.32215 0.19512 0.57475 0.84616
USER: genes 2 Torsion [C]-CA--N-[C] |==|  0.65000
USER: genes 3 Torsion [N]-C--CA-[N] |==|  0.08670
USER: genes 4 Torsion [C]-CA--CB-[CG] |==|  0.29078
USER: genes 5 Torsion [CA]-CB--CG-[CD1] |==|  0.33198
USER: genes 6 Torsion [C]-CA--N-[C] |==|  0.18878
USER: genes 7 Torsion [N]-C--CA-[N] |==|  0.20657
USER: genes 8 Torsion [C]-CA--CB-[CG] |==|  0.17147
USER: genes 9 Torsion [CA]-CB--CG-[CD2] |==|  0.76491
USER: genes 10 Torsion [C]-CA--N-[H2] |==|  0.26154
USER: genes 11 Torsion [N]-CA--CB-[OG] |==|  0.01162
USER: genes 12 Torsion [CA]-CB--OG-[HG] |==|  0.25304
USER: genes 13 Torsion [N]-CA--C-[N] |==|  0.67986
USER: genes 14 Torsion [C]-N--CA-[CB] |==|  0.29994
USER: genes 15 Torsion [N]-CA--CB-[CG2] |==|  0.59548
USER: genes 16 Torsion [CA]-CB--OG1-[HG1] |==|  0.24698
USER: genes 17 Torsion [N]-CA--C-[N] |==|  0.39969
USER: genes 18 Torsion [C]-N--CA-[C] |==|  0.80968
USER: genes 19 Torsion [N]-CA--C-[O] |==|  0.84592
USER: genes 20 Torsion [N]-CA--CB-[CG] |==|  0.90959
USER: genes 21 Torsion [CA]-CB--CG-[CD] |==|  0.70271
USER: genes 22 Torsion [CB]-CG--CD-[CE] |==|  0.78703
USER: genes 23 Torsion [CG]-CD--CE-[NZ] |==|  0.54966
USER: genes 24 Torsion [CD]-CE--NZ-[HZ2] |==|  0.43007
ROOT
ATOM      1  CA  SER I   3      53.308  35.759   7.861  0.30 32.02 LIG 0.20  C 
ENDROOT
BRANCH 1 2
ATOM      2  N   SER I   3      52.554  36.042   6.643  0.30 32.24 LIG-0.34  N 
ATOM      3 H    SER I   3      53.003  36.240   5.937  0.30 32.24 LIG 0.16  HD
ATOM      4  C   LEU I   2      51.246  35.961   6.759  0.30 32.50 LIG 0.24  C 
ATOM      5 O    LEU I   2      50.709  35.683   7.829  0.30 32.61 LIG-0.27  OA
BRANCH 4 6
ATOM      6  CA  LEU I   2      50.392  36.203   5.553  0.30 32.74 LIG 0.18  C 
BRANCH 6 7
ATOM      7  CB  LEU I   2      49.045  35.480   5.652  0.30 32.79 LIG 0.04  C 
BRANCH 7 8
ATOM      8  CG  LEU I   2      47.837  36.391   5.978  0.30 32.97 LIG-0.02  C 
ATOM      9  CD1 LEU I   2      46.813  36.328   4.859  0.30 33.23 LIG 0.01  C 
ATOM     10  CD2 LEU I   2      47.198  36.009   7.305  0.30 33.13 LIG 0.01  C 
ENDBRANCH 7 8
ENDBRANCH 6 7
BRANCH 6 11
ATOM     11  N   LEU I   2      51.346  35.700   4.608  0.30 32.86 LIG-0.35  N 
ATOM     12  C   PHE I   1      51.675  34.433   4.553  0.30 33.00 LIG 0.25  C 
ATOM     13 O    PHE I   1      51.373  33.628   5.432  0.30 33.06 LIG-0.27  OA
ATOM     14 H    LEU I   2      51.677  36.300   4.089  0.30 32.86 LIG 0.16  HD
BRANCH 12 15
ATOM     15  CA  PHE I   1      52.475  33.992   3.333  0.30 33.09 LIG 0.28  C 
BRANCH 15 16
ATOM     16  CB  PHE I   1      52.436  32.493   3.147  0.30 33.12 LIG 0.08  C 
BRANCH 16 17
ATOM     17  CG  PHE I   1      51.087  31.856   2.904  0.30 33.22 LIG-0.06  A 
ATOM     18  CD1 PHE I   1      50.567  31.570   1.632  0.30 33.33 LIG 0.01  A 
ATOM     19  CE1 PHE I   1      49.323  30.944   1.517  0.30 33.39 LIG 0.00  A 
ATOM     20  CZ  PHE I   1      48.607  30.617   2.649  0.30 33.40 LIG 0.00  A 
ATOM     21  CE2 PHE I   1      49.094  30.924   3.898  0.30 33.33 LIG 0.00  A 
ATOM     22  CD2 PHE I   1      50.311  31.541   4.012  0.30 33.29 LIG 0.01  A 
ENDBRANCH 16 17
ENDBRANCH 15 16
BRANCH 15 23
ATOM     23  N   PHE I   1      53.860  34.445   3.423  0.30 33.12 LIG-0.07  N 
ATOM     24 H2   PHE I   1      54.361  33.802   3.780  0.30 33.12 LIG 0.28  HD
ATOM     25 H1   PHE I   1      53.902  35.172   3.935  0.30 33.12 LIG 0.28  HD
ATOM     26 H3   PHE I   1      54.163  34.638   2.609  0.30 33.12 LIG 0.28  HD
ENDBRANCH 15 23
ENDBRANCH 12 15
ENDBRANCH 6 11
ENDBRANCH 4 6
ENDBRANCH 1 2
BRANCH 1 27
ATOM     27  CB  SER I   3      54.070  34.441   7.700  0.30 32.04 LIG 0.20  C 
BRANCH 27 28
ATOM     28 OG   SER I   3      53.910  33.919   6.394  0.30 32.08 LIG-0.40  OA
ATOM     29 HG   SER I   3      54.528  34.203   5.901  0.30 32.08 LIG 0.21  HD
ENDBRANCH 27 28
ENDBRANCH 1 27
BRANCH 1 30
ATOM     30  C   SER I   3      54.281  36.837   8.268  0.30 31.77 LIG 0.24  C 
ATOM     31  N   THR I   4      55.577  36.589   8.271  0.30 31.46 LIG-0.34  N 
ATOM     32 H    THR I   4      55.972  35.876   7.999  0.30 31.46 LIG 0.16  HD
ATOM     33 O    SER I   3      53.838  37.934   8.587  0.30 31.84 LIG-0.27  OA
BRANCH 31 34
ATOM     34  CA  THR I   4      56.398  37.649   8.792  0.30 31.16 LIG 0.20  C 
BRANCH 34 35
ATOM     35  CB  THR I   4      56.945  37.244  10.154  0.30 31.16 LIG 0.15  C 
ATOM     36  CG2 THR I   4      57.059  38.448  11.073  0.30 31.01 LIG 0.04  C 
BRANCH 35 37
ATOM     37 OG1  THR I   4      56.081  36.264  10.742  0.30 31.22 LIG-0.39  OA
ATOM     38 HG1  THR I   4      56.325  35.497  10.504  0.30 31.22 LIG 0.21  HD
ENDBRANCH 35 37
ENDBRANCH 34 35
BRANCH 34 39
ATOM     39  C   THR I   4      57.541  38.072   7.884  0.30 30.90 LIG 0.24  C 
ATOM     40  N   LYS I   5      57.817  39.355   7.891  0.30 30.59 LIG-0.35  N 
ATOM     41 H    LYS I   5      57.349  39.975   8.259  0.30 30.59 LIG 0.16  HD
ATOM     42 O    THR I   4      58.155  37.252   7.206  0.30 30.97 LIG-0.27  OA
BRANCH 40 43
ATOM     43  CA  LYS I   5      59.007  39.764   7.222  0.30 30.26 LIG 0.16  C 
BRANCH 43 44
ATOM     44  C   LYS I   5      60.144  39.210   8.061  0.30 30.28 LIG 0.22  C 
ATOM     45 O    LYS I   5      60.238  39.471   9.256  0.30 30.24 LIG-0.29  OA
ENDBRANCH 43 44
BRANCH 43 46
ATOM     46  CB  LYS I   5      59.165  41.266   7.138  0.30 30.11 LIG 0.03  C 
BRANCH 46 47
ATOM     47  CG  LYS I   5      57.848  42.009   7.024  0.30 29.43 LIG 0.00  C 
BRANCH 47 48
ATOM     48  CD  LYS I   5      57.651  42.552   5.630  0.30 28.58 LIG 0.03  C 
BRANCH 48 49
ATOM     49  CE  LYS I   5      58.505  43.793   5.420  0.30 28.11 LIG 0.23  C 
BRANCH 49 50
ATOM     50  NZ  LYS I   5      58.052  44.601   4.262  0.30 27.97 LIG-0.08  N 
ATOM     51 HZ1  LYS I   5      57.166  44.558   4.198  0.30 27.97 LIG 0.27  HD
ATOM     52 HZ2  LYS I   5      58.301  45.447   4.375  0.30 27.97 LIG 0.27  HD
ATOM     53 HZ3  LYS I   5      58.419  44.281   3.516  0.30 27.97 LIG 0.27  HD
ENDBRANCH 49 50
ENDBRANCH 48 49
ENDBRANCH 47 48
ENDBRANCH 46 47
ENDBRANCH 43 46
ENDBRANCH 40 43
ENDBRANCH 34 39
ENDBRANCH 31 34
ENDBRANCH 1 30
TORSDOF 23
ENDMDL
MODEL 7
USER: ADFR SOLUTION from run 140
USER: SCORE 19.581479 LL:  -3.693 LR: -17.394 RR:   0.000 FEB: -10.533
USER: RMSD 10.802689
USER: SEED 139
USER: STATUS no improvement in best 2 clusters for 5 generations
USER: GENES 25
USER: genes 0 Translation |==|  0.59263 0.66250 0.38522
USER: genes 1 Rotation |==|  0.89992 0.70604 0.66175 0.64646
USER: genes 2 Torsion [C]-CA--N-[C] |==|  0.56817
USER: genes 3 Torsion [N]-C--CA-[N] |==|  0.90750
USER: genes 4 Torsion [C]-CA--CB-[CG] |==|  0.41654
USER: genes 5 Torsion [CA]-CB--CG-[CD1] |==|  0.61419
USER: genes 6 Torsion [C]-CA--N-[C] |==|  0.69125
USER: genes 7 Torsion [N]-C--CA-[N] |==|  0.53979
USER: genes 8 Torsion [C]-CA--CB-[CG] |==|  0.29874
USER: genes 9 Torsion [CA]-CB--CG-[CD2] |==|  0.80563
USER: genes 10 Torsion [C]-CA--N-[H2] |==|  0.03760
USER: genes 11 Torsion [N]-CA--CB-[OG] |==|  0.76508
USER: genes 12 Torsion [CA]-CB--OG-[HG] |==|  0.87883
USER: genes 13 Torsion [N]-CA--C-[N] |==|  0.45874
USER: genes 14 Torsion [C]-N--CA-[CB] |==|  0.26110
USER: genes 15 Torsion [N]-CA--CB-[CG2] |==|  0.55684
USER: genes 16 Torsion [CA]-CB--OG1-[HG1] |==|  0.79767
USER: genes 17 Torsion [N]-CA--C-[N] |==|  0.42413
USER: genes 18 Torsion [C]-N--CA-[C] |==|  0.18861
USER: genes 19 Torsion [N]-CA--C-[O] |==|  0.74169
USER: genes 20 Torsion [N]-CA--CB-[CG] |==|  0.78543
USER: genes 21 Torsion [CA]-CB--CG-[CD] |==|  0.30194
USER: genes 22 Torsion [CB]-CG--CD-[CE] |==|  0.29606
USER: genes 23 Torsion [CG]-CD--CE-[NZ] |==|  0.00836
USER: genes 24 Torsion [CD]-CE--NZ-[HZ2] |==|  0.20747
ROOT
ATOM      1  CA  SER I   3      48.809  36.695   6.327  0.30 32.02 LIG 0.20  C 
ENDROOT
BRANCH 1 2
ATOM      2  N   SER I   3      49.419  35.374   6.213  0.30 32.24 LIG-0.34  N 
ATOM      3 H    SER I   3      49.693  35.001   6.938  0.30 32.24 LIG 0.16  HD
ATOM      4  C   LEU I   2      49.485  34.887   4.993  0.30 32.50 LIG 0.24  C 
ATOM      5 O    LEU I   2      49.074  35.519   4.023  0.30 32.61 LIG-0.27  OA
BRANCH 4 6
ATOM      6  CA  LEU I   2      50.067  33.523   4.784  0.30 32.74 LIG 0.18  C 
BRANCH 6 7
ATOM      7  CB  LEU I   2      49.001  32.426   4.881  0.30 32.79 LIG 0.04  C 
BRANCH 7 8
ATOM      8  CG  LEU I   2      49.276  31.171   4.019  0.30 32.97 LIG-0.02  C 
ATOM      9  CD1 LEU I   2      47.992  30.691   3.365  0.30 33.23 LIG 0.01  C 
ATOM     10  CD2 LEU I   2      50.338  31.446   2.965  0.30 33.13 LIG 0.01  C 
ENDBRANCH 7 8
ENDBRANCH 6 7
BRANCH 6 11
ATOM     11  N   LEU I   2      51.020  33.617   5.852  0.30 32.86 LIG-0.35  N 
ATOM     12  C   PHE I   1      52.310  33.691   5.632  0.30 33.00 LIG 0.25  C 
ATOM     13 O    PHE I   1      52.813  33.462   4.534  0.30 33.06 LIG-0.27  OA
ATOM     14 H    LEU I   2      50.670  33.621   6.636  0.30 32.86 LIG 0.16  HD
BRANCH 12 15
ATOM     15  CA  PHE I   1      53.181  34.069   6.825  0.30 33.09 LIG 0.28  C 
BRANCH 15 16
ATOM     16  CB  PHE I   1      52.569  35.186   7.638  0.30 33.12 LIG 0.08  C 
BRANCH 16 17
ATOM     17  CG  PHE I   1      51.988  34.828   8.987  0.30 33.22 LIG-0.06  A 
ATOM     18  CD1 PHE I   1      52.553  35.206  10.214  0.30 33.33 LIG 0.01  A 
ATOM     19  CE1 PHE I   1      51.915  34.857  11.407  0.30 33.39 LIG 0.00  A 
ATOM     20  CZ  PHE I   1      50.740  34.136  11.377  0.30 33.40 LIG 0.00  A 
ATOM     21  CE2 PHE I   1      50.197  33.733  10.179  0.30 33.33 LIG 0.00  A 
ATOM     22  CD2 PHE I   1      50.823  34.072   9.009  0.30 33.29 LIG 0.01  A 
ENDBRANCH 16 17
ENDBRANCH 15 16
BRANCH 15 23
ATOM     23  N   PHE I   1      54.524  34.445   6.395  0.30 33.12 LIG-0.07  N 
ATOM     24 H2   PHE I   1      54.529  34.573   5.514  0.30 33.12 LIG 0.28  HD
ATOM     25 H1   PHE I   1      55.096  33.795   6.603  0.30 33.12 LIG 0.28  HD
ATOM     26 H3   PHE I   1      54.768  35.196   6.805  0.30 33.12 LIG 0.28  HD
ENDBRANCH 15 23
ENDBRANCH 12 15
ENDBRANCH 6 11
ENDBRANCH 4 6
ENDBRANCH 1 2
BRANCH 1 27
ATOM     27  CB  SER I   3      47.284  36.558   6.334  0.30 32.04 LIG 0.20  C 
BRANCH 27 28
ATOM     28 OG   SER I   3      46.774  36.494   5.015  0.30 32.08 LIG-0.40  OA
ATOM     29 HG   SER I   3      47.156  37.070   4.539  0.30 32.08 LIG 0.21  HD
ENDBRANCH 27 28
ENDBRANCH 1 27
BRANCH 1 30
ATOM     30  C   SER I   3      49.231  37.487   7.539  0.30 31.77 LIG 0.24  C 
ATOM     31  N   THR I   4      48.986  38.781   7.600  0.30 31.46 LIG-0.34  N 
ATOM     32 H    THR I   4      48.538  39.255   7.040  0.30 31.46 LIG 0.16  HD
ATOM     33 O    SER I   3      49.798  36.898   8.453  0.30 31.84 LIG-0.27  OA
BRANCH 31 34
ATOM     34  CA  THR I   4      49.541  39.452   8.746  0.30 31.16 LIG 0.20  C 
BRANCH 34 35
ATOM     35  CB  THR I   4      50.898  40.038   8.383  0.30 31.16 LIG 0.15  C 
ATOM     36  CG2 THR I   4      51.726  40.301   9.628  0.30 31.01 LIG 0.04  C 
BRANCH 35 37
ATOM     37 OG1  THR I   4      51.593  39.129   7.520  0.30 31.22 LIG-0.39  OA
ATOM     38 HG1  THR I   4      51.855  38.467   7.965  0.30 31.22 LIG 0.21  HD
ENDBRANCH 35 37
ENDBRANCH 34 35
BRANCH 34 39
ATOM     39  C   THR I   4      48.655  40.535   9.338  0.30 30.90 LIG 0.24  C 
ATOM     40  N   LYS I   5      48.827  40.762  10.619  0.30 30.59 LIG-0.35  N 
ATOM     41 H    LYS I   5      49.295  40.289  11.162  0.30 30.59 LIG 0.16  HD
ATOM     42 O    THR I   4      47.847  41.149   8.645  0.30 30.97 LIG-0.27  OA
BRANCH 40 43
ATOM     43  CA  LYS I   5      48.174  41.905  11.167  0.30 30.26 LIG 0.16  C 
BRANCH 43 44
ATOM     44  C   LYS I   5      46.692  41.583  11.104  0.30 30.28 LIG 0.22  C 
ATOM     45 O    LYS I   5      46.006  41.924  10.145  0.30 30.24 LIG-0.29  OA
ENDBRANCH 43 44
BRANCH 43 46
ATOM     46  CB  LYS I   5      48.419  43.174  10.380  0.30 30.11 LIG 0.03  C 
BRANCH 46 47
ATOM     47  CG  LYS I   5      49.784  43.786  10.625  0.30 29.43 LIG 0.00  C 
BRANCH 47 48
ATOM     48  CD  LYS I   5      50.678  43.618   9.422  0.30 28.58 LIG 0.03  C 
BRANCH 48 49
ATOM     49  CE  LYS I   5      50.845  44.946   8.699  0.30 28.11 LIG 0.23  C 
BRANCH 49 50
ATOM     50  NZ  LYS I   5      50.155  46.059   9.395  0.30 27.97 LIG-0.08  N 
ATOM     51 HZ1  LYS I   5      49.339  45.799   9.637  0.30 27.97 LIG 0.27  HD
ATOM     52 HZ2  LYS I   5      50.619  46.290  10.119  0.30 27.97 LIG 0.27  HD
ATOM     53 HZ3  LYS I   5      50.092  46.758   8.847  0.30 27.97 LIG 0.27  HD
ENDBRANCH 49 50
ENDBRANCH 48 49
ENDBRANCH 47 48
ENDBRANCH 46 47
ENDBRANCH 43 46
ENDBRANCH 40 43
ENDBRANCH 34 39
ENDBRANCH 31 34
ENDBRANCH 1 30
TORSDOF 23
ENDMDL
MODEL 8
USER: ADFR SOLUTION from run 139
USER: SCORE 18.325034 LL:  -3.249 LR: -17.127 RR:   0.000 FEB: -10.266
USER: RMSD 11.219822
USER: SEED 138
USER: STATUS no improvement in best 2 clusters for 5 generations
USER: GENES 25
USER: genes 0 Translation |==|  0.62615 0.53511 0.44695
USER: genes 1 Rotation |==|  0.24049 0.79143 0.41702 0.80139
USER: genes 2 Torsion [C]-CA--N-[C] |==|  0.78434
USER: genes 3 Torsion [N]-C--CA-[N] |==|  0.38275
USER: genes 4 Torsion [C]-CA--CB-[CG] |==|  0.16888
USER: genes 5 Torsion [CA]-CB--CG-[CD1] |==|  0.75292
USER: genes 6 Torsion [C]-CA--N-[C] |==|  0.82384
USER: genes 7 Torsion [N]-C--CA-[N] |==|  0.89385
USER: genes 8 Torsion [C]-CA--CB-[CG] |==|  0.02297
USER: genes 9 Torsion [CA]-CB--CG-[CD2] |==|  0.73404
USER: genes 10 Torsion [C]-CA--N-[H2] |==|  0.93331
USER: genes 11 Torsion [N]-CA--CB-[OG] |==|  0.67803
USER: genes 12 Torsion [CA]-CB--OG-[HG] |==|  0.89888
USER: genes 13 Torsion [N]-CA--C-[N] |==|  0.64420
USER: genes 14 Torsion [C]-N--CA-[CB] |==|  0.51667
USER: genes 15 Torsion [N]-CA--CB-[CG2] |==|  0.88605
USER: genes 16 Torsion [CA]-CB--OG1-[HG1] |==|  0.63061
USER: genes 17 Torsion [N]-CA--C-[N] |==|  0.28474
USER: genes 18 Torsion [C]-N--CA-[C] |==|  0.75321
USER: genes 19 Torsion [N]-CA--C-[O] |==|  0.02182
USER: genes 20 Torsion [N]-CA--CB-[CG] |==|  0.89836
USER: genes 21 Torsion [CA]-CB--CG-[CD] |==|  0.60285
USER: genes 22 Torsion [CB]-CG--CD-[CE] |==|  0.54562
USER: genes 23 Torsion [CG]-CD--CE-[NZ] |==|  0.60966
USER: genes 24 Torsion [CD]-CE--NZ-[HZ2] |==|  0.37233
ROOT
ATOM      1  CA  SER I   3      49.815  32.873   8.179  0.30 32.02 LIG 0.20  C 
ENDROOT
BRANCH 1 2
ATOM      2  N   SER I   3      49.938  34.270   7.774  0.30 32.24 LIG-0.34  N 
ATOM      3 H    SER I   3      49.318  34.811   8.023  0.30 32.24 LIG 0.16  HD
ATOM      4  C   LEU I   2      51.004  34.557   7.058  0.30 32.50 LIG 0.24  C 
ATOM      5 O    LEU I   2      51.822  33.695   6.745  0.30 32.61 LIG-0.27  OA
BRANCH 4 6
ATOM      6  CA  LEU I   2      51.230  35.972   6.625  0.30 32.74 LIG 0.18  C 
BRANCH 6 7
ATOM      7  CB  LEU I   2      50.793  36.203   5.174  0.30 32.79 LIG 0.04  C 
BRANCH 7 8
ATOM      8  CG  LEU I   2      49.294  35.943   4.895  0.30 32.97 LIG-0.02  C 
ATOM      9  CD1 LEU I   2      49.073  34.488   4.521  0.30 33.23 LIG 0.01  C 
ATOM     10  CD2 LEU I   2      48.435  36.320   6.093  0.30 33.13 LIG 0.01  C 
ENDBRANCH 7 8
ENDBRANCH 6 7
BRANCH 6 11
ATOM     11  N   LEU I   2      52.637  35.975   6.902  0.30 32.86 LIG-0.35  N 
ATOM     12  C   PHE I   1      53.112  35.818   8.113  0.30 33.00 LIG 0.25  C 
ATOM     13 O    PHE I   1      52.406  35.881   9.118  0.30 33.06 LIG-0.27  OA
ATOM     14 H    LEU I   2      53.132  36.088   6.208  0.30 32.86 LIG 0.16  HD
BRANCH 12 15
ATOM     15  CA  PHE I   1      54.609  35.560   8.228  0.30 33.09 LIG 0.28  C 
BRANCH 15 16
ATOM     16  CB  PHE I   1      55.403  36.846   8.237  0.30 33.12 LIG 0.08  C 
BRANCH 16 17
ATOM     17  CG  PHE I   1      54.629  38.142   8.329  0.30 33.22 LIG-0.06  A 
ATOM     18  CD1 PHE I   1      54.181  38.709   9.532  0.30 33.33 LIG 0.01  A 
ATOM     19  CE1 PHE I   1      53.506  39.932   9.512  0.30 33.39 LIG 0.00  A 
ATOM     20  CZ  PHE I   1      53.274  40.573   8.313  0.30 33.40 LIG 0.00  A 
ATOM     21  CE2 PHE I   1      53.680  40.008   7.127  0.30 33.33 LIG 0.00  A 
ATOM     22  CD2 PHE I   1      54.338  38.807   7.145  0.30 33.29 LIG 0.01  A 
ENDBRANCH 16 17
ENDBRANCH 15 16
BRANCH 15 23
ATOM     23  N   PHE I   1      55.076  34.696   7.149  0.30 33.12 LIG-0.07  N 
ATOM     24 H2   PHE I   1      54.397  34.209   6.842  0.30 33.12 LIG 0.28  HD
ATOM     25 H1   PHE I   1      55.713  34.155   7.456  0.30 33.12 LIG 0.28  HD
ATOM     26 H3   PHE I   1      55.404  35.195   6.489  0.30 33.12 LIG 0.28  HD
ENDBRANCH 15 23
ENDBRANCH 12 15
ENDBRANCH 6 11
ENDBRANCH 4 6
ENDBRANCH 1 2
BRANCH 1 27
ATOM     27  CB  SER I   3      48.870  32.767   9.379  0.30 32.04 LIG 0.20  C 
BRANCH 27 28
ATOM     28 OG   SER I   3      49.555  32.292  10.523  0.30 32.08 LIG-0.40  OA
ATOM     29 HG   SER I   3      50.125  31.721  10.291  0.30 32.08 LIG 0.21  HD
ENDBRANCH 27 28
ENDBRANCH 1 27
BRANCH 1 30
ATOM     30  C   SER I   3      49.331  31.940   7.097  0.30 31.77 LIG 0.24  C 
ATOM     31  N   THR I   4      48.309  31.139   7.325  0.30 31.46 LIG-0.34  N 
ATOM     32 H    THR I   4      47.810  31.114   8.025  0.30 31.46 LIG 0.16  HD
ATOM     33 O    SER I   3      49.907  31.952   6.015  0.30 31.84 LIG-0.27  OA
BRANCH 31 34
ATOM     34  CA  THR I   4      48.015  30.210   6.265  0.30 31.16 LIG 0.20  C 
BRANCH 34 35
ATOM     35  CB  THR I   4      46.734  29.456   6.592  0.30 31.16 LIG 0.15  C 
ATOM     36  CG2 THR I   4      46.687  29.077   8.062  0.30 31.01 LIG 0.04  C 
BRANCH 35 37
ATOM     37 OG1  THR I   4      45.604  30.273   6.265  0.30 31.22 LIG-0.39  OA
ATOM     38 HG1  THR I   4      45.057  30.263   6.902  0.30 31.22 LIG 0.21  HD
ENDBRANCH 35 37
ENDBRANCH 34 35
BRANCH 34 39
ATOM     39  C   THR I   4      47.907  30.835   4.885  0.30 30.90 LIG 0.24  C 
ATOM     40  N   LYS I   5      48.951  30.666   4.109  0.30 30.59 LIG-0.35  N 
ATOM     41 H    LYS I   5      49.714  30.346   4.343  0.30 30.59 LIG 0.16  HD
ATOM     42 O    THR I   4      46.898  31.445   4.538  0.30 30.97 LIG-0.27  OA
BRANCH 40 43
ATOM     43  CA  LYS I   5      48.812  31.050   2.743  0.30 30.26 LIG 0.16  C 
BRANCH 43 44
ATOM     44  C   LYS I   5      48.280  29.815   2.037  0.30 30.28 LIG 0.22  C 
ATOM     45 O    LYS I   5      47.930  28.823   2.668  0.30 30.24 LIG-0.29  OA
ENDBRANCH 43 44
BRANCH 43 46
ATOM     46  CB  LYS I   5      50.119  31.445   2.092  0.30 30.11 LIG 0.03  C 
BRANCH 46 47
ATOM     47  CG  LYS I   5      51.059  32.188   3.020  0.30 29.43 LIG 0.00  C 
BRANCH 47 48
ATOM     48  CD  LYS I   5      51.807  33.270   2.282  0.30 28.58 LIG 0.03  C 
BRANCH 48 49
ATOM     49  CE  LYS I   5      53.010  33.727   3.091  0.30 28.11 LIG 0.23  C 
BRANCH 49 50
ATOM     50  NZ  LYS I   5      53.215  35.194   3.020  0.30 27.97 LIG-0.08  N 
ATOM     51 HZ1  LYS I   5      52.488  35.580   2.684  0.30 27.97 LIG 0.27  HD
ATOM     52 HZ2  LYS I   5      53.369  35.512   3.837  0.30 27.97 LIG 0.27  HD
ATOM     53 HZ3  LYS I   5      53.913  35.371   2.496  0.30 27.97 LIG 0.27  HD
ENDBRANCH 49 50
ENDBRANCH 48 49
ENDBRANCH 47 48
ENDBRANCH 46 47
ENDBRANCH 43 46
ENDBRANCH 40 43
ENDBRANCH 34 39
ENDBRANCH 31 34
ENDBRANCH 1 30
TORSDOF 23
ENDMDL
MODEL 9
USER: ADFR SOLUTION from run 8
USER: SCORE 19.621085 LL:  -3.577 LR: -17.109 RR:   0.000 FEB: -10.248
USER: RMSD 9.006529
USER: SEED 347977
USER: STATUS 1 or 2 clusters left
USER: GENES 25
USER: genes 0 Translation |==|  0.59958 0.55613 0.43998
USER: genes 1 Rotation |==|  0.21549 0.23941 0.44162 0.81263
USER: genes 2 Torsion [C]-CA--N-[C] |==|  0.80556
USER: genes 3 Torsion [N]-C--CA-[N] |==|  0.87856
USER: genes 4 Torsion [C]-CA--CB-[CG] |==|  0.20706
USER: genes 5 Torsion [CA]-CB--CG-[CD1] |==|  0.02133
USER: genes 6 Torsion [C]-CA--N-[C] |==|  0.78602
USER: genes 7 Torsion [N]-C--CA-[N] |==|  0.52226
USER: genes 8 Torsion [C]-CA--CB-[CG] |==|  0.25707
USER: genes 9 Torsion [CA]-CB--CG-[CD2] |==|  0.66229
USER: genes 10 Torsion [C]-CA--N-[H2] |==|  0.38774
USER: genes 11 Torsion [N]-CA--CB-[OG] |==|  0.49284
USER: genes 12 Torsion [CA]-CB--OG-[HG] |==|  0.73361
USER: genes 13 Torsion [N]-CA--C-[N] |==|  0.97994
USER: genes 14 Torsion [C]-N--CA-[CB] |==|  0.48396
USER: genes 15 Torsion [N]-CA--CB-[CG2] |==|  0.41005
USER: genes 16 Torsion [CA]-CB--OG1-[HG1] |==|  0.50336
USER: genes 17 Torsion [N]-CA--C-[N] |==|  0.37904
USER: genes 18 Torsion [C]-N--CA-[C] |==|  0.21281
USER: genes 19 Torsion [N]-CA--C-[O] |==|  0.94327
USER: genes 20 Torsion [N]-CA--CB-[CG] |==|  0.56624
USER: genes 21 Torsion [CA]-CB--CG-[CD] |==|  0.22428
USER: genes 22 Torsion [CB]-CG--CD-[CE] |==|  0.07649
USER: genes 23 Torsion [CG]-CD--CE-[NZ] |==|  0.68344
USER: genes 24 Torsion [CD]-CE--NZ-[HZ2] |==|  0.79757
ROOT
ATOM      1  CA  SER I   3      49.017  33.504   7.969  0.30 32.02 LIG 0.20  C 
ENDROOT
BRANCH 1 2
ATOM      2  N   SER I   3      48.853  34.055   6.628  0.30 32.24 LIG-0.34  N 
ATOM      3 H    SER I   3      48.823  33.499   5.972  0.30 32.24 LIG 0.16  HD
ATOM      4  C   LEU I   2      48.766  35.365   6.564  0.30 32.50 LIG 0.24  C 
ATOM      5 O    LEU I   2      48.838  36.067   7.570  0.30 32.61 LIG-0.27  OA
BRANCH 4 6
ATOM      6  CA  LEU I   2      48.564  36.018   5.231  0.30 32.74 LIG 0.18  C 
BRANCH 6 7
ATOM      7  CB  LEU I   2      47.104  35.937   4.770  0.30 32.79 LIG 0.04  C 
BRANCH 7 8
ATOM      8  CG  LEU I   2      46.135  36.895   5.503  0.30 32.97 LIG-0.02  C 
ATOM      9  CD1 LEU I   2      46.911  37.844   6.400  0.30 33.23 LIG 0.01  C 
ATOM     10  CD2 LEU I   2      45.280  37.677   4.516  0.30 33.13 LIG 0.01  C 
ENDBRANCH 7 8
ENDBRANCH 6 7
BRANCH 6 11
ATOM     11  N   LEU I   2      49.524  35.209   4.537  0.30 32.86 LIG-0.35  N 
ATOM     12  C   PHE I   1      50.814  35.409   4.643  0.30 33.00 LIG 0.25  C 
ATOM     13 O    PHE I   1      51.291  36.422   5.151  0.30 33.06 LIG-0.27  OA
ATOM     14 H    LEU I   2      49.177  34.590   4.053  0.30 32.86 LIG 0.16  HD
BRANCH 12 15
ATOM     15  CA  PHE I   1      51.719  34.317   4.087  0.30 33.09 LIG 0.28  C 
BRANCH 15 16
ATOM     16  CB  PHE I   1      51.307  32.945   4.570  0.30 33.12 LIG 0.08  C 
BRANCH 16 17
ATOM     17  CG  PHE I   1      50.353  32.158   3.700  0.30 33.22 LIG-0.06  A 
ATOM     18  CD1 PHE I   1      50.607  31.812   2.364  0.30 33.33 LIG 0.01  A 
ATOM     19  CE1 PHE I   1      49.675  31.048   1.658  0.30 33.39 LIG 0.00  A 
ATOM     20  CZ  PHE I   1      48.507  30.644   2.270  0.30 33.40 LIG 0.00  A 
ATOM     21  CE2 PHE I   1      48.235  31.008   3.569  0.30 33.33 LIG 0.00  A 
ATOM     22  CD2 PHE I   1      49.146  31.760   4.260  0.30 33.29 LIG 0.01  A 
ENDBRANCH 16 17
ENDBRANCH 15 16
BRANCH 15 23
ATOM     23  N   PHE I   1      53.115  34.566   4.432  0.30 33.12 LIG-0.07  N 
ATOM     24 H2   PHE I   1      53.509  33.799   4.653  0.30 33.12 LIG 0.28  HD
ATOM     25 H1   PHE I   1      53.155  35.129   5.121  0.30 33.12 LIG 0.28  HD
ATOM     26 H3   PHE I   1      53.535  34.923   3.733  0.30 33.12 LIG 0.28  HD
ENDBRANCH 15 23
ENDBRANCH 12 15
ENDBRANCH 6 11
ENDBRANCH 4 6
ENDBRANCH 1 2
BRANCH 1 27
ATOM     27  CB  SER I   3      48.785  31.991   7.936  0.30 32.04 LIG 0.20  C 
BRANCH 27 28
ATOM     28 OG   SER I   3      48.995  31.417   9.213  0.30 32.08 LIG-0.40  OA
ATOM     29 HG   SER I   3      49.778  31.118   9.260  0.30 32.08 LIG 0.21  HD
ENDBRANCH 27 28
ENDBRANCH 1 27
BRANCH 1 30
ATOM     30  C   SER I   3      50.357  33.776   8.606  0.30 31.77 LIG 0.24  C 
ATOM     31  N   THR I   4      51.320  34.339   7.903  0.30 31.46 LIG-0.34  N 
ATOM     32 H    THR I   4      51.270  34.647   7.101  0.30 31.46 LIG 0.16  HD
ATOM     33 O    SER I   3      50.520  33.466   9.781  0.30 31.84 LIG-0.27  OA
BRANCH 31 34
ATOM     34  CA  THR I   4      52.588  34.438   8.576  0.30 31.16 LIG 0.20  C 
BRANCH 34 35
ATOM     35  CB  THR I   4      53.636  34.970   7.609  0.30 31.16 LIG 0.15  C 
ATOM     36  CG2 THR I   4      54.671  35.810   8.338  0.30 31.01 LIG 0.04  C 
BRANCH 35 37
ATOM     37 OG1  THR I   4      54.278  33.872   6.951  0.30 31.22 LIG-0.39  OA
ATOM     38 HG1  THR I   4      54.868  34.164   6.429  0.30 31.22 LIG 0.21  HD
ENDBRANCH 35 37
ENDBRANCH 34 35
BRANCH 34 39
ATOM     39  C   THR I   4      52.573  35.286   9.836  0.30 30.90 LIG 0.24  C 
ATOM     40  N   LYS I   5      53.222  34.781  10.860  0.30 30.59 LIG-0.35  N 
ATOM     41 H    LYS I   5      53.544  33.987  10.917  0.30 30.59 LIG 0.16  HD
ATOM     42 O    THR I   4      51.995  36.369   9.870  0.30 30.97 LIG-0.27  OA
BRANCH 40 43
ATOM     43  CA  LYS I   5      53.412  35.632  11.988  0.30 30.26 LIG 0.16  C 
BRANCH 43 44
ATOM     44  C   LYS I   5      52.069  35.658  12.695  0.30 30.28 LIG 0.22  C 
ATOM     45 O    LYS I   5      51.035  35.356  12.109  0.30 30.24 LIG-0.29  OA
ENDBRANCH 43 44
BRANCH 43 46
ATOM     46  CB  LYS I   5      53.783  37.051  11.617  0.30 30.11 LIG 0.03  C 
BRANCH 46 47
ATOM     47  CG  LYS I   5      54.525  37.790  12.712  0.30 29.43 LIG 0.00  C 
BRANCH 47 48
ATOM     48  CD  LYS I   5      55.988  37.419  12.720  0.30 28.58 LIG 0.03  C 
BRANCH 48 49
ATOM     49  CE  LYS I   5      56.435  37.002  11.328  0.30 28.11 LIG 0.23  C 
BRANCH 49 50
ATOM     50  NZ  LYS I   5      56.814  35.570  11.261  0.30 27.97 LIG-0.08  N 
ATOM     51 HZ1  LYS I   5      56.887  35.321  10.410  0.30 27.97 LIG 0.27  HD
ATOM     52 HZ2  LYS I   5      57.594  35.450  11.673  0.30 27.97 LIG 0.27  HD
ATOM     53 HZ3  LYS I   5      56.188  35.079  11.660  0.30 27.97 LIG 0.27  HD
ENDBRANCH 49 50
ENDBRANCH 48 49
ENDBRANCH 47 48
ENDBRANCH 46 47
ENDBRANCH 43 46
ENDBRANCH 40 43
ENDBRANCH 34 39
ENDBRANCH 31 34
ENDBRANCH 1 30
TORSDOF 23
ENDMDL
MODEL 10
USER: ADFR SOLUTION from run 93
USER: SCORE 19.897640 LL:  -4.312 LR: -17.099 RR:   0.000 FEB: -10.238
USER: RMSD 8.922541
USER: SEED 92
USER: STATUS no improvement in best 2 clusters for 5 generations
USER: GENES 25
USER: genes 0 Translation |==|  0.73134 0.57818 0.40990
USER: genes 1 Rotation |==|  0.62512 0.07095 0.57498 0.71128
USER: genes 2 Torsion [C]-CA--N-[C] |==|  0.79926
USER: genes 3 Torsion [N]-C--CA-[N] |==|  0.36684
USER: genes 4 Torsion [C]-CA--CB-[CG] |==|  0.80042
USER: genes 5 Torsion [CA]-CB--CG-[CD1] |==|  0.26953
USER: genes 6 Torsion [C]-CA--N-[C] |==|  0.74115
USER: genes 7 Torsion [N]-C--CA-[N] |==|  0.56731
USER: genes 8 Torsion [C]-CA--CB-[CG] |==|  0.28778
USER: genes 9 Torsion [CA]-CB--CG-[CD2] |==|  0.95293
USER: genes 10 Torsion [C]-CA--N-[H2] |==|  0.24023
USER: genes 11 Torsion [N]-CA--CB-[OG] |==|  0.33581
USER: genes 12 Torsion [CA]-CB--OG-[HG] |==|  0.37661
USER: genes 13 Torsion [N]-CA--C-[N] |==|  0.35578
USER: genes 14 Torsion [C]-N--CA-[CB] |==|  0.47103
USER: genes 15 Torsion [N]-CA--CB-[CG2] |==|  0.52344
USER: genes 16 Torsion [CA]-CB--OG1-[HG1] |==|  0.19648
USER: genes 17 Torsion [N]-CA--C-[N] |==|  0.90488
USER: genes 18 Torsion [C]-N--CA-[C] |==|  0.18137
USER: genes 19 Torsion [N]-CA--C-[O] |==|  0.06966
USER: genes 20 Torsion [N]-CA--CB-[CG] |==|  0.74587
USER: genes 21 Torsion [CA]-CB--CG-[CD] |==|  0.36660
USER: genes 22 Torsion [CB]-CG--CD-[CE] |==|  0.48018
USER: genes 23 Torsion [CG]-CD--CE-[NZ] |==|  0.14929
USER: genes 24 Torsion [CD]-CE--NZ-[HZ2] |==|  0.77819
ROOT
ATOM      1  CA  SER I   3      52.970  34.165   7.067  0.30 32.02 LIG 0.20  C 
ENDROOT
BRANCH 1 2
ATOM      2  N   SER I   3      52.432  34.760   5.848  0.30 32.24 LIG-0.34  N 
ATOM      3 H    SER I   3      52.930  35.322   5.428  0.30 32.24 LIG 0.16  HD
ATOM      4  C   LEU I   2      51.222  34.367   5.516  0.30 32.50 LIG 0.24  C 
ATOM      5 O    LEU I   2      50.592  33.566   6.204  0.30 32.61 LIG-0.27  OA
BRANCH 4 6
ATOM      6  CA  LEU I   2      50.600  34.900   4.262  0.30 32.74 LIG 0.18  C 
BRANCH 6 7
ATOM      7  CB  LEU I   2      49.519  35.945   4.559  0.30 32.79 LIG 0.04  C 
BRANCH 7 8
ATOM      8  CG  LEU I   2      48.211  35.378   5.160  0.30 32.97 LIG-0.02  C 
ATOM      9  CD1 LEU I   2      48.223  35.517   6.672  0.30 33.23 LIG 0.01  C 
ATOM     10  CD2 LEU I   2      46.989  36.068   4.573  0.30 33.13 LIG 0.01  C 
ENDBRANCH 7 8
ENDBRANCH 6 7
BRANCH 6 11
ATOM     11  N   LEU I   2      50.171  33.623   3.770  0.30 32.86 LIG-0.35  N 
ATOM     12  C   PHE I   1      50.902  32.908   2.951  0.30 33.00 LIG 0.25  C 
ATOM     13 O    PHE I   1      51.888  33.359   2.372  0.30 33.06 LIG-0.27  OA
ATOM     14 H    LEU I   2      49.400  33.376   4.059  0.30 32.86 LIG 0.16  HD
BRANCH 12 15
ATOM     15  CA  PHE I   1      50.462  31.465   2.733  0.30 33.09 LIG 0.28  C 
BRANCH 15 16
ATOM     16  CB  PHE I   1      49.826  30.877   3.971  0.30 33.12 LIG 0.08  C 
BRANCH 16 17
ATOM     17  CG  PHE I   1      48.320  30.751   3.987  0.30 33.22 LIG-0.06  A 
ATOM     18  CD1 PHE I   1      47.606  29.931   4.876  0.30 33.33 LIG 0.01  A 
ATOM     19  CE1 PHE I   1      46.210  29.916   4.834  0.30 33.39 LIG 0.00  A 
ATOM     20  CZ  PHE I   1      45.537  30.695   3.917  0.30 33.40 LIG 0.00  A 
ATOM     21  CE2 PHE I   1      46.230  31.475   3.020  0.30 33.33 LIG 0.00  A 
ATOM     22  CD2 PHE I   1      47.598  31.489   3.057  0.30 33.29 LIG 0.01  A 
ENDBRANCH 16 17
ENDBRANCH 15 16
BRANCH 15 23
ATOM     23  N   PHE I   1      51.584  30.633   2.307  0.30 33.12 LIG-0.07  N 
ATOM     24 H2   PHE I   1      52.017  30.331   3.023  0.30 33.12 LIG 0.28  HD
ATOM     25 H1   PHE I   1      52.139  31.117   1.807  0.30 33.12 LIG 0.28  HD
ATOM     26 H3   PHE I   1      51.280  29.945   1.832  0.30 33.12 LIG 0.28  HD
ENDBRANCH 15 23
ENDBRANCH 12 15
ENDBRANCH 6 11
ENDBRANCH 4 6
ENDBRANCH 1 2
BRANCH 1 27
ATOM     27  CB  SER I   3      54.481  34.405   7.133  0.30 32.04 LIG 0.20  C 
BRANCH 27 28
ATOM     28 OG   SER I   3      54.830  35.126   8.299  0.30 32.08 LIG-0.40  OA
ATOM     29 HG   SER I   3      55.507  34.777   8.652  0.30 32.08 LIG 0.21  HD
ENDBRANCH 27 28
ENDBRANCH 1 27
BRANCH 1 30
ATOM     30  C   SER I   3      52.343  34.663   8.345  0.30 31.77 LIG 0.24  C 
ATOM     31  N   THR I   4      51.875  33.803   9.229  0.30 31.46 LIG-0.34  N 
ATOM     32 H    THR I   4      51.935  32.946   9.206  0.30 31.46 LIG 0.16  HD
ATOM     33 O    SER I   3      52.286  35.872   8.536  0.30 31.84 LIG-0.27  OA
BRANCH 31 34
ATOM     34  CA  THR I   4      51.192  34.393  10.350  0.30 31.16 LIG 0.20  C 
BRANCH 34 35
ATOM     35  CB  THR I   4      50.487  33.303  11.145  0.30 31.16 LIG 0.15  C 
ATOM     36  CG2 THR I   4      49.589  33.904  12.212  0.30 31.01 LIG 0.04  C 
BRANCH 35 37
ATOM     37 OG1  THR I   4      49.710  32.491  10.256  0.30 31.22 LIG-0.39  OA
ATOM     38 HG1  THR I   4      50.224  32.027   9.781  0.30 31.22 LIG 0.21  HD
ENDBRANCH 35 37
ENDBRANCH 34 35
BRANCH 34 39
ATOM     39  C   THR I   4      52.077  35.212  11.273  0.30 30.90 LIG 0.24  C 
ATOM     40  N   LYS I   5      53.305  34.770  11.410  0.30 30.59 LIG-0.35  N 
ATOM     41 H    LYS I   5      53.611  34.017  11.129  0.30 30.59 LIG 0.16  HD
ATOM     42 O    THR I   4      51.655  36.220  11.834  0.30 30.97 LIG-0.27  OA
BRANCH 40 43
ATOM     43  CA  LYS I   5      54.226  35.618  12.093  0.30 30.26 LIG 0.16  C 
BRANCH 43 44
ATOM     44  C   LYS I   5      53.706  35.702  13.517  0.30 30.28 LIG 0.22  C 
ATOM     45 O    LYS I   5      53.009  34.812  13.994  0.30 30.24 LIG-0.29  OA
ENDBRANCH 43 44
BRANCH 43 46
ATOM     46  CB  LYS I   5      54.289  37.019  11.525  0.30 30.11 LIG 0.03  C 
BRANCH 46 47
ATOM     47  CG  LYS I   5      55.348  37.192  10.455  0.30 29.43 LIG 0.00  C 
BRANCH 47 48
ATOM     48  CD  LYS I   5      54.785  37.893   9.244  0.30 28.58 LIG 0.03  C 
BRANCH 48 49
ATOM     49  CE  LYS I   5      55.895  38.216   8.256  0.30 28.11 LIG 0.23  C 
BRANCH 49 50
ATOM     50  NZ  LYS I   5      56.695  37.020   7.895  0.30 27.97 LIG-0.08  N 
ATOM     51 HZ1  LYS I   5      57.126  37.171   7.131  0.30 27.97 LIG 0.27  HD
ATOM     52 HZ2  LYS I   5      57.285  36.853   8.540  0.30 27.97 LIG 0.27  HD
ATOM     53 HZ3  LYS I   5      56.155  36.320   7.797  0.30 27.97 LIG 0.27  HD
ENDBRANCH 49 50
ENDBRANCH 48 49
ENDBRANCH 47 48
ENDBRANCH 46 47
ENDBRANCH 43 46
ENDBRANCH 40 43
ENDBRANCH 34 39
ENDBRANCH 31 34
ENDBRANCH 1 30
TORSDOF 23
ENDMDL
MODEL 11
USER: ADFR SOLUTION from run 147
USER: SCORE 19.070270 LL:  -3.637 LR: -17.086 RR:   0.000 FEB: -10.226
USER: RMSD 10.619615
USER: SEED 146
USER: STATUS no improvement in best 8 clusters for 5 generations
USER: GENES 25
USER: genes 0 Translation |==|  0.76492 0.67453 0.43933
USER: genes 1 Rotation |==|  0.85400 0.28953 0.61033 0.76117
USER: genes 2 Torsion [C]-CA--N-[C] |==|  0.75556
USER: genes 3 Torsion [N]-C--CA-[N] |==|  0.32822
USER: genes 4 Torsion [C]-CA--CB-[CG] |==|  0.40211
USER: genes 5 Torsion [CA]-CB--CG-[CD1] |==|  0.99426
USER: genes 6 Torsion [C]-CA--N-[C] |==|  0.68018
USER: genes 7 Torsion [N]-C--CA-[N] |==|  0.84360
USER: genes 8 Torsion [C]-CA--CB-[CG] |==|  0.13093
USER: genes 9 Torsion [CA]-CB--CG-[CD2] |==|  0.79101
USER: genes 10 Torsion [C]-CA--N-[H2] |==|  0.27978
USER: genes 11 Torsion [N]-CA--CB-[OG] |==|  0.94359
USER: genes 12 Torsion [CA]-CB--OG-[HG] |==|  0.81690
USER: genes 13 Torsion [N]-CA--C-[N] |==|  0.19394
USER: genes 14 Torsion [C]-N--CA-[CB] |==|  0.40691
USER: genes 15 Torsion [N]-CA--CB-[CG2] |==|  0.64849
USER: genes 16 Torsion [CA]-CB--OG1-[HG1] |==|  0.15810
USER: genes 17 Torsion [N]-CA--C-[N] |==|  0.91989
USER: genes 18 Torsion [C]-N--CA-[C] |==|  0.18623
USER: genes 19 Torsion [N]-CA--C-[O] |==|  0.14736
USER: genes 20 Torsion [N]-CA--CB-[CG] |==|  0.76654
USER: genes 21 Torsion [CA]-CB--CG-[CD] |==|  0.19489
USER: genes 22 Torsion [CB]-CG--CD-[CE] |==|  0.56329
USER: genes 23 Torsion [CG]-CD--CE-[NZ] |==|  0.29460
USER: genes 24 Torsion [CD]-CE--NZ-[HZ2] |==|  0.10813
ROOT
ATOM      1  CA  SER I   3      53.978  37.056   7.950  0.30 32.02 LIG 0.20  C 
ENDROOT
BRANCH 1 2
ATOM      2  N   SER I   3      52.693  36.551   7.475  0.30 32.24 LIG-0.34  N 
ATOM      3 H    SER I   3      52.070  37.127   7.330  0.30 32.24 LIG 0.16  HD
ATOM      4  C   LEU I   2      52.625  35.248   7.315  0.30 32.50 LIG 0.24  C 
ATOM      5 O    LEU I   2      53.579  34.516   7.568  0.30 32.61 LIG-0.27  OA
BRANCH 4 6
ATOM      6  CA  LEU I   2      51.355  34.643   6.800  0.30 32.74 LIG 0.18  C 
BRANCH 6 7
ATOM      7  CB  LEU I   2      50.743  33.659   7.803  0.30 32.79 LIG 0.04  C 
BRANCH 7 8
ATOM      8  CG  LEU I   2      49.196  33.641   7.838  0.30 32.97 LIG-0.02  C 
ATOM      9  CD1 LEU I   2      48.636  34.672   6.873  0.30 33.23 LIG 0.01  C 
ATOM     10  CD2 LEU I   2      48.651  32.258   7.513  0.30 33.13 LIG 0.01  C 
ENDBRANCH 7 8
ENDBRANCH 6 7
BRANCH 6 11
ATOM     11  N   LEU I   2      51.938  34.098   5.608  0.30 32.86 LIG-0.35  N 
ATOM     12  C   PHE I   1      51.597  34.509   4.412  0.30 33.00 LIG 0.25  C 
ATOM     13 O    PHE I   1      50.611  35.215   4.207  0.30 33.06 LIG-0.27  OA
ATOM     14 H    LEU I   2      52.524  33.486   5.752  0.30 32.86 LIG 0.16  HD
BRANCH 12 15
ATOM     15  CA  PHE I   1      52.484  34.055   3.259  0.30 33.09 LIG 0.28  C 
BRANCH 15 16
ATOM     16  CB  PHE I   1      52.398  32.563   3.036  0.30 33.12 LIG 0.08  C 
BRANCH 16 17
ATOM     17  CG  PHE I   1      51.020  31.943   2.996  0.30 33.22 LIG-0.06  A 
ATOM     18  CD1 PHE I   1      50.376  31.528   1.820  0.30 33.33 LIG 0.01  A 
ATOM     19  CE1 PHE I   1      49.116  30.930   1.895  0.30 33.39 LIG 0.00  A 
ATOM     20  CZ  PHE I   1      48.505  30.757   3.119  0.30 33.40 LIG 0.00  A 
ATOM     21  CE2 PHE I   1      49.114  31.192   4.273  0.30 33.33 LIG 0.00  A 
ATOM     22  CD2 PHE I   1      50.348  31.782   4.201  0.30 33.29 LIG 0.01  A 
ENDBRANCH 16 17
ENDBRANCH 15 16
BRANCH 15 23
ATOM     23  N   PHE I   1      53.873  34.445   3.482  0.30 33.12 LIG-0.07  N 
ATOM     24 H2   PHE I   1      54.335  33.744   3.780  0.30 33.12 LIG 0.28  HD
ATOM     25 H1   PHE I   1      53.905  35.099   4.086  0.30 33.12 LIG 0.28  HD
ATOM     26 H3   PHE I   1      54.228  34.730   2.718  0.30 33.12 LIG 0.28  HD
ENDBRANCH 15 23
ENDBRANCH 12 15
ENDBRANCH 6 11
ENDBRANCH 4 6
ENDBRANCH 1 2
BRANCH 1 27
ATOM     27  CB  SER I   3      54.215  38.463   7.395  0.30 32.04 LIG 0.20  C 
BRANCH 27 28
ATOM     28 OG   SER I   3      53.411  38.701   6.255  0.30 32.08 LIG-0.40  OA
ATOM     29 HG   SER I   3      53.654  38.195   5.630  0.30 32.08 LIG 0.21  HD
ENDBRANCH 27 28
ENDBRANCH 1 27
BRANCH 1 30
ATOM     30  C   SER I   3      54.128  37.094   9.450  0.30 31.77 LIG 0.24  C 
ATOM     31  N   THR I   4      54.226  35.970  10.132  0.30 31.46 LIG-0.34  N 
ATOM     32 H    THR I   4      54.281  35.171   9.818  0.30 31.46 LIG 0.16  HD
ATOM     33 O    SER I   3      54.159  38.186  10.007  0.30 31.84 LIG-0.27  OA
BRANCH 31 34
ATOM     34  CA  THR I   4      54.242  36.125  11.563  0.30 31.16 LIG 0.20  C 
BRANCH 34 35
ATOM     35  CB  THR I   4      53.550  34.933  12.210  0.30 31.16 LIG 0.15  C 
ATOM     36  CG2 THR I   4      52.454  35.391  13.156  0.30 31.01 LIG 0.04  C 
BRANCH 35 37
ATOM     37 OG1  THR I   4      52.994  34.094  11.191  0.30 31.22 LIG-0.39  OA
ATOM     38 HG1  THR I   4      53.601  33.856  10.662  0.30 31.22 LIG 0.21  HD
ENDBRANCH 35 37
ENDBRANCH 34 35
BRANCH 34 39
ATOM     39  C   THR I   4      55.625  36.307  12.166  0.30 30.90 LIG 0.24  C 
ATOM     40  N   LYS I   5      56.605  35.740  11.501  0.30 30.59 LIG-0.35  N 
ATOM     41 H    LYS I   5      56.525  35.194  10.842  0.30 30.59 LIG 0.16  HD
ATOM     42 O    THR I   4      55.792  36.950  13.199  0.30 30.97 LIG-0.27  OA
BRANCH 40 43
ATOM     43  CA  LYS I   5      57.933  36.060  11.910  0.30 30.26 LIG 0.16  C 
BRANCH 43 44
ATOM     44  C   LYS I   5      58.079  35.453  13.293  0.30 30.28 LIG 0.22  C 
ATOM     45 O    LYS I   5      57.825  34.270  13.500  0.30 30.24 LIG-0.29  OA
ENDBRANCH 43 44
BRANCH 43 46
ATOM     46  CB  LYS I   5      58.189  37.547  12.013  0.30 30.11 LIG 0.03  C 
BRANCH 46 47
ATOM     47  CG  LYS I   5      58.558  38.192  10.692  0.30 29.43 LIG 0.00  C 
BRANCH 47 48
ATOM     48  CD  LYS I   5      57.371  38.237   9.761  0.30 28.58 LIG 0.03  C 
BRANCH 48 49
ATOM     49  CE  LYS I   5      57.837  38.343   8.317  0.30 28.11 LIG 0.23  C 
BRANCH 49 50
ATOM     50  NZ  LYS I   5      57.670  37.070   7.574  0.30 27.97 LIG-0.08  N 
ATOM     51 HZ1  LYS I   5      58.349  36.526   7.760  0.30 27.97 LIG 0.27  HD
ATOM     52 HZ2  LYS I   5      56.905  36.683   7.816  0.30 27.97 LIG 0.27  HD
ATOM     53 HZ3  LYS I   5      57.655  37.236   6.700  0.30 27.97 LIG 0.27  HD
ENDBRANCH 49 50
ENDBRANCH 48 49
ENDBRANCH 47 48
ENDBRANCH 46 47
ENDBRANCH 43 46
ENDBRANCH 40 43
ENDBRANCH 34 39
ENDBRANCH 31 34
ENDBRANCH 1 30
TORSDOF 23
ENDMDL
MODEL 12
USER: ADFR SOLUTION from run 111
USER: SCORE 19.531747 LL:  -4.577 LR: -16.991 RR:   0.000 FEB: -10.130
USER: RMSD 8.946508
USER: SEED 110
USER: STATUS 1 or 2 clusters left
USER: GENES 25
USER: genes 0 Translation |==|  0.59165 0.51141 0.49637
USER: genes 1 Rotation |==|  0.23979 0.10112 0.54943 0.64403
USER: genes 2 Torsion [C]-CA--N-[C] |==|  0.81548
USER: genes 3 Torsion [N]-C--CA-[N] |==|  0.76271
USER: genes 4 Torsion [C]-CA--CB-[CG] |==|  0.29637
USER: genes 5 Torsion [CA]-CB--CG-[CD1] |==|  0.34722
USER: genes 6 Torsion [C]-CA--N-[C] |==|  0.51119
USER: genes 7 Torsion [N]-C--CA-[N] |==|  0.44090
USER: genes 8 Torsion [C]-CA--CB-[CG] |==|  0.09469
USER: genes 9 Torsion [CA]-CB--CG-[CD2] |==|  0.27168
USER: genes 10 Torsion [C]-CA--N-[H2] |==|  0.78606
USER: genes 11 Torsion [N]-CA--CB-[OG] |==|  0.95217
USER: genes 12 Torsion [CA]-CB--OG-[HG] |==|  0.15626
USER: genes 13 Torsion [N]-CA--C-[N] |==|  0.91403
USER: genes 14 Torsion [C]-N--CA-[CB] |==|  0.23621
USER: genes 15 Torsion [N]-CA--CB-[CG2] |==|  0.26553
USER: genes 16 Torsion [CA]-CB--OG1-[HG1] |==|  0.07851
USER: genes 17 Torsion [N]-CA--C-[N] |==|  0.88333
USER: genes 18 Torsion [C]-N--CA-[C] |==|  0.49072
USER: genes 19 Torsion [N]-CA--C-[O] |==|  0.10524
USER: genes 20 Torsion [N]-CA--CB-[CG] |==|  0.14905
USER: genes 21 Torsion [CA]-CB--CG-[CD] |==|  0.34496
USER: genes 22 Torsion [CB]-CG--CD-[CE] |==|  0.98813
USER: genes 23 Torsion [CG]-CD--CE-[NZ] |==|  0.71072
USER: genes 24 Torsion [CD]-CE--NZ-[HZ2] |==|  0.19276
ROOT
ATOM      1  CA  SER I   3      48.779  32.162   9.661  0.30 32.02 LIG 0.20  C 
ENDROOT
BRANCH 1 2
ATOM      2  N   SER I   3      49.243  31.870   8.308  0.30 32.24 LIG-0.34  N 
ATOM      3 H    SER I   3      49.756  31.188   8.204  0.30 32.24 LIG 0.16  HD
ATOM      4  C   LEU I   2      48.817  32.696   7.377  0.30 32.50 LIG 0.24  C 
ATOM      5 O    LEU I   2      48.095  33.654   7.645  0.30 32.61 LIG-0.27  OA
BRANCH 4 6
ATOM      6  CA  LEU I   2      49.216  32.456   5.953  0.30 32.74 LIG 0.18  C 
BRANCH 6 7
ATOM      7  CB  LEU I   2      49.256  30.962   5.615  0.30 32.79 LIG 0.04  C 
BRANCH 7 8
ATOM      8  CG  LEU I   2      48.093  30.462   4.725  0.30 32.97 LIG-0.02  C 
ATOM      9  CD1 LEU I   2      48.638  29.769   3.488  0.30 33.23 LIG 0.01  C 
ATOM     10  CD2 LEU I   2      47.170  29.529   5.493  0.30 33.13 LIG 0.01  C 
ENDBRANCH 7 8
ENDBRANCH 6 7
BRANCH 6 11
ATOM     11  N   LEU I   2      50.468  33.149   6.044  0.30 32.86 LIG-0.35  N 
ATOM     12  C   PHE I   1      51.247  33.325   5.005  0.30 33.00 LIG 0.25  C 
ATOM     13 O    PHE I   1      51.083  32.728   3.943  0.30 33.06 LIG-0.27  OA
ATOM     14 H    LEU I   2      50.655  33.434   6.833  0.30 32.86 LIG 0.16  HD
BRANCH 12 15
ATOM     15  CA  PHE I   1      52.396  34.310   5.177  0.30 33.09 LIG 0.28  C 
BRANCH 15 16
ATOM     16  CB  PHE I   1      51.928  35.744   5.079  0.30 33.12 LIG 0.08  C 
BRANCH 16 17
ATOM     17  CG  PHE I   1      50.550  36.065   5.612  0.30 33.22 LIG-0.06  A 
ATOM     18  CD1 PHE I   1      49.361  35.868   4.892  0.30 33.33 LIG 0.01  A 
ATOM     19  CE1 PHE I   1      48.134  36.161   5.491  0.30 33.39 LIG 0.00  A 
ATOM     20  CZ  PHE I   1      48.092  36.649   6.780  0.30 33.40 LIG 0.00  A 
ATOM     21  CE2 PHE I   1      49.255  36.876   7.480  0.30 33.33 LIG 0.00  A 
ATOM     22  CD2 PHE I   1      50.459  36.593   6.893  0.30 33.29 LIG 0.01  A 
ENDBRANCH 16 17
ENDBRANCH 15 16
BRANCH 15 23
ATOM     23  N   PHE I   1      53.450  34.063   4.198  0.30 33.12 LIG-0.07  N 
ATOM     24 H2   PHE I   1      53.928  33.355   4.447  0.30 33.12 LIG 0.28  HD
ATOM     25 H1   PHE I   1      53.981  34.776   4.146  0.30 33.12 LIG 0.28  HD
ATOM     26 H3   PHE I   1      53.084  33.908   3.401  0.30 33.12 LIG 0.28  HD
ENDBRANCH 15 23
ENDBRANCH 12 15
ENDBRANCH 6 11
ENDBRANCH 4 6
ENDBRANCH 1 2
BRANCH 1 27
ATOM     27  CB  SER I   3      49.154  31.007  10.593  0.30 32.04 LIG 0.20  C 
BRANCH 27 28
ATOM     28 OG   SER I   3      49.472  29.842   9.856  0.30 32.08 LIG-0.40  OA
ATOM     29 HG   SER I   3      50.089  30.014   9.312  0.30 32.08 LIG 0.21  HD
ENDBRANCH 27 28
ENDBRANCH 1 27
BRANCH 1 30
ATOM     30  C   SER I   3      49.305  33.449  10.247  0.30 31.77 LIG 0.24  C 
ATOM     31  N   THR I   4      50.497  33.894   9.899  0.30 31.46 LIG-0.34  N 
ATOM     32 H    THR I   4      51.024  33.566   9.304  0.30 31.46 LIG 0.16  HD
ATOM     33 O    SER I   3      48.600  34.061  11.041  0.30 31.84 LIG-0.27  OA
BRANCH 31 34
ATOM     34  CA  THR I   4      50.942  35.062  10.612  0.30 31.16 LIG 0.20  C 
BRANCH 34 35
ATOM     35  CB  THR I   4      51.595  34.640  11.921  0.30 31.16 LIG 0.15  C 
ATOM     36  CG2 THR I   4      53.103  34.541  11.768  0.30 31.01 LIG 0.04  C 
BRANCH 35 37
ATOM     37 OG1  THR I   4      51.271  35.590  12.943  0.30 31.22 LIG-0.39  OA
ATOM     38 HG1  THR I   4      50.530  35.945  12.770  0.30 31.22 LIG 0.21  HD
ENDBRANCH 35 37
ENDBRANCH 34 35
BRANCH 34 39
ATOM     39  C   THR I   4      51.888  35.959   9.831  0.30 30.90 LIG 0.24  C 
ATOM     40  N   LYS I   5      52.809  35.333   9.136  0.30 30.59 LIG-0.35  N 
ATOM     41 H    LYS I   5      52.994  34.495   9.175  0.30 30.59 LIG 0.16  HD
ATOM     42 O    THR I   4      51.775  37.182   9.857  0.30 30.97 LIG-0.27  OA
BRANCH 40 43
ATOM     43  CA  LYS I   5      53.579  36.118   8.229  0.30 30.26 LIG 0.16  C 
BRANCH 43 44
ATOM     44  C   LYS I   5      54.599  35.158   7.643  0.30 30.28 LIG 0.22  C 
ATOM     45 O    LYS I   5      54.304  33.996   7.383  0.30 30.24 LIG-0.29  OA
ENDBRANCH 43 44
BRANCH 43 46
ATOM     46  CB  LYS I   5      54.322  37.254   8.896  0.30 30.11 LIG 0.03  C 
BRANCH 46 47
ATOM     47  CG  LYS I   5      55.190  36.813  10.058  0.30 29.43 LIG 0.00  C 
BRANCH 47 48
ATOM     48  CD  LYS I   5      56.621  37.247   9.860  0.30 28.58 LIG 0.03  C 
BRANCH 48 49
ATOM     49  CE  LYS I   5      56.790  37.909   8.501  0.30 28.11 LIG 0.23  C 
BRANCH 49 50
ATOM     50  NZ  LYS I   5      57.461  37.022   7.520  0.30 27.97 LIG-0.08  N 
ATOM     51 HZ1  LYS I   5      58.208  36.695   7.877  0.30 27.97 LIG 0.27  HD
ATOM     52 HZ2  LYS I   5      56.917  36.352   7.305  0.30 27.97 LIG 0.27  HD
ATOM     53 HZ3  LYS I   5      57.662  37.488   6.789  0.30 27.97 LIG 0.27  HD
ENDBRANCH 49 50
ENDBRANCH 48 49
ENDBRANCH 47 48
ENDBRANCH 46 47
ENDBRANCH 43 46
ENDBRANCH 40 43
ENDBRANCH 34 39
ENDBRANCH 31 34
ENDBRANCH 1 30
TORSDOF 23
ENDMDL
MODEL 13
USER: ADFR SOLUTION from run 46
USER: SCORE 18.531400 LL:  -3.448 LR: -16.983 RR:   0.000 FEB: -10.122
USER: RMSD 12.031959
USER: SEED 45
USER: STATUS 1 or 2 clusters left
USER: GENES 25
USER: genes 0 Translation |==|  0.62595 0.51536 0.27635
USER: genes 1 Rotation |==|  0.32198 0.84882 0.81040 0.51691
USER: genes 2 Torsion [C]-CA--N-[C] |==|  0.14488
USER: genes 3 Torsion [N]-C--CA-[N] |==|  0.68789
USER: genes 4 Torsion [C]-CA--CB-[CG] |==|  0.31254
USER: genes 5 Torsion [CA]-CB--CG-[CD1] |==|  0.31063
USER: genes 6 Torsion [C]-CA--N-[C] |==|  0.21667
USER: genes 7 Torsion [N]-C--CA-[N] |==|  0.44626
USER: genes 8 Torsion [C]-CA--CB-[CG] |==|  0.79219
USER: genes 9 Torsion [CA]-CB--CG-[CD2] |==|  0.69442
USER: genes 10 Torsion [C]-CA--N-[H2] |==|  0.63592
USER: genes 11 Torsion [N]-CA--CB-[OG] |==|  0.93881
USER: genes 12 Torsion [CA]-CB--OG-[HG] |==|  0.71349
USER: genes 13 Torsion [N]-CA--C-[N] |==|  0.10589
USER: genes 14 Torsion [C]-N--CA-[CB] |==|  0.19352
USER: genes 15 Torsion [N]-CA--CB-[CG2] |==|  0.24578
USER: genes 16 Torsion [CA]-CB--OG1-[HG1] |==|  0.20552
USER: genes 17 Torsion [N]-CA--C-[N] |==|  0.53434
USER: genes 18 Torsion [C]-N--CA-[C] |==|  0.71615
USER: genes 19 Torsion [N]-CA--C-[O] |==|  0.66040
USER: genes 20 Torsion [N]-CA--CB-[CG] |==|  0.04058
USER: genes 21 Torsion [CA]-CB--CG-[CD] |==|  0.58478
USER: genes 22 Torsion [CB]-CG--CD-[CE] |==|  0.66969
USER: genes 23 Torsion [CG]-CD--CE-[NZ] |==|  0.81613
USER: genes 24 Torsion [CD]-CE--NZ-[HZ2] |==|  0.28080
ROOT
ATOM      1  CA  SER I   3      49.809  32.281   3.061  0.30 32.02 LIG 0.20  C 
ENDROOT
BRANCH 1 2
ATOM      2  N   SER I   3      49.688  33.371   4.023  0.30 32.24 LIG-0.34  N 
ATOM      3 H    SER I   3      49.666  34.173   3.713  0.30 32.24 LIG 0.16  HD
ATOM      4  C   LEU I   2      49.625  33.005   5.285  0.30 32.50 LIG 0.24  C 
ATOM      5 O    LEU I   2      49.682  31.823   5.616  0.30 32.61 LIG-0.27  OA
BRANCH 4 6
ATOM      6  CA  LEU I   2      49.467  34.054   6.341  0.30 32.74 LIG 0.18  C 
BRANCH 6 7
ATOM      7  CB  LEU I   2      49.151  35.428   5.740  0.30 32.79 LIG 0.04  C 
BRANCH 7 8
ATOM      8  CG  LEU I   2      47.733  35.964   6.047  0.30 32.97 LIG-0.02  C 
ATOM      9  CD1 LEU I   2      47.815  37.170   6.968  0.30 33.23 LIG 0.01  C 
ATOM     10  CD2 LEU I   2      46.988  36.322   4.770  0.30 33.13 LIG 0.01  C 
ENDBRANCH 7 8
ENDBRANCH 6 7
BRANCH 6 11
ATOM     11  N   LEU I   2      50.768  33.865   6.915  0.30 32.86 LIG-0.35  N 
ATOM     12  C   PHE I   1      51.853  34.350   6.363  0.30 33.00 LIG 0.25  C 
ATOM     13 O    PHE I   1      51.874  34.800   5.219  0.30 33.06 LIG-0.27  OA
ATOM     14 H    LEU I   2      50.767  33.410   7.644  0.30 32.86 LIG 0.16  HD
BRANCH 12 15
ATOM     15  CA  PHE I   1      53.118  34.320   7.213  0.30 33.09 LIG 0.28  C 
BRANCH 15 16
ATOM     16  CB  PHE I   1      53.112  35.400   8.269  0.30 33.12 LIG 0.08  C 
BRANCH 16 17
ATOM     17  CG  PHE I   1      53.370  36.819   7.816  0.30 33.22 LIG-0.06  A 
ATOM     18  CD1 PHE I   1      52.473  37.576   7.045  0.30 33.33 LIG 0.01  A 
ATOM     19  CE1 PHE I   1      52.790  38.894   6.711  0.30 33.39 LIG 0.00  A 
ATOM     20  CZ  PHE I   1      53.983  39.446   7.129  0.30 33.40 LIG 0.00  A 
ATOM     21  CE2 PHE I   1      54.882  38.700   7.856  0.30 33.33 LIG 0.00  A 
ATOM     22  CD2 PHE I   1      54.574  37.407   8.181  0.30 33.29 LIG 0.01  A 
ENDBRANCH 16 17
ENDBRANCH 15 16
BRANCH 15 23
ATOM     23  N   PHE I   1      54.311  34.444   6.381  0.30 33.12 LIG-0.07  N 
ATOM     24 H2   PHE I   1      54.896  33.811   6.602  0.30 33.12 LIG 0.28  HD
ATOM     25 H1   PHE I   1      54.679  35.245   6.508  0.30 33.12 LIG 0.28  HD
ATOM     26 H3   PHE I   1      54.087  34.354   5.524  0.30 33.12 LIG 0.28  HD
ENDBRANCH 15 23
ENDBRANCH 12 15
ENDBRANCH 6 11
ENDBRANCH 4 6
ENDBRANCH 1 2
BRANCH 1 27
ATOM     27  CB  SER I   3      51.200  31.652   3.168  0.30 32.04 LIG 0.20  C 
BRANCH 27 28
ATOM     28 OG   SER I   3      52.121  32.553   3.752  0.30 32.08 LIG-0.40  OA
ATOM     29 HG   SER I   3      52.611  32.880   3.154  0.30 32.08 LIG 0.21  HD
ENDBRANCH 27 28
ENDBRANCH 1 27
BRANCH 1 30
ATOM     30  C   SER I   3      48.772  31.194   3.201  0.30 31.77 LIG 0.24  C 
ATOM     31  N   THR I   4      47.528  31.505   3.509  0.30 31.46 LIG-0.34  N 
ATOM     32 H    THR I   4      47.190  32.291   3.586  0.30 31.46 LIG 0.16  HD
ATOM     33 O    SER I   3      49.116  30.032   3.019  0.30 31.84 LIG-0.27  OA
BRANCH 31 34
ATOM     34  CA  THR I   4      46.658  30.381   3.735  0.30 31.16 LIG 0.20  C 
BRANCH 34 35
ATOM     35  CB  THR I   4      47.055  29.684   5.029  0.30 31.16 LIG 0.15  C 
ATOM     36  CG2 THR I   4      46.335  30.295   6.218  0.30 31.01 LIG 0.04  C 
BRANCH 35 37
ATOM     37 OG1  THR I   4      46.741  28.290   4.934  0.30 31.22 LIG-0.39  OA
ATOM     38 HG1  THR I   4      47.294  27.911   4.428  0.30 31.22 LIG 0.21  HD
ENDBRANCH 35 37
ENDBRANCH 34 35
BRANCH 34 39
ATOM     39  C   THR I   4      45.178  30.721   3.768  0.30 30.90 LIG 0.24  C 
ATOM     40  N   LYS I   5      44.394  29.770   4.220  0.30 30.59 LIG-0.35  N 
ATOM     41 H    LYS I   5      44.620  28.957   4.382  0.30 30.59 LIG 0.16  HD
ATOM     42 O    THR I   4      44.766  31.818   3.400  0.30 30.97 LIG-0.27  OA
BRANCH 40 43
ATOM     43  CA  LYS I   5      43.033  30.116   4.465  0.30 30.26 LIG 0.16  C 
BRANCH 43 44
ATOM     44  C   LYS I   5      42.932  30.285   5.970  0.30 30.28 LIG 0.22  C 
ATOM     45 O    LYS I   5      42.143  29.620   6.634  0.30 30.24 LIG-0.29  OA
ENDBRANCH 43 44
BRANCH 43 46
ATOM     46  CB  LYS I   5      42.053  29.044   4.040  0.30 30.11 LIG 0.03  C 
BRANCH 46 47
ATOM     47  CG  LYS I   5      42.702  27.701   3.771  0.30 29.43 LIG 0.00  C 
BRANCH 47 48
ATOM     48  CD  LYS I   5      41.947  26.936   2.713  0.30 28.58 LIG 0.03  C 
BRANCH 48 49
ATOM     49  CE  LYS I   5      41.420  25.627   3.282  0.30 28.11 LIG 0.23  C 
BRANCH 49 50
ATOM     50  NZ  LYS I   5      42.510  24.688   3.642  0.30 27.97 LIG-0.08  N 
ATOM     51 HZ1  LYS I   5      43.258  24.926   3.223  0.30 27.97 LIG 0.27  HD
ATOM     52 HZ2  LYS I   5      42.643  24.712   4.522  0.30 27.97 LIG 0.27  HD
ATOM     53 HZ3  LYS I   5      42.283  23.863   3.398  0.30 27.97 LIG 0.27  HD
ENDBRANCH 49 50
ENDBRANCH 48 49
ENDBRANCH 47 48
ENDBRANCH 46 47
ENDBRANCH 43 46
ENDBRANCH 40 43
ENDBRANCH 34 39
ENDBRANCH 31 34
ENDBRANCH 1 30
TORSDOF 23
ENDMDL
MODEL 14
USER: ADFR SOLUTION from run 84
USER: SCORE 19.474649 LL:  -3.312 LR: -16.860 RR:   0.000 FEB:  -9.999
USER: RMSD 10.552676
USER: SEED 83
USER: STATUS no improvement in best 6 clusters for 5 generations
USER: GENES 25
USER: genes 0 Translation |==|  0.74175 0.61265 0.43670
USER: genes 1 Rotation |==|  0.40921 0.16060 0.52726 0.85471
USER: genes 2 Torsion [C]-CA--N-[C] |==|  0.68938
USER: genes 3 Torsion [N]-C--CA-[N] |==|  0.10357
USER: genes 4 Torsion [C]-CA--CB-[CG] |==|  0.22949
USER: genes 5 Torsion [CA]-CB--CG-[CD1] |==|  0.34797
USER: genes 6 Torsion [C]-CA--N-[C] |==|  0.17778
USER: genes 7 Torsion [N]-C--CA-[N] |==|  0.14952
USER: genes 8 Torsion [C]-CA--CB-[CG] |==|  0.17919
USER: genes 9 Torsion [CA]-CB--CG-[CD2] |==|  0.25684
USER: genes 10 Torsion [C]-CA--N-[H2] |==|  0.78009
USER: genes 11 Torsion [N]-CA--CB-[OG] |==|  0.86933
USER: genes 12 Torsion [CA]-CB--OG-[HG] |==|  0.38860
USER: genes 13 Torsion [N]-CA--C-[N] |==|  0.27093
USER: genes 14 Torsion [C]-N--CA-[CB] |==|  0.82220
USER: genes 15 Torsion [N]-CA--CB-[CG2] |==|  0.52191
USER: genes 16 Torsion [CA]-CB--OG1-[HG1] |==|  0.16910
USER: genes 17 Torsion [N]-CA--C-[N] |==|  0.98815
USER: genes 18 Torsion [C]-N--CA-[C] |==|  0.52536
USER: genes 19 Torsion [N]-CA--C-[O] |==|  0.00357
USER: genes 20 Torsion [N]-CA--CB-[CG] |==|  0.09608
USER: genes 21 Torsion [CA]-CB--CG-[CD] |==|  0.62409
USER: genes 22 Torsion [CB]-CG--CD-[CE] |==|  0.41099
USER: genes 23 Torsion [CG]-CD--CE-[NZ] |==|  0.03387
USER: genes 24 Torsion [CD]-CE--NZ-[HZ2] |==|  0.45388
ROOT
ATOM      1  CA  SER I   3      53.282  35.200   7.871  0.30 32.02 LIG 0.20  C 
ENDROOT
BRANCH 1 2
ATOM      2  N   SER I   3      52.576  35.850   6.772  0.30 32.24 LIG-0.34  N 
ATOM      3 H    SER I   3      53.052  36.195   6.144  0.30 32.24 LIG 0.16  HD
ATOM      4  C   LEU I   2      51.264  35.840   6.861  0.30 32.50 LIG 0.24  C 
ATOM      5 O    LEU I   2      50.687  35.329   7.818  0.30 32.61 LIG-0.27  OA
BRANCH 4 6
ATOM      6  CA  LEU I   2      50.454  36.456   5.763  0.30 32.74 LIG 0.18  C 
BRANCH 6 7
ATOM      7  CB  LEU I   2      49.010  35.943   5.760  0.30 32.79 LIG 0.04  C 
BRANCH 7 8
ATOM      8  CG  LEU I   2      48.062  36.655   6.754  0.30 32.97 LIG-0.02  C 
ATOM      9  CD1 LEU I   2      46.845  37.195   6.025  0.30 33.23 LIG 0.01  C 
ATOM     10  CD2 LEU I   2      47.637  35.722   7.878  0.30 33.13 LIG 0.01  C 
ENDBRANCH 7 8
ENDBRANCH 6 7
BRANCH 6 11
ATOM     11  N   LEU I   2      51.314  36.022   4.700  0.30 32.86 LIG-0.35  N 
ATOM     12  C   PHE I   1      51.498  34.755   4.423  0.30 33.00 LIG 0.25  C 
ATOM     13 O    PHE I   1      51.138  33.850   5.174  0.30 33.06 LIG-0.27  OA
ATOM     14 H    LEU I   2      51.692  36.663   4.270  0.30 32.86 LIG 0.16  HD
BRANCH 12 15
ATOM     15  CA  PHE I   1      52.203  34.443   3.108  0.30 33.09 LIG 0.28  C 
BRANCH 15 16
ATOM     16  CB  PHE I   1      52.425  32.959   2.927  0.30 33.12 LIG 0.08  C 
BRANCH 16 17
ATOM     17  CG  PHE I   1      51.200  32.083   2.798  0.30 33.22 LIG-0.06  A 
ATOM     18  CD1 PHE I   1      50.518  31.517   3.887  0.30 33.33 LIG 0.01  A 
ATOM     19  CE1 PHE I   1      49.371  30.752   3.662  0.30 33.39 LIG 0.00  A 
ATOM     20  CZ  PHE I   1      48.917  30.547   2.376  0.30 33.40 LIG 0.00  A 
ATOM     21  CE2 PHE I   1      49.599  31.070   1.302  0.30 33.33 LIG 0.00  A 
ATOM     22  CD2 PHE I   1      50.726  31.817   1.520  0.30 33.29 LIG 0.01  A 
ENDBRANCH 16 17
ENDBRANCH 15 16
BRANCH 15 23
ATOM     23  N   PHE I   1      53.476  35.151   3.016  0.30 33.12 LIG-0.07  N 
ATOM     24 H2   PHE I   1      53.330  35.997   2.783  0.30 33.12 LIG 0.28  HD
ATOM     25 H1   PHE I   1      53.990  34.760   2.403  0.30 33.12 LIG 0.28  HD
ATOM     26 H3   PHE I   1      53.888  35.127   3.805  0.30 33.12 LIG 0.28  HD
ENDBRANCH 15 23
ENDBRANCH 12 15
ENDBRANCH 6 11
ENDBRANCH 4 6
ENDBRANCH 1 2
BRANCH 1 27
ATOM     27  CB  SER I   3      54.230  34.134   7.314  0.30 32.04 LIG 0.20  C 
BRANCH 27 28
ATOM     28 OG   SER I   3      53.576  33.324   6.355  0.30 32.08 LIG-0.40  OA
ATOM     29 HG   SER I   3      54.100  33.167   5.718  0.30 32.08 LIG 0.21  HD
ENDBRANCH 27 28
ENDBRANCH 1 27
BRANCH 1 30
ATOM     30  C   SER I   3      54.068  36.131   8.760  0.30 31.77 LIG 0.24  C 
ATOM     31  N   THR I   4      53.547  36.556   9.895  0.30 31.46 LIG-0.34  N 
ATOM     32 H    THR I   4      52.803  36.315  10.250  0.30 31.46 LIG 0.16  HD
ATOM     33 O    SER I   3      55.189  36.473   8.402  0.30 31.84 LIG-0.27  OA
BRANCH 31 34
ATOM     34  CA  THR I   4      54.335  37.534  10.598  0.30 31.16 LIG 0.20  C 
BRANCH 34 35
ATOM     35  CB  THR I   4      55.656  36.909  11.025  0.30 31.16 LIG 0.15  C 
ATOM     36  CG2 THR I   4      56.431  37.847  11.934  0.30 31.01 LIG 0.04  C 
BRANCH 35 37
ATOM     37 OG1  THR I   4      55.401  35.674  11.705  0.30 31.22 LIG-0.39  OA
ATOM     38 HG1  THR I   4      55.007  35.145  11.185  0.30 31.22 LIG 0.21  HD
ENDBRANCH 35 37
ENDBRANCH 34 35
BRANCH 34 39
ATOM     39  C   THR I   4      54.598  38.813   9.822  0.30 30.90 LIG 0.24  C 
ATOM     40  N   LYS I   5      54.150  38.823   8.589  0.30 30.59 LIG-0.35  N 
ATOM     41 H    LYS I   5      53.836  38.151   8.155  0.30 30.59 LIG 0.16  HD
ATOM     42 O    THR I   4      55.184  39.763  10.336  0.30 30.97 LIG-0.27  OA
BRANCH 40 43
ATOM     43  CA  LYS I   5      54.186  40.069   7.897  0.30 30.26 LIG 0.16  C 
BRANCH 43 44
ATOM     44  C   LYS I   5      53.409  39.834   6.615  0.30 30.28 LIG 0.22  C 
ATOM     45 O    LYS I   5      52.891  38.748   6.375  0.30 30.24 LIG-0.29  OA
ENDBRANCH 43 44
BRANCH 43 46
ATOM     46  CB  LYS I   5      55.585  40.515   7.532  0.30 30.11 LIG 0.03  C 
BRANCH 46 47
ATOM     47  CG  LYS I   5      56.514  39.370   7.182  0.30 29.43 LIG 0.00  C 
BRANCH 47 48
ATOM     48  CD  LYS I   5      57.859  39.542   7.844  0.30 28.58 LIG 0.03  C 
BRANCH 48 49
ATOM     49  CE  LYS I   5      58.462  38.186   8.175  0.30 28.11 LIG 0.23  C 
BRANCH 49 50
ATOM     50  NZ  LYS I   5      57.738  37.070   7.520  0.30 27.97 LIG-0.08  N 
ATOM     51 HZ1  LYS I   5      57.556  37.288   6.677  0.30 27.97 LIG 0.27  HD
ATOM     52 HZ2  LYS I   5      58.245  36.338   7.534  0.30 27.97 LIG 0.27  HD
ATOM     53 HZ3  LYS I   5      56.978  36.914   7.956  0.30 27.97 LIG 0.27  HD
ENDBRANCH 49 50
ENDBRANCH 48 49
ENDBRANCH 47 48
ENDBRANCH 46 47
ENDBRANCH 43 46
ENDBRANCH 40 43
ENDBRANCH 34 39
ENDBRANCH 31 34
ENDBRANCH 1 30
TORSDOF 23
ENDMDL
MODEL 15
USER: ADFR SOLUTION from run 84
USER: SCORE 18.391469 LL:  -2.462 LR: -16.816 RR:   0.000 FEB:  -9.955
USER: RMSD 10.767177
USER: SEED 83
USER: STATUS no improvement in best 6 clusters for 5 generations
USER: GENES 25
USER: genes 0 Translation |==|  0.74328 0.62069 0.43460
USER: genes 1 Rotation |==|  0.37712 0.17812 0.54308 0.85978
USER: genes 2 Torsion [C]-CA--N-[C] |==|  0.68107
USER: genes 3 Torsion [N]-C--CA-[N] |==|  0.08961
USER: genes 4 Torsion [C]-CA--CB-[CG] |==|  0.23659
USER: genes 5 Torsion [CA]-CB--CG-[CD1] |==|  0.35082
USER: genes 6 Torsion [C]-CA--N-[C] |==|  0.18468
USER: genes 7 Torsion [N]-C--CA-[N] |==|  0.15364
USER: genes 8 Torsion [C]-CA--CB-[CG] |==|  0.17904
USER: genes 9 Torsion [CA]-CB--CG-[CD2] |==|  0.25341
USER: genes 10 Torsion [C]-CA--N-[H2] |==|  0.79155
USER: genes 11 Torsion [N]-CA--CB-[OG] |==|  0.96390
USER: genes 12 Torsion [CA]-CB--OG-[HG] |==|  0.27544
USER: genes 13 Torsion [N]-CA--C-[N] |==|  0.71806
USER: genes 14 Torsion [C]-N--CA-[CB] |==|  0.83620
USER: genes 15 Torsion [N]-CA--CB-[CG2] |==|  0.55795
USER: genes 16 Torsion [CA]-CB--OG1-[HG1] |==|  0.07465
USER: genes 17 Torsion [N]-CA--C-[N] |==|  0.38243
USER: genes 18 Torsion [C]-N--CA-[C] |==|  0.65247
USER: genes 19 Torsion [N]-CA--C-[O] |==|  0.99312
USER: genes 20 Torsion [N]-CA--CB-[CG] |==|  0.86980
USER: genes 21 Torsion [CA]-CB--CG-[CD] |==|  0.54510
USER: genes 22 Torsion [CB]-CG--CD-[CE] |==|  0.73248
USER: genes 23 Torsion [CG]-CD--CE-[NZ] |==|  0.61686
USER: genes 24 Torsion [CD]-CE--NZ-[HZ2] |==|  0.21554
ROOT
ATOM      1  CA  SER I   3      53.328  35.441   7.808  0.30 32.02 LIG 0.20  C 
ENDROOT
BRANCH 1 2
ATOM      2  N   SER I   3      52.580  35.982   6.679  0.30 32.24 LIG-0.34  N 
ATOM      3 H    SER I   3      53.030  36.248   5.996  0.30 32.24 LIG 0.16  HD
ATOM      4  C   LEU I   2      51.273  36.006   6.828  0.30 32.50 LIG 0.24  C 
ATOM      5 O    LEU I   2      50.735  35.612   7.860  0.30 32.61 LIG-0.27  OA
BRANCH 4 6
ATOM      6  CA  LEU I   2      50.421  36.516   5.707  0.30 32.74 LIG 0.18  C 
BRANCH 6 7
ATOM      7  CB  LEU I   2      49.004  35.934   5.757  0.30 32.79 LIG 0.04  C 
BRANCH 7 8
ATOM      8  CG  LEU I   2      48.017  36.695   6.674  0.30 32.97 LIG-0.02  C 
ATOM      9  CD1 LEU I   2      46.767  37.076   5.901  0.30 33.23 LIG 0.01  C 
ATOM     10  CD2 LEU I   2      47.653  35.870   7.899  0.30 33.13 LIG 0.01  C 
ENDBRANCH 7 8
ENDBRANCH 6 7
BRANCH 6 11
ATOM     11  N   LEU I   2      51.288  36.061   4.660  0.30 32.86 LIG-0.35  N 
ATOM     12  C   PHE I   1      51.493  34.788   4.425  0.30 33.00 LIG 0.25  C 
ATOM     13 O    PHE I   1      51.149  33.903   5.205  0.30 33.06 LIG-0.27  OA
ATOM     14 H    LEU I   2      51.655  36.693   4.208  0.30 32.86 LIG 0.16  HD
BRANCH 12 15
ATOM     15  CA  PHE I   1      52.204  34.445   3.121  0.30 33.09 LIG 0.28  C 
BRANCH 15 16
ATOM     16  CB  PHE I   1      52.418  32.956   2.972  0.30 33.12 LIG 0.08  C 
BRANCH 16 17
ATOM     17  CG  PHE I   1      51.190  32.083   2.857  0.30 33.22 LIG-0.06  A 
ATOM     18  CD1 PHE I   1      50.514  31.524   3.953  0.30 33.33 LIG 0.01  A 
ATOM     19  CE1 PHE I   1      49.363  30.762   3.741  0.30 33.39 LIG 0.00  A 
ATOM     20  CZ  PHE I   1      48.898  30.554   2.460  0.30 33.40 LIG 0.00  A 
ATOM     21  CE2 PHE I   1      49.573  31.070   1.378  0.30 33.33 LIG 0.00  A 
ATOM     22  CD2 PHE I   1      50.704  31.814   1.584  0.30 33.29 LIG 0.01  A 
ENDBRANCH 16 17
ENDBRANCH 15 16
BRANCH 15 23
ATOM     23  N   PHE I   1      53.481  35.144   3.020  0.30 33.12 LIG-0.07  N 
ATOM     24 H2   PHE I   1      53.337  36.000   2.827  0.30 33.12 LIG 0.28  HD
ATOM     25 H1   PHE I   1      53.972  34.773   2.376  0.30 33.12 LIG 0.28  HD
ATOM     26 H3   PHE I   1      53.915  35.084   3.795  0.30 33.12 LIG 0.28  HD
ENDBRANCH 15 23
ENDBRANCH 12 15
ENDBRANCH 6 11
ENDBRANCH 4 6
ENDBRANCH 1 2
BRANCH 1 27
ATOM     27  CB  SER I   3      54.178  34.256   7.341  0.30 32.04 LIG 0.20  C 
BRANCH 27 28
ATOM     28 OG   SER I   3      53.788  33.830   6.049  0.30 32.08 LIG-0.40  OA
ATOM     29 HG   SER I   3      54.315  34.150   5.478  0.30 32.08 LIG 0.21  HD
ENDBRANCH 27 28
ENDBRANCH 1 27
BRANCH 1 30
ATOM     30  C   SER I   3      54.222  36.432   8.510  0.30 31.77 LIG 0.24  C 
ATOM     31  N   THR I   4      55.520  36.432   8.275  0.30 31.46 LIG-0.34  N 
ATOM     32 H    THR I   4      55.946  35.958   7.698  0.30 31.46 LIG 0.16  HD
ATOM     33 O    SER I   3      53.713  37.228   9.291  0.30 31.84 LIG-0.27  OA
BRANCH 31 34
ATOM     34  CA  THR I   4      56.286  37.338   9.090  0.30 31.16 LIG 0.20  C 
BRANCH 34 35
ATOM     35  CB  THR I   4      55.785  38.759   8.878  0.30 31.16 LIG 0.15  C 
ATOM     36  CG2 THR I   4      56.839  39.773   9.287  0.30 31.01 LIG 0.04  C 
BRANCH 35 37
ATOM     37 OG1  THR I   4      55.442  38.943   7.499  0.30 31.22 LIG-0.39  OA
ATOM     38 HG1  THR I   4      55.228  38.204   7.163  0.30 31.22 LIG 0.21  HD
ENDBRANCH 35 37
ENDBRANCH 34 35
BRANCH 34 39
ATOM     39  C   THR I   4      56.289  37.009  10.573  0.30 30.90 LIG 0.24  C 
ATOM     40  N   LYS I   5      57.452  37.126  11.171  0.30 30.59 LIG-0.35  N 
ATOM     41 H    LYS I   5      58.211  37.253  10.789  0.30 30.59 LIG 0.16  HD
ATOM     42 O    THR I   4      55.262  36.667  11.153  0.30 30.97 LIG-0.27  OA
BRANCH 40 43
ATOM     43  CA  LYS I   5      57.460  37.033  12.593  0.30 30.26 LIG 0.16  C 
BRANCH 43 44
ATOM     44  C   LYS I   5      58.138  38.305  13.069  0.30 30.28 LIG 0.22  C 
ATOM     45 O    LYS I   5      58.583  39.126  12.273  0.30 30.24 LIG-0.29  OA
ENDBRANCH 43 44
BRANCH 43 46
ATOM     46  CB  LYS I   5      58.246  35.850  13.115  0.30 30.11 LIG 0.03  C 
BRANCH 46 47
ATOM     47  CG  LYS I   5      57.932  34.551  12.401  0.30 29.43 LIG 0.00  C 
BRANCH 47 48
ATOM     48  CD  LYS I   5      58.424  33.365  13.194  0.30 28.58 LIG 0.03  C 
BRANCH 48 49
ATOM     49  CE  LYS I   5      59.788  32.921  12.689  0.30 28.11 LIG 0.23  C 
BRANCH 49 50
ATOM     50  NZ  LYS I   5      59.905  31.445  12.599  0.30 27.97 LIG-0.08  N 
ATOM     51 HZ1  LYS I   5      59.539  31.073  13.320  0.30 27.97 LIG 0.27  HD
ATOM     52 HZ2  LYS I   5      59.482  31.158  11.871  0.30 27.97 LIG 0.27  HD
ATOM     53 HZ3  LYS I   5      60.764  31.218  12.553  0.30 27.97 LIG 0.27  HD
ENDBRANCH 49 50
ENDBRANCH 48 49
ENDBRANCH 47 48
ENDBRANCH 46 47
ENDBRANCH 43 46
ENDBRANCH 40 43
ENDBRANCH 34 39
ENDBRANCH 31 34
ENDBRANCH 1 30
TORSDOF 23
ENDMDL
MODEL 16
USER: ADFR SOLUTION from run 96
USER: SCORE 19.988064 LL:  -4.041 LR: -16.704 RR:   0.000 FEB:  -9.843
USER: RMSD 10.116720
USER: SEED 95
USER: STATUS no improvement in best 8 clusters for 5 generations
USER: GENES 25
USER: genes 0 Translation |==|  0.69425 0.59067 0.46875
USER: genes 1 Rotation |==|  0.72436 0.08090 0.53635 0.65065
USER: genes 2 Torsion [C]-CA--N-[C] |==|  0.74489
USER: genes 3 Torsion [N]-C--CA-[N] |==|  0.32487
USER: genes 4 Torsion [C]-CA--CB-[CG] |==|  0.27661
USER: genes 5 Torsion [CA]-CB--CG-[CD1] |==|  0.97827
USER: genes 6 Torsion [C]-CA--N-[C] |==|  0.74698
USER: genes 7 Torsion [N]-C--CA-[N] |==|  0.56437
USER: genes 8 Torsion [C]-CA--CB-[CG] |==|  0.22072
USER: genes 9 Torsion [CA]-CB--CG-[CD2] |==|  0.18688
USER: genes 10 Torsion [C]-CA--N-[H2] |==|  0.21960
USER: genes 11 Torsion [N]-CA--CB-[OG] |==|  0.37595
USER: genes 12 Torsion [CA]-CB--OG-[HG] |==|  0.28932
USER: genes 13 Torsion [N]-CA--C-[N] |==|  0.30241
USER: genes 14 Torsion [C]-N--CA-[CB] |==|  0.18212
USER: genes 15 Torsion [N]-CA--CB-[CG2] |==|  0.22442
USER: genes 16 Torsion [CA]-CB--OG1-[HG1] |==|  0.92128
USER: genes 17 Torsion [N]-CA--C-[N] |==|  0.00053
USER: genes 18 Torsion [C]-N--CA-[C] |==|  0.59147
USER: genes 19 Torsion [N]-CA--C-[O] |==|  0.73177
USER: genes 20 Torsion [N]-CA--CB-[CG] |==|  0.98503
USER: genes 21 Torsion [CA]-CB--CG-[CD] |==|  0.34239
USER: genes 22 Torsion [CB]-CG--CD-[CE] |==|  0.71920
USER: genes 23 Torsion [CG]-CD--CE-[NZ] |==|  0.16477
USER: genes 24 Torsion [CD]-CE--NZ-[HZ2] |==|  0.08284
ROOT
ATOM      1  CA  SER I   3      51.858  34.540   8.833  0.30 32.02 LIG 0.20  C 
ENDROOT
BRANCH 1 2
ATOM      2  N   SER I   3      51.194  35.346   7.812  0.30 32.24 LIG-0.34  N 
ATOM      3 H    SER I   3      51.305  36.198   7.847  0.30 32.24 LIG 0.16  HD
ATOM      4  C   LEU I   2      50.487  34.670   6.933  0.30 32.50 LIG 0.24  C 
ATOM      5 O    LEU I   2      50.386  33.447   6.989  0.30 32.61 LIG-0.27  OA
BRANCH 4 6
ATOM      6  CA  LEU I   2      49.797  35.411   5.829  0.30 32.74 LIG 0.18  C 
BRANCH 6 7
ATOM      7  CB  LEU I   2      48.280  35.195   5.858  0.30 32.79 LIG 0.04  C 
BRANCH 7 8
ATOM      8  CG  LEU I   2      47.470  36.341   6.509  0.30 32.97 LIG-0.02  C 
ATOM      9  CD1 LEU I   2      48.407  37.349   7.151  0.30 33.23 LIG 0.01  C 
ATOM     10  CD2 LEU I   2      46.567  37.027   5.494  0.30 33.13 LIG 0.01  C 
ENDBRANCH 7 8
ENDBRANCH 6 7
BRANCH 6 11
ATOM     11  N   LEU I   2      50.535  34.791   4.768  0.30 32.86 LIG-0.35  N 
ATOM     12  C   PHE I   1      51.647  35.302   4.298  0.30 33.00 LIG 0.25  C 
ATOM     13 O    PHE I   1      52.019  36.443   4.563  0.30 33.06 LIG-0.27  OA
ATOM     14 H    LEU I   2      50.185  34.063   4.474  0.30 32.86 LIG 0.16  HD
BRANCH 12 15
ATOM     15  CA  PHE I   1      52.469  34.407   3.378  0.30 33.09 LIG 0.28  C 
BRANCH 15 16
ATOM     16  CB  PHE I   1      52.367  32.951   3.770  0.30 33.12 LIG 0.08  C 
BRANCH 16 17
ATOM     17  CG  PHE I   1      51.128  32.199   3.340  0.30 33.22 LIG-0.06  A 
ATOM     18  CD1 PHE I   1      50.156  31.710   4.226  0.30 33.33 LIG 0.01  A 
ATOM     19  CE1 PHE I   1      49.026  31.061   3.724  0.30 33.39 LIG 0.00  A 
ATOM     20  CZ  PHE I   1      48.872  30.894   2.364  0.30 33.40 LIG 0.00  A 
ATOM     21  CE2 PHE I   1      49.837  31.341   1.491  0.30 33.33 LIG 0.00  A 
ATOM     22  CD2 PHE I   1      50.947  31.974   1.982  0.30 33.29 LIG 0.01  A 
ENDBRANCH 16 17
ENDBRANCH 15 16
BRANCH 15 23
ATOM     23  N   PHE I   1      53.869  34.820   3.360  0.30 33.12 LIG-0.07  N 
ATOM     24 H2   PHE I   1      54.278  34.517   4.090  0.30 33.12 LIG 0.28  HD
ATOM     25 H1   PHE I   1      53.917  35.709   3.341  0.30 33.12 LIG 0.28  HD
ATOM     26 H3   PHE I   1      54.268  34.487   2.637  0.30 33.12 LIG 0.28  HD
ENDBRANCH 15 23
ENDBRANCH 12 15
ENDBRANCH 6 11
ENDBRANCH 4 6
ENDBRANCH 1 2
BRANCH 1 27
ATOM     27  CB  SER I   3      53.202  35.175   9.196  0.30 32.04 LIG 0.20  C 
BRANCH 27 28
ATOM     28 OG   SER I   3      53.392  35.196  10.598  0.30 32.08 LIG-0.40  OA
ATOM     29 HG   SER I   3      53.938  34.595  10.815  0.30 32.08 LIG 0.21  HD
ENDBRANCH 27 28
ENDBRANCH 1 27
BRANCH 1 30
ATOM     30  C   SER I   3      51.060  34.336  10.096  0.30 31.77 LIG 0.24  C 
ATOM     31  N   THR I   4      50.548  33.152  10.370  0.30 31.46 LIG-0.34  N 
ATOM     32 H    THR I   4      50.663  32.420   9.933  0.30 31.46 LIG 0.16  HD
ATOM     33 O    SER I   3      50.907  35.290  10.851  0.30 31.84 LIG-0.27  OA
BRANCH 31 34
ATOM     34  CA  THR I   4      49.707  33.106  11.536  0.30 31.16 LIG 0.20  C 
BRANCH 34 35
ATOM     35  CB  THR I   4      48.462  33.949  11.297  0.30 31.16 LIG 0.15  C 
ATOM     36  CG2 THR I   4      47.434  33.181  10.485  0.30 31.01 LIG 0.04  C 
BRANCH 35 37
ATOM     37 OG1  THR I   4      47.898  34.333  12.557  0.30 31.22 LIG-0.39  OA
ATOM     38 HG1  THR I   4      48.084  33.754  13.135  0.30 31.22 LIG 0.21  HD
ENDBRANCH 35 37
ENDBRANCH 34 35
BRANCH 34 39
ATOM     39  C   THR I   4      49.305  31.709  11.975  0.30 30.90 LIG 0.24  C 
ATOM     40  N   LYS I   5      49.780  30.732  11.238  0.30 30.59 LIG-0.35  N 
ATOM     41 H    LYS I   5      50.186  30.813  10.485  0.30 30.59 LIG 0.16  HD
ATOM     42 O    THR I   4      48.592  31.528  12.959  0.30 30.97 LIG-0.27  OA
BRANCH 40 43
ATOM     43  CA  LYS I   5      49.605  29.406  11.731  0.30 30.26 LIG 0.16  C 
BRANCH 43 44
ATOM     44  C   LYS I   5      50.829  28.643  11.258  0.30 30.28 LIG 0.22  C 
ATOM     45 O    LYS I   5      50.801  27.964  10.237  0.30 30.24 LIG-0.29  OA
ENDBRANCH 43 44
BRANCH 43 46
ATOM     46  CB  LYS I   5      48.374  28.717  11.184  0.30 30.11 LIG 0.03  C 
BRANCH 46 47
ATOM     47  CG  LYS I   5      47.507  29.616  10.326  0.30 29.43 LIG 0.00  C 
BRANCH 47 48
ATOM     48  CD  LYS I   5      47.311  29.028   8.950  0.30 28.58 LIG 0.03  C 
BRANCH 48 49
ATOM     49  CE  LYS I   5      48.230  29.710   7.949  0.30 28.11 LIG 0.23  C 
BRANCH 49 50
ATOM     50  NZ  LYS I   5      49.662  29.570   8.309  0.30 27.97 LIG-0.08  N 
ATOM     51 HZ1  LYS I   5      49.907  30.253   8.823  0.30 27.97 LIG 0.27  HD
ATOM     52 HZ2  LYS I   5      49.783  28.807   8.751  0.30 27.97 LIG 0.27  HD
ATOM     53 HZ3  LYS I   5      50.155  29.565   7.568  0.30 27.97 LIG 0.27  HD
ENDBRANCH 49 50
ENDBRANCH 48 49
ENDBRANCH 47 48
ENDBRANCH 46 47
ENDBRANCH 43 46
ENDBRANCH 40 43
ENDBRANCH 34 39
ENDBRANCH 31 34
ENDBRANCH 1 30
TORSDOF 23
ENDMDL
MODEL 17
USER: ADFR SOLUTION from run 93
USER: SCORE 19.084445 LL:  -3.182 LR: -16.674 RR:   0.000 FEB:  -9.813
USER: RMSD 9.370092
USER: SEED 92
USER: STATUS no improvement in best 2 clusters for 5 generations
USER: GENES 25
USER: genes 0 Translation |==|  0.73352 0.59182 0.42169
USER: genes 1 Rotation |==|  0.55699 0.08760 0.56741 0.76858
USER: genes 2 Torsion [C]-CA--N-[C] |==|  0.69399
USER: genes 3 Torsion [N]-C--CA-[N] |==|  0.41920
USER: genes 4 Torsion [C]-CA--CB-[CG] |==|  0.77632
USER: genes 5 Torsion [CA]-CB--CG-[CD1] |==|  0.28753
USER: genes 6 Torsion [C]-CA--N-[C] |==|  0.71544
USER: genes 7 Torsion [N]-C--CA-[N] |==|  0.60763
USER: genes 8 Torsion [C]-CA--CB-[CG] |==|  0.28623
USER: genes 9 Torsion [CA]-CB--CG-[CD2] |==|  0.96079
USER: genes 10 Torsion [C]-CA--N-[H2] |==|  0.23215
USER: genes 11 Torsion [N]-CA--CB-[OG] |==|  0.26491
USER: genes 12 Torsion [CA]-CB--OG-[HG] |==|  0.47146
USER: genes 13 Torsion [N]-CA--C-[N] |==|  0.52222
USER: genes 14 Torsion [C]-N--CA-[CB] |==|  0.17770
USER: genes 15 Torsion [N]-CA--CB-[CG2] |==|  0.14521
USER: genes 16 Torsion [CA]-CB--OG1-[HG1] |==|  0.96792
USER: genes 17 Torsion [N]-CA--C-[N] |==|  0.12635
USER: genes 18 Torsion [C]-N--CA-[C] |==|  0.61955
USER: genes 19 Torsion [N]-CA--C-[O] |==|  0.81968
USER: genes 20 Torsion [N]-CA--CB-[CG] |==|  0.39256
USER: genes 21 Torsion [CA]-CB--CG-[CD] |==|  0.65391
USER: genes 22 Torsion [CB]-CG--CD-[CE] |==|  0.74006
USER: genes 23 Torsion [CG]-CD--CE-[NZ] |==|  0.41774
USER: genes 24 Torsion [CD]-CE--NZ-[HZ2] |==|  0.22662
ROOT
ATOM      1  CA  SER I   3      53.036  34.575   7.421  0.30 32.02 LIG 0.20  C 
ENDROOT
BRANCH 1 2
ATOM      2  N   SER I   3      52.417  35.133   6.223  0.30 32.24 LIG-0.34  N 
ATOM      3 H    SER I   3      52.758  35.853   5.899  0.30 32.24 LIG 0.16  HD
ATOM      4  C   LEU I   2      51.386  34.462   5.757  0.30 32.50 LIG 0.24  C 
ATOM      5 O    LEU I   2      50.972  33.447   6.312  0.30 32.61 LIG-0.27  OA
BRANCH 4 6
ATOM      6  CA  LEU I   2      50.707  34.943   4.511  0.30 32.74 LIG 0.18  C 
BRANCH 6 7
ATOM      7  CB  LEU I   2      49.631  35.991   4.815  0.30 32.79 LIG 0.04  C 
BRANCH 7 8
ATOM      8  CG  LEU I   2      48.277  35.416   5.296  0.30 32.97 LIG-0.02  C 
ATOM      9  CD1 LEU I   2      48.132  35.597   6.797  0.30 33.23 LIG 0.01  C 
ATOM     10  CD2 LEU I   2      47.110  36.065   4.567  0.30 33.13 LIG 0.01  C 
ENDBRANCH 7 8
ENDBRANCH 6 7
BRANCH 6 11
ATOM     11  N   LEU I   2      50.268  33.645   4.087  0.30 32.86 LIG-0.35  N 
ATOM     12  C   PHE I   1      50.873  32.979   3.135  0.30 33.00 LIG 0.25  C 
ATOM     13 O    PHE I   1      51.705  33.492   2.389  0.30 33.06 LIG-0.27  OA
ATOM     14 H    LEU I   2      49.581  33.351   4.511  0.30 32.86 LIG 0.16  HD
BRANCH 12 15
ATOM     15  CA  PHE I   1      50.485  31.514   2.978  0.30 33.09 LIG 0.28  C 
BRANCH 15 16
ATOM     16  CB  PHE I   1      49.798  30.978   4.214  0.30 33.12 LIG 0.08  C 
BRANCH 16 17
ATOM     17  CG  PHE I   1      48.296  30.820   4.162  0.30 33.22 LIG-0.06  A 
ATOM     18  CD1 PHE I   1      47.548  30.080   5.092  0.30 33.33 LIG 0.01  A 
ATOM     19  CE1 PHE I   1      46.157  30.028   4.977  0.30 33.39 LIG 0.00  A 
ATOM     20  CZ  PHE I   1      45.523  30.694   3.949  0.30 33.40 LIG 0.00  A 
ATOM     21  CE2 PHE I   1      46.251  31.394   3.015  0.30 33.33 LIG 0.00  A 
ATOM     22  CD2 PHE I   1      47.615  31.443   3.124  0.30 33.29 LIG 0.01  A 
ENDBRANCH 16 17
ENDBRANCH 15 16
BRANCH 15 23
ATOM     23  N   PHE I   1      51.650  30.693   2.663  0.30 33.12 LIG-0.07  N 
ATOM     24 H2   PHE I   1      52.076  30.480   3.415  0.30 33.12 LIG 0.28  HD
ATOM     25 H1   PHE I   1      52.199  31.149   2.130  0.30 33.12 LIG 0.28  HD
ATOM     26 H3   PHE I   1      51.387  29.950   2.251  0.30 33.12 LIG 0.28  HD
ENDBRANCH 15 23
ENDBRANCH 12 15
ENDBRANCH 6 11
ENDBRANCH 4 6
ENDBRANCH 1 2
BRANCH 1 27
ATOM     27  CB  SER I   3      54.538  34.396   7.188  0.30 32.04 LIG 0.20  C 
BRANCH 27 28
ATOM     28 OG   SER I   3      55.264  35.507   7.681  0.30 32.08 LIG-0.40  OA
ATOM     29 HG   SER I   3      56.085  35.331   7.673  0.30 32.08 LIG 0.21  HD
ENDBRANCH 27 28
ENDBRANCH 1 27
BRANCH 1 30
ATOM     30  C   SER I   3      52.831  35.386   8.676  0.30 31.77 LIG 0.24  C 
ATOM     31  N   THR I   4      53.474  35.063   9.782  0.30 31.46 LIG-0.34  N 
ATOM     32 H    THR I   4      54.076  34.457   9.878  0.30 31.46 LIG 0.16  HD
ATOM     33 O    SER I   3      52.064  36.340   8.636  0.30 31.84 LIG-0.27  OA
BRANCH 31 34
ATOM     34  CA  THR I   4      53.109  35.830  10.944  0.30 31.16 LIG 0.20  C 
BRANCH 34 35
ATOM     35  CB  THR I   4      51.651  35.564  11.289  0.30 31.16 LIG 0.15  C 
ATOM     36  CG2 THR I   4      51.383  34.073  11.399  0.30 31.01 LIG 0.04  C 
BRANCH 35 37
ATOM     37 OG1  THR I   4      51.329  36.208  12.528  0.30 31.22 LIG-0.39  OA
ATOM     38 HG1  THR I   4      52.036  36.470  12.899  0.30 31.22 LIG 0.21  HD
ENDBRANCH 35 37
ENDBRANCH 34 35
BRANCH 34 39
ATOM     39  C   THR I   4      53.980  35.586  12.164  0.30 30.90 LIG 0.24  C 
ATOM     40  N   LYS I   5      55.272  35.568  11.936  0.30 30.59 LIG-0.35  N 
ATOM     41 H    LYS I   5      55.654  35.563  11.166  0.30 30.59 LIG 0.16  HD
ATOM     42 O    THR I   4      53.488  35.428  13.278  0.30 30.97 LIG-0.27  OA
BRANCH 40 43
ATOM     43  CA  LYS I   5      56.130  35.554  13.074  0.30 30.26 LIG 0.16  C 
BRANCH 43 44
ATOM     44  C   LYS I   5      57.238  36.538  12.748  0.30 30.28 LIG 0.22  C 
ATOM     45 O    LYS I   5      58.021  36.333  11.826  0.30 30.24 LIG-0.29  OA
ENDBRANCH 43 44
BRANCH 43 46
ATOM     46  CB  LYS I   5      56.756  34.202  13.339  0.30 30.11 LIG 0.03  C 
BRANCH 46 47
ATOM     47  CG  LYS I   5      58.198  34.282  13.802  0.30 29.43 LIG 0.00  C 
BRANCH 47 48
ATOM     48  CD  LYS I   5      59.099  33.462  12.912  0.30 28.58 LIG 0.03  C 
BRANCH 48 49
ATOM     49  CE  LYS I   5      59.278  32.065  13.485  0.30 28.11 LIG 0.23  C 
BRANCH 49 50
ATOM     50  NZ  LYS I   5      59.513  31.047  12.432  0.30 27.97 LIG-0.08  N 
ATOM     51 HZ1  LYS I   5      59.005  31.230  11.724  0.30 27.97 LIG 0.27  HD
ATOM     52 HZ2  LYS I   5      60.370  31.060  12.193  0.30 27.97 LIG 0.27  HD
ATOM     53 HZ3  LYS I   5      59.304  30.241  12.746  0.30 27.97 LIG 0.27  HD
ENDBRANCH 49 50
ENDBRANCH 48 49
ENDBRANCH 47 48
ENDBRANCH 46 47
ENDBRANCH 43 46
ENDBRANCH 40 43
ENDBRANCH 34 39
ENDBRANCH 31 34
ENDBRANCH 1 30
TORSDOF 23
ENDMDL
MODEL 18
USER: ADFR SOLUTION from run 88
USER: SCORE 18.636771 LL:  -3.909 LR: -16.618 RR:   0.000 FEB:  -9.757
USER: RMSD 9.886593
USER: SEED 87
USER: STATUS no improvement in best 14 clusters for 5 generations
USER: GENES 25
USER: genes 0 Translation |==|  0.73344 0.58719 0.46047
USER: genes 1 Rotation |==|  0.58703 0.17120 0.62183 0.84565
USER: genes 2 Torsion [C]-CA--N-[C] |==|  0.79712
USER: genes 3 Torsion [N]-C--CA-[N] |==|  0.07730
USER: genes 4 Torsion [C]-CA--CB-[CG] |==|  0.86040
USER: genes 5 Torsion [CA]-CB--CG-[CD1] |==|  0.33099
USER: genes 6 Torsion [C]-CA--N-[C] |==|  0.69121
USER: genes 7 Torsion [N]-C--CA-[N] |==|  0.68922
USER: genes 8 Torsion [C]-CA--CB-[CG] |==|  0.22967
USER: genes 9 Torsion [CA]-CB--CG-[CD2] |==|  0.74218
USER: genes 10 Torsion [C]-CA--N-[H2] |==|  0.33120
USER: genes 11 Torsion [N]-CA--CB-[OG] |==|  0.95268
USER: genes 12 Torsion [CA]-CB--OG-[HG] |==|  0.30572
USER: genes 13 Torsion [N]-CA--C-[N] |==|  0.39714
USER: genes 14 Torsion [C]-N--CA-[CB] |==|  0.29977
USER: genes 15 Torsion [N]-CA--CB-[CG2] |==|  0.55155
USER: genes 16 Torsion [CA]-CB--OG1-[HG1] |==|  0.12359
USER: genes 17 Torsion [N]-CA--C-[N] |==|  0.06719
USER: genes 18 Torsion [C]-N--CA-[C] |==|  0.64129
USER: genes 19 Torsion [N]-CA--C-[O] |==|  0.07270
USER: genes 20 Torsion [N]-CA--CB-[CG] |==|  0.01136
USER: genes 21 Torsion [CA]-CB--CG-[CD] |==|  0.39925
USER: genes 22 Torsion [CB]-CG--CD-[CE] |==|  0.12279
USER: genes 23 Torsion [CG]-CD--CE-[NZ] |==|  0.45093
USER: genes 24 Torsion [CD]-CE--NZ-[HZ2] |==|  0.20553
ROOT
ATOM      1  CA  SER I   3      53.033  34.436   8.584  0.30 32.02 LIG 0.20  C 
ENDROOT
BRANCH 1 2
ATOM      2  N   SER I   3      51.879  34.589   7.704  0.30 32.24 LIG-0.34  N 
ATOM      3 H    SER I   3      52.024  34.875   6.906  0.30 32.24 LIG 0.16  HD
ATOM      4  C   LEU I   2      50.720  34.266   8.235  0.30 32.50 LIG 0.24  C 
ATOM      5 O    LEU I   2      50.628  33.880   9.398  0.30 32.61 LIG-0.27  OA
BRANCH 4 6
ATOM      6  CA  LEU I   2      49.483  34.361   7.395  0.30 32.74 LIG 0.18  C 
BRANCH 6 7
ATOM      7  CB  LEU I   2      48.422  33.342   7.824  0.30 32.79 LIG 0.04  C 
BRANCH 7 8
ATOM      8  CG  LEU I   2      48.931  31.887   7.960  0.30 32.97 LIG-0.02  C 
ATOM      9  CD1 LEU I   2      48.748  31.397   9.385  0.30 33.23 LIG 0.01  C 
ATOM     10  CD2 LEU I   2      48.222  30.959   6.984  0.30 33.13 LIG 0.01  C 
ENDBRANCH 7 8
ENDBRANCH 6 7
BRANCH 6 11
ATOM     11  N   LEU I   2      50.150  34.138   6.146  0.30 32.86 LIG-0.35  N 
ATOM     12  C   PHE I   1      50.273  35.078   5.241  0.30 33.00 LIG 0.25  C 
ATOM     13 O    PHE I   1      49.647  36.135   5.290  0.30 33.06 LIG-0.27  OA
ATOM     14 H    LEU I   2      50.456  33.341   6.048  0.30 32.86 LIG 0.16  HD
BRANCH 12 15
ATOM     15  CA  PHE I   1      51.237  34.796   4.095  0.30 33.09 LIG 0.28  C 
BRANCH 15 16
ATOM     16  CB  PHE I   1      51.677  33.350   4.073  0.30 33.12 LIG 0.08  C 
BRANCH 16 17
ATOM     17  CG  PHE I   1      50.755  32.353   3.409  0.30 33.22 LIG-0.06  A 
ATOM     18  CD1 PHE I   1      50.769  32.057   2.037  0.30 33.33 LIG 0.01  A 
ATOM     19  CE1 PHE I   1      49.900  31.089   1.528  0.30 33.39 LIG 0.00  A 
ATOM     20  CZ  PHE I   1      49.027  30.433   2.370  0.30 33.40 LIG 0.00  A 
ATOM     21  CE2 PHE I   1      48.984  30.740   3.710  0.30 33.33 LIG 0.00  A 
ATOM     22  CD2 PHE I   1      49.832  31.692   4.210  0.30 33.29 LIG 0.01  A 
ENDBRANCH 16 17
ENDBRANCH 15 16
BRANCH 15 23
ATOM     23  N   PHE I   1      52.405  35.669   4.165  0.30 33.12 LIG-0.07  N 
ATOM     24 H2   PHE I   1      53.140  35.175   4.255  0.30 33.12 LIG 0.28  HD
ATOM     25 H1   PHE I   1      52.327  36.214   4.865  0.30 33.12 LIG 0.28  HD
ATOM     26 H3   PHE I   1      52.461  36.151   3.419  0.30 33.12 LIG 0.28  HD
ENDBRANCH 15 23
ENDBRANCH 12 15
ENDBRANCH 6 11
ENDBRANCH 4 6
ENDBRANCH 1 2
BRANCH 1 27
ATOM     27  CB  SER I   3      54.319  34.457   7.754  0.30 32.04 LIG 0.20  C 
BRANCH 27 28
ATOM     28 OG   SER I   3      54.044  34.227   6.385  0.30 32.08 LIG-0.40  OA
ATOM     29 HG   SER I   3      54.173  34.934   5.950  0.30 32.08 LIG 0.21  HD
ENDBRANCH 27 28
ENDBRANCH 1 27
BRANCH 1 30
ATOM     30  C   SER I   3      53.142  35.473   9.674  0.30 31.77 LIG 0.24  C 
ATOM     31  N   THR I   4      53.581  35.131  10.869  0.30 31.46 LIG-0.34  N 
ATOM     32 H    THR I   4      53.891  34.366  11.112  0.30 31.46 LIG 0.16  HD
ATOM     33 O    SER I   3      52.816  36.627   9.417  0.30 31.84 LIG-0.27  OA
BRANCH 31 34
ATOM     34  CA  THR I   4      53.526  36.173  11.860  0.30 31.16 LIG 0.20  C 
BRANCH 34 35
ATOM     35  CB  THR I   4      52.419  35.867  12.858  0.30 31.16 LIG 0.15  C 
ATOM     36  CG2 THR I   4      52.021  37.114  13.627  0.30 31.01 LIG 0.04  C 
BRANCH 35 37
ATOM     37 OG1  THR I   4      51.282  35.343  12.161  0.30 31.22 LIG-0.39  OA
ATOM     38 HG1  THR I   4      51.536  34.774  11.598  0.30 31.22 LIG 0.21  HD
ENDBRANCH 35 37
ENDBRANCH 34 35
BRANCH 34 39
ATOM     39  C   THR I   4      54.831  36.416  12.598  0.30 30.90 LIG 0.24  C 
ATOM     40  N   LYS I   5      55.916  36.049  11.956  0.30 30.59 LIG-0.35  N 
ATOM     41 H    LYS I   5      55.947  35.590  11.230  0.30 30.59 LIG 0.16  HD
ATOM     42 O    THR I   4      54.848  36.930  13.714  0.30 30.97 LIG-0.27  OA
BRANCH 40 43
ATOM     43  CA  LYS I   5      57.165  36.448  12.515  0.30 30.26 LIG 0.16  C 
BRANCH 43 44
ATOM     44  C   LYS I   5      57.922  37.096  11.370  0.30 30.28 LIG 0.22  C 
ATOM     45 O    LYS I   5      57.331  37.614  10.428  0.30 30.24 LIG-0.29  OA
ENDBRANCH 43 44
BRANCH 43 46
ATOM     46  CB  LYS I   5      57.989  35.290  13.035  0.30 30.11 LIG 0.03  C 
BRANCH 46 47
ATOM     47  CG  LYS I   5      57.365  33.934  12.770  0.30 29.43 LIG 0.00  C 
BRANCH 47 48
ATOM     48  CD  LYS I   5      58.422  32.903  12.460  0.30 28.58 LIG 0.03  C 
BRANCH 48 49
ATOM     49  CE  LYS I   5      59.587  33.033  13.429  0.30 28.11 LIG 0.23  C 
BRANCH 49 50
ATOM     50  NZ  LYS I   5      60.440  31.820  13.453  0.30 27.97 LIG-0.08  N 
ATOM     51 HZ1  LYS I   5      59.926  31.096  13.502  0.30 27.97 LIG 0.27  HD
ATOM     52 HZ2  LYS I   5      60.930  31.787  12.711  0.30 27.97 LIG 0.27  HD
ATOM     53 HZ3  LYS I   5      60.977  31.849  14.163  0.30 27.97 LIG 0.27  HD
ENDBRANCH 49 50
ENDBRANCH 48 49
ENDBRANCH 47 48
ENDBRANCH 46 47
ENDBRANCH 43 46
ENDBRANCH 40 43
ENDBRANCH 34 39
ENDBRANCH 31 34
ENDBRANCH 1 30
TORSDOF 23
ENDMDL
MODEL 19
USER: ADFR SOLUTION from run 115
USER: SCORE 19.218713 LL:  -2.991 LR: -16.622 RR:   0.000 FEB:  -9.761
USER: RMSD 10.624740
USER: SEED 114
USER: STATUS no improvement in best 7 clusters for 5 generations
USER: GENES 25
USER: genes 0 Translation |==|  0.60497 0.68859 0.41499
USER: genes 1 Rotation |==|  0.84847 0.76627 0.63037 0.70167
USER: genes 2 Torsion [C]-CA--N-[C] |==|  0.78143
USER: genes 3 Torsion [N]-C--CA-[N] |==|  0.33919
USER: genes 4 Torsion [C]-CA--CB-[CG] |==|  0.19290
USER: genes 5 Torsion [CA]-CB--CG-[CD1] |==|  0.15089
USER: genes 6 Torsion [C]-CA--N-[C] |==|  0.80053
USER: genes 7 Torsion [N]-C--CA-[N] |==|  0.96553
USER: genes 8 Torsion [C]-CA--CB-[CG] |==|  0.20229
USER: genes 9 Torsion [CA]-CB--CG-[CD2] |==|  0.31301
USER: genes 10 Torsion [C]-CA--N-[H2] |==|  0.60400
USER: genes 11 Torsion [N]-CA--CB-[OG] |==|  0.67677
USER: genes 12 Torsion [CA]-CB--OG-[HG] |==|  0.99489
USER: genes 13 Torsion [N]-CA--C-[N] |==|  0.46339
USER: genes 14 Torsion [C]-N--CA-[CB] |==|  0.77778
USER: genes 15 Torsion [N]-CA--CB-[CG2] |==|  0.49563
USER: genes 16 Torsion [CA]-CB--OG1-[HG1] |==|  0.80029
USER: genes 17 Torsion [N]-CA--C-[N] |==|  0.19628
USER: genes 18 Torsion [C]-N--CA-[C] |==|  0.72035
USER: genes 19 Torsion [N]-CA--C-[O] |==|  0.16856
USER: genes 20 Torsion [N]-CA--CB-[CG] |==|  0.77743
USER: genes 21 Torsion [CA]-CB--CG-[CD] |==|  0.67547
USER: genes 22 Torsion [CB]-CG--CD-[CE] |==|  0.47596
USER: genes 23 Torsion [CG]-CD--CE-[NZ] |==|  0.38465
USER: genes 24 Torsion [CD]-CE--NZ-[HZ2] |==|  0.94672
ROOT
ATOM      1  CA  SER I   3      49.179  37.478   7.220  0.30 32.02 LIG 0.20  C 
ENDROOT
BRANCH 1 2
ATOM      2  N   SER I   3      50.005  36.323   7.560  0.30 32.24 LIG-0.34  N 
ATOM      3 H    SER I   3      49.645  35.707   8.039  0.30 32.24 LIG 0.16  HD
ATOM      4  C   LEU I   2      51.232  36.350   7.088  0.30 32.50 LIG 0.24  C 
ATOM      5 O    LEU I   2      51.647  37.296   6.422  0.30 32.61 LIG-0.27  OA
BRANCH 4 6
ATOM      6  CA  LEU I   2      52.142  35.192   7.359  0.30 32.74 LIG 0.18  C 
BRANCH 6 7
ATOM      7  CB  LEU I   2      53.336  35.596   8.232  0.30 32.79 LIG 0.04  C 
BRANCH 7 8
ATOM      8  CG  LEU I   2      52.986  35.941   9.699  0.30 32.97 LIG-0.02  C 
ATOM      9  CD1 LEU I   2      52.222  34.795  10.340  0.30 33.23 LIG 0.01  C 
ATOM     10  CD2 LEU I   2      54.235  36.263  10.505  0.30 33.13 LIG 0.01  C 
ENDBRANCH 7 8
ENDBRANCH 6 7
BRANCH 6 11
ATOM     11  N   LEU I   2      52.399  34.895   5.980  0.30 32.86 LIG-0.35  N 
ATOM     12  C   PHE I   1      51.493  34.360   5.199  0.30 33.00 LIG 0.25  C 
ATOM     13 O    PHE I   1      50.451  33.870   5.629  0.30 33.06 LIG-0.27  OA
ATOM     14 H    LEU I   2      53.192  35.099   5.718  0.30 32.86 LIG 0.16  HD
BRANCH 12 15
ATOM     15  CA  PHE I   1      51.799  34.359   3.706  0.30 33.09 LIG 0.28  C 
BRANCH 15 16
ATOM     16  CB  PHE I   1      52.063  32.964   3.187  0.30 33.12 LIG 0.08  C 
BRANCH 16 17
ATOM     17  CG  PHE I   1      50.879  32.034   3.056  0.30 33.22 LIG-0.06  A 
ATOM     18  CD1 PHE I   1      50.154  31.522   4.144  0.30 33.33 LIG 0.01  A 
ATOM     19  CE1 PHE I   1      49.050  30.699   3.913  0.30 33.39 LIG 0.00  A 
ATOM     20  CZ  PHE I   1      48.680  30.383   2.623  0.30 33.40 LIG 0.00  A 
ATOM     21  CE2 PHE I   1      49.405  30.853   1.553  0.30 33.33 LIG 0.00  A 
ATOM     22  CD2 PHE I   1      50.490  31.657   1.777  0.30 33.29 LIG 0.01  A 
ENDBRANCH 16 17
ENDBRANCH 15 16
BRANCH 15 23
ATOM     23  N   PHE I   1      52.933  35.226   3.402  0.30 33.12 LIG-0.07  N 
ATOM     24 H2   PHE I   1      52.790  35.643   2.629  0.30 33.12 LIG 0.28  HD
ATOM     25 H1   PHE I   1      53.674  34.735   3.342  0.30 33.12 LIG 0.28  HD
ATOM     26 H3   PHE I   1      53.029  35.828   4.050  0.30 33.12 LIG 0.28  HD
ENDBRANCH 15 23
ENDBRANCH 12 15
ENDBRANCH 6 11
ENDBRANCH 4 6
ENDBRANCH 1 2
BRANCH 1 27
ATOM     27  CB  SER I   3      47.699  37.105   7.343  0.30 32.04 LIG 0.20  C 
BRANCH 27 28
ATOM     28 OG   SER I   3      47.050  37.185   6.088  0.30 32.08 LIG-0.40  OA
ATOM     29 HG   SER I   3      47.595  37.449   5.506  0.30 32.08 LIG 0.21  HD
ENDBRANCH 27 28
ENDBRANCH 1 27
BRANCH 1 30
ATOM     30  C   SER I   3      49.441  38.710   8.049  0.30 31.77 LIG 0.24  C 
ATOM     31  N   THR I   4      48.952  39.876   7.671  0.30 31.46 LIG-0.34  N 
ATOM     32 H    THR I   4      48.423  40.031   7.011  0.30 31.46 LIG 0.16  HD
ATOM     33 O    SER I   3      50.108  38.596   9.071  0.30 31.84 LIG-0.27  OA
BRANCH 31 34
ATOM     34  CA  THR I   4      49.366  40.998   8.470  0.30 31.16 LIG 0.20  C 
BRANCH 34 35
ATOM     35  CB  THR I   4      48.534  41.049   9.744  0.30 31.16 LIG 0.15  C 
ATOM     36  CG2 THR I   4      48.971  42.201  10.632  0.30 31.01 LIG 0.04  C 
BRANCH 35 37
ATOM     37 OG1  THR I   4      47.150  41.197   9.402  0.30 31.22 LIG-0.39  OA
ATOM     38 HG1  THR I   4      47.014  41.974   9.116  0.30 31.22 LIG 0.21  HD
ENDBRANCH 35 37
ENDBRANCH 34 35
BRANCH 34 39
ATOM     39  C   THR I   4      50.844  41.015   8.821  0.30 30.90 LIG 0.24  C 
ATOM     40  N   LYS I   5      51.655  41.271   7.821  0.30 30.59 LIG-0.35  N 
ATOM     41 H    LYS I   5      51.441  41.311   6.989  0.30 30.59 LIG 0.16  HD
ATOM     42 O    THR I   4      51.231  40.810   9.969  0.30 30.97 LIG-0.27  OA
BRANCH 40 43
ATOM     43  CA  LYS I   5      53.024  41.505   8.141  0.30 30.26 LIG 0.16  C 
BRANCH 43 44
ATOM     44  C   LYS I   5      53.187  43.013   8.105  0.30 30.28 LIG 0.22  C 
ATOM     45 O    LYS I   5      52.544  43.741   8.855  0.30 30.24 LIG-0.29  OA
ENDBRANCH 43 44
BRANCH 43 46
ATOM     46  CB  LYS I   5      53.988  40.897   7.145  0.30 30.11 LIG 0.03  C 
BRANCH 46 47
ATOM     47  CG  LYS I   5      54.217  39.413   7.350  0.30 29.43 LIG 0.00  C 
BRANCH 47 48
ATOM     48  CD  LYS I   5      55.657  39.131   7.701  0.30 28.58 LIG 0.03  C 
BRANCH 48 49
ATOM     49  CE  LYS I   5      55.825  37.676   8.110  0.30 28.11 LIG 0.23  C 
BRANCH 49 50
ATOM     50  NZ  LYS I   5      57.058  37.070   7.550  0.30 27.97 LIG-0.08  N 
ATOM     51 HZ1  LYS I   5      56.884  36.241   7.277  0.30 27.97 LIG 0.27  HD
ATOM     52 HZ2  LYS I   5      57.340  37.556   6.860  0.30 27.97 LIG 0.27  HD
ATOM     53 HZ3  LYS I   5      57.689  37.049   8.177  0.30 27.97 LIG 0.27  HD
ENDBRANCH 49 50
ENDBRANCH 48 49
ENDBRANCH 47 48
ENDBRANCH 46 47
ENDBRANCH 43 46
ENDBRANCH 40 43
ENDBRANCH 34 39
ENDBRANCH 31 34
ENDBRANCH 1 30
TORSDOF 23
ENDMDL
MODEL 20
USER: ADFR SOLUTION from run 72
USER: SCORE 17.629944 LL:  -3.345 LR: -16.610 RR:   0.000 FEB:  -9.749
USER: RMSD 9.551622
USER: SEED 71
USER: STATUS no improvement in best 13 clusters for 5 generations
USER: GENES 25
USER: genes 0 Translation |==|  0.55596 0.45398 0.45349
USER: genes 1 Rotation |==|  0.13761 0.32943 0.26502 0.68538
USER: genes 2 Torsion [C]-CA--N-[C] |==|  0.64869
USER: genes 3 Torsion [N]-C--CA-[N] |==|  0.67800
USER: genes 4 Torsion [C]-CA--CB-[CG] |==|  0.30249
USER: genes 5 Torsion [CA]-CB--CG-[CD1] |==|  0.81694
USER: genes 6 Torsion [C]-CA--N-[C] |==|  0.48969
USER: genes 7 Torsion [N]-C--CA-[N] |==|  0.42470
USER: genes 8 Torsion [C]-CA--CB-[CG] |==|  0.12057
USER: genes 9 Torsion [CA]-CB--CG-[CD2] |==|  0.23645
USER: genes 10 Torsion [C]-CA--N-[H2] |==|  0.88527
USER: genes 11 Torsion [N]-CA--CB-[OG] |==|  0.89737
USER: genes 12 Torsion [CA]-CB--OG-[HG] |==|  0.70395
USER: genes 13 Torsion [N]-CA--C-[N] |==|  0.19159
USER: genes 14 Torsion [C]-N--CA-[CB] |==|  0.83994
USER: genes 15 Torsion [N]-CA--CB-[CG2] |==|  0.51870
USER: genes 16 Torsion [CA]-CB--OG1-[HG1] |==|  0.16061
USER: genes 17 Torsion [N]-CA--C-[N] |==|  0.33889
USER: genes 18 Torsion [C]-N--CA-[C] |==|  0.78663
USER: genes 19 Torsion [N]-CA--C-[O] |==|  0.28354
USER: genes 20 Torsion [N]-CA--CB-[CG] |==|  0.72332
USER: genes 21 Torsion [CA]-CB--CG-[CD] |==|  0.46223
USER: genes 22 Torsion [CB]-CG--CD-[CE] |==|  0.22132
USER: genes 23 Torsion [CG]-CD--CE-[NZ] |==|  0.18568
USER: genes 24 Torsion [CD]-CE--NZ-[HZ2] |==|  0.85686
ROOT
ATOM      1  CA  SER I   3      47.709  30.440   8.375  0.30 32.02 LIG 0.20  C 
ENDROOT
BRANCH 1 2
ATOM      2  N   SER I   3      48.482  30.580   7.145  0.30 32.24 LIG-0.34  N 
ATOM      3 H    SER I   3      48.837  29.869   6.817  0.30 32.24 LIG 0.16  HD
ATOM      4  C   LEU I   2      48.553  31.801   6.660  0.30 32.50 LIG 0.24  C 
ATOM      5 O    LEU I   2      48.015  32.751   7.225  0.30 32.61 LIG-0.27  OA
BRANCH 4 6
ATOM      6  CA  LEU I   2      49.298  32.035   5.383  0.30 32.74 LIG 0.18  C 
BRANCH 6 7
ATOM      7  CB  LEU I   2      49.748  30.722   4.734  0.30 32.79 LIG 0.04  C 
BRANCH 7 8
ATOM      8  CG  LEU I   2      48.989  30.339   3.441  0.30 32.97 LIG-0.02  C 
ATOM      9  CD1 LEU I   2      47.533  30.042   3.754  0.30 33.23 LIG 0.01  C 
ATOM     10  CD2 LEU I   2      49.094  31.437   2.393  0.30 33.13 LIG 0.01  C 
ENDBRANCH 7 8
ENDBRANCH 6 7
BRANCH 6 11
ATOM     11  N   LEU I   2      50.310  32.867   5.968  0.30 32.86 LIG-0.35  N 
ATOM     12  C   PHE I   1      51.323  33.327   5.275  0.30 33.00 LIG 0.25  C 
ATOM     13 O    PHE I   1      51.607  32.911   4.154  0.30 33.06 LIG-0.27  OA
ATOM     14 H    LEU I   2      50.191  33.032   6.802  0.30 32.86 LIG 0.16  HD
BRANCH 12 15
ATOM     15  CA  PHE I   1      52.159  34.415   5.937  0.30 33.09 LIG 0.28  C 
BRANCH 15 16
ATOM     16  CB  PHE I   1      51.555  35.787   5.743  0.30 33.12 LIG 0.08  C 
BRANCH 16 17
ATOM     17  CG  PHE I   1      50.060  35.921   5.926  0.30 33.22 LIG-0.06  A 
ATOM     18  CD1 PHE I   1      49.130  35.866   4.876  0.30 33.33 LIG 0.01  A 
ATOM     19  CE1 PHE I   1      47.765  35.962   5.156  0.30 33.39 LIG 0.00  A 
ATOM     20  CZ  PHE I   1      47.335  36.121   6.457  0.30 33.40 LIG 0.00  A 
ATOM     21  CE2 PHE I   1      48.242  36.210   7.487  0.30 33.33 LIG 0.00  A 
ATOM     22  CD2 PHE I   1      49.581  36.119   7.214  0.30 33.29 LIG 0.01  A 
ENDBRANCH 16 17
ENDBRANCH 15 16
BRANCH 15 23
ATOM     23  N   PHE I   1      53.530  34.401   5.436  0.30 33.12 LIG-0.07  N 
ATOM     24 H2   PHE I   1      53.809  33.559   5.358  0.30 33.12 LIG 0.28  HD
ATOM     25 H1   PHE I   1      54.059  34.837   6.004  0.30 33.12 LIG 0.28  HD
ATOM     26 H3   PHE I   1      53.559  34.797   4.640  0.30 33.12 LIG 0.28  HD
ENDBRANCH 15 23
ENDBRANCH 12 15
ENDBRANCH 6 11
ENDBRANCH 4 6
ENDBRANCH 1 2
BRANCH 1 27
ATOM     27  CB  SER I   3      46.419  29.666   8.086  0.30 32.04 LIG 0.20  C 
BRANCH 27 28
ATOM     28 OG   SER I   3      45.894  30.010   6.818  0.30 32.08 LIG-0.40  OA
ATOM     29 HG   SER I   3      45.213  30.492   6.918  0.30 32.08 LIG 0.21  HD
ENDBRANCH 27 28
ENDBRANCH 1 27
BRANCH 1 30
ATOM     30  C   SER I   3      48.438  29.762   9.508  0.30 31.77 LIG 0.24  C 
ATOM     31  N   THR I   4      49.448  30.370  10.099  0.30 31.46 LIG-0.34  N 
ATOM     32 H    THR I   4      49.728  31.171   9.962  0.30 31.46 LIG 0.16  HD
ATOM     33 O    SER I   3      48.067  28.648   9.858  0.30 31.84 LIG-0.27  OA
BRANCH 31 34
ATOM     34  CA  THR I   4      50.143  29.580  11.082  0.30 31.16 LIG 0.20  C 
BRANCH 34 35
ATOM     35  CB  THR I   4      49.162  29.123  12.152  0.30 31.16 LIG 0.15  C 
ATOM     36  CG2 THR I   4      49.887  28.427  13.291  0.30 31.01 LIG 0.04  C 
BRANCH 35 37
ATOM     37 OG1  THR I   4      48.443  30.256  12.654  0.30 31.22 LIG-0.39  OA
ATOM     38 HG1  THR I   4      48.046  30.639  12.020  0.30 31.22 LIG 0.21  HD
ENDBRANCH 35 37
ENDBRANCH 34 35
BRANCH 34 39
ATOM     39  C   THR I   4      50.888  28.381  10.520  0.30 30.90 LIG 0.24  C 
ATOM     40  N   LYS I   5      52.176  28.355  10.767  0.30 30.59 LIG-0.35  N 
ATOM     41 H    LYS I   5      52.644  28.993  11.105  0.30 30.59 LIG 0.16  HD
ATOM     42 O    THR I   4      50.303  27.505   9.889  0.30 30.97 LIG-0.27  OA
BRANCH 40 43
ATOM     43  CA  LYS I   5      52.873  27.154  10.445  0.30 30.26 LIG 0.16  C 
BRANCH 43 44
ATOM     44  C   LYS I   5      52.520  26.181  11.556  0.30 30.28 LIG 0.22  C 
ATOM     45 O    LYS I   5      51.688  25.296  11.386  0.30 30.24 LIG-0.29  OA
ENDBRANCH 43 44
BRANCH 43 46
ATOM     46  CB  LYS I   5      54.377  27.319  10.417  0.30 30.11 LIG 0.03  C 
BRANCH 46 47
ATOM     47  CG  LYS I   5      54.943  27.482   9.020  0.30 29.43 LIG 0.00  C 
BRANCH 47 48
ATOM     48  CD  LYS I   5      56.371  27.967   9.068  0.30 28.58 LIG 0.03  C 
BRANCH 48 49
ATOM     49  CE  LYS I   5      57.311  26.811   9.367  0.30 28.11 LIG 0.23  C 
BRANCH 49 50
ATOM     50  NZ  LYS I   5      57.358  25.820   8.264  0.30 27.97 LIG-0.08  N 
ATOM     51 HZ1  LYS I   5      57.818  25.105   8.525  0.30 27.97 LIG 0.27  HD
ATOM     52 HZ2  LYS I   5      56.529  25.576   8.049  0.30 27.97 LIG 0.27  HD
ATOM     53 HZ3  LYS I   5      57.754  26.184   7.555  0.30 27.97 LIG 0.27  HD
ENDBRANCH 49 50
ENDBRANCH 48 49
ENDBRANCH 47 48
ENDBRANCH 46 47
ENDBRANCH 43 46
ENDBRANCH 40 43
ENDBRANCH 34 39
ENDBRANCH 31 34
ENDBRANCH 1 30
TORSDOF 23
ENDMDL
MODEL 21
USER: ADFR SOLUTION from run 6
USER: SCORE 18.207165 LL:  -3.541 LR: -16.483 RR:   0.000 FEB:  -9.622
USER: RMSD 8.666868
USER: SEED 468721
USER: STATUS no improvement in best 6 clusters for 5 generations
USER: GENES 25
USER: genes 0 Translation |==|  0.53648 0.46999 0.44743
USER: genes 1 Rotation |==|  0.17248 0.18136 0.37979 0.66354
USER: genes 2 Torsion [C]-CA--N-[C] |==|  0.83703
USER: genes 3 Torsion [N]-C--CA-[N] |==|  0.63047
USER: genes 4 Torsion [C]-CA--CB-[CG] |==|  0.24900
USER: genes 5 Torsion [CA]-CB--CG-[CD1] |==|  0.32401
USER: genes 6 Torsion [C]-CA--N-[C] |==|  0.48617
USER: genes 7 Torsion [N]-C--CA-[N] |==|  0.45122
USER: genes 8 Torsion [C]-CA--CB-[CG] |==|  0.10909
USER: genes 9 Torsion [CA]-CB--CG-[CD2] |==|  0.74578
USER: genes 10 Torsion [C]-CA--N-[H2] |==|  0.59858
USER: genes 11 Torsion [N]-CA--CB-[OG] |==|  0.14173
USER: genes 12 Torsion [CA]-CB--OG-[HG] |==|  0.13448
USER: genes 13 Torsion [N]-CA--C-[N] |==|  0.37144
USER: genes 14 Torsion [C]-N--CA-[CB] |==|  0.82778
USER: genes 15 Torsion [N]-CA--CB-[CG2] |==|  0.56611
USER: genes 16 Torsion [CA]-CB--OG1-[HG1] |==|  0.03861
USER: genes 17 Torsion [N]-CA--C-[N] |==|  0.44708
USER: genes 18 Torsion [C]-N--CA-[C] |==|  0.49750
USER: genes 19 Torsion [N]-CA--C-[O] |==|  0.78870
USER: genes 20 Torsion [N]-CA--CB-[CG] |==|  0.62331
USER: genes 21 Torsion [CA]-CB--CG-[CD] |==|  0.77795
USER: genes 22 Torsion [CB]-CG--CD-[CE] |==|  0.60449
USER: genes 23 Torsion [CG]-CD--CE-[NZ] |==|  0.76943
USER: genes 24 Torsion [CD]-CE--NZ-[HZ2] |==|  0.29802
ROOT
ATOM      1  CA  SER I   3      47.124  30.920   8.193  0.30 32.02 LIG 0.20  C 
ENDROOT
BRANCH 1 2
ATOM      2  N   SER I   3      47.822  30.936   6.911  0.30 32.24 LIG-0.34  N 
ATOM      3 H    SER I   3      47.850  30.200   6.466  0.30 32.24 LIG 0.16  HD
ATOM      4  C   LEU I   2      48.341  32.094   6.567  0.30 32.50 LIG 0.24  C 
ATOM      5 O    LEU I   2      48.253  33.082   7.292  0.30 32.61 LIG-0.27  OA
BRANCH 4 6
ATOM      6  CA  LEU I   2      49.048  32.213   5.252  0.30 32.74 LIG 0.18  C 
BRANCH 6 7
ATOM      7  CB  LEU I   2      49.275  30.845   4.599  0.30 32.79 LIG 0.04  C 
BRANCH 7 8
ATOM      8  CG  LEU I   2      48.132  30.367   3.673  0.30 32.97 LIG-0.02  C 
ATOM      9  CD1 LEU I   2      48.633  30.234   2.245  0.30 33.23 LIG 0.01  C 
ATOM     10  CD2 LEU I   2      47.545  29.048   4.154  0.30 33.13 LIG 0.01  C 
ENDBRANCH 7 8
ENDBRANCH 6 7
BRANCH 6 11
ATOM     11  N   LEU I   2      50.195  32.896   5.776  0.30 32.86 LIG-0.35  N 
ATOM     12  C   PHE I   1      51.237  33.183   5.036  0.30 33.00 LIG 0.25  C 
ATOM     13 O    PHE I   1      51.412  32.703   3.918  0.30 33.06 LIG-0.27  OA
ATOM     14 H    LEU I   2      50.134  33.096   6.610  0.30 32.86 LIG 0.16  HD
BRANCH 12 15
ATOM     15  CA  PHE I   1      52.253  34.148   5.637  0.30 33.09 LIG 0.28  C 
BRANCH 15 16
ATOM     16  CB  PHE I   1      51.747  35.572   5.632  0.30 33.12 LIG 0.08  C 
BRANCH 16 17
ATOM     17  CG  PHE I   1      50.287  35.794   5.956  0.30 33.22 LIG-0.06  A 
ATOM     18  CD1 PHE I   1      49.785  35.971   7.255  0.30 33.33 LIG 0.01  A 
ATOM     19  CE1 PHE I   1      48.422  36.208   7.443  0.30 33.39 LIG 0.00  A 
ATOM     20  CZ  PHE I   1      47.573  36.260   6.358  0.30 33.40 LIG 0.00  A 
ATOM     21  CE2 PHE I   1      48.051  36.055   5.085  0.30 33.33 LIG 0.00  A 
ATOM     22  CD2 PHE I   1      49.387  35.818   4.898  0.30 33.29 LIG 0.01  A 
ENDBRANCH 16 17
ENDBRANCH 15 16
BRANCH 15 23
ATOM     23  N   PHE I   1      53.529  34.071   4.933  0.30 33.12 LIG-0.07  N 
ATOM     24 H2   PHE I   1      54.195  34.185   5.512  0.30 33.12 LIG 0.28  HD
ATOM     25 H1   PHE I   1      53.564  34.708   4.312  0.30 33.12 LIG 0.28  HD
ATOM     26 H3   PHE I   1      53.607  33.274   4.545  0.30 33.12 LIG 0.28  HD
ENDBRANCH 15 23
ENDBRANCH 12 15
ENDBRANCH 6 11
ENDBRANCH 4 6
ENDBRANCH 1 2
BRANCH 1 27
ATOM     27  CB  SER I   3      46.543  29.526   8.445  0.30 32.04 LIG 0.20  C 
BRANCH 27 28
ATOM     28 OG   SER I   3      47.529  28.526   8.272  0.30 32.08 LIG-0.40  OA
ATOM     29 HG   SER I   3      48.223  28.741   8.693  0.30 32.08 LIG 0.21  HD
ENDBRANCH 27 28
ENDBRANCH 1 27
BRANCH 1 30
ATOM     30  C   SER I   3      47.968  31.316   9.379  0.30 31.77 LIG 0.24  C 
ATOM     31  N   THR I   4      47.500  32.172  10.265  0.30 31.46 LIG-0.34  N 
ATOM     32 H    THR I   4      46.710  32.511  10.297  0.30 31.46 LIG 0.16  HD
ATOM     33 O    SER I   3      49.084  30.822   9.492  0.30 31.84 LIG-0.27  OA
BRANCH 31 34
ATOM     34  CA  THR I   4      48.436  32.567  11.284  0.30 31.16 LIG 0.20  C 
BRANCH 34 35
ATOM     35  CB  THR I   4      48.851  31.347  12.093  0.30 31.16 LIG 0.15  C 
ATOM     36  CG2 THR I   4      49.336  31.750  13.474  0.30 31.01 LIG 0.04  C 
BRANCH 35 37
ATOM     37 OG1  THR I   4      47.737  30.453  12.212  0.30 31.22 LIG-0.39  OA
ATOM     38 HG1  THR I   4      47.140  30.675  11.664  0.30 31.22 LIG 0.21  HD
ENDBRANCH 35 37
ENDBRANCH 34 35
BRANCH 34 39
ATOM     39  C   THR I   4      49.671  33.285  10.766  0.30 30.90 LIG 0.24  C 
ATOM     40  N   LYS I   5      50.329  33.985  11.661  0.30 30.59 LIG-0.35  N 
ATOM     41 H    LYS I   5      50.068  34.165  12.460  0.30 30.59 LIG 0.16  HD
ATOM     42 O    THR I   4      50.016  33.195   9.591  0.30 30.97 LIG-0.27  OA
BRANCH 40 43
ATOM     43  CA  LYS I   5      51.601  34.499  11.273  0.30 30.26 LIG 0.16  C 
BRANCH 43 44
ATOM     44  C   LYS I   5      52.102  35.269  12.480  0.30 30.28 LIG 0.22  C 
ATOM     45 O    LYS I   5      51.654  36.376  12.761  0.30 30.24 LIG-0.29  OA
ENDBRANCH 43 44
BRANCH 43 46
ATOM     46  CB  LYS I   5      51.533  35.449  10.097  0.30 30.11 LIG 0.03  C 
BRANCH 46 47
ATOM     47  CG  LYS I   5      52.606  35.202   9.055  0.30 29.43 LIG 0.00  C 
BRANCH 47 48
ATOM     48  CD  LYS I   5      53.922  35.807   9.479  0.30 28.58 LIG 0.03  C 
BRANCH 48 49
ATOM     49  CE  LYS I   5      54.646  36.392   8.276  0.30 28.11 LIG 0.23  C 
BRANCH 49 50
ATOM     50  NZ  LYS I   5      55.406  35.366   7.520  0.30 27.97 LIG-0.08  N 
ATOM     51 HZ1  LYS I   5      55.458  34.620   8.001  0.30 27.97 LIG 0.27  HD
ATOM     52 HZ2  LYS I   5      54.990  35.195   6.752  0.30 27.97 LIG 0.27  HD
ATOM     53 HZ3  LYS I   5      56.226  35.669   7.353  0.30 27.97 LIG 0.27  HD
ENDBRANCH 49 50
ENDBRANCH 48 49
ENDBRANCH 47 48
ENDBRANCH 46 47
ENDBRANCH 43 46
ENDBRANCH 40 43
ENDBRANCH 34 39
ENDBRANCH 31 34
ENDBRANCH 1 30
TORSDOF 23
ENDMDL
